
     RDKit          3D

 23 23  0  0  0  0  0  0  0  0999 V2000
   -2.8388    0.2476    0.0080 C   0  0  0  0  0  0  0  0  0  0  0  0
   -1.5893   -0.0784    0.7770 C   0  0  0  0  0  0  0  0  0  0  0  0
   -0.4468   -0.4924   -0.1158 C   0  0  0  0  0  0  0  0  0  0  0  0
   -0.6621   -1.6020   -0.8928 O   0  0  0  0  0  0  0  0  0  0  0  0
    0.2247    0.6198   -0.8718 C   0  0  0  0  0  0  0  0  0  0  0  0
    1.5558    0.0345   -0.4421 C   0  0  0  0  0  0  0  0  0  0  0  0
    2.5023    1.0581    0.1316 C   0  0  0  0  0  0  0  0  0  0  0  0
    2.1105   -0.8767   -1.3122 O   0  0  0  0  0  0  0  0  0  0  0  0
    0.8244   -0.6554    0.6898 C   0  0  0  0  0  0  0  0  0  0  0  0
   -2.7358    0.0554   -1.0835 H   0  0  0  0  0  0  0  0  0  0  0  0
   -3.6674   -0.3513    0.4249 H   0  0  0  0  0  0  0  0  0  0  0  0
   -3.1208    1.3182    0.1830 H   0  0  0  0  0  0  0  0  0  0  0  0
   -1.7595   -0.9309    1.4908 H   0  0  0  0  0  0  0  0  0  0  0  0
   -1.2863    0.7881    1.3959 H   0  0  0  0  0  0  0  0  0  0  0  0
   -1.4707   -1.5112   -1.4203 H   0  0  0  0  0  0  0  0  0  0  0  0
    0.0666    1.6351   -0.5092 H   0  0  0  0  0  0  0  0  0  0  0  0
    0.1025    0.5088   -1.9868 H   0  0  0  0  0  0  0  0  0  0  0  0
    1.9275    1.6569    0.8794 H   0  0  0  0  0  0  0  0  0  0  0  0
    3.2971    0.5371    0.6690 H   0  0  0  0  0  0  0  0  0  0  0  0
    2.8971    1.6860   -0.6923 H   0  0  0  0  0  0  0  0  0  0  0  0
    2.0401   -1.8234   -0.9954 H   0  0  0  0  0  0  0  0  0  0  0  0
    0.8608   -0.1214    1.6462 H   0  0  0  0  0  0  0  0  0  0  0  0
    1.1680   -1.7025    0.8131 H   0  0  0  0  0  0  0  0  0  0  0  0
  1  2  1  0
  2  3  1  0
  3  4  1  0
  3  5  1  0
  5  6  1  0
  6  7  1  0
  6  8  1  0
  6  9  1  0
  9  3  1  0
  1 10  1  0
  1 11  1  0
  1 12  1  0
  2 13  1  0
  2 14  1  0
  4 15  1  0
  5 16  1  0
  5 17  1  0
  7 18  1  0
  7 19  1  0
  7 20  1  0
  8 21  1  0
  9 22  1  0
  9 23  1  0
M  END
