
     RDKit          3D

 25 25  0  0  0  0  0  0  0  0999 V2000
   -1.9482   -1.3604   -0.2000 C   0  0  0  0  0  0  0  0  0  0  0  0
   -1.0045   -0.3604   -0.8610 C   0  0  0  0  0  0  0  0  0  0  0  0
   -0.0593    0.1205    0.1826 C   0  0  0  0  0  0  0  0  0  0  0  0
   -0.7333    0.7271    1.2224 O   0  0  0  0  0  0  0  0  0  0  0  0
   -1.4634    1.8064    0.8406 C   0  0  0  0  0  0  0  0  0  0  0  0
    0.9687    1.0948   -0.3300 C   0  0  0  0  0  0  0  0  0  0  0  0
    2.2871    0.3820   -0.1348 C   0  0  0  0  0  0  0  0  0  0  0  0
    1.9105   -1.0584   -0.2874 C   0  0  0  0  0  0  0  0  0  0  0  0
    0.7101   -1.1003    0.6697 C   0  0  0  0  0  0  0  0  0  0  0  0
   -1.7730   -2.3623   -0.6465 H   0  0  0  0  0  0  0  0  0  0  0  0
   -3.0103   -1.1028   -0.3896 H   0  0  0  0  0  0  0  0  0  0  0  0
   -1.8306   -1.3603    0.9071 H   0  0  0  0  0  0  0  0  0  0  0  0
   -0.4592   -0.8661   -1.7179 H   0  0  0  0  0  0  0  0  0  0  0  0
   -1.6261    0.3943   -1.3522 H   0  0  0  0  0  0  0  0  0  0  0  0
   -2.2590    1.5917    0.1022 H   0  0  0  0  0  0  0  0  0  0  0  0
   -2.0016    2.1944    1.7424 H   0  0  0  0  0  0  0  0  0  0  0  0
   -0.8867    2.6489    0.4018 H   0  0  0  0  0  0  0  0  0  0  0  0
    1.0376    2.0289    0.2708 H   0  0  0  0  0  0  0  0  0  0  0  0
    0.8457    1.3115   -1.4126 H   0  0  0  0  0  0  0  0  0  0  0  0
    3.0619    0.7101   -0.8501 H   0  0  0  0  0  0  0  0  0  0  0  0
    2.6036    0.5547    0.9260 H   0  0  0  0  0  0  0  0  0  0  0  0
    2.7254   -1.7147    0.0818 H   0  0  0  0  0  0  0  0  0  0  0  0
    1.6077   -1.2683   -1.3255 H   0  0  0  0  0  0  0  0  0  0  0  0
    1.1006   -0.9728    1.6876 H   0  0  0  0  0  0  0  0  0  0  0  0
    0.1961   -2.0386    0.4725 H   0  0  0  0  0  0  0  0  0  0  0  0
  1  2  1  0
  2  3  1  0
  3  4  1  0
  4  5  1  0
  3  6  1  0
  6  7  1  0
  7  8  1  0
  8  9  1  0
  9  3  1  0
  1 10  1  0
  1 11  1  0
  1 12  1  0
  2 13  1  0
  2 14  1  0
  5 15  1  0
  5 16  1  0
  5 17  1  0
  6 18  1  0
  6 19  1  0
  7 20  1  0
  7 21  1  0
  8 22  1  0
  8 23  1  0
  9 24  1  0
  9 25  1  0
M  END
