
     RDKit          3D

 20 20  0  0  0  0  0  0  0  0999 V2000
   -2.7695   -0.4823    0.2582 C   0  0  0  0  0  0  0  0  0  0  0  0
   -1.7853    0.3527    1.0856 C   0  0  0  0  0  0  0  0  0  0  0  0
   -0.5794    0.5703    0.2185 C   0  0  0  0  0  0  0  0  0  0  0  0
    0.1263   -0.6921   -0.2285 C   0  0  0  0  0  0  0  0  0  0  0  0
    1.2701    0.3113   -0.1746 C   0  0  0  0  0  0  0  0  0  0  0  0
    2.6157   -0.2641    0.1256 C   0  0  0  0  0  0  0  0  0  0  0  0
    3.4280    0.7663    0.6196 O   0  0  0  0  0  0  0  0  0  0  0  0
    0.6015    0.8787    0.9123 O   0  0  0  0  0  0  0  0  0  0  0  0
   -2.7541   -0.0799   -0.7931 H   0  0  0  0  0  0  0  0  0  0  0  0
   -3.7818   -0.4466    0.6809 H   0  0  0  0  0  0  0  0  0  0  0  0
   -2.3569   -1.5117    0.1852 H   0  0  0  0  0  0  0  0  0  0  0  0
   -1.5159   -0.2626    1.9581 H   0  0  0  0  0  0  0  0  0  0  0  0
   -2.2599    1.2739    1.4163 H   0  0  0  0  0  0  0  0  0  0  0  0
   -0.7160    1.2682   -0.6127 H   0  0  0  0  0  0  0  0  0  0  0  0
   -0.1322   -1.0579   -1.2188 H   0  0  0  0  0  0  0  0  0  0  0  0
    0.2779   -1.4410    0.5720 H   0  0  0  0  0  0  0  0  0  0  0  0
    1.2139    1.0087   -1.0327 H   0  0  0  0  0  0  0  0  0  0  0  0
    3.0665   -0.5997   -0.8196 H   0  0  0  0  0  0  0  0  0  0  0  0
    2.5111   -1.0492    0.8846 H   0  0  0  0  0  0  0  0  0  0  0  0
    3.5398    1.4572   -0.0974 H   0  0  0  0  0  0  0  0  0  0  0  0
  1  2  1  0
  2  3  1  0
  3  4  1  0
  4  5  1  0
  5  6  1  0
  6  7  1  0
  5  8  1  0
  8  3  1  0
  1  9  1  0
  1 10  1  0
  1 11  1  0
  2 12  1  0
  2 13  1  0
  3 14  1  0
  4 15  1  0
  4 16  1  0
  5 17  1  0
  6 18  1  0
  6 19  1  0
  7 20  1  0
M  END
