
     RDKit          3D

 25 26  0  0  0  0  0  0  0  0999 V2000
   -2.0603    1.0587   -0.5658 C   0  0  0  0  0  0  0  0  0  0  0  0
   -1.8377   -0.3817   -0.3027 C   0  0  0  0  0  0  0  0  0  0  0  0
   -0.6172   -0.9291    0.2063 C   0  0  0  0  0  0  0  0  0  0  0  0
   -0.1937   -0.4294    1.5261 C   0  0  0  0  0  0  0  0  0  0  0  0
    0.7330    0.7322    1.1477 C   0  0  0  0  0  0  0  0  0  0  0  0
    0.9683    0.5148   -0.3593 C   0  0  0  0  0  0  0  0  0  0  0  0
    2.4383    0.8730   -0.6430 C   0  0  0  0  0  0  0  0  0  0  0  0
    0.8190   -0.9312   -0.3845 C   0  0  0  0  0  0  0  0  0  0  0  0
   -0.0702   -1.9513   -0.6555 C   0  0  0  0  0  0  0  0  0  0  0  0
   -1.8896    1.3376   -1.6518 H   0  0  0  0  0  0  0  0  0  0  0  0
   -1.6307    1.7722    0.1314 H   0  0  0  0  0  0  0  0  0  0  0  0
   -3.1809    1.2591   -0.4907 H   0  0  0  0  0  0  0  0  0  0  0  0
   -2.3159   -0.9064   -1.1943 H   0  0  0  0  0  0  0  0  0  0  0  0
   -2.6036   -0.6503    0.5045 H   0  0  0  0  0  0  0  0  0  0  0  0
    0.3447   -1.1999    2.0799 H   0  0  0  0  0  0  0  0  0  0  0  0
   -1.0254   -0.0751    2.1354 H   0  0  0  0  0  0  0  0  0  0  0  0
    1.7171    0.5859    1.6846 H   0  0  0  0  0  0  0  0  0  0  0  0
    0.3773    1.7099    1.4083 H   0  0  0  0  0  0  0  0  0  0  0  0
    0.3877    1.1456   -0.9919 H   0  0  0  0  0  0  0  0  0  0  0  0
    3.0636   -0.0493   -0.6609 H   0  0  0  0  0  0  0  0  0  0  0  0
    2.8510    1.5276    0.1190 H   0  0  0  0  0  0  0  0  0  0  0  0
    2.5525    1.3463   -1.6270 H   0  0  0  0  0  0  0  0  0  0  0  0
    1.6396   -1.3184    0.3205 H   0  0  0  0  0  0  0  0  0  0  0  0
   -0.0619   -2.9729   -0.2015 H   0  0  0  0  0  0  0  0  0  0  0  0
   -0.4051   -2.0681   -1.7288 H   0  0  0  0  0  0  0  0  0  0  0  0
  1  2  1  0
  2  3  1  0
  3  4  1  0
  4  5  1  0
  5  6  1  0
  6  7  1  0
  6  8  1  0
  8  9  1  0
  8  3  1  0
  9  3  1  0
  1 10  1  0
  1 11  1  0
  1 12  1  0
  2 13  1  0
  2 14  1  0
  4 15  1  0
  4 16  1  0
  5 17  1  0
  5 18  1  0
  6 19  1  0
  7 20  1  0
  7 21  1  0
  7 22  1  0
  8 23  1  0
  9 24  1  0
  9 25  1  0
M  END
