
     RDKit          3D

 23 24  0  0  0  0  0  0  0  0999 V2000
    2.5999   -0.4289   -0.0637 C   0  0  0  0  0  0  0  0  0  0  0  0
    1.5472    0.4626    0.5152 C   0  0  0  0  0  0  0  0  0  0  0  0
    0.3223    0.3710   -0.3272 C   0  0  0  0  0  0  0  0  0  0  0  0
   -0.2782   -0.9789   -0.4391 C   0  0  0  0  0  0  0  0  0  0  0  0
   -1.6245   -0.6514   -1.1054 C   0  0  0  0  0  0  0  0  0  0  0  0
   -1.8974    0.0436    0.2139 C   0  0  0  0  0  0  0  0  0  0  0  0
   -1.1192   -1.1254    0.8367 C   0  0  0  0  0  0  0  0  0  0  0  0
   -0.8631    1.1270    0.3049 C   0  0  0  0  0  0  0  0  0  0  0  0
   -1.1716    2.2669   -0.3843 O   0  0  0  0  0  0  0  0  0  0  0  0
    2.2141   -1.2889   -0.6306 H   0  0  0  0  0  0  0  0  0  0  0  0
    3.2535   -0.8422    0.7415 H   0  0  0  0  0  0  0  0  0  0  0  0
    3.2609    0.1345   -0.7839 H   0  0  0  0  0  0  0  0  0  0  0  0
    1.9263    1.5127    0.4405 H   0  0  0  0  0  0  0  0  0  0  0  0
    1.3343    0.2700    1.5846 H   0  0  0  0  0  0  0  0  0  0  0  0
    0.4873    0.8370   -1.3047 H   0  0  0  0  0  0  0  0  0  0  0  0
    0.2521   -1.8209   -0.7863 H   0  0  0  0  0  0  0  0  0  0  0  0
   -1.5382    0.0543   -1.9398 H   0  0  0  0  0  0  0  0  0  0  0  0
   -2.2430   -1.5382   -1.2588 H   0  0  0  0  0  0  0  0  0  0  0  0
   -2.8889    0.2032    0.5288 H   0  0  0  0  0  0  0  0  0  0  0  0
   -1.7312   -2.0355    0.8664 H   0  0  0  0  0  0  0  0  0  0  0  0
   -0.6016   -0.8570    1.7603 H   0  0  0  0  0  0  0  0  0  0  0  0
   -0.6130    1.2710    1.3622 H   0  0  0  0  0  0  0  0  0  0  0  0
   -0.6280    3.0135    0.0243 H   0  0  0  0  0  0  0  0  0  0  0  0
  1  2  1  0
  2  3  1  0
  3  4  1  0
  4  5  1  0
  5  6  1  0
  6  7  1  0
  6  8  1  0
  8  9  1  0
  8  3  1  0
  7  4  1  0
  1 10  1  0
  1 11  1  0
  1 12  1  0
  2 13  1  0
  2 14  1  0
  3 15  1  0
  4 16  1  0
  5 17  1  0
  5 18  1  0
  6 19  1  0
  7 20  1  0
  7 21  1  0
  8 22  1  0
  9 23  1  0
M  END
