
     RDKit          3D

 21 22  0  0  0  0  0  0  0  0999 V2000
    2.1931    0.5073    0.6334 C   0  0  0  0  0  0  0  0  0  0  0  0
    1.1902   -0.6138    0.4076 C   0  0  0  0  0  0  0  0  0  0  0  0
    0.4002   -0.3777   -0.8314 C   0  0  0  0  0  0  0  0  0  0  0  0
   -0.4149    0.8654   -0.9090 C   0  0  0  0  0  0  0  0  0  0  0  0
   -1.0709    1.2510    0.3800 C   0  0  0  0  0  0  0  0  0  0  0  0
   -1.9020    0.2822    0.8910 O   0  0  0  0  0  0  0  0  0  0  0  0
   -1.7013   -0.9793    0.3949 C   0  0  0  0  0  0  0  0  0  0  0  0
   -0.9496   -0.9917   -0.8934 C   0  0  0  0  0  0  0  0  0  0  0  0
   -1.3799    0.1287   -1.6361 O   0  0  0  0  0  0  0  0  0  0  0  0
    3.1878    0.2337    0.1773 H   0  0  0  0  0  0  0  0  0  0  0  0
    1.8534    1.4705    0.2193 H   0  0  0  0  0  0  0  0  0  0  0  0
    2.3970    0.5698    1.7271 H   0  0  0  0  0  0  0  0  0  0  0  0
    0.5345   -0.7418    1.2750 H   0  0  0  0  0  0  0  0  0  0  0  0
    1.7950   -1.5376    0.2555 H   0  0  0  0  0  0  0  0  0  0  0  0
    0.9522   -0.5405   -1.7798 H   0  0  0  0  0  0  0  0  0  0  0  0
   -0.0275    1.7067   -1.4871 H   0  0  0  0  0  0  0  0  0  0  0  0
   -0.3541    1.6327    1.1467 H   0  0  0  0  0  0  0  0  0  0  0  0
   -1.7274    2.1417    0.1477 H   0  0  0  0  0  0  0  0  0  0  0  0
   -2.7237   -1.4078    0.1770 H   0  0  0  0  0  0  0  0  0  0  0  0
   -1.2750   -1.6760    1.1606 H   0  0  0  0  0  0  0  0  0  0  0  0
   -0.9771   -1.9235   -1.4562 H   0  0  0  0  0  0  0  0  0  0  0  0
  1  2  1  0
  2  3  1  0
  3  4  1  0
  4  5  1  0
  5  6  1  0
  6  7  1  0
  7  8  1  0
  8  9  1  0
  8  3  1  0
  9  4  1  0
  1 10  1  0
  1 11  1  0
  1 12  1  0
  2 13  1  0
  2 14  1  0
  3 15  1  0
  4 16  1  0
  5 17  1  0
  5 18  1  0
  7 19  1  0
  7 20  1  0
  8 21  1  0
M  END
