
     RDKit          3D

 21 22  0  0  0  0  0  0  0  0999 V2000
   -2.0151   -1.3525   -0.2112 C   0  0  0  0  0  0  0  0  0  0  0  0
   -0.7629   -0.8130   -0.8497 C   0  0  0  0  0  0  0  0  0  0  0  0
   -0.1786    0.2193    0.0859 C   0  0  0  0  0  0  0  0  0  0  0  0
   -0.9894    1.3976    0.4344 C   0  0  0  0  0  0  0  0  0  0  0  0
   -2.1118    1.5307    0.8916 O   0  0  0  0  0  0  0  0  0  0  0  0
    0.1383    2.2620   -0.0079 C   0  0  0  0  0  0  0  0  0  0  0  0
    0.9631    1.0537   -0.3199 C   0  0  0  0  0  0  0  0  0  0  0  0
    1.0965    0.0465    0.7649 C   0  0  0  0  0  0  0  0  0  0  0  0
    2.0269   -1.0895    0.5007 C   0  0  0  0  0  0  0  0  0  0  0  0
   -2.8186   -0.5791   -0.2672 H   0  0  0  0  0  0  0  0  0  0  0  0
   -2.3685   -2.2287   -0.8064 H   0  0  0  0  0  0  0  0  0  0  0  0
   -1.8936   -1.5954    0.8552 H   0  0  0  0  0  0  0  0  0  0  0  0
   -0.0545   -1.5851   -1.1363 H   0  0  0  0  0  0  0  0  0  0  0  0
   -1.0943   -0.2424   -1.7650 H   0  0  0  0  0  0  0  0  0  0  0  0
    0.5475    2.7983    0.8806 H   0  0  0  0  0  0  0  0  0  0  0  0
   -0.0944    2.9318   -0.8554 H   0  0  0  0  0  0  0  0  0  0  0  0
    1.4491    0.9267   -1.3014 H   0  0  0  0  0  0  0  0  0  0  0  0
    1.1855    0.4783    1.7867 H   0  0  0  0  0  0  0  0  0  0  0  0
    2.8693   -0.7451   -0.1514 H   0  0  0  0  0  0  0  0  0  0  0  0
    2.5266   -1.4522    1.4443 H   0  0  0  0  0  0  0  0  0  0  0  0
    1.5788   -1.9619    0.0277 H   0  0  0  0  0  0  0  0  0  0  0  0
  1  2  1  0
  2  3  1  0
  3  4  1  0
  4  5  2  0
  4  6  1  0
  6  7  1  0
  7  8  1  0
  8  9  1  0
  7  3  1  0
  8  3  1  0
  1 10  1  0
  1 11  1  0
  1 12  1  0
  2 13  1  0
  2 14  1  0
  6 15  1  0
  6 16  1  0
  7 17  1  0
  8 18  1  0
  9 19  1  0
  9 20  1  0
  9 21  1  0
M  END
