
     RDKit          3D

 17 18  0  0  0  0  0  0  0  0999 V2000
   -2.4004    0.0531   -0.0370 C   0  0  0  0  0  0  0  0  0  0  0  0
   -1.1474   -0.3612    0.7040 C   0  0  0  0  0  0  0  0  0  0  0  0
    0.0594    0.1169   -0.0412 C   0  0  0  0  0  0  0  0  0  0  0  0
    0.1753   -0.3793   -1.3312 O   0  0  0  0  0  0  0  0  0  0  0  0
    1.1267   -0.8497   -0.4590 C   0  0  0  0  0  0  0  0  0  0  0  0
    2.4285   -0.0921   -0.5453 C   0  0  0  0  0  0  0  0  0  0  0  0
    2.1787    1.1040    0.1599 O   0  0  0  0  0  0  0  0  0  0  0  0
    0.8328    1.2688    0.4070 C   0  0  0  0  0  0  0  0  0  0  0  0
    0.3470    2.2888    0.9510 O   0  0  0  0  0  0  0  0  0  0  0  0
   -2.5949    1.1414    0.0439 H   0  0  0  0  0  0  0  0  0  0  0  0
   -2.3801   -0.2444   -1.1052 H   0  0  0  0  0  0  0  0  0  0  0  0
   -3.2542   -0.4444    0.4801 H   0  0  0  0  0  0  0  0  0  0  0  0
   -1.1461   -1.4493    0.8134 H   0  0  0  0  0  0  0  0  0  0  0  0
   -1.1863    0.1354    1.6947 H   0  0  0  0  0  0  0  0  0  0  0  0
    1.0700   -1.8327    0.0030 H   0  0  0  0  0  0  0  0  0  0  0  0
    3.2865   -0.6337   -0.1310 H   0  0  0  0  0  0  0  0  0  0  0  0
    2.6045    0.1785   -1.6070 H   0  0  0  0  0  0  0  0  0  0  0  0
  1  2  1  0
  2  3  1  0
  3  4  1  0
  4  5  1  0
  5  6  1  0
  6  7  1  0
  7  8  1  0
  8  9  2  0
  5  3  1  0
  8  3  1  0
  1 10  1  0
  1 11  1  0
  1 12  1  0
  2 13  1  0
  2 14  1  0
  5 15  1  0
  6 16  1  0
  6 17  1  0
M  END
