
     RDKit          3D

 21 21  0  0  0  0  0  0  0  0999 V2000
    2.3147   -0.6275    0.5042 C   0  0  0  0  0  0  0  0  0  0  0  0
    1.4299   -0.1305   -0.6081 C   0  0  0  0  0  0  0  0  0  0  0  0
    0.1686    0.4539   -0.0186 C   0  0  0  0  0  0  0  0  0  0  0  0
    0.3850    1.5102    0.8318 O   0  0  0  0  0  0  0  0  0  0  0  0
   -0.7765   -0.5740    0.5801 C   0  0  0  0  0  0  0  0  0  0  0  0
   -0.7702   -0.6584    1.9468 O   0  0  0  0  0  0  0  0  0  0  0  0
   -1.9110    0.3122    0.0705 C   0  0  0  0  0  0  0  0  0  0  0  0
   -0.9275    0.7307   -1.0309 C   0  0  0  0  0  0  0  0  0  0  0  0
   -0.9900   -0.2006   -2.0617 O   0  0  0  0  0  0  0  0  0  0  0  0
    2.8771   -1.5191    0.1440 H   0  0  0  0  0  0  0  0  0  0  0  0
    3.0434    0.1351    0.8555 H   0  0  0  0  0  0  0  0  0  0  0  0
    1.6763   -1.0109    1.3503 H   0  0  0  0  0  0  0  0  0  0  0  0
    1.9584    0.7157   -1.1143 H   0  0  0  0  0  0  0  0  0  0  0  0
    1.2135   -0.8829   -1.3776 H   0  0  0  0  0  0  0  0  0  0  0  0
    0.2611    2.3936    0.4125 H   0  0  0  0  0  0  0  0  0  0  0  0
   -0.7555   -1.5497    0.0229 H   0  0  0  0  0  0  0  0  0  0  0  0
   -1.7041   -0.8195    2.2473 H   0  0  0  0  0  0  0  0  0  0  0  0
   -2.7727   -0.2311   -0.3270 H   0  0  0  0  0  0  0  0  0  0  0  0
   -2.1169    1.1389    0.7733 H   0  0  0  0  0  0  0  0  0  0  0  0
   -1.0264    1.7852   -1.3446 H   0  0  0  0  0  0  0  0  0  0  0  0
   -1.5771   -0.9713   -1.8565 H   0  0  0  0  0  0  0  0  0  0  0  0
  1  2  1  0
  2  3  1  0
  3  4  1  0
  3  5  1  0
  5  6  1  0
  5  7  1  0
  7  8  1  0
  8  9  1  0
  8  3  1  0
  1 10  1  0
  1 11  1  0
  1 12  1  0
  2 13  1  0
  2 14  1  0
  4 15  1  0
  5 16  1  0
  6 17  1  0
  7 18  1  0
  7 19  1  0
  8 20  1  0
  9 21  1  0
M  END
