
     RDKit          3D

 25 25  0  0  0  0  0  0  0  0999 V2000
   -3.1679   -0.4122    0.4009 C   0  0  0  0  0  0  0  0  0  0  0  0
   -1.9766    0.4303    0.7821 C   0  0  0  0  0  0  0  0  0  0  0  0
   -0.6758   -0.0913    0.1558 C   0  0  0  0  0  0  0  0  0  0  0  0
    0.4072    0.6565    0.4959 O   0  0  0  0  0  0  0  0  0  0  0  0
    1.6287    0.3269    0.0328 C   0  0  0  0  0  0  0  0  0  0  0  0
    2.2845    1.4006   -0.8150 C   0  0  0  0  0  0  0  0  0  0  0  0
    2.6395   -0.0362    1.0970 C   0  0  0  0  0  0  0  0  0  0  0  0
   -0.7708   -0.3547   -1.3605 C   0  0  0  0  0  0  0  0  0  0  0  0
   -0.6821   -1.4624   -0.3134 C   0  0  0  0  0  0  0  0  0  0  0  0
   -4.0612    0.1584    0.7951 H   0  0  0  0  0  0  0  0  0  0  0  0
   -3.3262   -0.4972   -0.6708 H   0  0  0  0  0  0  0  0  0  0  0  0
   -3.1391   -1.3779    0.9494 H   0  0  0  0  0  0  0  0  0  0  0  0
   -2.1589    1.4815    0.4711 H   0  0  0  0  0  0  0  0  0  0  0  0
   -1.9123    0.4148    1.8846 H   0  0  0  0  0  0  0  0  0  0  0  0
    1.5479   -0.5749   -0.6094 H   0  0  0  0  0  0  0  0  0  0  0  0
    2.2500    2.3894   -0.3266 H   0  0  0  0  0  0  0  0  0  0  0  0
    3.3782    1.1385   -0.8825 H   0  0  0  0  0  0  0  0  0  0  0  0
    1.9189    1.4034   -1.8524 H   0  0  0  0  0  0  0  0  0  0  0  0
    3.6306   -0.0974    0.5662 H   0  0  0  0  0  0  0  0  0  0  0  0
    2.4113   -1.0396    1.4616 H   0  0  0  0  0  0  0  0  0  0  0  0
    2.7593    0.7337    1.8658 H   0  0  0  0  0  0  0  0  0  0  0  0
    0.1213   -0.1657   -1.9880 H   0  0  0  0  0  0  0  0  0  0  0  0
   -1.7239   -0.2516   -1.8695 H   0  0  0  0  0  0  0  0  0  0  0  0
    0.2167   -2.1010   -0.4298 H   0  0  0  0  0  0  0  0  0  0  0  0
   -1.5993   -2.0720   -0.1805 H   0  0  0  0  0  0  0  0  0  0  0  0
  1  2  1  0
  2  3  1  0
  3  4  1  0
  4  5  1  0
  5  6  1  0
  5  7  1  0
  3  8  1  0
  8  9  1  0
  9  3  1  0
  1 10  1  0
  1 11  1  0
  1 12  1  0
  2 13  1  0
  2 14  1  0
  5 15  1  0
  6 16  1  0
  6 17  1  0
  6 18  1  0
  7 19  1  0
  7 20  1  0
  7 21  1  0
  8 22  1  0
  8 23  1  0
  9 24  1  0
  9 25  1  0
M  END
