
     RDKit          3D

 25 25  0  0  0  0  0  0  0  0999 V2000
    2.9165   -0.4790    0.4710 C   0  0  0  0  0  0  0  0  0  0  0  0
    1.4482   -0.8317    0.6214 C   0  0  0  0  0  0  0  0  0  0  0  0
    0.6001   -0.0344   -0.3372 C   0  0  0  0  0  0  0  0  0  0  0  0
   -0.8774   -0.3230   -0.2551 C   0  0  0  0  0  0  0  0  0  0  0  0
   -1.5331   -0.5025   -1.6103 C   0  0  0  0  0  0  0  0  0  0  0  0
   -1.3644   -1.3121    0.7834 C   0  0  0  0  0  0  0  0  0  0  0  0
   -0.3527    0.9651    0.1940 C   0  0  0  0  0  0  0  0  0  0  0  0
   -0.7018    2.2139   -0.5445 C   0  0  0  0  0  0  0  0  0  0  0  0
   -0.2667    1.1587    1.5897 O   0  0  0  0  0  0  0  0  0  0  0  0
    3.3384   -1.0047   -0.4166 H   0  0  0  0  0  0  0  0  0  0  0  0
    3.4818   -0.8003    1.3597 H   0  0  0  0  0  0  0  0  0  0  0  0
    2.9807    0.6081    0.3080 H   0  0  0  0  0  0  0  0  0  0  0  0
    1.3306   -1.9213    0.5077 H   0  0  0  0  0  0  0  0  0  0  0  0
    1.1405   -0.5529    1.6499 H   0  0  0  0  0  0  0  0  0  0  0  0
    1.0758    0.1736   -1.3097 H   0  0  0  0  0  0  0  0  0  0  0  0
   -1.2501    0.2706   -2.3274 H   0  0  0  0  0  0  0  0  0  0  0  0
   -1.1493   -1.4903   -2.0006 H   0  0  0  0  0  0  0  0  0  0  0  0
   -2.6326   -0.6306   -1.5266 H   0  0  0  0  0  0  0  0  0  0  0  0
   -1.1053   -0.9242    1.7845 H   0  0  0  0  0  0  0  0  0  0  0  0
   -2.4692   -1.3946    0.6616 H   0  0  0  0  0  0  0  0  0  0  0  0
   -0.8735   -2.3007    0.6491 H   0  0  0  0  0  0  0  0  0  0  0  0
   -0.3193    3.1237   -0.0267 H   0  0  0  0  0  0  0  0  0  0  0  0
   -0.4244    2.2319   -1.5950 H   0  0  0  0  0  0  0  0  0  0  0  0
   -1.8257    2.3148   -0.5008 H   0  0  0  0  0  0  0  0  0  0  0  0
   -1.1671    1.4420    1.8706 H   0  0  0  0  0  0  0  0  0  0  0  0
  1  2  1  0
  2  3  1  0
  3  4  1  0
  4  5  1  0
  4  6  1  0
  4  7  1  0
  7  8  1  0
  7  9  1  0
  7  3  1  0
  1 10  1  0
  1 11  1  0
  1 12  1  0
  2 13  1  0
  2 14  1  0
  3 15  1  0
  5 16  1  0
  5 17  1  0
  5 18  1  0
  6 19  1  0
  6 20  1  0
  6 21  1  0
  8 22  1  0
  8 23  1  0
  8 24  1  0
  9 25  1  0
M  END
