
     RDKit          3D

 23 24  0  0  0  0  0  0  0  0999 V2000
    2.7647    0.8840   -0.0314 C   0  0  0  0  0  0  0  0  0  0  0  0
    2.0310   -0.4287    0.0111 C   0  0  0  0  0  0  0  0  0  0  0  0
    0.5815   -0.1617   -0.0767 C   0  0  0  0  0  0  0  0  0  0  0  0
    0.0939    1.0676   -0.1747 C   0  0  0  0  0  0  0  0  0  0  0  0
   -1.3335    1.2785    0.1733 C   0  0  0  0  0  0  0  0  0  0  0  0
   -2.0834   -0.0088    0.1189 C   0  0  0  0  0  0  0  0  0  0  0  0
   -1.4421   -1.0554    1.0360 C   0  0  0  0  0  0  0  0  0  0  0  0
   -0.4285   -1.2694   -0.0601 C   0  0  0  0  0  0  0  0  0  0  0  0
   -1.5213   -0.8350   -1.0465 C   0  0  0  0  0  0  0  0  0  0  0  0
    2.4583    1.5464    0.8050 H   0  0  0  0  0  0  0  0  0  0  0  0
    3.8506    0.6458    0.1174 H   0  0  0  0  0  0  0  0  0  0  0  0
    2.5942    1.3718   -1.0308 H   0  0  0  0  0  0  0  0  0  0  0  0
    2.4021   -1.0584   -0.8227 H   0  0  0  0  0  0  0  0  0  0  0  0
    2.2303   -0.9082    0.9885 H   0  0  0  0  0  0  0  0  0  0  0  0
    0.6897    1.8885   -0.4902 H   0  0  0  0  0  0  0  0  0  0  0  0
   -1.7544    1.9513   -0.6045 H   0  0  0  0  0  0  0  0  0  0  0  0
   -1.4615    1.8179    1.1394 H   0  0  0  0  0  0  0  0  0  0  0  0
   -3.1653    0.0292    0.1679 H   0  0  0  0  0  0  0  0  0  0  0  0
   -2.0681   -1.9523    1.1632 H   0  0  0  0  0  0  0  0  0  0  0  0
   -1.0581   -0.6272    1.9710 H   0  0  0  0  0  0  0  0  0  0  0  0
   -0.0452   -2.2732   -0.2006 H   0  0  0  0  0  0  0  0  0  0  0  0
   -1.1734   -0.2112   -1.8701 H   0  0  0  0  0  0  0  0  0  0  0  0
   -2.1618   -1.6913   -1.2833 H   0  0  0  0  0  0  0  0  0  0  0  0
  1  2  1  0
  2  3  1  0
  3  4  2  0
  4  5  1  0
  5  6  1  0
  6  7  1  0
  7  8  1  0
  8  9  1  0
  8  3  1  0
  9  6  1  0
  1 10  1  0
  1 11  1  0
  1 12  1  0
  2 13  1  0
  2 14  1  0
  4 15  1  0
  5 16  1  0
  5 17  1  0
  6 18  1  0
  7 19  1  0
  7 20  1  0
  8 21  1  0
  9 22  1  0
  9 23  1  0
M  END
