
     RDKit          3D

 21 21  0  0  0  0  0  0  0  0999 V2000
   -2.6444    0.4793   -0.0702 C   0  0  0  0  0  0  0  0  0  0  0  0
   -1.3055    0.5175   -0.7694 C   0  0  0  0  0  0  0  0  0  0  0  0
   -0.2317    0.1600    0.2166 C   0  0  0  0  0  0  0  0  0  0  0  0
   -0.3591   -1.2136    0.8445 C   0  0  0  0  0  0  0  0  0  0  0  0
    1.1164   -1.2625    0.7988 C   0  0  0  0  0  0  0  0  0  0  0  0
    1.9849   -1.7696    1.4459 O   0  0  0  0  0  0  0  0  0  0  0  0
    1.0315   -0.4075   -0.3998 C   0  0  0  0  0  0  0  0  0  0  0  0
    2.1421    0.5904   -0.5847 C   0  0  0  0  0  0  0  0  0  0  0  0
    2.5363    1.1505    0.6292 O   0  0  0  0  0  0  0  0  0  0  0  0
   -3.2896    1.3270   -0.4338 H   0  0  0  0  0  0  0  0  0  0  0  0
   -2.4686    0.6239    1.0140 H   0  0  0  0  0  0  0  0  0  0  0  0
   -3.2183   -0.4431   -0.3013 H   0  0  0  0  0  0  0  0  0  0  0  0
   -1.1344    1.5852   -1.0537 H   0  0  0  0  0  0  0  0  0  0  0  0
   -1.2670   -0.0911   -1.6738 H   0  0  0  0  0  0  0  0  0  0  0  0
    0.0321    0.9295    0.9490 H   0  0  0  0  0  0  0  0  0  0  0  0
   -0.8174   -1.2053    1.8499 H   0  0  0  0  0  0  0  0  0  0  0  0
   -0.8458   -1.9545    0.1464 H   0  0  0  0  0  0  0  0  0  0  0  0
    0.8625   -1.0301   -1.2962 H   0  0  0  0  0  0  0  0  0  0  0  0
    1.7490    1.3853   -1.2695 H   0  0  0  0  0  0  0  0  0  0  0  0
    2.9695    0.1082   -1.1318 H   0  0  0  0  0  0  0  0  0  0  0  0
    3.1574    0.5205    1.0899 H   0  0  0  0  0  0  0  0  0  0  0  0
  1  2  1  0
  2  3  1  0
  3  4  1  0
  4  5  1  0
  5  6  2  0
  5  7  1  0
  7  8  1  0
  8  9  1  0
  7  3  1  0
  1 10  1  0
  1 11  1  0
  1 12  1  0
  2 13  1  0
  2 14  1  0
  3 15  1  0
  4 16  1  0
  4 17  1  0
  7 18  1  0
  8 19  1  0
  8 20  1  0
  9 21  1  0
M  END
