
     RDKit          3D

 23 23  0  0  0  0  0  0  0  0999 V2000
   -2.6492    0.5058   -0.2659 C   0  0  0  0  0  0  0  0  0  0  0  0
   -1.8261   -0.7048   -0.6150 C   0  0  0  0  0  0  0  0  0  0  0  0
   -0.6655   -0.8096    0.3494 C   0  0  0  0  0  0  0  0  0  0  0  0
    0.1524   -1.9130    0.0931 O   0  0  0  0  0  0  0  0  0  0  0  0
    1.2269   -1.1294    0.5722 C   0  0  0  0  0  0  0  0  0  0  0  0
    2.5195   -1.4693   -0.0881 C   0  0  0  0  0  0  0  0  0  0  0  0
    0.5093    0.0933    0.0269 C   0  0  0  0  0  0  0  0  0  0  0  0
    0.5305    1.1576    0.8859 O   0  0  0  0  0  0  0  0  0  0  0  0
    0.7678    2.3785    0.3074 C   0  0  0  0  0  0  0  0  0  0  0  0
   -2.0412    1.4041   -0.0797 H   0  0  0  0  0  0  0  0  0  0  0  0
   -3.2548    0.2338    0.6362 H   0  0  0  0  0  0  0  0  0  0  0  0
   -3.3485    0.7028   -1.1191 H   0  0  0  0  0  0  0  0  0  0  0  0
   -1.5075   -0.7100   -1.6530 H   0  0  0  0  0  0  0  0  0  0  0  0
   -2.4733   -1.5994   -0.4238 H   0  0  0  0  0  0  0  0  0  0  0  0
   -0.9760   -0.7621    1.4013 H   0  0  0  0  0  0  0  0  0  0  0  0
    1.2042   -1.1374    1.6735 H   0  0  0  0  0  0  0  0  0  0  0  0
    2.4303   -2.3663   -0.7538 H   0  0  0  0  0  0  0  0  0  0  0  0
    3.2325   -1.7952    0.7249 H   0  0  0  0  0  0  0  0  0  0  0  0
    2.9605   -0.6326   -0.6590 H   0  0  0  0  0  0  0  0  0  0  0  0
    0.6771    0.2747   -1.0328 H   0  0  0  0  0  0  0  0  0  0  0  0
    1.7555    2.4282   -0.2203 H   0  0  0  0  0  0  0  0  0  0  0  0
    0.8286    3.1309    1.1217 H   0  0  0  0  0  0  0  0  0  0  0  0
   -0.0530    2.7194   -0.3611 H   0  0  0  0  0  0  0  0  0  0  0  0
  1  2  1  0
  2  3  1  0
  3  4  1  0
  4  5  1  0
  5  6  1  0
  5  7  1  0
  7  8  1  0
  8  9  1  0
  7  3  1  0
  1 10  1  0
  1 11  1  0
  1 12  1  0
  2 13  1  0
  2 14  1  0
  3 15  1  0
  5 16  1  0
  6 17  1  0
  6 18  1  0
  6 19  1  0
  7 20  1  0
  9 21  1  0
  9 22  1  0
  9 23  1  0
M  END
