
     RDKit          3D

 21 21  0  0  0  0  0  0  0  0999 V2000
    2.6661    0.1983    0.0727 C   0  0  0  0  0  0  0  0  0  0  0  0
    1.4886   -0.0347    1.0223 C   0  0  0  0  0  0  0  0  0  0  0  0
    0.2871    0.6018    0.4036 C   0  0  0  0  0  0  0  0  0  0  0  0
   -0.1493    0.1168   -0.9331 C   0  0  0  0  0  0  0  0  0  0  0  0
   -1.0239   -0.0380    0.3217 C   0  0  0  0  0  0  0  0  0  0  0  0
   -1.2846   -1.4609    0.6840 C   0  0  0  0  0  0  0  0  0  0  0  0
   -2.2726    0.8388    0.3022 C   0  0  0  0  0  0  0  0  0  0  0  0
    2.4316    1.0526   -0.6251 H   0  0  0  0  0  0  0  0  0  0  0  0
    2.8790   -0.6799   -0.5485 H   0  0  0  0  0  0  0  0  0  0  0  0
    3.5708    0.5161    0.6223 H   0  0  0  0  0  0  0  0  0  0  0  0
    1.7370    0.4964    1.9678 H   0  0  0  0  0  0  0  0  0  0  0  0
    1.3683   -1.1060    1.2600 H   0  0  0  0  0  0  0  0  0  0  0  0
    0.2544    1.7206    0.5599 H   0  0  0  0  0  0  0  0  0  0  0  0
    0.3778   -0.7696   -1.3133 H   0  0  0  0  0  0  0  0  0  0  0  0
   -0.4891    0.8338   -1.7098 H   0  0  0  0  0  0  0  0  0  0  0  0
   -1.8795   -1.9142   -0.1488 H   0  0  0  0  0  0  0  0  0  0  0  0
   -0.3942   -2.0626    0.8868 H   0  0  0  0  0  0  0  0  0  0  0  0
   -1.9576   -1.5215    1.5830 H   0  0  0  0  0  0  0  0  0  0  0  0
   -1.9376    1.8961    0.4651 H   0  0  0  0  0  0  0  0  0  0  0  0
   -3.0315    0.5056    1.0102 H   0  0  0  0  0  0  0  0  0  0  0  0
   -2.6407    0.8106   -0.7492 H   0  0  0  0  0  0  0  0  0  0  0  0
  1  2  1  0
  2  3  1  0
  3  4  1  0
  4  5  1  0
  5  6  1  0
  5  7  1  0
  5  3  1  0
  1  8  1  0
  1  9  1  0
  1 10  1  0
  2 11  1  0
  2 12  1  0
  3 13  1  0
  4 14  1  0
  4 15  1  0
  6 16  1  0
  6 17  1  0
  6 18  1  0
  7 19  1  0
  7 20  1  0
  7 21  1  0
M  END
