
     RDKit          3D

 23 24  0  0  0  0  0  0  0  0999 V2000
   -0.9588    1.4957    0.6549 C   0  0  0  0  0  0  0  0  0  0  0  0
   -1.4549    0.5010   -0.3026 C   0  0  0  0  0  0  0  0  0  0  0  0
   -0.7298   -0.7157   -0.6427 C   0  0  0  0  0  0  0  0  0  0  0  0
    0.6335   -0.4445   -1.2394 C   0  0  0  0  0  0  0  0  0  0  0  0
    1.2336    0.0333    0.0860 C   0  0  0  0  0  0  0  0  0  0  0  0
    2.1891    1.1609    0.2457 C   0  0  0  0  0  0  0  0  0  0  0  0
    0.7135   -0.7897    0.9860 C   0  0  0  0  0  0  0  0  0  0  0  0
   -0.1374   -1.7321    0.3610 C   0  0  0  0  0  0  0  0  0  0  0  0
   -1.3663   -1.9337   -0.2839 C   0  0  0  0  0  0  0  0  0  0  0  0
   -0.3965    2.3426    0.1468 H   0  0  0  0  0  0  0  0  0  0  0  0
   -1.8729    2.0827    1.0220 H   0  0  0  0  0  0  0  0  0  0  0  0
   -0.5157    1.1645    1.5886 H   0  0  0  0  0  0  0  0  0  0  0  0
   -2.5015    0.2140    0.0442 H   0  0  0  0  0  0  0  0  0  0  0  0
   -1.7182    1.0947   -1.2494 H   0  0  0  0  0  0  0  0  0  0  0  0
    1.1666   -1.3792   -1.4828 H   0  0  0  0  0  0  0  0  0  0  0  0
    0.6558    0.3387   -1.9941 H   0  0  0  0  0  0  0  0  0  0  0  0
    3.2142    0.7702    0.1747 H   0  0  0  0  0  0  0  0  0  0  0  0
    2.0673    1.9193   -0.5582 H   0  0  0  0  0  0  0  0  0  0  0  0
    2.0465    1.6591    1.2477 H   0  0  0  0  0  0  0  0  0  0  0  0
    0.9518   -0.6969    2.0496 H   0  0  0  0  0  0  0  0  0  0  0  0
    0.6058   -2.5214   -0.0712 H   0  0  0  0  0  0  0  0  0  0  0  0
   -1.5428   -2.6419   -1.1321 H   0  0  0  0  0  0  0  0  0  0  0  0
   -2.2827   -1.9214    0.3494 H   0  0  0  0  0  0  0  0  0  0  0  0
  1  2  1  0
  2  3  1  0
  3  4  1  0
  4  5  1  0
  5  6  1  0
  5  7  2  0
  7  8  1  0
  8  9  1  0
  8  3  1  0
  9  3  1  0
  1 10  1  0
  1 11  1  0
  1 12  1  0
  2 13  1  0
  2 14  1  0
  4 15  1  0
  4 16  1  0
  6 17  1  0
  6 18  1  0
  6 19  1  0
  7 20  1  0
  8 21  1  0
  9 22  1  0
  9 23  1  0
M  END
