
     RDKit          3D

 20 21  0  0  0  0  0  0  0  0999 V2000
    1.8418    0.7270    0.5871 C   0  0  0  0  0  0  0  0  0  0  0  0
    0.9392    0.6644   -0.6323 C   0  0  0  0  0  0  0  0  0  0  0  0
   -0.0340   -0.4633   -0.5867 C   0  0  0  0  0  0  0  0  0  0  0  0
    0.5648   -1.8302   -0.5064 C   0  0  0  0  0  0  0  0  0  0  0  0
   -0.4113   -2.2607    0.3849 O   0  0  0  0  0  0  0  0  0  0  0  0
   -0.6868   -0.9221    0.6492 C   0  0  0  0  0  0  0  0  0  0  0  0
   -1.4821   -0.2290   -0.4012 C   0  0  0  0  0  0  0  0  0  0  0  0
   -2.0058    1.1138   -0.0128 C   0  0  0  0  0  0  0  0  0  0  0  0
    2.6883   -0.0038    0.4514 H   0  0  0  0  0  0  0  0  0  0  0  0
    1.2727    0.5147    1.5145 H   0  0  0  0  0  0  0  0  0  0  0  0
    2.3227    1.7231    0.6218 H   0  0  0  0  0  0  0  0  0  0  0  0
    0.5181    1.6510   -0.7962 H   0  0  0  0  0  0  0  0  0  0  0  0
    1.6323    0.4679   -1.5014 H   0  0  0  0  0  0  0  0  0  0  0  0
    0.5478   -2.3211   -1.4998 H   0  0  0  0  0  0  0  0  0  0  0  0
    1.5582   -1.8899   -0.0145 H   0  0  0  0  0  0  0  0  0  0  0  0
   -0.5074   -0.4980    1.6361 H   0  0  0  0  0  0  0  0  0  0  0  0
   -2.1454   -0.8322   -1.0646 H   0  0  0  0  0  0  0  0  0  0  0  0
   -1.4643    1.9660   -0.4337 H   0  0  0  0  0  0  0  0  0  0  0  0
   -2.0734    1.1906    1.1024 H   0  0  0  0  0  0  0  0  0  0  0  0
   -3.0750    1.2317   -0.3590 H   0  0  0  0  0  0  0  0  0  0  0  0
  1  2  1  0
  2  3  1  0
  3  4  1  0
  4  5  1  0
  5  6  1  0
  6  7  1  0
  7  8  1  0
  6  3  1  0
  7  3  1  0
  1  9  1  0
  1 10  1  0
  1 11  1  0
  2 12  1  0
  2 13  1  0
  4 14  1  0
  4 15  1  0
  6 16  1  0
  7 17  1  0
  8 18  1  0
  8 19  1  0
  8 20  1  0
M  END
