
     RDKit          3D

 25 26  0  0  0  0  0  0  0  0999 V2000
    2.6058    0.8654    0.2135 C   0  0  0  0  0  0  0  0  0  0  0  0
    2.0491   -0.4549   -0.2140 C   0  0  0  0  0  0  0  0  0  0  0  0
    0.5507   -0.5553   -0.1311 C   0  0  0  0  0  0  0  0  0  0  0  0
    0.0314   -1.9117   -0.5739 C   0  0  0  0  0  0  0  0  0  0  0  0
   -0.1901    0.6763   -0.5568 C   0  0  0  0  0  0  0  0  0  0  0  0
   -1.6339    0.5681   -0.9815 C   0  0  0  0  0  0  0  0  0  0  0  0
   -2.3942    0.8026    0.3034 C   0  0  0  0  0  0  0  0  0  0  0  0
   -1.5747   -0.0533    1.2773 C   0  0  0  0  0  0  0  0  0  0  0  0
   -0.1398    0.2262    0.8993 C   0  0  0  0  0  0  0  0  0  0  0  0
    2.3060    1.6748   -0.4520 H   0  0  0  0  0  0  0  0  0  0  0  0
    2.4037    1.0468    1.2888 H   0  0  0  0  0  0  0  0  0  0  0  0
    3.7265    0.7965    0.1129 H   0  0  0  0  0  0  0  0  0  0  0  0
    2.4905   -1.2924    0.3574 H   0  0  0  0  0  0  0  0  0  0  0  0
    2.3128   -0.6226   -1.2975 H   0  0  0  0  0  0  0  0  0  0  0  0
   -1.0430   -2.0260   -0.4776 H   0  0  0  0  0  0  0  0  0  0  0  0
    0.3229   -1.9980   -1.6615 H   0  0  0  0  0  0  0  0  0  0  0  0
    0.6382   -2.6683   -0.0424 H   0  0  0  0  0  0  0  0  0  0  0  0
    0.3114    1.6015   -0.8358 H   0  0  0  0  0  0  0  0  0  0  0  0
   -1.8933   -0.4193   -1.4029 H   0  0  0  0  0  0  0  0  0  0  0  0
   -1.8664    1.3392   -1.7357 H   0  0  0  0  0  0  0  0  0  0  0  0
   -3.4425    0.4481    0.2424 H   0  0  0  0  0  0  0  0  0  0  0  0
   -2.2901    1.8418    0.6377 H   0  0  0  0  0  0  0  0  0  0  0  0
   -1.8808   -1.0908    1.1297 H   0  0  0  0  0  0  0  0  0  0  0  0
   -1.8058    0.3415    2.2821 H   0  0  0  0  0  0  0  0  0  0  0  0
    0.4058    0.8638    1.6183 H   0  0  0  0  0  0  0  0  0  0  0  0
  1  2  1  0
  2  3  1  0
  3  4  1  0
  3  5  1  0
  5  6  1  0
  6  7  1  0
  7  8  1  0
  8  9  1  0
  9  3  1  0
  9  5  1  0
  1 10  1  0
  1 11  1  0
  1 12  1  0
  2 13  1  0
  2 14  1  0
  4 15  1  0
  4 16  1  0
  4 17  1  0
  5 18  1  0
  6 19  1  0
  6 20  1  0
  7 21  1  0
  7 22  1  0
  8 23  1  0
  8 24  1  0
  9 25  1  0
M  END
