
     RDKit          3D

 23 24  0  0  0  0  0  0  0  0999 V2000
    2.7159    0.1745    0.0259 C   0  0  0  0  0  0  0  0  0  0  0  0
    1.3992    0.0527   -0.7664 C   0  0  0  0  0  0  0  0  0  0  0  0
    0.3165    0.3657    0.1963 C   0  0  0  0  0  0  0  0  0  0  0  0
   -1.0976    0.3526   -0.2342 C   0  0  0  0  0  0  0  0  0  0  0  0
   -1.7539    1.1921   -1.0947 C   0  0  0  0  0  0  0  0  0  0  0  0
   -1.4130    0.1690    1.2451 C   0  0  0  0  0  0  0  0  0  0  0  0
   -0.2701   -0.7728    0.9862 C   0  0  0  0  0  0  0  0  0  0  0  0
    0.3060   -1.5342    1.7932 O   0  0  0  0  0  0  0  0  0  0  0  0
   -1.0231   -1.1312   -0.2642 C   0  0  0  0  0  0  0  0  0  0  0  0
    3.4661   -0.3737   -0.5447 H   0  0  0  0  0  0  0  0  0  0  0  0
    2.5018   -0.2728    1.0222 H   0  0  0  0  0  0  0  0  0  0  0  0
    2.9072    1.2636    0.1056 H   0  0  0  0  0  0  0  0  0  0  0  0
    1.4358    0.7521   -1.6251 H   0  0  0  0  0  0  0  0  0  0  0  0
    1.3634   -1.0030   -1.0819 H   0  0  0  0  0  0  0  0  0  0  0  0
    0.5002    1.2848    0.8252 H   0  0  0  0  0  0  0  0  0  0  0  0
   -1.0781    1.6959   -1.8479 H   0  0  0  0  0  0  0  0  0  0  0  0
   -2.2724    2.0582   -0.5941 H   0  0  0  0  0  0  0  0  0  0  0  0
   -2.5458    0.7173   -1.7149 H   0  0  0  0  0  0  0  0  0  0  0  0
   -2.3441   -0.3468    1.4736 H   0  0  0  0  0  0  0  0  0  0  0  0
   -1.1449    1.0627    1.8041 H   0  0  0  0  0  0  0  0  0  0  0  0
    0.5188   -2.4340    1.4410 H   0  0  0  0  0  0  0  0  0  0  0  0
   -2.0034   -1.6525   -0.0736 H   0  0  0  0  0  0  0  0  0  0  0  0
   -0.4846   -1.6201   -1.0768 H   0  0  0  0  0  0  0  0  0  0  0  0
  1  2  1  0
  2  3  1  0
  3  4  1  0
  4  5  1  0
  4  6  1  0
  6  7  1  0
  7  8  1  0
  7  9  1  0
  7  3  1  0
  9  4  1  0
  1 10  1  0
  1 11  1  0
  1 12  1  0
  2 13  1  0
  2 14  1  0
  3 15  1  0
  5 16  1  0
  5 17  1  0
  5 18  1  0
  6 19  1  0
  6 20  1  0
  8 21  1  0
  9 22  1  0
  9 23  1  0
M  END
