
     RDKit          3D

 21 21  0  0  0  0  0  0  0  0999 V2000
    2.2974    0.6813    0.8693 C   0  0  0  0  0  0  0  0  0  0  0  0
    1.7280   -0.2333   -0.1614 C   0  0  0  0  0  0  0  0  0  0  0  0
    0.2715   -0.5051    0.0535 C   0  0  0  0  0  0  0  0  0  0  0  0
   -0.1541   -1.7434    0.2536 C   0  0  0  0  0  0  0  0  0  0  0  0
   -1.5835   -1.7327    0.4311 C   0  0  0  0  0  0  0  0  0  0  0  0
   -2.3563   -2.5546    0.9766 O   0  0  0  0  0  0  0  0  0  0  0  0
   -2.0414   -0.4644   -0.1988 C   0  0  0  0  0  0  0  0  0  0  0  0
   -0.8591    0.4348    0.0881 C   0  0  0  0  0  0  0  0  0  0  0  0
   -0.7948    1.5071   -0.9536 C   0  0  0  0  0  0  0  0  0  0  0  0
    3.1571    0.1768    1.4034 H   0  0  0  0  0  0  0  0  0  0  0  0
    1.5915    0.9560    1.6764 H   0  0  0  0  0  0  0  0  0  0  0  0
    2.7459    1.5505    0.3626 H   0  0  0  0  0  0  0  0  0  0  0  0
    2.3122   -1.1693   -0.2022 H   0  0  0  0  0  0  0  0  0  0  0  0
    1.8223    0.2100   -1.1940 H   0  0  0  0  0  0  0  0  0  0  0  0
    0.4398   -2.6682    0.2894 H   0  0  0  0  0  0  0  0  0  0  0  0
   -2.0496   -0.6429   -1.2915 H   0  0  0  0  0  0  0  0  0  0  0  0
   -2.9852   -0.0917    0.2011 H   0  0  0  0  0  0  0  0  0  0  0  0
   -1.0349    0.8593    1.1172 H   0  0  0  0  0  0  0  0  0  0  0  0
   -0.0096    1.3490   -1.7090 H   0  0  0  0  0  0  0  0  0  0  0  0
   -0.7346    2.5316   -0.4823 H   0  0  0  0  0  0  0  0  0  0  0  0
   -1.7624    1.5491   -1.5296 H   0  0  0  0  0  0  0  0  0  0  0  0
  1  2  1  0
  2  3  1  0
  3  4  2  0
  4  5  1  0
  5  6  2  0
  5  7  1  0
  7  8  1  0
  8  9  1  0
  8  3  1  0
  1 10  1  0
  1 11  1  0
  1 12  1  0
  2 13  1  0
  2 14  1  0
  4 15  1  0
  7 16  1  0
  7 17  1  0
  8 18  1  0
  9 19  1  0
  9 20  1  0
  9 21  1  0
M  END
