
     RDKit          3D

 22 23  0  0  0  0  0  0  0  0999 V2000
    2.1383   -0.9604    0.5089 C   0  0  0  0  0  0  0  0  0  0  0  0
    1.2827   -0.3939   -0.6094 C   0  0  0  0  0  0  0  0  0  0  0  0
    0.0589    0.2623   -0.0669 C   0  0  0  0  0  0  0  0  0  0  0  0
    0.3692    1.4162    0.8704 C   0  0  0  0  0  0  0  0  0  0  0  0
   -1.0138    0.5130   -1.0593 C   0  0  0  0  0  0  0  0  0  0  0  0
   -1.9212    0.6340    0.1457 C   0  0  0  0  0  0  0  0  0  0  0  0
   -1.0584   -0.5880    0.4291 C   0  0  0  0  0  0  0  0  0  0  0  0
   -1.3520   -0.9390   -0.9805 C   0  0  0  0  0  0  0  0  0  0  0  0
    2.6397   -1.9040    0.1885 H   0  0  0  0  0  0  0  0  0  0  0  0
    1.5366   -1.1801    1.4209 H   0  0  0  0  0  0  0  0  0  0  0  0
    2.9158   -0.2341    0.8145 H   0  0  0  0  0  0  0  0  0  0  0  0
    1.8891    0.4496   -1.0725 H   0  0  0  0  0  0  0  0  0  0  0  0
    1.1341   -1.0930   -1.4450 H   0  0  0  0  0  0  0  0  0  0  0  0
   -0.0737    1.1664    1.8748 H   0  0  0  0  0  0  0  0  0  0  0  0
    1.4672    1.4641    0.9906 H   0  0  0  0  0  0  0  0  0  0  0  0
    0.0342    2.3829    0.5068 H   0  0  0  0  0  0  0  0  0  0  0  0
   -1.0121    1.1064   -1.8627 H   0  0  0  0  0  0  0  0  0  0  0  0
   -1.7729    1.4885    0.7989 H   0  0  0  0  0  0  0  0  0  0  0  0
   -2.9584    0.3971   -0.1209 H   0  0  0  0  0  0  0  0  0  0  0  0
   -1.1076   -1.1482    1.2528 H   0  0  0  0  0  0  0  0  0  0  0  0
   -0.7523   -1.6719   -1.5023 H   0  0  0  0  0  0  0  0  0  0  0  0
   -2.4435   -1.1680   -1.0825 H   0  0  0  0  0  0  0  0  0  0  0  0
  1  2  1  0
  2  3  1  0
  3  4  1  0
  3  5  1  0
  5  6  1  0
  6  7  1  0
  7  8  1  0
  7  3  1  0
  8  5  1  0
  1  9  1  0
  1 10  1  0
  1 11  1  0
  2 12  1  0
  2 13  1  0
  4 14  1  0
  4 15  1  0
  4 16  1  0
  5 17  1  0
  6 18  1  0
  6 19  1  0
  7 20  1  0
  8 21  1  0
  8 22  1  0
M  END
