
     RDKit          3D

 23 24  0  0  0  0  0  0  0  0999 V2000
    2.6851    0.5550   -0.1476 C   0  0  0  0  0  0  0  0  0  0  0  0
    1.4594    0.1289   -0.9504 C   0  0  0  0  0  0  0  0  0  0  0  0
    0.3237   -0.2200   -0.0185 C   0  0  0  0  0  0  0  0  0  0  0  0
    0.5860   -1.3185    0.9293 C   0  0  0  0  0  0  0  0  0  0  0  0
   -0.3093   -1.6364   -0.2011 C   0  0  0  0  0  0  0  0  0  0  0  0
   -1.6827   -0.9843   -0.1120 C   0  0  0  0  0  0  0  0  0  0  0  0
   -1.0146    0.3336   -0.3023 C   0  0  0  0  0  0  0  0  0  0  0  0
   -1.4988    1.4664    0.5599 C   0  0  0  0  0  0  0  0  0  0  0  0
   -2.7712    1.8550    0.1477 O   0  0  0  0  0  0  0  0  0  0  0  0
    2.9988    1.5809   -0.4320 H   0  0  0  0  0  0  0  0  0  0  0  0
    3.4692   -0.2039   -0.3478 H   0  0  0  0  0  0  0  0  0  0  0  0
    2.4513    0.5550    0.9569 H   0  0  0  0  0  0  0  0  0  0  0  0
    1.1061    0.9577   -1.6056 H   0  0  0  0  0  0  0  0  0  0  0  0
    1.6670   -0.7581   -1.5829 H   0  0  0  0  0  0  0  0  0  0  0  0
    1.5664   -1.7893    0.9286 H   0  0  0  0  0  0  0  0  0  0  0  0
    0.0886   -1.3541    1.9402 H   0  0  0  0  0  0  0  0  0  0  0  0
    0.0071   -2.1307   -1.1150 H   0  0  0  0  0  0  0  0  0  0  0  0
   -2.0426   -1.0828    0.9465 H   0  0  0  0  0  0  0  0  0  0  0  0
   -2.4015   -1.3012   -0.8775 H   0  0  0  0  0  0  0  0  0  0  0  0
   -1.0980    0.6460   -1.3827 H   0  0  0  0  0  0  0  0  0  0  0  0
   -0.8283    2.3411    0.3604 H   0  0  0  0  0  0  0  0  0  0  0  0
   -1.4940    1.2593    1.6274 H   0  0  0  0  0  0  0  0  0  0  0  0
   -3.2675    1.1005   -0.2647 H   0  0  0  0  0  0  0  0  0  0  0  0
  1  2  1  0
  2  3  1  0
  3  4  1  0
  4  5  1  0
  5  6  1  0
  6  7  1  0
  7  8  1  0
  8  9  1  0
  5  3  1  0
  7  3  1  0
  1 10  1  0
  1 11  1  0
  1 12  1  0
  2 13  1  0
  2 14  1  0
  4 15  1  0
  4 16  1  0
  5 17  1  0
  6 18  1  0
  6 19  1  0
  7 20  1  0
  8 21  1  0
  8 22  1  0
  9 23  1  0
M  END
