
     RDKit          3D

 23 24  0  0  0  0  0  0  0  0999 V2000
    2.5550   -0.5419    0.2090 C   0  0  0  0  0  0  0  0  0  0  0  0
    1.6118    0.5778   -0.1084 C   0  0  0  0  0  0  0  0  0  0  0  0
    0.2984    0.0729   -0.7156 C   0  0  0  0  0  0  0  0  0  0  0  0
   -0.5419    1.2989   -0.9805 C   0  0  0  0  0  0  0  0  0  0  0  0
   -1.7179    1.2532   -0.0581 C   0  0  0  0  0  0  0  0  0  0  0  0
   -1.5907    0.0173    0.7910 C   0  0  0  0  0  0  0  0  0  0  0  0
   -1.7828   -1.2702    0.0706 C   0  0  0  0  0  0  0  0  0  0  0  0
   -0.4168   -0.7490    0.3008 C   0  0  0  0  0  0  0  0  0  0  0  0
    0.3855   -1.4076    1.2335 O   0  0  0  0  0  0  0  0  0  0  0  0
    2.2444   -1.4974   -0.2637 H   0  0  0  0  0  0  0  0  0  0  0  0
    2.6080   -0.6963    1.3144 H   0  0  0  0  0  0  0  0  0  0  0  0
    3.5747   -0.2354   -0.0924 H   0  0  0  0  0  0  0  0  0  0  0  0
    1.4126    1.1433    0.8242 H   0  0  0  0  0  0  0  0  0  0  0  0
    2.0927    1.2637   -0.8636 H   0  0  0  0  0  0  0  0  0  0  0  0
    0.5116   -0.4276   -1.6610 H   0  0  0  0  0  0  0  0  0  0  0  0
    0.0079    2.2477   -0.8092 H   0  0  0  0  0  0  0  0  0  0  0  0
   -0.8527    1.3259   -2.0571 H   0  0  0  0  0  0  0  0  0  0  0  0
   -2.6718    1.1467   -0.6334 H   0  0  0  0  0  0  0  0  0  0  0  0
   -1.8354    2.1731    0.5455 H   0  0  0  0  0  0  0  0  0  0  0  0
   -1.7362    0.0891    1.8932 H   0  0  0  0  0  0  0  0  0  0  0  0
   -2.0557   -2.1800    0.6497 H   0  0  0  0  0  0  0  0  0  0  0  0
   -2.2561   -1.2450   -0.9282 H   0  0  0  0  0  0  0  0  0  0  0  0
    0.1556   -2.3593    1.3392 H   0  0  0  0  0  0  0  0  0  0  0  0
  1  2  1  0
  2  3  1  0
  3  4  1  0
  4  5  1  0
  5  6  1  0
  6  7  1  0
  7  8  1  0
  8  9  1  0
  8  3  1  0
  8  6  1  0
  1 10  1  0
  1 11  1  0
  1 12  1  0
  2 13  1  0
  2 14  1  0
  3 15  1  0
  4 16  1  0
  4 17  1  0
  5 18  1  0
  5 19  1  0
  6 20  1  0
  7 21  1  0
  7 22  1  0
  9 23  1  0
M  END
