
     RDKit          3D

 19 19  0  0  0  0  0  0  0  0999 V2000
    2.5054   -0.1150   -0.3800 C   0  0  0  0  0  0  0  0  0  0  0  0
    1.0623    0.0786   -0.7165 C   0  0  0  0  0  0  0  0  0  0  0  0
    0.1347   -0.1848    0.4229 C   0  0  0  0  0  0  0  0  0  0  0  0
    0.4998    0.5679    1.5945 O   0  0  0  0  0  0  0  0  0  0  0  0
   -0.9228   -1.1585    0.5460 C   0  0  0  0  0  0  0  0  0  0  0  0
   -1.3076    0.1832   -0.0356 C   0  0  0  0  0  0  0  0  0  0  0  0
   -1.7337    0.1142   -1.3155 O   0  0  0  0  0  0  0  0  0  0  0  0
   -1.9953    1.1462    0.8168 C   0  0  0  0  0  0  0  0  0  0  0  0
   -1.3546    2.0227    1.3637 O   0  0  0  0  0  0  0  0  0  0  0  0
    2.6392   -0.0172    0.7209 H   0  0  0  0  0  0  0  0  0  0  0  0
    3.0642    0.7714   -0.8112 H   0  0  0  0  0  0  0  0  0  0  0  0
    2.9590   -1.0284   -0.7910 H   0  0  0  0  0  0  0  0  0  0  0  0
    0.8181    1.0343   -1.1656 H   0  0  0  0  0  0  0  0  0  0  0  0
    0.8339   -0.6811   -1.5586 H   0  0  0  0  0  0  0  0  0  0  0  0
    0.7149   -0.1475    2.2768 H   0  0  0  0  0  0  0  0  0  0  0  0
   -1.0072   -2.0105   -0.1946 H   0  0  0  0  0  0  0  0  0  0  0  0
   -1.2285   -1.4775    1.5298 H   0  0  0  0  0  0  0  0  0  0  0  0
   -2.6147   -0.2542   -1.4710 H   0  0  0  0  0  0  0  0  0  0  0  0
   -3.0671    1.1563    1.0266 H   0  0  0  0  0  0  0  0  0  0  0  0
  1  2  1  0
  2  3  1  0
  3  4  1  0
  3  5  1  0
  5  6  1  0
  6  7  1  0
  6  8  1  0
  8  9  2  0
  6  3  1  0
  1 10  1  0
  1 11  1  0
  1 12  1  0
  2 13  1  0
  2 14  1  0
  4 15  1  0
  5 16  1  0
  5 17  1  0
  7 18  1  0
  8 19  1  0
M  END
