
     RDKit          3D

 21 23  0  0  0  0  0  0  0  0999 V2000
   -2.5534    0.4106    0.2442 C   0  0  0  0  0  0  0  0  0  0  0  0
   -1.7927   -0.7362   -0.3384 C   0  0  0  0  0  0  0  0  0  0  0  0
   -0.3123   -0.5136   -0.4445 C   0  0  0  0  0  0  0  0  0  0  0  0
    0.3419   -1.6378   -1.0034 O   0  0  0  0  0  0  0  0  0  0  0  0
    0.3064    0.8133   -0.5380 C   0  0  0  0  0  0  0  0  0  0  0  0
    1.7637    1.0330   -0.3115 C   0  0  0  0  0  0  0  0  0  0  0  0
    2.6651   -0.1165   -0.3157 C   0  0  0  0  0  0  0  0  0  0  0  0
    1.7928    0.0213    0.8496 C   0  0  0  0  0  0  0  0  0  0  0  0
    0.2940    0.0439    0.7852 C   0  0  0  0  0  0  0  0  0  0  0  0
   -2.2884    1.3727   -0.2195 H   0  0  0  0  0  0  0  0  0  0  0  0
   -2.2812    0.4864    1.3360 H   0  0  0  0  0  0  0  0  0  0  0  0
   -3.6376    0.1744    0.1376 H   0  0  0  0  0  0  0  0  0  0  0  0
   -2.0177   -1.6323    0.3130 H   0  0  0  0  0  0  0  0  0  0  0  0
   -2.2143   -1.0305   -1.3399 H   0  0  0  0  0  0  0  0  0  0  0  0
   -0.0654   -2.4529   -0.5852 H   0  0  0  0  0  0  0  0  0  0  0  0
   -0.3421    1.6763   -0.6832 H   0  0  0  0  0  0  0  0  0  0  0  0
    2.1102    2.0497    0.0145 H   0  0  0  0  0  0  0  0  0  0  0  0
    3.7496    0.1371   -0.1123 H   0  0  0  0  0  0  0  0  0  0  0  0
    2.5509   -0.9077   -1.0907 H   0  0  0  0  0  0  0  0  0  0  0  0
    2.2028    0.3470    1.8196 H   0  0  0  0  0  0  0  0  0  0  0  0
   -0.2724    0.4620    1.6159 H   0  0  0  0  0  0  0  0  0  0  0  0
  1  2  1  0
  2  3  1  0
  3  4  1  0
  3  5  1  0
  5  6  1  0
  6  7  1  0
  7  8  1  0
  8  9  1  0
  9  3  1  0
  9  5  1  0
  8  6  1  0
  1 10  1  0
  1 11  1  0
  1 12  1  0
  2 13  1  0
  2 14  1  0
  4 15  1  0
  5 16  1  0
  6 17  1  0
  7 18  1  0
  7 19  1  0
  8 20  1  0
  9 21  1  0
M  END
