
     RDKit          3D

 23 24  0  0  0  0  0  0  0  0999 V2000
    2.0918    0.5362    1.1489 C   0  0  0  0  0  0  0  0  0  0  0  0
    1.6180   -0.5517    0.2314 C   0  0  0  0  0  0  0  0  0  0  0  0
    0.6895   -0.0556   -0.8343 C   0  0  0  0  0  0  0  0  0  0  0  0
    0.2581   -1.2285   -1.7205 C   0  0  0  0  0  0  0  0  0  0  0  0
   -0.9741   -0.5761   -1.8545 O   0  0  0  0  0  0  0  0  0  0  0  0
   -0.7403   -0.0111   -0.6031 C   0  0  0  0  0  0  0  0  0  0  0  0
   -1.4340    1.2892   -0.4020 C   0  0  0  0  0  0  0  0  0  0  0  0
   -1.9834    0.7271    0.9176 C   0  0  0  0  0  0  0  0  0  0  0  0
   -1.3910   -0.6278    0.5536 C   0  0  0  0  0  0  0  0  0  0  0  0
    2.3173    0.0584    2.1432 H   0  0  0  0  0  0  0  0  0  0  0  0
    3.0798    0.9655    0.8205 H   0  0  0  0  0  0  0  0  0  0  0  0
    1.3912    1.3734    1.2477 H   0  0  0  0  0  0  0  0  0  0  0  0
    1.2233   -1.3881    0.8036 H   0  0  0  0  0  0  0  0  0  0  0  0
    2.5304   -0.9436   -0.3086 H   0  0  0  0  0  0  0  0  0  0  0  0
    1.0960    0.7583   -1.4261 H   0  0  0  0  0  0  0  0  0  0  0  0
    0.8378   -1.3491   -2.6355 H   0  0  0  0  0  0  0  0  0  0  0  0
    0.0990   -2.1416   -1.1027 H   0  0  0  0  0  0  0  0  0  0  0  0
   -2.2885    1.3877   -1.1247 H   0  0  0  0  0  0  0  0  0  0  0  0
   -0.8232    2.1899   -0.2787 H   0  0  0  0  0  0  0  0  0  0  0  0
   -3.0847    0.7480    0.9912 H   0  0  0  0  0  0  0  0  0  0  0  0
   -1.4737    1.1976    1.8032 H   0  0  0  0  0  0  0  0  0  0  0  0
   -0.8161   -1.0331    1.3738 H   0  0  0  0  0  0  0  0  0  0  0  0
   -2.2231   -1.3251    0.2561 H   0  0  0  0  0  0  0  0  0  0  0  0
  1  2  1  0
  2  3  1  0
  3  4  1  0
  4  5  1  0
  5  6  1  0
  6  7  1  0
  7  8  1  0
  8  9  1  0
  6  3  1  0
  9  6  1  0
  1 10  1  0
  1 11  1  0
  1 12  1  0
  2 13  1  0
  2 14  1  0
  3 15  1  0
  4 16  1  0
  4 17  1  0
  7 18  1  0
  7 19  1  0
  8 20  1  0
  8 21  1  0
  9 22  1  0
  9 23  1  0
M  END
