
     RDKit          3D

 23 24  0  0  0  0  0  0  0  0999 V2000
    2.8964   -0.1618   -0.0508 C   0  0  0  0  0  0  0  0  0  0  0  0
    1.5809   -0.7405    0.3498 C   0  0  0  0  0  0  0  0  0  0  0  0
    0.4250    0.0776   -0.1015 C   0  0  0  0  0  0  0  0  0  0  0  0
    0.4357    1.2218   -0.7947 C   0  0  0  0  0  0  0  0  0  0  0  0
   -0.9521    1.6939   -1.0273 C   0  0  0  0  0  0  0  0  0  0  0  0
   -1.8726    0.6695   -0.4065 C   0  0  0  0  0  0  0  0  0  0  0  0
   -1.8070    0.5618    1.0849 C   0  0  0  0  0  0  0  0  0  0  0  0
   -0.9824   -0.3095    0.1869 C   0  0  0  0  0  0  0  0  0  0  0  0
   -1.2451   -1.7884    0.2020 C   0  0  0  0  0  0  0  0  0  0  0  0
    2.9471    0.8823    0.3725 H   0  0  0  0  0  0  0  0  0  0  0  0
    3.6915   -0.7456    0.4719 H   0  0  0  0  0  0  0  0  0  0  0  0
    3.0387   -0.1447   -1.1354 H   0  0  0  0  0  0  0  0  0  0  0  0
    1.5029   -1.7885   -0.0318 H   0  0  0  0  0  0  0  0  0  0  0  0
    1.5520   -0.8176    1.4546 H   0  0  0  0  0  0  0  0  0  0  0  0
    1.3724    1.6827   -1.1097 H   0  0  0  0  0  0  0  0  0  0  0  0
   -1.0684    2.6579   -0.4615 H   0  0  0  0  0  0  0  0  0  0  0  0
   -1.1790    1.8425   -2.1022 H   0  0  0  0  0  0  0  0  0  0  0  0
   -2.8237    0.4285   -0.9168 H   0  0  0  0  0  0  0  0  0  0  0  0
   -2.5739    0.0447    1.6601 H   0  0  0  0  0  0  0  0  0  0  0  0
   -1.1940    1.3119    1.6586 H   0  0  0  0  0  0  0  0  0  0  0  0
   -2.1115   -2.0860    0.8096 H   0  0  0  0  0  0  0  0  0  0  0  0
   -0.3508   -2.2632    0.6977 H   0  0  0  0  0  0  0  0  0  0  0  0
   -1.2821   -2.2292   -0.8106 H   0  0  0  0  0  0  0  0  0  0  0  0
  1  2  1  0
  2  3  1  0
  3  4  2  0
  4  5  1  0
  5  6  1  0
  6  7  1  0
  7  8  1  0
  8  9  1  0
  8  3  1  0
  8  6  1  0
  1 10  1  0
  1 11  1  0
  1 12  1  0
  2 13  1  0
  2 14  1  0
  4 15  1  0
  5 16  1  0
  5 17  1  0
  6 18  1  0
  7 19  1  0
  7 20  1  0
  9 21  1  0
  9 22  1  0
  9 23  1  0
M  END
