
     RDKit          3D

 25 26  0  0  0  0  0  0  0  0999 V2000
    2.6878    0.5249   -0.5617 C   0  0  0  0  0  0  0  0  0  0  0  0
    2.5253   -0.4174    0.6061 C   0  0  0  0  0  0  0  0  0  0  0  0
    1.0557   -0.5639    1.0215 C   0  0  0  0  0  0  0  0  0  0  0  0
    0.1950   -1.0697    0.0055 C   0  0  0  0  0  0  0  0  0  0  0  0
   -0.6157   -0.3556   -1.0345 C   0  0  0  0  0  0  0  0  0  0  0  0
   -1.3736    0.1445    0.2054 C   0  0  0  0  0  0  0  0  0  0  0  0
   -2.2790   -0.7576    0.8846 C   0  0  0  0  0  0  0  0  0  0  0  0
   -2.0841    1.4236   -0.2033 C   0  0  0  0  0  0  0  0  0  0  0  0
    0.0177    0.3493    0.6858 C   0  0  0  0  0  0  0  0  0  0  0  0
    2.4222    1.5575   -0.3524 H   0  0  0  0  0  0  0  0  0  0  0  0
    3.7931    0.5156   -0.7941 H   0  0  0  0  0  0  0  0  0  0  0  0
    2.2129    0.1218   -1.4907 H   0  0  0  0  0  0  0  0  0  0  0  0
    2.9391   -1.3979    0.2833 H   0  0  0  0  0  0  0  0  0  0  0  0
    3.1526   -0.0578    1.4226 H   0  0  0  0  0  0  0  0  0  0  0  0
    1.0401   -0.8924    2.1100 H   0  0  0  0  0  0  0  0  0  0  0  0
   -0.4322   -1.8903    0.4164 H   0  0  0  0  0  0  0  0  0  0  0  0
   -0.1541    0.4826   -1.5615 H   0  0  0  0  0  0  0  0  0  0  0  0
   -1.1687   -1.0021   -1.6971 H   0  0  0  0  0  0  0  0  0  0  0  0
   -3.1531   -0.2118    1.3096 H   0  0  0  0  0  0  0  0  0  0  0  0
   -1.7648   -1.1948    1.7933 H   0  0  0  0  0  0  0  0  0  0  0  0
   -2.6960   -1.6157    0.3472 H   0  0  0  0  0  0  0  0  0  0  0  0
   -2.5406    1.9451    0.6657 H   0  0  0  0  0  0  0  0  0  0  0  0
   -1.3790    2.0635   -0.7576 H   0  0  0  0  0  0  0  0  0  0  0  0
   -2.8636    1.1071   -0.9535 H   0  0  0  0  0  0  0  0  0  0  0  0
    0.4628    1.1914    0.0596 H   0  0  0  0  0  0  0  0  0  0  0  0
  1  2  1  0
  2  3  1  0
  3  4  1  0
  4  5  1  0
  5  6  1  0
  6  7  1  0
  6  8  1  0
  6  9  1  0
  9  3  1  0
  9  4  1  0
  1 10  1  0
  1 11  1  0
  1 12  1  0
  2 13  1  0
  2 14  1  0
  3 15  1  0
  4 16  1  0
  5 17  1  0
  5 18  1  0
  7 19  1  0
  7 20  1  0
  7 21  1  0
  8 22  1  0
  8 23  1  0
  8 24  1  0
  9 25  1  0
M  END
