
     RDKit          3D

 23 23  0  0  0  0  0  0  0  0999 V2000
    2.8983   -0.4068   -0.1236 C   0  0  0  0  0  0  0  0  0  0  0  0
    1.9092    0.6922    0.1859 C   0  0  0  0  0  0  0  0  0  0  0  0
    0.4911    0.2597   -0.0047 C   0  0  0  0  0  0  0  0  0  0  0  0
   -0.3917    1.4133    0.3261 C   0  0  0  0  0  0  0  0  0  0  0  0
   -1.7140    1.4595    0.1315 C   0  0  0  0  0  0  0  0  0  0  0  0
   -2.5817    0.4148   -0.4374 C   0  0  0  0  0  0  0  0  0  0  0  0
   -2.2291   -0.9520   -0.0477 C   0  0  0  0  0  0  0  0  0  0  0  0
   -1.1561   -1.5221    0.4387 C   0  0  0  0  0  0  0  0  0  0  0  0
    0.1500   -0.9610    0.7864 C   0  0  0  0  0  0  0  0  0  0  0  0
    2.9948   -1.0924    0.7403 H   0  0  0  0  0  0  0  0  0  0  0  0
    3.8994    0.0878   -0.2490 H   0  0  0  0  0  0  0  0  0  0  0  0
    2.6110   -1.0093   -0.9990 H   0  0  0  0  0  0  0  0  0  0  0  0
    2.1273    1.0906    1.1850 H   0  0  0  0  0  0  0  0  0  0  0  0
    2.1091    1.5061   -0.5686 H   0  0  0  0  0  0  0  0  0  0  0  0
    0.3851   -0.0242   -1.0916 H   0  0  0  0  0  0  0  0  0  0  0  0
    0.0850    2.2835    0.7605 H   0  0  0  0  0  0  0  0  0  0  0  0
   -2.1408    2.4099    0.4528 H   0  0  0  0  0  0  0  0  0  0  0  0
   -3.6362    0.6563   -0.1142 H   0  0  0  0  0  0  0  0  0  0  0  0
   -2.6324    0.4823   -1.5638 H   0  0  0  0  0  0  0  0  0  0  0  0
   -3.0599   -1.6622   -0.1999 H   0  0  0  0  0  0  0  0  0  0  0  0
   -1.2527   -2.5964    0.6142 H   0  0  0  0  0  0  0  0  0  0  0  0
    0.1938   -0.8021    1.8808 H   0  0  0  0  0  0  0  0  0  0  0  0
    0.9403   -1.7276    0.5535 H   0  0  0  0  0  0  0  0  0  0  0  0
  1  2  1  0
  2  3  1  0
  3  4  1  0
  4  5  2  0
  5  6  1  0
  6  7  1  0
  7  8  2  0
  8  9  1  0
  9  3  1  0
  1 10  1  0
  1 11  1  0
  1 12  1  0
  2 13  1  0
  2 14  1  0
  3 15  1  0
  4 16  1  0
  5 17  1  0
  6 18  1  0
  6 19  1  0
  7 20  1  0
  8 21  1  0
  9 22  1  0
  9 23  1  0
M  END
