
     RDKit          3D

 25 25  0  0  0  0  0  0  0  0999 V2000
    3.3011   -0.3284   -0.6046 C   0  0  0  0  0  0  0  0  0  0  0  0
    2.2367    0.7227   -0.5634 C   0  0  0  0  0  0  0  0  0  0  0  0
    1.0864    0.2973    0.3111 C   0  0  0  0  0  0  0  0  0  0  0  0
    0.3926   -0.9751   -0.1278 C   0  0  0  0  0  0  0  0  0  0  0  0
   -0.8926   -0.3119    0.3369 C   0  0  0  0  0  0  0  0  0  0  0  0
   -2.0468   -0.7243   -0.5256 C   0  0  0  0  0  0  0  0  0  0  0  0
   -3.3485   -0.1128   -0.1314 C   0  0  0  0  0  0  0  0  0  0  0  0
   -0.2336    0.9914    0.0012 C   0  0  0  0  0  0  0  0  0  0  0  0
   -0.3361    1.3930   -1.3197 O   0  0  0  0  0  0  0  0  0  0  0  0
    3.2600   -0.8407   -1.5834 H   0  0  0  0  0  0  0  0  0  0  0  0
    4.3256    0.0955   -0.4305 H   0  0  0  0  0  0  0  0  0  0  0  0
    3.1509   -1.0598    0.2376 H   0  0  0  0  0  0  0  0  0  0  0  0
    2.6337    1.6916   -0.2096 H   0  0  0  0  0  0  0  0  0  0  0  0
    1.8144    0.8895   -1.5840 H   0  0  0  0  0  0  0  0  0  0  0  0
    1.2806    0.2775    1.3960 H   0  0  0  0  0  0  0  0  0  0  0  0
    0.6231   -1.8652    0.4858 H   0  0  0  0  0  0  0  0  0  0  0  0
    0.4033   -1.1285   -1.2238 H   0  0  0  0  0  0  0  0  0  0  0  0
   -1.1049   -0.3909    1.4020 H   0  0  0  0  0  0  0  0  0  0  0  0
   -2.1479   -1.8354   -0.4004 H   0  0  0  0  0  0  0  0  0  0  0  0
   -1.8223   -0.5762   -1.6042 H   0  0  0  0  0  0  0  0  0  0  0  0
   -4.1697   -0.7471   -0.5684 H   0  0  0  0  0  0  0  0  0  0  0  0
   -3.4217    0.8932   -0.5999 H   0  0  0  0  0  0  0  0  0  0  0  0
   -3.4122   -0.0469    0.9643 H   0  0  0  0  0  0  0  0  0  0  0  0
   -0.3860    1.8036    0.7536 H   0  0  0  0  0  0  0  0  0  0  0  0
   -1.1862    1.8879   -1.4195 H   0  0  0  0  0  0  0  0  0  0  0  0
  1  2  1  0
  2  3  1  0
  3  4  1  0
  4  5  1  0
  5  6  1  0
  6  7  1  0
  5  8  1  0
  8  9  1  0
  8  3  1  0
  1 10  1  0
  1 11  1  0
  1 12  1  0
  2 13  1  0
  2 14  1  0
  3 15  1  0
  4 16  1  0
  4 17  1  0
  5 18  1  0
  6 19  1  0
  6 20  1  0
  7 21  1  0
  7 22  1  0
  7 23  1  0
  8 24  1  0
  9 25  1  0
M  END
