
     RDKit          3D

 23 24  0  0  0  0  0  0  0  0999 V2000
    1.6761    1.5564    0.3791 C   0  0  0  0  0  0  0  0  0  0  0  0
    1.6039    0.1018    0.0777 C   0  0  0  0  0  0  0  0  0  0  0  0
    0.2214   -0.4690    0.0674 C   0  0  0  0  0  0  0  0  0  0  0  0
    0.3081   -1.9700   -0.2564 C   0  0  0  0  0  0  0  0  0  0  0  0
   -0.5792   -0.3170    1.3244 C   0  0  0  0  0  0  0  0  0  0  0  0
   -1.7888   -0.1349    0.3976 C   0  0  0  0  0  0  0  0  0  0  0  0
   -1.7962    1.1570   -0.2879 C   0  0  0  0  0  0  0  0  0  0  0  0
   -0.8034    0.1915   -0.7603 C   0  0  0  0  0  0  0  0  0  0  0  0
   -1.0800   -0.4402   -1.9886 O   0  0  0  0  0  0  0  0  0  0  0  0
    1.8016    2.1225   -0.5873 H   0  0  0  0  0  0  0  0  0  0  0  0
    0.8158    1.9515    0.9241 H   0  0  0  0  0  0  0  0  0  0  0  0
    2.6197    1.7673    0.9506 H   0  0  0  0  0  0  0  0  0  0  0  0
    2.0740   -0.1359   -0.8980 H   0  0  0  0  0  0  0  0  0  0  0  0
    2.1979   -0.4810    0.8360 H   0  0  0  0  0  0  0  0  0  0  0  0
    0.9046   -2.0682   -1.1962 H   0  0  0  0  0  0  0  0  0  0  0  0
    0.8594   -2.4184    0.5951 H   0  0  0  0  0  0  0  0  0  0  0  0
   -0.7083   -2.3904   -0.3799 H   0  0  0  0  0  0  0  0  0  0  0  0
   -0.6410   -1.1822    1.9924 H   0  0  0  0  0  0  0  0  0  0  0  0
   -0.4054    0.6278    1.8999 H   0  0  0  0  0  0  0  0  0  0  0  0
   -2.4403   -0.9721    0.1910 H   0  0  0  0  0  0  0  0  0  0  0  0
   -1.5145    2.0406    0.3583 H   0  0  0  0  0  0  0  0  0  0  0  0
   -2.6449    1.3844   -0.9384 H   0  0  0  0  0  0  0  0  0  0  0  0
   -0.6805    0.0786   -2.7004 H   0  0  0  0  0  0  0  0  0  0  0  0
  1  2  1  0
  2  3  1  0
  3  4  1  0
  3  5  1  0
  5  6  1  0
  6  7  1  0
  7  8  1  0
  8  9  1  0
  8  3  1  0
  8  6  1  0
  1 10  1  0
  1 11  1  0
  1 12  1  0
  2 13  1  0
  2 14  1  0
  4 15  1  0
  4 16  1  0
  4 17  1  0
  5 18  1  0
  5 19  1  0
  6 20  1  0
  7 21  1  0
  7 22  1  0
  9 23  1  0
M  END
