
     RDKit          3D

 19 20  0  0  0  0  0  0  0  0999 V2000
    2.1260    0.6780    0.2302 C   0  0  0  0  0  0  0  0  0  0  0  0
    1.4689   -0.3955   -0.5945 C   0  0  0  0  0  0  0  0  0  0  0  0
   -0.0072   -0.2564   -0.6975 C   0  0  0  0  0  0  0  0  0  0  0  0
   -0.6184    0.9505   -1.2886 C   0  0  0  0  0  0  0  0  0  0  0  0
   -1.7588    1.2291   -0.7028 C   0  0  0  0  0  0  0  0  0  0  0  0
   -2.0669    0.2730    0.3381 C   0  0  0  0  0  0  0  0  0  0  0  0
   -3.0854    0.2566    1.0573 O   0  0  0  0  0  0  0  0  0  0  0  0
   -0.9340   -0.6803    0.3788 C   0  0  0  0  0  0  0  0  0  0  0  0
   -0.7786   -1.5408   -0.8263 C   0  0  0  0  0  0  0  0  0  0  0  0
    1.6543    1.6573    0.1446 H   0  0  0  0  0  0  0  0  0  0  0  0
    2.1349    0.3848    1.3176 H   0  0  0  0  0  0  0  0  0  0  0  0
    3.2146    0.6966   -0.0529 H   0  0  0  0  0  0  0  0  0  0  0  0
    1.6932   -1.3668   -0.1084 H   0  0  0  0  0  0  0  0  0  0  0  0
    1.9171   -0.4182   -1.6304 H   0  0  0  0  0  0  0  0  0  0  0  0
   -0.1900    1.5288   -2.0931 H   0  0  0  0  0  0  0  0  0  0  0  0
   -2.3876    2.0787   -0.9753 H   0  0  0  0  0  0  0  0  0  0  0  0
   -0.5530   -0.9955    1.3652 H   0  0  0  0  0  0  0  0  0  0  0  0
   -1.5810   -1.5737   -1.5741 H   0  0  0  0  0  0  0  0  0  0  0  0
   -0.2480   -2.5064   -0.6956 H   0  0  0  0  0  0  0  0  0  0  0  0
  1  2  1  0
  2  3  1  0
  3  4  1  0
  4  5  2  0
  5  6  1  0
  6  7  2  0
  6  8  1  0
  8  9  1  0
  8  3  1  0
  9  3  1  0
  1 10  1  0
  1 11  1  0
  1 12  1  0
  2 13  1  0
  2 14  1  0
  4 15  1  0
  5 16  1  0
  8 17  1  0
  9 18  1  0
  9 19  1  0
M  END
