
     RDKit          3D

 23 23  0  0  0  0  0  0  0  0999 V2000
   -2.5805   -0.0124   -0.4139 C   0  0  0  0  0  0  0  0  0  0  0  0
   -1.3262   -0.7289   -0.0405 C   0  0  0  0  0  0  0  0  0  0  0  0
   -0.1622    0.1707    0.2258 C   0  0  0  0  0  0  0  0  0  0  0  0
    1.1020   -0.6138    0.6053 C   0  0  0  0  0  0  0  0  0  0  0  0
    1.4307   -1.5319   -0.5694 C   0  0  0  0  0  0  0  0  0  0  0  0
    2.2377    0.2829    0.8542 C   0  0  0  0  0  0  0  0  0  0  0  0
    3.1758    0.3590    0.0821 O   0  0  0  0  0  0  0  0  0  0  0  0
   -0.3045    1.5210    0.7803 C   0  0  0  0  0  0  0  0  0  0  0  0
    0.1238    1.3430   -0.6674 C   0  0  0  0  0  0  0  0  0  0  0  0
   -2.5390    0.3701   -1.4619 H   0  0  0  0  0  0  0  0  0  0  0  0
   -3.4090   -0.7704   -0.4073 H   0  0  0  0  0  0  0  0  0  0  0  0
   -2.7654    0.8167    0.2637 H   0  0  0  0  0  0  0  0  0  0  0  0
   -1.0100   -1.4578   -0.8292 H   0  0  0  0  0  0  0  0  0  0  0  0
   -1.5240   -1.3330    0.8729 H   0  0  0  0  0  0  0  0  0  0  0  0
    0.8925   -1.2193    1.5151 H   0  0  0  0  0  0  0  0  0  0  0  0
    0.8284   -2.4446   -0.4823 H   0  0  0  0  0  0  0  0  0  0  0  0
    2.5202   -1.7207   -0.5072 H   0  0  0  0  0  0  0  0  0  0  0  0
    1.2621   -0.9866   -1.5291 H   0  0  0  0  0  0  0  0  0  0  0  0
    2.2271    0.8879    1.7543 H   0  0  0  0  0  0  0  0  0  0  0  0
    0.5095    1.9397    1.4298 H   0  0  0  0  0  0  0  0  0  0  0  0
   -1.2632    2.0207    0.9382 H   0  0  0  0  0  0  0  0  0  0  0  0
    1.1744    1.5897   -0.9423 H   0  0  0  0  0  0  0  0  0  0  0  0
   -0.6003    1.5180   -1.4714 H   0  0  0  0  0  0  0  0  0  0  0  0
  1  2  1  0
  2  3  1  0
  3  4  1  0
  4  5  1  0
  4  6  1  0
  6  7  2  0
  3  8  1  0
  8  9  1  0
  9  3  1  0
  1 10  1  0
  1 11  1  0
  1 12  1  0
  2 13  1  0
  2 14  1  0
  4 15  1  0
  5 16  1  0
  5 17  1  0
  5 18  1  0
  6 19  1  0
  8 20  1  0
  8 21  1  0
  9 22  1  0
  9 23  1  0
M  END
