
     RDKit          3D

 23 23  0  0  0  0  0  0  0  0999 V2000
    3.2139    0.2335   -0.6151 C   0  0  0  0  0  0  0  0  0  0  0  0
    2.2468   -0.6101    0.1861 C   0  0  0  0  0  0  0  0  0  0  0  0
    1.0242    0.2055    0.4956 C   0  0  0  0  0  0  0  0  0  0  0  0
   -0.0411   -0.5119    1.2989 C   0  0  0  0  0  0  0  0  0  0  0  0
   -1.0172    0.2965    0.4668 C   0  0  0  0  0  0  0  0  0  0  0  0
   -2.2924   -0.4211    0.1165 C   0  0  0  0  0  0  0  0  0  0  0  0
   -3.1618    0.5018   -0.7091 C   0  0  0  0  0  0  0  0  0  0  0  0
    0.0217    0.3115   -0.5849 C   0  0  0  0  0  0  0  0  0  0  0  0
    0.0389    0.3797   -1.7831 O   0  0  0  0  0  0  0  0  0  0  0  0
    3.1922    1.2998   -0.2590 H   0  0  0  0  0  0  0  0  0  0  0  0
    4.2299   -0.1814   -0.6243 H   0  0  0  0  0  0  0  0  0  0  0  0
    2.8859    0.2807   -1.6822 H   0  0  0  0  0  0  0  0  0  0  0  0
    1.9255   -1.4456   -0.4718 H   0  0  0  0  0  0  0  0  0  0  0  0
    2.6945   -1.0497    1.0807 H   0  0  0  0  0  0  0  0  0  0  0  0
    1.2670    1.1664    1.0133 H   0  0  0  0  0  0  0  0  0  0  0  0
   -0.0436   -0.3086    2.3755 H   0  0  0  0  0  0  0  0  0  0  0  0
   -0.1406   -1.5998    1.0242 H   0  0  0  0  0  0  0  0  0  0  0  0
   -1.1319    1.3104    0.8969 H   0  0  0  0  0  0  0  0  0  0  0  0
   -2.7958   -0.7771    1.0267 H   0  0  0  0  0  0  0  0  0  0  0  0
   -2.0172   -1.3202   -0.4724 H   0  0  0  0  0  0  0  0  0  0  0  0
   -2.7477    1.5489   -0.7185 H   0  0  0  0  0  0  0  0  0  0  0  0
   -4.1862    0.4989   -0.2818 H   0  0  0  0  0  0  0  0  0  0  0  0
   -3.1649    0.1917   -1.7789 H   0  0  0  0  0  0  0  0  0  0  0  0
  1  2  1  0
  2  3  1  0
  3  4  1  0
  4  5  1  0
  5  6  1  0
  6  7  1  0
  5  8  1  0
  8  9  2  0
  8  3  1  0
  1 10  1  0
  1 11  1  0
  1 12  1  0
  2 13  1  0
  2 14  1  0
  3 15  1  0
  4 16  1  0
  4 17  1  0
  5 18  1  0
  6 19  1  0
  6 20  1  0
  7 21  1  0
  7 22  1  0
  7 23  1  0
M  END
