
     RDKit          3D

 25 25  0  0  0  0  0  0  0  0999 V2000
    3.1931    0.3543    0.0850 C   0  0  0  0  0  0  0  0  0  0  0  0
    2.0697   -0.6302    0.3907 C   0  0  0  0  0  0  0  0  0  0  0  0
    0.8370    0.2137    0.6684 C   0  0  0  0  0  0  0  0  0  0  0  0
   -0.3706   -0.6194    0.9902 C   0  0  0  0  0  0  0  0  0  0  0  0
   -1.3828   -0.0461   -0.0135 C   0  0  0  0  0  0  0  0  0  0  0  0
   -2.4654   -0.9964   -0.3453 C   0  0  0  0  0  0  0  0  0  0  0  0
   -1.8471    1.3140    0.4259 C   0  0  0  0  0  0  0  0  0  0  0  0
   -0.4053    0.1751   -1.1759 C   0  0  0  0  0  0  0  0  0  0  0  0
    0.5644    0.9307   -0.4814 O   0  0  0  0  0  0  0  0  0  0  0  0
    4.1818   -0.0781    0.2915 H   0  0  0  0  0  0  0  0  0  0  0  0
    3.0228    1.3231    0.6363 H   0  0  0  0  0  0  0  0  0  0  0  0
    3.1027    0.6096   -0.9921 H   0  0  0  0  0  0  0  0  0  0  0  0
    1.9020   -1.2917   -0.4789 H   0  0  0  0  0  0  0  0  0  0  0  0
    2.3192   -1.1735    1.3087 H   0  0  0  0  0  0  0  0  0  0  0  0
    1.1037    0.9149    1.5088 H   0  0  0  0  0  0  0  0  0  0  0  0
   -0.2336   -1.6913    0.6623 H   0  0  0  0  0  0  0  0  0  0  0  0
   -0.7176   -0.5406    2.0181 H   0  0  0  0  0  0  0  0  0  0  0  0
   -2.3165   -1.9252    0.2705 H   0  0  0  0  0  0  0  0  0  0  0  0
   -3.4319   -0.5660    0.0515 H   0  0  0  0  0  0  0  0  0  0  0  0
   -2.5712   -1.2594   -1.4017 H   0  0  0  0  0  0  0  0  0  0  0  0
   -0.9647    1.9950    0.3882 H   0  0  0  0  0  0  0  0  0  0  0  0
   -2.5544    1.6858   -0.3306 H   0  0  0  0  0  0  0  0  0  0  0  0
   -2.2822    1.3336    1.4329 H   0  0  0  0  0  0  0  0  0  0  0  0
   -0.8451    0.7363   -1.9894 H   0  0  0  0  0  0  0  0  0  0  0  0
    0.0922   -0.7683   -1.4541 H   0  0  0  0  0  0  0  0  0  0  0  0
  1  2  1  0
  2  3  1  0
  3  4  1  0
  4  5  1  0
  5  6  1  0
  5  7  1  0
  5  8  1  0
  8  9  1  0
  9  3  1  0
  1 10  1  0
  1 11  1  0
  1 12  1  0
  2 13  1  0
  2 14  1  0
  3 15  1  0
  4 16  1  0
  4 17  1  0
  6 18  1  0
  6 19  1  0
  6 20  1  0
  7 21  1  0
  7 22  1  0
  7 23  1  0
  8 24  1  0
  8 25  1  0
M  END
