
     RDKit          3D

 23 24  0  0  0  0  0  0  0  0999 V2000
   -2.1719    1.3240    0.2494 C   0  0  0  0  0  0  0  0  0  0  0  0
   -1.8842   -0.1380    0.2047 C   0  0  0  0  0  0  0  0  0  0  0  0
   -0.4452   -0.4981    0.1391 C   0  0  0  0  0  0  0  0  0  0  0  0
   -0.3327   -2.0284    0.0998 C   0  0  0  0  0  0  0  0  0  0  0  0
    0.2758    0.0726    1.1860 O   0  0  0  0  0  0  0  0  0  0  0  0
    1.2663    0.3998    0.2757 C   0  0  0  0  0  0  0  0  0  0  0  0
    2.6343   -0.1739    0.4005 C   0  0  0  0  0  0  0  0  0  0  0  0
    1.0300    1.4770   -0.7117 C   0  0  0  0  0  0  0  0  0  0  0  0
    0.3960    0.1541   -0.8970 C   0  0  0  0  0  0  0  0  0  0  0  0
   -3.2769    1.4335    0.4200 H   0  0  0  0  0  0  0  0  0  0  0  0
   -1.9570    1.8071   -0.7284 H   0  0  0  0  0  0  0  0  0  0  0  0
   -1.6901    1.8293    1.1021 H   0  0  0  0  0  0  0  0  0  0  0  0
   -2.2985   -0.5849    1.1539 H   0  0  0  0  0  0  0  0  0  0  0  0
   -2.4646   -0.5885   -0.6336 H   0  0  0  0  0  0  0  0  0  0  0  0
    0.6711   -2.3630    0.3391 H   0  0  0  0  0  0  0  0  0  0  0  0
   -0.6092   -2.3556   -0.9331 H   0  0  0  0  0  0  0  0  0  0  0  0
   -1.1242   -2.4544    0.7694 H   0  0  0  0  0  0  0  0  0  0  0  0
    3.0334   -0.3921   -0.6138 H   0  0  0  0  0  0  0  0  0  0  0  0
    3.3106    0.5944    0.8765 H   0  0  0  0  0  0  0  0  0  0  0  0
    2.6735   -1.1301    0.9574 H   0  0  0  0  0  0  0  0  0  0  0  0
    1.8823    1.7178   -1.3683 H   0  0  0  0  0  0  0  0  0  0  0  0
    0.3673    2.3389   -0.4551 H   0  0  0  0  0  0  0  0  0  0  0  0
    0.7139   -0.4416   -1.7646 H   0  0  0  0  0  0  0  0  0  0  0  0
  1  2  1  0
  2  3  1  0
  3  4  1  0
  3  5  1  0
  5  6  1  0
  6  7  1  0
  6  8  1  0
  8  9  1  0
  9  3  1  0
  9  6  1  0
  1 10  1  0
  1 11  1  0
  1 12  1  0
  2 13  1  0
  2 14  1  0
  4 15  1  0
  4 16  1  0
  4 17  1  0
  7 18  1  0
  7 19  1  0
  7 20  1  0
  8 21  1  0
  8 22  1  0
  9 23  1  0
M  END
