
     RDKit          3D

 23 23  0  0  0  0  0  0  0  0999 V2000
    2.3875    0.5152    0.4189 C   0  0  0  0  0  0  0  0  0  0  0  0
    1.3169   -0.4270    0.8490 C   0  0  0  0  0  0  0  0  0  0  0  0
    0.3166   -0.6391   -0.2446 C   0  0  0  0  0  0  0  0  0  0  0  0
    0.8448   -1.1687   -1.4149 O   0  0  0  0  0  0  0  0  0  0  0  0
   -1.0078   -1.1389    0.1905 C   0  0  0  0  0  0  0  0  0  0  0  0
   -1.3812   -1.1379    1.5288 O   0  0  0  0  0  0  0  0  0  0  0  0
   -0.8368    0.2485   -0.3839 C   0  0  0  0  0  0  0  0  0  0  0  0
   -1.5551    0.4382   -1.6968 C   0  0  0  0  0  0  0  0  0  0  0  0
   -0.9293    1.4331    0.5418 C   0  0  0  0  0  0  0  0  0  0  0  0
    3.2324   -0.0586   -0.0490 H   0  0  0  0  0  0  0  0  0  0  0  0
    2.0321    1.2455   -0.3305 H   0  0  0  0  0  0  0  0  0  0  0  0
    2.7886    1.1216    1.2810 H   0  0  0  0  0  0  0  0  0  0  0  0
    1.7917   -1.4314    1.0493 H   0  0  0  0  0  0  0  0  0  0  0  0
    0.8544   -0.0274    1.7804 H   0  0  0  0  0  0  0  0  0  0  0  0
    1.6586   -1.6989   -1.1937 H   0  0  0  0  0  0  0  0  0  0  0  0
   -1.4494   -1.9372   -0.3988 H   0  0  0  0  0  0  0  0  0  0  0  0
   -1.8446   -1.9527    1.8087 H   0  0  0  0  0  0  0  0  0  0  0  0
   -1.1615   -0.2360   -2.4718 H   0  0  0  0  0  0  0  0  0  0  0  0
   -1.5511    1.4875   -2.0437 H   0  0  0  0  0  0  0  0  0  0  0  0
   -2.6154    0.1034   -1.5170 H   0  0  0  0  0  0  0  0  0  0  0  0
   -0.1152    2.1338    0.2706 H   0  0  0  0  0  0  0  0  0  0  0  0
   -1.9187    1.9571    0.4220 H   0  0  0  0  0  0  0  0  0  0  0  0
   -0.8574    1.1701    1.6039 H   0  0  0  0  0  0  0  0  0  0  0  0
  1  2  1  0
  2  3  1  0
  3  4  1  0
  3  5  1  0
  5  6  1  0
  5  7  1  0
  7  8  1  0
  7  9  1  0
  7  3  1  0
  1 10  1  0
  1 11  1  0
  1 12  1  0
  2 13  1  0
  2 14  1  0
  4 15  1  0
  5 16  1  0
  6 17  1  0
  8 18  1  0
  8 19  1  0
  8 20  1  0
  9 21  1  0
  9 22  1  0
  9 23  1  0
M  END
