
     RDKit          3D

 21 22  0  0  0  0  0  0  0  0999 V2000
   -2.5153    0.9735   -0.0149 C   0  0  0  0  0  0  0  0  0  0  0  0
   -1.6184   -0.1003    0.5741 C   0  0  0  0  0  0  0  0  0  0  0  0
   -0.6886   -0.6548   -0.4506 C   0  0  0  0  0  0  0  0  0  0  0  0
    0.2443   -1.7512    0.0966 C   0  0  0  0  0  0  0  0  0  0  0  0
    1.0776   -0.6179    0.5852 C   0  0  0  0  0  0  0  0  0  0  0  0
    2.4537   -0.6343    0.3407 O   0  0  0  0  0  0  0  0  0  0  0  0
    2.7107    0.6985   -0.0792 C   0  0  0  0  0  0  0  0  0  0  0  0
    1.5084    0.9754   -0.9629 C   0  0  0  0  0  0  0  0  0  0  0  0
    0.5352    0.1425   -0.6247 C   0  0  0  0  0  0  0  0  0  0  0  0
   -1.9411    1.8468   -0.3701 H   0  0  0  0  0  0  0  0  0  0  0  0
   -2.9998    0.5294   -0.9170 H   0  0  0  0  0  0  0  0  0  0  0  0
   -3.2643    1.2311    0.7676 H   0  0  0  0  0  0  0  0  0  0  0  0
   -2.3163   -0.9271    0.8996 H   0  0  0  0  0  0  0  0  0  0  0  0
   -1.1200    0.2246    1.4867 H   0  0  0  0  0  0  0  0  0  0  0  0
   -1.1775   -0.9834   -1.4024 H   0  0  0  0  0  0  0  0  0  0  0  0
   -0.2160   -2.3388    0.9151 H   0  0  0  0  0  0  0  0  0  0  0  0
    0.6987   -2.3148   -0.7169 H   0  0  0  0  0  0  0  0  0  0  0  0
    0.7973   -0.1288    1.5256 H   0  0  0  0  0  0  0  0  0  0  0  0
    3.6487    0.6658   -0.6602 H   0  0  0  0  0  0  0  0  0  0  0  0
    2.6666    1.4215    0.7311 H   0  0  0  0  0  0  0  0  0  0  0  0
    1.5161    1.7423   -1.7234 H   0  0  0  0  0  0  0  0  0  0  0  0
  1  2  1  0
  2  3  1  0
  3  4  1  0
  4  5  1  0
  5  6  1  0
  6  7  1  0
  7  8  1  0
  8  9  2  0
  9  3  1  0
  9  5  1  0
  1 10  1  0
  1 11  1  0
  1 12  1  0
  2 13  1  0
  2 14  1  0
  3 15  1  0
  4 16  1  0
  4 17  1  0
  5 18  1  0
  7 19  1  0
  7 20  1  0
  8 21  1  0
M  END
