
     RDKit          3D

 22 22  0  0  0  0  0  0  0  0999 V2000
    2.2089   -0.1745   -0.7146 C   0  0  0  0  0  0  0  0  0  0  0  0
    0.7294    0.0353   -1.0123 C   0  0  0  0  0  0  0  0  0  0  0  0
   -0.0045   -0.0131    0.3066 C   0  0  0  0  0  0  0  0  0  0  0  0
    0.4295    1.0310    1.2914 C   0  0  0  0  0  0  0  0  0  0  0  0
    0.1871    2.2836    0.6871 O   0  0  0  0  0  0  0  0  0  0  0  0
   -0.3893   -1.3843    0.7486 C   0  0  0  0  0  0  0  0  0  0  0  0
   -1.4300   -0.4041    0.3706 C   0  0  0  0  0  0  0  0  0  0  0  0
   -2.1823   -0.4860   -0.9171 C   0  0  0  0  0  0  0  0  0  0  0  0
    2.3764   -0.5085    0.3331 H   0  0  0  0  0  0  0  0  0  0  0  0
    2.6594   -0.9525   -1.3601 H   0  0  0  0  0  0  0  0  0  0  0  0
    2.7482    0.7671   -0.9061 H   0  0  0  0  0  0  0  0  0  0  0  0
    0.4342   -0.8065   -1.6888 H   0  0  0  0  0  0  0  0  0  0  0  0
    0.5493    1.0198   -1.5124 H   0  0  0  0  0  0  0  0  0  0  0  0
   -0.1469    0.9641    2.2460 H   0  0  0  0  0  0  0  0  0  0  0  0
    1.5047    0.9575    1.4521 H   0  0  0  0  0  0  0  0  0  0  0  0
   -0.0208    2.9721    1.3466 H   0  0  0  0  0  0  0  0  0  0  0  0
   -0.1512   -2.2610    0.0874 H   0  0  0  0  0  0  0  0  0  0  0  0
   -0.2162   -1.6197    1.8125 H   0  0  0  0  0  0  0  0  0  0  0  0
   -2.0404   -0.0259    1.2226 H   0  0  0  0  0  0  0  0  0  0  0  0
   -2.8748    0.4064   -0.9543 H   0  0  0  0  0  0  0  0  0  0  0  0
   -1.5611   -0.4064   -1.8212 H   0  0  0  0  0  0  0  0  0  0  0  0
   -2.8096   -1.3940   -1.0178 H   0  0  0  0  0  0  0  0  0  0  0  0
  1  2  1  0
  2  3  1  0
  3  4  1  0
  4  5  1  0
  3  6  1  0
  6  7  1  0
  7  8  1  0
  7  3  1  0
  1  9  1  0
  1 10  1  0
  1 11  1  0
  2 12  1  0
  2 13  1  0
  4 14  1  0
  4 15  1  0
  5 16  1  0
  6 17  1  0
  6 18  1  0
  7 19  1  0
  8 20  1  0
  8 21  1  0
  8 22  1  0
M  END
