
     RDKit          3D

 21 23  0  0  0  0  0  0  0  0999 V2000
    2.4667    0.0983    0.4881 C   0  0  0  0  0  0  0  0  0  0  0  0
    1.4151   -0.8025   -0.1157 C   0  0  0  0  0  0  0  0  0  0  0  0
    0.2541   -0.0320   -0.6046 C   0  0  0  0  0  0  0  0  0  0  0  0
   -0.4658    0.7754    0.4529 C   0  0  0  0  0  0  0  0  0  0  0  0
   -1.7019    1.4445   -0.0704 C   0  0  0  0  0  0  0  0  0  0  0  0
   -1.9134    0.1540    0.5157 C   0  0  0  0  0  0  0  0  0  0  0  0
   -1.5047   -1.1922    0.1082 C   0  0  0  0  0  0  0  0  0  0  0  0
   -1.4756   -1.8923   -0.9863 O   0  0  0  0  0  0  0  0  0  0  0  0
   -0.8389   -0.7715   -1.2368 C   0  0  0  0  0  0  0  0  0  0  0  0
    2.2416    0.3331    1.5309 H   0  0  0  0  0  0  0  0  0  0  0  0
    2.6871    0.9842   -0.1447 H   0  0  0  0  0  0  0  0  0  0  0  0
    3.4235   -0.4982    0.5001 H   0  0  0  0  0  0  0  0  0  0  0  0
    1.2312   -1.6138    0.5767 H   0  0  0  0  0  0  0  0  0  0  0  0
    1.9044   -1.2582   -1.0257 H   0  0  0  0  0  0  0  0  0  0  0  0
    0.6571    0.7320   -1.3365 H   0  0  0  0  0  0  0  0  0  0  0  0
   -0.0062    1.0308    1.3974 H   0  0  0  0  0  0  0  0  0  0  0  0
   -1.7823    1.7338   -1.1412 H   0  0  0  0  0  0  0  0  0  0  0  0
   -1.9675    2.3509    0.5554 H   0  0  0  0  0  0  0  0  0  0  0  0
   -2.3688    0.1499    1.5591 H   0  0  0  0  0  0  0  0  0  0  0  0
   -0.7783   -1.6185    0.8766 H   0  0  0  0  0  0  0  0  0  0  0  0
   -1.4773   -0.1077   -1.8994 H   0  0  0  0  0  0  0  0  0  0  0  0
  1  2  1  0
  2  3  1  0
  3  4  1  0
  4  5  1  0
  5  6  1  0
  6  7  1  0
  7  8  1  0
  8  9  1  0
  9  3  1  0
  6  4  1  0
  9  7  1  0
  1 10  1  0
  1 11  1  0
  1 12  1  0
  2 13  1  0
  2 14  1  0
  3 15  1  0
  4 16  1  0
  5 17  1  0
  5 18  1  0
  6 19  1  0
  7 20  1  0
  9 21  1  0
M  END
