
     RDKit          3D

 23 23  0  0  0  0  0  0  0  0999 V2000
    2.3269   -1.1586   -0.1864 C   0  0  0  0  0  0  0  0  0  0  0  0
    0.8695   -1.0642   -0.4891 C   0  0  0  0  0  0  0  0  0  0  0  0
    0.2496    0.2189   -0.0021 C   0  0  0  0  0  0  0  0  0  0  0  0
    0.4217    0.3133    1.5143 C   0  0  0  0  0  0  0  0  0  0  0  0
    0.6961    1.3366   -0.6479 O   0  0  0  0  0  0  0  0  0  0  0  0
   -0.3828    2.2446   -0.6774 C   0  0  0  0  0  0  0  0  0  0  0  0
   -1.5847    1.3818   -0.6519 C   0  0  0  0  0  0  0  0  0  0  0  0
   -1.2147    0.1833   -0.2533 C   0  0  0  0  0  0  0  0  0  0  0  0
   -2.0684   -1.0212   -0.0712 C   0  0  0  0  0  0  0  0  0  0  0  0
    2.9105   -1.4489   -1.0843 H   0  0  0  0  0  0  0  0  0  0  0  0
    2.7669   -0.2132    0.1867 H   0  0  0  0  0  0  0  0  0  0  0  0
    2.5459   -1.9239    0.5930 H   0  0  0  0  0  0  0  0  0  0  0  0
    0.3402   -1.9060    0.0147 H   0  0  0  0  0  0  0  0  0  0  0  0
    0.6597   -1.1354   -1.5798 H   0  0  0  0  0  0  0  0  0  0  0  0
   -0.5053    0.0106    2.0479 H   0  0  0  0  0  0  0  0  0  0  0  0
    0.7467    1.3134    1.8279 H   0  0  0  0  0  0  0  0  0  0  0  0
    1.2023   -0.4127    1.8174 H   0  0  0  0  0  0  0  0  0  0  0  0
   -0.2734    2.8111   -1.6186 H   0  0  0  0  0  0  0  0  0  0  0  0
   -0.2712    2.8692    0.2302 H   0  0  0  0  0  0  0  0  0  0  0  0
   -2.5781    1.6959   -0.9161 H   0  0  0  0  0  0  0  0  0  0  0  0
   -3.0585   -0.7692    0.3582 H   0  0  0  0  0  0  0  0  0  0  0  0
   -2.1899   -1.5744   -1.0441 H   0  0  0  0  0  0  0  0  0  0  0  0
   -1.6090   -1.7511    0.6320 H   0  0  0  0  0  0  0  0  0  0  0  0
  1  2  1  0
  2  3  1  0
  3  4  1  0
  3  5  1  0
  5  6  1  0
  6  7  1  0
  7  8  2  0
  8  9  1  0
  8  3  1  0
  1 10  1  0
  1 11  1  0
  1 12  1  0
  2 13  1  0
  2 14  1  0
  4 15  1  0
  4 16  1  0
  4 17  1  0
  6 18  1  0
  6 19  1  0
  7 20  1  0
  9 21  1  0
  9 22  1  0
  9 23  1  0
M  END
