
     RDKit          3D

 21 21  0  0  0  0  0  0  0  0999 V2000
   -2.2890    0.8141    0.7908 C   0  0  0  0  0  0  0  0  0  0  0  0
   -1.9975   -0.0647   -0.3910 C   0  0  0  0  0  0  0  0  0  0  0  0
   -0.5591   -0.4456   -0.5181 C   0  0  0  0  0  0  0  0  0  0  0  0
    0.3384    0.6096   -0.6641 O   0  0  0  0  0  0  0  0  0  0  0  0
    1.3028   -0.2115   -0.0786 C   0  0  0  0  0  0  0  0  0  0  0  0
    2.3389    0.5268    0.7325 C   0  0  0  0  0  0  0  0  0  0  0  0
    3.0091    1.4327   -0.1191 O   0  0  0  0  0  0  0  0  0  0  0  0
    0.1595   -0.7963    0.7568 C   0  0  0  0  0  0  0  0  0  0  0  0
    0.2807   -2.1379    1.0295 O   0  0  0  0  0  0  0  0  0  0  0  0
   -2.0959    0.3092    1.7500 H   0  0  0  0  0  0  0  0  0  0  0  0
   -1.7814    1.7847    0.6853 H   0  0  0  0  0  0  0  0  0  0  0  0
   -3.3914    1.0202    0.7712 H   0  0  0  0  0  0  0  0  0  0  0  0
   -2.5938   -0.9802   -0.2995 H   0  0  0  0  0  0  0  0  0  0  0  0
   -2.3055    0.4491   -1.3142 H   0  0  0  0  0  0  0  0  0  0  0  0
   -0.4189   -1.1592   -1.3476 H   0  0  0  0  0  0  0  0  0  0  0  0
    1.6954   -0.9282   -0.7974 H   0  0  0  0  0  0  0  0  0  0  0  0
    3.1003   -0.1583    1.1117 H   0  0  0  0  0  0  0  0  0  0  0  0
    1.8891    1.0977    1.5446 H   0  0  0  0  0  0  0  0  0  0  0  0
    3.9389    1.5918    0.1800 H   0  0  0  0  0  0  0  0  0  0  0  0
   -0.1164   -0.1559    1.5910 H   0  0  0  0  0  0  0  0  0  0  0  0
   -0.5043   -2.5979    0.6307 H   0  0  0  0  0  0  0  0  0  0  0  0
  1  2  1  0
  2  3  1  0
  3  4  1  0
  4  5  1  0
  5  6  1  0
  6  7  1  0
  5  8  1  0
  8  9  1  0
  8  3  1  0
  1 10  1  0
  1 11  1  0
  1 12  1  0
  2 13  1  0
  2 14  1  0
  3 15  1  0
  5 16  1  0
  6 17  1  0
  6 18  1  0
  7 19  1  0
  8 20  1  0
  9 21  1  0
M  END
