
     RDKit          3D

 19 20  0  0  0  0  0  0  0  0999 V2000
   -1.9291   -0.5572    0.5345 C   0  0  0  0  0  0  0  0  0  0  0  0
   -1.6071    0.0473   -0.7956 C   0  0  0  0  0  0  0  0  0  0  0  0
   -0.2320    0.5522   -0.9627 C   0  0  0  0  0  0  0  0  0  0  0  0
    0.3119    1.6422   -0.0644 C   0  0  0  0  0  0  0  0  0  0  0  0
    0.9257    0.3079   -0.1587 C   0  0  0  0  0  0  0  0  0  0  0  0
    2.1946    0.1264   -0.6912 O   0  0  0  0  0  0  0  0  0  0  0  0
    2.3463   -0.9440    0.1843 C   0  0  0  0  0  0  0  0  0  0  0  0
    1.1547   -0.5174    0.9790 C   0  0  0  0  0  0  0  0  0  0  0  0
    0.8413   -0.9212    2.0840 O   0  0  0  0  0  0  0  0  0  0  0  0
   -1.3825   -1.5321    0.5916 H   0  0  0  0  0  0  0  0  0  0  0  0
   -2.9974   -0.8103    0.6593 H   0  0  0  0  0  0  0  0  0  0  0  0
   -1.6347    0.0370    1.3923 H   0  0  0  0  0  0  0  0  0  0  0  0
   -1.8312   -0.6618   -1.6198 H   0  0  0  0  0  0  0  0  0  0  0  0
   -2.3330    0.8918   -0.9393 H   0  0  0  0  0  0  0  0  0  0  0  0
   -0.0032    0.7798   -2.0544 H   0  0  0  0  0  0  0  0  0  0  0  0
   -0.2059    1.8726    0.8849 H   0  0  0  0  0  0  0  0  0  0  0  0
    0.9142    2.4715   -0.4897 H   0  0  0  0  0  0  0  0  0  0  0  0
    2.1492   -1.9458   -0.2478 H   0  0  0  0  0  0  0  0  0  0  0  0
    3.3182   -0.8389    0.7139 H   0  0  0  0  0  0  0  0  0  0  0  0
  1  2  1  0
  2  3  1  0
  3  4  1  0
  4  5  1  0
  5  6  1  0
  6  7  1  0
  7  8  1  0
  8  9  2  0
  5  3  1  0
  8  5  1  0
  1 10  1  0
  1 11  1  0
  1 12  1  0
  2 13  1  0
  2 14  1  0
  3 15  1  0
  4 16  1  0
  4 17  1  0
  7 18  1  0
  7 19  1  0
M  END
