
     RDKit          3D

 23 24  0  0  0  0  0  0  0  0999 V2000
    2.7657    1.0489    0.1905 C   0  0  0  0  0  0  0  0  0  0  0  0
    1.6938    0.3978   -0.7140 C   0  0  0  0  0  0  0  0  0  0  0  0
    0.8133   -0.3804    0.1581 C   0  0  0  0  0  0  0  0  0  0  0  0
   -0.3352   -1.1567   -0.3551 C   0  0  0  0  0  0  0  0  0  0  0  0
   -0.7004   -1.2160    1.1252 C   0  0  0  0  0  0  0  0  0  0  0  0
   -0.3476    0.2406    0.8543 C   0  0  0  0  0  0  0  0  0  0  0  0
   -1.1490    0.0928   -0.3697 C   0  0  0  0  0  0  0  0  0  0  0  0
   -2.6380   -0.1006   -0.1959 C   0  0  0  0  0  0  0  0  0  0  0  0
   -0.9296    0.9562   -1.4326 O   0  0  0  0  0  0  0  0  0  0  0  0
    3.1626    1.9657   -0.2649 H   0  0  0  0  0  0  0  0  0  0  0  0
    2.3215    1.3189    1.1698 H   0  0  0  0  0  0  0  0  0  0  0  0
    3.5747    0.3134    0.3981 H   0  0  0  0  0  0  0  0  0  0  0  0
    1.2788    1.2411   -1.2697 H   0  0  0  0  0  0  0  0  0  0  0  0
    2.2842   -0.2972   -1.3626 H   0  0  0  0  0  0  0  0  0  0  0  0
    1.4036   -1.0684    0.8644 H   0  0  0  0  0  0  0  0  0  0  0  0
   -0.3637   -1.9326   -0.9821 H   0  0  0  0  0  0  0  0  0  0  0  0
    0.0638   -1.6716    1.7587 H   0  0  0  0  0  0  0  0  0  0  0  0
   -1.7233   -1.4495    1.3660 H   0  0  0  0  0  0  0  0  0  0  0  0
   -0.3367    0.9674    1.5441 H   0  0  0  0  0  0  0  0  0  0  0  0
   -2.9800    0.0582    0.8420 H   0  0  0  0  0  0  0  0  0  0  0  0
   -3.1810    0.6486   -0.8024 H   0  0  0  0  0  0  0  0  0  0  0  0
   -2.9615   -1.1022   -0.5445 H   0  0  0  0  0  0  0  0  0  0  0  0
   -1.7159    1.1255   -1.9778 H   0  0  0  0  0  0  0  0  0  0  0  0
  1  2  1  0
  2  3  1  0
  3  4  1  0
  4  5  1  0
  5  6  1  0
  6  7  1  0
  7  8  1  0
  7  9  1  0
  6  3  1  0
  7  4  1  0
  1 10  1  0
  1 11  1  0
  1 12  1  0
  2 13  1  0
  2 14  1  0
  3 15  1  0
  4 16  1  0
  5 17  1  0
  5 18  1  0
  6 19  1  0
  8 20  1  0
  8 21  1  0
  8 22  1  0
  9 23  1  0
M  END
