
     RDKit          3D

 18 18  0  0  0  0  0  0  0  0999 V2000
    2.1581   -0.6077   -0.3829 C   0  0  0  0  0  0  0  0  0  0  0  0
    1.1311    0.4724   -0.2982 C   0  0  0  0  0  0  0  0  0  0  0  0
    0.0267    0.1713    0.6848 C   0  0  0  0  0  0  0  0  0  0  0  0
   -0.9124    1.3108    0.6696 C   0  0  0  0  0  0  0  0  0  0  0  0
   -2.0127    0.9991    0.0197 C   0  0  0  0  0  0  0  0  0  0  0  0
   -1.9329   -0.3794   -0.4708 C   0  0  0  0  0  0  0  0  0  0  0  0
   -2.6141   -0.9736   -1.3242 O   0  0  0  0  0  0  0  0  0  0  0  0
   -0.8136   -0.9916    0.2840 C   0  0  0  0  0  0  0  0  0  0  0  0
    1.7287   -1.6170   -0.2535 H   0  0  0  0  0  0  0  0  0  0  0  0
    2.6298   -0.6077   -1.3977 H   0  0  0  0  0  0  0  0  0  0  0  0
    3.0088   -0.4532    0.3265 H   0  0  0  0  0  0  0  0  0  0  0  0
    1.6412    1.4060    0.0115 H   0  0  0  0  0  0  0  0  0  0  0  0
    0.6551    0.5755   -1.3034 H   0  0  0  0  0  0  0  0  0  0  0  0
    0.4852    0.0009    1.6783 H   0  0  0  0  0  0  0  0  0  0  0  0
   -0.7274    2.2692    1.1266 H   0  0  0  0  0  0  0  0  0  0  0  0
   -2.8965    1.6163   -0.1695 H   0  0  0  0  0  0  0  0  0  0  0  0
   -0.3047   -1.7175   -0.3836 H   0  0  0  0  0  0  0  0  0  0  0  0
   -1.2503   -1.4737    1.1828 H   0  0  0  0  0  0  0  0  0  0  0  0
  1  2  1  0
  2  3  1  0
  3  4  1  0
  4  5  2  0
  5  6  1  0
  6  7  2  0
  6  8  1  0
  8  3  1  0
  1  9  1  0
  1 10  1  0
  1 11  1  0
  2 12  1  0
  2 13  1  0
  3 14  1  0
  4 15  1  0
  5 16  1  0
  8 17  1  0
  8 18  1  0
M  END
