
     RDKit          3D

 25 25  0  0  0  0  0  0  0  0999 V2000
   -1.5903    1.1351    1.0631 C   0  0  0  0  0  0  0  0  0  0  0  0
   -0.2682    1.2256    0.3646 C   0  0  0  0  0  0  0  0  0  0  0  0
    0.1619   -0.0699   -0.2695 C   0  0  0  0  0  0  0  0  0  0  0  0
    1.5015    0.1537   -0.9366 C   0  0  0  0  0  0  0  0  0  0  0  0
    2.5709    0.5857    0.0057 C   0  0  0  0  0  0  0  0  0  0  0  0
    0.1633   -1.2325    0.6663 C   0  0  0  0  0  0  0  0  0  0  0  0
   -1.2700   -1.6769    0.6196 C   0  0  0  0  0  0  0  0  0  0  0  0
   -1.8165   -1.2754   -0.5226 C   0  0  0  0  0  0  0  0  0  0  0  0
   -0.8020   -0.5279   -1.3421 C   0  0  0  0  0  0  0  0  0  0  0  0
   -1.7891    2.1262    1.5233 H   0  0  0  0  0  0  0  0  0  0  0  0
   -2.4360    0.9568    0.3547 H   0  0  0  0  0  0  0  0  0  0  0  0
   -1.5893    0.4061    1.8982 H   0  0  0  0  0  0  0  0  0  0  0  0
   -0.3678    1.9716   -0.4503 H   0  0  0  0  0  0  0  0  0  0  0  0
    0.4889    1.5900    1.0541 H   0  0  0  0  0  0  0  0  0  0  0  0
    1.3627    0.8983   -1.7532 H   0  0  0  0  0  0  0  0  0  0  0  0
    1.8499   -0.7865   -1.4489 H   0  0  0  0  0  0  0  0  0  0  0  0
    2.9166    1.6184   -0.2767 H   0  0  0  0  0  0  0  0  0  0  0  0
    2.2801    0.6131    1.0627 H   0  0  0  0  0  0  0  0  0  0  0  0
    3.5007   -0.0454   -0.1033 H   0  0  0  0  0  0  0  0  0  0  0  0
    0.7428   -2.0564    0.1848 H   0  0  0  0  0  0  0  0  0  0  0  0
    0.4949   -1.0116    1.6851 H   0  0  0  0  0  0  0  0  0  0  0  0
   -1.7763   -2.2317    1.3865 H   0  0  0  0  0  0  0  0  0  0  0  0
   -2.8331   -1.4215   -0.8888 H   0  0  0  0  0  0  0  0  0  0  0  0
   -1.2476    0.3043   -1.9023 H   0  0  0  0  0  0  0  0  0  0  0  0
   -0.2477   -1.2494   -1.9744 H   0  0  0  0  0  0  0  0  0  0  0  0
  1  2  1  0
  2  3  1  0
  3  4  1  0
  4  5  1  0
  3  6  1  0
  6  7  1  0
  7  8  2  0
  8  9  1  0
  9  3  1  0
  1 10  1  0
  1 11  1  0
  1 12  1  0
  2 13  1  0
  2 14  1  0
  4 15  1  0
  4 16  1  0
  5 17  1  0
  5 18  1  0
  5 19  1  0
  6 20  1  0
  6 21  1  0
  7 22  1  0
  8 23  1  0
  9 24  1  0
  9 25  1  0
M  END
