
     RDKit          3D

 25 26  0  0  0  0  0  0  0  0999 V2000
    2.3270    0.9326   -0.2033 C   0  0  0  0  0  0  0  0  0  0  0  0
    1.6162   -0.0533    0.6772 C   0  0  0  0  0  0  0  0  0  0  0  0
    0.2572   -0.3684    0.2929 C   0  0  0  0  0  0  0  0  0  0  0  0
    0.0124   -0.9776   -1.0813 C   0  0  0  0  0  0  0  0  0  0  0  0
   -1.2515   -1.5187   -0.3986 C   0  0  0  0  0  0  0  0  0  0  0  0
   -2.0068   -0.2510   -0.1161 C   0  0  0  0  0  0  0  0  0  0  0  0
   -0.8752    0.5648    0.5462 C   0  0  0  0  0  0  0  0  0  0  0  0
   -0.7974    1.8656   -0.1678 C   0  0  0  0  0  0  0  0  0  0  0  0
   -0.3402   -1.6854    0.8208 C   0  0  0  0  0  0  0  0  0  0  0  0
    2.3867    0.5837   -1.2544 H   0  0  0  0  0  0  0  0  0  0  0  0
    3.3820    1.0611    0.1433 H   0  0  0  0  0  0  0  0  0  0  0  0
    1.8435    1.9281   -0.1828 H   0  0  0  0  0  0  0  0  0  0  0  0
    2.2302   -1.0013    0.6439 H   0  0  0  0  0  0  0  0  0  0  0  0
    1.6992    0.2931    1.7252 H   0  0  0  0  0  0  0  0  0  0  0  0
   -0.1784   -0.2499   -1.8801 H   0  0  0  0  0  0  0  0  0  0  0  0
    0.6841   -1.8089   -1.2946 H   0  0  0  0  0  0  0  0  0  0  0  0
   -1.7214   -2.3677   -0.8057 H   0  0  0  0  0  0  0  0  0  0  0  0
   -2.3280    0.2171   -1.0614 H   0  0  0  0  0  0  0  0  0  0  0  0
   -2.8336   -0.3733    0.5928 H   0  0  0  0  0  0  0  0  0  0  0  0
   -1.1107    0.6542    1.6225 H   0  0  0  0  0  0  0  0  0  0  0  0
   -0.3553    2.6811    0.4172 H   0  0  0  0  0  0  0  0  0  0  0  0
   -0.3377    1.7107   -1.1594 H   0  0  0  0  0  0  0  0  0  0  0  0
   -1.8577    2.1905   -0.3838 H   0  0  0  0  0  0  0  0  0  0  0  0
    0.4019   -2.4765    0.7291 H   0  0  0  0  0  0  0  0  0  0  0  0
   -0.8465   -1.5507    1.7782 H   0  0  0  0  0  0  0  0  0  0  0  0
  1  2  1  0
  2  3  1  0
  3  4  1  0
  4  5  1  0
  5  6  1  0
  6  7  1  0
  7  8  1  0
  5  9  1  0
  7  3  1  0
  9  3  1  0
  1 10  1  0
  1 11  1  0
  1 12  1  0
  2 13  1  0
  2 14  1  0
  4 15  1  0
  4 16  1  0
  5 17  1  0
  6 18  1  0
  6 19  1  0
  7 20  1  0
  8 21  1  0
  8 22  1  0
  8 23  1  0
  9 24  1  0
  9 25  1  0
M  END
