
     RDKit          3D

 23 24  0  0  0  0  0  0  0  0999 V2000
    2.5859   -0.7071    0.5299 C   0  0  0  0  0  0  0  0  0  0  0  0
    1.8499    0.4084   -0.1641 C   0  0  0  0  0  0  0  0  0  0  0  0
    0.4093    0.1375   -0.3429 C   0  0  0  0  0  0  0  0  0  0  0  0
   -0.5817    0.8473    0.1318 C   0  0  0  0  0  0  0  0  0  0  0  0
   -0.4576    2.0824    0.9554 C   0  0  0  0  0  0  0  0  0  0  0  0
   -1.8888    0.2491   -0.2654 C   0  0  0  0  0  0  0  0  0  0  0  0
   -2.2968   -1.0703    0.2948 C   0  0  0  0  0  0  0  0  0  0  0  0
   -1.6076   -0.9787   -1.0167 C   0  0  0  0  0  0  0  0  0  0  0  0
   -0.1114   -1.0296   -1.1207 C   0  0  0  0  0  0  0  0  0  0  0  0
    1.9754   -1.5993    0.6978 H   0  0  0  0  0  0  0  0  0  0  0  0
    3.4944   -1.0322   -0.0221 H   0  0  0  0  0  0  0  0  0  0  0  0
    2.9665   -0.3956    1.5450 H   0  0  0  0  0  0  0  0  0  0  0  0
    1.9932    1.3289    0.4656 H   0  0  0  0  0  0  0  0  0  0  0  0
    2.3756    0.5900   -1.1408 H   0  0  0  0  0  0  0  0  0  0  0  0
   -0.1513    1.7847    1.9812 H   0  0  0  0  0  0  0  0  0  0  0  0
    0.3303    2.7358    0.5029 H   0  0  0  0  0  0  0  0  0  0  0  0
   -1.4107    2.6469    0.9886 H   0  0  0  0  0  0  0  0  0  0  0  0
   -2.6705    0.9671   -0.5607 H   0  0  0  0  0  0  0  0  0  0  0  0
   -3.3656   -1.2812    0.2805 H   0  0  0  0  0  0  0  0  0  0  0  0
   -1.7353   -1.5557    1.1083 H   0  0  0  0  0  0  0  0  0  0  0  0
   -2.1907   -1.2897   -1.9110 H   0  0  0  0  0  0  0  0  0  0  0  0
    0.1668   -0.8544   -2.1810 H   0  0  0  0  0  0  0  0  0  0  0  0
    0.3205   -1.9845   -0.7566 H   0  0  0  0  0  0  0  0  0  0  0  0
  1  2  1  0
  2  3  1  0
  3  4  2  0
  4  5  1  0
  4  6  1  0
  6  7  1  0
  7  8  1  0
  8  9  1  0
  9  3  1  0
  8  6  1  0
  1 10  1  0
  1 11  1  0
  1 12  1  0
  2 13  1  0
  2 14  1  0
  5 15  1  0
  5 16  1  0
  5 17  1  0
  6 18  1  0
  7 19  1  0
  7 20  1  0
  8 21  1  0
  9 22  1  0
  9 23  1  0
M  END
