
     RDKit          3D

 21 22  0  0  0  0  0  0  0  0999 V2000
    2.5321    0.1405    0.4728 C   0  0  0  0  0  0  0  0  0  0  0  0
    1.4504   -0.3791   -0.3936 C   0  0  0  0  0  0  0  0  0  0  0  0
    0.2777    0.5839   -0.5451 C   0  0  0  0  0  0  0  0  0  0  0  0
   -0.7041   -0.1036   -1.4429 C   0  0  0  0  0  0  0  0  0  0  0  0
   -0.9118    0.1204   -2.6165 O   0  0  0  0  0  0  0  0  0  0  0  0
   -1.3712   -1.1216   -0.5860 C   0  0  0  0  0  0  0  0  0  0  0  0
   -1.3849   -0.4545    0.7544 C   0  0  0  0  0  0  0  0  0  0  0  0
   -1.9622    0.9476    0.7263 C   0  0  0  0  0  0  0  0  0  0  0  0
   -0.5012    0.7294    0.7196 C   0  0  0  0  0  0  0  0  0  0  0  0
    3.0705   -0.7476    0.9167 H   0  0  0  0  0  0  0  0  0  0  0  0
    3.3034    0.6718   -0.1233 H   0  0  0  0  0  0  0  0  0  0  0  0
    2.1956    0.7397    1.3377 H   0  0  0  0  0  0  0  0  0  0  0  0
    1.0907   -1.3802   -0.0818 H   0  0  0  0  0  0  0  0  0  0  0  0
    1.8629   -0.4958   -1.4368 H   0  0  0  0  0  0  0  0  0  0  0  0
    0.6409    1.5256   -0.9772 H   0  0  0  0  0  0  0  0  0  0  0  0
   -2.4318   -1.2497   -0.9046 H   0  0  0  0  0  0  0  0  0  0  0  0
   -0.8377   -2.0918   -0.5863 H   0  0  0  0  0  0  0  0  0  0  0  0
   -1.4080   -1.0389    1.6859 H   0  0  0  0  0  0  0  0  0  0  0  0
   -2.5130    1.2797   -0.1872 H   0  0  0  0  0  0  0  0  0  0  0  0
   -2.4393    1.2521    1.6527 H   0  0  0  0  0  0  0  0  0  0  0  0
    0.0410    1.0721    1.6152 H   0  0  0  0  0  0  0  0  0  0  0  0
  1  2  1  0
  2  3  1  0
  3  4  1  0
  4  5  2  0
  4  6  1  0
  6  7  1  0
  7  8  1  0
  8  9  1  0
  9  3  1  0
  9  7  1  0
  1 10  1  0
  1 11  1  0
  1 12  1  0
  2 13  1  0
  2 14  1  0
  3 15  1  0
  6 16  1  0
  6 17  1  0
  7 18  1  0
  8 19  1  0
  8 20  1  0
  9 21  1  0
M  END
