
     RDKit          3D

 21 22  0  0  0  0  0  0  0  0999 V2000
    2.8082   -0.3051   -0.0117 C   0  0  0  0  0  0  0  0  0  0  0  0
    1.6510    0.5314    0.4461 C   0  0  0  0  0  0  0  0  0  0  0  0
    0.3618    0.2244   -0.2345 C   0  0  0  0  0  0  0  0  0  0  0  0
   -0.1855   -1.1639   -0.1059 C   0  0  0  0  0  0  0  0  0  0  0  0
   -1.6843   -1.0652   -0.2900 C   0  0  0  0  0  0  0  0  0  0  0  0
   -2.0041    0.2847    0.2625 C   0  0  0  0  0  0  0  0  0  0  0  0
   -3.0309    0.9300   -0.4644 O   0  0  0  0  0  0  0  0  0  0  0  0
   -0.7755    1.1439    0.1258 C   0  0  0  0  0  0  0  0  0  0  0  0
   -0.1975    1.1133   -1.1376 O   0  0  0  0  0  0  0  0  0  0  0  0
    3.4818   -0.4485    0.8762 H   0  0  0  0  0  0  0  0  0  0  0  0
    3.4220    0.3318   -0.7136 H   0  0  0  0  0  0  0  0  0  0  0  0
    2.5342   -1.2616   -0.4618 H   0  0  0  0  0  0  0  0  0  0  0  0
    1.4821    0.3812    1.5530 H   0  0  0  0  0  0  0  0  0  0  0  0
    1.8572    1.6216    0.3233 H   0  0  0  0  0  0  0  0  0  0  0  0
   -0.0353   -1.4814    0.9673 H   0  0  0  0  0  0  0  0  0  0  0  0
    0.2929   -1.8950   -0.7596 H   0  0  0  0  0  0  0  0  0  0  0  0
   -1.9672   -1.1666   -1.3666 H   0  0  0  0  0  0  0  0  0  0  0  0
   -2.1883   -1.8805    0.3060 H   0  0  0  0  0  0  0  0  0  0  0  0
   -2.3049    0.2133    1.3237 H   0  0  0  0  0  0  0  0  0  0  0  0
   -2.8851    1.8965   -0.3196 H   0  0  0  0  0  0  0  0  0  0  0  0
   -0.6325    1.9958    0.7877 H   0  0  0  0  0  0  0  0  0  0  0  0
  1  2  1  0
  2  3  1  0
  3  4  1  0
  4  5  1  0
  5  6  1  0
  6  7  1  0
  6  8  1  0
  8  9  1  0
  8  3  1  0
  9  3  1  0
  1 10  1  0
  1 11  1  0
  1 12  1  0
  2 13  1  0
  2 14  1  0
  4 15  1  0
  4 16  1  0
  5 17  1  0
  5 18  1  0
  6 19  1  0
  7 20  1  0
  8 21  1  0
M  END
