
     RDKit          3D

 23 23  0  0  0  0  0  0  0  0999 V2000
    2.6994    0.5557    0.1662 C   0  0  0  0  0  0  0  0  0  0  0  0
    1.5615   -0.0869   -0.6046 C   0  0  0  0  0  0  0  0  0  0  0  0
    0.5559   -0.6781    0.3890 C   0  0  0  0  0  0  0  0  0  0  0  0
    0.0265    0.3878    1.2511 C   0  0  0  0  0  0  0  0  0  0  0  0
   -1.1422    0.9916    1.0182 C   0  0  0  0  0  0  0  0  0  0  0  0
   -1.9118    0.5517   -0.1580 C   0  0  0  0  0  0  0  0  0  0  0  0
   -1.5596    1.3446   -1.2671 O   0  0  0  0  0  0  0  0  0  0  0  0
   -1.8122   -0.9039   -0.4331 C   0  0  0  0  0  0  0  0  0  0  0  0
   -0.4723   -1.5038   -0.2944 C   0  0  0  0  0  0  0  0  0  0  0  0
    3.0886   -0.1642    0.8979 H   0  0  0  0  0  0  0  0  0  0  0  0
    2.3322    1.4865    0.6369 H   0  0  0  0  0  0  0  0  0  0  0  0
    3.4723    0.8504   -0.5779 H   0  0  0  0  0  0  0  0  0  0  0  0
    2.0173   -0.9042   -1.2049 H   0  0  0  0  0  0  0  0  0  0  0  0
    1.0940    0.6240   -1.2937 H   0  0  0  0  0  0  0  0  0  0  0  0
    1.1658   -1.3558    1.0403 H   0  0  0  0  0  0  0  0  0  0  0  0
    0.5692    0.7348    2.1255 H   0  0  0  0  0  0  0  0  0  0  0  0
   -1.5180    1.7832    1.6729 H   0  0  0  0  0  0  0  0  0  0  0  0
   -3.0036    0.7845    0.0166 H   0  0  0  0  0  0  0  0  0  0  0  0
   -1.7464    2.2876   -1.0243 H   0  0  0  0  0  0  0  0  0  0  0  0
   -2.1902   -1.0737   -1.4843 H   0  0  0  0  0  0  0  0  0  0  0  0
   -2.5780   -1.4240    0.2136 H   0  0  0  0  0  0  0  0  0  0  0  0
   -0.5932   -2.5032    0.2209 H   0  0  0  0  0  0  0  0  0  0  0  0
   -0.0549   -1.7850   -1.3066 H   0  0  0  0  0  0  0  0  0  0  0  0
  1  2  1  0
  2  3  1  0
  3  4  1  0
  4  5  2  0
  5  6  1  0
  6  7  1  0
  6  8  1  0
  8  9  1  0
  9  3  1  0
  1 10  1  0
  1 11  1  0
  1 12  1  0
  2 13  1  0
  2 14  1  0
  3 15  1  0
  4 16  1  0
  5 17  1  0
  6 18  1  0
  7 19  1  0
  8 20  1  0
  8 21  1  0
  9 22  1  0
  9 23  1  0
M  END
