
     RDKit          3D

 22 22  0  0  0  0  0  0  0  0999 V2000
    2.3215   -0.4848   -0.4633 C   0  0  0  0  0  0  0  0  0  0  0  0
    1.2544    0.5492   -0.6297 C   0  0  0  0  0  0  0  0  0  0  0  0
    0.0674    0.3674    0.2691 C   0  0  0  0  0  0  0  0  0  0  0  0
    0.3553    0.4012    1.7258 C   0  0  0  0  0  0  0  0  0  0  0  0
   -0.5717   -0.9510   -0.0783 C   0  0  0  0  0  0  0  0  0  0  0  0
   -1.8290   -0.5359   -0.8245 C   0  0  0  0  0  0  0  0  0  0  0  0
   -2.0717    0.8300   -0.1976 C   0  0  0  0  0  0  0  0  0  0  0  0
   -0.8333    1.3675   -0.0268 O   0  0  0  0  0  0  0  0  0  0  0  0
    2.6223   -0.6665    0.5826 H   0  0  0  0  0  0  0  0  0  0  0  0
    2.0705   -1.4572   -0.9246 H   0  0  0  0  0  0  0  0  0  0  0  0
    3.2312   -0.1164   -0.9844 H   0  0  0  0  0  0  0  0  0  0  0  0
    1.6924    1.5718   -0.5576 H   0  0  0  0  0  0  0  0  0  0  0  0
    0.8843    0.4644   -1.6753 H   0  0  0  0  0  0  0  0  0  0  0  0
   -0.0029   -0.5345    2.2361 H   0  0  0  0  0  0  0  0  0  0  0  0
    1.4046    0.5300    2.0008 H   0  0  0  0  0  0  0  0  0  0  0  0
   -0.2053    1.2247    2.2587 H   0  0  0  0  0  0  0  0  0  0  0  0
    0.0350   -1.5719   -0.7570 H   0  0  0  0  0  0  0  0  0  0  0  0
   -0.8684   -1.5160    0.8448 H   0  0  0  0  0  0  0  0  0  0  0  0
   -1.5566   -0.4173   -1.8889 H   0  0  0  0  0  0  0  0  0  0  0  0
   -2.6692   -1.2260   -0.6553 H   0  0  0  0  0  0  0  0  0  0  0  0
   -2.6905    0.7536    0.6998 H   0  0  0  0  0  0  0  0  0  0  0  0
   -2.6403    1.4176   -0.9545 H   0  0  0  0  0  0  0  0  0  0  0  0
  1  2  1  0
  2  3  1  0
  3  4  1  0
  3  5  1  0
  5  6  1  0
  6  7  1  0
  7  8  1  0
  8  3  1  0
  1  9  1  0
  1 10  1  0
  1 11  1  0
  2 12  1  0
  2 13  1  0
  4 14  1  0
  4 15  1  0
  4 16  1  0
  5 17  1  0
  5 18  1  0
  6 19  1  0
  6 20  1  0
  7 21  1  0
  7 22  1  0
M  END
