
     RDKit          3D

 20 21  0  0  0  0  0  0  0  0999 V2000
    2.3903   -0.4245    0.4239 C   0  0  0  0  0  0  0  0  0  0  0  0
    1.4889    0.4347   -0.4062 C   0  0  0  0  0  0  0  0  0  0  0  0
    0.1350    0.6615    0.2279 C   0  0  0  0  0  0  0  0  0  0  0  0
   -0.6941    1.5502   -0.7095 C   0  0  0  0  0  0  0  0  0  0  0  0
   -0.9584    0.3624   -1.4374 O   0  0  0  0  0  0  0  0  0  0  0  0
   -0.8741   -0.2690   -0.2539 C   0  0  0  0  0  0  0  0  0  0  0  0
   -2.2025   -0.4342    0.4811 C   0  0  0  0  0  0  0  0  0  0  0  0
   -1.2332   -1.5800    0.1442 C   0  0  0  0  0  0  0  0  0  0  0  0
    2.9120   -1.2137   -0.1841 H   0  0  0  0  0  0  0  0  0  0  0  0
    3.1878    0.1643    0.9475 H   0  0  0  0  0  0  0  0  0  0  0  0
    1.8513   -0.9962    1.2186 H   0  0  0  0  0  0  0  0  0  0  0  0
    2.0058    1.4064   -0.6402 H   0  0  0  0  0  0  0  0  0  0  0  0
    1.3505   -0.0615   -1.3867 H   0  0  0  0  0  0  0  0  0  0  0  0
    0.1457    0.9808    1.2671 H   0  0  0  0  0  0  0  0  0  0  0  0
   -1.6379    1.8503   -0.1966 H   0  0  0  0  0  0  0  0  0  0  0  0
   -0.1446    2.3119   -1.2406 H   0  0  0  0  0  0  0  0  0  0  0  0
   -2.1893   -0.0131    1.4866 H   0  0  0  0  0  0  0  0  0  0  0  0
   -3.1307   -0.3786   -0.1366 H   0  0  0  0  0  0  0  0  0  0  0  0
   -1.5982   -2.3086   -0.6334 H   0  0  0  0  0  0  0  0  0  0  0  0
   -0.8042   -2.0431    1.0282 H   0  0  0  0  0  0  0  0  0  0  0  0
  1  2  1  0
  2  3  1  0
  3  4  1  0
  4  5  1  0
  5  6  1  0
  6  7  1  0
  7  8  1  0
  6  3  1  0
  8  6  1  0
  1  9  1  0
  1 10  1  0
  1 11  1  0
  2 12  1  0
  2 13  1  0
  3 14  1  0
  4 15  1  0
  4 16  1  0
  7 17  1  0
  7 18  1  0
  8 19  1  0
  8 20  1  0
M  END
