
     RDKit          3D

 20 21  0  0  0  0  0  0  0  0999 V2000
   -2.6636   -0.3263   -0.3332 C   0  0  0  0  0  0  0  0  0  0  0  0
   -1.4962    0.3553    0.2953 C   0  0  0  0  0  0  0  0  0  0  0  0
   -0.2536    0.3253   -0.5570 C   0  0  0  0  0  0  0  0  0  0  0  0
    0.1561   -1.0074   -0.8251 O   0  0  0  0  0  0  0  0  0  0  0  0
    1.4545   -1.0178   -0.3853 C   0  0  0  0  0  0  0  0  0  0  0  0
    2.0506    0.3274   -0.8328 C   0  0  0  0  0  0  0  0  0  0  0  0
    0.9541    0.8521    0.1092 C   0  0  0  0  0  0  0  0  0  0  0  0
    1.3553   -0.3358    0.9898 C   0  0  0  0  0  0  0  0  0  0  0  0
   -3.4875    0.4253   -0.4864 H   0  0  0  0  0  0  0  0  0  0  0  0
   -3.1124   -1.0954    0.3448 H   0  0  0  0  0  0  0  0  0  0  0  0
   -2.4640   -0.7559   -1.3214 H   0  0  0  0  0  0  0  0  0  0  0  0
   -1.7161    1.4316    0.4821 H   0  0  0  0  0  0  0  0  0  0  0  0
   -1.3279   -0.0939    1.2906 H   0  0  0  0  0  0  0  0  0  0  0  0
   -0.4251    0.8687   -1.5055 H   0  0  0  0  0  0  0  0  0  0  0  0
    2.0685   -1.8748   -0.4624 H   0  0  0  0  0  0  0  0  0  0  0  0
    1.8821    0.5497   -1.8889 H   0  0  0  0  0  0  0  0  0  0  0  0
    3.0674    0.4740   -0.4522 H   0  0  0  0  0  0  0  0  0  0  0  0
    1.0431    1.8214    0.4909 H   0  0  0  0  0  0  0  0  0  0  0  0
    0.5735   -0.7348    1.6330 H   0  0  0  0  0  0  0  0  0  0  0  0
    2.3411   -0.1886    1.4525 H   0  0  0  0  0  0  0  0  0  0  0  0
  1  2  1  0
  2  3  1  0
  3  4  1  0
  4  5  1  0
  5  6  1  0
  6  7  1  0
  7  8  1  0
  7  3  1  0
  8  5  1  0
  1  9  1  0
  1 10  1  0
  1 11  1  0
  2 12  1  0
  2 13  1  0
  3 14  1  0
  5 15  1  0
  6 16  1  0
  6 17  1  0
  7 18  1  0
  8 19  1  0
  8 20  1  0
M  END
