
     RDKit          3D

 21 22  0  0  0  0  0  0  0  0999 V2000
    2.5812    0.7506    0.1713 C   0  0  0  0  0  0  0  0  0  0  0  0
    1.9035   -0.6034    0.1632 C   0  0  0  0  0  0  0  0  0  0  0  0
    0.5052   -0.4065   -0.4091 C   0  0  0  0  0  0  0  0  0  0  0  0
   -0.3538    0.5260    0.3484 C   0  0  0  0  0  0  0  0  0  0  0  0
   -1.7996    0.7231    0.0658 C   0  0  0  0  0  0  0  0  0  0  0  0
   -2.0426    1.6326   -0.9601 O   0  0  0  0  0  0  0  0  0  0  0  0
   -1.9958   -0.7229   -0.3119 C   0  0  0  0  0  0  0  0  0  0  0  0
   -0.6394   -0.9916    0.3085 C   0  0  0  0  0  0  0  0  0  0  0  0
   -0.5428   -1.5874    1.5348 O   0  0  0  0  0  0  0  0  0  0  0  0
    2.0911    1.4539   -0.5366 H   0  0  0  0  0  0  0  0  0  0  0  0
    2.5450    1.1417    1.2229 H   0  0  0  0  0  0  0  0  0  0  0  0
    3.6414    0.6495   -0.1690 H   0  0  0  0  0  0  0  0  0  0  0  0
    1.8286   -0.9979    1.1995 H   0  0  0  0  0  0  0  0  0  0  0  0
    2.4778   -1.3489   -0.4342 H   0  0  0  0  0  0  0  0  0  0  0  0
    0.4688   -0.4751   -1.5189 H   0  0  0  0  0  0  0  0  0  0  0  0
    0.0191    0.9620    1.2706 H   0  0  0  0  0  0  0  0  0  0  0  0
   -2.4471    0.9742    0.9306 H   0  0  0  0  0  0  0  0  0  0  0  0
   -1.9716    2.5364   -0.5595 H   0  0  0  0  0  0  0  0  0  0  0  0
   -2.0560   -0.9314   -1.3972 H   0  0  0  0  0  0  0  0  0  0  0  0
   -2.8406   -1.2286    0.2092 H   0  0  0  0  0  0  0  0  0  0  0  0
   -1.3724   -2.0563    1.7613 H   0  0  0  0  0  0  0  0  0  0  0  0
  1  2  1  0
  2  3  1  0
  3  4  1  0
  4  5  1  0
  5  6  1  0
  5  7  1  0
  7  8  1  0
  8  9  1  0
  8  3  1  0
  8  4  1  0
  1 10  1  0
  1 11  1  0
  1 12  1  0
  2 13  1  0
  2 14  1  0
  3 15  1  0
  4 16  1  0
  5 17  1  0
  6 18  1  0
  7 19  1  0
  7 20  1  0
  9 21  1  0
M  END
