
     RDKit          3D

 25 25  0  0  0  0  0  0  0  0999 V2000
    3.0053    0.5447    0.5596 C   0  0  0  0  0  0  0  0  0  0  0  0
    2.4957   -0.2381   -0.5979 C   0  0  0  0  0  0  0  0  0  0  0  0
    1.0200   -0.4105   -0.6493 C   0  0  0  0  0  0  0  0  0  0  0  0
    0.3709   -1.1105    0.5071 C   0  0  0  0  0  0  0  0  0  0  0  0
   -0.7556   -0.0908    0.4239 C   0  0  0  0  0  0  0  0  0  0  0  0
   -1.9042   -0.6648   -0.3518 C   0  0  0  0  0  0  0  0  0  0  0  0
   -3.0637    0.2788   -0.4828 C   0  0  0  0  0  0  0  0  0  0  0  0
   -3.5396    0.6116    0.7872 O   0  0  0  0  0  0  0  0  0  0  0  0
    0.1820    0.8032   -0.3493 C   0  0  0  0  0  0  0  0  0  0  0  0
    2.2769    0.7350    1.3508 H   0  0  0  0  0  0  0  0  0  0  0  0
    3.9094    0.0250    0.9952 H   0  0  0  0  0  0  0  0  0  0  0  0
    3.4006    1.5412    0.2323 H   0  0  0  0  0  0  0  0  0  0  0  0
    2.9496   -1.2716   -0.5797 H   0  0  0  0  0  0  0  0  0  0  0  0
    2.8313    0.2218   -1.5387 H   0  0  0  0  0  0  0  0  0  0  0  0
    0.7104   -0.8481   -1.6216 H   0  0  0  0  0  0  0  0  0  0  0  0
    0.9147   -1.0821    1.4671 H   0  0  0  0  0  0  0  0  0  0  0  0
    0.0801   -2.1460    0.2690 H   0  0  0  0  0  0  0  0  0  0  0  0
   -1.0315    0.3556    1.3932 H   0  0  0  0  0  0  0  0  0  0  0  0
   -2.2519   -1.5726    0.1723 H   0  0  0  0  0  0  0  0  0  0  0  0
   -1.5893   -0.9648   -1.3553 H   0  0  0  0  0  0  0  0  0  0  0  0
   -2.8653    1.1552   -1.1081 H   0  0  0  0  0  0  0  0  0  0  0  0
   -3.8856   -0.2894   -0.9878 H   0  0  0  0  0  0  0  0  0  0  0  0
   -3.7305    1.6001    0.8381 H   0  0  0  0  0  0  0  0  0  0  0  0
    0.7344    1.5172    0.2692 H   0  0  0  0  0  0  0  0  0  0  0  0
   -0.2641    1.3001   -1.2383 H   0  0  0  0  0  0  0  0  0  0  0  0
  1  2  1  0
  2  3  1  0
  3  4  1  0
  4  5  1  0
  5  6  1  0
  6  7  1  0
  7  8  1  0
  5  9  1  0
  9  3  1  0
  1 10  1  0
  1 11  1  0
  1 12  1  0
  2 13  1  0
  2 14  1  0
  3 15  1  0
  4 16  1  0
  4 17  1  0
  5 18  1  0
  6 19  1  0
  6 20  1  0
  7 21  1  0
  7 22  1  0
  8 23  1  0
  9 24  1  0
  9 25  1  0
M  END
