
     RDKit          3D

 21 21  0  0  0  0  0  0  0  0999 V2000
    2.9167   -0.7321   -0.0013 C   0  0  0  0  0  0  0  0  0  0  0  0
    2.0290    0.4615    0.1481 C   0  0  0  0  0  0  0  0  0  0  0  0
    0.5920    0.1498    0.0904 C   0  0  0  0  0  0  0  0  0  0  0  0
   -0.2657    0.3905    1.0571 C   0  0  0  0  0  0  0  0  0  0  0  0
   -1.6226   -0.0547    0.6491 C   0  0  0  0  0  0  0  0  0  0  0  0
   -2.5211    1.0892    0.2812 C   0  0  0  0  0  0  0  0  0  0  0  0
   -1.4035   -0.8962   -0.5863 C   0  0  0  0  0  0  0  0  0  0  0  0
   -0.0649   -0.4749   -1.0700 C   0  0  0  0  0  0  0  0  0  0  0  0
    0.4220   -0.6144   -2.2252 O   0  0  0  0  0  0  0  0  0  0  0  0
    3.9659   -0.3793    0.0520 H   0  0  0  0  0  0  0  0  0  0  0  0
    2.8072   -1.2632   -0.9571 H   0  0  0  0  0  0  0  0  0  0  0  0
    2.6932   -1.4657    0.8003 H   0  0  0  0  0  0  0  0  0  0  0  0
    2.2328    1.2334   -0.6164 H   0  0  0  0  0  0  0  0  0  0  0  0
    2.2561    0.9250    1.1273 H   0  0  0  0  0  0  0  0  0  0  0  0
   -0.0957    0.8425    2.0374 H   0  0  0  0  0  0  0  0  0  0  0  0
   -2.0200   -0.6971    1.4493 H   0  0  0  0  0  0  0  0  0  0  0  0
   -2.5833    1.2335   -0.8183 H   0  0  0  0  0  0  0  0  0  0  0  0
   -2.1675    2.0466    0.7585 H   0  0  0  0  0  0  0  0  0  0  0  0
   -3.5652    0.8513    0.6065 H   0  0  0  0  0  0  0  0  0  0  0  0
   -1.4475   -1.9805   -0.3754 H   0  0  0  0  0  0  0  0  0  0  0  0
   -2.1577   -0.6653   -1.3857 H   0  0  0  0  0  0  0  0  0  0  0  0
  1  2  1  0
  2  3  1  0
  3  4  2  0
  4  5  1  0
  5  6  1  0
  5  7  1  0
  7  8  1  0
  8  9  2  0
  8  3  1  0
  1 10  1  0
  1 11  1  0
  1 12  1  0
  2 13  1  0
  2 14  1  0
  4 15  1  0
  5 16  1  0
  6 17  1  0
  6 18  1  0
  6 19  1  0
  7 20  1  0
  7 21  1  0
M  END
