
     RDKit          3D

 18 18  0  0  0  0  0  0  0  0999 V2000
   -2.3935    0.7072    0.0642 C   0  0  0  0  0  0  0  0  0  0  0  0
   -1.4428   -0.4305   -0.0889 C   0  0  0  0  0  0  0  0  0  0  0  0
   -0.0318   -0.0150   -0.3773 C   0  0  0  0  0  0  0  0  0  0  0  0
    0.9160   -1.2179   -0.5279 C   0  0  0  0  0  0  0  0  0  0  0  0
    1.0631   -0.1761    0.5729 C   0  0  0  0  0  0  0  0  0  0  0  0
    2.2938    0.7007    0.4003 C   0  0  0  0  0  0  0  0  0  0  0  0
   -2.5030    1.2361   -0.9141 H   0  0  0  0  0  0  0  0  0  0  0  0
   -3.3955    0.2852    0.2854 H   0  0  0  0  0  0  0  0  0  0  0  0
   -2.1481    1.3911    0.8856 H   0  0  0  0  0  0  0  0  0  0  0  0
   -1.7948   -1.0341   -0.9744 H   0  0  0  0  0  0  0  0  0  0  0  0
   -1.5245   -1.1105    0.7840 H   0  0  0  0  0  0  0  0  0  0  0  0
    0.0570    0.8016   -1.1207 H   0  0  0  0  0  0  0  0  0  0  0  0
    1.6061   -1.1874   -1.3898 H   0  0  0  0  0  0  0  0  0  0  0  0
    0.5857   -2.1951   -0.1722 H   0  0  0  0  0  0  0  0  0  0  0  0
    0.8961   -0.4826    1.6188 H   0  0  0  0  0  0  0  0  0  0  0  0
    3.1237    0.1171   -0.0973 H   0  0  0  0  0  0  0  0  0  0  0  0
    2.6540    1.1079    1.3631 H   0  0  0  0  0  0  0  0  0  0  0  0
    2.0383    1.5021   -0.3115 H   0  0  0  0  0  0  0  0  0  0  0  0
  1  2  1  0
  2  3  1  0
  3  4  1  0
  4  5  1  0
  5  6  1  0
  5  3  1  0
  1  7  1  0
  1  8  1  0
  1  9  1  0
  2 10  1  0
  2 11  1  0
  3 12  1  0
  4 13  1  0
  4 14  1  0
  5 15  1  0
  6 16  1  0
  6 17  1  0
  6 18  1  0
M  END
