
     RDKit          3D

 23 24  0  0  0  0  0  0  0  0999 V2000
    2.5951    0.4134    0.0482 C   0  0  0  0  0  0  0  0  0  0  0  0
    1.3196    0.3788   -0.8055 C   0  0  0  0  0  0  0  0  0  0  0  0
    0.1880   -0.2488   -0.0476 C   0  0  0  0  0  0  0  0  0  0  0  0
    0.5208   -1.6732    0.3525 C   0  0  0  0  0  0  0  0  0  0  0  0
   -0.0758    0.5252    1.1063 O   0  0  0  0  0  0  0  0  0  0  0  0
   -1.3779    0.9097    0.9418 C   0  0  0  0  0  0  0  0  0  0  0  0
   -2.0524   -0.4071    0.5186 C   0  0  0  0  0  0  0  0  0  0  0  0
   -1.1348   -0.1978   -0.7020 C   0  0  0  0  0  0  0  0  0  0  0  0
   -1.5292    1.2594   -0.5464 C   0  0  0  0  0  0  0  0  0  0  0  0
    3.4185   -0.1550   -0.4212 H   0  0  0  0  0  0  0  0  0  0  0  0
    2.9260    1.4525    0.2151 H   0  0  0  0  0  0  0  0  0  0  0  0
    2.3953   -0.0933    1.0261 H   0  0  0  0  0  0  0  0  0  0  0  0
    1.0537    1.4037   -1.0985 H   0  0  0  0  0  0  0  0  0  0  0  0
    1.5848   -0.1780   -1.7278 H   0  0  0  0  0  0  0  0  0  0  0  0
    1.5792   -1.8885    0.0959 H   0  0  0  0  0  0  0  0  0  0  0  0
   -0.1469   -2.3830   -0.1644 H   0  0  0  0  0  0  0  0  0  0  0  0
    0.3843   -1.7752    1.4287 H   0  0  0  0  0  0  0  0  0  0  0  0
   -1.8870    1.5156    1.6455 H   0  0  0  0  0  0  0  0  0  0  0  0
   -3.1274   -0.2516    0.2875 H   0  0  0  0  0  0  0  0  0  0  0  0
   -1.7937   -1.2693    1.1328 H   0  0  0  0  0  0  0  0  0  0  0  0
   -1.3674   -0.7114   -1.5854 H   0  0  0  0  0  0  0  0  0  0  0  0
   -2.6091    1.3610   -0.7630 H   0  0  0  0  0  0  0  0  0  0  0  0
   -0.8637    2.0128   -0.9373 H   0  0  0  0  0  0  0  0  0  0  0  0
  1  2  1  0
  2  3  1  0
  3  4  1  0
  3  5  1  0
  5  6  1  0
  6  7  1  0
  7  8  1  0
  8  9  1  0
  8  3  1  0
  9  6  1  0
  1 10  1  0
  1 11  1  0
  1 12  1  0
  2 13  1  0
  2 14  1  0
  4 15  1  0
  4 16  1  0
  4 17  1  0
  6 18  1  0
  7 19  1  0
  7 20  1  0
  8 21  1  0
  9 22  1  0
  9 23  1  0
M  END
