
     RDKit          3D

 23 23  0  0  0  0  0  0  0  0999 V2000
   -1.6742   -1.6459   -0.6937 C   0  0  0  0  0  0  0  0  0  0  0  0
   -1.1589   -0.8733    0.4986 C   0  0  0  0  0  0  0  0  0  0  0  0
   -0.2357    0.2514    0.1061 C   0  0  0  0  0  0  0  0  0  0  0  0
    1.0167   -0.0470   -0.6364 C   0  0  0  0  0  0  0  0  0  0  0  0
    1.9662   -0.9593    0.0957 C   0  0  0  0  0  0  0  0  0  0  0  0
    2.3224   -0.3631    1.2859 O   0  0  0  0  0  0  0  0  0  0  0  0
   -0.2173    1.4327    1.1002 C   0  0  0  0  0  0  0  0  0  0  0  0
   -0.8542    1.6016   -0.2340 C   0  0  0  0  0  0  0  0  0  0  0  0
   -0.2147    2.4037   -1.1563 O   0  0  0  0  0  0  0  0  0  0  0  0
   -2.3560   -2.4271   -0.2929 H   0  0  0  0  0  0  0  0  0  0  0  0
   -2.3229   -0.9428   -1.2685 H   0  0  0  0  0  0  0  0  0  0  0  0
   -0.8358   -2.0461   -1.2771 H   0  0  0  0  0  0  0  0  0  0  0  0
   -2.0490   -0.4744    1.0270 H   0  0  0  0  0  0  0  0  0  0  0  0
   -0.6375   -1.5283    1.2173 H   0  0  0  0  0  0  0  0  0  0  0  0
    0.7265   -0.5705   -1.5919 H   0  0  0  0  0  0  0  0  0  0  0  0
    1.5275    0.9019   -0.8879 H   0  0  0  0  0  0  0  0  0  0  0  0
    2.8584   -1.0960   -0.5488 H   0  0  0  0  0  0  0  0  0  0  0  0
    1.4504   -1.9299    0.2289 H   0  0  0  0  0  0  0  0  0  0  0  0
    3.2037    0.0693    1.1605 H   0  0  0  0  0  0  0  0  0  0  0  0
    0.7445    1.9120    1.3034 H   0  0  0  0  0  0  0  0  0  0  0  0
   -0.9398    1.3822    1.9471 H   0  0  0  0  0  0  0  0  0  0  0  0
   -1.9639    1.5943   -0.3393 H   0  0  0  0  0  0  0  0  0  0  0  0
   -0.3562    3.3545   -1.0439 H   0  0  0  0  0  0  0  0  0  0  0  0
  1  2  1  0
  2  3  1  0
  3  4  1  0
  4  5  1  0
  5  6  1  0
  3  7  1  0
  7  8  1  0
  8  9  1  0
  8  3  1  0
  1 10  1  0
  1 11  1  0
  1 12  1  0
  2 13  1  0
  2 14  1  0
  4 15  1  0
  4 16  1  0
  5 17  1  0
  5 18  1  0
  6 19  1  0
  7 20  1  0
  7 21  1  0
  8 22  1  0
  9 23  1  0
M  END
