
     RDKit          3D

 21 22  0  0  0  0  0  0  0  0999 V2000
    2.4721   -0.6707    0.5928 C   0  0  0  0  0  0  0  0  0  0  0  0
    1.0673   -1.1076    0.2861 C   0  0  0  0  0  0  0  0  0  0  0  0
    0.2508    0.0459   -0.2607 C   0  0  0  0  0  0  0  0  0  0  0  0
    0.7883    0.5731   -1.4463 O   0  0  0  0  0  0  0  0  0  0  0  0
    0.5496    1.3801   -0.2911 C   0  0  0  0  0  0  0  0  0  0  0  0
   -0.7486    2.1455   -0.4206 C   0  0  0  0  0  0  0  0  0  0  0  0
   -1.7652    1.0724   -0.2439 C   0  0  0  0  0  0  0  0  0  0  0  0
   -1.2133   -0.1295   -0.1511 C   0  0  0  0  0  0  0  0  0  0  0  0
   -1.9681   -1.4144    0.0317 C   0  0  0  0  0  0  0  0  0  0  0  0
    2.9495   -1.4757    1.2216 H   0  0  0  0  0  0  0  0  0  0  0  0
    3.0497   -0.5460   -0.3660 H   0  0  0  0  0  0  0  0  0  0  0  0
    2.5155    0.2464    1.2200 H   0  0  0  0  0  0  0  0  0  0  0  0
    0.6066   -1.5407    1.1981 H   0  0  0  0  0  0  0  0  0  0  0  0
    1.1153   -1.8709   -0.5165 H   0  0  0  0  0  0  0  0  0  0  0  0
    1.4196    1.8530    0.1835 H   0  0  0  0  0  0  0  0  0  0  0  0
   -0.8900    2.5745   -1.4294 H   0  0  0  0  0  0  0  0  0  0  0  0
   -0.9005    2.8790    0.3820 H   0  0  0  0  0  0  0  0  0  0  0  0
   -2.8627    1.2217   -0.1914 H   0  0  0  0  0  0  0  0  0  0  0  0
   -2.2299   -1.5884    1.0962 H   0  0  0  0  0  0  0  0  0  0  0  0
   -2.8714   -1.3891   -0.5929 H   0  0  0  0  0  0  0  0  0  0  0  0
   -1.3348   -2.2588   -0.3020 H   0  0  0  0  0  0  0  0  0  0  0  0
  1  2  1  0
  2  3  1  0
  3  4  1  0
  4  5  1  0
  5  6  1  0
  6  7  1  0
  7  8  2  0
  8  9  1  0
  5  3  1  0
  8  3  1  0
  1 10  1  0
  1 11  1  0
  1 12  1  0
  2 13  1  0
  2 14  1  0
  5 15  1  0
  6 16  1  0
  6 17  1  0
  7 18  1  0
  9 19  1  0
  9 20  1  0
  9 21  1  0
M  END
