
     RDKit          3D

 23 24  0  0  0  0  0  0  0  0999 V2000
   -2.8676    0.6596   -0.0642 C   0  0  0  0  0  0  0  0  0  0  0  0
   -1.6705    0.2007   -0.8802 C   0  0  0  0  0  0  0  0  0  0  0  0
   -0.3931    0.3299   -0.0994 C   0  0  0  0  0  0  0  0  0  0  0  0
   -0.3073   -0.4504    1.1724 C   0  0  0  0  0  0  0  0  0  0  0  0
    1.0025   -1.0421    0.8066 C   0  0  0  0  0  0  0  0  0  0  0  0
    2.0451   -0.3492    0.0444 C   0  0  0  0  0  0  0  0  0  0  0  0
    2.4881    1.0520    0.3484 C   0  0  0  0  0  0  0  0  0  0  0  0
    0.7351   -0.5071   -0.6349 C   0  0  0  0  0  0  0  0  0  0  0  0
    0.5032   -1.4894   -1.5694 O   0  0  0  0  0  0  0  0  0  0  0  0
   -3.7688    0.2856   -0.5922 H   0  0  0  0  0  0  0  0  0  0  0  0
   -2.8308    1.7628   -0.0167 H   0  0  0  0  0  0  0  0  0  0  0  0
   -2.8565    0.2004    0.9331 H   0  0  0  0  0  0  0  0  0  0  0  0
   -1.5983    0.9117   -1.7374 H   0  0  0  0  0  0  0  0  0  0  0  0
   -1.8215   -0.8054   -1.3186 H   0  0  0  0  0  0  0  0  0  0  0  0
   -0.1629    1.4000    0.0669 H   0  0  0  0  0  0  0  0  0  0  0  0
   -1.1620   -1.1866    1.2107 H   0  0  0  0  0  0  0  0  0  0  0  0
   -0.3493    0.1425    2.1129 H   0  0  0  0  0  0  0  0  0  0  0  0
    1.0629   -2.1451    0.9087 H   0  0  0  0  0  0  0  0  0  0  0  0
    2.8596   -0.9857   -0.3606 H   0  0  0  0  0  0  0  0  0  0  0  0
    3.3996    1.0798    0.9883 H   0  0  0  0  0  0  0  0  0  0  0  0
    2.8198    1.5001   -0.6341 H   0  0  0  0  0  0  0  0  0  0  0  0
    1.7254    1.6933    0.7811 H   0  0  0  0  0  0  0  0  0  0  0  0
    1.1472   -2.2574   -1.4658 H   0  0  0  0  0  0  0  0  0  0  0  0
  1  2  1  0
  2  3  1  0
  3  4  1  0
  4  5  1  0
  5  6  1  0
  6  7  1  0
  6  8  1  0
  8  9  1  0
  8  3  1  0
  8  5  1  0
  1 10  1  0
  1 11  1  0
  1 12  1  0
  2 13  1  0
  2 14  1  0
  3 15  1  0
  4 16  1  0
  4 17  1  0
  5 18  1  0
  6 19  1  0
  7 20  1  0
  7 21  1  0
  7 22  1  0
  9 23  1  0
M  END
