
     RDKit          3D

 23 25  0  0  0  0  0  0  0  0999 V2000
    2.6919    0.4116    0.8446 C   0  0  0  0  0  0  0  0  0  0  0  0
    1.8821   -0.4743   -0.0927 C   0  0  0  0  0  0  0  0  0  0  0  0
    0.6105    0.2527   -0.4035 C   0  0  0  0  0  0  0  0  0  0  0  0
   -0.1556    0.5087    0.8761 C   0  0  0  0  0  0  0  0  0  0  0  0
   -1.4775   -0.2132    0.7348 C   0  0  0  0  0  0  0  0  0  0  0  0
   -2.3882    0.6053   -0.1778 C   0  0  0  0  0  0  0  0  0  0  0  0
   -1.7293   -0.0444   -1.3662 C   0  0  0  0  0  0  0  0  0  0  0  0
   -0.3242   -0.5378   -1.2831 C   0  0  0  0  0  0  0  0  0  0  0  0
   -1.2762   -1.1627   -0.3933 C   0  0  0  0  0  0  0  0  0  0  0  0
    3.6131    0.7749    0.3034 H   0  0  0  0  0  0  0  0  0  0  0  0
    3.0917   -0.1810    1.7053 H   0  0  0  0  0  0  0  0  0  0  0  0
    2.1153    1.2993    1.1792 H   0  0  0  0  0  0  0  0  0  0  0  0
    1.6313   -1.4115    0.4480 H   0  0  0  0  0  0  0  0  0  0  0  0
    2.4340   -0.6816   -1.0167 H   0  0  0  0  0  0  0  0  0  0  0  0
    0.8376    1.2118   -0.9411 H   0  0  0  0  0  0  0  0  0  0  0  0
    0.4077    0.2035    1.7784 H   0  0  0  0  0  0  0  0  0  0  0  0
   -0.3539    1.5997    0.9361 H   0  0  0  0  0  0  0  0  0  0  0  0
   -1.9335   -0.5892    1.6454 H   0  0  0  0  0  0  0  0  0  0  0  0
   -2.2136    1.6794   -0.0453 H   0  0  0  0  0  0  0  0  0  0  0  0
   -3.4502    0.3017   -0.0167 H   0  0  0  0  0  0  0  0  0  0  0  0
   -2.3205   -0.3403   -2.2380 H   0  0  0  0  0  0  0  0  0  0  0  0
    0.0505   -1.0877   -2.1390 H   0  0  0  0  0  0  0  0  0  0  0  0
   -1.7430   -2.1250   -0.4727 H   0  0  0  0  0  0  0  0  0  0  0  0
  1  2  1  0
  2  3  1  0
  3  4  1  0
  4  5  1  0
  5  6  1  0
  6  7  1  0
  7  8  1  0
  8  9  1  0
  8  3  1  0
  9  5  1  0
  9  7  1  0
  1 10  1  0
  1 11  1  0
  1 12  1  0
  2 13  1  0
  2 14  1  0
  3 15  1  0
  4 16  1  0
  4 17  1  0
  5 18  1  0
  6 19  1  0
  6 20  1  0
  7 21  1  0
  8 22  1  0
  9 23  1  0
M  END
