
     RDKit          3D

 18 18  0  0  0  0  0  0  0  0999 V2000
    2.2201    0.3081   -0.3352 C   0  0  0  0  0  0  0  0  0  0  0  0
    1.1903   -0.7684   -0.0206 C   0  0  0  0  0  0  0  0  0  0  0  0
   -0.0075   -0.0479    0.5475 C   0  0  0  0  0  0  0  0  0  0  0  0
   -1.1314   -0.9825    0.9161 C   0  0  0  0  0  0  0  0  0  0  0  0
   -2.2471   -0.1883    0.9217 O   0  0  0  0  0  0  0  0  0  0  0  0
   -2.1000    0.7822   -0.0585 C   0  0  0  0  0  0  0  0  0  0  0  0
   -0.6795    0.8034   -0.4500 C   0  0  0  0  0  0  0  0  0  0  0  0
   -0.1769    1.3799   -1.3699 O   0  0  0  0  0  0  0  0  0  0  0  0
    2.0943    1.1373    0.3932 H   0  0  0  0  0  0  0  0  0  0  0  0
    2.0714    0.7434   -1.3455 H   0  0  0  0  0  0  0  0  0  0  0  0
    3.2409   -0.1027   -0.1993 H   0  0  0  0  0  0  0  0  0  0  0  0
    0.9427   -1.3324   -0.9400 H   0  0  0  0  0  0  0  0  0  0  0  0
    1.6121   -1.5051    0.6898 H   0  0  0  0  0  0  0  0  0  0  0  0
    0.2649    0.5579    1.4100 H   0  0  0  0  0  0  0  0  0  0  0  0
   -0.9901   -1.4646    1.9059 H   0  0  0  0  0  0  0  0  0  0  0  0
   -1.2115   -1.7463    0.1062 H   0  0  0  0  0  0  0  0  0  0  0  0
   -2.3016    1.7736    0.4402 H   0  0  0  0  0  0  0  0  0  0  0  0
   -2.7912    0.6523   -0.9096 H   0  0  0  0  0  0  0  0  0  0  0  0
  1  2  1  0
  2  3  1  0
  3  4  1  0
  4  5  1  0
  5  6  1  0
  6  7  1  0
  7  8  2  0
  7  3  1  0
  1  9  1  0
  1 10  1  0
  1 11  1  0
  2 12  1  0
  2 13  1  0
  3 14  1  0
  4 15  1  0
  4 16  1  0
  6 17  1  0
  6 18  1  0
M  END
