
     RDKit          3D

 27 27  0  0  0  0  0  0  0  0999 V2000
   -2.3663   -1.1114   -0.4019 C   0  0  0  0  0  0  0  0  0  0  0  0
   -1.1917   -1.1254    0.4992 C   0  0  0  0  0  0  0  0  0  0  0  0
   -0.1877   -0.0526    0.3468 C   0  0  0  0  0  0  0  0  0  0  0  0
   -0.6428    1.3400    0.5474 C   0  0  0  0  0  0  0  0  0  0  0  0
   -1.7092    1.8538   -0.3498 C   0  0  0  0  0  0  0  0  0  0  0  0
    0.8330   -0.2265   -0.7615 C   0  0  0  0  0  0  0  0  0  0  0  0
    1.8782    0.2000    0.2142 C   0  0  0  0  0  0  0  0  0  0  0  0
    3.1724   -0.5648    0.1932 C   0  0  0  0  0  0  0  0  0  0  0  0
    0.9800   -0.3353    1.3097 C   0  0  0  0  0  0  0  0  0  0  0  0
   -3.0787   -0.3340   -0.1025 H   0  0  0  0  0  0  0  0  0  0  0  0
   -2.0309   -1.0375   -1.4556 H   0  0  0  0  0  0  0  0  0  0  0  0
   -2.8512   -2.1327   -0.3044 H   0  0  0  0  0  0  0  0  0  0  0  0
   -0.7393   -2.1579    0.4616 H   0  0  0  0  0  0  0  0  0  0  0  0
   -1.5838   -1.0678    1.5597 H   0  0  0  0  0  0  0  0  0  0  0  0
   -1.0531    1.4060    1.5918 H   0  0  0  0  0  0  0  0  0  0  0  0
    0.2087    2.0650    0.5422 H   0  0  0  0  0  0  0  0  0  0  0  0
   -1.4153    2.9059   -0.6536 H   0  0  0  0  0  0  0  0  0  0  0  0
   -2.6882    1.9925    0.1613 H   0  0  0  0  0  0  0  0  0  0  0  0
   -1.8445    1.3283   -1.3019 H   0  0  0  0  0  0  0  0  0  0  0  0
    0.6860    0.4724   -1.5835 H   0  0  0  0  0  0  0  0  0  0  0  0
    0.9529   -1.2567   -1.1317 H   0  0  0  0  0  0  0  0  0  0  0  0
    2.0677    1.2931    0.2485 H   0  0  0  0  0  0  0  0  0  0  0  0
    4.0047    0.1051   -0.1069 H   0  0  0  0  0  0  0  0  0  0  0  0
    3.4058   -0.9763    1.2015 H   0  0  0  0  0  0  0  0  0  0  0  0
    3.1044   -1.4406   -0.4894 H   0  0  0  0  0  0  0  0  0  0  0  0
    0.9538    0.2726    2.2305 H   0  0  0  0  0  0  0  0  0  0  0  0
    1.1354   -1.4155    1.4339 H   0  0  0  0  0  0  0  0  0  0  0  0
  1  2  1  0
  2  3  1  0
  3  4  1  0
  4  5  1  0
  3  6  1  0
  6  7  1  0
  7  8  1  0
  7  9  1  0
  9  3  1  0
  1 10  1  0
  1 11  1  0
  1 12  1  0
  2 13  1  0
  2 14  1  0
  4 15  1  0
  4 16  1  0
  5 17  1  0
  5 18  1  0
  5 19  1  0
  6 20  1  0
  6 21  1  0
  7 22  1  0
  8 23  1  0
  8 24  1  0
  8 25  1  0
  9 26  1  0
  9 27  1  0
M  END
