
     RDKit          3D

 25 25  0  0  0  0  0  0  0  0999 V2000
   -2.1624   -1.0687   -1.2592 C   0  0  0  0  0  0  0  0  0  0  0  0
   -2.1541   -0.0527   -0.1578 C   0  0  0  0  0  0  0  0  0  0  0  0
   -0.7829    0.2991    0.3456 C   0  0  0  0  0  0  0  0  0  0  0  0
   -0.8951    1.3322    1.4566 C   0  0  0  0  0  0  0  0  0  0  0  0
    0.1509   -0.8340    0.6009 C   0  0  0  0  0  0  0  0  0  0  0  0
    1.2076   -0.1395   -0.1966 C   0  0  0  0  0  0  0  0  0  0  0  0
    2.2885    0.3501    0.4419 O   0  0  0  0  0  0  0  0  0  0  0  0
    3.5225   -0.0147   -0.0220 C   0  0  0  0  0  0  0  0  0  0  0  0
    0.1695    0.7947   -0.7217 C   0  0  0  0  0  0  0  0  0  0  0  0
   -1.8050   -2.0812   -0.9235 H   0  0  0  0  0  0  0  0  0  0  0  0
   -1.7162   -0.7458   -2.1993 H   0  0  0  0  0  0  0  0  0  0  0  0
   -3.2552   -1.2485   -1.4931 H   0  0  0  0  0  0  0  0  0  0  0  0
   -2.7670   -0.4619    0.6720 H   0  0  0  0  0  0  0  0  0  0  0  0
   -2.7066    0.8338   -0.5329 H   0  0  0  0  0  0  0  0  0  0  0  0
   -1.0111    2.3190    0.9688 H   0  0  0  0  0  0  0  0  0  0  0  0
    0.0631    1.3010    2.0057 H   0  0  0  0  0  0  0  0  0  0  0  0
   -1.7402    1.1137    2.1369 H   0  0  0  0  0  0  0  0  0  0  0  0
   -0.1324   -1.8092    0.2051 H   0  0  0  0  0  0  0  0  0  0  0  0
    0.3668   -0.9445    1.6915 H   0  0  0  0  0  0  0  0  0  0  0  0
    1.5545   -0.8001   -1.0476 H   0  0  0  0  0  0  0  0  0  0  0  0
    3.7479    0.2566   -1.0476 H   0  0  0  0  0  0  0  0  0  0  0  0
    4.3548    0.3101    0.6344 H   0  0  0  0  0  0  0  0  0  0  0  0
    3.5597   -1.1453    0.0160 H   0  0  0  0  0  0  0  0  0  0  0  0
   -0.2325    0.5630   -1.7262 H   0  0  0  0  0  0  0  0  0  0  0  0
    0.3749    1.8726   -0.6563 H   0  0  0  0  0  0  0  0  0  0  0  0
  1  2  1  0
  2  3  1  0
  3  4  1  0
  3  5  1  0
  5  6  1  0
  6  7  1  0
  7  8  1  0
  6  9  1  0
  9  3  1  0
  1 10  1  0
  1 11  1  0
  1 12  1  0
  2 13  1  0
  2 14  1  0
  4 15  1  0
  4 16  1  0
  4 17  1  0
  5 18  1  0
  5 19  1  0
  6 20  1  0
  8 21  1  0
  8 22  1  0
  8 23  1  0
  9 24  1  0
  9 25  1  0
M  END
