
     RDKit          3D

 19 20  0  0  0  0  0  0  0  0999 V2000
   -2.2899   -0.4398   -0.5452 C   0  0  0  0  0  0  0  0  0  0  0  0
   -1.2970    0.3733    0.2362 C   0  0  0  0  0  0  0  0  0  0  0  0
    0.0918    0.1428   -0.0562 C   0  0  0  0  0  0  0  0  0  0  0  0
    1.1409    0.8947    0.6616 C   0  0  0  0  0  0  0  0  0  0  0  0
    2.2722    0.4538    0.0730 C   0  0  0  0  0  0  0  0  0  0  0  0
    1.7498   -0.5051   -0.9285 C   0  0  0  0  0  0  0  0  0  0  0  0
    0.5803    0.3137   -1.5042 C   0  0  0  0  0  0  0  0  0  0  0  0
    0.6790   -1.1907   -0.1554 C   0  0  0  0  0  0  0  0  0  0  0  0
    0.4070   -2.3046    0.2194 O   0  0  0  0  0  0  0  0  0  0  0  0
   -3.1603   -0.6339    0.1158 H   0  0  0  0  0  0  0  0  0  0  0  0
   -1.9018   -1.4190   -0.8698 H   0  0  0  0  0  0  0  0  0  0  0  0
   -2.7095    0.1390   -1.4144 H   0  0  0  0  0  0  0  0  0  0  0  0
   -1.5428    1.4530   -0.0019 H   0  0  0  0  0  0  0  0  0  0  0  0
   -1.4967    0.2900    1.3249 H   0  0  0  0  0  0  0  0  0  0  0  0
    0.9858    1.6079    1.4531 H   0  0  0  0  0  0  0  0  0  0  0  0
    3.2658    0.7732    0.3300 H   0  0  0  0  0  0  0  0  0  0  0  0
    2.3727   -1.0285   -1.5829 H   0  0  0  0  0  0  0  0  0  0  0  0
    0.0310   -0.2720   -2.2371 H   0  0  0  0  0  0  0  0  0  0  0  0
    0.8217    1.3522   -1.7315 H   0  0  0  0  0  0  0  0  0  0  0  0
  1  2  1  0
  2  3  1  0
  3  4  1  0
  4  5  2  0
  5  6  1  0
  6  7  1  0
  6  8  1  0
  8  9  2  0
  7  3  1  0
  8  3  1  0
  1 10  1  0
  1 11  1  0
  1 12  1  0
  2 13  1  0
  2 14  1  0
  4 15  1  0
  5 16  1  0
  6 17  1  0
  7 18  1  0
  7 19  1  0
M  END
