
     RDKit          3D

 19 19  0  0  0  0  0  0  0  0999 V2000
   -2.5720    0.1372   -0.0497 C   0  0  0  0  0  0  0  0  0  0  0  0
   -1.7198   -1.1233   -0.1364 C   0  0  0  0  0  0  0  0  0  0  0  0
   -0.2495   -0.7995   -0.1624 C   0  0  0  0  0  0  0  0  0  0  0  0
    0.0529   -0.0634    1.1189 O   0  0  0  0  0  0  0  0  0  0  0  0
    0.2497    0.5002   -0.2133 C   0  0  0  0  0  0  0  0  0  0  0  0
    1.6843    0.8337   -0.4424 C   0  0  0  0  0  0  0  0  0  0  0  0
    2.6138    0.2639    0.6058 C   0  0  0  0  0  0  0  0  0  0  0  0
   -3.5700   -0.1037    0.4168 H   0  0  0  0  0  0  0  0  0  0  0  0
   -2.1084    0.8746    0.6263 H   0  0  0  0  0  0  0  0  0  0  0  0
   -2.7836    0.5421   -1.0567 H   0  0  0  0  0  0  0  0  0  0  0  0
   -2.0309   -1.7837   -0.9409 H   0  0  0  0  0  0  0  0  0  0  0  0
   -1.9087   -1.6724    0.8286 H   0  0  0  0  0  0  0  0  0  0  0  0
    0.3917   -1.6964   -0.2574 H   0  0  0  0  0  0  0  0  0  0  0  0
   -0.4486    1.3487   -0.4581 H   0  0  0  0  0  0  0  0  0  0  0  0
    2.0505    0.5062   -1.4303 H   0  0  0  0  0  0  0  0  0  0  0  0
    1.8050    1.9323   -0.3847 H   0  0  0  0  0  0  0  0  0  0  0  0
    3.5221    0.8731    0.6257 H   0  0  0  0  0  0  0  0  0  0  0  0
    2.8798   -0.7643    0.2814 H   0  0  0  0  0  0  0  0  0  0  0  0
    2.1418    0.1948    1.5958 H   0  0  0  0  0  0  0  0  0  0  0  0
  1  2  1  0
  2  3  1  0
  3  4  1  0
  4  5  1  0
  5  6  1  0
  6  7  1  0
  5  3  1  0
  1  8  1  0
  1  9  1  0
  1 10  1  0
  2 11  1  0
  2 12  1  0
  3 13  1  0
  5 14  1  0
  6 15  1  0
  6 16  1  0
  7 17  1  0
  7 18  1  0
  7 19  1  0
M  END
