
     RDKit          3D

 18 18  0  0  0  0  0  0  0  0999 V2000
   -2.4107    0.0702    0.2700 C   0  0  0  0  0  0  0  0  0  0  0  0
   -1.4153   -0.0991   -0.8608 C   0  0  0  0  0  0  0  0  0  0  0  0
   -0.0232    0.0654   -0.4129 C   0  0  0  0  0  0  0  0  0  0  0  0
    0.8311    0.9701   -0.8556 C   0  0  0  0  0  0  0  0  0  0  0  0
    2.1217    0.8364   -0.1849 C   0  0  0  0  0  0  0  0  0  0  0  0
    3.1308    1.5656   -0.2836 O   0  0  0  0  0  0  0  0  0  0  0  0
    2.0631   -0.3638    0.6861 C   0  0  0  0  0  0  0  0  0  0  0  0
    0.6163   -0.7902    0.6239 C   0  0  0  0  0  0  0  0  0  0  0  0
   -2.0897   -0.4781    1.1686 H   0  0  0  0  0  0  0  0  0  0  0  0
   -2.5960    1.1407    0.5021 H   0  0  0  0  0  0  0  0  0  0  0  0
   -3.3584   -0.3987   -0.0703 H   0  0  0  0  0  0  0  0  0  0  0  0
   -1.6715    0.6686   -1.6193 H   0  0  0  0  0  0  0  0  0  0  0  0
   -1.6057   -1.1206   -1.2906 H   0  0  0  0  0  0  0  0  0  0  0  0
    0.6559    1.7308   -1.6094 H   0  0  0  0  0  0  0  0  0  0  0  0
    2.3123   -0.0332    1.7070 H   0  0  0  0  0  0  0  0  0  0  0  0
    2.7458   -1.1582    0.3449 H   0  0  0  0  0  0  0  0  0  0  0  0
    0.5874   -1.8606    0.2975 H   0  0  0  0  0  0  0  0  0  0  0  0
    0.1060   -0.7451    1.5875 H   0  0  0  0  0  0  0  0  0  0  0  0
  1  2  1  0
  2  3  1  0
  3  4  2  0
  4  5  1  0
  5  6  2  0
  5  7  1  0
  7  8  1  0
  8  3  1  0
  1  9  1  0
  1 10  1  0
  1 11  1  0
  2 12  1  0
  2 13  1  0
  4 14  1  0
  7 15  1  0
  7 16  1  0
  8 17  1  0
  8 18  1  0
M  END
