
     RDKit          3D

 25 26  0  0  0  0  0  0  0  0999 V2000
    2.8216   -0.0635   -0.0474 C   0  0  0  0  0  0  0  0  0  0  0  0
    1.6618    0.2447   -0.9507 C   0  0  0  0  0  0  0  0  0  0  0  0
    0.4290   -0.5795   -0.6200 C   0  0  0  0  0  0  0  0  0  0  0  0
   -0.0960   -0.3824    0.7715 C   0  0  0  0  0  0  0  0  0  0  0  0
   -0.7245   -1.6898    1.2704 C   0  0  0  0  0  0  0  0  0  0  0  0
   -1.1920    0.4806    0.1933 C   0  0  0  0  0  0  0  0  0  0  0  0
   -1.2962    1.9191    0.5415 C   0  0  0  0  0  0  0  0  0  0  0  0
   -2.1499   -0.2245   -0.6751 C   0  0  0  0  0  0  0  0  0  0  0  0
   -0.8006    0.0483   -1.1832 C   0  0  0  0  0  0  0  0  0  0  0  0
    3.7493    0.1183   -0.6305 H   0  0  0  0  0  0  0  0  0  0  0  0
    2.8028    0.6089    0.8186 H   0  0  0  0  0  0  0  0  0  0  0  0
    2.8322   -1.1189    0.2854 H   0  0  0  0  0  0  0  0  0  0  0  0
    1.9548    0.1369   -2.0087 H   0  0  0  0  0  0  0  0  0  0  0  0
    1.4110    1.3314   -0.8146 H   0  0  0  0  0  0  0  0  0  0  0  0
    0.6102   -1.6440   -0.9078 H   0  0  0  0  0  0  0  0  0  0  0  0
    0.5661    0.1016    1.4931 H   0  0  0  0  0  0  0  0  0  0  0  0
   -1.7064   -1.4807    1.7571 H   0  0  0  0  0  0  0  0  0  0  0  0
   -0.9350   -2.3783    0.4099 H   0  0  0  0  0  0  0  0  0  0  0  0
   -0.0065   -2.1727    1.9420 H   0  0  0  0  0  0  0  0  0  0  0  0
   -0.2755    2.3024    0.8259 H   0  0  0  0  0  0  0  0  0  0  0  0
   -1.9547    2.0698    1.4226 H   0  0  0  0  0  0  0  0  0  0  0  0
   -1.6474    2.5278   -0.3230 H   0  0  0  0  0  0  0  0  0  0  0  0
   -2.4086   -1.2865   -0.4857 H   0  0  0  0  0  0  0  0  0  0  0  0
   -2.9709    0.3605   -1.0873 H   0  0  0  0  0  0  0  0  0  0  0  0
   -0.6747    0.7704   -1.9973 H   0  0  0  0  0  0  0  0  0  0  0  0
  1  2  1  0
  2  3  1  0
  3  4  1  0
  4  5  1  0
  4  6  1  0
  6  7  1  0
  6  8  1  0
  8  9  1  0
  9  3  1  0
  9  6  1  0
  1 10  1  0
  1 11  1  0
  1 12  1  0
  2 13  1  0
  2 14  1  0
  3 15  1  0
  4 16  1  0
  5 17  1  0
  5 18  1  0
  5 19  1  0
  7 20  1  0
  7 21  1  0
  7 22  1  0
  8 23  1  0
  8 24  1  0
  9 25  1  0
M  END
