
     RDKit          3D

 21 23  0  0  0  0  0  0  0  0999 V2000
    1.8940    1.2086   -0.3340 C   0  0  0  0  0  0  0  0  0  0  0  0
    1.3430    0.0237    0.4544 C   0  0  0  0  0  0  0  0  0  0  0  0
    0.1067   -0.4321   -0.1962 C   0  0  0  0  0  0  0  0  0  0  0  0
   -1.0968    0.3735   -0.3973 C   0  0  0  0  0  0  0  0  0  0  0  0
   -1.3351    1.6732    0.2928 C   0  0  0  0  0  0  0  0  0  0  0  0
   -1.1283   -0.8384    0.4888 C   0  0  0  0  0  0  0  0  0  0  0  0
   -0.9962   -2.2053   -0.1849 C   0  0  0  0  0  0  0  0  0  0  0  0
    0.1856   -2.9174    0.0231 O   0  0  0  0  0  0  0  0  0  0  0  0
    0.1273   -1.7998   -0.8472 C   0  0  0  0  0  0  0  0  0  0  0  0
    1.5345    2.1341    0.1438 H   0  0  0  0  0  0  0  0  0  0  0  0
    1.5390    1.1448   -1.4049 H   0  0  0  0  0  0  0  0  0  0  0  0
    2.9986    1.1558   -0.4000 H   0  0  0  0  0  0  0  0  0  0  0  0
    2.1231   -0.7649    0.3923 H   0  0  0  0  0  0  0  0  0  0  0  0
    1.2407    0.3289    1.5123 H   0  0  0  0  0  0  0  0  0  0  0  0
   -1.5710    0.3190   -1.4185 H   0  0  0  0  0  0  0  0  0  0  0  0
   -1.2872    2.5486   -0.3871 H   0  0  0  0  0  0  0  0  0  0  0  0
   -2.3563    1.6180    0.7711 H   0  0  0  0  0  0  0  0  0  0  0  0
   -0.6387    1.8788    1.1296 H   0  0  0  0  0  0  0  0  0  0  0  0
   -1.3038   -0.7723    1.5555 H   0  0  0  0  0  0  0  0  0  0  0  0
   -1.9037   -2.7416   -0.4726 H   0  0  0  0  0  0  0  0  0  0  0  0
    0.5246   -1.9354   -1.8495 H   0  0  0  0  0  0  0  0  0  0  0  0
  1  2  1  0
  2  3  1  0
  3  4  1  0
  4  5  1  0
  4  6  1  0
  6  7  1  0
  7  8  1  0
  8  9  1  0
  6  3  1  0
  9  7  1  0
  9  3  1  0
  1 10  1  0
  1 11  1  0
  1 12  1  0
  2 13  1  0
  2 14  1  0
  4 15  1  0
  5 16  1  0
  5 17  1  0
  5 18  1  0
  6 19  1  0
  7 20  1  0
  9 21  1  0
M  END
