
     RDKit          3D

 19 20  0  0  0  0  0  0  0  0999 V2000
    2.7001    0.3408   -0.2208 C   0  0  0  0  0  0  0  0  0  0  0  0
    1.6338    0.1127    0.7886 C   0  0  0  0  0  0  0  0  0  0  0  0
    0.3259   -0.2389    0.2379 C   0  0  0  0  0  0  0  0  0  0  0  0
   -0.1541   -0.4094   -0.9940 C   0  0  0  0  0  0  0  0  0  0  0  0
   -1.5975   -0.7352   -0.6748 C   0  0  0  0  0  0  0  0  0  0  0  0
   -1.4789   -1.6001    0.4158 O   0  0  0  0  0  0  0  0  0  0  0  0
   -0.8929   -0.5130    1.0586 C   0  0  0  0  0  0  0  0  0  0  0  0
   -1.9129    0.3495    0.3165 C   0  0  0  0  0  0  0  0  0  0  0  0
   -3.1738    0.3616    0.8492 O   0  0  0  0  0  0  0  0  0  0  0  0
    2.2664    0.2631   -1.2338 H   0  0  0  0  0  0  0  0  0  0  0  0
    3.1632    1.3469   -0.1515 H   0  0  0  0  0  0  0  0  0  0  0  0
    3.4714   -0.4508   -0.1170 H   0  0  0  0  0  0  0  0  0  0  0  0
    1.9155   -0.7037    1.5170 H   0  0  0  0  0  0  0  0  0  0  0  0
    1.5889    1.0357    1.4388 H   0  0  0  0  0  0  0  0  0  0  0  0
    0.2981   -0.3479   -1.9693 H   0  0  0  0  0  0  0  0  0  0  0  0
   -2.2508   -0.9600   -1.4684 H   0  0  0  0  0  0  0  0  0  0  0  0
   -0.8473   -0.4632    2.1069 H   0  0  0  0  0  0  0  0  0  0  0  0
   -1.5052    1.3232   -0.0197 H   0  0  0  0  0  0  0  0  0  0  0  0
   -3.5498    1.2887    0.7085 H   0  0  0  0  0  0  0  0  0  0  0  0
  1  2  1  0
  2  3  1  0
  3  4  2  0
  4  5  1  0
  5  6  1  0
  6  7  1  0
  7  8  1  0
  8  9  1  0
  7  3  1  0
  8  5  1  0
  1 10  1  0
  1 11  1  0
  1 12  1  0
  2 13  1  0
  2 14  1  0
  4 15  1  0
  5 16  1  0
  7 17  1  0
  8 18  1  0
  9 19  1  0
M  END
