
     RDKit          3D

 23 24  0  0  0  0  0  0  0  0999 V2000
    2.6554    0.1210    0.8106 C   0  0  0  0  0  0  0  0  0  0  0  0
    1.5114   -0.8309    0.5139 C   0  0  0  0  0  0  0  0  0  0  0  0
    0.6094   -0.1881   -0.5409 C   0  0  0  0  0  0  0  0  0  0  0  0
   -0.5627   -0.9435   -0.9744 C   0  0  0  0  0  0  0  0  0  0  0  0
   -1.2697   -1.7171    0.1321 C   0  0  0  0  0  0  0  0  0  0  0  0
   -1.7126   -0.3559    0.6472 C   0  0  0  0  0  0  0  0  0  0  0  0
   -0.6946    0.3666   -0.1605 C   0  0  0  0  0  0  0  0  0  0  0  0
   -1.1891    1.5856   -0.8833 C   0  0  0  0  0  0  0  0  0  0  0  0
   -0.2347    2.6025   -0.6564 O   0  0  0  0  0  0  0  0  0  0  0  0
    2.9525    0.1156    1.8725 H   0  0  0  0  0  0  0  0  0  0  0  0
    2.2977    1.1402    0.5780 H   0  0  0  0  0  0  0  0  0  0  0  0
    3.4869   -0.1450    0.1389 H   0  0  0  0  0  0  0  0  0  0  0  0
    0.9694   -0.9793    1.4671 H   0  0  0  0  0  0  0  0  0  0  0  0
    1.9076   -1.7529    0.0821 H   0  0  0  0  0  0  0  0  0  0  0  0
    1.1598    0.3596   -1.3333 H   0  0  0  0  0  0  0  0  0  0  0  0
   -0.9723   -0.9454   -1.9852 H   0  0  0  0  0  0  0  0  0  0  0  0
   -0.5592   -2.1896    0.8375 H   0  0  0  0  0  0  0  0  0  0  0  0
   -2.0576   -2.3504   -0.2808 H   0  0  0  0  0  0  0  0  0  0  0  0
   -2.7594   -0.1735    0.2619 H   0  0  0  0  0  0  0  0  0  0  0  0
   -1.6689   -0.2436    1.7371 H   0  0  0  0  0  0  0  0  0  0  0  0
   -1.2493    1.4636   -1.9783 H   0  0  0  0  0  0  0  0  0  0  0  0
   -2.1422    1.9727   -0.4597 H   0  0  0  0  0  0  0  0  0  0  0  0
   -0.4778    3.0881    0.1739 H   0  0  0  0  0  0  0  0  0  0  0  0
  1  2  1  0
  2  3  1  0
  3  4  1  0
  4  5  1  0
  5  6  1  0
  6  7  1  0
  7  8  1  0
  8  9  1  0
  7  3  1  0
  7  4  1  0
  1 10  1  0
  1 11  1  0
  1 12  1  0
  2 13  1  0
  2 14  1  0
  3 15  1  0
  4 16  1  0
  5 17  1  0
  5 18  1  0
  6 19  1  0
  6 20  1  0
  8 21  1  0
  8 22  1  0
  9 23  1  0
M  END
