
     RDKit          3D

 19 19  0  0  0  0  0  0  0  0999 V2000
   -2.4144    0.4287   -0.0886 C   0  0  0  0  0  0  0  0  0  0  0  0
   -1.2252   -0.1580   -0.8060 C   0  0  0  0  0  0  0  0  0  0  0  0
   -0.3423   -0.8753    0.1806 C   0  0  0  0  0  0  0  0  0  0  0  0
    0.1605    0.0389    1.2413 C   0  0  0  0  0  0  0  0  0  0  0  0
    1.2838    0.6975    1.0129 C   0  0  0  0  0  0  0  0  0  0  0  0
    2.0601    0.5594   -0.2589 C   0  0  0  0  0  0  0  0  0  0  0  0
    1.9936   -0.8969   -0.6186 C   0  0  0  0  0  0  0  0  0  0  0  0
    3.0110   -1.5024   -1.0474 O   0  0  0  0  0  0  0  0  0  0  0  0
    0.7584   -1.5071   -0.4468 O   0  0  0  0  0  0  0  0  0  0  0  0
   -2.6883    1.3713   -0.5687 H   0  0  0  0  0  0  0  0  0  0  0  0
   -2.1089    0.6618    0.9567 H   0  0  0  0  0  0  0  0  0  0  0  0
   -3.2659   -0.2994   -0.0390 H   0  0  0  0  0  0  0  0  0  0  0  0
   -1.5982   -0.9299   -1.5225 H   0  0  0  0  0  0  0  0  0  0  0  0
   -0.6755    0.5835   -1.4126 H   0  0  0  0  0  0  0  0  0  0  0  0
   -0.9467   -1.7044    0.6295 H   0  0  0  0  0  0  0  0  0  0  0  0
   -0.4101    0.1398    2.1749 H   0  0  0  0  0  0  0  0  0  0  0  0
    1.6501    1.3617    1.7824 H   0  0  0  0  0  0  0  0  0  0  0  0
    1.6455    1.1726   -1.0687 H   0  0  0  0  0  0  0  0  0  0  0  0
    3.1123    0.8585   -0.1005 H   0  0  0  0  0  0  0  0  0  0  0  0
  1  2  1  0
  2  3  1  0
  3  4  1  0
  4  5  2  0
  5  6  1  0
  6  7  1  0
  7  8  2  0
  7  9  1  0
  9  3  1  0
  1 10  1  0
  1 11  1  0
  1 12  1  0
  2 13  1  0
  2 14  1  0
  3 15  1  0
  4 16  1  0
  5 17  1  0
  6 18  1  0
  6 19  1  0
M  END
