
     RDKit          3D

 19 19  0  0  0  0  0  0  0  0999 V2000
    1.7755    0.9141    0.5868 C   0  0  0  0  0  0  0  0  0  0  0  0
    1.1826   -0.0125   -0.3833 C   0  0  0  0  0  0  0  0  0  0  0  0
   -0.2515   -0.3925   -0.3639 C   0  0  0  0  0  0  0  0  0  0  0  0
   -1.2459    0.6737   -0.5201 C   0  0  0  0  0  0  0  0  0  0  0  0
   -1.9481    0.7743   -1.5901 O   0  0  0  0  0  0  0  0  0  0  0  0
   -1.5122    1.6609    0.5081 C   0  0  0  0  0  0  0  0  0  0  0  0
   -1.1121    1.6510    1.6998 O   0  0  0  0  0  0  0  0  0  0  0  0
   -0.7060   -1.4947    0.5590 C   0  0  0  0  0  0  0  0  0  0  0  0
   -0.5421   -1.7875   -0.8849 C   0  0  0  0  0  0  0  0  0  0  0  0
    1.9332    1.9528    0.1189 H   0  0  0  0  0  0  0  0  0  0  0  0
    2.8880    0.6443    0.7810 H   0  0  0  0  0  0  0  0  0  0  0  0
    1.2960    1.0961    1.5481 H   0  0  0  0  0  0  0  0  0  0  0  0
    1.3354    0.4317   -1.4308 H   0  0  0  0  0  0  0  0  0  0  0  0
    1.8484   -0.9314   -0.4556 H   0  0  0  0  0  0  0  0  0  0  0  0
   -2.1446    2.5398    0.2224 H   0  0  0  0  0  0  0  0  0  0  0  0
    0.0574   -1.9227    1.2763 H   0  0  0  0  0  0  0  0  0  0  0  0
   -1.6945   -1.3778    1.0094 H   0  0  0  0  0  0  0  0  0  0  0  0
    0.2798   -2.4721   -1.1477 H   0  0  0  0  0  0  0  0  0  0  0  0
   -1.4394   -1.9476   -1.5334 H   0  0  0  0  0  0  0  0  0  0  0  0
  1  2  1  0
  2  3  1  0
  3  4  1  0
  4  5  2  0
  4  6  1  0
  6  7  2  0
  3  8  1  0
  8  9  1  0
  9  3  1  0
  1 10  1  0
  1 11  1  0
  1 12  1  0
  2 13  1  0
  2 14  1  0
  6 15  1  0
  8 16  1  0
  8 17  1  0
  9 18  1  0
  9 19  1  0
M  END
