
     RDKit          3D

 19 19  0  0  0  0  0  0  0  0999 V2000
    2.4548   -0.0316    0.1614 C   0  0  0  0  0  0  0  0  0  0  0  0
    1.3109   -0.6023    1.0068 C   0  0  0  0  0  0  0  0  0  0  0  0
    0.0955    0.2002    0.7206 C   0  0  0  0  0  0  0  0  0  0  0  0
   -0.3072    0.1244   -0.7701 C   0  0  0  0  0  0  0  0  0  0  0  0
   -0.4646    1.3306   -1.3946 O   0  0  0  0  0  0  0  0  0  0  0  0
   -1.2217   -0.2899    0.3511 C   0  0  0  0  0  0  0  0  0  0  0  0
   -1.5721   -1.6173    0.5116 O   0  0  0  0  0  0  0  0  0  0  0  0
   -2.3580    0.6796    0.5667 C   0  0  0  0  0  0  0  0  0  0  0  0
   -3.4207    0.3575    1.0177 O   0  0  0  0  0  0  0  0  0  0  0  0
    3.4495   -0.2736    0.5656 H   0  0  0  0  0  0  0  0  0  0  0  0
    2.3476   -0.2953   -0.9053 H   0  0  0  0  0  0  0  0  0  0  0  0
    2.3639    1.0906    0.2165 H   0  0  0  0  0  0  0  0  0  0  0  0
    1.6238   -0.6654    2.0471 H   0  0  0  0  0  0  0  0  0  0  0  0
    1.2209   -1.6656    0.6562 H   0  0  0  0  0  0  0  0  0  0  0  0
    0.1764    1.2593    1.1285 H   0  0  0  0  0  0  0  0  0  0  0  0
    0.0562   -0.7227   -1.3797 H   0  0  0  0  0  0  0  0  0  0  0  0
   -1.2725    1.2940   -1.9737 H   0  0  0  0  0  0  0  0  0  0  0  0
   -2.2837   -1.8931   -0.0872 H   0  0  0  0  0  0  0  0  0  0  0  0
   -2.1989    1.7206    0.2963 H   0  0  0  0  0  0  0  0  0  0  0  0
  1  2  1  0
  2  3  1  0
  3  4  1  0
  4  5  1  0
  4  6  1  0
  6  7  1  0
  6  8  1  0
  8  9  2  0
  6  3  1  0
  1 10  1  0
  1 11  1  0
  1 12  1  0
  2 13  1  0
  2 14  1  0
  3 15  1  0
  4 16  1  0
  5 17  1  0
  7 18  1  0
  8 19  1  0
M  END
