
     RDKit          3D

 23 23  0  0  0  0  0  0  0  0999 V2000
    2.5673   -0.2718   -0.2851 C   0  0  0  0  0  0  0  0  0  0  0  0
    1.7127   -0.0232    0.9065 C   0  0  0  0  0  0  0  0  0  0  0  0
    0.2538   -0.0190    0.6863 C   0  0  0  0  0  0  0  0  0  0  0  0
   -0.2799    1.0120   -0.2891 C   0  0  0  0  0  0  0  0  0  0  0  0
   -0.7492    2.1774    0.2786 O   0  0  0  0  0  0  0  0  0  0  0  0
   -1.4051    0.0037   -0.5633 C   0  0  0  0  0  0  0  0  0  0  0  0
   -2.5541    0.1168    0.3962 C   0  0  0  0  0  0  0  0  0  0  0  0
   -0.3677   -1.0635   -0.1738 C   0  0  0  0  0  0  0  0  0  0  0  0
    0.2966   -1.4375   -1.3138 O   0  0  0  0  0  0  0  0  0  0  0  0
    2.5367   -1.3145   -0.6582 H   0  0  0  0  0  0  0  0  0  0  0  0
    3.6337   -0.1172    0.0470 H   0  0  0  0  0  0  0  0  0  0  0  0
    2.4136    0.4701   -1.0951 H   0  0  0  0  0  0  0  0  0  0  0  0
    1.9625   -0.7646    1.6933 H   0  0  0  0  0  0  0  0  0  0  0  0
    2.0047    0.9694    1.3315 H   0  0  0  0  0  0  0  0  0  0  0  0
   -0.2919    0.0671    1.6482 H   0  0  0  0  0  0  0  0  0  0  0  0
    0.3193    1.1257   -1.2119 H   0  0  0  0  0  0  0  0  0  0  0  0
   -0.7318    2.9039   -0.3926 H   0  0  0  0  0  0  0  0  0  0  0  0
   -1.7301   -0.0408   -1.6040 H   0  0  0  0  0  0  0  0  0  0  0  0
   -2.6364   -0.8525    0.9608 H   0  0  0  0  0  0  0  0  0  0  0  0
   -2.4360    0.9478    1.1041 H   0  0  0  0  0  0  0  0  0  0  0  0
   -3.5207    0.2336   -0.1631 H   0  0  0  0  0  0  0  0  0  0  0  0
   -0.8791   -1.8763    0.3799 H   0  0  0  0  0  0  0  0  0  0  0  0
   -0.1191   -2.2466   -1.6825 H   0  0  0  0  0  0  0  0  0  0  0  0
  1  2  1  0
  2  3  1  0
  3  4  1  0
  4  5  1  0
  4  6  1  0
  6  7  1  0
  6  8  1  0
  8  9  1  0
  8  3  1  0
  1 10  1  0
  1 11  1  0
  1 12  1  0
  2 13  1  0
  2 14  1  0
  3 15  1  0
  4 16  1  0
  5 17  1  0
  6 18  1  0
  7 19  1  0
  7 20  1  0
  7 21  1  0
  8 22  1  0
  9 23  1  0
M  END
