
     RDKit          3D

 21 22  0  0  0  0  0  0  0  0999 V2000
    2.6369   -0.5479   -0.0255 C   0  0  0  0  0  0  0  0  0  0  0  0
    1.4022    0.2144   -0.5108 C   0  0  0  0  0  0  0  0  0  0  0  0
    0.2645    0.0463    0.4065 C   0  0  0  0  0  0  0  0  0  0  0  0
   -0.0744   -1.2824    0.5407 O   0  0  0  0  0  0  0  0  0  0  0  0
   -0.7587   -1.1300   -0.6652 C   0  0  0  0  0  0  0  0  0  0  0  0
   -1.2329    0.1001    0.0137 C   0  0  0  0  0  0  0  0  0  0  0  0
   -2.2198   -0.3593    1.1296 C   0  0  0  0  0  0  0  0  0  0  0  0
   -0.5375    1.2549    0.4763 C   0  0  0  0  0  0  0  0  0  0  0  0
   -0.4454    2.2806   -0.4985 O   0  0  0  0  0  0  0  0  0  0  0  0
    3.1380   -0.0197    0.8117 H   0  0  0  0  0  0  0  0  0  0  0  0
    2.2354   -1.4998    0.4308 H   0  0  0  0  0  0  0  0  0  0  0  0
    3.3011   -0.8120   -0.8544 H   0  0  0  0  0  0  0  0  0  0  0  0
    1.2441    0.1631   -1.5855 H   0  0  0  0  0  0  0  0  0  0  0  0
    1.7527    1.3007   -0.3801 H   0  0  0  0  0  0  0  0  0  0  0  0
   -1.5809   -1.8838   -0.8053 H   0  0  0  0  0  0  0  0  0  0  0  0
   -0.2191   -1.0948   -1.5926 H   0  0  0  0  0  0  0  0  0  0  0  0
   -1.7282   -1.0674    1.8073 H   0  0  0  0  0  0  0  0  0  0  0  0
   -2.9982   -0.9424    0.5646 H   0  0  0  0  0  0  0  0  0  0  0  0
   -2.6800    0.4788    1.6377 H   0  0  0  0  0  0  0  0  0  0  0  0
   -0.5852    1.7177    1.4966 H   0  0  0  0  0  0  0  0  0  0  0  0
   -0.9147    3.0828   -0.2358 H   0  0  0  0  0  0  0  0  0  0  0  0
  1  2  1  0
  2  3  1  0
  3  4  1  0
  4  5  1  0
  5  6  1  0
  6  7  1  0
  6  8  1  0
  8  9  1  0
  6  3  1  0
  8  3  1  0
  1 10  1  0
  1 11  1  0
  1 12  1  0
  2 13  1  0
  2 14  1  0
  5 15  1  0
  5 16  1  0
  7 17  1  0
  7 18  1  0
  7 19  1  0
  8 20  1  0
  9 21  1  0
M  END
