
     RDKit          3D

 25 26  0  0  0  0  0  0  0  0999 V2000
    2.6389    0.0769    0.3947 C   0  0  0  0  0  0  0  0  0  0  0  0
    1.2085    0.0916    0.8922 C   0  0  0  0  0  0  0  0  0  0  0  0
    0.3231   -0.1954   -0.2841 C   0  0  0  0  0  0  0  0  0  0  0  0
    0.4388   -1.4581   -1.0479 C   0  0  0  0  0  0  0  0  0  0  0  0
   -1.0871   -1.5197   -1.1327 C   0  0  0  0  0  0  0  0  0  0  0  0
   -1.1164   -0.3081   -0.2283 C   0  0  0  0  0  0  0  0  0  0  0  0
   -1.9336   -0.3235    1.0098 C   0  0  0  0  0  0  0  0  0  0  0  0
   -0.4975    0.9118   -0.7831 C   0  0  0  0  0  0  0  0  0  0  0  0
   -0.6622    2.1708    0.0018 C   0  0  0  0  0  0  0  0  0  0  0  0
    3.2745    0.8165    0.8987 H   0  0  0  0  0  0  0  0  0  0  0  0
    2.6963    0.2611   -0.7044 H   0  0  0  0  0  0  0  0  0  0  0  0
    3.1136   -0.9263    0.5462 H   0  0  0  0  0  0  0  0  0  0  0  0
    0.9417    0.9897    1.4437 H   0  0  0  0  0  0  0  0  0  0  0  0
    1.1202   -0.7668    1.6084 H   0  0  0  0  0  0  0  0  0  0  0  0
    0.7939   -2.3485   -0.4519 H   0  0  0  0  0  0  0  0  0  0  0  0
    0.8975   -1.3934   -2.0417 H   0  0  0  0  0  0  0  0  0  0  0  0
   -1.4541   -1.2726   -2.1478 H   0  0  0  0  0  0  0  0  0  0  0  0
   -1.5458   -2.3764   -0.6435 H   0  0  0  0  0  0  0  0  0  0  0  0
   -2.0461   -1.3831    1.3528 H   0  0  0  0  0  0  0  0  0  0  0  0
   -1.5314    0.2429    1.8537 H   0  0  0  0  0  0  0  0  0  0  0  0
   -2.9441    0.1045    0.7543 H   0  0  0  0  0  0  0  0  0  0  0  0
   -0.5126    1.0645   -1.8879 H   0  0  0  0  0  0  0  0  0  0  0  0
   -0.8059    1.9906    1.0865 H   0  0  0  0  0  0  0  0  0  0  0  0
   -1.5577    2.7143   -0.4206 H   0  0  0  0  0  0  0  0  0  0  0  0
    0.2475    2.8368   -0.0689 H   0  0  0  0  0  0  0  0  0  0  0  0
  1  2  1  0
  2  3  1  0
  3  4  1  0
  4  5  1  0
  5  6  1  0
  6  7  1  0
  6  8  1  0
  8  9  1  0
  6  3  1  0
  8  3  1  0
  1 10  1  0
  1 11  1  0
  1 12  1  0
  2 13  1  0
  2 14  1  0
  4 15  1  0
  4 16  1  0
  5 17  1  0
  5 18  1  0
  7 19  1  0
  7 20  1  0
  7 21  1  0
  8 22  1  0
  9 23  1  0
  9 24  1  0
  9 25  1  0
M  END
