
     RDKit          3D

 23 23  0  0  0  0  0  0  0  0999 V2000
    2.1358    0.7370   -0.3971 C   0  0  0  0  0  0  0  0  0  0  0  0
    1.7780   -0.4868    0.3569 C   0  0  0  0  0  0  0  0  0  0  0  0
    0.3170   -0.8287    0.3673 C   0  0  0  0  0  0  0  0  0  0  0  0
   -0.2419   -1.0594   -1.0039 C   0  0  0  0  0  0  0  0  0  0  0  0
   -1.4602   -0.1853   -1.1488 C   0  0  0  0  0  0  0  0  0  0  0  0
   -1.6044    0.6124    0.1062 C   0  0  0  0  0  0  0  0  0  0  0  0
   -1.4416    1.9615   -0.2235 O   0  0  0  0  0  0  0  0  0  0  0  0
   -0.5505    0.1503    1.0663 C   0  0  0  0  0  0  0  0  0  0  0  0
   -1.2015   -0.4197    2.1844 O   0  0  0  0  0  0  0  0  0  0  0  0
    3.2438    0.7728   -0.4750 H   0  0  0  0  0  0  0  0  0  0  0  0
    1.7673    0.6557   -1.4467 H   0  0  0  0  0  0  0  0  0  0  0  0
    1.8331    1.6842    0.0803 H   0  0  0  0  0  0  0  0  0  0  0  0
    2.1856   -0.4464    1.3873 H   0  0  0  0  0  0  0  0  0  0  0  0
    2.3040   -1.3497   -0.1318 H   0  0  0  0  0  0  0  0  0  0  0  0
    0.2418   -1.8058    0.9175 H   0  0  0  0  0  0  0  0  0  0  0  0
   -0.5983   -2.1211   -1.1507 H   0  0  0  0  0  0  0  0  0  0  0  0
    0.4456   -0.8512   -1.8243 H   0  0  0  0  0  0  0  0  0  0  0  0
   -2.4010   -0.7733   -1.2791 H   0  0  0  0  0  0  0  0  0  0  0  0
   -1.3912    0.4602   -2.0717 H   0  0  0  0  0  0  0  0  0  0  0  0
   -2.6297    0.5289    0.5553 H   0  0  0  0  0  0  0  0  0  0  0  0
   -2.2565    2.4935   -0.0832 H   0  0  0  0  0  0  0  0  0  0  0  0
   -0.0352    1.0376    1.4639 H   0  0  0  0  0  0  0  0  0  0  0  0
   -0.4397   -0.7667    2.7504 H   0  0  0  0  0  0  0  0  0  0  0  0
  1  2  1  0
  2  3  1  0
  3  4  1  0
  4  5  1  0
  5  6  1  0
  6  7  1  0
  6  8  1  0
  8  9  1  0
  8  3  1  0
  1 10  1  0
  1 11  1  0
  1 12  1  0
  2 13  1  0
  2 14  1  0
  3 15  1  0
  4 16  1  0
  4 17  1  0
  5 18  1  0
  5 19  1  0
  6 20  1  0
  7 21  1  0
  8 22  1  0
  9 23  1  0
M  END
