
     RDKit          3D

 21 22  0  0  0  0  0  0  0  0999 V2000
   -2.8626   -0.2759    0.2242 C   0  0  0  0  0  0  0  0  0  0  0  0
   -1.7946    0.6917   -0.2452 C   0  0  0  0  0  0  0  0  0  0  0  0
   -0.4752    0.2776   -0.2555 C   0  0  0  0  0  0  0  0  0  0  0  0
    0.7118    1.0631   -0.6743 C   0  0  0  0  0  0  0  0  0  0  0  0
    1.2058   -0.2741   -0.2746 C   0  0  0  0  0  0  0  0  0  0  0  0
    2.5012   -0.7141   -0.1466 C   0  0  0  0  0  0  0  0  0  0  0  0
    3.2646    0.0631    0.7553 O   0  0  0  0  0  0  0  0  0  0  0  0
    0.0917   -0.8644   -1.0533 C   0  0  0  0  0  0  0  0  0  0  0  0
    0.2757   -0.1940    0.7892 O   0  0  0  0  0  0  0  0  0  0  0  0
   -3.8466    0.0955   -0.1292 H   0  0  0  0  0  0  0  0  0  0  0  0
   -2.6898   -1.3108   -0.1605 H   0  0  0  0  0  0  0  0  0  0  0  0
   -2.9127   -0.3282    1.3315 H   0  0  0  0  0  0  0  0  0  0  0  0
   -2.1382    1.0212   -1.2721 H   0  0  0  0  0  0  0  0  0  0  0  0
   -1.9465    1.6172    0.3782 H   0  0  0  0  0  0  0  0  0  0  0  0
    1.0606    1.8590   -0.0132 H   0  0  0  0  0  0  0  0  0  0  0  0
    0.6778    1.2910   -1.7573 H   0  0  0  0  0  0  0  0  0  0  0  0
    3.1011   -0.7395   -1.0782 H   0  0  0  0  0  0  0  0  0  0  0  0
    2.5823   -1.7585    0.2702 H   0  0  0  0  0  0  0  0  0  0  0  0
    3.3126    0.9957    0.4955 H   0  0  0  0  0  0  0  0  0  0  0  0
    0.1300   -0.6456   -2.1580 H   0  0  0  0  0  0  0  0  0  0  0  0
   -0.2489   -1.8702   -0.7963 H   0  0  0  0  0  0  0  0  0  0  0  0
  1  2  1  0
  2  3  1  0
  3  4  1  0
  4  5  1  0
  5  6  1  0
  6  7  1  0
  5  8  1  0
  5  9  1  0
  8  3  1  0
  9  3  1  0
  1 10  1  0
  1 11  1  0
  1 12  1  0
  2 13  1  0
  2 14  1  0
  4 15  1  0
  4 16  1  0
  6 17  1  0
  6 18  1  0
  7 19  1  0
  8 20  1  0
  8 21  1  0
M  END
