
     RDKit          3D

 21 22  0  0  0  0  0  0  0  0999 V2000
    2.3996   -0.0366    0.6666 C   0  0  0  0  0  0  0  0  0  0  0  0
    1.7278    0.5128   -0.5481 C   0  0  0  0  0  0  0  0  0  0  0  0
    0.2952    0.1020   -0.6885 C   0  0  0  0  0  0  0  0  0  0  0  0
   -0.0767   -1.3519   -0.7944 C   0  0  0  0  0  0  0  0  0  0  0  0
   -0.4312   -0.5744    0.4037 C   0  0  0  0  0  0  0  0  0  0  0  0
   -1.7086    0.1965    0.5248 C   0  0  0  0  0  0  0  0  0  0  0  0
   -2.8365   -0.5866    0.6284 O   0  0  0  0  0  0  0  0  0  0  0  0
   -1.6999    1.1141   -0.6532 C   0  0  0  0  0  0  0  0  0  0  0  0
   -0.5322    0.9671   -1.3367 O   0  0  0  0  0  0  0  0  0  0  0  0
    2.2999    0.6741    1.5391 H   0  0  0  0  0  0  0  0  0  0  0  0
    3.5021   -0.1267    0.5080 H   0  0  0  0  0  0  0  0  0  0  0  0
    2.0449   -1.0206    0.9862 H   0  0  0  0  0  0  0  0  0  0  0  0
    1.7480    1.6236   -0.4739 H   0  0  0  0  0  0  0  0  0  0  0  0
    2.3321    0.2050   -1.4446 H   0  0  0  0  0  0  0  0  0  0  0  0
    0.6798   -2.1395   -0.6879 H   0  0  0  0  0  0  0  0  0  0  0  0
   -0.9369   -1.6519   -1.4387 H   0  0  0  0  0  0  0  0  0  0  0  0
    0.0446   -0.8461    1.3626 H   0  0  0  0  0  0  0  0  0  0  0  0
   -1.6549    0.8035    1.4746 H   0  0  0  0  0  0  0  0  0  0  0  0
   -2.8247   -0.9820    1.5555 H   0  0  0  0  0  0  0  0  0  0  0  0
   -1.7670    2.1783   -0.3088 H   0  0  0  0  0  0  0  0  0  0  0  0
   -2.6052    0.9393   -1.2746 H   0  0  0  0  0  0  0  0  0  0  0  0
  1  2  1  0
  2  3  1  0
  3  4  1  0
  4  5  1  0
  5  6  1  0
  6  7  1  0
  6  8  1  0
  8  9  1  0
  5  3  1  0
  9  3  1  0
  1 10  1  0
  1 11  1  0
  1 12  1  0
  2 13  1  0
  2 14  1  0
  4 15  1  0
  4 16  1  0
  5 17  1  0
  6 18  1  0
  7 19  1  0
  8 20  1  0
  8 21  1  0
M  END
