
     RDKit          3D

 23 24  0  0  0  0  0  0  0  0999 V2000
   -2.6550   -1.0384   -0.2025 C   0  0  0  0  0  0  0  0  0  0  0  0
   -1.4752   -0.4205   -0.9360 C   0  0  0  0  0  0  0  0  0  0  0  0
   -0.5519    0.1936    0.0897 C   0  0  0  0  0  0  0  0  0  0  0  0
   -1.2154    1.2873    0.9315 C   0  0  0  0  0  0  0  0  0  0  0  0
    0.0631   -0.8530    0.9097 O   0  0  0  0  0  0  0  0  0  0  0  0
    0.7870   -0.0149    0.1106 C   0  0  0  0  0  0  0  0  0  0  0  0
    1.7327   -0.5313   -0.9301 C   0  0  0  0  0  0  0  0  0  0  0  0
    2.8728   -0.1480    0.0203 C   0  0  0  0  0  0  0  0  0  0  0  0
    1.8979    0.8359    0.6529 C   0  0  0  0  0  0  0  0  0  0  0  0
   -3.0492   -1.8476   -0.8643 H   0  0  0  0  0  0  0  0  0  0  0  0
   -2.2835   -1.4578    0.7706 H   0  0  0  0  0  0  0  0  0  0  0  0
   -3.4645   -0.2961   -0.0249 H   0  0  0  0  0  0  0  0  0  0  0  0
   -1.7841    0.3170   -1.6844 H   0  0  0  0  0  0  0  0  0  0  0  0
   -0.9107   -1.2496   -1.4240 H   0  0  0  0  0  0  0  0  0  0  0  0
   -0.5122    1.6654    1.6921 H   0  0  0  0  0  0  0  0  0  0  0  0
   -1.4322    2.1144    0.2309 H   0  0  0  0  0  0  0  0  0  0  0  0
   -2.1187    0.9122    1.4478 H   0  0  0  0  0  0  0  0  0  0  0  0
    1.7540    0.1786   -1.7957 H   0  0  0  0  0  0  0  0  0  0  0  0
    1.6786   -1.5860   -1.1880 H   0  0  0  0  0  0  0  0  0  0  0  0
    3.7137    0.2875   -0.5127 H   0  0  0  0  0  0  0  0  0  0  0  0
    3.0685   -1.0019    0.6933 H   0  0  0  0  0  0  0  0  0  0  0  0
    1.9506    1.8651    0.2535 H   0  0  0  0  0  0  0  0  0  0  0  0
    1.9335    0.7880    1.7597 H   0  0  0  0  0  0  0  0  0  0  0  0
  1  2  1  0
  2  3  1  0
  3  4  1  0
  3  5  1  0
  5  6  1  0
  6  7  1  0
  7  8  1  0
  8  9  1  0
  6  3  1  0
  9  6  1  0
  1 10  1  0
  1 11  1  0
  1 12  1  0
  2 13  1  0
  2 14  1  0
  4 15  1  0
  4 16  1  0
  4 17  1  0
  7 18  1  0
  7 19  1  0
  8 20  1  0
  8 21  1  0
  9 22  1  0
  9 23  1  0
M  END
