
     RDKit          3D

 17 17  0  0  0  0  0  0  0  0999 V2000
    1.7292    0.5090   -0.0314 C   0  0  0  0  0  0  0  0  0  0  0  0
    0.9350   -0.2501   -1.0358 C   0  0  0  0  0  0  0  0  0  0  0  0
   -0.4678   -0.5786   -0.6374 C   0  0  0  0  0  0  0  0  0  0  0  0
   -1.1504   -1.2990   -1.6459 O   0  0  0  0  0  0  0  0  0  0  0  0
   -0.9334   -0.6608    0.7470 C   0  0  0  0  0  0  0  0  0  0  0  0
   -1.2325    0.5879   -0.0376 C   0  0  0  0  0  0  0  0  0  0  0  0
   -0.5915    1.7188    0.3920 O   0  0  0  0  0  0  0  0  0  0  0  0
    1.4990    0.1703    0.9920 H   0  0  0  0  0  0  0  0  0  0  0  0
    1.6704    1.6136   -0.1563 H   0  0  0  0  0  0  0  0  0  0  0  0
    2.8187    0.2637   -0.1993 H   0  0  0  0  0  0  0  0  0  0  0  0
    1.5182   -1.1824   -1.2931 H   0  0  0  0  0  0  0  0  0  0  0  0
    0.8697    0.3236   -2.0014 H   0  0  0  0  0  0  0  0  0  0  0  0
   -1.1185   -2.2513   -1.3764 H   0  0  0  0  0  0  0  0  0  0  0  0
   -0.2689   -0.6260    1.6129 H   0  0  0  0  0  0  0  0  0  0  0  0
   -1.8558   -1.2935    0.9039 H   0  0  0  0  0  0  0  0  0  0  0  0
   -2.2464    0.7596   -0.4449 H   0  0  0  0  0  0  0  0  0  0  0  0
   -1.1751    2.1951    1.0284 H   0  0  0  0  0  0  0  0  0  0  0  0
  1  2  1  0
  2  3  1  0
  3  4  1  0
  3  5  1  0
  5  6  1  0
  6  7  1  0
  6  3  1  0
  1  8  1  0
  1  9  1  0
  1 10  1  0
  2 11  1  0
  2 12  1  0
  4 13  1  0
  5 14  1  0
  5 15  1  0
  6 16  1  0
  7 17  1  0
M  END
