
     RDKit          3D

 21 22  0  0  0  0  0  0  0  0999 V2000
   -2.5767    0.7591    0.1166 C   0  0  0  0  0  0  0  0  0  0  0  0
   -1.2506    0.9723   -0.5854 C   0  0  0  0  0  0  0  0  0  0  0  0
   -0.5421   -0.3369   -0.7192 C   0  0  0  0  0  0  0  0  0  0  0  0
   -0.2155   -1.0624    0.5315 C   0  0  0  0  0  0  0  0  0  0  0  0
    0.2593   -2.3541    0.5035 O   0  0  0  0  0  0  0  0  0  0  0  0
    1.3613   -1.9471   -0.2507 C   0  0  0  0  0  0  0  0  0  0  0  0
    0.8587   -0.5386   -0.3421 C   0  0  0  0  0  0  0  0  0  0  0  0
    1.7709    0.5554    0.0816 C   0  0  0  0  0  0  0  0  0  0  0  0
    1.9514    1.5446   -0.8793 O   0  0  0  0  0  0  0  0  0  0  0  0
   -2.6837    1.5262    0.9115 H   0  0  0  0  0  0  0  0  0  0  0  0
   -3.4399    0.8477   -0.5740 H   0  0  0  0  0  0  0  0  0  0  0  0
   -2.5474   -0.2212    0.6305 H   0  0  0  0  0  0  0  0  0  0  0  0
   -1.5045    1.3925   -1.5958 H   0  0  0  0  0  0  0  0  0  0  0  0
   -0.6275    1.6840   -0.0048 H   0  0  0  0  0  0  0  0  0  0  0  0
   -0.9039   -0.9588   -1.5828 H   0  0  0  0  0  0  0  0  0  0  0  0
   -0.4714   -0.5735    1.4964 H   0  0  0  0  0  0  0  0  0  0  0  0
    2.2988   -2.1008    0.3209 H   0  0  0  0  0  0  0  0  0  0  0  0
    1.3184   -2.4364   -1.2402 H   0  0  0  0  0  0  0  0  0  0  0  0
    1.4658    1.0033    1.0537 H   0  0  0  0  0  0  0  0  0  0  0  0
    2.7898    0.1218    0.2684 H   0  0  0  0  0  0  0  0  0  0  0  0
    2.6889    2.1229   -0.5556 H   0  0  0  0  0  0  0  0  0  0  0  0
  1  2  1  0
  2  3  1  0
  3  4  1  0
  4  5  1  0
  5  6  1  0
  6  7  1  0
  7  8  1  0
  8  9  1  0
  7  3  1  0
  7  4  1  0
  1 10  1  0
  1 11  1  0
  1 12  1  0
  2 13  1  0
  2 14  1  0
  3 15  1  0
  4 16  1  0
  6 17  1  0
  6 18  1  0
  8 19  1  0
  8 20  1  0
  9 21  1  0
M  END
