
     RDKit          3D

 21 21  0  0  0  0  0  0  0  0999 V2000
   -1.5358    1.2598    0.3413 C   0  0  0  0  0  0  0  0  0  0  0  0
   -1.5657    0.0574   -0.5660 C   0  0  0  0  0  0  0  0  0  0  0  0
   -0.5009   -0.9458   -0.3031 C   0  0  0  0  0  0  0  0  0  0  0  0
    0.9564   -0.6693   -0.3648 C   0  0  0  0  0  0  0  0  0  0  0  0
    1.4744    0.3278    0.5644 C   0  0  0  0  0  0  0  0  0  0  0  0
    2.3632    1.4269    0.1038 C   0  0  0  0  0  0  0  0  0  0  0  0
    1.1841    0.2829    1.7521 O   0  0  0  0  0  0  0  0  0  0  0  0
   -0.9677   -2.2689    0.2233 C   0  0  0  0  0  0  0  0  0  0  0  0
   -0.7641   -2.1740   -1.1260 O   0  0  0  0  0  0  0  0  0  0  0  0
   -1.8976    0.9842    1.3738 H   0  0  0  0  0  0  0  0  0  0  0  0
   -2.2557    2.0085   -0.1365 H   0  0  0  0  0  0  0  0  0  0  0  0
   -0.5339    1.7170    0.3312 H   0  0  0  0  0  0  0  0  0  0  0  0
   -1.6278    0.3846   -1.6194 H   0  0  0  0  0  0  0  0  0  0  0  0
   -2.5951   -0.3888   -0.3805 H   0  0  0  0  0  0  0  0  0  0  0  0
    1.4855   -1.6573   -0.2109 H   0  0  0  0  0  0  0  0  0  0  0  0
    1.2292   -0.4067   -1.4317 H   0  0  0  0  0  0  0  0  0  0  0  0
    3.4398    1.2770    0.3996 H   0  0  0  0  0  0  0  0  0  0  0  0
    2.3735    1.5125   -0.9975 H   0  0  0  0  0  0  0  0  0  0  0  0
    1.9508    2.3615    0.5815 H   0  0  0  0  0  0  0  0  0  0  0  0
   -0.2125   -2.8056    0.8252 H   0  0  0  0  0  0  0  0  0  0  0  0
   -2.0000   -2.2837    0.6401 H   0  0  0  0  0  0  0  0  0  0  0  0
  1  2  1  0
  2  3  1  0
  3  4  1  0
  4  5  1  0
  5  6  1  0
  5  7  2  0
  3  8  1  0
  8  9  1  0
  9  3  1  0
  1 10  1  0
  1 11  1  0
  1 12  1  0
  2 13  1  0
  2 14  1  0
  4 15  1  0
  4 16  1  0
  6 17  1  0
  6 18  1  0
  6 19  1  0
  8 20  1  0
  8 21  1  0
M  END
