
     RDKit          3D

 25 25  0  0  0  0  0  0  0  0999 V2000
   -2.6620    0.0355   -1.0163 C   0  0  0  0  0  0  0  0  0  0  0  0
   -2.3395    0.7533    0.2588 C   0  0  0  0  0  0  0  0  0  0  0  0
   -0.9936    0.3912    0.8187 C   0  0  0  0  0  0  0  0  0  0  0  0
   -0.8421   -1.0297    1.1350 C   0  0  0  0  0  0  0  0  0  0  0  0
    0.4059   -1.4158    0.8768 C   0  0  0  0  0  0  0  0  0  0  0  0
    1.2059   -0.2785    0.3608 C   0  0  0  0  0  0  0  0  0  0  0  0
    2.1355   -0.7083   -0.7560 C   0  0  0  0  0  0  0  0  0  0  0  0
    2.8966    0.5231   -1.2020 C   0  0  0  0  0  0  0  0  0  0  0  0
    0.1266    0.6453   -0.1621 C   0  0  0  0  0  0  0  0  0  0  0  0
   -2.0498    0.4451   -1.8220 H   0  0  0  0  0  0  0  0  0  0  0  0
   -2.5982   -1.0706   -0.9145 H   0  0  0  0  0  0  0  0  0  0  0  0
   -3.7245    0.2796   -1.2681 H   0  0  0  0  0  0  0  0  0  0  0  0
   -3.1389    0.5831    1.0071 H   0  0  0  0  0  0  0  0  0  0  0  0
   -2.3378    1.8402    0.0380 H   0  0  0  0  0  0  0  0  0  0  0  0
   -0.8267    0.9820    1.7197 H   0  0  0  0  0  0  0  0  0  0  0  0
   -1.5818   -1.7416    1.5261 H   0  0  0  0  0  0  0  0  0  0  0  0
    0.8339   -2.4156    1.0077 H   0  0  0  0  0  0  0  0  0  0  0  0
    1.7343    0.2277    1.1767 H   0  0  0  0  0  0  0  0  0  0  0  0
    1.4936   -0.9982   -1.6364 H   0  0  0  0  0  0  0  0  0  0  0  0
    2.7818   -1.5435   -0.4712 H   0  0  0  0  0  0  0  0  0  0  0  0
    3.2493    0.4143   -2.2479 H   0  0  0  0  0  0  0  0  0  0  0  0
    2.1878    1.3675   -1.1768 H   0  0  0  0  0  0  0  0  0  0  0  0
    3.7103    0.7138   -0.4895 H   0  0  0  0  0  0  0  0  0  0  0  0
   -0.1166    0.2962   -1.1866 H   0  0  0  0  0  0  0  0  0  0  0  0
    0.4497    1.7041   -0.1598 H   0  0  0  0  0  0  0  0  0  0  0  0
  1  2  1  0
  2  3  1  0
  3  4  1  0
  4  5  2  0
  5  6  1  0
  6  7  1  0
  7  8  1  0
  6  9  1  0
  9  3  1  0
  1 10  1  0
  1 11  1  0
  1 12  1  0
  2 13  1  0
  2 14  1  0
  3 15  1  0
  4 16  1  0
  5 17  1  0
  6 18  1  0
  7 19  1  0
  7 20  1  0
  8 21  1  0
  8 22  1  0
  8 23  1  0
  9 24  1  0
  9 25  1  0
M  END
