
     RDKit          3D

 19 20  0  0  0  0  0  0  0  0999 V2000
    2.5841   -0.1252   -0.1886 C   0  0  0  0  0  0  0  0  0  0  0  0
    1.4355    0.3241    0.6387 C   0  0  0  0  0  0  0  0  0  0  0  0
    0.1575   -0.4218    0.3556 C   0  0  0  0  0  0  0  0  0  0  0  0
   -1.0083    0.0157    1.1774 C   0  0  0  0  0  0  0  0  0  0  0  0
   -1.1709    0.1693    2.3833 O   0  0  0  0  0  0  0  0  0  0  0  0
   -1.8242    0.1701   -0.0360 C   0  0  0  0  0  0  0  0  0  0  0  0
   -2.6155    1.3011   -0.1441 O   0  0  0  0  0  0  0  0  0  0  0  0
   -1.8212   -0.8268   -1.1311 C   0  0  0  0  0  0  0  0  0  0  0  0
   -0.6018    0.0047   -0.8549 C   0  0  0  0  0  0  0  0  0  0  0  0
    2.8323    0.6493   -0.9455 H   0  0  0  0  0  0  0  0  0  0  0  0
    3.5113   -0.2209    0.4441 H   0  0  0  0  0  0  0  0  0  0  0  0
    2.4438   -1.0752   -0.7039 H   0  0  0  0  0  0  0  0  0  0  0  0
    1.6814    0.1164    1.7204 H   0  0  0  0  0  0  0  0  0  0  0  0
    1.2614    1.4112    0.5338 H   0  0  0  0  0  0  0  0  0  0  0  0
    0.2632   -1.5228    0.4571 H   0  0  0  0  0  0  0  0  0  0  0  0
   -2.7474    1.7538    0.7257 H   0  0  0  0  0  0  0  0  0  0  0  0
   -1.7799   -1.9137   -0.8330 H   0  0  0  0  0  0  0  0  0  0  0  0
   -2.3660   -0.5472   -2.0381 H   0  0  0  0  0  0  0  0  0  0  0  0
   -0.2352    0.7378   -1.5611 H   0  0  0  0  0  0  0  0  0  0  0  0
  1  2  1  0
  2  3  1  0
  3  4  1  0
  4  5  2  0
  4  6  1  0
  6  7  1  0
  6  8  1  0
  8  9  1  0
  9  3  1  0
  9  6  1  0
  1 10  1  0
  1 11  1  0
  1 12  1  0
  2 13  1  0
  2 14  1  0
  3 15  1  0
  7 16  1  0
  8 17  1  0
  8 18  1  0
  9 19  1  0
M  END
