
     RDKit          3D

 25 26  0  0  0  0  0  0  0  0999 V2000
    2.9430   -0.4746   -0.2449 C   0  0  0  0  0  0  0  0  0  0  0  0
    1.8925   -0.0637    0.7572 C   0  0  0  0  0  0  0  0  0  0  0  0
    0.5458    0.1606    0.1015 C   0  0  0  0  0  0  0  0  0  0  0  0
    0.0732   -1.1105   -0.5723 C   0  0  0  0  0  0  0  0  0  0  0  0
   -1.2104   -0.7212   -1.3105 C   0  0  0  0  0  0  0  0  0  0  0  0
   -2.2767   -0.3286   -0.3559 C   0  0  0  0  0  0  0  0  0  0  0  0
   -1.8547    0.5329    0.7719 C   0  0  0  0  0  0  0  0  0  0  0  0
   -1.2688    1.8811    0.5663 C   0  0  0  0  0  0  0  0  0  0  0  0
   -0.4516    0.6563    1.0707 C   0  0  0  0  0  0  0  0  0  0  0  0
    2.9243   -1.5836   -0.3845 H   0  0  0  0  0  0  0  0  0  0  0  0
    2.7668    0.0580   -1.2154 H   0  0  0  0  0  0  0  0  0  0  0  0
    3.9353   -0.1326    0.1030 H   0  0  0  0  0  0  0  0  0  0  0  0
    2.2397    0.8848    1.2146 H   0  0  0  0  0  0  0  0  0  0  0  0
    1.7509   -0.8403    1.5273 H   0  0  0  0  0  0  0  0  0  0  0  0
    0.7289    0.8947   -0.7316 H   0  0  0  0  0  0  0  0  0  0  0  0
    0.7780   -1.4274   -1.3661 H   0  0  0  0  0  0  0  0  0  0  0  0
   -0.1129   -1.9203    0.1493 H   0  0  0  0  0  0  0  0  0  0  0  0
   -1.5191   -1.6021   -1.9003 H   0  0  0  0  0  0  0  0  0  0  0  0
   -0.9102    0.0920   -2.0121 H   0  0  0  0  0  0  0  0  0  0  0  0
   -3.0970    0.1666   -0.9527 H   0  0  0  0  0  0  0  0  0  0  0  0
   -2.7259   -1.2659    0.0590 H   0  0  0  0  0  0  0  0  0  0  0  0
   -2.5592    0.4790    1.6564 H   0  0  0  0  0  0  0  0  0  0  0  0
   -1.0271    2.2783   -0.4175 H   0  0  0  0  0  0  0  0  0  0  0  0
   -1.4322    2.6739    1.3363 H   0  0  0  0  0  0  0  0  0  0  0  0
   -0.1327    0.7125    2.1502 H   0  0  0  0  0  0  0  0  0  0  0  0
  1  2  1  0
  2  3  1  0
  3  4  1  0
  4  5  1  0
  5  6  1  0
  6  7  1  0
  7  8  1  0
  8  9  1  0
  9  3  1  0
  9  7  1  0
  1 10  1  0
  1 11  1  0
  1 12  1  0
  2 13  1  0
  2 14  1  0
  3 15  1  0
  4 16  1  0
  4 17  1  0
  5 18  1  0
  5 19  1  0
  6 20  1  0
  6 21  1  0
  7 22  1  0
  8 23  1  0
  8 24  1  0
  9 25  1  0
M  END
