
     RDKit          3D

 15 15  0  0  0  0  0  0  0  0999 V2000
   -1.7069    0.5147   -0.2987 C   0  0  0  0  0  0  0  0  0  0  0  0
   -1.1597   -0.6199    0.5412 C   0  0  0  0  0  0  0  0  0  0  0  0
    0.2883   -0.8667    0.3339 C   0  0  0  0  0  0  0  0  0  0  0  0
    0.8049   -1.2062   -0.8973 O   0  0  0  0  0  0  0  0  0  0  0  0
    1.0276    0.1138   -0.4994 C   0  0  0  0  0  0  0  0  0  0  0  0
    2.3347    0.5300    0.0065 C   0  0  0  0  0  0  0  0  0  0  0  0
    2.7685    1.6292   -0.2889 O   0  0  0  0  0  0  0  0  0  0  0  0
   -1.2275    1.4735    0.0602 H   0  0  0  0  0  0  0  0  0  0  0  0
   -1.4856    0.4129   -1.3590 H   0  0  0  0  0  0  0  0  0  0  0  0
   -2.8097    0.5567   -0.1920 H   0  0  0  0  0  0  0  0  0  0  0  0
   -1.7922   -1.5150    0.2747 H   0  0  0  0  0  0  0  0  0  0  0  0
   -1.3359   -0.4539    1.6240 H   0  0  0  0  0  0  0  0  0  0  0  0
    0.8209   -1.3307    1.1850 H   0  0  0  0  0  0  0  0  0  0  0  0
    0.4960    0.8360   -1.1350 H   0  0  0  0  0  0  0  0  0  0  0  0
    2.9764   -0.0745    0.6448 H   0  0  0  0  0  0  0  0  0  0  0  0
  1  2  1  0
  2  3  1  0
  3  4  1  0
  4  5  1  0
  5  6  1  0
  6  7  2  0
  5  3  1  0
  1  8  1  0
  1  9  1  0
  1 10  1  0
  2 11  1  0
  2 12  1  0
  3 13  1  0
  5 14  1  0
  6 15  1  0
M  END
