
     RDKit          3D

 23 23  0  0  0  0  0  0  0  0999 V2000
    2.1951   -1.4593   -0.4928 C   0  0  0  0  0  0  0  0  0  0  0  0
    2.0055    0.0002   -0.2686 C   0  0  0  0  0  0  0  0  0  0  0  0
    0.5937    0.4764   -0.5307 C   0  0  0  0  0  0  0  0  0  0  0  0
    0.5115    1.9652   -0.2744 C   0  0  0  0  0  0  0  0  0  0  0  0
    0.0058    1.7010    0.9964 O   0  0  0  0  0  0  0  0  0  0  0  0
   -0.3300    0.3902    0.6520 C   0  0  0  0  0  0  0  0  0  0  0  0
   -1.7989    0.3104    0.3043 C   0  0  0  0  0  0  0  0  0  0  0  0
   -2.2528   -1.0763   -0.0236 C   0  0  0  0  0  0  0  0  0  0  0  0
   -2.5119    0.7198    1.4477 O   0  0  0  0  0  0  0  0  0  0  0  0
    1.4084   -1.8279   -1.1673 H   0  0  0  0  0  0  0  0  0  0  0  0
    2.2718   -2.0214    0.4598 H   0  0  0  0  0  0  0  0  0  0  0  0
    3.1713   -1.6454   -1.0210 H   0  0  0  0  0  0  0  0  0  0  0  0
    2.6557    0.5504   -1.0058 H   0  0  0  0  0  0  0  0  0  0  0  0
    2.3725    0.2831    0.7240 H   0  0  0  0  0  0  0  0  0  0  0  0
    0.2071    0.1310   -1.4933 H   0  0  0  0  0  0  0  0  0  0  0  0
    1.4651    2.5019   -0.2259 H   0  0  0  0  0  0  0  0  0  0  0  0
   -0.2645    2.4085   -0.9253 H   0  0  0  0  0  0  0  0  0  0  0  0
   -0.0389   -0.2974    1.4430 H   0  0  0  0  0  0  0  0  0  0  0  0
   -2.0820    1.0122   -0.4947 H   0  0  0  0  0  0  0  0  0  0  0  0
   -3.3691   -1.0951    0.0923 H   0  0  0  0  0  0  0  0  0  0  0  0
   -2.0618   -1.3232   -1.0878 H   0  0  0  0  0  0  0  0  0  0  0  0
   -1.8590   -1.8213    0.6776 H   0  0  0  0  0  0  0  0  0  0  0  0
   -2.2945    0.1168    2.2142 H   0  0  0  0  0  0  0  0  0  0  0  0
  1  2  1  0
  2  3  1  0
  3  4  1  0
  4  5  1  0
  5  6  1  0
  6  7  1  0
  7  8  1  0
  7  9  1  0
  6  3  1  0
  1 10  1  0
  1 11  1  0
  1 12  1  0
  2 13  1  0
  2 14  1  0
  3 15  1  0
  4 16  1  0
  4 17  1  0
  6 18  1  0
  7 19  1  0
  8 20  1  0
  8 21  1  0
  8 22  1  0
  9 23  1  0
M  END
