
     RDKit          3D

 19 20  0  0  0  0  0  0  0  0999 V2000
    2.0760    0.5344    0.2617 C   0  0  0  0  0  0  0  0  0  0  0  0
    1.3690   -0.7778    0.2154 C   0  0  0  0  0  0  0  0  0  0  0  0
   -0.0957   -0.6566   -0.1008 C   0  0  0  0  0  0  0  0  0  0  0  0
   -0.7374   -1.8678   -0.1413 O   0  0  0  0  0  0  0  0  0  0  0  0
   -0.4272    0.1631   -1.2913 C   0  0  0  0  0  0  0  0  0  0  0  0
   -0.0309    0.0953   -2.4437 O   0  0  0  0  0  0  0  0  0  0  0  0
   -1.3521    0.9910   -0.4931 C   0  0  0  0  0  0  0  0  0  0  0  0
   -2.3263    0.3812    0.4505 C   0  0  0  0  0  0  0  0  0  0  0  0
   -0.8661    0.3309    0.7383 C   0  0  0  0  0  0  0  0  0  0  0  0
    1.9859    0.9368    1.2891 H   0  0  0  0  0  0  0  0  0  0  0  0
    3.1668    0.3459    0.0376 H   0  0  0  0  0  0  0  0  0  0  0  0
    1.7216    1.2480   -0.4869 H   0  0  0  0  0  0  0  0  0  0  0  0
    1.4609   -1.3029    1.1858 H   0  0  0  0  0  0  0  0  0  0  0  0
    1.8208   -1.4133   -0.5834 H   0  0  0  0  0  0  0  0  0  0  0  0
   -0.2413   -2.4721   -0.7132 H   0  0  0  0  0  0  0  0  0  0  0  0
   -1.3505    2.0757   -0.6380 H   0  0  0  0  0  0  0  0  0  0  0  0
   -2.7887   -0.6093    0.2410 H   0  0  0  0  0  0  0  0  0  0  0  0
   -2.9963    1.0785    0.9580 H   0  0  0  0  0  0  0  0  0  0  0  0
   -0.3886    0.9190    1.5143 H   0  0  0  0  0  0  0  0  0  0  0  0
  1  2  1  0
  2  3  1  0
  3  4  1  0
  3  5  1  0
  5  6  2  0
  5  7  1  0
  7  8  1  0
  8  9  1  0
  9  3  1  0
  9  7  1  0
  1 10  1  0
  1 11  1  0
  1 12  1  0
  2 13  1  0
  2 14  1  0
  4 15  1  0
  7 16  1  0
  8 17  1  0
  8 18  1  0
  9 19  1  0
M  END
