
     RDKit          3D

 21 22  0  0  0  0  0  0  0  0999 V2000
    2.3347   -0.2363   -0.3257 C   0  0  0  0  0  0  0  0  0  0  0  0
    1.2190   -0.1672    0.6718 C   0  0  0  0  0  0  0  0  0  0  0  0
   -0.1027    0.2281    0.0351 C   0  0  0  0  0  0  0  0  0  0  0  0
    0.0136    1.5719   -0.6050 C   0  0  0  0  0  0  0  0  0  0  0  0
   -0.5765   -0.7990   -0.9215 C   0  0  0  0  0  0  0  0  0  0  0  0
   -1.7236   -1.3385   -0.5244 C   0  0  0  0  0  0  0  0  0  0  0  0
   -2.1387   -0.7087    0.7689 C   0  0  0  0  0  0  0  0  0  0  0  0
   -2.4376    0.6880    0.6857 O   0  0  0  0  0  0  0  0  0  0  0  0
   -1.1708    0.2448    1.0866 C   0  0  0  0  0  0  0  0  0  0  0  0
    3.1799    0.4497   -0.0965 H   0  0  0  0  0  0  0  0  0  0  0  0
    2.7787   -1.2724   -0.3949 H   0  0  0  0  0  0  0  0  0  0  0  0
    1.9969    0.0034   -1.3737 H   0  0  0  0  0  0  0  0  0  0  0  0
    1.0782   -1.1521    1.1732 H   0  0  0  0  0  0  0  0  0  0  0  0
    1.4343    0.6005    1.4611 H   0  0  0  0  0  0  0  0  0  0  0  0
   -0.7510    1.7523   -1.3794 H   0  0  0  0  0  0  0  0  0  0  0  0
    1.0085    1.7627   -1.0730 H   0  0  0  0  0  0  0  0  0  0  0  0
   -0.1057    2.3722    0.1759 H   0  0  0  0  0  0  0  0  0  0  0  0
   -0.0722   -1.0933   -1.8369 H   0  0  0  0  0  0  0  0  0  0  0  0
   -2.2681   -2.1122   -1.0572 H   0  0  0  0  0  0  0  0  0  0  0  0
   -2.8361   -1.2702    1.3952 H   0  0  0  0  0  0  0  0  0  0  0  0
   -0.8608    0.4765    2.1347 H   0  0  0  0  0  0  0  0  0  0  0  0
  1  2  1  0
  2  3  1  0
  3  4  1  0
  3  5  1  0
  5  6  2  0
  6  7  1  0
  7  8  1  0
  8  9  1  0
  9  3  1  0
  9  7  1  0
  1 10  1  0
  1 11  1  0
  1 12  1  0
  2 13  1  0
  2 14  1  0
  4 15  1  0
  4 16  1  0
  4 17  1  0
  5 18  1  0
  6 19  1  0
  7 20  1  0
  9 21  1  0
M  END
