
     RDKit          3D

 16 17  0  0  0  0  0  0  0  0999 V2000
    2.0746    0.0716    0.6649 C   0  0  0  0  0  0  0  0  0  0  0  0
    0.8374    0.6297    0.0075 C   0  0  0  0  0  0  0  0  0  0  0  0
   -0.1824   -0.4568   -0.2998 C   0  0  0  0  0  0  0  0  0  0  0  0
   -1.3722    0.1262   -0.9390 C   0  0  0  0  0  0  0  0  0  0  0  0
   -1.6376    0.5076   -2.0525 O   0  0  0  0  0  0  0  0  0  0  0  0
   -2.0545    0.0258    0.3743 C   0  0  0  0  0  0  0  0  0  0  0  0
   -2.3007   -1.2519    0.7901 O   0  0  0  0  0  0  0  0  0  0  0  0
   -1.0230   -0.7421    0.9154 C   0  0  0  0  0  0  0  0  0  0  0  0
    2.0450    0.2861    1.7432 H   0  0  0  0  0  0  0  0  0  0  0  0
    2.1045   -1.0140    0.4497 H   0  0  0  0  0  0  0  0  0  0  0  0
    2.9963    0.4995    0.2151 H   0  0  0  0  0  0  0  0  0  0  0  0
    0.3439    1.3775    0.6826 H   0  0  0  0  0  0  0  0  0  0  0  0
    1.1167    1.2031   -0.9045 H   0  0  0  0  0  0  0  0  0  0  0  0
    0.2344   -1.3642   -0.7241 H   0  0  0  0  0  0  0  0  0  0  0  0
   -2.5945    0.8924    0.7804 H   0  0  0  0  0  0  0  0  0  0  0  0
   -0.5878   -0.7906    1.9100 H   0  0  0  0  0  0  0  0  0  0  0  0
  1  2  1  0
  2  3  1  0
  3  4  1  0
  4  5  2  0
  4  6  1  0
  6  7  1  0
  7  8  1  0
  8  3  1  0
  8  6  1  0
  1  9  1  0
  1 10  1  0
  1 11  1  0
  2 12  1  0
  2 13  1  0
  3 14  1  0
  6 15  1  0
  8 16  1  0
M  END
