
     RDKit          3D

 21 21  0  0  0  0  0  0  0  0999 V2000
   -2.0200   -0.9378    0.3212 C   0  0  0  0  0  0  0  0  0  0  0  0
   -1.1367   -0.4994   -0.8095 C   0  0  0  0  0  0  0  0  0  0  0  0
   -0.1950    0.5840   -0.3401 C   0  0  0  0  0  0  0  0  0  0  0  0
   -0.8716    1.8074    0.1713 C   0  0  0  0  0  0  0  0  0  0  0  0
   -0.2674    2.7801    0.5902 O   0  0  0  0  0  0  0  0  0  0  0  0
    1.0748    0.7917   -1.0915 C   0  0  0  0  0  0  0  0  0  0  0  0
    1.0753    0.2328    0.3202 C   0  0  0  0  0  0  0  0  0  0  0  0
    1.5601   -1.1916    0.4095 C   0  0  0  0  0  0  0  0  0  0  0  0
    1.6021    1.0663    1.2979 O   0  0  0  0  0  0  0  0  0  0  0  0
   -3.0322   -1.2530   -0.0184 H   0  0  0  0  0  0  0  0  0  0  0  0
   -1.5029   -1.7471    0.8655 H   0  0  0  0  0  0  0  0  0  0  0  0
   -2.1952   -0.1285    1.0696 H   0  0  0  0  0  0  0  0  0  0  0  0
   -1.8066   -0.0166   -1.5766 H   0  0  0  0  0  0  0  0  0  0  0  0
   -0.6290   -1.3555   -1.2639 H   0  0  0  0  0  0  0  0  0  0  0  0
   -1.9723    1.8942    0.1964 H   0  0  0  0  0  0  0  0  0  0  0  0
    1.2476    0.0967   -1.9438 H   0  0  0  0  0  0  0  0  0  0  0  0
    1.4760    1.8169   -1.2462 H   0  0  0  0  0  0  0  0  0  0  0  0
    1.1753   -1.8064   -0.4092 H   0  0  0  0  0  0  0  0  0  0  0  0
    2.6767   -1.1486    0.2879 H   0  0  0  0  0  0  0  0  0  0  0  0
    1.3778   -1.6431    1.4103 H   0  0  0  0  0  0  0  0  0  0  0  0
    2.3635    0.6574    1.7593 H   0  0  0  0  0  0  0  0  0  0  0  0
  1  2  1  0
  2  3  1  0
  3  4  1  0
  4  5  2  0
  3  6  1  0
  6  7  1  0
  7  8  1  0
  7  9  1  0
  7  3  1  0
  1 10  1  0
  1 11  1  0
  1 12  1  0
  2 13  1  0
  2 14  1  0
  4 15  1  0
  6 16  1  0
  6 17  1  0
  8 18  1  0
  8 19  1  0
  8 20  1  0
  9 21  1  0
M  END
