
     RDKit          3D

 21 22  0  0  0  0  0  0  0  0999 V2000
    2.6761   -0.2707    0.0552 C   0  0  0  0  0  0  0  0  0  0  0  0
    1.5519    0.3874    0.7699 C   0  0  0  0  0  0  0  0  0  0  0  0
    0.2556    0.4026    0.0060 C   0  0  0  0  0  0  0  0  0  0  0  0
   -0.2206   -1.0247   -0.3098 C   0  0  0  0  0  0  0  0  0  0  0  0
   -1.5080   -0.8280   -1.0074 C   0  0  0  0  0  0  0  0  0  0  0  0
   -2.7507   -1.1194   -0.7561 O   0  0  0  0  0  0  0  0  0  0  0  0
   -2.3692   -0.2648    0.1566 C   0  0  0  0  0  0  0  0  0  0  0  0
   -1.9461    1.1442    0.1587 C   0  0  0  0  0  0  0  0  0  0  0  0
   -0.6424    1.1553    0.6948 O   0  0  0  0  0  0  0  0  0  0  0  0
    3.1882    0.4313   -0.6668 H   0  0  0  0  0  0  0  0  0  0  0  0
    3.4727   -0.4959    0.8249 H   0  0  0  0  0  0  0  0  0  0  0  0
    2.4406   -1.2358   -0.4114 H   0  0  0  0  0  0  0  0  0  0  0  0
    1.8247    1.4474    0.9524 H   0  0  0  0  0  0  0  0  0  0  0  0
    1.3907   -0.0710    1.7775 H   0  0  0  0  0  0  0  0  0  0  0  0
    0.4296    0.8704   -0.9864 H   0  0  0  0  0  0  0  0  0  0  0  0
    0.5164   -1.4186   -1.0628 H   0  0  0  0  0  0  0  0  0  0  0  0
   -0.2940   -1.6398    0.5844 H   0  0  0  0  0  0  0  0  0  0  0  0
   -1.3818   -0.1555   -1.9086 H   0  0  0  0  0  0  0  0  0  0  0  0
   -2.2213   -0.7445    1.1703 H   0  0  0  0  0  0  0  0  0  0  0  0
   -2.5423    1.8181    0.8043 H   0  0  0  0  0  0  0  0  0  0  0  0
   -1.8702    1.6120   -0.8457 H   0  0  0  0  0  0  0  0  0  0  0  0
  1  2  1  0
  2  3  1  0
  3  4  1  0
  4  5  1  0
  5  6  1  0
  6  7  1  0
  7  8  1  0
  8  9  1  0
  9  3  1  0
  7  5  1  0
  1 10  1  0
  1 11  1  0
  1 12  1  0
  2 13  1  0
  2 14  1  0
  3 15  1  0
  4 16  1  0
  4 17  1  0
  5 18  1  0
  7 19  1  0
  8 20  1  0
  8 21  1  0
M  END
