
     RDKit          3D

 19 19  0  0  0  0  0  0  0  0999 V2000
    2.5698    0.4905    0.0537 C   0  0  0  0  0  0  0  0  0  0  0  0
    1.4923   -0.5101    0.2590 C   0  0  0  0  0  0  0  0  0  0  0  0
    0.1271    0.0425    0.1352 C   0  0  0  0  0  0  0  0  0  0  0  0
   -0.2596    1.2875   -0.1294 C   0  0  0  0  0  0  0  0  0  0  0  0
   -1.7235    1.3605   -0.1526 C   0  0  0  0  0  0  0  0  0  0  0  0
   -2.4236    2.3894    0.0248 O   0  0  0  0  0  0  0  0  0  0  0  0
   -2.1732   -0.0381   -0.4292 C   0  0  0  0  0  0  0  0  0  0  0  0
   -1.0816   -0.8234    0.3113 C   0  0  0  0  0  0  0  0  0  0  0  0
   -0.9125   -2.0829   -0.2139 O   0  0  0  0  0  0  0  0  0  0  0  0
    2.2914    1.3697   -0.5434 H   0  0  0  0  0  0  0  0  0  0  0  0
    3.4079   -0.0177   -0.5069 H   0  0  0  0  0  0  0  0  0  0  0  0
    3.0502    0.8071    1.0229 H   0  0  0  0  0  0  0  0  0  0  0  0
    1.5929   -0.9372    1.2823 H   0  0  0  0  0  0  0  0  0  0  0  0
    1.5731   -1.3309   -0.5028 H   0  0  0  0  0  0  0  0  0  0  0  0
    0.4154    2.1349   -0.3045 H   0  0  0  0  0  0  0  0  0  0  0  0
   -2.0177   -0.2250   -1.4946 H   0  0  0  0  0  0  0  0  0  0  0  0
   -3.1672   -0.2477   -0.0446 H   0  0  0  0  0  0  0  0  0  0  0  0
   -1.4016   -0.8741    1.3594 H   0  0  0  0  0  0  0  0  0  0  0  0
   -1.3597   -2.7950    0.3221 H   0  0  0  0  0  0  0  0  0  0  0  0
  1  2  1  0
  2  3  1  0
  3  4  2  0
  4  5  1  0
  5  6  2  0
  5  7  1  0
  7  8  1  0
  8  9  1  0
  8  3  1  0
  1 10  1  0
  1 11  1  0
  1 12  1  0
  2 13  1  0
  2 14  1  0
  4 15  1  0
  7 16  1  0
  7 17  1  0
  8 18  1  0
  9 19  1  0
M  END
