
     RDKit          3D

 21 21  0  0  0  0  0  0  0  0999 V2000
    2.3165   -0.1302    0.4740 C   0  0  0  0  0  0  0  0  0  0  0  0
    0.9650    0.5303    0.5695 C   0  0  0  0  0  0  0  0  0  0  0  0
    0.0116    0.0663   -0.4717 C   0  0  0  0  0  0  0  0  0  0  0  0
    0.4693    0.3204   -1.8476 C   0  0  0  0  0  0  0  0  0  0  0  0
    1.2614   -0.4026   -2.4085 O   0  0  0  0  0  0  0  0  0  0  0  0
   -0.5507   -1.3102   -0.3315 C   0  0  0  0  0  0  0  0  0  0  0  0
   -1.6975   -0.8100   -0.9955 O   0  0  0  0  0  0  0  0  0  0  0  0
   -1.4263    0.3959   -0.3041 C   0  0  0  0  0  0  0  0  0  0  0  0
   -2.0112    0.3295    1.0607 C   0  0  0  0  0  0  0  0  0  0  0  0
    2.3345   -1.1162    1.0090 H   0  0  0  0  0  0  0  0  0  0  0  0
    3.0320    0.5198    1.0477 H   0  0  0  0  0  0  0  0  0  0  0  0
    2.6989   -0.1880   -0.5502 H   0  0  0  0  0  0  0  0  0  0  0  0
    1.1466    1.6289    0.3798 H   0  0  0  0  0  0  0  0  0  0  0  0
    0.6206    0.4525    1.5955 H   0  0  0  0  0  0  0  0  0  0  0  0
    0.1011    1.1877   -2.4184 H   0  0  0  0  0  0  0  0  0  0  0  0
   -0.0121   -2.0878   -0.8863 H   0  0  0  0  0  0  0  0  0  0  0  0
   -0.8675   -1.6171    0.6863 H   0  0  0  0  0  0  0  0  0  0  0  0
   -1.6898    1.3024   -0.9088 H   0  0  0  0  0  0  0  0  0  0  0  0
   -1.3485   -0.0136    1.8517 H   0  0  0  0  0  0  0  0  0  0  0  0
   -2.8967   -0.3730    1.0679 H   0  0  0  0  0  0  0  0  0  0  0  0
   -2.4572    1.3150    1.3804 H   0  0  0  0  0  0  0  0  0  0  0  0
  1  2  1  0
  2  3  1  0
  3  4  1  0
  4  5  2  0
  3  6  1  0
  6  7  1  0
  7  8  1  0
  8  9  1  0
  8  3  1  0
  1 10  1  0
  1 11  1  0
  1 12  1  0
  2 13  1  0
  2 14  1  0
  4 15  1  0
  6 16  1  0
  6 17  1  0
  8 18  1  0
  9 19  1  0
  9 20  1  0
  9 21  1  0
M  END
