
     RDKit          3D

 21 21  0  0  0  0  0  0  0  0999 V2000
    2.0641    1.2031    0.2091 C   0  0  0  0  0  0  0  0  0  0  0  0
    1.9538   -0.1736    0.8036 C   0  0  0  0  0  0  0  0  0  0  0  0
    0.6306   -0.8369    0.5170 C   0  0  0  0  0  0  0  0  0  0  0  0
    0.1838   -1.0941   -0.8641 C   0  0  0  0  0  0  0  0  0  0  0  0
   -0.5375   -0.1132    0.0310 C   0  0  0  0  0  0  0  0  0  0  0  0
   -0.4859    1.1973   -0.4261 O   0  0  0  0  0  0  0  0  0  0  0  0
   -1.8968   -0.5041    0.5766 C   0  0  0  0  0  0  0  0  0  0  0  0
   -2.9762    0.3084   -0.0022 C   0  0  0  0  0  0  0  0  0  0  0  0
   -2.6701    1.1690   -0.8213 O   0  0  0  0  0  0  0  0  0  0  0  0
    1.4243    1.9412    0.6973 H   0  0  0  0  0  0  0  0  0  0  0  0
    3.1167    1.5360    0.3642 H   0  0  0  0  0  0  0  0  0  0  0  0
    1.9364    1.1612   -0.9026 H   0  0  0  0  0  0  0  0  0  0  0  0
    2.7362   -0.8033    0.3207 H   0  0  0  0  0  0  0  0  0  0  0  0
    2.1107   -0.0916    1.8922 H   0  0  0  0  0  0  0  0  0  0  0  0
    0.4287   -1.6771    1.2416 H   0  0  0  0  0  0  0  0  0  0  0  0
   -0.4111   -2.0260   -1.0960 H   0  0  0  0  0  0  0  0  0  0  0  0
    0.7263   -0.7253   -1.7385 H   0  0  0  0  0  0  0  0  0  0  0  0
   -0.4084    1.2599   -1.4036 H   0  0  0  0  0  0  0  0  0  0  0  0
   -1.8533   -0.2914    1.6818 H   0  0  0  0  0  0  0  0  0  0  0  0
   -2.0821   -1.5951    0.5022 H   0  0  0  0  0  0  0  0  0  0  0  0
   -3.9901    0.1557    0.2797 H   0  0  0  0  0  0  0  0  0  0  0  0
  1  2  1  0
  2  3  1  0
  3  4  1  0
  4  5  1  0
  5  6  1  0
  5  7  1  0
  7  8  1  0
  8  9  2  0
  5  3  1  0
  1 10  1  0
  1 11  1  0
  1 12  1  0
  2 13  1  0
  2 14  1  0
  3 15  1  0
  4 16  1  0
  4 17  1  0
  6 18  1  0
  7 19  1  0
  7 20  1  0
  8 21  1  0
M  END
