
     RDKit          3D

 21 21  0  0  0  0  0  0  0  0999 V2000
   -2.1616    0.7808   -0.1835 C   0  0  0  0  0  0  0  0  0  0  0  0
   -1.3541   -0.2577    0.5124 C   0  0  0  0  0  0  0  0  0  0  0  0
    0.1214   -0.2347    0.0901 C   0  0  0  0  0  0  0  0  0  0  0  0
    0.8011    1.0480    0.3676 C   0  0  0  0  0  0  0  0  0  0  0  0
    2.2092    1.1521   -0.0040 C   0  0  0  0  0  0  0  0  0  0  0  0
    2.8302    0.2592   -0.5137 O   0  0  0  0  0  0  0  0  0  0  0  0
    0.3122   -0.9256   -1.2081 C   0  0  0  0  0  0  0  0  0  0  0  0
    0.1630   -2.1578   -0.5258 O   0  0  0  0  0  0  0  0  0  0  0  0
    0.7445   -1.5089    0.5896 C   0  0  0  0  0  0  0  0  0  0  0  0
   -1.5277    1.3275   -0.8873 H   0  0  0  0  0  0  0  0  0  0  0  0
   -3.0161    0.3306   -0.7520 H   0  0  0  0  0  0  0  0  0  0  0  0
   -2.6492    1.4490    0.5817 H   0  0  0  0  0  0  0  0  0  0  0  0
   -1.7033   -1.2841    0.2507 H   0  0  0  0  0  0  0  0  0  0  0  0
   -1.3876   -0.1624    1.6169 H   0  0  0  0  0  0  0  0  0  0  0  0
    0.2401    1.9191   -0.0595 H   0  0  0  0  0  0  0  0  0  0  0  0
    0.7310    1.2087    1.4836 H   0  0  0  0  0  0  0  0  0  0  0  0
    2.7847    2.0807    0.1705 H   0  0  0  0  0  0  0  0  0  0  0  0
   -0.5348   -0.8337   -1.9343 H   0  0  0  0  0  0  0  0  0  0  0  0
    1.2750   -0.8705   -1.6963 H   0  0  0  0  0  0  0  0  0  0  0  0
    0.2971   -1.8426    1.5531 H   0  0  0  0  0  0  0  0  0  0  0  0
    1.8250   -1.4776    0.5486 H   0  0  0  0  0  0  0  0  0  0  0  0
  1  2  1  0
  2  3  1  0
  3  4  1  0
  4  5  1  0
  5  6  2  0
  3  7  1  0
  7  8  1  0
  8  9  1  0
  9  3  1  0
  1 10  1  0
  1 11  1  0
  1 12  1  0
  2 13  1  0
  2 14  1  0
  4 15  1  0
  4 16  1  0
  5 17  1  0
  7 18  1  0
  7 19  1  0
  9 20  1  0
  9 21  1  0
M  END
