
     RDKit          3D

 25 26  0  0  0  0  0  0  0  0999 V2000
    3.0630   -0.0489    0.0740 C   0  0  0  0  0  0  0  0  0  0  0  0
    1.8884   -0.8906   -0.3670 C   0  0  0  0  0  0  0  0  0  0  0  0
    0.6303   -0.4844    0.3527 C   0  0  0  0  0  0  0  0  0  0  0  0
   -0.6531   -1.1386    0.1130 C   0  0  0  0  0  0  0  0  0  0  0  0
   -1.7464   -1.0388    1.1338 C   0  0  0  0  0  0  0  0  0  0  0  0
   -2.2027    0.3961    1.1668 C   0  0  0  0  0  0  0  0  0  0  0  0
   -1.2549    1.2006    0.3412 C   0  0  0  0  0  0  0  0  0  0  0  0
   -0.4143    0.2157   -0.4105 C   0  0  0  0  0  0  0  0  0  0  0  0
   -0.3428    0.3391   -1.9153 C   0  0  0  0  0  0  0  0  0  0  0  0
    3.4549   -0.3958    1.0436 H   0  0  0  0  0  0  0  0  0  0  0  0
    2.6897    0.9965    0.2024 H   0  0  0  0  0  0  0  0  0  0  0  0
    3.8064   -0.0170   -0.7279 H   0  0  0  0  0  0  0  0  0  0  0  0
    1.7434   -0.7158   -1.4501 H   0  0  0  0  0  0  0  0  0  0  0  0
    2.1449   -1.9509   -0.2347 H   0  0  0  0  0  0  0  0  0  0  0  0
    0.8248   -0.1401    1.4085 H   0  0  0  0  0  0  0  0  0  0  0  0
   -0.6964   -2.0290   -0.5456 H   0  0  0  0  0  0  0  0  0  0  0  0
   -2.6152   -1.6536    0.8122 H   0  0  0  0  0  0  0  0  0  0  0  0
   -1.4150   -1.3951    2.1509 H   0  0  0  0  0  0  0  0  0  0  0  0
   -2.2214    0.7221    2.2427 H   0  0  0  0  0  0  0  0  0  0  0  0
   -3.2214    0.5396    0.7875 H   0  0  0  0  0  0  0  0  0  0  0  0
   -1.7407    1.9438   -0.3107 H   0  0  0  0  0  0  0  0  0  0  0  0
   -0.5635    1.7403    1.0497 H   0  0  0  0  0  0  0  0  0  0  0  0
    0.3278    1.1337   -2.2611 H   0  0  0  0  0  0  0  0  0  0  0  0
   -0.1165   -0.6569   -2.3964 H   0  0  0  0  0  0  0  0  0  0  0  0
   -1.3696    0.5926   -2.2597 H   0  0  0  0  0  0  0  0  0  0  0  0
  1  2  1  0
  2  3  1  0
  3  4  1  0
  4  5  1  0
  5  6  1  0
  6  7  1  0
  7  8  1  0
  8  9  1  0
  8  3  1  0
  8  4  1  0
  1 10  1  0
  1 11  1  0
  1 12  1  0
  2 13  1  0
  2 14  1  0
  3 15  1  0
  4 16  1  0
  5 17  1  0
  5 18  1  0
  6 19  1  0
  6 20  1  0
  7 21  1  0
  7 22  1  0
  9 23  1  0
  9 24  1  0
  9 25  1  0
M  END
