
     RDKit          3D

 21 23  0  0  0  0  0  0  0  0999 V2000
   -2.7215    0.4029    0.3437 C   0  0  0  0  0  0  0  0  0  0  0  0
   -1.7574   -0.3837   -0.5175 C   0  0  0  0  0  0  0  0  0  0  0  0
   -0.3248   -0.0817   -0.2287 C   0  0  0  0  0  0  0  0  0  0  0  0
    0.0798    1.2247   -0.4055 O   0  0  0  0  0  0  0  0  0  0  0  0
    0.9386    1.1510    0.6958 C   0  0  0  0  0  0  0  0  0  0  0  0
    2.2693    0.6047    0.2493 C   0  0  0  0  0  0  0  0  0  0  0  0
    2.0980   -0.8739    0.0298 C   0  0  0  0  0  0  0  0  0  0  0  0
    0.6188   -1.1259    0.2321 C   0  0  0  0  0  0  0  0  0  0  0  0
    0.2036   -0.0673    1.1354 C   0  0  0  0  0  0  0  0  0  0  0  0
   -3.1762    1.2365   -0.2560 H   0  0  0  0  0  0  0  0  0  0  0  0
   -2.2268    0.8155    1.2437 H   0  0  0  0  0  0  0  0  0  0  0  0
   -3.5608   -0.2617    0.6182 H   0  0  0  0  0  0  0  0  0  0  0  0
   -1.9128   -1.4822   -0.3188 H   0  0  0  0  0  0  0  0  0  0  0  0
   -2.0120   -0.1712   -1.5782 H   0  0  0  0  0  0  0  0  0  0  0  0
    0.9478    2.0201    1.3482 H   0  0  0  0  0  0  0  0  0  0  0  0
    3.0115    0.7824    1.0713 H   0  0  0  0  0  0  0  0  0  0  0  0
    2.5904    1.1475   -0.6647 H   0  0  0  0  0  0  0  0  0  0  0  0
    2.4284   -1.2091   -0.9726 H   0  0  0  0  0  0  0  0  0  0  0  0
    2.6273   -1.4472    0.8302 H   0  0  0  0  0  0  0  0  0  0  0  0
    0.2310   -2.1292    0.3699 H   0  0  0  0  0  0  0  0  0  0  0  0
   -0.3521   -0.1521    2.0451 H   0  0  0  0  0  0  0  0  0  0  0  0
  1  2  1  0
  2  3  1  0
  3  4  1  0
  4  5  1  0
  5  6  1  0
  6  7  1  0
  7  8  1  0
  8  9  1  0
  8  3  1  0
  9  3  1  0
  9  5  1  0
  1 10  1  0
  1 11  1  0
  1 12  1  0
  2 13  1  0
  2 14  1  0
  5 15  1  0
  6 16  1  0
  6 17  1  0
  7 18  1  0
  7 19  1  0
  8 20  1  0
  9 21  1  0
M  END
