
     RDKit          3D

 23 24  0  0  0  0  0  0  0  0999 V2000
    2.5365   -0.4100   -0.1125 C   0  0  0  0  0  0  0  0  0  0  0  0
    1.3281    0.2929    0.4728 C   0  0  0  0  0  0  0  0  0  0  0  0
    0.2358    0.2650   -0.5385 C   0  0  0  0  0  0  0  0  0  0  0  0
   -0.1147   -1.1993   -0.8748 C   0  0  0  0  0  0  0  0  0  0  0  0
   -1.3467   -1.3467   -0.0507 C   0  0  0  0  0  0  0  0  0  0  0  0
   -2.6193   -1.1667   -0.2449 O   0  0  0  0  0  0  0  0  0  0  0  0
   -2.0305   -0.0918   -0.6819 C   0  0  0  0  0  0  0  0  0  0  0  0
   -1.0599    0.8722   -0.1189 C   0  0  0  0  0  0  0  0  0  0  0  0
   -1.2104    1.2509    1.2864 C   0  0  0  0  0  0  0  0  0  0  0  0
    2.3422   -0.7540   -1.1553 H   0  0  0  0  0  0  0  0  0  0  0  0
    3.4119    0.2955   -0.2098 H   0  0  0  0  0  0  0  0  0  0  0  0
    2.8516   -1.2838    0.4972 H   0  0  0  0  0  0  0  0  0  0  0  0
    0.9982   -0.3211    1.3463 H   0  0  0  0  0  0  0  0  0  0  0  0
    1.6469    1.2792    0.7900 H   0  0  0  0  0  0  0  0  0  0  0  0
    0.6228    0.6958   -1.4843 H   0  0  0  0  0  0  0  0  0  0  0  0
   -0.2386   -1.3526   -1.9433 H   0  0  0  0  0  0  0  0  0  0  0  0
    0.6766   -1.8634   -0.4513 H   0  0  0  0  0  0  0  0  0  0  0  0
   -1.0617   -1.2411    1.0407 H   0  0  0  0  0  0  0  0  0  0  0  0
   -1.9945   -0.0764   -1.8200 H   0  0  0  0  0  0  0  0  0  0  0  0
   -1.1615    1.8326   -0.7148 H   0  0  0  0  0  0  0  0  0  0  0  0
   -2.0287    2.0319    1.3458 H   0  0  0  0  0  0  0  0  0  0  0  0
   -0.2941    1.8007    1.6125 H   0  0  0  0  0  0  0  0  0  0  0  0
   -1.4900    0.4900    2.0094 H   0  0  0  0  0  0  0  0  0  0  0  0
  1  2  1  0
  2  3  1  0
  3  4  1  0
  4  5  1  0
  5  6  1  0
  6  7  1  0
  7  8  1  0
  8  9  1  0
  8  3  1  0
  7  5  1  0
  1 10  1  0
  1 11  1  0
  1 12  1  0
  2 13  1  0
  2 14  1  0
  3 15  1  0
  4 16  1  0
  4 17  1  0
  5 18  1  0
  7 19  1  0
  8 20  1  0
  9 21  1  0
  9 22  1  0
  9 23  1  0
M  END
