
     RDKit          3D

 20 20  0  0  0  0  0  0  0  0999 V2000
    1.4437    1.2173   -0.2782 C   0  0  0  0  0  0  0  0  0  0  0  0
    1.2406   -0.1906   -0.6468 C   0  0  0  0  0  0  0  0  0  0  0  0
    0.2475   -1.0177    0.0555 C   0  0  0  0  0  0  0  0  0  0  0  0
    0.2545   -2.3765   -0.4584 O   0  0  0  0  0  0  0  0  0  0  0  0
   -0.1794   -0.9109    1.4411 C   0  0  0  0  0  0  0  0  0  0  0  0
   -1.1412   -0.5603    0.2791 C   0  0  0  0  0  0  0  0  0  0  0  0
   -1.6286    0.8374    0.3503 C   0  0  0  0  0  0  0  0  0  0  0  0
   -1.3987    1.5723   -0.7975 O   0  0  0  0  0  0  0  0  0  0  0  0
    2.5547    1.4361   -0.0705 H   0  0  0  0  0  0  0  0  0  0  0  0
    0.9521    1.5911    0.6190 H   0  0  0  0  0  0  0  0  0  0  0  0
    1.2380    1.9091   -1.1535 H   0  0  0  0  0  0  0  0  0  0  0  0
    2.2646   -0.6926   -0.6102 H   0  0  0  0  0  0  0  0  0  0  0  0
    1.0231   -0.2499   -1.7665 H   0  0  0  0  0  0  0  0  0  0  0  0
    1.1726   -2.6149   -0.7153 H   0  0  0  0  0  0  0  0  0  0  0  0
   -0.4412   -1.8241    2.0082 H   0  0  0  0  0  0  0  0  0  0  0  0
    0.1770   -0.0970    2.0925 H   0  0  0  0  0  0  0  0  0  0  0  0
   -1.9816   -1.3251    0.1338 H   0  0  0  0  0  0  0  0  0  0  0  0
   -1.2467    1.4003    1.2226 H   0  0  0  0  0  0  0  0  0  0  0  0
   -2.7596    0.8265    0.5360 H   0  0  0  0  0  0  0  0  0  0  0  0
   -1.7914    1.0695   -1.5508 H   0  0  0  0  0  0  0  0  0  0  0  0
  1  2  1  0
  2  3  1  0
  3  4  1  0
  3  5  1  0
  5  6  1  0
  6  7  1  0
  7  8  1  0
  6  3  1  0
  1  9  1  0
  1 10  1  0
  1 11  1  0
  2 12  1  0
  2 13  1  0
  4 14  1  0
  5 15  1  0
  5 16  1  0
  6 17  1  0
  7 18  1  0
  7 19  1  0
  8 20  1  0
M  END
