
     RDKit          3D

 25 25  0  0  0  0  0  0  0  0999 V2000
   -1.6210   -1.6238    0.7835 C   0  0  0  0  0  0  0  0  0  0  0  0
   -1.7827   -0.5479   -0.2308 C   0  0  0  0  0  0  0  0  0  0  0  0
   -0.6023    0.3565   -0.3793 C   0  0  0  0  0  0  0  0  0  0  0  0
   -0.8275    1.4453   -1.4388 C   0  0  0  0  0  0  0  0  0  0  0  0
    0.1574    0.8503    0.8114 C   0  0  0  0  0  0  0  0  0  0  0  0
    0.7783    2.2277    0.7927 C   0  0  0  0  0  0  0  0  0  0  0  0
    0.7824   -0.1188   -0.1955 C   0  0  0  0  0  0  0  0  0  0  0  0
    1.0871   -1.3414    0.3413 O   0  0  0  0  0  0  0  0  0  0  0  0
    2.2818   -1.8778   -0.0671 C   0  0  0  0  0  0  0  0  0  0  0  0
   -1.3009   -1.2104    1.7455 H   0  0  0  0  0  0  0  0  0  0  0  0
   -2.6207   -2.0904    0.9488 H   0  0  0  0  0  0  0  0  0  0  0  0
   -0.9711   -2.4469    0.4100 H   0  0  0  0  0  0  0  0  0  0  0  0
   -1.9547   -1.0360   -1.2291 H   0  0  0  0  0  0  0  0  0  0  0  0
   -2.6884    0.0556   -0.0310 H   0  0  0  0  0  0  0  0  0  0  0  0
   -0.1854    2.3179   -1.2725 H   0  0  0  0  0  0  0  0  0  0  0  0
   -1.8863    1.8085   -1.3046 H   0  0  0  0  0  0  0  0  0  0  0  0
   -0.7714    1.0309   -2.4603 H   0  0  0  0  0  0  0  0  0  0  0  0
   -0.1538    0.4754    1.7900 H   0  0  0  0  0  0  0  0  0  0  0  0
    0.0382    3.0355    0.7624 H   0  0  0  0  0  0  0  0  0  0  0  0
    1.4461    2.2851    1.6982 H   0  0  0  0  0  0  0  0  0  0  0  0
    1.4635    2.3586   -0.0722 H   0  0  0  0  0  0  0  0  0  0  0  0
    1.5465    0.2787   -0.8938 H   0  0  0  0  0  0  0  0  0  0  0  0
    2.2625   -2.0071   -1.1635 H   0  0  0  0  0  0  0  0  0  0  0  0
    3.1690   -1.3208    0.2921 H   0  0  0  0  0  0  0  0  0  0  0  0
    2.3533   -2.9045    0.3628 H   0  0  0  0  0  0  0  0  0  0  0  0
  1  2  1  0
  2  3  1  0
  3  4  1  0
  3  5  1  0
  5  6  1  0
  5  7  1  0
  7  8  1  0
  8  9  1  0
  7  3  1  0
  1 10  1  0
  1 11  1  0
  1 12  1  0
  2 13  1  0
  2 14  1  0
  4 15  1  0
  4 16  1  0
  4 17  1  0
  5 18  1  0
  6 19  1  0
  6 20  1  0
  6 21  1  0
  7 22  1  0
  9 23  1  0
  9 24  1  0
  9 25  1  0
M  END
