
     RDKit          3D

 22 22  0  0  0  0  0  0  0  0999 V2000
    3.3486    0.6190    0.2656 C   0  0  0  0  0  0  0  0  0  0  0  0
    2.2134   -0.0339   -0.5353 C   0  0  0  0  0  0  0  0  0  0  0  0
    0.9799   -0.1903    0.3460 C   0  0  0  0  0  0  0  0  0  0  0  0
    0.5364    1.0637    0.8133 O   0  0  0  0  0  0  0  0  0  0  0  0
   -0.2653    0.2655   -0.1551 C   0  0  0  0  0  0  0  0  0  0  0  0
   -1.6189   -0.0260    0.3641 C   0  0  0  0  0  0  0  0  0  0  0  0
   -2.7093    0.6652   -0.4688 C   0  0  0  0  0  0  0  0  0  0  0  0
   -1.9565   -1.4939    0.4419 C   0  0  0  0  0  0  0  0  0  0  0  0
    3.3942    0.1904    1.2846 H   0  0  0  0  0  0  0  0  0  0  0  0
    3.2320    1.7098    0.3203 H   0  0  0  0  0  0  0  0  0  0  0  0
    4.3236    0.3910   -0.2131 H   0  0  0  0  0  0  0  0  0  0  0  0
    2.0157    0.6533   -1.3889 H   0  0  0  0  0  0  0  0  0  0  0  0
    2.5854   -1.0105   -0.8567 H   0  0  0  0  0  0  0  0  0  0  0  0
    1.0774   -1.0231    1.0458 H   0  0  0  0  0  0  0  0  0  0  0  0
   -0.2784    0.7565   -1.1732 H   0  0  0  0  0  0  0  0  0  0  0  0
   -1.7634    0.3739    1.3890 H   0  0  0  0  0  0  0  0  0  0  0  0
   -3.6675    0.5797    0.0495 H   0  0  0  0  0  0  0  0  0  0  0  0
   -2.7364    0.2859   -1.4895 H   0  0  0  0  0  0  0  0  0  0  0  0
   -2.4007    1.7376   -0.5280 H   0  0  0  0  0  0  0  0  0  0  0  0
   -3.0734   -1.5477    0.5539 H   0  0  0  0  0  0  0  0  0  0  0  0
   -1.5404   -1.9049    1.3837 H   0  0  0  0  0  0  0  0  0  0  0  0
   -1.6963   -2.0611   -0.4507 H   0  0  0  0  0  0  0  0  0  0  0  0
  1  2  1  0
  2  3  1  0
  3  4  1  0
  4  5  1  0
  5  6  1  0
  6  7  1  0
  6  8  1  0
  5  3  1  0
  1  9  1  0
  1 10  1  0
  1 11  1  0
  2 12  1  0
  2 13  1  0
  3 14  1  0
  5 15  1  0
  6 16  1  0
  7 17  1  0
  7 18  1  0
  7 19  1  0
  8 20  1  0
  8 21  1  0
  8 22  1  0
M  END
