
     RDKit          3D

 20 21  0  0  0  0  0  0  0  0999 V2000
   -2.5038    0.3255    0.7099 C   0  0  0  0  0  0  0  0  0  0  0  0
   -1.8045   -0.7846   -0.0019 C   0  0  0  0  0  0  0  0  0  0  0  0
   -0.3406   -0.5174   -0.1539 C   0  0  0  0  0  0  0  0  0  0  0  0
    0.6721   -1.2281    0.3021 C   0  0  0  0  0  0  0  0  0  0  0  0
    1.9766   -0.6462   -0.0491 C   0  0  0  0  0  0  0  0  0  0  0  0
    2.3045    0.7024    0.4385 C   0  0  0  0  0  0  0  0  0  0  0  0
    1.6290    0.4972   -0.9078 C   0  0  0  0  0  0  0  0  0  0  0  0
    0.1606    0.6648   -0.8868 C   0  0  0  0  0  0  0  0  0  0  0  0
   -1.8224    1.2028    0.8833 H   0  0  0  0  0  0  0  0  0  0  0  0
   -3.4024    0.7055    0.1945 H   0  0  0  0  0  0  0  0  0  0  0  0
   -2.8421    0.0118    1.7406 H   0  0  0  0  0  0  0  0  0  0  0  0
   -1.8963   -1.7238    0.5784 H   0  0  0  0  0  0  0  0  0  0  0  0
   -2.2975   -0.9382   -0.9882 H   0  0  0  0  0  0  0  0  0  0  0  0
    0.4899   -2.1626    0.8862 H   0  0  0  0  0  0  0  0  0  0  0  0
    2.8327   -1.3214   -0.2891 H   0  0  0  0  0  0  0  0  0  0  0  0
    3.3180    1.1212    0.3478 H   0  0  0  0  0  0  0  0  0  0  0  0
    1.6958    1.1019    1.2741 H   0  0  0  0  0  0  0  0  0  0  0  0
    2.2234    0.6349   -1.8345 H   0  0  0  0  0  0  0  0  0  0  0  0
   -0.0782    1.6212   -0.3596 H   0  0  0  0  0  0  0  0  0  0  0  0
   -0.3146    0.7331   -1.8845 H   0  0  0  0  0  0  0  0  0  0  0  0
  1  2  1  0
  2  3  1  0
  3  4  2  0
  4  5  1  0
  5  6  1  0
  6  7  1  0
  7  8  1  0
  8  3  1  0
  7  5  1  0
  1  9  1  0
  1 10  1  0
  1 11  1  0
  2 12  1  0
  2 13  1  0
  4 14  1  0
  5 15  1  0
  6 16  1  0
  6 17  1  0
  7 18  1  0
  8 19  1  0
  8 20  1  0
M  END
