
     RDKit          3D

 21 22  0  0  0  0  0  0  0  0999 V2000
    2.8365    0.3822    0.1785 C   0  0  0  0  0  0  0  0  0  0  0  0
    1.7313    0.4509   -0.8523 C   0  0  0  0  0  0  0  0  0  0  0  0
    0.4921   -0.2153   -0.3822 C   0  0  0  0  0  0  0  0  0  0  0  0
   -0.6745    0.3847   -0.2420 C   0  0  0  0  0  0  0  0  0  0  0  0
   -1.8888    1.2573   -0.1568 C   0  0  0  0  0  0  0  0  0  0  0  0
   -2.5039    0.2625    0.8626 C   0  0  0  0  0  0  0  0  0  0  0  0
   -1.5968   -0.7325    0.2074 C   0  0  0  0  0  0  0  0  0  0  0  0
   -0.7185   -1.4478    1.0099 O   0  0  0  0  0  0  0  0  0  0  0  0
    0.3082   -1.6433    0.0392 C   0  0  0  0  0  0  0  0  0  0  0  0
    3.2501   -0.6312    0.2885 H   0  0  0  0  0  0  0  0  0  0  0  0
    3.6489    1.0649   -0.1334 H   0  0  0  0  0  0  0  0  0  0  0  0
    2.4184    0.7688    1.1296 H   0  0  0  0  0  0  0  0  0  0  0  0
    2.0394   -0.0167   -1.8164 H   0  0  0  0  0  0  0  0  0  0  0  0
    1.5741    1.5252   -1.0748 H   0  0  0  0  0  0  0  0  0  0  0  0
   -2.4726    1.3406   -1.0851 H   0  0  0  0  0  0  0  0  0  0  0  0
   -1.7058    2.2450    0.3349 H   0  0  0  0  0  0  0  0  0  0  0  0
   -3.5754    0.0798    0.6964 H   0  0  0  0  0  0  0  0  0  0  0  0
   -2.1988    0.5419    1.8901 H   0  0  0  0  0  0  0  0  0  0  0  0
   -2.0042   -1.3282   -0.6031 H   0  0  0  0  0  0  0  0  0  0  0  0
   -0.1562   -2.2074   -0.7708 H   0  0  0  0  0  0  0  0  0  0  0  0
    1.1965   -2.0813    0.4799 H   0  0  0  0  0  0  0  0  0  0  0  0
  1  2  1  0
  2  3  1  0
  3  4  2  0
  4  5  1  0
  5  6  1  0
  6  7  1  0
  7  8  1  0
  8  9  1  0
  9  3  1  0
  7  4  1  0
  1 10  1  0
  1 11  1  0
  1 12  1  0
  2 13  1  0
  2 14  1  0
  5 15  1  0
  5 16  1  0
  6 17  1  0
  6 18  1  0
  7 19  1  0
  9 20  1  0
  9 21  1  0
M  END
