
     RDKit          3D

 19 20  0  0  0  0  0  0  0  0999 V2000
    2.3382    0.3801   -0.1268 C   0  0  0  0  0  0  0  0  0  0  0  0
    0.9161    0.7801    0.1334 C   0  0  0  0  0  0  0  0  0  0  0  0
   -0.0831   -0.0576   -0.6269 C   0  0  0  0  0  0  0  0  0  0  0  0
   -0.0113   -1.5137   -0.2946 C   0  0  0  0  0  0  0  0  0  0  0  0
   -1.2853   -1.2639    0.5311 C   0  0  0  0  0  0  0  0  0  0  0  0
   -2.3511   -1.0827   -0.3037 O   0  0  0  0  0  0  0  0  0  0  0  0
   -1.4198   -0.0125    0.0851 C   0  0  0  0  0  0  0  0  0  0  0  0
   -2.1078    1.2103    0.3626 C   0  0  0  0  0  0  0  0  0  0  0  0
   -1.5624    2.2623    0.7095 O   0  0  0  0  0  0  0  0  0  0  0  0
    2.5089    0.1413   -1.1759 H   0  0  0  0  0  0  0  0  0  0  0  0
    2.9771    1.2743    0.1156 H   0  0  0  0  0  0  0  0  0  0  0  0
    2.5912   -0.4305    0.5833 H   0  0  0  0  0  0  0  0  0  0  0  0
    0.7507    0.7786    1.2149 H   0  0  0  0  0  0  0  0  0  0  0  0
    0.8118    1.8419   -0.2063 H   0  0  0  0  0  0  0  0  0  0  0  0
   -0.2036    0.2194   -1.6803 H   0  0  0  0  0  0  0  0  0  0  0  0
   -0.1969   -2.1322   -1.2035 H   0  0  0  0  0  0  0  0  0  0  0  0
    0.8376   -1.8743    0.2723 H   0  0  0  0  0  0  0  0  0  0  0  0
   -1.3272   -1.8157    1.4610 H   0  0  0  0  0  0  0  0  0  0  0  0
   -3.1831    1.2948    0.2841 H   0  0  0  0  0  0  0  0  0  0  0  0
  1  2  1  0
  2  3  1  0
  3  4  1  0
  4  5  1  0
  5  6  1  0
  6  7  1  0
  7  8  1  0
  8  9  2  0
  7  3  1  0
  7  5  1  0
  1 10  1  0
  1 11  1  0
  1 12  1  0
  2 13  1  0
  2 14  1  0
  3 15  1  0
  4 16  1  0
  4 17  1  0
  5 18  1  0
  8 19  1  0
M  END
