
     RDKit          3D

 21 21  0  0  0  0  0  0  0  0999 V2000
   -2.1697    0.8044    0.3624 C   0  0  0  0  0  0  0  0  0  0  0  0
   -1.0650    0.4913   -0.5738 C   0  0  0  0  0  0  0  0  0  0  0  0
    0.0010   -0.4127   -0.0511 C   0  0  0  0  0  0  0  0  0  0  0  0
   -0.4811   -1.7775    0.3715 C   0  0  0  0  0  0  0  0  0  0  0  0
    0.9918    0.1331    0.9125 C   0  0  0  0  0  0  0  0  0  0  0  0
    1.7151    0.6710   -0.2834 C   0  0  0  0  0  0  0  0  0  0  0  0
    3.1077    0.6275   -0.2059 O   0  0  0  0  0  0  0  0  0  0  0  0
    1.1234   -0.4754   -1.0376 C   0  0  0  0  0  0  0  0  0  0  0  0
    1.4163   -1.1560   -2.0128 O   0  0  0  0  0  0  0  0  0  0  0  0
   -1.8759    0.9046    1.4209 H   0  0  0  0  0  0  0  0  0  0  0  0
   -2.9867    0.0326    0.3505 H   0  0  0  0  0  0  0  0  0  0  0  0
   -2.6592    1.7625    0.0865 H   0  0  0  0  0  0  0  0  0  0  0  0
   -0.6536    1.4276   -1.0054 H   0  0  0  0  0  0  0  0  0  0  0  0
   -1.5309   -0.0424   -1.4574 H   0  0  0  0  0  0  0  0  0  0  0  0
   -0.6518   -2.4189   -0.5350 H   0  0  0  0  0  0  0  0  0  0  0  0
   -1.4929   -1.6741    0.8432 H   0  0  0  0  0  0  0  0  0  0  0  0
    0.2330   -2.2503    1.0671 H   0  0  0  0  0  0  0  0  0  0  0  0
    1.5645   -0.6883    1.3891 H   0  0  0  0  0  0  0  0  0  0  0  0
    0.6515    0.8546    1.6614 H   0  0  0  0  0  0  0  0  0  0  0  0
    1.3393    1.6655   -0.6415 H   0  0  0  0  0  0  0  0  0  0  0  0
    3.4233    1.5208    0.0842 H   0  0  0  0  0  0  0  0  0  0  0  0
  1  2  1  0
  2  3  1  0
  3  4  1  0
  3  5  1  0
  5  6  1  0
  6  7  1  0
  6  8  1  0
  8  9  2  0
  8  3  1  0
  1 10  1  0
  1 11  1  0
  1 12  1  0
  2 13  1  0
  2 14  1  0
  4 15  1  0
  4 16  1  0
  4 17  1  0
  5 18  1  0
  5 19  1  0
  6 20  1  0
  7 21  1  0
M  END
