
     RDKit          3D

 21 22  0  0  0  0  0  0  0  0999 V2000
    2.4962    0.1929    0.4581 C   0  0  0  0  0  0  0  0  0  0  0  0
    1.3286    0.2895   -0.5197 C   0  0  0  0  0  0  0  0  0  0  0  0
    0.2632   -0.6227   -0.0077 C   0  0  0  0  0  0  0  0  0  0  0  0
   -0.9812   -0.6224   -0.9069 C   0  0  0  0  0  0  0  0  0  0  0  0
   -1.1964    0.8519   -0.9738 C   0  0  0  0  0  0  0  0  0  0  0  0
   -1.0083    1.2685    0.3000 C   0  0  0  0  0  0  0  0  0  0  0  0
   -0.4821    0.1272    1.1129 C   0  0  0  0  0  0  0  0  0  0  0  0
   -1.5108   -0.7725    1.3625 O   0  0  0  0  0  0  0  0  0  0  0  0
   -1.9906   -1.1355    0.0946 C   0  0  0  0  0  0  0  0  0  0  0  0
    2.0999    0.1111    1.4874 H   0  0  0  0  0  0  0  0  0  0  0  0
    3.0925    1.1083    0.3215 H   0  0  0  0  0  0  0  0  0  0  0  0
    3.0698   -0.7253    0.2184 H   0  0  0  0  0  0  0  0  0  0  0  0
    1.0231    1.3540   -0.5409 H   0  0  0  0  0  0  0  0  0  0  0  0
    1.6766    0.0330   -1.5532 H   0  0  0  0  0  0  0  0  0  0  0  0
    0.5877   -1.6007    0.2984 H   0  0  0  0  0  0  0  0  0  0  0  0
   -0.8861   -1.1418   -1.8189 H   0  0  0  0  0  0  0  0  0  0  0  0
   -1.4416    1.4529   -1.8185 H   0  0  0  0  0  0  0  0  0  0  0  0
   -1.2270    2.2834    0.6060 H   0  0  0  0  0  0  0  0  0  0  0  0
    0.1306    0.3909    1.9412 H   0  0  0  0  0  0  0  0  0  0  0  0
   -2.0952   -2.2325   -0.0089 H   0  0  0  0  0  0  0  0  0  0  0  0
   -2.9490   -0.6102   -0.0522 H   0  0  0  0  0  0  0  0  0  0  0  0
  1  2  1  0
  2  3  1  0
  3  4  1  0
  4  5  1  0
  5  6  2  0
  6  7  1  0
  7  8  1  0
  8  9  1  0
  7  3  1  0
  9  4  1  0
  1 10  1  0
  1 11  1  0
  1 12  1  0
  2 13  1  0
  2 14  1  0
  3 15  1  0
  4 16  1  0
  5 17  1  0
  6 18  1  0
  7 19  1  0
  9 20  1  0
  9 21  1  0
M  END
