
     RDKit          3D

 23 23  0  0  0  0  0  0  0  0999 V2000
    2.1865   -0.7735   -0.2676 C   0  0  0  0  0  0  0  0  0  0  0  0
    1.6047    0.5408    0.0875 C   0  0  0  0  0  0  0  0  0  0  0  0
    0.1025    0.5717    0.1375 C   0  0  0  0  0  0  0  0  0  0  0  0
   -0.2982    1.9630    0.5075 C   0  0  0  0  0  0  0  0  0  0  0  0
    0.0381    2.8556   -0.2538 O   0  0  0  0  0  0  0  0  0  0  0  0
   -0.5553    0.2389   -1.1596 C   0  0  0  0  0  0  0  0  0  0  0  0
   -1.8727   -0.3845   -0.6917 C   0  0  0  0  0  0  0  0  0  0  0  0
   -1.3410   -1.3256    0.3915 C   0  0  0  0  0  0  0  0  0  0  0  0
   -0.4766   -0.3528    1.1700 C   0  0  0  0  0  0  0  0  0  0  0  0
    3.1387   -0.9089    0.3239 H   0  0  0  0  0  0  0  0  0  0  0  0
    1.5773   -1.6488   -0.0699 H   0  0  0  0  0  0  0  0  0  0  0  0
    2.5272   -0.7865   -1.3412 H   0  0  0  0  0  0  0  0  0  0  0  0
    1.9190    1.3340   -0.6311 H   0  0  0  0  0  0  0  0  0  0  0  0
    1.9650    0.8559    1.0978 H   0  0  0  0  0  0  0  0  0  0  0  0
   -0.8512    2.2228    1.3811 H   0  0  0  0  0  0  0  0  0  0  0  0
   -0.8230    1.1475   -1.7568 H   0  0  0  0  0  0  0  0  0  0  0  0
   -0.0506   -0.5224   -1.7589 H   0  0  0  0  0  0  0  0  0  0  0  0
   -2.5298    0.3872   -0.2450 H   0  0  0  0  0  0  0  0  0  0  0  0
   -2.4034   -0.9008   -1.4817 H   0  0  0  0  0  0  0  0  0  0  0  0
   -2.1686   -1.7319    1.0152 H   0  0  0  0  0  0  0  0  0  0  0  0
   -0.7778   -2.1087   -0.1127 H   0  0  0  0  0  0  0  0  0  0  0  0
   -1.1889    0.1838    1.8642 H   0  0  0  0  0  0  0  0  0  0  0  0
    0.2783   -0.8571    1.7938 H   0  0  0  0  0  0  0  0  0  0  0  0
  1  2  1  0
  2  3  1  0
  3  4  1  0
  4  5  2  0
  3  6  1  0
  6  7  1  0
  7  8  1  0
  8  9  1  0
  9  3  1  0
  1 10  1  0
  1 11  1  0
  1 12  1  0
  2 13  1  0
  2 14  1  0
  4 15  1  0
  6 16  1  0
  6 17  1  0
  7 18  1  0
  7 19  1  0
  8 20  1  0
  8 21  1  0
  9 22  1  0
  9 23  1  0
M  END
