
     RDKit          3D

 21 21  0  0  0  0  0  0  0  0999 V2000
    2.6436    0.1122   -0.4563 C   0  0  0  0  0  0  0  0  0  0  0  0
    1.4317    0.0073    0.4059 C   0  0  0  0  0  0  0  0  0  0  0  0
    0.1689    0.4669   -0.2734 C   0  0  0  0  0  0  0  0  0  0  0  0
   -1.0798    0.3569    0.6195 C   0  0  0  0  0  0  0  0  0  0  0  0
   -1.9886    1.5596    0.6668 C   0  0  0  0  0  0  0  0  0  0  0  0
   -0.9219   -0.4365   -0.6273 C   0  0  0  0  0  0  0  0  0  0  0  0
   -0.8344   -1.9339   -0.4969 C   0  0  0  0  0  0  0  0  0  0  0  0
    3.2273    1.0514   -0.2359 H   0  0  0  0  0  0  0  0  0  0  0  0
    2.4385    0.1308   -1.5380 H   0  0  0  0  0  0  0  0  0  0  0  0
    3.3446   -0.7212   -0.1734 H   0  0  0  0  0  0  0  0  0  0  0  0
    1.3065   -0.9934    0.8676 H   0  0  0  0  0  0  0  0  0  0  0  0
    1.5757    0.7027    1.2854 H   0  0  0  0  0  0  0  0  0  0  0  0
    0.2745    1.3966   -0.8734 H   0  0  0  0  0  0  0  0  0  0  0  0
   -0.9811   -0.1985    1.5739 H   0  0  0  0  0  0  0  0  0  0  0  0
   -2.7495    1.5713   -0.1236 H   0  0  0  0  0  0  0  0  0  0  0  0
   -2.5149    1.6406    1.6427 H   0  0  0  0  0  0  0  0  0  0  0  0
   -1.3182    2.4658    0.6215 H   0  0  0  0  0  0  0  0  0  0  0  0
   -1.5936   -0.1283   -1.4774 H   0  0  0  0  0  0  0  0  0  0  0  0
    0.1636   -2.2925   -0.2086 H   0  0  0  0  0  0  0  0  0  0  0  0
   -1.5375   -2.3251    0.2850 H   0  0  0  0  0  0  0  0  0  0  0  0
   -1.0554   -2.4328   -1.4839 H   0  0  0  0  0  0  0  0  0  0  0  0
  1  2  1  0
  2  3  1  0
  3  4  1  0
  4  5  1  0
  4  6  1  0
  6  7  1  0
  6  3  1  0
  1  8  1  0
  1  9  1  0
  1 10  1  0
  2 11  1  0
  2 12  1  0
  3 13  1  0
  4 14  1  0
  5 15  1  0
  5 16  1  0
  5 17  1  0
  6 18  1  0
  7 19  1  0
  7 20  1  0
  7 21  1  0
M  END
