
     RDKit          3D

 21 21  0  0  0  0  0  0  0  0999 V2000
   -2.0395    1.0708    0.5209 C   0  0  0  0  0  0  0  0  0  0  0  0
   -1.7884   -0.4289    0.4834 C   0  0  0  0  0  0  0  0  0  0  0  0
   -0.5996   -0.7352   -0.3629 C   0  0  0  0  0  0  0  0  0  0  0  0
   -0.6890   -0.3303   -1.6978 O   0  0  0  0  0  0  0  0  0  0  0  0
    0.3082   -1.8622   -0.0933 C   0  0  0  0  0  0  0  0  0  0  0  0
    0.7682   -0.5279    0.3327 C   0  0  0  0  0  0  0  0  0  0  0  0
    1.7179    0.2770   -0.4236 C   0  0  0  0  0  0  0  0  0  0  0  0
    2.5718    1.2824    0.2460 C   0  0  0  0  0  0  0  0  0  0  0  0
    1.8135    0.1241   -1.6213 O   0  0  0  0  0  0  0  0  0  0  0  0
   -1.7320    1.5335    1.4640 H   0  0  0  0  0  0  0  0  0  0  0  0
   -1.5391    1.5740   -0.3515 H   0  0  0  0  0  0  0  0  0  0  0  0
   -3.1364    1.2405    0.4116 H   0  0  0  0  0  0  0  0  0  0  0  0
   -1.5741   -0.7553    1.5326 H   0  0  0  0  0  0  0  0  0  0  0  0
   -2.7034   -0.9692    0.1808 H   0  0  0  0  0  0  0  0  0  0  0  0
   -1.4040   -0.8874   -2.1385 H   0  0  0  0  0  0  0  0  0  0  0  0
    0.0216   -2.5998    0.6683 H   0  0  0  0  0  0  0  0  0  0  0  0
    0.8352   -2.3363   -0.9665 H   0  0  0  0  0  0  0  0  0  0  0  0
    0.7236   -0.3420    1.4408 H   0  0  0  0  0  0  0  0  0  0  0  0
    2.4216    1.2889    1.3442 H   0  0  0  0  0  0  0  0  0  0  0  0
    2.3865    2.3185   -0.0924 H   0  0  0  0  0  0  0  0  0  0  0  0
    3.6377    1.0648    0.0223 H   0  0  0  0  0  0  0  0  0  0  0  0
  1  2  1  0
  2  3  1  0
  3  4  1  0
  3  5  1  0
  5  6  1  0
  6  7  1  0
  7  8  1  0
  7  9  2  0
  6  3  1  0
  1 10  1  0
  1 11  1  0
  1 12  1  0
  2 13  1  0
  2 14  1  0
  4 15  1  0
  5 16  1  0
  5 17  1  0
  6 18  1  0
  8 19  1  0
  8 20  1  0
  8 21  1  0
M  END
