
     RDKit          3D

 25 25  0  0  0  0  0  0  0  0999 V2000
   -2.3665    1.3508    0.0302 C   0  0  0  0  0  0  0  0  0  0  0  0
   -1.4703    0.4301    0.8122 C   0  0  0  0  0  0  0  0  0  0  0  0
   -0.3276   -0.1140    0.0134 C   0  0  0  0  0  0  0  0  0  0  0  0
   -0.8456   -0.9121   -1.1857 C   0  0  0  0  0  0  0  0  0  0  0  0
    0.4776   -1.0275    0.8825 C   0  0  0  0  0  0  0  0  0  0  0  0
    1.9363   -0.9945    0.6734 C   0  0  0  0  0  0  0  0  0  0  0  0
    2.4516   -0.0397   -0.3269 C   0  0  0  0  0  0  0  0  0  0  0  0
    1.5543    0.4051   -1.2584 O   0  0  0  0  0  0  0  0  0  0  0  0
    0.4982    1.0231   -0.5672 C   0  0  0  0  0  0  0  0  0  0  0  0
   -1.8430    2.2383   -0.3482 H   0  0  0  0  0  0  0  0  0  0  0  0
   -3.1354    1.7280    0.7525 H   0  0  0  0  0  0  0  0  0  0  0  0
   -2.9286    0.8461   -0.7748 H   0  0  0  0  0  0  0  0  0  0  0  0
   -1.0508    1.0183    1.6527 H   0  0  0  0  0  0  0  0  0  0  0  0
   -2.0523   -0.3946    1.2236 H   0  0  0  0  0  0  0  0  0  0  0  0
   -0.3973   -0.5974   -2.1262 H   0  0  0  0  0  0  0  0  0  0  0  0
   -1.9304   -0.8675   -1.2745 H   0  0  0  0  0  0  0  0  0  0  0  0
   -0.5879   -2.0048   -1.0622 H   0  0  0  0  0  0  0  0  0  0  0  0
    0.2651   -0.8014    1.9686 H   0  0  0  0  0  0  0  0  0  0  0  0
    0.0497   -2.0646    0.7448 H   0  0  0  0  0  0  0  0  0  0  0  0
    2.2722   -2.0294    0.3673 H   0  0  0  0  0  0  0  0  0  0  0  0
    2.4954   -0.8167    1.6396 H   0  0  0  0  0  0  0  0  0  0  0  0
    2.8733    0.8711    0.1882 H   0  0  0  0  0  0  0  0  0  0  0  0
    3.3416   -0.4753   -0.8672 H   0  0  0  0  0  0  0  0  0  0  0  0
   -0.1363    1.5028   -1.3511 H   0  0  0  0  0  0  0  0  0  0  0  0
    0.8565    1.7257    0.1933 H   0  0  0  0  0  0  0  0  0  0  0  0
  1  2  1  0
  2  3  1  0
  3  4  1  0
  3  5  1  0
  5  6  1  0
  6  7  1  0
  7  8  1  0
  8  9  1  0
  9  3  1  0
  1 10  1  0
  1 11  1  0
  1 12  1  0
  2 13  1  0
  2 14  1  0
  4 15  1  0
  4 16  1  0
  4 17  1  0
  5 18  1  0
  5 19  1  0
  6 20  1  0
  6 21  1  0
  7 22  1  0
  7 23  1  0
  9 24  1  0
  9 25  1  0
M  END
