
     RDKit          3D

 19 19  0  0  0  0  0  0  0  0999 V2000
    1.7513    1.0847    0.2893 C   0  0  0  0  0  0  0  0  0  0  0  0
    1.8502   -0.3841   -0.0890 C   0  0  0  0  0  0  0  0  0  0  0  0
    0.5150   -0.9450   -0.5032 C   0  0  0  0  0  0  0  0  0  0  0  0
   -0.4827   -0.8185    0.6457 C   0  0  0  0  0  0  0  0  0  0  0  0
   -1.4177   -0.4803   -0.5023 C   0  0  0  0  0  0  0  0  0  0  0  0
   -2.3071    0.6915   -0.1742 C   0  0  0  0  0  0  0  0  0  0  0  0
   -0.2905   -0.0972   -1.2277 O   0  0  0  0  0  0  0  0  0  0  0  0
    1.3369    1.2494    1.2849 H   0  0  0  0  0  0  0  0  0  0  0  0
    2.8177    1.4593    0.2834 H   0  0  0  0  0  0  0  0  0  0  0  0
    1.2276    1.6763   -0.4970 H   0  0  0  0  0  0  0  0  0  0  0  0
    2.2764   -0.9005    0.7909 H   0  0  0  0  0  0  0  0  0  0  0  0
    2.5922   -0.4561   -0.9103 H   0  0  0  0  0  0  0  0  0  0  0  0
    0.6356   -1.9695   -0.8996 H   0  0  0  0  0  0  0  0  0  0  0  0
   -0.6982   -1.7682    1.1571 H   0  0  0  0  0  0  0  0  0  0  0  0
   -0.3229    0.0636    1.2634 H   0  0  0  0  0  0  0  0  0  0  0  0
   -1.9403   -1.3697   -0.8568 H   0  0  0  0  0  0  0  0  0  0  0  0
   -2.6902    1.2139   -1.0715 H   0  0  0  0  0  0  0  0  0  0  0  0
   -3.1581    0.3338    0.4594 H   0  0  0  0  0  0  0  0  0  0  0  0
   -1.6954    1.4165    0.3994 H   0  0  0  0  0  0  0  0  0  0  0  0
  1  2  1  0
  2  3  1  0
  3  4  1  0
  4  5  1  0
  5  6  1  0
  5  7  1  0
  7  3  1  0
  1  8  1  0
  1  9  1  0
  1 10  1  0
  2 11  1  0
  2 12  1  0
  3 13  1  0
  4 14  1  0
  4 15  1  0
  5 16  1  0
  6 17  1  0
  6 18  1  0
  6 19  1  0
M  END
