
     RDKit          3D

 19 20  0  0  0  0  0  0  0  0999 V2000
   -2.8035    0.0297    0.8187 C   0  0  0  0  0  0  0  0  0  0  0  0
   -1.6627   -0.1094   -0.1475 C   0  0  0  0  0  0  0  0  0  0  0  0
   -0.3234    0.2375    0.4818 C   0  0  0  0  0  0  0  0  0  0  0  0
    0.8308    0.1179   -0.4228 C   0  0  0  0  0  0  0  0  0  0  0  0
    2.1603    0.7405   -0.0932 C   0  0  0  0  0  0  0  0  0  0  0  0
    2.7638   -0.1587    0.9058 C   0  0  0  0  0  0  0  0  0  0  0  0
    4.0082   -0.2572    1.0836 O   0  0  0  0  0  0  0  0  0  0  0  0
    1.7186   -0.8042    1.5373 O   0  0  0  0  0  0  0  0  0  0  0  0
    0.6116   -0.8853    0.6910 C   0  0  0  0  0  0  0  0  0  0  0  0
   -2.7694   -0.7306    1.5956 H   0  0  0  0  0  0  0  0  0  0  0  0
   -2.7982    1.0429    1.2988 H   0  0  0  0  0  0  0  0  0  0  0  0
   -3.7433   -0.0232    0.2329 H   0  0  0  0  0  0  0  0  0  0  0  0
   -1.8208    0.5315   -1.0333 H   0  0  0  0  0  0  0  0  0  0  0  0
   -1.6487   -1.1651   -0.4964 H   0  0  0  0  0  0  0  0  0  0  0  0
   -0.3499    0.9935    1.2947 H   0  0  0  0  0  0  0  0  0  0  0  0
    0.6989   -0.1966   -1.4672 H   0  0  0  0  0  0  0  0  0  0  0  0
    2.8107    0.8037   -0.9623 H   0  0  0  0  0  0  0  0  0  0  0  0
    2.0529    1.7393    0.3936 H   0  0  0  0  0  0  0  0  0  0  0  0
    0.2642   -1.9062    0.4192 H   0  0  0  0  0  0  0  0  0  0  0  0
  1  2  1  0
  2  3  1  0
  3  4  1  0
  4  5  1  0
  5  6  1  0
  6  7  2  0
  6  8  1  0
  8  9  1  0
  9  3  1  0
  9  4  1  0
  1 10  1  0
  1 11  1  0
  1 12  1  0
  2 13  1  0
  2 14  1  0
  3 15  1  0
  4 16  1  0
  5 17  1  0
  5 18  1  0
  9 19  1  0
M  END
