
     RDKit          3D

 20 21  0  0  0  0  0  0  0  0999 V2000
    2.4297    0.4915    0.3249 C   0  0  0  0  0  0  0  0  0  0  0  0
    1.2569   -0.4399    0.4962 C   0  0  0  0  0  0  0  0  0  0  0  0
    0.2883   -0.3971   -0.6429 C   0  0  0  0  0  0  0  0  0  0  0  0
    0.8466   -0.7462   -1.8756 O   0  0  0  0  0  0  0  0  0  0  0  0
   -1.0840   -0.8477   -0.3677 C   0  0  0  0  0  0  0  0  0  0  0  0
   -1.9662   -0.3065    0.6795 C   0  0  0  0  0  0  0  0  0  0  0  0
   -1.4976    1.1202    0.4641 C   0  0  0  0  0  0  0  0  0  0  0  0
   -0.7689    0.6289   -0.7501 C   0  0  0  0  0  0  0  0  0  0  0  0
    3.1300    0.1494   -0.4512 H   0  0  0  0  0  0  0  0  0  0  0  0
    2.1310    1.5291    0.1131 H   0  0  0  0  0  0  0  0  0  0  0  0
    2.9902    0.5092    1.2816 H   0  0  0  0  0  0  0  0  0  0  0  0
    1.6929   -1.4718    0.5549 H   0  0  0  0  0  0  0  0  0  0  0  0
    0.7773   -0.2739    1.4837 H   0  0  0  0  0  0  0  0  0  0  0  0
    0.5623   -1.6763   -2.1292 H   0  0  0  0  0  0  0  0  0  0  0  0
   -1.5705   -1.4620   -1.1539 H   0  0  0  0  0  0  0  0  0  0  0  0
   -1.8387   -0.6546    1.7172 H   0  0  0  0  0  0  0  0  0  0  0  0
   -3.0500   -0.3721    0.4141 H   0  0  0  0  0  0  0  0  0  0  0  0
   -0.8727    1.4465    1.3160 H   0  0  0  0  0  0  0  0  0  0  0  0
   -2.2893    1.8401    0.2410 H   0  0  0  0  0  0  0  0  0  0  0  0
   -1.1675    0.9330   -1.7159 H   0  0  0  0  0  0  0  0  0  0  0  0
  1  2  1  0
  2  3  1  0
  3  4  1  0
  3  5  1  0
  5  6  1  0
  6  7  1  0
  7  8  1  0
  8  3  1  0
  8  5  1  0
  1  9  1  0
  1 10  1  0
  1 11  1  0
  2 12  1  0
  2 13  1  0
  4 14  1  0
  5 15  1  0
  6 16  1  0
  6 17  1  0
  7 18  1  0
  7 19  1  0
  8 20  1  0
M  END
