
     RDKit          3D

 16 17  0  0  0  0  0  0  0  0999 V2000
    2.0380   -0.2134    0.4809 C   0  0  0  0  0  0  0  0  0  0  0  0
    0.8062    0.5451    0.9454 C   0  0  0  0  0  0  0  0  0  0  0  0
   -0.0613    0.8696   -0.2834 C   0  0  0  0  0  0  0  0  0  0  0  0
   -0.5702   -0.1886   -1.0865 C   0  0  0  0  0  0  0  0  0  0  0  0
   -1.8511   -0.2560   -1.7325 O   0  0  0  0  0  0  0  0  0  0  0  0
   -2.2369   -0.5869   -0.4072 C   0  0  0  0  0  0  0  0  0  0  0  0
   -2.8665   -1.4616    0.1920 O   0  0  0  0  0  0  0  0  0  0  0  0
   -1.4752    0.6868   -0.1248 C   0  0  0  0  0  0  0  0  0  0  0  0
    2.8456    0.5438    0.3749 H   0  0  0  0  0  0  0  0  0  0  0  0
    1.7930   -0.6736   -0.4869 H   0  0  0  0  0  0  0  0  0  0  0  0
    2.3511   -0.9929    1.1944 H   0  0  0  0  0  0  0  0  0  0  0  0
    0.2375   -0.1654    1.5896 H   0  0  0  0  0  0  0  0  0  0  0  0
    1.0403    1.4442    1.5115 H   0  0  0  0  0  0  0  0  0  0  0  0
    0.3884    1.7562   -0.8262 H   0  0  0  0  0  0  0  0  0  0  0  0
   -0.3689   -1.2308   -0.6812 H   0  0  0  0  0  0  0  0  0  0  0  0
   -2.0701    1.4946   -0.6600 H   0  0  0  0  0  0  0  0  0  0  0  0
  1  2  1  0
  2  3  1  0
  3  4  1  0
  4  5  1  0
  5  6  1  0
  6  7  2  0
  6  8  1  0
  8  3  1  0
  8  4  1  0
  1  9  1  0
  1 10  1  0
  1 11  1  0
  2 12  1  0
  2 13  1  0
  3 14  1  0
  4 15  1  0
  8 16  1  0
M  END
