
     RDKit          3D

 23 24  0  0  0  0  0  0  0  0999 V2000
    2.7595    0.2784    0.0203 C   0  0  0  0  0  0  0  0  0  0  0  0
    1.6287   -0.7217    0.2739 C   0  0  0  0  0  0  0  0  0  0  0  0
    0.6008   -0.4721   -0.7719 C   0  0  0  0  0  0  0  0  0  0  0  0
   -0.6300   -1.2750   -0.8154 C   0  0  0  0  0  0  0  0  0  0  0  0
   -1.1922   -0.2030   -1.5177 O   0  0  0  0  0  0  0  0  0  0  0  0
   -0.5284    0.4454   -0.4723 C   0  0  0  0  0  0  0  0  0  0  0  0
   -0.4765    1.8132   -0.2824 C   0  0  0  0  0  0  0  0  0  0  0  0
   -1.1237   -0.5815    0.4017 C   0  0  0  0  0  0  0  0  0  0  0  0
   -2.6430   -0.4843    0.3590 C   0  0  0  0  0  0  0  0  0  0  0  0
    3.7465   -0.1823    0.2368 H   0  0  0  0  0  0  0  0  0  0  0  0
    2.7877    0.5944   -1.0457 H   0  0  0  0  0  0  0  0  0  0  0  0
    2.6310    1.2002    0.6207 H   0  0  0  0  0  0  0  0  0  0  0  0
    1.2930   -0.6823    1.3109 H   0  0  0  0  0  0  0  0  0  0  0  0
    2.0779   -1.7336    0.1203 H   0  0  0  0  0  0  0  0  0  0  0  0
    1.0157   -0.2586   -1.7937 H   0  0  0  0  0  0  0  0  0  0  0  0
   -0.7530   -2.2459   -1.0645 H   0  0  0  0  0  0  0  0  0  0  0  0
   -1.2975    2.3694   -0.8236 H   0  0  0  0  0  0  0  0  0  0  0  0
   -0.5810    2.1328    0.7772 H   0  0  0  0  0  0  0  0  0  0  0  0
    0.4611    2.2868   -0.6448 H   0  0  0  0  0  0  0  0  0  0  0  0
   -0.7007   -0.8130    1.3731 H   0  0  0  0  0  0  0  0  0  0  0  0
   -2.9824    0.1239   -0.5050 H   0  0  0  0  0  0  0  0  0  0  0  0
   -3.0672   -0.0728    1.2855 H   0  0  0  0  0  0  0  0  0  0  0  0
   -3.0263   -1.5184    0.1584 H   0  0  0  0  0  0  0  0  0  0  0  0
  1  2  1  0
  2  3  1  0
  3  4  1  0
  4  5  1  0
  5  6  1  0
  6  7  1  0
  6  8  1  0
  8  9  1  0
  6  3  1  0
  8  4  1  0
  1 10  1  0
  1 11  1  0
  1 12  1  0
  2 13  1  0
  2 14  1  0
  3 15  1  0
  4 16  1  0
  7 17  1  0
  7 18  1  0
  7 19  1  0
  8 20  1  0
  9 21  1  0
  9 22  1  0
  9 23  1  0
M  END
