
     RDKit          3D

 21 22  0  0  0  0  0  0  0  0999 V2000
    2.1235   -1.1330    0.2291 C   0  0  0  0  0  0  0  0  0  0  0  0
    1.3398   -0.4361   -0.8585 C   0  0  0  0  0  0  0  0  0  0  0  0
    0.2340    0.3816   -0.1965 C   0  0  0  0  0  0  0  0  0  0  0  0
    0.7928    1.4272    0.7569 C   0  0  0  0  0  0  0  0  0  0  0  0
   -0.5800    1.0542   -1.2402 O   0  0  0  0  0  0  0  0  0  0  0  0
   -1.0905    0.1869   -0.3242 C   0  0  0  0  0  0  0  0  0  0  0  0
   -1.9632   -0.9509   -0.6463 C   0  0  0  0  0  0  0  0  0  0  0  0
   -2.6661   -0.7126    0.5589 O   0  0  0  0  0  0  0  0  0  0  0  0
   -2.1506    0.5811    0.6457 C   0  0  0  0  0  0  0  0  0  0  0  0
    2.4291   -0.4135    1.0148 H   0  0  0  0  0  0  0  0  0  0  0  0
    1.6107   -2.0282    0.6241 H   0  0  0  0  0  0  0  0  0  0  0  0
    3.0644   -1.5165   -0.2650 H   0  0  0  0  0  0  0  0  0  0  0  0
    2.0516    0.1998   -1.4127 H   0  0  0  0  0  0  0  0  0  0  0  0
    0.9280   -1.1775   -1.5579 H   0  0  0  0  0  0  0  0  0  0  0  0
    1.0702    0.9427    1.7046 H   0  0  0  0  0  0  0  0  0  0  0  0
   -0.0310    2.1523    1.0229 H   0  0  0  0  0  0  0  0  0  0  0  0
    1.6076    2.0207    0.2995 H   0  0  0  0  0  0  0  0  0  0  0  0
   -1.5433   -1.9697   -0.6095 H   0  0  0  0  0  0  0  0  0  0  0  0
   -2.5974   -0.7583   -1.5540 H   0  0  0  0  0  0  0  0  0  0  0  0
   -2.8663    1.2866    0.1784 H   0  0  0  0  0  0  0  0  0  0  0  0
   -1.7633    0.8632    1.6301 H   0  0  0  0  0  0  0  0  0  0  0  0
  1  2  1  0
  2  3  1  0
  3  4  1  0
  3  5  1  0
  5  6  1  0
  6  7  1  0
  7  8  1  0
  8  9  1  0
  6  3  1  0
  9  6  1  0
  1 10  1  0
  1 11  1  0
  1 12  1  0
  2 13  1  0
  2 14  1  0
  4 15  1  0
  4 16  1  0
  4 17  1  0
  7 18  1  0
  7 19  1  0
  9 20  1  0
  9 21  1  0
M  END
