
     RDKit          3D

 19 21  0  0  0  0  0  0  0  0999 V2000
   -2.4921   -0.0927    0.6499 C   0  0  0  0  0  0  0  0  0  0  0  0
   -1.5285   -0.2979   -0.4963 C   0  0  0  0  0  0  0  0  0  0  0  0
   -0.2364    0.4665   -0.2645 C   0  0  0  0  0  0  0  0  0  0  0  0
    0.6048    0.2512   -1.3267 O   0  0  0  0  0  0  0  0  0  0  0  0
    1.8943    0.0709   -0.8101 C   0  0  0  0  0  0  0  0  0  0  0  0
    2.2615    0.6582    0.5016 C   0  0  0  0  0  0  0  0  0  0  0  0
    1.3107    1.0264    1.4364 O   0  0  0  0  0  0  0  0  0  0  0  0
    0.4586   -0.0023    0.9920 C   0  0  0  0  0  0  0  0  0  0  0  0
    1.6682   -0.6723    0.4256 C   0  0  0  0  0  0  0  0  0  0  0  0
   -1.9522    0.3677    1.4942 H   0  0  0  0  0  0  0  0  0  0  0  0
   -2.8483   -1.0871    0.9602 H   0  0  0  0  0  0  0  0  0  0  0  0
   -3.3454    0.5439    0.3364 H   0  0  0  0  0  0  0  0  0  0  0  0
   -2.0201    0.0309   -1.4170 H   0  0  0  0  0  0  0  0  0  0  0  0
   -1.2294   -1.3736   -0.5897 H   0  0  0  0  0  0  0  0  0  0  0  0
   -0.4893    1.5509   -0.1617 H   0  0  0  0  0  0  0  0  0  0  0  0
    2.6915   -0.2108   -1.4759 H   0  0  0  0  0  0  0  0  0  0  0  0
    3.3062    0.8805    0.7131 H   0  0  0  0  0  0  0  0  0  0  0  0
   -0.1275   -0.5107    1.7408 H   0  0  0  0  0  0  0  0  0  0  0  0
    2.0735   -1.5998    0.7389 H   0  0  0  0  0  0  0  0  0  0  0  0
  1  2  1  0
  2  3  1  0
  3  4  1  0
  4  5  1  0
  5  6  1  0
  6  7  1  0
  7  8  1  0
  8  9  1  0
  8  3  1  0
  9  5  1  0
  9  6  1  0
  1 10  1  0
  1 11  1  0
  1 12  1  0
  2 13  1  0
  2 14  1  0
  3 15  1  0
  5 16  1  0
  6 17  1  0
  8 18  1  0
  9 19  1  0
M  END
