
     RDKit          3D

 23 24  0  0  0  0  0  0  0  0999 V2000
   -2.7245   -0.9787    0.5210 C   0  0  0  0  0  0  0  0  0  0  0  0
   -2.0395    0.3408    0.3300 C   0  0  0  0  0  0  0  0  0  0  0  0
   -0.6482    0.3710    0.9178 C   0  0  0  0  0  0  0  0  0  0  0  0
   -0.0476    1.7619    0.6643 C   0  0  0  0  0  0  0  0  0  0  0  0
    0.6436    1.3036   -0.5680 C   0  0  0  0  0  0  0  0  0  0  0  0
    0.2454    0.2388   -1.3232 O   0  0  0  0  0  0  0  0  0  0  0  0
    0.4416   -0.1071   -0.0337 C   0  0  0  0  0  0  0  0  0  0  0  0
    1.6903   -0.6998    0.5050 C   0  0  0  0  0  0  0  0  0  0  0  0
    2.5940   -1.0872   -0.6111 C   0  0  0  0  0  0  0  0  0  0  0  0
   -2.7406   -1.3297    1.5619 H   0  0  0  0  0  0  0  0  0  0  0  0
   -3.7768   -0.8572    0.1896 H   0  0  0  0  0  0  0  0  0  0  0  0
   -2.2389   -1.7254   -0.1587 H   0  0  0  0  0  0  0  0  0  0  0  0
   -1.9561    0.5220   -0.7624 H   0  0  0  0  0  0  0  0  0  0  0  0
   -2.6177    1.1511    0.8232 H   0  0  0  0  0  0  0  0  0  0  0  0
   -0.5538    0.0388    1.9515 H   0  0  0  0  0  0  0  0  0  0  0  0
   -0.7791    2.5661    0.5867 H   0  0  0  0  0  0  0  0  0  0  0  0
    0.6978    1.9846    1.4775 H   0  0  0  0  0  0  0  0  0  0  0  0
    1.6599    1.6699   -0.7649 H   0  0  0  0  0  0  0  0  0  0  0  0
    1.4597   -1.5518    1.1532 H   0  0  0  0  0  0  0  0  0  0  0  0
    2.2493    0.0478    1.1420 H   0  0  0  0  0  0  0  0  0  0  0  0
    3.5041   -1.6264   -0.2386 H   0  0  0  0  0  0  0  0  0  0  0  0
    2.0390   -1.8041   -1.2712 H   0  0  0  0  0  0  0  0  0  0  0  0
    2.8983   -0.2289   -1.2211 H   0  0  0  0  0  0  0  0  0  0  0  0
  1  2  1  0
  2  3  1  0
  3  4  1  0
  4  5  1  0
  5  6  1  0
  6  7  1  0
  7  8  1  0
  8  9  1  0
  7  3  1  0
  7  5  1  0
  1 10  1  0
  1 11  1  0
  1 12  1  0
  2 13  1  0
  2 14  1  0
  3 15  1  0
  4 16  1  0
  4 17  1  0
  5 18  1  0
  8 19  1  0
  8 20  1  0
  9 21  1  0
  9 22  1  0
  9 23  1  0
M  END
