
     RDKit          3D

 18 19  0  0  0  0  0  0  0  0999 V2000
    2.0938   -0.3781    0.3376 C   0  0  0  0  0  0  0  0  0  0  0  0
    1.3145   -0.0001   -0.9043 C   0  0  0  0  0  0  0  0  0  0  0  0
   -0.1536   -0.0122   -0.6421 C   0  0  0  0  0  0  0  0  0  0  0  0
   -1.0027    0.3257   -1.7284 O   0  0  0  0  0  0  0  0  0  0  0  0
   -1.1572   -0.8486   -0.7951 C   0  0  0  0  0  0  0  0  0  0  0  0
   -1.8650   -0.3875    0.4834 C   0  0  0  0  0  0  0  0  0  0  0  0
   -0.6737    0.5707    0.6550 C   0  0  0  0  0  0  0  0  0  0  0  0
   -1.1293    1.8838    0.5329 O   0  0  0  0  0  0  0  0  0  0  0  0
    3.1622   -0.4404    0.0276 H   0  0  0  0  0  0  0  0  0  0  0  0
    1.9942    0.4453    1.0776 H   0  0  0  0  0  0  0  0  0  0  0  0
    1.7824   -1.3388    0.7623 H   0  0  0  0  0  0  0  0  0  0  0  0
    1.6124   -0.6554   -1.7310 H   0  0  0  0  0  0  0  0  0  0  0  0
    1.6130    1.0626   -1.1291 H   0  0  0  0  0  0  0  0  0  0  0  0
   -1.5460   -1.6617   -1.3767 H   0  0  0  0  0  0  0  0  0  0  0  0
   -2.8014    0.0986    0.2106 H   0  0  0  0  0  0  0  0  0  0  0  0
   -1.8855   -1.2134    1.1902 H   0  0  0  0  0  0  0  0  0  0  0  0
   -0.0694    0.3556    1.5519 H   0  0  0  0  0  0  0  0  0  0  0  0
   -1.2887    2.1938    1.4776 H   0  0  0  0  0  0  0  0  0  0  0  0
  1  2  1  0
  2  3  1  0
  3  4  1  0
  4  5  1  0
  5  6  1  0
  6  7  1  0
  7  8  1  0
  5  3  1  0
  7  3  1  0
  1  9  1  0
  1 10  1  0
  1 11  1  0
  2 12  1  0
  2 13  1  0
  5 14  1  0
  6 15  1  0
  6 16  1  0
  7 17  1  0
  8 18  1  0
M  END
