
     RDKit          3D

 25 26  0  0  0  0  0  0  0  0999 V2000
    2.9777    1.1439    0.1976 C   0  0  0  0  0  0  0  0  0  0  0  0
    2.2956    0.0072   -0.4832 C   0  0  0  0  0  0  0  0  0  0  0  0
    1.2352   -0.6436    0.3843 C   0  0  0  0  0  0  0  0  0  0  0  0
    0.5322   -1.8203   -0.3265 C   0  0  0  0  0  0  0  0  0  0  0  0
   -0.1592   -0.5999    0.0420 C   0  0  0  0  0  0  0  0  0  0  0  0
   -1.2956   -0.5429    1.0164 C   0  0  0  0  0  0  0  0  0  0  0  0
   -1.7866    0.6939    0.2519 C   0  0  0  0  0  0  0  0  0  0  0  0
   -3.2321    0.5828   -0.0969 C   0  0  0  0  0  0  0  0  0  0  0  0
   -0.8193    0.3397   -0.8871 C   0  0  0  0  0  0  0  0  0  0  0  0
    2.5799    2.1239   -0.1380 H   0  0  0  0  0  0  0  0  0  0  0  0
    2.9127    1.0400    1.2921 H   0  0  0  0  0  0  0  0  0  0  0  0
    4.0502    1.1219   -0.0689 H   0  0  0  0  0  0  0  0  0  0  0  0
    1.8899    0.3627   -1.4530 H   0  0  0  0  0  0  0  0  0  0  0  0
    3.0426   -0.7980   -0.7347 H   0  0  0  0  0  0  0  0  0  0  0  0
    1.5799   -0.8211    1.4239 H   0  0  0  0  0  0  0  0  0  0  0  0
    0.8475   -2.0886   -1.3345 H   0  0  0  0  0  0  0  0  0  0  0  0
    0.3641   -2.7085    0.3487 H   0  0  0  0  0  0  0  0  0  0  0  0
   -1.9768   -1.4207    0.8957 H   0  0  0  0  0  0  0  0  0  0  0  0
   -1.0561   -0.3699    2.0641 H   0  0  0  0  0  0  0  0  0  0  0  0
   -1.5343    1.6352    0.7431 H   0  0  0  0  0  0  0  0  0  0  0  0
   -3.5950    1.5433   -0.5243 H   0  0  0  0  0  0  0  0  0  0  0  0
   -3.4609   -0.2519   -0.7800 H   0  0  0  0  0  0  0  0  0  0  0  0
   -3.7976    0.3980    0.8545 H   0  0  0  0  0  0  0  0  0  0  0  0
   -0.2415    1.2466   -1.1833 H   0  0  0  0  0  0  0  0  0  0  0  0
   -1.3524   -0.1736   -1.7117 H   0  0  0  0  0  0  0  0  0  0  0  0
  1  2  1  0
  2  3  1  0
  3  4  1  0
  4  5  1  0
  5  6  1  0
  6  7  1  0
  7  8  1  0
  7  9  1  0
  5  3  1  0
  9  5  1  0
  1 10  1  0
  1 11  1  0
  1 12  1  0
  2 13  1  0
  2 14  1  0
  3 15  1  0
  4 16  1  0
  4 17  1  0
  6 18  1  0
  6 19  1  0
  7 20  1  0
  8 21  1  0
  8 22  1  0
  8 23  1  0
  9 24  1  0
  9 25  1  0
M  END
