
     RDKit          3D

 25 26  0  0  0  0  0  0  0  0999 V2000
    2.9984    0.4377   -0.0893 C   0  0  0  0  0  0  0  0  0  0  0  0
    1.9251   -0.6611   -0.0679 C   0  0  0  0  0  0  0  0  0  0  0  0
    0.6992   -0.0809    0.5035 C   0  0  0  0  0  0  0  0  0  0  0  0
    0.0588    1.0764   -0.1603 C   0  0  0  0  0  0  0  0  0  0  0  0
   -0.4704    0.1234   -1.1956 C   0  0  0  0  0  0  0  0  0  0  0  0
   -0.6363   -0.6109    0.0977 C   0  0  0  0  0  0  0  0  0  0  0  0
   -1.1692   -1.8558    0.3107 C   0  0  0  0  0  0  0  0  0  0  0  0
   -1.1664    0.7033    0.6393 C   0  0  0  0  0  0  0  0  0  0  0  0
   -2.4756    1.1522    0.1022 C   0  0  0  0  0  0  0  0  0  0  0  0
    2.4654    1.3876   -0.3034 H   0  0  0  0  0  0  0  0  0  0  0  0
    3.4600    0.5417    0.9118 H   0  0  0  0  0  0  0  0  0  0  0  0
    3.7493    0.2248   -0.8773 H   0  0  0  0  0  0  0  0  0  0  0  0
    1.8762   -1.0580   -1.0784 H   0  0  0  0  0  0  0  0  0  0  0  0
    2.3199   -1.4894    0.5738 H   0  0  0  0  0  0  0  0  0  0  0  0
    0.7682    0.0236    1.6181 H   0  0  0  0  0  0  0  0  0  0  0  0
    0.4088    2.0008   -0.3097 H   0  0  0  0  0  0  0  0  0  0  0  0
    0.2105   -0.2785   -1.9348 H   0  0  0  0  0  0  0  0  0  0  0  0
   -1.4098    0.4670   -1.6836 H   0  0  0  0  0  0  0  0  0  0  0  0
   -1.1080   -2.5362   -0.5635 H   0  0  0  0  0  0  0  0  0  0  0  0
   -0.7083   -2.4102    1.1569 H   0  0  0  0  0  0  0  0  0  0  0  0
   -2.2702   -1.8285    0.5661 H   0  0  0  0  0  0  0  0  0  0  0  0
   -1.0233    0.8046    1.7233 H   0  0  0  0  0  0  0  0  0  0  0  0
   -3.1109    1.4685    0.9743 H   0  0  0  0  0  0  0  0  0  0  0  0
   -3.0546    0.3489   -0.3998 H   0  0  0  0  0  0  0  0  0  0  0  0
   -2.3368    2.0491   -0.5141 H   0  0  0  0  0  0  0  0  0  0  0  0
  1  2  1  0
  2  3  1  0
  3  4  1  0
  4  5  1  0
  5  6  1  0
  6  7  1  0
  6  8  1  0
  8  9  1  0
  6  3  1  0
  8  4  1  0
  1 10  1  0
  1 11  1  0
  1 12  1  0
  2 13  1  0
  2 14  1  0
  3 15  1  0
  4 16  1  0
  5 17  1  0
  5 18  1  0
  7 19  1  0
  7 20  1  0
  7 21  1  0
  8 22  1  0
  9 23  1  0
  9 24  1  0
  9 25  1  0
M  END
