
     RDKit          3D

 23 23  0  0  0  0  0  0  0  0999 V2000
   -1.8709    1.8312    0.9533 C   0  0  0  0  0  0  0  0  0  0  0  0
   -1.8882    0.3378    0.8301 C   0  0  0  0  0  0  0  0  0  0  0  0
   -0.7660   -0.1725   -0.0705 C   0  0  0  0  0  0  0  0  0  0  0  0
    0.5168    0.1228    0.3210 O   0  0  0  0  0  0  0  0  0  0  0  0
    1.5204   -0.3216   -0.4900 C   0  0  0  0  0  0  0  0  0  0  0  0
    2.8848    0.0906    0.0699 C   0  0  0  0  0  0  0  0  0  0  0  0
    3.0851   -0.4376    1.3294 O   0  0  0  0  0  0  0  0  0  0  0  0
   -1.0959   -0.4517   -1.4866 C   0  0  0  0  0  0  0  0  0  0  0  0
   -1.0111   -1.6037   -0.5102 C   0  0  0  0  0  0  0  0  0  0  0  0
   -1.7994    2.1701    2.0226 H   0  0  0  0  0  0  0  0  0  0  0  0
   -2.8483    2.2236    0.5923 H   0  0  0  0  0  0  0  0  0  0  0  0
   -1.0601    2.3219    0.3907 H   0  0  0  0  0  0  0  0  0  0  0  0
   -1.7486   -0.1510    1.8126 H   0  0  0  0  0  0  0  0  0  0  0  0
   -2.8405   -0.0272    0.3953 H   0  0  0  0  0  0  0  0  0  0  0  0
    1.4409    0.2206   -1.4704 H   0  0  0  0  0  0  0  0  0  0  0  0
    1.5869   -1.4066   -0.6251 H   0  0  0  0  0  0  0  0  0  0  0  0
    3.6347   -0.2408   -0.6676 H   0  0  0  0  0  0  0  0  0  0  0  0
    2.8800    1.2016    0.1354 H   0  0  0  0  0  0  0  0  0  0  0  0
    4.0194   -0.7217    1.4543 H   0  0  0  0  0  0  0  0  0  0  0  0
   -0.3512   -0.4677   -2.2822 H   0  0  0  0  0  0  0  0  0  0  0  0
   -2.0952   -0.1114   -1.8147 H   0  0  0  0  0  0  0  0  0  0  0  0
   -0.1991   -2.3265   -0.5834 H   0  0  0  0  0  0  0  0  0  0  0  0
   -1.9945   -2.0805   -0.3060 H   0  0  0  0  0  0  0  0  0  0  0  0
  1  2  1  0
  2  3  1  0
  3  4  1  0
  4  5  1  0
  5  6  1  0
  6  7  1  0
  3  8  1  0
  8  9  1  0
  9  3  1  0
  1 10  1  0
  1 11  1  0
  1 12  1  0
  2 13  1  0
  2 14  1  0
  5 15  1  0
  5 16  1  0
  6 17  1  0
  6 18  1  0
  7 19  1  0
  8 20  1  0
  8 21  1  0
  9 22  1  0
  9 23  1  0
M  END
