
     RDKit          3D

 20 21  0  0  0  0  0  0  0  0999 V2000
    2.4418    0.2167   -0.1483 C   0  0  0  0  0  0  0  0  0  0  0  0
    1.1820    0.3306    0.7236 C   0  0  0  0  0  0  0  0  0  0  0  0
    0.2575   -0.7757    0.2198 C   0  0  0  0  0  0  0  0  0  0  0  0
   -0.0818   -0.6142   -1.1859 C   0  0  0  0  0  0  0  0  0  0  0  0
   -1.3709   -0.0922   -1.7771 C   0  0  0  0  0  0  0  0  0  0  0  0
   -1.9023   -1.1875   -1.0449 O   0  0  0  0  0  0  0  0  0  0  0  0
   -1.1385   -0.6456   -0.0194 C   0  0  0  0  0  0  0  0  0  0  0  0
   -1.7232    0.6137    0.4946 C   0  0  0  0  0  0  0  0  0  0  0  0
    2.2151   -0.2749   -1.1146 H   0  0  0  0  0  0  0  0  0  0  0  0
    3.2225   -0.3703    0.3688 H   0  0  0  0  0  0  0  0  0  0  0  0
    2.8572    1.2106   -0.3893 H   0  0  0  0  0  0  0  0  0  0  0  0
    0.8131    1.3370    0.5532 H   0  0  0  0  0  0  0  0  0  0  0  0
    1.4657    0.1379    1.7749 H   0  0  0  0  0  0  0  0  0  0  0  0
    0.5756   -1.7567    0.6940 H   0  0  0  0  0  0  0  0  0  0  0  0
    0.0943   -1.6183   -1.6955 H   0  0  0  0  0  0  0  0  0  0  0  0
   -1.7201    0.8877   -1.5050 H   0  0  0  0  0  0  0  0  0  0  0  0
   -1.4157   -0.2083   -2.8666 H   0  0  0  0  0  0  0  0  0  0  0  0
   -2.8083    0.7659    0.2150 H   0  0  0  0  0  0  0  0  0  0  0  0
   -1.7815    0.5030    1.6220 H   0  0  0  0  0  0  0  0  0  0  0  0
   -1.1826    1.5403    0.3323 H   0  0  0  0  0  0  0  0  0  0  0  0
  1  2  1  0
  2  3  1  0
  3  4  1  0
  4  5  1  0
  5  6  1  0
  6  7  1  0
  7  8  1  0
  7  3  1  0
  7  4  1  0
  1  9  1  0
  1 10  1  0
  1 11  1  0
  2 12  1  0
  2 13  1  0
  3 14  1  0
  4 15  1  0
  5 16  1  0
  5 17  1  0
  8 18  1  0
  8 19  1  0
  8 20  1  0
M  END
