
     RDKit          3D

 23 24  0  0  0  0  0  0  0  0999 V2000
    2.1128    0.9049   -0.1111 C   0  0  0  0  0  0  0  0  0  0  0  0
    1.6223   -0.4172   -0.5395 C   0  0  0  0  0  0  0  0  0  0  0  0
    0.3370   -0.9153   -0.0460 C   0  0  0  0  0  0  0  0  0  0  0  0
    0.1504   -1.0718    1.4379 C   0  0  0  0  0  0  0  0  0  0  0  0
   -0.9159   -1.8602    1.7713 O   0  0  0  0  0  0  0  0  0  0  0  0
   -1.3016   -0.6598    1.2796 C   0  0  0  0  0  0  0  0  0  0  0  0
   -0.9011   -0.1190   -0.0621 C   0  0  0  0  0  0  0  0  0  0  0  0
   -1.8091   -0.5082   -1.2107 C   0  0  0  0  0  0  0  0  0  0  0  0
   -0.8156    1.3850    0.0342 C   0  0  0  0  0  0  0  0  0  0  0  0
    1.6998    1.7814   -0.6394 H   0  0  0  0  0  0  0  0  0  0  0  0
    2.0963    1.0133    0.9935 H   0  0  0  0  0  0  0  0  0  0  0  0
    3.2287    0.9649   -0.3427 H   0  0  0  0  0  0  0  0  0  0  0  0
    1.6329   -0.4727   -1.6709 H   0  0  0  0  0  0  0  0  0  0  0  0
    2.4304   -1.1639   -0.2621 H   0  0  0  0  0  0  0  0  0  0  0  0
    0.1100   -1.9340   -0.5333 H   0  0  0  0  0  0  0  0  0  0  0  0
    0.7007   -0.4682    2.1542 H   0  0  0  0  0  0  0  0  0  0  0  0
   -1.7673    0.0210    2.0145 H   0  0  0  0  0  0  0  0  0  0  0  0
   -2.5667    0.2744   -1.3212 H   0  0  0  0  0  0  0  0  0  0  0  0
   -1.1763   -0.5095   -2.1254 H   0  0  0  0  0  0  0  0  0  0  0  0
   -2.2252   -1.5256   -1.1047 H   0  0  0  0  0  0  0  0  0  0  0  0
   -0.1596    1.6811    0.8532 H   0  0  0  0  0  0  0  0  0  0  0  0
   -1.8486    1.7231    0.3720 H   0  0  0  0  0  0  0  0  0  0  0  0
   -0.6344    1.8763   -0.9411 H   0  0  0  0  0  0  0  0  0  0  0  0
  1  2  1  0
  2  3  1  0
  3  4  1  0
  4  5  1  0
  5  6  1  0
  6  7  1  0
  7  8  1  0
  7  9  1  0
  7  3  1  0
  6  4  1  0
  1 10  1  0
  1 11  1  0
  1 12  1  0
  2 13  1  0
  2 14  1  0
  3 15  1  0
  4 16  1  0
  6 17  1  0
  8 18  1  0
  8 19  1  0
  8 20  1  0
  9 21  1  0
  9 22  1  0
  9 23  1  0
M  END
