
     RDKit          3D

 21 22  0  0  0  0  0  0  0  0999 V2000
   -2.3787   -0.0585    0.3818 C   0  0  0  0  0  0  0  0  0  0  0  0
   -1.3431    0.7082   -0.4445 C   0  0  0  0  0  0  0  0  0  0  0  0
    0.0092    0.3330   -0.2877 C   0  0  0  0  0  0  0  0  0  0  0  0
    0.4928    0.5034    1.1211 C   0  0  0  0  0  0  0  0  0  0  0  0
    1.1410   -0.8543    1.0663 C   0  0  0  0  0  0  0  0  0  0  0  0
    1.1873   -0.4114   -0.3717 C   0  0  0  0  0  0  0  0  0  0  0  0
    2.4770    0.2615   -0.7510 C   0  0  0  0  0  0  0  0  0  0  0  0
    2.5789    1.4611   -0.8743 O   0  0  0  0  0  0  0  0  0  0  0  0
    0.2592   -0.7029   -1.3109 C   0  0  0  0  0  0  0  0  0  0  0  0
   -3.3563    0.4346    0.1529 H   0  0  0  0  0  0  0  0  0  0  0  0
   -2.4855   -1.1016    0.0287 H   0  0  0  0  0  0  0  0  0  0  0  0
   -2.1589    0.0512    1.4393 H   0  0  0  0  0  0  0  0  0  0  0  0
   -1.5489    1.7868   -0.1212 H   0  0  0  0  0  0  0  0  0  0  0  0
   -1.7233    0.6982   -1.4807 H   0  0  0  0  0  0  0  0  0  0  0  0
    1.2327    1.3459    1.2306 H   0  0  0  0  0  0  0  0  0  0  0  0
   -0.2401    0.5504    1.9182 H   0  0  0  0  0  0  0  0  0  0  0  0
    0.4119   -1.6554    1.3025 H   0  0  0  0  0  0  0  0  0  0  0  0
    2.1226   -0.9351    1.5557 H   0  0  0  0  0  0  0  0  0  0  0  0
    3.3126   -0.4146   -0.9064 H   0  0  0  0  0  0  0  0  0  0  0  0
    0.2897   -0.3051   -2.3559 H   0  0  0  0  0  0  0  0  0  0  0  0
   -0.2800   -1.6949   -1.2929 H   0  0  0  0  0  0  0  0  0  0  0  0
  1  2  1  0
  2  3  1  0
  3  4  1  0
  4  5  1  0
  5  6  1  0
  6  7  1  0
  7  8  2  0
  6  9  1  0
  6  3  1  0
  9  3  1  0
  1 10  1  0
  1 11  1  0
  1 12  1  0
  2 13  1  0
  2 14  1  0
  4 15  1  0
  4 16  1  0
  5 17  1  0
  5 18  1  0
  7 19  1  0
  9 20  1  0
  9 21  1  0
M  END
