
     RDKit          3D

 21 21  0  0  0  0  0  0  0  0999 V2000
    2.7215   -0.1168    0.8276 C   0  0  0  0  0  0  0  0  0  0  0  0
    1.8932    0.0974   -0.3935 C   0  0  0  0  0  0  0  0  0  0  0  0
    0.4498    0.1141   -0.1307 C   0  0  0  0  0  0  0  0  0  0  0  0
   -0.1027   -0.0438    1.0715 C   0  0  0  0  0  0  0  0  0  0  0  0
   -1.5906    0.0059    1.1250 C   0  0  0  0  0  0  0  0  0  0  0  0
   -2.0582    1.3130    1.0109 O   0  0  0  0  0  0  0  0  0  0  0  0
   -2.1207   -0.7835   -0.0185 C   0  0  0  0  0  0  0  0  0  0  0  0
   -1.5806   -0.5080   -1.2439 O   0  0  0  0  0  0  0  0  0  0  0  0
   -0.4927    0.3198   -1.2637 C   0  0  0  0  0  0  0  0  0  0  0  0
    3.7620   -0.3880    0.4861 H   0  0  0  0  0  0  0  0  0  0  0  0
    2.8054    0.7638    1.4864 H   0  0  0  0  0  0  0  0  0  0  0  0
    2.3448   -1.0064    1.3732 H   0  0  0  0  0  0  0  0  0  0  0  0
    2.1596    1.0926   -0.8572 H   0  0  0  0  0  0  0  0  0  0  0  0
    2.1641   -0.6548   -1.1502 H   0  0  0  0  0  0  0  0  0  0  0  0
    0.5395   -0.1963    1.9275 H   0  0  0  0  0  0  0  0  0  0  0  0
   -1.9867   -0.4247    2.0609 H   0  0  0  0  0  0  0  0  0  0  0  0
   -2.9019    1.3047    0.4921 H   0  0  0  0  0  0  0  0  0  0  0  0
   -2.0328   -1.8734    0.2625 H   0  0  0  0  0  0  0  0  0  0  0  0
   -3.2349   -0.6115   -0.0555 H   0  0  0  0  0  0  0  0  0  0  0  0
   -0.7684    1.4096   -1.2391 H   0  0  0  0  0  0  0  0  0  0  0  0
    0.0303    0.1863   -2.2488 H   0  0  0  0  0  0  0  0  0  0  0  0
  1  2  1  0
  2  3  1  0
  3  4  2  0
  4  5  1  0
  5  6  1  0
  5  7  1  0
  7  8  1  0
  8  9  1  0
  9  3  1  0
  1 10  1  0
  1 11  1  0
  1 12  1  0
  2 13  1  0
  2 14  1  0
  4 15  1  0
  5 16  1  0
  6 17  1  0
  7 18  1  0
  7 19  1  0
  9 20  1  0
  9 21  1  0
M  END
