
     RDKit          3D

 27 27  0  0  0  0  0  0  0  0999 V2000
   -2.0144    1.7360   -0.2914 C   0  0  0  0  0  0  0  0  0  0  0  0
   -2.0359    0.3673    0.2997 C   0  0  0  0  0  0  0  0  0  0  0  0
   -0.7495   -0.3766    0.1990 C   0  0  0  0  0  0  0  0  0  0  0  0
   -0.9025   -1.7428    0.8333 C   0  0  0  0  0  0  0  0  0  0  0  0
   -0.2950   -0.6056   -1.2195 C   0  0  0  0  0  0  0  0  0  0  0  0
    1.2155   -0.4797   -1.2220 C   0  0  0  0  0  0  0  0  0  0  0  0
    1.6254   -0.3479    0.2416 C   0  0  0  0  0  0  0  0  0  0  0  0
    2.8430    0.5469    0.3938 C   0  0  0  0  0  0  0  0  0  0  0  0
    0.3975    0.3963    0.7860 C   0  0  0  0  0  0  0  0  0  0  0  0
   -1.7876    1.6962   -1.3768 H   0  0  0  0  0  0  0  0  0  0  0  0
   -3.0197    2.2050   -0.2161 H   0  0  0  0  0  0  0  0  0  0  0  0
   -1.3195    2.4366    0.2108 H   0  0  0  0  0  0  0  0  0  0  0  0
   -2.3361    0.4556    1.3636 H   0  0  0  0  0  0  0  0  0  0  0  0
   -2.8212   -0.2189   -0.2107 H   0  0  0  0  0  0  0  0  0  0  0  0
   -1.8390   -1.7637    1.4300 H   0  0  0  0  0  0  0  0  0  0  0  0
   -0.0384   -2.0162    1.4702 H   0  0  0  0  0  0  0  0  0  0  0  0
   -1.0008   -2.5418    0.0693 H   0  0  0  0  0  0  0  0  0  0  0  0
   -0.5036   -1.6658   -1.5507 H   0  0  0  0  0  0  0  0  0  0  0  0
   -0.7732    0.0333   -1.9634 H   0  0  0  0  0  0  0  0  0  0  0  0
    1.5361    0.4147   -1.8087 H   0  0  0  0  0  0  0  0  0  0  0  0
    1.7289   -1.3624   -1.6125 H   0  0  0  0  0  0  0  0  0  0  0  0
    1.7877   -1.3018    0.7311 H   0  0  0  0  0  0  0  0  0  0  0  0
    3.6803   -0.0378    0.8635 H   0  0  0  0  0  0  0  0  0  0  0  0
    2.5812    1.4412    1.0211 H   0  0  0  0  0  0  0  0  0  0  0  0
    3.2237    0.9014   -0.5964 H   0  0  0  0  0  0  0  0  0  0  0  0
    0.3936    0.4478    1.8750 H   0  0  0  0  0  0  0  0  0  0  0  0
    0.4238    1.3828    0.2799 H   0  0  0  0  0  0  0  0  0  0  0  0
  1  2  1  0
  2  3  1  0
  3  4  1  0
  3  5  1  0
  5  6  1  0
  6  7  1  0
  7  8  1  0
  7  9  1  0
  9  3  1  0
  1 10  1  0
  1 11  1  0
  1 12  1  0
  2 13  1  0
  2 14  1  0
  4 15  1  0
  4 16  1  0
  4 17  1  0
  5 18  1  0
  5 19  1  0
  6 20  1  0
  6 21  1  0
  7 22  1  0
  8 23  1  0
  8 24  1  0
  8 25  1  0
  9 26  1  0
  9 27  1  0
M  END
