
     RDKit          3D

 23 23  0  0  0  0  0  0  0  0999 V2000
   -2.6963    1.2056    0.4609 C   0  0  0  0  0  0  0  0  0  0  0  0
   -2.3419   -0.2424    0.2151 C   0  0  0  0  0  0  0  0  0  0  0  0
   -0.8885   -0.3881   -0.1370 C   0  0  0  0  0  0  0  0  0  0  0  0
    0.0240    0.5544   -0.2409 C   0  0  0  0  0  0  0  0  0  0  0  0
    1.3305    0.0114   -0.6044 C   0  0  0  0  0  0  0  0  0  0  0  0
    2.4646    0.5779    0.2145 C   0  0  0  0  0  0  0  0  0  0  0  0
    2.5968    1.9409    0.0998 O   0  0  0  0  0  0  0  0  0  0  0  0
    1.2264   -1.4511   -0.2980 C   0  0  0  0  0  0  0  0  0  0  0  0
   -0.2814   -1.6936   -0.4232 C   0  0  0  0  0  0  0  0  0  0  0  0
   -2.2606    1.7817   -0.3960 H   0  0  0  0  0  0  0  0  0  0  0  0
   -3.7791    1.3292    0.4950 H   0  0  0  0  0  0  0  0  0  0  0  0
   -2.1926    1.5970    1.3678 H   0  0  0  0  0  0  0  0  0  0  0  0
   -2.6006   -0.8029    1.1256 H   0  0  0  0  0  0  0  0  0  0  0  0
   -2.9447   -0.6158   -0.6319 H   0  0  0  0  0  0  0  0  0  0  0  0
   -0.2564    1.6155   -0.0557 H   0  0  0  0  0  0  0  0  0  0  0  0
    1.4883    0.1947   -1.6910 H   0  0  0  0  0  0  0  0  0  0  0  0
    2.2794    0.2825    1.2671 H   0  0  0  0  0  0  0  0  0  0  0  0
    3.3986    0.1075   -0.1555 H   0  0  0  0  0  0  0  0  0  0  0  0
    3.1872    2.2423    0.8455 H   0  0  0  0  0  0  0  0  0  0  0  0
    1.5622   -1.7061    0.7252 H   0  0  0  0  0  0  0  0  0  0  0  0
    1.7857   -2.0050   -1.0837 H   0  0  0  0  0  0  0  0  0  0  0  0
   -0.5494   -2.0560   -1.4350 H   0  0  0  0  0  0  0  0  0  0  0  0
   -0.5523   -2.4795    0.3357 H   0  0  0  0  0  0  0  0  0  0  0  0
  1  2  1  0
  2  3  1  0
  3  4  2  0
  4  5  1  0
  5  6  1  0
  6  7  1  0
  5  8  1  0
  8  9  1  0
  9  3  1  0
  1 10  1  0
  1 11  1  0
  1 12  1  0
  2 13  1  0
  2 14  1  0
  4 15  1  0
  5 16  1  0
  6 17  1  0
  6 18  1  0
  7 19  1  0
  8 20  1  0
  8 21  1  0
  9 22  1  0
  9 23  1  0
M  END
