
     RDKit          3D

 23 24  0  0  0  0  0  0  0  0999 V2000
    2.6105    0.6928    0.2555 C   0  0  0  0  0  0  0  0  0  0  0  0
    1.7831   -0.1641   -0.6934 C   0  0  0  0  0  0  0  0  0  0  0  0
    0.3551   -0.0600   -0.2544 C   0  0  0  0  0  0  0  0  0  0  0  0
   -0.6352   -0.8522   -1.0840 C   0  0  0  0  0  0  0  0  0  0  0  0
   -1.4027   -1.0313    0.2346 C   0  0  0  0  0  0  0  0  0  0  0  0
   -2.1228    0.2089    0.6275 C   0  0  0  0  0  0  0  0  0  0  0  0
   -1.4366    1.3882   -0.0655 C   0  0  0  0  0  0  0  0  0  0  0  0
   -0.0663    1.2101    0.0215 O   0  0  0  0  0  0  0  0  0  0  0  0
   -0.0172   -1.0094    0.8937 C   0  0  0  0  0  0  0  0  0  0  0  0
    2.5432    1.7645    0.0067 H   0  0  0  0  0  0  0  0  0  0  0  0
    3.6748    0.3580    0.1101 H   0  0  0  0  0  0  0  0  0  0  0  0
    2.2848    0.5723    1.2988 H   0  0  0  0  0  0  0  0  0  0  0  0
    2.1536   -1.1902   -0.7500 H   0  0  0  0  0  0  0  0  0  0  0  0
    1.8493    0.3506   -1.6923 H   0  0  0  0  0  0  0  0  0  0  0  0
   -1.1655   -0.3035   -1.8518 H   0  0  0  0  0  0  0  0  0  0  0  0
   -0.2049   -1.8322   -1.3627 H   0  0  0  0  0  0  0  0  0  0  0  0
   -1.9198   -1.9791    0.2608 H   0  0  0  0  0  0  0  0  0  0  0  0
   -3.1703    0.1478    0.2867 H   0  0  0  0  0  0  0  0  0  0  0  0
   -2.0839    0.4136    1.7238 H   0  0  0  0  0  0  0  0  0  0  0  0
   -1.6944    2.3385    0.4596 H   0  0  0  0  0  0  0  0  0  0  0  0
   -1.7750    1.5037   -1.1083 H   0  0  0  0  0  0  0  0  0  0  0  0
    0.0004   -0.5305    1.8854 H   0  0  0  0  0  0  0  0  0  0  0  0
    0.4397   -1.9963    0.7978 H   0  0  0  0  0  0  0  0  0  0  0  0
  1  2  1  0
  2  3  1  0
  3  4  1  0
  4  5  1  0
  5  6  1  0
  6  7  1  0
  7  8  1  0
  5  9  1  0
  8  3  1  0
  9  3  1  0
  1 10  1  0
  1 11  1  0
  1 12  1  0
  2 13  1  0
  2 14  1  0
  4 15  1  0
  4 16  1  0
  5 17  1  0
  6 18  1  0
  6 19  1  0
  7 20  1  0
  7 21  1  0
  9 22  1  0
  9 23  1  0
M  END
