
     RDKit          3D

 19 20  0  0  0  0  0  0  0  0999 V2000
    2.2613    0.2769    0.1626 C   0  0  0  0  0  0  0  0  0  0  0  0
    1.2314   -0.6172   -0.4590 C   0  0  0  0  0  0  0  0  0  0  0  0
   -0.1756   -0.1984   -0.1405 C   0  0  0  0  0  0  0  0  0  0  0  0
   -1.3390   -0.9636   -0.6683 C   0  0  0  0  0  0  0  0  0  0  0  0
   -2.4906   -0.2946    0.0407 C   0  0  0  0  0  0  0  0  0  0  0  0
   -3.6318   -0.0346   -0.4265 O   0  0  0  0  0  0  0  0  0  0  0  0
   -1.9832   -0.0440    1.3119 O   0  0  0  0  0  0  0  0  0  0  0  0
   -0.5919    0.2874    1.1703 C   0  0  0  0  0  0  0  0  0  0  0  0
   -0.3443    1.2936    0.0670 C   0  0  0  0  0  0  0  0  0  0  0  0
    2.3967    1.2394   -0.3646 H   0  0  0  0  0  0  0  0  0  0  0  0
    3.2459   -0.2617    0.0862 H   0  0  0  0  0  0  0  0  0  0  0  0
    2.0847    0.4518    1.2360 H   0  0  0  0  0  0  0  0  0  0  0  0
    1.4307   -1.6615   -0.1506 H   0  0  0  0  0  0  0  0  0  0  0  0
    1.3739   -0.5403   -1.5748 H   0  0  0  0  0  0  0  0  0  0  0  0
   -1.4585   -0.9335   -1.7574 H   0  0  0  0  0  0  0  0  0  0  0  0
   -1.3646   -2.0240   -0.3048 H   0  0  0  0  0  0  0  0  0  0  0  0
    0.0324    0.2910    2.0642 H   0  0  0  0  0  0  0  0  0  0  0  0
    0.5404    1.9383    0.1215 H   0  0  0  0  0  0  0  0  0  0  0  0
   -1.2179    1.7949   -0.4137 H   0  0  0  0  0  0  0  0  0  0  0  0
  1  2  1  0
  2  3  1  0
  3  4  1  0
  4  5  1  0
  5  6  2  0
  5  7  1  0
  7  8  1  0
  8  9  1  0
  8  3  1  0
  9  3  1  0
  1 10  1  0
  1 11  1  0
  1 12  1  0
  2 13  1  0
  2 14  1  0
  4 15  1  0
  4 16  1  0
  8 17  1  0
  9 18  1  0
  9 19  1  0
M  END
