
     RDKit          3D

 21 22  0  0  0  0  0  0  0  0999 V2000
    2.8386   -0.4683   -0.1565 C   0  0  0  0  0  0  0  0  0  0  0  0
    1.6664    0.3545    0.2425 C   0  0  0  0  0  0  0  0  0  0  0  0
    0.3569   -0.3712    0.2179 C   0  0  0  0  0  0  0  0  0  0  0  0
    0.0147   -0.8686   -1.0184 O   0  0  0  0  0  0  0  0  0  0  0  0
   -1.3624   -0.9893   -1.0523 C   0  0  0  0  0  0  0  0  0  0  0  0
   -1.8938    0.1484   -0.1934 C   0  0  0  0  0  0  0  0  0  0  0  0
   -3.0421   -0.0568    0.5563 O   0  0  0  0  0  0  0  0  0  0  0  0
   -1.3457    1.4724   -0.4771 C   0  0  0  0  0  0  0  0  0  0  0  0
   -0.7184    0.6433    0.5548 C   0  0  0  0  0  0  0  0  0  0  0  0
    2.6064   -1.5090   -0.4355 H   0  0  0  0  0  0  0  0  0  0  0  0
    3.6276   -0.5016    0.6486 H   0  0  0  0  0  0  0  0  0  0  0  0
    3.3348    0.0277   -1.0171 H   0  0  0  0  0  0  0  0  0  0  0  0
    1.8257    0.7127    1.2859 H   0  0  0  0  0  0  0  0  0  0  0  0
    1.5486    1.2824   -0.3690 H   0  0  0  0  0  0  0  0  0  0  0  0
    0.3747   -1.1762    1.0048 H   0  0  0  0  0  0  0  0  0  0  0  0
   -1.6968   -0.8434   -2.1186 H   0  0  0  0  0  0  0  0  0  0  0  0
   -1.7497   -1.9506   -0.7220 H   0  0  0  0  0  0  0  0  0  0  0  0
   -2.8730   -0.8975    1.0905 H   0  0  0  0  0  0  0  0  0  0  0  0
   -1.8664    2.3853   -0.1264 H   0  0  0  0  0  0  0  0  0  0  0  0
   -0.8697    1.6388   -1.4831 H   0  0  0  0  0  0  0  0  0  0  0  0
   -0.7764    0.9670    1.6095 H   0  0  0  0  0  0  0  0  0  0  0  0
  1  2  1  0
  2  3  1  0
  3  4  1  0
  4  5  1  0
  5  6  1  0
  6  7  1  0
  6  8  1  0
  8  9  1  0
  9  3  1  0
  9  6  1  0
  1 10  1  0
  1 11  1  0
  1 12  1  0
  2 13  1  0
  2 14  1  0
  3 15  1  0
  5 16  1  0
  5 17  1  0
  7 18  1  0
  8 19  1  0
  8 20  1  0
  9 21  1  0
M  END
