
     RDKit          3D

 19 21  0  0  0  0  0  0  0  0999 V2000
    2.3376    0.0061   -0.1093 C   0  0  0  0  0  0  0  0  0  0  0  0
    1.1482   -0.9166    0.0842 C   0  0  0  0  0  0  0  0  0  0  0  0
   -0.1286   -0.1938   -0.2655 C   0  0  0  0  0  0  0  0  0  0  0  0
   -1.3905   -0.9478   -0.1334 C   0  0  0  0  0  0  0  0  0  0  0  0
   -2.2726   -0.8169   -1.2303 O   0  0  0  0  0  0  0  0  0  0  0  0
   -1.1213    0.1839    0.7487 C   0  0  0  0  0  0  0  0  0  0  0  0
   -1.1869    1.5752    0.1422 C   0  0  0  0  0  0  0  0  0  0  0  0
   -0.0078    2.2956    0.0050 O   0  0  0  0  0  0  0  0  0  0  0  0
   -0.0888    1.1912   -0.8134 C   0  0  0  0  0  0  0  0  0  0  0  0
    3.0102   -0.3370   -0.9203 H   0  0  0  0  0  0  0  0  0  0  0  0
    1.9726    1.0166   -0.4259 H   0  0  0  0  0  0  0  0  0  0  0  0
    2.9120    0.1587    0.8225 H   0  0  0  0  0  0  0  0  0  0  0  0
    1.2774   -1.8015   -0.5788 H   0  0  0  0  0  0  0  0  0  0  0  0
    1.1428   -1.2561    1.1439 H   0  0  0  0  0  0  0  0  0  0  0  0
   -1.3259   -1.9710    0.2485 H   0  0  0  0  0  0  0  0  0  0  0  0
   -2.9721   -1.5086   -1.1865 H   0  0  0  0  0  0  0  0  0  0  0  0
   -0.9602    0.0679    1.8317 H   0  0  0  0  0  0  0  0  0  0  0  0
   -2.1350    1.9760   -0.2189 H   0  0  0  0  0  0  0  0  0  0  0  0
   -0.2110    1.2781   -1.8916 H   0  0  0  0  0  0  0  0  0  0  0  0
  1  2  1  0
  2  3  1  0
  3  4  1  0
  4  5  1  0
  4  6  1  0
  6  7  1  0
  7  8  1  0
  8  9  1  0
  6  3  1  0
  9  7  1  0
  9  3  1  0
  1 10  1  0
  1 11  1  0
  1 12  1  0
  2 13  1  0
  2 14  1  0
  4 15  1  0
  5 16  1  0
  6 17  1  0
  7 18  1  0
  9 19  1  0
M  END
