
     RDKit          3D

 23 24  0  0  0  0  0  0  0  0999 V2000
    2.7769   -0.0731   -0.3327 C   0  0  0  0  0  0  0  0  0  0  0  0
    1.5548    0.8007   -0.1129 C   0  0  0  0  0  0  0  0  0  0  0  0
    0.5186   -0.0472    0.5863 C   0  0  0  0  0  0  0  0  0  0  0  0
    0.2076   -1.2098   -0.3063 C   0  0  0  0  0  0  0  0  0  0  0  0
   -0.9433   -1.2043   -0.9897 C   0  0  0  0  0  0  0  0  0  0  0  0
   -2.0040   -0.3028   -0.4527 C   0  0  0  0  0  0  0  0  0  0  0  0
   -1.8596   -0.3464    1.0645 C   0  0  0  0  0  0  0  0  0  0  0  0
   -0.7421    0.6915    0.8855 C   0  0  0  0  0  0  0  0  0  0  0  0
   -1.4670    1.1181   -0.3869 C   0  0  0  0  0  0  0  0  0  0  0  0
    3.6255    0.5109   -0.7475 H   0  0  0  0  0  0  0  0  0  0  0  0
    2.5037   -0.9125   -1.0221 H   0  0  0  0  0  0  0  0  0  0  0  0
    3.0986   -0.5429    0.6215 H   0  0  0  0  0  0  0  0  0  0  0  0
    1.1921    1.1234   -1.1162 H   0  0  0  0  0  0  0  0  0  0  0  0
    1.8669    1.6613    0.4938 H   0  0  0  0  0  0  0  0  0  0  0  0
    0.9586   -0.3776    1.5418 H   0  0  0  0  0  0  0  0  0  0  0  0
    0.9213   -2.0266   -0.3772 H   0  0  0  0  0  0  0  0  0  0  0  0
   -1.1100   -1.8078   -1.8752 H   0  0  0  0  0  0  0  0  0  0  0  0
   -3.0029   -0.4286   -0.8453 H   0  0  0  0  0  0  0  0  0  0  0  0
   -1.4996   -1.3009    1.4652 H   0  0  0  0  0  0  0  0  0  0  0  0
   -2.7628    0.0417    1.5545 H   0  0  0  0  0  0  0  0  0  0  0  0
   -0.7262    1.4223    1.6911 H   0  0  0  0  0  0  0  0  0  0  0  0
   -0.8268    1.3947   -1.2242 H   0  0  0  0  0  0  0  0  0  0  0  0
   -2.2804    1.8160   -0.1152 H   0  0  0  0  0  0  0  0  0  0  0  0
  1  2  1  0
  2  3  1  0
  3  4  1  0
  4  5  2  0
  5  6  1  0
  6  7  1  0
  7  8  1  0
  8  9  1  0
  8  3  1  0
  9  6  1  0
  1 10  1  0
  1 11  1  0
  1 12  1  0
  2 13  1  0
  2 14  1  0
  3 15  1  0
  4 16  1  0
  5 17  1  0
  6 18  1  0
  7 19  1  0
  7 20  1  0
  8 21  1  0
  9 22  1  0
  9 23  1  0
M  END
