
     RDKit          3D

 23 23  0  0  0  0  0  0  0  0999 V2000
    2.7492    0.5275   -0.5722 C   0  0  0  0  0  0  0  0  0  0  0  0
    1.8265   -0.6563   -0.4565 C   0  0  0  0  0  0  0  0  0  0  0  0
    0.5177   -0.3386    0.1452 C   0  0  0  0  0  0  0  0  0  0  0  0
    0.3233    0.9049    0.4966 C   0  0  0  0  0  0  0  0  0  0  0  0
   -0.8894    1.4838    1.1163 C   0  0  0  0  0  0  0  0  0  0  0  0
   -2.0066    1.2010    0.1997 C   0  0  0  0  0  0  0  0  0  0  0  0
   -2.2872    0.0680   -0.3962 C   0  0  0  0  0  0  0  0  0  0  0  0
   -1.7176   -1.2806   -0.4426 C   0  0  0  0  0  0  0  0  0  0  0  0
   -0.4411   -1.4939    0.2838 C   0  0  0  0  0  0  0  0  0  0  0  0
    3.7166    0.1705   -0.9965 H   0  0  0  0  0  0  0  0  0  0  0  0
    2.3784    1.3288   -1.2224 H   0  0  0  0  0  0  0  0  0  0  0  0
    3.0003    0.8874    0.4527 H   0  0  0  0  0  0  0  0  0  0  0  0
    2.3395   -1.3941    0.2285 H   0  0  0  0  0  0  0  0  0  0  0  0
    1.7335   -1.1757   -1.4355 H   0  0  0  0  0  0  0  0  0  0  0  0
    1.1155    1.5892    0.3245 H   0  0  0  0  0  0  0  0  0  0  0  0
   -1.0491    0.9056    2.0727 H   0  0  0  0  0  0  0  0  0  0  0  0
   -0.7805    2.5552    1.3617 H   0  0  0  0  0  0  0  0  0  0  0  0
   -2.6618    2.0173    0.0003 H   0  0  0  0  0  0  0  0  0  0  0  0
   -3.1945    0.1664   -1.0281 H   0  0  0  0  0  0  0  0  0  0  0  0
   -1.5585   -1.5464   -1.5098 H   0  0  0  0  0  0  0  0  0  0  0  0
   -2.4996   -1.9807   -0.0651 H   0  0  0  0  0  0  0  0  0  0  0  0
   -0.6869   -1.5137    1.3870 H   0  0  0  0  0  0  0  0  0  0  0  0
    0.0726   -2.4255    0.0559 H   0  0  0  0  0  0  0  0  0  0  0  0
  1  2  1  0
  2  3  1  0
  3  4  2  0
  4  5  1  0
  5  6  1  0
  6  7  2  0
  7  8  1  0
  8  9  1  0
  9  3  1  0
  1 10  1  0
  1 11  1  0
  1 12  1  0
  2 13  1  0
  2 14  1  0
  4 15  1  0
  5 16  1  0
  5 17  1  0
  6 18  1  0
  7 19  1  0
  8 20  1  0
  8 21  1  0
  9 22  1  0
  9 23  1  0
M  END
