
     RDKit          3D

 25 25  0  0  0  0  0  0  0  0999 V2000
    1.8664   -1.2216    0.8776 C   0  0  0  0  0  0  0  0  0  0  0  0
    1.3447   -0.7618   -0.4350 C   0  0  0  0  0  0  0  0  0  0  0  0
    0.2394    0.2272   -0.4015 C   0  0  0  0  0  0  0  0  0  0  0  0
   -0.1313    0.5514   -1.8375 C   0  0  0  0  0  0  0  0  0  0  0  0
    0.4946    1.4864    0.3372 C   0  0  0  0  0  0  0  0  0  0  0  0
   -0.9119    2.0146    0.5529 C   0  0  0  0  0  0  0  0  0  0  0  0
   -1.6531    0.7329    0.8013 C   0  0  0  0  0  0  0  0  0  0  0  0
   -0.9941   -0.2819    0.2561 C   0  0  0  0  0  0  0  0  0  0  0  0
   -1.4166   -1.6980    0.2944 C   0  0  0  0  0  0  0  0  0  0  0  0
    1.5173   -0.6573    1.7482 H   0  0  0  0  0  0  0  0  0  0  0  0
    1.6347   -2.2908    1.0828 H   0  0  0  0  0  0  0  0  0  0  0  0
    2.9945   -1.1613    0.9054 H   0  0  0  0  0  0  0  0  0  0  0  0
    2.1765   -0.3327   -1.0313 H   0  0  0  0  0  0  0  0  0  0  0  0
    0.9926   -1.6504   -1.0003 H   0  0  0  0  0  0  0  0  0  0  0  0
   -1.1158    0.1075   -2.1214 H   0  0  0  0  0  0  0  0  0  0  0  0
    0.6043    0.1416   -2.5622 H   0  0  0  0  0  0  0  0  0  0  0  0
   -0.1954    1.6306   -2.0242 H   0  0  0  0  0  0  0  0  0  0  0  0
    0.8926    1.2979    1.3553 H   0  0  0  0  0  0  0  0  0  0  0  0
    1.1255    2.2185   -0.1996 H   0  0  0  0  0  0  0  0  0  0  0  0
   -1.3093    2.5465   -0.3205 H   0  0  0  0  0  0  0  0  0  0  0  0
   -0.9057    2.6616    1.4631 H   0  0  0  0  0  0  0  0  0  0  0  0
   -2.5895    0.7031    1.3543 H   0  0  0  0  0  0  0  0  0  0  0  0
   -2.5013   -1.8037    0.5571 H   0  0  0  0  0  0  0  0  0  0  0  0
   -0.8442   -2.2632    1.0487 H   0  0  0  0  0  0  0  0  0  0  0  0
   -1.3147   -2.1972   -0.7007 H   0  0  0  0  0  0  0  0  0  0  0  0
  1  2  1  0
  2  3  1  0
  3  4  1  0
  3  5  1  0
  5  6  1  0
  6  7  1  0
  7  8  2  0
  8  9  1  0
  8  3  1  0
  1 10  1  0
  1 11  1  0
  1 12  1  0
  2 13  1  0
  2 14  1  0
  4 15  1  0
  4 16  1  0
  4 17  1  0
  5 18  1  0
  5 19  1  0
  6 20  1  0
  6 21  1  0
  7 22  1  0
  9 23  1  0
  9 24  1  0
  9 25  1  0
M  END
