
     RDKit          3D

 19 21  0  0  0  0  0  0  0  0999 V2000
    2.5481    0.3651    0.2646 C   0  0  0  0  0  0  0  0  0  0  0  0
    1.3893   -0.2692   -0.4719 C   0  0  0  0  0  0  0  0  0  0  0  0
    0.1329   -0.3010    0.3593 C   0  0  0  0  0  0  0  0  0  0  0  0
   -1.0010   -0.9292   -0.3799 C   0  0  0  0  0  0  0  0  0  0  0  0
   -1.0415    0.2542   -1.1564 O   0  0  0  0  0  0  0  0  0  0  0  0
   -0.7167    0.9111    0.0487 C   0  0  0  0  0  0  0  0  0  0  0  0
   -1.9998    0.7451    0.8160 C   0  0  0  0  0  0  0  0  0  0  0  0
   -3.1406    0.2713    0.1325 O   0  0  0  0  0  0  0  0  0  0  0  0
   -2.2399   -0.7386    0.4720 C   0  0  0  0  0  0  0  0  0  0  0  0
    2.7778   -0.1414    1.2190 H   0  0  0  0  0  0  0  0  0  0  0  0
    2.3767    1.4474    0.3734 H   0  0  0  0  0  0  0  0  0  0  0  0
    3.4432    0.2308   -0.3927 H   0  0  0  0  0  0  0  0  0  0  0  0
    1.2467    0.3402   -1.4016 H   0  0  0  0  0  0  0  0  0  0  0  0
    1.6265   -1.2916   -0.8052 H   0  0  0  0  0  0  0  0  0  0  0  0
    0.2715   -0.5411    1.4062 H   0  0  0  0  0  0  0  0  0  0  0  0
   -0.8699   -1.8502   -0.8991 H   0  0  0  0  0  0  0  0  0  0  0  0
   -0.2538    1.8677   -0.0142 H   0  0  0  0  0  0  0  0  0  0  0  0
   -2.0874    1.0554    1.8560 H   0  0  0  0  0  0  0  0  0  0  0  0
   -2.4623   -1.4261    1.2896 H   0  0  0  0  0  0  0  0  0  0  0  0
  1  2  1  0
  2  3  1  0
  3  4  1  0
  4  5  1  0
  5  6  1  0
  6  7  1  0
  7  8  1  0
  8  9  1  0
  6  3  1  0
  9  7  1  0
  9  4  1  0
  1 10  1  0
  1 11  1  0
  1 12  1  0
  2 13  1  0
  2 14  1  0
  3 15  1  0
  4 16  1  0
  6 17  1  0
  7 18  1  0
  9 19  1  0
M  END
