
     RDKit          3D

 27 27  0  0  0  0  0  0  0  0999 V2000
    2.7907    0.3304   -0.2515 C   0  0  0  0  0  0  0  0  0  0  0  0
    1.4010    0.7663    0.0947 C   0  0  0  0  0  0  0  0  0  0  0  0
    0.3763   -0.3333   -0.0300 C   0  0  0  0  0  0  0  0  0  0  0  0
   -1.0270    0.1497    0.3310 C   0  0  0  0  0  0  0  0  0  0  0  0
   -1.0583    0.6556    1.7622 C   0  0  0  0  0  0  0  0  0  0  0  0
   -2.0763   -0.8832    0.1560 C   0  0  0  0  0  0  0  0  0  0  0  0
   -1.3146    1.3199   -0.5809 C   0  0  0  0  0  0  0  0  0  0  0  0
    0.4322   -1.0261   -1.3816 C   0  0  0  0  0  0  0  0  0  0  0  0
    0.7079   -1.7511   -0.0865 C   0  0  0  0  0  0  0  0  0  0  0  0
    2.9378    0.2448   -1.3670 H   0  0  0  0  0  0  0  0  0  0  0  0
    3.4762    1.1601    0.0576 H   0  0  0  0  0  0  0  0  0  0  0  0
    3.1331   -0.5622    0.2886 H   0  0  0  0  0  0  0  0  0  0  0  0
    1.1057    1.5568   -0.6379 H   0  0  0  0  0  0  0  0  0  0  0  0
    1.3695    1.2010    1.0993 H   0  0  0  0  0  0  0  0  0  0  0  0
   -0.6256    1.6632    1.8590 H   0  0  0  0  0  0  0  0  0  0  0  0
   -2.1448    0.7612    2.0240 H   0  0  0  0  0  0  0  0  0  0  0  0
   -0.6410   -0.0719    2.4778 H   0  0  0  0  0  0  0  0  0  0  0  0
   -2.9238   -0.4450   -0.4110 H   0  0  0  0  0  0  0  0  0  0  0  0
   -1.7698   -1.7833   -0.4196 H   0  0  0  0  0  0  0  0  0  0  0  0
   -2.5107   -1.1614    1.1458 H   0  0  0  0  0  0  0  0  0  0  0  0
   -0.7703    1.2111   -1.5585 H   0  0  0  0  0  0  0  0  0  0  0  0
   -1.0462    2.2842   -0.1023 H   0  0  0  0  0  0  0  0  0  0  0  0
   -2.3902    1.3864   -0.8490 H   0  0  0  0  0  0  0  0  0  0  0  0
    1.2901   -0.8195   -2.0636 H   0  0  0  0  0  0  0  0  0  0  0  0
   -0.4812   -1.3018   -1.9086 H   0  0  0  0  0  0  0  0  0  0  0  0
    1.7627   -2.0539    0.0512 H   0  0  0  0  0  0  0  0  0  0  0  0
   -0.0034   -2.4980    0.3008 H   0  0  0  0  0  0  0  0  0  0  0  0
  1  2  1  0
  2  3  1  0
  3  4  1  0
  4  5  1  0
  4  6  1  0
  4  7  1  0
  3  8  1  0
  8  9  1  0
  9  3  1  0
  1 10  1  0
  1 11  1  0
  1 12  1  0
  2 13  1  0
  2 14  1  0
  5 15  1  0
  5 16  1  0
  5 17  1  0
  6 18  1  0
  6 19  1  0
  6 20  1  0
  7 21  1  0
  7 22  1  0
  7 23  1  0
  8 24  1  0
  8 25  1  0
  9 26  1  0
  9 27  1  0
M  END
