
     RDKit          3D

 21 23  0  0  0  0  0  0  0  0999 V2000
    1.9760   -0.2613   -0.9164 C   0  0  0  0  0  0  0  0  0  0  0  0
    1.5588    0.1810    0.4484 C   0  0  0  0  0  0  0  0  0  0  0  0
    0.1394    0.6603    0.5153 C   0  0  0  0  0  0  0  0  0  0  0  0
   -0.2039    1.8283   -0.3534 C   0  0  0  0  0  0  0  0  0  0  0  0
   -0.5210    1.6465   -1.6914 O   0  0  0  0  0  0  0  0  0  0  0  0
   -1.4240    1.0320   -0.8375 C   0  0  0  0  0  0  0  0  0  0  0  0
   -0.9094   -0.1516   -0.1065 C   0  0  0  0  0  0  0  0  0  0  0  0
   -0.8038   -1.4919   -0.6191 C   0  0  0  0  0  0  0  0  0  0  0  0
   -1.7386   -1.1392    0.5726 C   0  0  0  0  0  0  0  0  0  0  0  0
    2.9059    0.3105   -1.2065 H   0  0  0  0  0  0  0  0  0  0  0  0
    2.2452   -1.3375   -0.9540 H   0  0  0  0  0  0  0  0  0  0  0  0
    1.2325    0.0030   -1.7124 H   0  0  0  0  0  0  0  0  0  0  0  0
    2.2045    0.9455    0.8963 H   0  0  0  0  0  0  0  0  0  0  0  0
    1.6204   -0.7198    1.1269 H   0  0  0  0  0  0  0  0  0  0  0  0
   -0.1118    0.9037    1.5844 H   0  0  0  0  0  0  0  0  0  0  0  0
   -0.3893    2.8280    0.0755 H   0  0  0  0  0  0  0  0  0  0  0  0
   -2.4054    1.4730   -0.6407 H   0  0  0  0  0  0  0  0  0  0  0  0
   -1.2763   -1.7510   -1.5668 H   0  0  0  0  0  0  0  0  0  0  0  0
    0.0632   -2.1439   -0.3641 H   0  0  0  0  0  0  0  0  0  0  0  0
   -1.3704   -1.4784    1.5843 H   0  0  0  0  0  0  0  0  0  0  0  0
   -2.7921   -1.3373    0.3679 H   0  0  0  0  0  0  0  0  0  0  0  0
  1  2  1  0
  2  3  1  0
  3  4  1  0
  4  5  1  0
  5  6  1  0
  6  7  1  0
  7  8  1  0
  8  9  1  0
  7  3  1  0
  6  4  1  0
  9  7  1  0
  1 10  1  0
  1 11  1  0
  1 12  1  0
  2 13  1  0
  2 14  1  0
  3 15  1  0
  4 16  1  0
  6 17  1  0
  8 18  1  0
  8 19  1  0
  9 20  1  0
  9 21  1  0
M  END
