
     RDKit          3D

 23 23  0  0  0  0  0  0  0  0999 V2000
    2.9831   -0.1222   -0.0170 C   0  0  0  0  0  0  0  0  0  0  0  0
    1.6170    0.4060    0.3589 C   0  0  0  0  0  0  0  0  0  0  0  0
    0.5592   -0.1001   -0.5794 C   0  0  0  0  0  0  0  0  0  0  0  0
    0.5069   -1.4904   -0.5504 O   0  0  0  0  0  0  0  0  0  0  0  0
   -0.4413   -1.3882    0.4614 C   0  0  0  0  0  0  0  0  0  0  0  0
   -0.8511   -0.0594   -0.1343 C   0  0  0  0  0  0  0  0  0  0  0  0
   -1.8212   -0.2455   -1.2727 C   0  0  0  0  0  0  0  0  0  0  0  0
   -1.2583    0.9869    0.8438 C   0  0  0  0  0  0  0  0  0  0  0  0
   -2.6360    0.8037    1.0954 O   0  0  0  0  0  0  0  0  0  0  0  0
    3.3000   -0.9680    0.6462 H   0  0  0  0  0  0  0  0  0  0  0  0
    3.7610    0.6769   -0.0131 H   0  0  0  0  0  0  0  0  0  0  0  0
    2.9890   -0.5341   -1.0590 H   0  0  0  0  0  0  0  0  0  0  0  0
    1.4161    0.1393    1.4140 H   0  0  0  0  0  0  0  0  0  0  0  0
    1.6905    1.5131    0.3346 H   0  0  0  0  0  0  0  0  0  0  0  0
    0.6789    0.2890   -1.6310 H   0  0  0  0  0  0  0  0  0  0  0  0
    0.0063   -1.3181    1.4702 H   0  0  0  0  0  0  0  0  0  0  0  0
   -1.2961   -2.0891    0.3722 H   0  0  0  0  0  0  0  0  0  0  0  0
   -1.3773   -0.8211   -2.1118 H   0  0  0  0  0  0  0  0  0  0  0  0
   -2.0938    0.7492   -1.6883 H   0  0  0  0  0  0  0  0  0  0  0  0
   -2.7112   -0.7679   -0.8653 H   0  0  0  0  0  0  0  0  0  0  0  0
   -0.7625    0.8664    1.8316 H   0  0  0  0  0  0  0  0  0  0  0  0
   -1.0745    2.0131    0.4549 H   0  0  0  0  0  0  0  0  0  0  0  0
   -3.1847    1.4606    0.6391 H   0  0  0  0  0  0  0  0  0  0  0  0
  1  2  1  0
  2  3  1  0
  3  4  1  0
  4  5  1  0
  5  6  1  0
  6  7  1  0
  6  8  1  0
  8  9  1  0
  6  3  1  0
  1 10  1  0
  1 11  1  0
  1 12  1  0
  2 13  1  0
  2 14  1  0
  3 15  1  0
  5 16  1  0
  5 17  1  0
  7 18  1  0
  7 19  1  0
  7 20  1  0
  8 21  1  0
  8 22  1  0
  9 23  1  0
M  END
