
     RDKit          3D

 23 23  0  0  0  0  0  0  0  0999 V2000
    3.0339    0.5635   -0.2884 C   0  0  0  0  0  0  0  0  0  0  0  0
    1.7216    0.9203    0.4186 C   0  0  0  0  0  0  0  0  0  0  0  0
    0.7016   -0.1131    0.1395 C   0  0  0  0  0  0  0  0  0  0  0  0
    0.8739   -1.1890   -0.6038 C   0  0  0  0  0  0  0  0  0  0  0  0
   -0.4038   -1.9397   -0.6111 C   0  0  0  0  0  0  0  0  0  0  0  0
   -1.0873   -1.4839    0.4969 O   0  0  0  0  0  0  0  0  0  0  0  0
   -0.6909   -0.1349    0.6485 C   0  0  0  0  0  0  0  0  0  0  0  0
   -1.6144    0.7705   -0.1373 C   0  0  0  0  0  0  0  0  0  0  0  0
   -2.9924    0.6648    0.4696 C   0  0  0  0  0  0  0  0  0  0  0  0
    2.7841    0.2958   -1.3417 H   0  0  0  0  0  0  0  0  0  0  0  0
    3.7509    1.3854   -0.2358 H   0  0  0  0  0  0  0  0  0  0  0  0
    3.4952   -0.3337    0.1720 H   0  0  0  0  0  0  0  0  0  0  0  0
    1.9447    0.8627    1.5226 H   0  0  0  0  0  0  0  0  0  0  0  0
    1.4146    1.9351    0.1378 H   0  0  0  0  0  0  0  0  0  0  0  0
    1.8121   -1.4852   -1.1341 H   0  0  0  0  0  0  0  0  0  0  0  0
   -1.0298   -1.6944   -1.4976 H   0  0  0  0  0  0  0  0  0  0  0  0
   -0.2385   -3.0319   -0.5088 H   0  0  0  0  0  0  0  0  0  0  0  0
   -0.6741    0.0818    1.7287 H   0  0  0  0  0  0  0  0  0  0  0  0
   -1.2195    1.8022   -0.1578 H   0  0  0  0  0  0  0  0  0  0  0  0
   -1.6652    0.3300   -1.1710 H   0  0  0  0  0  0  0  0  0  0  0  0
   -2.8799    0.8335    1.5717 H   0  0  0  0  0  0  0  0  0  0  0  0
   -3.7240    1.3496    0.0171 H   0  0  0  0  0  0  0  0  0  0  0  0
   -3.3130   -0.3893    0.3646 H   0  0  0  0  0  0  0  0  0  0  0  0
  1  2  1  0
  2  3  1  0
  3  4  2  0
  4  5  1  0
  5  6  1  0
  6  7  1  0
  7  8  1  0
  8  9  1  0
  7  3  1  0
  1 10  1  0
  1 11  1  0
  1 12  1  0
  2 13  1  0
  2 14  1  0
  4 15  1  0
  5 16  1  0
  5 17  1  0
  7 18  1  0
  8 19  1  0
  8 20  1  0
  9 21  1  0
  9 22  1  0
  9 23  1  0
M  END
