
     RDKit          3D

 23 23  0  0  0  0  0  0  0  0999 V2000
    2.1741    0.2836    0.6090 C   0  0  0  0  0  0  0  0  0  0  0  0
    1.6120   -0.1423   -0.6971 C   0  0  0  0  0  0  0  0  0  0  0  0
    0.0892   -0.1997   -0.7087 C   0  0  0  0  0  0  0  0  0  0  0  0
   -0.2507   -0.6185   -2.0171 O   0  0  0  0  0  0  0  0  0  0  0  0
   -0.4396    1.1642   -0.4646 C   0  0  0  0  0  0  0  0  0  0  0  0
   -1.7691    1.2283    0.1975 C   0  0  0  0  0  0  0  0  0  0  0  0
   -2.4345   -0.0011    0.2045 O   0  0  0  0  0  0  0  0  0  0  0  0
   -1.6509   -0.8595    0.9796 C   0  0  0  0  0  0  0  0  0  0  0  0
   -0.4285   -1.2530    0.2214 C   0  0  0  0  0  0  0  0  0  0  0  0
    2.2631    1.4044    0.7113 H   0  0  0  0  0  0  0  0  0  0  0  0
    3.2302   -0.1019    0.6836 H   0  0  0  0  0  0  0  0  0  0  0  0
    1.6441   -0.0594    1.4965 H   0  0  0  0  0  0  0  0  0  0  0  0
    1.9917   -1.1686   -0.9237 H   0  0  0  0  0  0  0  0  0  0  0  0
    1.9523    0.5144   -1.5037 H   0  0  0  0  0  0  0  0  0  0  0  0
    0.3610   -1.3720   -2.2362 H   0  0  0  0  0  0  0  0  0  0  0  0
   -0.5463    1.6683   -1.4701 H   0  0  0  0  0  0  0  0  0  0  0  0
    0.2583    1.8242    0.1100 H   0  0  0  0  0  0  0  0  0  0  0  0
   -2.4658    1.9679   -0.2602 H   0  0  0  0  0  0  0  0  0  0  0  0
   -1.6693    1.5270    1.2698 H   0  0  0  0  0  0  0  0  0  0  0  0
   -2.2761   -1.7174    1.2555 H   0  0  0  0  0  0  0  0  0  0  0  0
   -1.3191   -0.3345    1.9056 H   0  0  0  0  0  0  0  0  0  0  0  0
    0.3505   -1.5425    0.9594 H   0  0  0  0  0  0  0  0  0  0  0  0
   -0.6766   -2.2117   -0.3224 H   0  0  0  0  0  0  0  0  0  0  0  0
  1  2  1  0
  2  3  1  0
  3  4  1  0
  3  5  1  0
  5  6  1  0
  6  7  1  0
  7  8  1  0
  8  9  1  0
  9  3  1  0
  1 10  1  0
  1 11  1  0
  1 12  1  0
  2 13  1  0
  2 14  1  0
  4 15  1  0
  5 16  1  0
  5 17  1  0
  6 18  1  0
  6 19  1  0
  8 20  1  0
  8 21  1  0
  9 22  1  0
  9 23  1  0
M  END
