
     RDKit          3D

 23 24  0  0  0  0  0  0  0  0999 V2000
    2.5242    0.4861   -0.3555 C   0  0  0  0  0  0  0  0  0  0  0  0
    1.4752   -0.5386   -0.8104 C   0  0  0  0  0  0  0  0  0  0  0  0
    0.2754   -0.2825    0.0548 C   0  0  0  0  0  0  0  0  0  0  0  0
   -0.3093    1.0902   -0.0517 C   0  0  0  0  0  0  0  0  0  0  0  0
   -1.7938    0.8793   -0.1109 C   0  0  0  0  0  0  0  0  0  0  0  0
   -2.2444    0.9384   -1.4372 O   0  0  0  0  0  0  0  0  0  0  0  0
   -2.0229   -0.4611    0.5179 C   0  0  0  0  0  0  0  0  0  0  0  0
   -0.7581   -1.2620    0.3256 C   0  0  0  0  0  0  0  0  0  0  0  0
    0.3137   -0.9557    1.3961 C   0  0  0  0  0  0  0  0  0  0  0  0
    3.4771    0.3593   -0.8650 H   0  0  0  0  0  0  0  0  0  0  0  0
    2.0529    1.4798   -0.5413 H   0  0  0  0  0  0  0  0  0  0  0  0
    2.6074    0.4139    0.7628 H   0  0  0  0  0  0  0  0  0  0  0  0
    1.8637   -1.5669   -0.7471 H   0  0  0  0  0  0  0  0  0  0  0  0
    1.2640   -0.2993   -1.8919 H   0  0  0  0  0  0  0  0  0  0  0  0
    0.0122    1.5671   -1.0181 H   0  0  0  0  0  0  0  0  0  0  0  0
   -0.0041    1.7770    0.7510 H   0  0  0  0  0  0  0  0  0  0  0  0
   -2.2893    1.6890    0.4754 H   0  0  0  0  0  0  0  0  0  0  0  0
   -1.6469    0.4108   -2.0257 H   0  0  0  0  0  0  0  0  0  0  0  0
   -2.1563   -0.2860    1.6185 H   0  0  0  0  0  0  0  0  0  0  0  0
   -2.8973   -1.0024    0.1282 H   0  0  0  0  0  0  0  0  0  0  0  0
   -0.7919   -2.2789   -0.0627 H   0  0  0  0  0  0  0  0  0  0  0  0
   -0.0153   -0.4215    2.3055 H   0  0  0  0  0  0  0  0  0  0  0  0
    1.0642   -1.7361    1.5816 H   0  0  0  0  0  0  0  0  0  0  0  0
  1  2  1  0
  2  3  1  0
  3  4  1  0
  4  5  1  0
  5  6  1  0
  5  7  1  0
  7  8  1  0
  8  9  1  0
  8  3  1  0
  9  3  1  0
  1 10  1  0
  1 11  1  0
  1 12  1  0
  2 13  1  0
  2 14  1  0
  4 15  1  0
  4 16  1  0
  5 17  1  0
  6 18  1  0
  7 19  1  0
  7 20  1  0
  8 21  1  0
  9 22  1  0
  9 23  1  0
M  END
