
     RDKit          3D

 23 24  0  0  0  0  0  0  0  0999 V2000
    2.6157   -0.5023   -0.0721 C   0  0  0  0  0  0  0  0  0  0  0  0
    1.4406   -0.1085    0.8019 C   0  0  0  0  0  0  0  0  0  0  0  0
    0.3243    0.4564   -0.0294 C   0  0  0  0  0  0  0  0  0  0  0  0
    0.5506    1.5772   -0.7862 O   0  0  0  0  0  0  0  0  0  0  0  0
   -0.6197    2.2257   -0.3963 C   0  0  0  0  0  0  0  0  0  0  0  0
   -0.8776    1.0571    0.5318 C   0  0  0  0  0  0  0  0  0  0  0  0
   -0.9366   -0.2976   -0.0730 C   0  0  0  0  0  0  0  0  0  0  0  0
   -1.5279   -0.5221   -1.4382 C   0  0  0  0  0  0  0  0  0  0  0  0
   -1.1454   -1.4085    0.9011 C   0  0  0  0  0  0  0  0  0  0  0  0
    2.3073   -1.2992   -0.7968 H   0  0  0  0  0  0  0  0  0  0  0  0
    3.4775   -0.8005    0.5348 H   0  0  0  0  0  0  0  0  0  0  0  0
    2.9220    0.3622   -0.6910 H   0  0  0  0  0  0  0  0  0  0  0  0
    1.1040   -1.0473    1.2924 H   0  0  0  0  0  0  0  0  0  0  0  0
    1.8240    0.6067    1.5566 H   0  0  0  0  0  0  0  0  0  0  0  0
   -0.4679    3.1412    0.2066 H   0  0  0  0  0  0  0  0  0  0  0  0
   -1.3119    2.3101   -1.2518 H   0  0  0  0  0  0  0  0  0  0  0  0
   -0.9441    1.2081    1.6098 H   0  0  0  0  0  0  0  0  0  0  0  0
   -0.7321   -0.8955   -2.1364 H   0  0  0  0  0  0  0  0  0  0  0  0
   -2.3198   -1.2989   -1.4231 H   0  0  0  0  0  0  0  0  0  0  0  0
   -1.9513    0.3804   -1.8875 H   0  0  0  0  0  0  0  0  0  0  0  0
   -0.4596   -2.2588    0.7617 H   0  0  0  0  0  0  0  0  0  0  0  0
   -1.0802   -1.0653    1.9742 H   0  0  0  0  0  0  0  0  0  0  0  0
   -2.1920   -1.8205    0.8109 H   0  0  0  0  0  0  0  0  0  0  0  0
  1  2  1  0
  2  3  1  0
  3  4  1  0
  4  5  1  0
  5  6  1  0
  6  7  1  0
  7  8  1  0
  7  9  1  0
  6  3  1  0
  7  3  1  0
  1 10  1  0
  1 11  1  0
  1 12  1  0
  2 13  1  0
  2 14  1  0
  5 15  1  0
  5 16  1  0
  6 17  1  0
  8 18  1  0
  8 19  1  0
  8 20  1  0
  9 21  1  0
  9 22  1  0
  9 23  1  0
M  END
