
     RDKit          3D

 25 26  0  0  0  0  0  0  0  0999 V2000
    2.1910   -0.6960    0.5352 C   0  0  0  0  0  0  0  0  0  0  0  0
    1.6310   -0.2568   -0.7745 C   0  0  0  0  0  0  0  0  0  0  0  0
    0.1996    0.1937   -0.6962 C   0  0  0  0  0  0  0  0  0  0  0  0
   -0.0698    1.3558    0.2166 C   0  0  0  0  0  0  0  0  0  0  0  0
   -0.7646    2.5350   -0.4275 C   0  0  0  0  0  0  0  0  0  0  0  0
   -1.0510    0.5038    1.0035 C   0  0  0  0  0  0  0  0  0  0  0  0
   -0.7396   -0.6225    0.0847 C   0  0  0  0  0  0  0  0  0  0  0  0
   -1.7331   -1.5350   -0.4762 C   0  0  0  0  0  0  0  0  0  0  0  0
   -0.5997   -2.0075    0.4628 C   0  0  0  0  0  0  0  0  0  0  0  0
    3.0123   -0.0152    0.9035 H   0  0  0  0  0  0  0  0  0  0  0  0
    2.6877   -1.6809    0.3945 H   0  0  0  0  0  0  0  0  0  0  0  0
    1.3711   -0.7654    1.2712 H   0  0  0  0  0  0  0  0  0  0  0  0
    2.2259    0.6459   -1.1039 H   0  0  0  0  0  0  0  0  0  0  0  0
    1.7697   -1.0067   -1.5506 H   0  0  0  0  0  0  0  0  0  0  0  0
   -0.1920    0.4175   -1.7114 H   0  0  0  0  0  0  0  0  0  0  0  0
    0.8324    1.6702    0.7807 H   0  0  0  0  0  0  0  0  0  0  0  0
   -0.7555    3.3603    0.2919 H   0  0  0  0  0  0  0  0  0  0  0  0
   -1.8127    2.2733   -0.6360 H   0  0  0  0  0  0  0  0  0  0  0  0
   -0.2449    2.8817   -1.3441 H   0  0  0  0  0  0  0  0  0  0  0  0
   -2.1118    0.8741    0.9318 H   0  0  0  0  0  0  0  0  0  0  0  0
   -0.6821    0.4013    2.0446 H   0  0  0  0  0  0  0  0  0  0  0  0
   -1.5738   -1.8274   -1.5517 H   0  0  0  0  0  0  0  0  0  0  0  0
   -2.7614   -1.6369   -0.1272 H   0  0  0  0  0  0  0  0  0  0  0  0
    0.1512   -2.6881    0.0214 H   0  0  0  0  0  0  0  0  0  0  0  0
   -0.9799   -2.3741    1.4570 H   0  0  0  0  0  0  0  0  0  0  0  0
  1  2  1  0
  2  3  1  0
  3  4  1  0
  4  5  1  0
  4  6  1  0
  6  7  1  0
  7  8  1  0
  8  9  1  0
  7  3  1  0
  9  7  1  0
  1 10  1  0
  1 11  1  0
  1 12  1  0
  2 13  1  0
  2 14  1  0
  3 15  1  0
  4 16  1  0
  5 17  1  0
  5 18  1  0
  5 19  1  0
  6 20  1  0
  6 21  1  0
  8 22  1  0
  8 23  1  0
  9 24  1  0
  9 25  1  0
M  END
