
     RDKit          3D

 17 18  0  0  0  0  0  0  0  0999 V2000
    2.1876   -0.1333   -0.4717 C   0  0  0  0  0  0  0  0  0  0  0  0
    1.2379   -0.0380    0.6985 C   0  0  0  0  0  0  0  0  0  0  0  0
   -0.1278   -0.0404    0.2424 C   0  0  0  0  0  0  0  0  0  0  0  0
   -1.2377    0.0476    1.2443 C   0  0  0  0  0  0  0  0  0  0  0  0
   -2.3108   -0.0703    0.4239 C   0  0  0  0  0  0  0  0  0  0  0  0
   -1.6166   -0.2743   -0.8885 C   0  0  0  0  0  0  0  0  0  0  0  0
   -0.5825   -1.1361   -0.5283 O   0  0  0  0  0  0  0  0  0  0  0  0
   -0.5786    0.8067   -0.8631 C   0  0  0  0  0  0  0  0  0  0  0  0
   -0.3999    1.7864   -1.5186 O   0  0  0  0  0  0  0  0  0  0  0  0
    2.3615   -1.2126   -0.7232 H   0  0  0  0  0  0  0  0  0  0  0  0
    3.1457    0.3238   -0.1407 H   0  0  0  0  0  0  0  0  0  0  0  0
    1.7980    0.3882   -1.3472 H   0  0  0  0  0  0  0  0  0  0  0  0
    1.4404    0.8086    1.3480 H   0  0  0  0  0  0  0  0  0  0  0  0
    1.4308   -0.9602    1.3172 H   0  0  0  0  0  0  0  0  0  0  0  0
   -1.2072    0.1701    2.3175 H   0  0  0  0  0  0  0  0  0  0  0  0
   -3.3624   -0.0292    0.6505 H   0  0  0  0  0  0  0  0  0  0  0  0
   -2.1784   -0.4369   -1.7610 H   0  0  0  0  0  0  0  0  0  0  0  0
  1  2  1  0
  2  3  1  0
  3  4  1  0
  4  5  2  0
  5  6  1  0
  6  7  1  0
  6  8  1  0
  8  9  2  0
  7  3  1  0
  8  3  1  0
  1 10  1  0
  1 11  1  0
  1 12  1  0
  2 13  1  0
  2 14  1  0
  4 15  1  0
  5 16  1  0
  6 17  1  0
M  END
