
     RDKit          3D

 20 21  0  0  0  0  0  0  0  0999 V2000
    2.3444    0.1389    0.0839 C   0  0  0  0  0  0  0  0  0  0  0  0
    1.1138   -0.6927    0.4661 C   0  0  0  0  0  0  0  0  0  0  0  0
   -0.0074   -0.3204   -0.4176 C   0  0  0  0  0  0  0  0  0  0  0  0
    0.2557   -0.5444   -1.8000 O   0  0  0  0  0  0  0  0  0  0  0  0
   -1.3987   -0.7000   -0.0896 C   0  0  0  0  0  0  0  0  0  0  0  0
   -1.4038    0.3712    0.9448 C   0  0  0  0  0  0  0  0  0  0  0  0
   -0.6483    0.9891   -0.1755 C   0  0  0  0  0  0  0  0  0  0  0  0
   -1.7771    0.4335   -1.0359 C   0  0  0  0  0  0  0  0  0  0  0  0
    2.7721   -0.2124   -0.8816 H   0  0  0  0  0  0  0  0  0  0  0  0
    1.9735    1.1793   -0.1176 H   0  0  0  0  0  0  0  0  0  0  0  0
    3.0689    0.1971    0.8960 H   0  0  0  0  0  0  0  0  0  0  0  0
    0.9164   -0.4900    1.5270 H   0  0  0  0  0  0  0  0  0  0  0  0
    1.3897   -1.7843    0.3979 H   0  0  0  0  0  0  0  0  0  0  0  0
    1.1053   -1.0356   -1.9123 H   0  0  0  0  0  0  0  0  0  0  0  0
   -1.8344   -1.5965   -0.0662 H   0  0  0  0  0  0  0  0  0  0  0  0
   -0.9101    0.1207    1.8762 H   0  0  0  0  0  0  0  0  0  0  0  0
   -2.4182    0.8038    1.1351 H   0  0  0  0  0  0  0  0  0  0  0  0
   -0.2744    1.9123   -0.2482 H   0  0  0  0  0  0  0  0  0  0  0  0
   -1.5456    0.2775   -2.0865 H   0  0  0  0  0  0  0  0  0  0  0  0
   -2.7217    0.9530   -0.7822 H   0  0  0  0  0  0  0  0  0  0  0  0
  1  2  1  0
  2  3  1  0
  3  4  1  0
  3  5  1  0
  5  6  1  0
  6  7  1  0
  7  8  1  0
  7  3  1  0
  8  5  1  0
  1  9  1  0
  1 10  1  0
  1 11  1  0
  2 12  1  0
  2 13  1  0
  4 14  1  0
  5 15  1  0
  6 16  1  0
  6 17  1  0
  7 18  1  0
  8 19  1  0
  8 20  1  0
M  END
