
     RDKit          3D

 18 19  0  0  0  0  0  0  0  0999 V2000
    2.3452    0.0169    0.0206 C   0  0  0  0  0  0  0  0  0  0  0  0
    1.2422   -0.9798   -0.3520 C   0  0  0  0  0  0  0  0  0  0  0  0
    0.1032   -0.1717   -0.9084 C   0  0  0  0  0  0  0  0  0  0  0  0
   -1.0114   -0.8828   -1.3126 O   0  0  0  0  0  0  0  0  0  0  0  0
   -1.9512   -0.2059   -0.5568 C   0  0  0  0  0  0  0  0  0  0  0  0
   -1.9146    1.2550   -0.3755 C   0  0  0  0  0  0  0  0  0  0  0  0
   -0.7525    0.4942    0.1402 C   0  0  0  0  0  0  0  0  0  0  0  0
   -0.5994    0.1821    1.4690 O   0  0  0  0  0  0  0  0  0  0  0  0
    2.0413    0.4547    0.9948 H   0  0  0  0  0  0  0  0  0  0  0  0
    2.4045    0.7802   -0.7894 H   0  0  0  0  0  0  0  0  0  0  0  0
    3.3236   -0.4564    0.1040 H   0  0  0  0  0  0  0  0  0  0  0  0
    1.6279   -1.7285   -1.0463 H   0  0  0  0  0  0  0  0  0  0  0  0
    0.8777   -1.5051    0.5658 H   0  0  0  0  0  0  0  0  0  0  0  0
    0.3943    0.5563   -1.6815 H   0  0  0  0  0  0  0  0  0  0  0  0
   -2.6262   -0.7964    0.1201 H   0  0  0  0  0  0  0  0  0  0  0  0
   -2.5846    1.6806    0.3716 H   0  0  0  0  0  0  0  0  0  0  0  0
   -1.7563    1.8886   -1.2672 H   0  0  0  0  0  0  0  0  0  0  0  0
   -1.1637   -0.5819    1.7714 H   0  0  0  0  0  0  0  0  0  0  0  0
  1  2  1  0
  2  3  1  0
  3  4  1  0
  4  5  1  0
  5  6  1  0
  6  7  1  0
  7  8  1  0
  7  3  1  0
  7  5  1  0
  1  9  1  0
  1 10  1  0
  1 11  1  0
  2 12  1  0
  2 13  1  0
  3 14  1  0
  5 15  1  0
  6 16  1  0
  6 17  1  0
  8 18  1  0
M  END
