
     RDKit          3D

 23 24  0  0  0  0  0  0  0  0999 V2000
    2.2404    0.9330    0.3272 C   0  0  0  0  0  0  0  0  0  0  0  0
    1.4219    0.3053   -0.7578 C   0  0  0  0  0  0  0  0  0  0  0  0
    0.2541   -0.4757   -0.2927 C   0  0  0  0  0  0  0  0  0  0  0  0
    0.3968   -1.6589    0.6080 C   0  0  0  0  0  0  0  0  0  0  0  0
   -0.8747   -1.9524    1.0625 O   0  0  0  0  0  0  0  0  0  0  0  0
   -1.6016   -0.7859    1.1070 C   0  0  0  0  0  0  0  0  0  0  0  0
   -1.0729    0.0517   -0.0377 C   0  0  0  0  0  0  0  0  0  0  0  0
   -1.4489    1.4899   -0.1008 C   0  0  0  0  0  0  0  0  0  0  0  0
   -0.8487   -0.6321   -1.3423 C   0  0  0  0  0  0  0  0  0  0  0  0
    1.8000    0.8400    1.3356 H   0  0  0  0  0  0  0  0  0  0  0  0
    3.2750    0.4840    0.3880 H   0  0  0  0  0  0  0  0  0  0  0  0
    2.4319    2.0300    0.1394 H   0  0  0  0  0  0  0  0  0  0  0  0
    2.0966   -0.3825   -1.3342 H   0  0  0  0  0  0  0  0  0  0  0  0
    1.0851    1.0669   -1.4858 H   0  0  0  0  0  0  0  0  0  0  0  0
    1.1104   -1.4573    1.4356 H   0  0  0  0  0  0  0  0  0  0  0  0
    0.7327   -2.5282    0.0002 H   0  0  0  0  0  0  0  0  0  0  0  0
   -2.6825   -0.9462    1.0127 H   0  0  0  0  0  0  0  0  0  0  0  0
   -1.4197   -0.3006    2.0923 H   0  0  0  0  0  0  0  0  0  0  0  0
   -1.7000    1.8869    0.9259 H   0  0  0  0  0  0  0  0  0  0  0  0
   -2.4294    1.5609   -0.6578 H   0  0  0  0  0  0  0  0  0  0  0  0
   -0.7383    2.1349   -0.6257 H   0  0  0  0  0  0  0  0  0  0  0  0
   -1.2481   -1.6472   -1.5332 H   0  0  0  0  0  0  0  0  0  0  0  0
   -0.7802   -0.0165   -2.2665 H   0  0  0  0  0  0  0  0  0  0  0  0
  1  2  1  0
  2  3  1  0
  3  4  1  0
  4  5  1  0
  5  6  1  0
  6  7  1  0
  7  8  1  0
  7  9  1  0
  7  3  1  0
  9  3  1  0
  1 10  1  0
  1 11  1  0
  1 12  1  0
  2 13  1  0
  2 14  1  0
  4 15  1  0
  4 16  1  0
  6 17  1  0
  6 18  1  0
  8 19  1  0
  8 20  1  0
  8 21  1  0
  9 22  1  0
  9 23  1  0
M  END
