
     RDKit          3D

 23 24  0  0  0  0  0  0  0  0999 V2000
    2.7871    0.3088    1.2088 C   0  0  0  0  0  0  0  0  0  0  0  0
    1.9880   -0.7399    0.4646 C   0  0  0  0  0  0  0  0  0  0  0  0
    0.9966   -0.0153   -0.4054 C   0  0  0  0  0  0  0  0  0  0  0  0
    0.1107   -0.9950   -1.2256 C   0  0  0  0  0  0  0  0  0  0  0  0
   -0.8914    0.1159   -1.1265 C   0  0  0  0  0  0  0  0  0  0  0  0
   -2.3150   -0.1961   -0.8381 C   0  0  0  0  0  0  0  0  0  0  0  0
   -2.5704    0.7444    0.3462 C   0  0  0  0  0  0  0  0  0  0  0  0
   -1.2429    0.7735    1.0612 C   0  0  0  0  0  0  0  0  0  0  0  0
   -0.2740    0.3785    0.2537 C   0  0  0  0  0  0  0  0  0  0  0  0
    2.2808    0.5326    2.1814 H   0  0  0  0  0  0  0  0  0  0  0  0
    2.8680    1.2515    0.5912 H   0  0  0  0  0  0  0  0  0  0  0  0
    3.8331   -0.0416    1.3715 H   0  0  0  0  0  0  0  0  0  0  0  0
    2.6429   -1.3896   -0.1656 H   0  0  0  0  0  0  0  0  0  0  0  0
    1.4594   -1.4020    1.1817 H   0  0  0  0  0  0  0  0  0  0  0  0
    1.4095    0.7692   -1.0350 H   0  0  0  0  0  0  0  0  0  0  0  0
    0.4997   -1.1559   -2.2416 H   0  0  0  0  0  0  0  0  0  0  0  0
   -0.1202   -1.9186   -0.6534 H   0  0  0  0  0  0  0  0  0  0  0  0
   -0.6734    0.9057   -1.8430 H   0  0  0  0  0  0  0  0  0  0  0  0
   -2.9524    0.1636   -1.6713 H   0  0  0  0  0  0  0  0  0  0  0  0
   -2.5160   -1.2352   -0.5724 H   0  0  0  0  0  0  0  0  0  0  0  0
   -2.8175    1.7679    0.0194 H   0  0  0  0  0  0  0  0  0  0  0  0
   -3.3331    0.2913    1.0035 H   0  0  0  0  0  0  0  0  0  0  0  0
   -1.1694    1.0863    2.0950 H   0  0  0  0  0  0  0  0  0  0  0  0
  1  2  1  0
  2  3  1  0
  3  4  1  0
  4  5  1  0
  5  6  1  0
  6  7  1  0
  7  8  1  0
  8  9  2  0
  9  3  1  0
  9  5  1  0
  1 10  1  0
  1 11  1  0
  1 12  1  0
  2 13  1  0
  2 14  1  0
  3 15  1  0
  4 16  1  0
  4 17  1  0
  5 18  1  0
  6 19  1  0
  6 20  1  0
  7 21  1  0
  7 22  1  0
  8 23  1  0
M  END
