
     RDKit          3D

 23 23  0  0  0  0  0  0  0  0999 V2000
    2.1328   -0.8445    0.3362 C   0  0  0  0  0  0  0  0  0  0  0  0
    1.1362   -0.3224   -0.6383 C   0  0  0  0  0  0  0  0  0  0  0  0
   -0.0695    0.3132   -0.0229 C   0  0  0  0  0  0  0  0  0  0  0  0
   -0.9012   -0.5644    0.8653 C   0  0  0  0  0  0  0  0  0  0  0  0
   -1.4571   -1.7656    0.1760 C   0  0  0  0  0  0  0  0  0  0  0  0
    0.1144    1.6650    0.5948 C   0  0  0  0  0  0  0  0  0  0  0  0
   -0.4370    2.3461   -0.6299 C   0  0  0  0  0  0  0  0  0  0  0  0
   -0.4395    3.4947   -0.9842 O   0  0  0  0  0  0  0  0  0  0  0  0
   -0.9023    1.0088   -1.0815 C   0  0  0  0  0  0  0  0  0  0  0  0
    2.8937   -1.4228   -0.2288 H   0  0  0  0  0  0  0  0  0  0  0  0
    2.6900   -0.0368    0.8556 H   0  0  0  0  0  0  0  0  0  0  0  0
    1.7023   -1.5210    1.0920 H   0  0  0  0  0  0  0  0  0  0  0  0
    0.7906   -1.1772   -1.2683 H   0  0  0  0  0  0  0  0  0  0  0  0
    1.6501    0.3720   -1.3328 H   0  0  0  0  0  0  0  0  0  0  0  0
   -1.7213    0.0515    1.2873 H   0  0  0  0  0  0  0  0  0  0  0  0
   -0.2786   -0.8757    1.7330 H   0  0  0  0  0  0  0  0  0  0  0  0
   -2.4838   -1.9429    0.5622 H   0  0  0  0  0  0  0  0  0  0  0  0
   -0.8600   -2.6519    0.4719 H   0  0  0  0  0  0  0  0  0  0  0  0
   -1.5345   -1.6593   -0.9245 H   0  0  0  0  0  0  0  0  0  0  0  0
    1.1249    1.9881    0.8228 H   0  0  0  0  0  0  0  0  0  0  0  0
   -0.5728    1.8858    1.4399 H   0  0  0  0  0  0  0  0  0  0  0  0
   -0.5848    0.8219   -2.1258 H   0  0  0  0  0  0  0  0  0  0  0  0
   -1.9926    0.8374   -1.0003 H   0  0  0  0  0  0  0  0  0  0  0  0
  1  2  1  0
  2  3  1  0
  3  4  1  0
  4  5  1  0
  3  6  1  0
  6  7  1  0
  7  8  2  0
  7  9  1  0
  9  3  1  0
  1 10  1  0
  1 11  1  0
  1 12  1  0
  2 13  1  0
  2 14  1  0
  4 15  1  0
  4 16  1  0
  5 17  1  0
  5 18  1  0
  5 19  1  0
  6 20  1  0
  6 21  1  0
  9 22  1  0
  9 23  1  0
M  END
