
     RDKit          3D

 23 24  0  0  0  0  0  0  0  0999 V2000
   -2.8926    0.6563   -0.1350 C   0  0  0  0  0  0  0  0  0  0  0  0
   -1.9405   -0.2977    0.5874 C   0  0  0  0  0  0  0  0  0  0  0  0
   -0.6833   -0.3938   -0.2513 C   0  0  0  0  0  0  0  0  0  0  0  0
    0.0102    0.9105   -0.4466 C   0  0  0  0  0  0  0  0  0  0  0  0
    1.0443    0.5285    0.5992 C   0  0  0  0  0  0  0  0  0  0  0  0
    2.4140    0.5473   -0.0012 C   0  0  0  0  0  0  0  0  0  0  0  0
    2.5799   -0.8142   -0.5630 C   0  0  0  0  0  0  0  0  0  0  0  0
    1.5488   -1.5844   -0.2665 C   0  0  0  0  0  0  0  0  0  0  0  0
    0.5345   -0.8864    0.5290 C   0  0  0  0  0  0  0  0  0  0  0  0
   -2.6064    0.7983   -1.1918 H   0  0  0  0  0  0  0  0  0  0  0  0
   -2.8557    1.6074    0.4296 H   0  0  0  0  0  0  0  0  0  0  0  0
   -3.9174    0.2277   -0.1346 H   0  0  0  0  0  0  0  0  0  0  0  0
   -1.6363    0.0965    1.5757 H   0  0  0  0  0  0  0  0  0  0  0  0
   -2.4177   -1.2628    0.7498 H   0  0  0  0  0  0  0  0  0  0  0  0
   -0.8285   -1.0354   -1.1218 H   0  0  0  0  0  0  0  0  0  0  0  0
   -0.5262    1.8149   -0.0985 H   0  0  0  0  0  0  0  0  0  0  0  0
    0.4187    0.9769   -1.4889 H   0  0  0  0  0  0  0  0  0  0  0  0
    0.9219    1.0098    1.5737 H   0  0  0  0  0  0  0  0  0  0  0  0
    3.1409    0.8029    0.7747 H   0  0  0  0  0  0  0  0  0  0  0  0
    2.4788    1.3333   -0.8076 H   0  0  0  0  0  0  0  0  0  0  0  0
    3.4515   -1.1076   -1.1405 H   0  0  0  0  0  0  0  0  0  0  0  0
    1.4775   -2.6188   -0.5856 H   0  0  0  0  0  0  0  0  0  0  0  0
    0.2835   -1.3093    1.5120 H   0  0  0  0  0  0  0  0  0  0  0  0
  1  2  1  0
  2  3  1  0
  3  4  1  0
  4  5  1  0
  5  6  1  0
  6  7  1  0
  7  8  2  0
  8  9  1  0
  9  3  1  0
  9  5  1  0
  1 10  1  0
  1 11  1  0
  1 12  1  0
  2 13  1  0
  2 14  1  0
  3 15  1  0
  4 16  1  0
  4 17  1  0
  5 18  1  0
  6 19  1  0
  6 20  1  0
  7 21  1  0
  8 22  1  0
  9 23  1  0
M  END
