
     RDKit          3D

 21 21  0  0  0  0  0  0  0  0999 V2000
    2.1765    1.1558   -0.0807 C   0  0  0  0  0  0  0  0  0  0  0  0
    1.7839   -0.2590   -0.4902 C   0  0  0  0  0  0  0  0  0  0  0  0
    0.5796   -0.6295    0.3724 C   0  0  0  0  0  0  0  0  0  0  0  0
    0.7899   -0.6195    1.7495 O   0  0  0  0  0  0  0  0  0  0  0  0
   -0.4453   -1.5616   -0.1363 C   0  0  0  0  0  0  0  0  0  0  0  0
   -0.3860   -2.1076   -1.3979 O   0  0  0  0  0  0  0  0  0  0  0  0
   -0.7135   -0.0573   -0.0989 C   0  0  0  0  0  0  0  0  0  0  0  0
   -1.6497    0.3286    0.8366 O   0  0  0  0  0  0  0  0  0  0  0  0
   -2.4501    1.3404    0.3180 C   0  0  0  0  0  0  0  0  0  0  0  0
    2.8596    1.0615    0.7919 H   0  0  0  0  0  0  0  0  0  0  0  0
    1.2714    1.6955    0.2635 H   0  0  0  0  0  0  0  0  0  0  0  0
    2.6430    1.7130   -0.9258 H   0  0  0  0  0  0  0  0  0  0  0  0
    1.5075   -0.2003   -1.5592 H   0  0  0  0  0  0  0  0  0  0  0  0
    2.6065   -0.9738   -0.3751 H   0  0  0  0  0  0  0  0  0  0  0  0
    0.1152   -1.1808    2.2016 H   0  0  0  0  0  0  0  0  0  0  0  0
   -0.9797   -2.1994    0.6145 H   0  0  0  0  0  0  0  0  0  0  0  0
   -1.0058   -2.8561   -1.4969 H   0  0  0  0  0  0  0  0  0  0  0  0
   -0.7419    0.4807   -1.0880 H   0  0  0  0  0  0  0  0  0  0  0  0
   -1.8023    2.1908    0.0636 H   0  0  0  0  0  0  0  0  0  0  0  0
   -3.2044    1.6534    1.0691 H   0  0  0  0  0  0  0  0  0  0  0  0
   -2.9543    1.0253   -0.6316 H   0  0  0  0  0  0  0  0  0  0  0  0
  1  2  1  0
  2  3  1  0
  3  4  1  0
  3  5  1  0
  5  6  1  0
  5  7  1  0
  7  8  1  0
  8  9  1  0
  7  3  1  0
  1 10  1  0
  1 11  1  0
  1 12  1  0
  2 13  1  0
  2 14  1  0
  4 15  1  0
  5 16  1  0
  6 17  1  0
  7 18  1  0
  9 19  1  0
  9 20  1  0
  9 21  1  0
M  END
