
     RDKit          3D

 25 25  0  0  0  0  0  0  0  0999 V2000
    2.7156    0.0674    0.1131 C   0  0  0  0  0  0  0  0  0  0  0  0
    1.7998    1.1265   -0.3948 C   0  0  0  0  0  0  0  0  0  0  0  0
    0.3396    0.7691   -0.3178 C   0  0  0  0  0  0  0  0  0  0  0  0
   -0.0294    0.5134    1.1066 C   0  0  0  0  0  0  0  0  0  0  0  0
   -0.5862   -0.8730    1.1943 C   0  0  0  0  0  0  0  0  0  0  0  0
   -0.9948   -1.1765   -0.2151 C   0  0  0  0  0  0  0  0  0  0  0  0
   -2.3788   -0.5820   -0.4478 C   0  0  0  0  0  0  0  0  0  0  0  0
   -2.3691    0.7901   -0.2585 O   0  0  0  0  0  0  0  0  0  0  0  0
   -0.0341   -0.4263   -1.1172 C   0  0  0  0  0  0  0  0  0  0  0  0
    3.6271    0.5545    0.5189 H   0  0  0  0  0  0  0  0  0  0  0  0
    3.0202   -0.5982   -0.7278 H   0  0  0  0  0  0  0  0  0  0  0  0
    2.2026   -0.5026    0.9220 H   0  0  0  0  0  0  0  0  0  0  0  0
    1.9844    2.0536    0.1849 H   0  0  0  0  0  0  0  0  0  0  0  0
    2.0899    1.3604   -1.4468 H   0  0  0  0  0  0  0  0  0  0  0  0
   -0.2144    1.6486   -0.7589 H   0  0  0  0  0  0  0  0  0  0  0  0
    0.8106    0.6823    1.8210 H   0  0  0  0  0  0  0  0  0  0  0  0
   -0.7925    1.2927    1.3906 H   0  0  0  0  0  0  0  0  0  0  0  0
   -1.4997   -0.8653    1.8309 H   0  0  0  0  0  0  0  0  0  0  0  0
    0.1658   -1.5849    1.5849 H   0  0  0  0  0  0  0  0  0  0  0  0
   -0.9881   -2.2596   -0.4422 H   0  0  0  0  0  0  0  0  0  0  0  0
   -3.0521   -1.0150    0.3272 H   0  0  0  0  0  0  0  0  0  0  0  0
   -2.7634   -0.8234   -1.4466 H   0  0  0  0  0  0  0  0  0  0  0  0
   -3.2814    1.0886   -0.0276 H   0  0  0  0  0  0  0  0  0  0  0  0
    0.8201   -1.0536   -1.4290 H   0  0  0  0  0  0  0  0  0  0  0  0
   -0.5918   -0.1868   -2.0607 H   0  0  0  0  0  0  0  0  0  0  0  0
  1  2  1  0
  2  3  1  0
  3  4  1  0
  4  5  1  0
  5  6  1  0
  6  7  1  0
  7  8  1  0
  6  9  1  0
  9  3  1  0
  1 10  1  0
  1 11  1  0
  1 12  1  0
  2 13  1  0
  2 14  1  0
  3 15  1  0
  4 16  1  0
  4 17  1  0
  5 18  1  0
  5 19  1  0
  6 20  1  0
  7 21  1  0
  7 22  1  0
  8 23  1  0
  9 24  1  0
  9 25  1  0
M  END
