
     RDKit          3D

 21 22  0  0  0  0  0  0  0  0999 V2000
   -1.6840   -1.9341    0.1308 C   0  0  0  0  0  0  0  0  0  0  0  0
   -1.9049   -0.4486   -0.0285 C   0  0  0  0  0  0  0  0  0  0  0  0
   -0.6042    0.3253    0.0894 C   0  0  0  0  0  0  0  0  0  0  0  0
    0.4557    0.0074   -0.8871 C   0  0  0  0  0  0  0  0  0  0  0  0
    1.2465    1.2009   -1.2895 O   0  0  0  0  0  0  0  0  0  0  0  0
    1.8591   -0.0010   -0.6679 C   0  0  0  0  0  0  0  0  0  0  0  0
    2.5664    0.3691    0.5820 C   0  0  0  0  0  0  0  0  0  0  0  0
   -0.8131    1.7905    0.3957 C   0  0  0  0  0  0  0  0  0  0  0  0
   -0.2965    0.8797    1.3302 O   0  0  0  0  0  0  0  0  0  0  0  0
   -2.6182   -2.4324   -0.2387 H   0  0  0  0  0  0  0  0  0  0  0  0
   -1.5734   -2.2436    1.1802 H   0  0  0  0  0  0  0  0  0  0  0  0
   -0.8598   -2.3011   -0.4845 H   0  0  0  0  0  0  0  0  0  0  0  0
   -2.3413   -0.2426   -1.0129 H   0  0  0  0  0  0  0  0  0  0  0  0
   -2.5682   -0.1092    0.7849 H   0  0  0  0  0  0  0  0  0  0  0  0
    0.0693   -0.4276   -1.8485 H   0  0  0  0  0  0  0  0  0  0  0  0
    2.5036   -0.5588   -1.4019 H   0  0  0  0  0  0  0  0  0  0  0  0
    1.9634    0.3085    1.5029 H   0  0  0  0  0  0  0  0  0  0  0  0
    3.0295    1.3968    0.5002 H   0  0  0  0  0  0  0  0  0  0  0  0
    3.4558   -0.3018    0.7684 H   0  0  0  0  0  0  0  0  0  0  0  0
   -0.0692    2.5310    0.0542 H   0  0  0  0  0  0  0  0  0  0  0  0
   -1.8165    2.1917    0.5405 H   0  0  0  0  0  0  0  0  0  0  0  0
  1  2  1  0
  2  3  1  0
  3  4  1  0
  4  5  1  0
  5  6  1  0
  6  7  1  0
  3  8  1  0
  8  9  1  0
  9  3  1  0
  6  4  1  0
  1 10  1  0
  1 11  1  0
  1 12  1  0
  2 13  1  0
  2 14  1  0
  4 15  1  0
  6 16  1  0
  7 17  1  0
  7 18  1  0
  7 19  1  0
  8 20  1  0
  8 21  1  0
M  END
