
     RDKit          3D

 25 25  0  0  0  0  0  0  0  0999 V2000
    2.4337   -0.2360    0.5855 C   0  0  0  0  0  0  0  0  0  0  0  0
    1.7595   -0.3094   -0.7395 C   0  0  0  0  0  0  0  0  0  0  0  0
    0.2583   -0.2993   -0.6582 C   0  0  0  0  0  0  0  0  0  0  0  0
   -0.2849   -1.4553    0.1332 C   0  0  0  0  0  0  0  0  0  0  0  0
   -1.7956   -1.4765   -0.1394 C   0  0  0  0  0  0  0  0  0  0  0  0
   -2.3690   -0.2650    0.5163 C   0  0  0  0  0  0  0  0  0  0  0  0
   -1.5233    0.9356    0.3811 C   0  0  0  0  0  0  0  0  0  0  0  0
   -0.3076    0.9549   -0.1553 C   0  0  0  0  0  0  0  0  0  0  0  0
    0.3895    2.2681   -0.2020 C   0  0  0  0  0  0  0  0  0  0  0  0
    3.5165   -0.4893    0.4243 H   0  0  0  0  0  0  0  0  0  0  0  0
    2.3909    0.7247    1.0911 H   0  0  0  0  0  0  0  0  0  0  0  0
    2.0411   -1.0245    1.2536 H   0  0  0  0  0  0  0  0  0  0  0  0
    2.0695    0.4946   -1.4192 H   0  0  0  0  0  0  0  0  0  0  0  0
    2.0511   -1.2663   -1.2214 H   0  0  0  0  0  0  0  0  0  0  0  0
   -0.1172   -0.4338   -1.7128 H   0  0  0  0  0  0  0  0  0  0  0  0
   -0.1964   -1.1810    1.2140 H   0  0  0  0  0  0  0  0  0  0  0  0
    0.1784   -2.4137   -0.1034 H   0  0  0  0  0  0  0  0  0  0  0  0
   -2.2721   -2.3838    0.2195 H   0  0  0  0  0  0  0  0  0  0  0  0
   -1.9118   -1.3575   -1.2359 H   0  0  0  0  0  0  0  0  0  0  0  0
   -3.3666   -0.0632    0.0505 H   0  0  0  0  0  0  0  0  0  0  0  0
   -2.5835   -0.4152    1.6009 H   0  0  0  0  0  0  0  0  0  0  0  0
   -1.9651    1.8733    0.7654 H   0  0  0  0  0  0  0  0  0  0  0  0
   -0.1498    2.9043   -0.9472 H   0  0  0  0  0  0  0  0  0  0  0  0
    0.3283    2.7018    0.8253 H   0  0  0  0  0  0  0  0  0  0  0  0
    1.4260    2.2124   -0.5261 H   0  0  0  0  0  0  0  0  0  0  0  0
  1  2  1  0
  2  3  1  0
  3  4  1  0
  4  5  1  0
  5  6  1  0
  6  7  1  0
  7  8  2  0
  8  9  1  0
  8  3  1  0
  1 10  1  0
  1 11  1  0
  1 12  1  0
  2 13  1  0
  2 14  1  0
  3 15  1  0
  4 16  1  0
  4 17  1  0
  5 18  1  0
  5 19  1  0
  6 20  1  0
  6 21  1  0
  7 22  1  0
  9 23  1  0
  9 24  1  0
  9 25  1  0
M  END
