
     RDKit          3D

 18 18  0  0  0  0  0  0  0  0999 V2000
    2.0326    0.0420   -0.0053 C   0  0  0  0  0  0  0  0  0  0  0  0
    0.8225   -0.3540   -0.8254 C   0  0  0  0  0  0  0  0  0  0  0  0
   -0.3891   -0.1662    0.0348 C   0  0  0  0  0  0  0  0  0  0  0  0
   -0.4243   -0.9529    1.2693 C   0  0  0  0  0  0  0  0  0  0  0  0
   -1.0571   -1.9898    1.3897 O   0  0  0  0  0  0  0  0  0  0  0  0
   -0.7994    1.2716    0.2597 C   0  0  0  0  0  0  0  0  0  0  0  0
   -2.1239    0.7748    0.3246 O   0  0  0  0  0  0  0  0  0  0  0  0
   -1.7135   -0.1180   -0.6931 C   0  0  0  0  0  0  0  0  0  0  0  0
    1.9597    1.0576    0.4077 H   0  0  0  0  0  0  0  0  0  0  0  0
    2.9803   -0.1007   -0.5904 H   0  0  0  0  0  0  0  0  0  0  0  0
    2.0337   -0.6508    0.8829 H   0  0  0  0  0  0  0  0  0  0  0  0
    0.7225    0.2415   -1.7485 H   0  0  0  0  0  0  0  0  0  0  0  0
    0.9348   -1.4366   -1.0354 H   0  0  0  0  0  0  0  0  0  0  0  0
    0.1383   -0.6117    2.1405 H   0  0  0  0  0  0  0  0  0  0  0  0
   -0.4450    1.7371    1.1795 H   0  0  0  0  0  0  0  0  0  0  0  0
   -0.7062    1.9020   -0.6638 H   0  0  0  0  0  0  0  0  0  0  0  0
   -1.6968    0.4308   -1.6390 H   0  0  0  0  0  0  0  0  0  0  0  0
   -2.2689   -1.0769   -0.6878 H   0  0  0  0  0  0  0  0  0  0  0  0
  1  2  1  0
  2  3  1  0
  3  4  1  0
  4  5  2  0
  3  6  1  0
  6  7  1  0
  7  8  1  0
  8  3  1  0
  1  9  1  0
  1 10  1  0
  1 11  1  0
  2 12  1  0
  2 13  1  0
  4 14  1  0
  6 15  1  0
  6 16  1  0
  8 17  1  0
  8 18  1  0
M  END
