
     RDKit          3D

 21 21  0  0  0  0  0  0  0  0999 V2000
    2.4309    0.8986    0.5870 C   0  0  0  0  0  0  0  0  0  0  0  0
    1.3436    0.6103   -0.4023 C   0  0  0  0  0  0  0  0  0  0  0  0
    0.5392   -0.6106   -0.0645 C   0  0  0  0  0  0  0  0  0  0  0  0
   -0.5184   -0.7768   -1.1480 C   0  0  0  0  0  0  0  0  0  0  0  0
   -1.4747   -1.5424   -0.4536 O   0  0  0  0  0  0  0  0  0  0  0  0
   -1.7374   -0.7902    0.6935 C   0  0  0  0  0  0  0  0  0  0  0  0
   -2.5505    0.3909    0.3408 C   0  0  0  0  0  0  0  0  0  0  0  0
   -2.9143    1.2039    1.1510 O   0  0  0  0  0  0  0  0  0  0  0  0
   -0.3400   -0.3917    1.1593 C   0  0  0  0  0  0  0  0  0  0  0  0
    3.0749    1.7019    0.1316 H   0  0  0  0  0  0  0  0  0  0  0  0
    3.0930    0.0563    0.8011 H   0  0  0  0  0  0  0  0  0  0  0  0
    2.0268    1.3498    1.5176 H   0  0  0  0  0  0  0  0  0  0  0  0
    1.7691    0.4721   -1.4157 H   0  0  0  0  0  0  0  0  0  0  0  0
    0.6434    1.4836   -0.3908 H   0  0  0  0  0  0  0  0  0  0  0  0
    1.1333   -1.5273   -0.0005 H   0  0  0  0  0  0  0  0  0  0  0  0
   -0.1478   -1.3528   -2.0024 H   0  0  0  0  0  0  0  0  0  0  0  0
   -0.9670    0.1687   -1.4457 H   0  0  0  0  0  0  0  0  0  0  0  0
   -2.2402   -1.4461    1.4510 H   0  0  0  0  0  0  0  0  0  0  0  0
   -2.8514    0.5599   -0.7015 H   0  0  0  0  0  0  0  0  0  0  0  0
   -0.3087    0.6499    1.4816 H   0  0  0  0  0  0  0  0  0  0  0  0
   -0.0039   -1.1079    1.9458 H   0  0  0  0  0  0  0  0  0  0  0  0
  1  2  1  0
  2  3  1  0
  3  4  1  0
  4  5  1  0
  5  6  1  0
  6  7  1  0
  7  8  2  0
  6  9  1  0
  9  3  1  0
  1 10  1  0
  1 11  1  0
  1 12  1  0
  2 13  1  0
  2 14  1  0
  3 15  1  0
  4 16  1  0
  4 17  1  0
  6 18  1  0
  7 19  1  0
  9 20  1  0
  9 21  1  0
M  END
