
     RDKit          3D

 19 20  0  0  0  0  0  0  0  0999 V2000
    2.0118    0.5419    0.1972 C   0  0  0  0  0  0  0  0  0  0  0  0
    1.3086   -0.2759   -0.8357 C   0  0  0  0  0  0  0  0  0  0  0  0
   -0.0947   -0.5933   -0.5858 C   0  0  0  0  0  0  0  0  0  0  0  0
   -0.4893   -1.3596    0.6196 C   0  0  0  0  0  0  0  0  0  0  0  0
   -1.8809   -0.8124    0.4187 C   0  0  0  0  0  0  0  0  0  0  0  0
   -0.9028    0.3216    0.2858 C   0  0  0  0  0  0  0  0  0  0  0  0
   -1.1939    1.6257    0.0543 C   0  0  0  0  0  0  0  0  0  0  0  0
   -1.7905    2.0067   -0.9554 O   0  0  0  0  0  0  0  0  0  0  0  0
   -0.2514   -0.2151    1.3601 O   0  0  0  0  0  0  0  0  0  0  0  0
    2.0618    0.0803    1.1900 H   0  0  0  0  0  0  0  0  0  0  0  0
    3.0568    0.7426   -0.1181 H   0  0  0  0  0  0  0  0  0  0  0  0
    1.5361    1.5494    0.3013 H   0  0  0  0  0  0  0  0  0  0  0  0
    1.8901   -1.2321   -0.9614 H   0  0  0  0  0  0  0  0  0  0  0  0
    1.4038    0.2455   -1.8106 H   0  0  0  0  0  0  0  0  0  0  0  0
   -0.6490   -0.8558   -1.4991 H   0  0  0  0  0  0  0  0  0  0  0  0
   -0.2585   -2.3093    0.8708 H   0  0  0  0  0  0  0  0  0  0  0  0
   -2.2913   -1.1079   -0.5503 H   0  0  0  0  0  0  0  0  0  0  0  0
   -2.5363   -0.8125    1.2846 H   0  0  0  0  0  0  0  0  0  0  0  0
   -0.9305    2.4601    0.7339 H   0  0  0  0  0  0  0  0  0  0  0  0
  1  2  1  0
  2  3  1  0
  3  4  1  0
  4  5  1  0
  5  6  1  0
  6  7  1  0
  7  8  2  0
  6  9  1  0
  6  3  1  0
  9  4  1  0
  1 10  1  0
  1 11  1  0
  1 12  1  0
  2 13  1  0
  2 14  1  0
  3 15  1  0
  4 16  1  0
  5 17  1  0
  5 18  1  0
  7 19  1  0
M  END
