
     RDKit          3D

 25 25  0  0  0  0  0  0  0  0999 V2000
   -2.5879   -0.4698    0.3051 C   0  0  0  0  0  0  0  0  0  0  0  0
   -1.7541   -0.8487   -0.8606 C   0  0  0  0  0  0  0  0  0  0  0  0
   -0.3880   -0.2804   -0.9456 C   0  0  0  0  0  0  0  0  0  0  0  0
    0.6203   -0.5593    0.1592 C   0  0  0  0  0  0  0  0  0  0  0  0
    1.9267   -0.8548   -0.1497 O   0  0  0  0  0  0  0  0  0  0  0  0
    2.5586   -1.6452    0.7793 C   0  0  0  0  0  0  0  0  0  0  0  0
    0.1536    0.8557   -0.2576 C   0  0  0  0  0  0  0  0  0  0  0  0
    1.2026    1.6962   -1.0167 C   0  0  0  0  0  0  0  0  0  0  0  0
   -0.4183    1.6278    0.8611 C   0  0  0  0  0  0  0  0  0  0  0  0
   -2.8075    0.6257    0.3007 H   0  0  0  0  0  0  0  0  0  0  0  0
   -3.6083   -0.9294    0.1241 H   0  0  0  0  0  0  0  0  0  0  0  0
   -2.2656   -0.8586    1.2710 H   0  0  0  0  0  0  0  0  0  0  0  0
   -2.3056   -0.5810   -1.7841 H   0  0  0  0  0  0  0  0  0  0  0  0
   -1.6671   -1.9637   -0.8736 H   0  0  0  0  0  0  0  0  0  0  0  0
    0.0526   -0.5259   -1.9496 H   0  0  0  0  0  0  0  0  0  0  0  0
    0.2257   -0.9743    1.0925 H   0  0  0  0  0  0  0  0  0  0  0  0
    2.5993   -1.1794    1.8001 H   0  0  0  0  0  0  0  0  0  0  0  0
    2.1757   -2.6848    0.8278 H   0  0  0  0  0  0  0  0  0  0  0  0
    3.6317   -1.7251    0.4663 H   0  0  0  0  0  0  0  0  0  0  0  0
    0.7563    2.6831   -1.1657 H   0  0  0  0  0  0  0  0  0  0  0  0
    2.1596    1.7053   -0.4882 H   0  0  0  0  0  0  0  0  0  0  0  0
    1.3905    1.2349   -2.0227 H   0  0  0  0  0  0  0  0  0  0  0  0
   -1.1654    2.3645    0.4980 H   0  0  0  0  0  0  0  0  0  0  0  0
    0.4049    2.2230    1.3571 H   0  0  0  0  0  0  0  0  0  0  0  0
   -0.8901    1.0640    1.6718 H   0  0  0  0  0  0  0  0  0  0  0  0
  1  2  1  0
  2  3  1  0
  3  4  1  0
  4  5  1  0
  5  6  1  0
  4  7  1  0
  7  8  1  0
  7  9  1  0
  7  3  1  0
  1 10  1  0
  1 11  1  0
  1 12  1  0
  2 13  1  0
  2 14  1  0
  3 15  1  0
  4 16  1  0
  6 17  1  0
  6 18  1  0
  6 19  1  0
  8 20  1  0
  8 21  1  0
  8 22  1  0
  9 23  1  0
  9 24  1  0
  9 25  1  0
M  END
