
     RDKit          3D

 21 22  0  0  0  0  0  0  0  0999 V2000
    2.3516   -0.2163   -0.5748 C   0  0  0  0  0  0  0  0  0  0  0  0
    1.5177    0.3486    0.5422 C   0  0  0  0  0  0  0  0  0  0  0  0
    0.0652    0.4004    0.2585 C   0  0  0  0  0  0  0  0  0  0  0  0
   -0.4753    1.1719   -0.8699 C   0  0  0  0  0  0  0  0  0  0  0  0
   -1.6112    0.6509   -1.3056 C   0  0  0  0  0  0  0  0  0  0  0  0
   -1.9498   -0.5646   -0.4775 C   0  0  0  0  0  0  0  0  0  0  0  0
   -0.8753   -0.6912    0.5539 C   0  0  0  0  0  0  0  0  0  0  0  0
   -0.4814   -1.9655    0.8754 O   0  0  0  0  0  0  0  0  0  0  0  0
   -0.7965    0.4085    1.5456 C   0  0  0  0  0  0  0  0  0  0  0  0
    3.2175    0.4701   -0.8006 H   0  0  0  0  0  0  0  0  0  0  0  0
    2.8147   -1.1576   -0.2149 H   0  0  0  0  0  0  0  0  0  0  0  0
    1.7817   -0.3201   -1.5030 H   0  0  0  0  0  0  0  0  0  0  0  0
    1.6838   -0.2063    1.4876 H   0  0  0  0  0  0  0  0  0  0  0  0
    1.8668    1.4014    0.7488 H   0  0  0  0  0  0  0  0  0  0  0  0
   -0.0148    2.0520   -1.2975 H   0  0  0  0  0  0  0  0  0  0  0  0
   -2.2688    0.9606   -2.1101 H   0  0  0  0  0  0  0  0  0  0  0  0
   -2.1011   -1.4560   -1.0954 H   0  0  0  0  0  0  0  0  0  0  0  0
   -2.9425   -0.3707    0.0241 H   0  0  0  0  0  0  0  0  0  0  0  0
    0.0727   -2.3129    0.1332 H   0  0  0  0  0  0  0  0  0  0  0  0
   -0.3202    0.1732    2.4933 H   0  0  0  0  0  0  0  0  0  0  0  0
   -1.5349    1.2235    1.5866 H   0  0  0  0  0  0  0  0  0  0  0  0
  1  2  1  0
  2  3  1  0
  3  4  1  0
  4  5  2  0
  5  6  1  0
  6  7  1  0
  7  8  1  0
  7  9  1  0
  7  3  1  0
  9  3  1  0
  1 10  1  0
  1 11  1  0
  1 12  1  0
  2 13  1  0
  2 14  1  0
  4 15  1  0
  5 16  1  0
  6 17  1  0
  6 18  1  0
  8 19  1  0
  9 20  1  0
  9 21  1  0
M  END
