
     RDKit          3D

 19 20  0  0  0  0  0  0  0  0999 V2000
   -2.0852   -0.8246   -0.4727 C   0  0  0  0  0  0  0  0  0  0  0  0
   -1.0876   -0.4590    0.6280 C   0  0  0  0  0  0  0  0  0  0  0  0
    0.1019    0.2524    0.1078 C   0  0  0  0  0  0  0  0  0  0  0  0
    0.0342    1.5409   -0.6092 C   0  0  0  0  0  0  0  0  0  0  0  0
    0.6805    1.4492    0.7502 C   0  0  0  0  0  0  0  0  0  0  0  0
    1.9666    0.9288    0.7891 O   0  0  0  0  0  0  0  0  0  0  0  0
    1.4399   -0.3033    0.4729 C   0  0  0  0  0  0  0  0  0  0  0  0
    2.0964   -0.9608   -0.6715 C   0  0  0  0  0  0  0  0  0  0  0  0
    3.0174   -0.3853   -1.2261 O   0  0  0  0  0  0  0  0  0  0  0  0
   -2.3196    0.0194   -1.1189 H   0  0  0  0  0  0  0  0  0  0  0  0
   -1.6746   -1.6539   -1.0838 H   0  0  0  0  0  0  0  0  0  0  0  0
   -3.0121   -1.1495    0.0443 H   0  0  0  0  0  0  0  0  0  0  0  0
   -0.7700   -1.4276    1.0661 H   0  0  0  0  0  0  0  0  0  0  0  0
   -1.6179    0.0785    1.4566 H   0  0  0  0  0  0  0  0  0  0  0  0
    0.6687    1.6939   -1.5073 H   0  0  0  0  0  0  0  0  0  0  0  0
   -0.8878    2.1522   -0.6173 H   0  0  0  0  0  0  0  0  0  0  0  0
    0.2438    1.9414    1.6192 H   0  0  0  0  0  0  0  0  0  0  0  0
    1.4440   -0.9503    1.3839 H   0  0  0  0  0  0  0  0  0  0  0  0
    1.7614   -1.9422   -1.0112 H   0  0  0  0  0  0  0  0  0  0  0  0
  1  2  1  0
  2  3  1  0
  3  4  1  0
  4  5  1  0
  5  6  1  0
  6  7  1  0
  7  8  1  0
  8  9  2  0
  5  3  1  0
  7  3  1  0
  1 10  1  0
  1 11  1  0
  1 12  1  0
  2 13  1  0
  2 14  1  0
  4 15  1  0
  4 16  1  0
  5 17  1  0
  7 18  1  0
  8 19  1  0
M  END
