
     RDKit          3D

 23 23  0  0  0  0  0  0  0  0999 V2000
    2.7728    0.1977    0.1194 C   0  0  0  0  0  0  0  0  0  0  0  0
    1.4385   -0.2546   -0.4792 C   0  0  0  0  0  0  0  0  0  0  0  0
    0.3619    0.0711    0.5198 C   0  0  0  0  0  0  0  0  0  0  0  0
    0.4047    1.4675    0.7124 O   0  0  0  0  0  0  0  0  0  0  0  0
   -0.6955    1.9887    0.0859 C   0  0  0  0  0  0  0  0  0  0  0  0
   -1.6503    1.0128   -0.0323 O   0  0  0  0  0  0  0  0  0  0  0  0
   -1.0152   -0.2201    0.0602 C   0  0  0  0  0  0  0  0  0  0  0  0
   -1.1177   -0.9363   -1.2444 C   0  0  0  0  0  0  0  0  0  0  0  0
   -1.8143   -1.0339    1.0849 C   0  0  0  0  0  0  0  0  0  0  0  0
    3.5435   -0.0829   -0.6448 H   0  0  0  0  0  0  0  0  0  0  0  0
    2.9591   -0.2894    1.1001 H   0  0  0  0  0  0  0  0  0  0  0  0
    2.7521    1.2923    0.2875 H   0  0  0  0  0  0  0  0  0  0  0  0
    1.5263   -1.3445   -0.6744 H   0  0  0  0  0  0  0  0  0  0  0  0
    1.2755    0.3467   -1.3775 H   0  0  0  0  0  0  0  0  0  0  0  0
    0.5991   -0.3924    1.4952 H   0  0  0  0  0  0  0  0  0  0  0  0
   -1.1119    2.8056    0.7439 H   0  0  0  0  0  0  0  0  0  0  0  0
   -0.4567    2.4935   -0.8821 H   0  0  0  0  0  0  0  0  0  0  0  0
   -0.3358   -1.6684   -1.4417 H   0  0  0  0  0  0  0  0  0  0  0  0
   -1.2252   -0.1766   -2.0728 H   0  0  0  0  0  0  0  0  0  0  0  0
   -2.0930   -1.5055   -1.2848 H   0  0  0  0  0  0  0  0  0  0  0  0
   -2.8689   -0.6749    1.0906 H   0  0  0  0  0  0  0  0  0  0  0  0
   -1.3663   -0.9874    2.0845 H   0  0  0  0  0  0  0  0  0  0  0  0
   -1.8828   -2.1091    0.7497 H   0  0  0  0  0  0  0  0  0  0  0  0
  1  2  1  0
  2  3  1  0
  3  4  1  0
  4  5  1  0
  5  6  1  0
  6  7  1  0
  7  8  1  0
  7  9  1  0
  7  3  1  0
  1 10  1  0
  1 11  1  0
  1 12  1  0
  2 13  1  0
  2 14  1  0
  3 15  1  0
  5 16  1  0
  5 17  1  0
  8 18  1  0
  8 19  1  0
  8 20  1  0
  9 21  1  0
  9 22  1  0
  9 23  1  0
M  END
