
     RDKit          3D

 21 22  0  0  0  0  0  0  0  0999 V2000
    2.7788    0.5869    0.1744 C   0  0  0  0  0  0  0  0  0  0  0  0
    1.9325   -0.5175   -0.4628 C   0  0  0  0  0  0  0  0  0  0  0  0
    0.4810   -0.1665   -0.3441 C   0  0  0  0  0  0  0  0  0  0  0  0
   -0.0402    0.9052    0.2087 C   0  0  0  0  0  0  0  0  0  0  0  0
   -1.5200    0.9556    0.1639 C   0  0  0  0  0  0  0  0  0  0  0  0
   -2.0889    0.9661    1.4302 O   0  0  0  0  0  0  0  0  0  0  0  0
   -1.8811   -0.2507   -0.6398 C   0  0  0  0  0  0  0  0  0  0  0  0
   -1.6679   -1.5688    0.0066 C   0  0  0  0  0  0  0  0  0  0  0  0
   -0.6155   -1.0144   -0.8555 C   0  0  0  0  0  0  0  0  0  0  0  0
    2.3960    0.8956    1.1444 H   0  0  0  0  0  0  0  0  0  0  0  0
    2.8261    1.4693   -0.4906 H   0  0  0  0  0  0  0  0  0  0  0  0
    3.7854    0.1444    0.3125 H   0  0  0  0  0  0  0  0  0  0  0  0
    2.2634   -0.6124   -1.5030 H   0  0  0  0  0  0  0  0  0  0  0  0
    2.1145   -1.4853    0.0398 H   0  0  0  0  0  0  0  0  0  0  0  0
    0.5812    1.6901    0.6622 H   0  0  0  0  0  0  0  0  0  0  0  0
   -1.7790    1.8977   -0.4036 H   0  0  0  0  0  0  0  0  0  0  0  0
   -2.7537    1.7055    1.4442 H   0  0  0  0  0  0  0  0  0  0  0  0
   -2.5493   -0.1433   -1.5117 H   0  0  0  0  0  0  0  0  0  0  0  0
   -2.2520   -2.4047   -0.4343 H   0  0  0  0  0  0  0  0  0  0  0  0
   -1.5556   -1.6209    1.0996 H   0  0  0  0  0  0  0  0  0  0  0  0
   -0.4559   -1.4318   -1.8866 H   0  0  0  0  0  0  0  0  0  0  0  0
  1  2  1  0
  2  3  1  0
  3  4  2  0
  4  5  1  0
  5  6  1  0
  5  7  1  0
  7  8  1  0
  8  9  1  0
  9  3  1  0
  9  7  1  0
  1 10  1  0
  1 11  1  0
  1 12  1  0
  2 13  1  0
  2 14  1  0
  4 15  1  0
  5 16  1  0
  6 17  1  0
  7 18  1  0
  8 19  1  0
  8 20  1  0
  9 21  1  0
M  END
