
     RDKit          3D

 21 22  0  0  0  0  0  0  0  0999 V2000
    2.8577   -0.1462   -0.6277 C   0  0  0  0  0  0  0  0  0  0  0  0
    1.8444   -0.2345    0.5196 C   0  0  0  0  0  0  0  0  0  0  0  0
    0.5010    0.1053   -0.0792 C   0  0  0  0  0  0  0  0  0  0  0  0
    0.1832   -0.7829   -1.0758 O   0  0  0  0  0  0  0  0  0  0  0  0
   -1.1895   -0.6661   -1.2874 C   0  0  0  0  0  0  0  0  0  0  0  0
   -1.8231   -0.4443    0.0544 C   0  0  0  0  0  0  0  0  0  0  0  0
   -1.7787    0.8846    0.7187 C   0  0  0  0  0  0  0  0  0  0  0  0
   -2.6830    1.1028    1.7516 O   0  0  0  0  0  0  0  0  0  0  0  0
   -0.6254   -0.0288    0.8992 C   0  0  0  0  0  0  0  0  0  0  0  0
    2.9415    0.9482   -0.8440 H   0  0  0  0  0  0  0  0  0  0  0  0
    2.4342   -0.6463   -1.5012 H   0  0  0  0  0  0  0  0  0  0  0  0
    3.7997   -0.5599   -0.2653 H   0  0  0  0  0  0  0  0  0  0  0  0
    1.8292   -1.2825    0.8593 H   0  0  0  0  0  0  0  0  0  0  0  0
    2.1757    0.4730    1.2766 H   0  0  0  0  0  0  0  0  0  0  0  0
    0.4764    1.1269   -0.5044 H   0  0  0  0  0  0  0  0  0  0  0  0
   -1.4364    0.1192   -2.0097 H   0  0  0  0  0  0  0  0  0  0  0  0
   -1.5243   -1.6589   -1.6761 H   0  0  0  0  0  0  0  0  0  0  0  0
   -2.5162   -1.1975    0.4511 H   0  0  0  0  0  0  0  0  0  0  0  0
   -1.5689    1.8107    0.1299 H   0  0  0  0  0  0  0  0  0  0  0  0
   -3.3855    1.7063    1.3942 H   0  0  0  0  0  0  0  0  0  0  0  0
   -0.5120   -0.6290    1.8162 H   0  0  0  0  0  0  0  0  0  0  0  0
  1  2  1  0
  2  3  1  0
  3  4  1  0
  4  5  1  0
  5  6  1  0
  6  7  1  0
  7  8  1  0
  7  9  1  0
  9  3  1  0
  9  6  1  0
  1 10  1  0
  1 11  1  0
  1 12  1  0
  2 13  1  0
  2 14  1  0
  3 15  1  0
  5 16  1  0
  5 17  1  0
  6 18  1  0
  7 19  1  0
  8 20  1  0
  9 21  1  0
M  END
