
     RDKit          3D

 25 26  0  0  0  0  0  0  0  0999 V2000
    3.0918   -0.3383   -0.0037 C   0  0  0  0  0  0  0  0  0  0  0  0
    1.9606    0.3720   -0.7010 C   0  0  0  0  0  0  0  0  0  0  0  0
    0.7182    0.1810    0.1175 C   0  0  0  0  0  0  0  0  0  0  0  0
    0.3184   -1.2437    0.3018 C   0  0  0  0  0  0  0  0  0  0  0  0
   -1.0975   -1.0919    0.8728 C   0  0  0  0  0  0  0  0  0  0  0  0
   -1.6286    0.1534    0.2128 C   0  0  0  0  0  0  0  0  0  0  0  0
   -2.6010    1.0180    0.9699 C   0  0  0  0  0  0  0  0  0  0  0  0
   -1.4975    0.2193   -1.2536 C   0  0  0  0  0  0  0  0  0  0  0  0
   -0.4856    0.8707   -0.4156 C   0  0  0  0  0  0  0  0  0  0  0  0
    3.8416    0.3575    0.4277 H   0  0  0  0  0  0  0  0  0  0  0  0
    2.7672   -1.0110    0.7995 H   0  0  0  0  0  0  0  0  0  0  0  0
    3.5845   -0.9939   -0.7765 H   0  0  0  0  0  0  0  0  0  0  0  0
    2.2050    1.4657   -0.6636 H   0  0  0  0  0  0  0  0  0  0  0  0
    1.8692    0.1055   -1.7485 H   0  0  0  0  0  0  0  0  0  0  0  0
    0.9284    0.6024    1.1349 H   0  0  0  0  0  0  0  0  0  0  0  0
    0.2411   -1.7556   -0.6791 H   0  0  0  0  0  0  0  0  0  0  0  0
    0.8959   -1.7975    1.0517 H   0  0  0  0  0  0  0  0  0  0  0  0
   -1.6890   -1.9495    0.5018 H   0  0  0  0  0  0  0  0  0  0  0  0
   -1.0717   -1.0184    1.9762 H   0  0  0  0  0  0  0  0  0  0  0  0
   -1.9820    1.7181    1.6043 H   0  0  0  0  0  0  0  0  0  0  0  0
   -3.2347    1.6304    0.3275 H   0  0  0  0  0  0  0  0  0  0  0  0
   -3.1749    0.4022    1.7015 H   0  0  0  0  0  0  0  0  0  0  0  0
   -1.3111   -0.7389   -1.7857 H   0  0  0  0  0  0  0  0  0  0  0  0
   -2.2121    0.8675   -1.7798 H   0  0  0  0  0  0  0  0  0  0  0  0
   -0.4359    1.9747   -0.4355 H   0  0  0  0  0  0  0  0  0  0  0  0
  1  2  1  0
  2  3  1  0
  3  4  1  0
  4  5  1  0
  5  6  1  0
  6  7  1  0
  6  8  1  0
  8  9  1  0
  9  3  1  0
  9  6  1  0
  1 10  1  0
  1 11  1  0
  1 12  1  0
  2 13  1  0
  2 14  1  0
  3 15  1  0
  4 16  1  0
  4 17  1  0
  5 18  1  0
  5 19  1  0
  7 20  1  0
  7 21  1  0
  7 22  1  0
  8 23  1  0
  8 24  1  0
  9 25  1  0
M  END
