
     RDKit          3D

 21 22  0  0  0  0  0  0  0  0999 V2000
    2.7197    0.6681   -0.1506 C   0  0  0  0  0  0  0  0  0  0  0  0
    1.2567    0.7322   -0.5827 C   0  0  0  0  0  0  0  0  0  0  0  0
    0.5121   -0.3695    0.1151 C   0  0  0  0  0  0  0  0  0  0  0  0
    0.5446   -0.2969    1.5144 O   0  0  0  0  0  0  0  0  0  0  0  0
   -0.8070   -0.7120    1.5764 C   0  0  0  0  0  0  0  0  0  0  0  0
   -0.9373   -0.3308    0.1670 C   0  0  0  0  0  0  0  0  0  0  0  0
   -1.7051    0.8442   -0.2398 C   0  0  0  0  0  0  0  0  0  0  0  0
   -2.6835   -0.0351   -0.7652 O   0  0  0  0  0  0  0  0  0  0  0  0
   -1.7868   -1.1089   -0.7471 C   0  0  0  0  0  0  0  0  0  0  0  0
    2.9199   -0.2343    0.4625 H   0  0  0  0  0  0  0  0  0  0  0  0
    3.4027    0.7068   -1.0430 H   0  0  0  0  0  0  0  0  0  0  0  0
    2.9519    1.5599    0.4470 H   0  0  0  0  0  0  0  0  0  0  0  0
    0.8237    1.7165   -0.3349 H   0  0  0  0  0  0  0  0  0  0  0  0
    1.2392    0.5241   -1.6599 H   0  0  0  0  0  0  0  0  0  0  0  0
    0.9058   -1.3760   -0.1821 H   0  0  0  0  0  0  0  0  0  0  0  0
   -0.8965   -1.8165    1.7349 H   0  0  0  0  0  0  0  0  0  0  0  0
   -1.4238   -0.0948    2.2512 H   0  0  0  0  0  0  0  0  0  0  0  0
   -1.3440    1.4749   -1.0688 H   0  0  0  0  0  0  0  0  0  0  0  0
   -2.1021    1.4286    0.6359 H   0  0  0  0  0  0  0  0  0  0  0  0
   -1.3866   -1.2246   -1.7907 H   0  0  0  0  0  0  0  0  0  0  0  0
   -2.2037   -2.0558   -0.3396 H   0  0  0  0  0  0  0  0  0  0  0  0
  1  2  1  0
  2  3  1  0
  3  4  1  0
  4  5  1  0
  5  6  1  0
  6  7  1  0
  7  8  1  0
  8  9  1  0
  6  3  1  0
  9  6  1  0
  1 10  1  0
  1 11  1  0
  1 12  1  0
  2 13  1  0
  2 14  1  0
  3 15  1  0
  5 16  1  0
  5 17  1  0
  7 18  1  0
  7 19  1  0
  9 20  1  0
  9 21  1  0
M  END
