
     RDKit          3D

 25 25  0  0  0  0  0  0  0  0999 V2000
    2.1770   -0.2136   -1.0293 C   0  0  0  0  0  0  0  0  0  0  0  0
    1.5663    0.2114    0.2785 C   0  0  0  0  0  0  0  0  0  0  0  0
    0.1045   -0.0896    0.3772 C   0  0  0  0  0  0  0  0  0  0  0  0
   -0.3690    0.3920    1.7410 C   0  0  0  0  0  0  0  0  0  0  0  0
   -0.2097   -1.5534    0.2855 C   0  0  0  0  0  0  0  0  0  0  0  0
   -1.5959   -1.5351   -0.3315 C   0  0  0  0  0  0  0  0  0  0  0  0
   -1.9029   -0.2398   -0.6355 O   0  0  0  0  0  0  0  0  0  0  0  0
   -0.7227    0.4870   -0.7186 C   0  0  0  0  0  0  0  0  0  0  0  0
   -1.0695    1.9372   -0.5275 C   0  0  0  0  0  0  0  0  0  0  0  0
    2.1921   -1.3255   -1.1496 H   0  0  0  0  0  0  0  0  0  0  0  0
    3.2634    0.0777   -0.9749 H   0  0  0  0  0  0  0  0  0  0  0  0
    1.7639    0.3173   -1.8877 H   0  0  0  0  0  0  0  0  0  0  0  0
    2.0781   -0.3849    1.0770 H   0  0  0  0  0  0  0  0  0  0  0  0
    1.7503    1.2706    0.4389 H   0  0  0  0  0  0  0  0  0  0  0  0
   -1.1946    1.1168    1.6033 H   0  0  0  0  0  0  0  0  0  0  0  0
    0.4379    0.8844    2.3155 H   0  0  0  0  0  0  0  0  0  0  0  0
   -0.7570   -0.4285    2.3674 H   0  0  0  0  0  0  0  0  0  0  0  0
   -0.1966   -2.0417    1.2813 H   0  0  0  0  0  0  0  0  0  0  0  0
    0.4359   -2.0900   -0.4477 H   0  0  0  0  0  0  0  0  0  0  0  0
   -1.6838   -2.1787   -1.2137 H   0  0  0  0  0  0  0  0  0  0  0  0
   -2.2998   -1.8852    0.4693 H   0  0  0  0  0  0  0  0  0  0  0  0
   -0.2665    0.2858   -1.6950 H   0  0  0  0  0  0  0  0  0  0  0  0
   -1.2337    2.3664   -1.5549 H   0  0  0  0  0  0  0  0  0  0  0  0
   -2.0244    2.0941    0.0140 H   0  0  0  0  0  0  0  0  0  0  0  0
   -0.2432    2.5252   -0.0831 H   0  0  0  0  0  0  0  0  0  0  0  0
  1  2  1  0
  2  3  1  0
  3  4  1  0
  3  5  1  0
  5  6  1  0
  6  7  1  0
  7  8  1  0
  8  9  1  0
  8  3  1  0
  1 10  1  0
  1 11  1  0
  1 12  1  0
  2 13  1  0
  2 14  1  0
  4 15  1  0
  4 16  1  0
  4 17  1  0
  5 18  1  0
  5 19  1  0
  6 20  1  0
  6 21  1  0
  8 22  1  0
  9 23  1  0
  9 24  1  0
  9 25  1  0
M  END
