
     RDKit          3D

 23 23  0  0  0  0  0  0  0  0999 V2000
    2.6358   -0.8576    0.1403 C   0  0  0  0  0  0  0  0  0  0  0  0
    1.6789    0.3121    0.3698 C   0  0  0  0  0  0  0  0  0  0  0  0
    0.3317   -0.1232   -0.1350 C   0  0  0  0  0  0  0  0  0  0  0  0
   -0.0836   -1.2662    0.5859 O   0  0  0  0  0  0  0  0  0  0  0  0
   -1.3047   -1.7220    0.1296 C   0  0  0  0  0  0  0  0  0  0  0  0
   -2.3194   -0.6691   -0.1070 C   0  0  0  0  0  0  0  0  0  0  0  0
   -1.8392    0.4738   -0.7235 O   0  0  0  0  0  0  0  0  0  0  0  0
   -0.7409    0.9035    0.0395 C   0  0  0  0  0  0  0  0  0  0  0  0
   -0.3539    2.2844   -0.3518 C   0  0  0  0  0  0  0  0  0  0  0  0
    2.3962   -1.3940   -0.7997 H   0  0  0  0  0  0  0  0  0  0  0  0
    2.6604   -1.5318    0.9998 H   0  0  0  0  0  0  0  0  0  0  0  0
    3.6763   -0.4624    0.0169 H   0  0  0  0  0  0  0  0  0  0  0  0
    2.0558    1.1351   -0.2778 H   0  0  0  0  0  0  0  0  0  0  0  0
    1.7089    0.5705    1.4267 H   0  0  0  0  0  0  0  0  0  0  0  0
    0.4362   -0.3488   -1.2127 H   0  0  0  0  0  0  0  0  0  0  0  0
   -1.7015   -2.4234    0.9018 H   0  0  0  0  0  0  0  0  0  0  0  0
   -1.1645   -2.3081   -0.7950 H   0  0  0  0  0  0  0  0  0  0  0  0
   -3.1277   -1.1076   -0.7516 H   0  0  0  0  0  0  0  0  0  0  0  0
   -2.8590   -0.3388    0.8267 H   0  0  0  0  0  0  0  0  0  0  0  0
   -1.1240    0.9284    1.1002 H   0  0  0  0  0  0  0  0  0  0  0  0
    0.6398    2.5794   -0.0120 H   0  0  0  0  0  0  0  0  0  0  0  0
   -1.1217    2.9840    0.0897 H   0  0  0  0  0  0  0  0  0  0  0  0
   -0.4801    2.3818   -1.4608 H   0  0  0  0  0  0  0  0  0  0  0  0
  1  2  1  0
  2  3  1  0
  3  4  1  0
  4  5  1  0
  5  6  1  0
  6  7  1  0
  7  8  1  0
  8  9  1  0
  8  3  1  0
  1 10  1  0
  1 11  1  0
  1 12  1  0
  2 13  1  0
  2 14  1  0
  3 15  1  0
  5 16  1  0
  5 17  1  0
  6 18  1  0
  6 19  1  0
  8 20  1  0
  9 21  1  0
  9 22  1  0
  9 23  1  0
M  END
