
     RDKit          3D

 19 19  0  0  0  0  0  0  0  0999 V2000
   -1.7741   -0.6403    0.2464 C   0  0  0  0  0  0  0  0  0  0  0  0
   -1.1762   -0.1209   -1.0341 C   0  0  0  0  0  0  0  0  0  0  0  0
    0.0061    0.7488   -0.8092 C   0  0  0  0  0  0  0  0  0  0  0  0
   -0.2909    1.8887   -0.0145 O   0  0  0  0  0  0  0  0  0  0  0  0
    0.5003    1.3433    1.0018 C   0  0  0  0  0  0  0  0  0  0  0  0
    0.6667    1.5838    2.2214 O   0  0  0  0  0  0  0  0  0  0  0  0
    1.0997    0.3341    0.0841 C   0  0  0  0  0  0  0  0  0  0  0  0
    1.1278   -1.0272    0.6657 C   0  0  0  0  0  0  0  0  0  0  0  0
    2.3851    0.7656   -0.2650 O   0  0  0  0  0  0  0  0  0  0  0  0
   -1.4819   -1.7186    0.4105 H   0  0  0  0  0  0  0  0  0  0  0  0
   -2.9016   -0.6027    0.2027 H   0  0  0  0  0  0  0  0  0  0  0  0
   -1.5193   -0.0192    1.1238 H   0  0  0  0  0  0  0  0  0  0  0  0
   -0.9288   -0.9643   -1.7239 H   0  0  0  0  0  0  0  0  0  0  0  0
   -1.9926    0.4513   -1.5647 H   0  0  0  0  0  0  0  0  0  0  0  0
    0.3996    1.1312   -1.8073 H   0  0  0  0  0  0  0  0  0  0  0  0
    0.8446   -1.8219   -0.0580 H   0  0  0  0  0  0  0  0  0  0  0  0
    2.1951   -1.2980    0.9378 H   0  0  0  0  0  0  0  0  0  0  0  0
    0.5246   -1.1501    1.5704 H   0  0  0  0  0  0  0  0  0  0  0  0
    2.3158    1.1163   -1.1880 H   0  0  0  0  0  0  0  0  0  0  0  0
  1  2  1  0
  2  3  1  0
  3  4  1  0
  4  5  1  0
  5  6  2  0
  5  7  1  0
  7  8  1  0
  7  9  1  0
  7  3  1  0
  1 10  1  0
  1 11  1  0
  1 12  1  0
  2 13  1  0
  2 14  1  0
  3 15  1  0
  8 16  1  0
  8 17  1  0
  8 18  1  0
  9 19  1  0
M  END
