
     RDKit          3D

 23 23  0  0  0  0  0  0  0  0999 V2000
    2.1159    1.0766    0.3738 C   0  0  0  0  0  0  0  0  0  0  0  0
    1.8759   -0.2939    0.8867 C   0  0  0  0  0  0  0  0  0  0  0  0
    0.6005   -0.9611    0.5658 C   0  0  0  0  0  0  0  0  0  0  0  0
    0.1450   -1.2404   -0.8124 C   0  0  0  0  0  0  0  0  0  0  0  0
   -0.4954   -2.4335   -1.1421 O   0  0  0  0  0  0  0  0  0  0  0  0
   -0.6587   -0.3523    0.1560 C   0  0  0  0  0  0  0  0  0  0  0  0
   -1.8735   -0.9142    0.6507 O   0  0  0  0  0  0  0  0  0  0  0  0
   -0.8569    1.0212   -0.3858 C   0  0  0  0  0  0  0  0  0  0  0  0
   -2.3557    1.1981   -0.6716 C   0  0  0  0  0  0  0  0  0  0  0  0
    3.2317    1.2998    0.4312 H   0  0  0  0  0  0  0  0  0  0  0  0
    1.8889    1.2344   -0.6934 H   0  0  0  0  0  0  0  0  0  0  0  0
    1.7021    1.8911    1.0402 H   0  0  0  0  0  0  0  0  0  0  0  0
    2.7494   -0.9174    0.5191 H   0  0  0  0  0  0  0  0  0  0  0  0
    2.0781   -0.2561    1.9997 H   0  0  0  0  0  0  0  0  0  0  0  0
    0.4492   -1.8758    1.2391 H   0  0  0  0  0  0  0  0  0  0  0  0
    0.6497   -0.7771   -1.6731 H   0  0  0  0  0  0  0  0  0  0  0  0
   -0.4106   -3.1207   -0.4286 H   0  0  0  0  0  0  0  0  0  0  0  0
   -1.6953   -1.4286    1.4730 H   0  0  0  0  0  0  0  0  0  0  0  0
   -0.3744    1.2058   -1.3683 H   0  0  0  0  0  0  0  0  0  0  0  0
   -0.5644    1.7944    0.3440 H   0  0  0  0  0  0  0  0  0  0  0  0
   -2.8173    1.7377    0.2056 H   0  0  0  0  0  0  0  0  0  0  0  0
   -2.5222    1.8704   -1.5368 H   0  0  0  0  0  0  0  0  0  0  0  0
   -2.8620    0.2417   -0.8230 H   0  0  0  0  0  0  0  0  0  0  0  0
  1  2  1  0
  2  3  1  0
  3  4  1  0
  4  5  1  0
  4  6  1  0
  6  7  1  0
  6  8  1  0
  8  9  1  0
  6  3  1  0
  1 10  1  0
  1 11  1  0
  1 12  1  0
  2 13  1  0
  2 14  1  0
  3 15  1  0
  4 16  1  0
  5 17  1  0
  7 18  1  0
  8 19  1  0
  8 20  1  0
  9 21  1  0
  9 22  1  0
  9 23  1  0
M  END
