
     RDKit          3D

 20 20  0  0  0  0  0  0  0  0999 V2000
   -2.5038    0.6024   -0.5115 C   0  0  0  0  0  0  0  0  0  0  0  0
   -1.6654   -0.4515    0.1765 C   0  0  0  0  0  0  0  0  0  0  0  0
   -0.3142    0.0989    0.4984 C   0  0  0  0  0  0  0  0  0  0  0  0
    0.5195    0.5750   -0.6453 C   0  0  0  0  0  0  0  0  0  0  0  0
    1.6080   -0.4384   -0.3177 C   0  0  0  0  0  0  0  0  0  0  0  0
    2.8775    0.1838    0.1427 C   0  0  0  0  0  0  0  0  0  0  0  0
    3.0393    1.3879    0.1539 O   0  0  0  0  0  0  0  0  0  0  0  0
    0.7407   -0.9123    0.8501 C   0  0  0  0  0  0  0  0  0  0  0  0
   -1.8931    1.1630   -1.2456 H   0  0  0  0  0  0  0  0  0  0  0  0
   -3.3634    0.1110   -1.0238 H   0  0  0  0  0  0  0  0  0  0  0  0
   -2.9719    1.2762    0.2552 H   0  0  0  0  0  0  0  0  0  0  0  0
   -1.6463   -1.3779   -0.4274 H   0  0  0  0  0  0  0  0  0  0  0  0
   -2.1629   -0.7068    1.1356 H   0  0  0  0  0  0  0  0  0  0  0  0
   -0.4070    0.8601    1.3185 H   0  0  0  0  0  0  0  0  0  0  0  0
    0.9031    1.6068   -0.4799 H   0  0  0  0  0  0  0  0  0  0  0  0
    0.1355    0.3897   -1.6608 H   0  0  0  0  0  0  0  0  0  0  0  0
    1.7441   -1.2229   -1.0902 H   0  0  0  0  0  0  0  0  0  0  0  0
    3.6711   -0.4529    0.4738 H   0  0  0  0  0  0  0  0  0  0  0  0
    1.2523   -0.7166    1.8359 H   0  0  0  0  0  0  0  0  0  0  0  0
    0.4372   -1.9755    0.7063 H   0  0  0  0  0  0  0  0  0  0  0  0
  1  2  1  0
  2  3  1  0
  3  4  1  0
  4  5  1  0
  5  6  1  0
  6  7  2  0
  5  8  1  0
  8  3  1  0
  1  9  1  0
  1 10  1  0
  1 11  1  0
  2 12  1  0
  2 13  1  0
  3 14  1  0
  4 15  1  0
  4 16  1  0
  5 17  1  0
  6 18  1  0
  8 19  1  0
  8 20  1  0
M  END
