
     RDKit          3D

 25 25  0  0  0  0  0  0  0  0999 V2000
    3.2881    0.0810    0.7131 C   0  0  0  0  0  0  0  0  0  0  0  0
    2.2856   -1.0143    0.3274 C   0  0  0  0  0  0  0  0  0  0  0  0
    1.1168   -0.3238   -0.2800 C   0  0  0  0  0  0  0  0  0  0  0  0
   -0.0204   -1.1809   -0.7484 C   0  0  0  0  0  0  0  0  0  0  0  0
   -0.7639    0.0443   -0.2255 C   0  0  0  0  0  0  0  0  0  0  0  0
   -0.8167    1.2038   -1.1638 C   0  0  0  0  0  0  0  0  0  0  0  0
   -2.1093   -0.3658    0.3082 C   0  0  0  0  0  0  0  0  0  0  0  0
   -2.9056    0.7817    0.8423 C   0  0  0  0  0  0  0  0  0  0  0  0
    0.2414    0.1931    0.7033 O   0  0  0  0  0  0  0  0  0  0  0  0
    3.9764   -0.2565    1.4997 H   0  0  0  0  0  0  0  0  0  0  0  0
    2.6929    0.9186    1.1366 H   0  0  0  0  0  0  0  0  0  0  0  0
    3.7726    0.4340   -0.2013 H   0  0  0  0  0  0  0  0  0  0  0  0
    2.7896   -1.6214   -0.4592 H   0  0  0  0  0  0  0  0  0  0  0  0
    2.0494   -1.6561    1.1885 H   0  0  0  0  0  0  0  0  0  0  0  0
    1.4227    0.3967   -1.0406 H   0  0  0  0  0  0  0  0  0  0  0  0
   -0.1318   -1.2819   -1.8277 H   0  0  0  0  0  0  0  0  0  0  0  0
   -0.2486   -2.0716   -0.1335 H   0  0  0  0  0  0  0  0  0  0  0  0
   -1.8750    1.3806   -1.4313 H   0  0  0  0  0  0  0  0  0  0  0  0
   -0.4447    2.1590   -0.7140 H   0  0  0  0  0  0  0  0  0  0  0  0
   -0.2484    0.9402   -2.0761 H   0  0  0  0  0  0  0  0  0  0  0  0
   -2.6751   -0.8053   -0.5515 H   0  0  0  0  0  0  0  0  0  0  0  0
   -2.0203   -1.1340    1.0986 H   0  0  0  0  0  0  0  0  0  0  0  0
   -2.7953    0.8164    1.9565 H   0  0  0  0  0  0  0  0  0  0  0  0
   -3.9755    0.5957    0.6448 H   0  0  0  0  0  0  0  0  0  0  0  0
   -2.6048    1.7666    0.4340 H   0  0  0  0  0  0  0  0  0  0  0  0
  1  2  1  0
  2  3  1  0
  3  4  1  0
  4  5  1  0
  5  6  1  0
  5  7  1  0
  7  8  1  0
  5  9  1  0
  9  3  1  0
  1 10  1  0
  1 11  1  0
  1 12  1  0
  2 13  1  0
  2 14  1  0
  3 15  1  0
  4 16  1  0
  4 17  1  0
  6 18  1  0
  6 19  1  0
  6 20  1  0
  7 21  1  0
  7 22  1  0
  8 23  1  0
  8 24  1  0
  8 25  1  0
M  END
