
     RDKit          3D

 21 22  0  0  0  0  0  0  0  0999 V2000
    1.9722    0.8764    0.0107 C   0  0  0  0  0  0  0  0  0  0  0  0
    1.5596   -0.5177    0.2886 C   0  0  0  0  0  0  0  0  0  0  0  0
    0.1658   -0.8792   -0.0402 C   0  0  0  0  0  0  0  0  0  0  0  0
   -0.2625   -0.7411   -1.4431 C   0  0  0  0  0  0  0  0  0  0  0  0
   -1.5988   -0.3657   -1.4553 O   0  0  0  0  0  0  0  0  0  0  0  0
   -1.9249    0.1569   -0.2385 C   0  0  0  0  0  0  0  0  0  0  0  0
   -1.1911    1.3158    0.3252 C   0  0  0  0  0  0  0  0  0  0  0  0
   -0.8176   -0.0427    0.7215 C   0  0  0  0  0  0  0  0  0  0  0  0
   -1.2213   -0.5568    1.9756 O   0  0  0  0  0  0  0  0  0  0  0  0
    3.0740    0.9604    0.1261 H   0  0  0  0  0  0  0  0  0  0  0  0
    1.6632    1.2699   -0.9744 H   0  0  0  0  0  0  0  0  0  0  0  0
    1.5386    1.5645    0.7708 H   0  0  0  0  0  0  0  0  0  0  0  0
    2.2595   -1.2026   -0.2668 H   0  0  0  0  0  0  0  0  0  0  0  0
    1.7342   -0.7293    1.3642 H   0  0  0  0  0  0  0  0  0  0  0  0
    0.0029   -1.9395    0.2780 H   0  0  0  0  0  0  0  0  0  0  0  0
   -0.2004   -1.7129   -1.9918 H   0  0  0  0  0  0  0  0  0  0  0  0
    0.2940   -0.0125   -2.0512 H   0  0  0  0  0  0  0  0  0  0  0  0
   -2.9835    0.0524    0.0777 H   0  0  0  0  0  0  0  0  0  0  0  0
   -0.5602    1.9100   -0.3402 H   0  0  0  0  0  0  0  0  0  0  0  0
   -1.7023    1.9269    1.1037 H   0  0  0  0  0  0  0  0  0  0  0  0
   -1.8017   -1.3333    1.7595 H   0  0  0  0  0  0  0  0  0  0  0  0
  1  2  1  0
  2  3  1  0
  3  4  1  0
  4  5  1  0
  5  6  1  0
  6  7  1  0
  7  8  1  0
  8  9  1  0
  8  3  1  0
  8  6  1  0
  1 10  1  0
  1 11  1  0
  1 12  1  0
  2 13  1  0
  2 14  1  0
  3 15  1  0
  4 16  1  0
  4 17  1  0
  6 18  1  0
  7 19  1  0
  7 20  1  0
  9 21  1  0
M  END
