
     RDKit          3D

 21 23  0  0  0  0  0  0  0  0999 V2000
    2.5988    0.2820   -0.0662 C   0  0  0  0  0  0  0  0  0  0  0  0
    1.3293   -0.2826    0.5794 C   0  0  0  0  0  0  0  0  0  0  0  0
    0.1308    0.1322   -0.1986 C   0  0  0  0  0  0  0  0  0  0  0  0
   -0.1641    1.5701   -0.3630 C   0  0  0  0  0  0  0  0  0  0  0  0
   -1.0238    0.8347    0.6016 C   0  0  0  0  0  0  0  0  0  0  0  0
   -2.1511   -0.0214    0.0560 C   0  0  0  0  0  0  0  0  0  0  0  0
   -1.6741   -1.4331    0.1414 C   0  0  0  0  0  0  0  0  0  0  0  0
   -0.7337   -0.8815   -0.8946 C   0  0  0  0  0  0  0  0  0  0  0  0
   -1.8150   -0.0708   -1.3137 O   0  0  0  0  0  0  0  0  0  0  0  0
    3.4804   -0.3013    0.2221 H   0  0  0  0  0  0  0  0  0  0  0  0
    2.4994    0.3786   -1.1499 H   0  0  0  0  0  0  0  0  0  0  0  0
    2.7750    1.3252    0.3286 H   0  0  0  0  0  0  0  0  0  0  0  0
    1.3279    0.0191    1.6295 H   0  0  0  0  0  0  0  0  0  0  0  0
    1.4538   -1.4035    0.5316 H   0  0  0  0  0  0  0  0  0  0  0  0
   -0.6547    1.8242   -1.3485 H   0  0  0  0  0  0  0  0  0  0  0  0
    0.5313    2.3029    0.0643 H   0  0  0  0  0  0  0  0  0  0  0  0
   -0.8769    0.9022    1.6877 H   0  0  0  0  0  0  0  0  0  0  0  0
   -3.1546    0.2302    0.3107 H   0  0  0  0  0  0  0  0  0  0  0  0
   -1.1964   -1.7272    1.0979 H   0  0  0  0  0  0  0  0  0  0  0  0
   -2.3780   -2.1435   -0.2965 H   0  0  0  0  0  0  0  0  0  0  0  0
   -0.3043   -1.5366   -1.6197 H   0  0  0  0  0  0  0  0  0  0  0  0
  1  2  1  0
  2  3  1  0
  3  4  1  0
  4  5  1  0
  5  6  1  0
  6  7  1  0
  7  8  1  0
  8  9  1  0
  5  3  1  0
  9  6  1  0
  8  3  1  0
  1 10  1  0
  1 11  1  0
  1 12  1  0
  2 13  1  0
  2 14  1  0
  4 15  1  0
  4 16  1  0
  5 17  1  0
  6 18  1  0
  7 19  1  0
  7 20  1  0
  8 21  1  0
M  END
