
     RDKit          3D

 23 23  0  0  0  0  0  0  0  0999 V2000
    2.4726    0.9282   -0.2893 C   0  0  0  0  0  0  0  0  0  0  0  0
    1.4710   -0.0098   -0.9150 C   0  0  0  0  0  0  0  0  0  0  0  0
    0.6679   -0.6503    0.1820 C   0  0  0  0  0  0  0  0  0  0  0  0
   -0.3863   -1.6239   -0.2813 C   0  0  0  0  0  0  0  0  0  0  0  0
   -1.2265   -1.1239    0.8699 C   0  0  0  0  0  0  0  0  0  0  0  0
   -2.5818   -0.9788    0.5856 O   0  0  0  0  0  0  0  0  0  0  0  0
   -0.4689    0.1748    0.7287 C   0  0  0  0  0  0  0  0  0  0  0  0
   -1.1407    1.0497   -0.3117 C   0  0  0  0  0  0  0  0  0  0  0  0
   -2.1788    1.7890    0.2473 O   0  0  0  0  0  0  0  0  0  0  0  0
    2.1851    1.1393    0.7767 H   0  0  0  0  0  0  0  0  0  0  0  0
    2.5467    1.8977   -0.8420 H   0  0  0  0  0  0  0  0  0  0  0  0
    3.4831    0.5109   -0.2542 H   0  0  0  0  0  0  0  0  0  0  0  0
    0.8729    0.5151   -1.6551 H   0  0  0  0  0  0  0  0  0  0  0  0
    2.0057   -0.8321   -1.4472 H   0  0  0  0  0  0  0  0  0  0  0  0
    1.2647   -1.0741    1.0145 H   0  0  0  0  0  0  0  0  0  0  0  0
    0.0042   -2.6515   -0.1677 H   0  0  0  0  0  0  0  0  0  0  0  0
   -0.7860   -1.3631   -1.2716 H   0  0  0  0  0  0  0  0  0  0  0  0
   -0.9951   -1.6153    1.8310 H   0  0  0  0  0  0  0  0  0  0  0  0
   -3.1252   -1.7298    0.8785 H   0  0  0  0  0  0  0  0  0  0  0  0
   -0.2424    0.6923    1.6816 H   0  0  0  0  0  0  0  0  0  0  0  0
   -1.5666    0.4834   -1.1533 H   0  0  0  0  0  0  0  0  0  0  0  0
   -0.4172    1.7838   -0.7171 H   0  0  0  0  0  0  0  0  0  0  0  0
   -1.8585    2.6884    0.5096 H   0  0  0  0  0  0  0  0  0  0  0  0
  1  2  1  0
  2  3  1  0
  3  4  1  0
  4  5  1  0
  5  6  1  0
  5  7  1  0
  7  8  1  0
  8  9  1  0
  7  3  1  0
  1 10  1  0
  1 11  1  0
  1 12  1  0
  2 13  1  0
  2 14  1  0
  3 15  1  0
  4 16  1  0
  4 17  1  0
  5 18  1  0
  6 19  1  0
  7 20  1  0
  8 21  1  0
  8 22  1  0
  9 23  1  0
M  END
