
     RDKit          3D

 21 22  0  0  0  0  0  0  0  0999 V2000
    2.6912    0.0926   -0.6005 C   0  0  0  0  0  0  0  0  0  0  0  0
    1.4078   -0.6803   -0.5762 C   0  0  0  0  0  0  0  0  0  0  0  0
    0.3428    0.1070    0.0885 C   0  0  0  0  0  0  0  0  0  0  0  0
    0.3406    1.3231    0.6378 C   0  0  0  0  0  0  0  0  0  0  0  0
   -1.0900    1.4057    1.1050 C   0  0  0  0  0  0  0  0  0  0  0  0
   -1.8845    0.9069   -0.0600 C   0  0  0  0  0  0  0  0  0  0  0  0
   -1.0699   -0.3138    0.3092 C   0  0  0  0  0  0  0  0  0  0  0  0
   -1.5099   -1.6274   -0.0735 C   0  0  0  0  0  0  0  0  0  0  0  0
   -1.2379    0.1083    1.6508 O   0  0  0  0  0  0  0  0  0  0  0  0
    3.2853   -0.1631   -1.4872 H   0  0  0  0  0  0  0  0  0  0  0  0
    2.5185    1.1957   -0.6232 H   0  0  0  0  0  0  0  0  0  0  0  0
    3.2541   -0.0900    0.3549 H   0  0  0  0  0  0  0  0  0  0  0  0
    1.0954   -1.0175   -1.6034 H   0  0  0  0  0  0  0  0  0  0  0  0
    1.6211   -1.6393   -0.0265 H   0  0  0  0  0  0  0  0  0  0  0  0
    1.1281    2.0617    0.7345 H   0  0  0  0  0  0  0  0  0  0  0  0
   -1.3954    2.2345    1.6758 H   0  0  0  0  0  0  0  0  0  0  0  0
   -2.9412    0.7166    0.1077 H   0  0  0  0  0  0  0  0  0  0  0  0
   -1.6136    1.3896   -1.0133 H   0  0  0  0  0  0  0  0  0  0  0  0
   -0.6631   -2.2578   -0.4178 H   0  0  0  0  0  0  0  0  0  0  0  0
   -2.0476   -2.1350    0.7568 H   0  0  0  0  0  0  0  0  0  0  0  0
   -2.2317   -1.6174   -0.9394 H   0  0  0  0  0  0  0  0  0  0  0  0
  1  2  1  0
  2  3  1  0
  3  4  2  0
  4  5  1  0
  5  6  1  0
  6  7  1  0
  7  8  1  0
  7  9  1  0
  7  3  1  0
  9  5  1  0
  1 10  1  0
  1 11  1  0
  1 12  1  0
  2 13  1  0
  2 14  1  0
  4 15  1  0
  5 16  1  0
  6 17  1  0
  6 18  1  0
  8 19  1  0
  8 20  1  0
  8 21  1  0
M  END
