
     RDKit          3D

 22 22  0  0  0  0  0  0  0  0999 V2000
    1.9694   -0.8482    1.0149 C   0  0  0  0  0  0  0  0  0  0  0  0
    1.4815   -0.6252   -0.3826 C   0  0  0  0  0  0  0  0  0  0  0  0
    0.3673    0.4288   -0.4171 C   0  0  0  0  0  0  0  0  0  0  0  0
   -0.8287    0.0466    0.4019 C   0  0  0  0  0  0  0  0  0  0  0  0
   -1.3634   -1.2671   -0.1802 C   0  0  0  0  0  0  0  0  0  0  0  0
   -1.9010    1.0882    0.4124 C   0  0  0  0  0  0  0  0  0  0  0  0
    0.5718    1.6633   -0.9893 C   0  0  0  0  0  0  0  0  0  0  0  0
   -0.0804    0.6896   -1.8117 O   0  0  0  0  0  0  0  0  0  0  0  0
    3.0825   -0.9955    1.0118 H   0  0  0  0  0  0  0  0  0  0  0  0
    1.5649   -1.7906    1.4652 H   0  0  0  0  0  0  0  0  0  0  0  0
    1.7357   -0.0139    1.7087 H   0  0  0  0  0  0  0  0  0  0  0  0
    2.3028   -0.3145   -1.0859 H   0  0  0  0  0  0  0  0  0  0  0  0
    1.1213   -1.6001   -0.7769 H   0  0  0  0  0  0  0  0  0  0  0  0
   -0.4868   -0.1537    1.4466 H   0  0  0  0  0  0  0  0  0  0  0  0
   -2.4603   -1.1950   -0.3581 H   0  0  0  0  0  0  0  0  0  0  0  0
   -0.8975   -1.4965   -1.1579 H   0  0  0  0  0  0  0  0  0  0  0  0
   -1.0996   -2.1074    0.5035 H   0  0  0  0  0  0  0  0  0  0  0  0
   -2.7546    0.6758    1.0054 H   0  0  0  0  0  0  0  0  0  0  0  0
   -1.5105    1.9697    0.9599 H   0  0  0  0  0  0  0  0  0  0  0  0
   -2.2663    1.3128   -0.5908 H   0  0  0  0  0  0  0  0  0  0  0  0
   -0.1024    2.5369   -0.7933 H   0  0  0  0  0  0  0  0  0  0  0  0
    1.5542    1.9960   -1.3867 H   0  0  0  0  0  0  0  0  0  0  0  0
  1  2  1  0
  2  3  1  0
  3  4  1  0
  4  5  1  0
  4  6  1  0
  3  7  1  0
  7  8  1  0
  8  3  1  0
  1  9  1  0
  1 10  1  0
  1 11  1  0
  2 12  1  0
  2 13  1  0
  4 14  1  0
  5 15  1  0
  5 16  1  0
  5 17  1  0
  6 18  1  0
  6 19  1  0
  6 20  1  0
  7 21  1  0
  7 22  1  0
M  END
