
     RDKit          3D

 20 20  0  0  0  0  0  0  0  0999 V2000
    3.0993   -0.0671   -0.4788 C   0  0  0  0  0  0  0  0  0  0  0  0
    2.1319   -0.2030    0.6462 C   0  0  0  0  0  0  0  0  0  0  0  0
    0.8708    0.6093    0.4364 C   0  0  0  0  0  0  0  0  0  0  0  0
    0.0008    0.3845    1.6217 O   0  0  0  0  0  0  0  0  0  0  0  0
   -0.3810   -0.0647    0.2913 C   0  0  0  0  0  0  0  0  0  0  0  0
   -1.6317    0.5965   -0.1774 C   0  0  0  0  0  0  0  0  0  0  0  0
   -2.8025   -0.3923   -0.2262 C   0  0  0  0  0  0  0  0  0  0  0  0
   -3.0497   -0.9248    1.0292 O   0  0  0  0  0  0  0  0  0  0  0  0
    3.6173   -1.0245   -0.7126 H   0  0  0  0  0  0  0  0  0  0  0  0
    2.6244    0.2552   -1.4317 H   0  0  0  0  0  0  0  0  0  0  0  0
    3.9121    0.6802   -0.2842 H   0  0  0  0  0  0  0  0  0  0  0  0
    1.9251   -1.2496    0.8777 H   0  0  0  0  0  0  0  0  0  0  0  0
    2.6217    0.2372    1.5636 H   0  0  0  0  0  0  0  0  0  0  0  0
    1.0376    1.6799    0.2253 H   0  0  0  0  0  0  0  0  0  0  0  0
   -0.3792   -1.1756    0.1774 H   0  0  0  0  0  0  0  0  0  0  0  0
   -1.9747    1.4366    0.4496 H   0  0  0  0  0  0  0  0  0  0  0  0
   -1.5101    1.0012   -1.2041 H   0  0  0  0  0  0  0  0  0  0  0  0
   -3.7105    0.1077   -0.6023 H   0  0  0  0  0  0  0  0  0  0  0  0
   -2.4605   -1.2278   -0.8695 H   0  0  0  0  0  0  0  0  0  0  0  0
   -3.9411   -0.6590    1.3498 H   0  0  0  0  0  0  0  0  0  0  0  0
  1  2  1  0
  2  3  1  0
  3  4  1  0
  4  5  1  0
  5  6  1  0
  6  7  1  0
  7  8  1  0
  5  3  1  0
  1  9  1  0
  1 10  1  0
  1 11  1  0
  2 12  1  0
  2 13  1  0
  3 14  1  0
  5 15  1  0
  6 16  1  0
  6 17  1  0
  7 18  1  0
  7 19  1  0
  8 20  1  0
M  END
