
     RDKit          3D

 19 19  0  0  0  0  0  0  0  0999 V2000
    2.2636    0.4745   -0.3463 C   0  0  0  0  0  0  0  0  0  0  0  0
    1.1512   -0.3050    0.2594 C   0  0  0  0  0  0  0  0  0  0  0  0
   -0.0838   -0.4313   -0.5517 C   0  0  0  0  0  0  0  0  0  0  0  0
   -1.0877   -1.2513    0.2291 C   0  0  0  0  0  0  0  0  0  0  0  0
   -1.6801   -0.2424    1.1350 C   0  0  0  0  0  0  0  0  0  0  0  0
   -1.5656    0.9508    0.5714 C   0  0  0  0  0  0  0  0  0  0  0  0
   -0.8784    0.8065   -0.7641 C   0  0  0  0  0  0  0  0  0  0  0  0
    2.7370    1.1701    0.3898 H   0  0  0  0  0  0  0  0  0  0  0  0
    3.1113   -0.1925   -0.6817 H   0  0  0  0  0  0  0  0  0  0  0  0
    1.9993    1.0711   -1.2261 H   0  0  0  0  0  0  0  0  0  0  0  0
    1.5322   -1.3354    0.4548 H   0  0  0  0  0  0  0  0  0  0  0  0
    0.9407    0.1245    1.2627 H   0  0  0  0  0  0  0  0  0  0  0  0
    0.1129   -0.9463   -1.5108 H   0  0  0  0  0  0  0  0  0  0  0  0
   -1.8674   -1.5885   -0.4841 H   0  0  0  0  0  0  0  0  0  0  0  0
   -0.6160   -2.0940    0.7671 H   0  0  0  0  0  0  0  0  0  0  0  0
   -2.1472   -0.3810    2.1108 H   0  0  0  0  0  0  0  0  0  0  0  0
   -1.9023    1.8972    0.9801 H   0  0  0  0  0  0  0  0  0  0  0  0
   -1.6661    0.5846   -1.5123 H   0  0  0  0  0  0  0  0  0  0  0  0
   -0.3535    1.6884   -1.0830 H   0  0  0  0  0  0  0  0  0  0  0  0
  1  2  1  0
  2  3  1  0
  3  4  1  0
  4  5  1  0
  5  6  2  0
  6  7  1  0
  7  3  1  0
  1  8  1  0
  1  9  1  0
  1 10  1  0
  2 11  1  0
  2 12  1  0
  3 13  1  0
  4 14  1  0
  4 15  1  0
  5 16  1  0
  6 17  1  0
  7 18  1  0
  7 19  1  0
M  END
