
     RDKit          3D

 25 25  0  0  0  0  0  0  0  0999 V2000
   -1.8250   -0.6401   -1.8361 C   0  0  0  0  0  0  0  0  0  0  0  0
   -0.6159    0.0749   -1.2592 C   0  0  0  0  0  0  0  0  0  0  0  0
   -0.6867   -0.0579    0.2344 C   0  0  0  0  0  0  0  0  0  0  0  0
   -1.9343    0.5448    0.8458 C   0  0  0  0  0  0  0  0  0  0  0  0
   -0.2936   -1.3771    0.7946 C   0  0  0  0  0  0  0  0  0  0  0  0
    0.5074   -0.1049    1.0877 C   0  0  0  0  0  0  0  0  0  0  0  0
    1.9001   -0.1402    0.5479 C   0  0  0  0  0  0  0  0  0  0  0  0
    2.2328    1.0665   -0.2964 C   0  0  0  0  0  0  0  0  0  0  0  0
    2.7730   -0.1659    1.6356 O   0  0  0  0  0  0  0  0  0  0  0  0
   -1.8017   -1.7225   -1.6547 H   0  0  0  0  0  0  0  0  0  0  0  0
   -2.7144   -0.1935   -1.3331 H   0  0  0  0  0  0  0  0  0  0  0  0
   -1.8686   -0.4990   -2.9422 H   0  0  0  0  0  0  0  0  0  0  0  0
    0.3204   -0.2599   -1.6986 H   0  0  0  0  0  0  0  0  0  0  0  0
   -0.7548    1.1615   -1.5359 H   0  0  0  0  0  0  0  0  0  0  0  0
   -1.6990    1.0863    1.7957 H   0  0  0  0  0  0  0  0  0  0  0  0
   -2.6391   -0.2769    1.1279 H   0  0  0  0  0  0  0  0  0  0  0  0
   -2.4723    1.2176    0.1676 H   0  0  0  0  0  0  0  0  0  0  0  0
    0.1235   -2.1176    0.1108 H   0  0  0  0  0  0  0  0  0  0  0  0
   -0.7958   -1.8098    1.6824 H   0  0  0  0  0  0  0  0  0  0  0  0
    0.4080    0.3266    2.1196 H   0  0  0  0  0  0  0  0  0  0  0  0
    2.1138   -1.0668   -0.0321 H   0  0  0  0  0  0  0  0  0  0  0  0
    2.6112    0.7916   -1.2915 H   0  0  0  0  0  0  0  0  0  0  0  0
    1.3172    1.6697   -0.4363 H   0  0  0  0  0  0  0  0  0  0  0  0
    2.9701    1.7217    0.2020 H   0  0  0  0  0  0  0  0  0  0  0  0
    2.8238    0.7710    1.9638 H   0  0  0  0  0  0  0  0  0  0  0  0
  1  2  1  0
  2  3  1  0
  3  4  1  0
  3  5  1  0
  5  6  1  0
  6  7  1  0
  7  8  1  0
  7  9  1  0
  6  3  1  0
  1 10  1  0
  1 11  1  0
  1 12  1  0
  2 13  1  0
  2 14  1  0
  4 15  1  0
  4 16  1  0
  4 17  1  0
  5 18  1  0
  5 19  1  0
  6 20  1  0
  7 21  1  0
  8 22  1  0
  8 23  1  0
  8 24  1  0
  9 25  1  0
M  END
