
     RDKit          3D

 23 24  0  0  0  0  0  0  0  0999 V2000
    2.2178   -0.3534    0.7361 C   0  0  0  0  0  0  0  0  0  0  0  0
    0.8361    0.1853    1.0453 C   0  0  0  0  0  0  0  0  0  0  0  0
    0.0446    0.1782   -0.2137 C   0  0  0  0  0  0  0  0  0  0  0  0
   -0.0936   -1.2058   -0.7966 C   0  0  0  0  0  0  0  0  0  0  0  0
   -1.2828   -1.6902    0.0465 C   0  0  0  0  0  0  0  0  0  0  0  0
   -2.1228   -0.4516    0.0915 C   0  0  0  0  0  0  0  0  0  0  0  0
   -1.3990    0.6358   -0.0551 C   0  0  0  0  0  0  0  0  0  0  0  0
   -0.8428    1.9989   -0.1980 C   0  0  0  0  0  0  0  0  0  0  0  0
    0.1892    1.3337   -1.1404 C   0  0  0  0  0  0  0  0  0  0  0  0
    2.3990   -1.3268    1.2789 H   0  0  0  0  0  0  0  0  0  0  0  0
    2.3479   -0.5440   -0.3474 H   0  0  0  0  0  0  0  0  0  0  0  0
    2.9868    0.3916    1.0391 H   0  0  0  0  0  0  0  0  0  0  0  0
    0.9269    1.1548    1.5366 H   0  0  0  0  0  0  0  0  0  0  0  0
    0.3519   -0.5183    1.7649 H   0  0  0  0  0  0  0  0  0  0  0  0
   -0.3375   -1.2096   -1.8592 H   0  0  0  0  0  0  0  0  0  0  0  0
    0.7584   -1.8147   -0.4945 H   0  0  0  0  0  0  0  0  0  0  0  0
   -0.9619   -1.9064    1.0616 H   0  0  0  0  0  0  0  0  0  0  0  0
   -1.7773   -2.5127   -0.4851 H   0  0  0  0  0  0  0  0  0  0  0  0
   -3.2182   -0.4991    0.2335 H   0  0  0  0  0  0  0  0  0  0  0  0
   -1.4791    2.7358   -0.7212 H   0  0  0  0  0  0  0  0  0  0  0  0
   -0.4298    2.4232    0.7108 H   0  0  0  0  0  0  0  0  0  0  0  0
   -0.2828    1.1744   -2.1101 H   0  0  0  0  0  0  0  0  0  0  0  0
    1.1689    1.8210   -1.1235 H   0  0  0  0  0  0  0  0  0  0  0  0
  1  2  1  0
  2  3  1  0
  3  4  1  0
  4  5  1  0
  5  6  1  0
  6  7  2  0
  7  8  1  0
  8  9  1  0
  7  3  1  0
  9  3  1  0
  1 10  1  0
  1 11  1  0
  1 12  1  0
  2 13  1  0
  2 14  1  0
  4 15  1  0
  4 16  1  0
  5 17  1  0
  5 18  1  0
  6 19  1  0
  8 20  1  0
  8 21  1  0
  9 22  1  0
  9 23  1  0
M  END
