
     RDKit          3D

 21 23  0  0  0  0  0  0  0  0999 V2000
   -2.5628   -0.9338   -0.3576 C   0  0  0  0  0  0  0  0  0  0  0  0
   -1.2492   -0.8725    0.4232 C   0  0  0  0  0  0  0  0  0  0  0  0
   -0.2419    0.0123   -0.3376 C   0  0  0  0  0  0  0  0  0  0  0  0
   -0.8818    1.3424   -0.4324 C   0  0  0  0  0  0  0  0  0  0  0  0
    0.3400    1.2951    0.3118 C   0  0  0  0  0  0  0  0  0  0  0  0
    1.5719    0.9677   -0.5516 C   0  0  0  0  0  0  0  0  0  0  0  0
    2.4146   -0.2160   -0.4469 C   0  0  0  0  0  0  0  0  0  0  0  0
    3.5802    0.0426    0.3093 O   0  0  0  0  0  0  0  0  0  0  0  0
    1.1199   -0.3896    0.0893 C   0  0  0  0  0  0  0  0  0  0  0  0
   -2.4581   -0.3253   -1.2688 H   0  0  0  0  0  0  0  0  0  0  0  0
   -3.4054   -0.5329    0.2728 H   0  0  0  0  0  0  0  0  0  0  0  0
   -2.8404   -1.9539   -0.6550 H   0  0  0  0  0  0  0  0  0  0  0  0
   -0.8758   -1.9127    0.4351 H   0  0  0  0  0  0  0  0  0  0  0  0
   -1.4022   -0.4329    1.4130 H   0  0  0  0  0  0  0  0  0  0  0  0
   -0.8170    1.7877   -1.4730 H   0  0  0  0  0  0  0  0  0  0  0  0
   -1.7819    1.6852    0.0714 H   0  0  0  0  0  0  0  0  0  0  0  0
    0.4587    1.1753    1.3872 H   0  0  0  0  0  0  0  0  0  0  0  0
    1.3946    1.1595   -1.6248 H   0  0  0  0  0  0  0  0  0  0  0  0
    2.6842   -0.8964   -1.3094 H   0  0  0  0  0  0  0  0  0  0  0  0
    3.7666   -0.6707    0.9425 H   0  0  0  0  0  0  0  0  0  0  0  0
    1.1858   -0.3312    1.2353 H   0  0  0  0  0  0  0  0  0  0  0  0
  1  2  1  0
  2  3  1  0
  3  4  1  0
  4  5  1  0
  5  6  1  0
  6  7  1  0
  7  8  1  0
  7  9  1  0
  5  3  1  0
  9  6  1  0
  9  3  1  0
  1 10  1  0
  1 11  1  0
  1 12  1  0
  2 13  1  0
  2 14  1  0
  4 15  1  0
  4 16  1  0
  5 17  1  0
  6 18  1  0
  7 19  1  0
  8 20  1  0
  9 21  1  0
M  END
