
     RDKit          3D

 21 22  0  0  0  0  0  0  0  0999 V2000
    1.9455   -0.4678   -1.1169 C   0  0  0  0  0  0  0  0  0  0  0  0
    1.5331    0.2797    0.1245 C   0  0  0  0  0  0  0  0  0  0  0  0
    0.0743    0.3804    0.3259 C   0  0  0  0  0  0  0  0  0  0  0  0
   -0.7451    1.0370   -0.6723 C   0  0  0  0  0  0  0  0  0  0  0  0
   -1.7489    0.2707   -1.0483 C   0  0  0  0  0  0  0  0  0  0  0  0
   -1.6773   -1.0066   -0.3039 C   0  0  0  0  0  0  0  0  0  0  0  0
   -0.6835   -0.7942    0.7972 C   0  0  0  0  0  0  0  0  0  0  0  0
   -1.2658   -0.0708    1.8607 O   0  0  0  0  0  0  0  0  0  0  0  0
   -0.2570    0.8922    1.7134 C   0  0  0  0  0  0  0  0  0  0  0  0
    1.9014    0.1236   -2.0320 H   0  0  0  0  0  0  0  0  0  0  0  0
    3.0190   -0.7602   -0.9764 H   0  0  0  0  0  0  0  0  0  0  0  0
    1.3889   -1.4176   -1.2328 H   0  0  0  0  0  0  0  0  0  0  0  0
    1.9811   -0.2324    1.0043 H   0  0  0  0  0  0  0  0  0  0  0  0
    1.9776    1.2955    0.0866 H   0  0  0  0  0  0  0  0  0  0  0  0
   -0.6055    2.0508   -1.1091 H   0  0  0  0  0  0  0  0  0  0  0  0
   -2.5330    0.5306   -1.8038 H   0  0  0  0  0  0  0  0  0  0  0  0
   -1.3067   -1.7742   -1.0441 H   0  0  0  0  0  0  0  0  0  0  0  0
   -2.6763   -1.3162    0.0679 H   0  0  0  0  0  0  0  0  0  0  0  0
   -0.1361   -1.6748    1.1533 H   0  0  0  0  0  0  0  0  0  0  0  0
   -0.7063    1.8991    1.7423 H   0  0  0  0  0  0  0  0  0  0  0  0
    0.5206    0.7552    2.4636 H   0  0  0  0  0  0  0  0  0  0  0  0
  1  2  1  0
  2  3  1  0
  3  4  1  0
  4  5  2  0
  5  6  1  0
  6  7  1  0
  7  8  1  0
  8  9  1  0
  7  3  1  0
  9  3  1  0
  1 10  1  0
  1 11  1  0
  1 12  1  0
  2 13  1  0
  2 14  1  0
  4 15  1  0
  5 16  1  0
  6 17  1  0
  6 18  1  0
  7 19  1  0
  9 20  1  0
  9 21  1  0
M  END
