
     RDKit          3D

 21 22  0  0  0  0  0  0  0  0999 V2000
   -2.9244   -0.5628   -0.4434 C   0  0  0  0  0  0  0  0  0  0  0  0
   -1.8733    0.2469    0.2337 C   0  0  0  0  0  0  0  0  0  0  0  0
   -0.4865    0.0068   -0.2585 C   0  0  0  0  0  0  0  0  0  0  0  0
    0.5617    0.8539    0.4588 C   0  0  0  0  0  0  0  0  0  0  0  0
    1.7264    1.2521   -0.3833 C   0  0  0  0  0  0  0  0  0  0  0  0
    2.6768    0.1321   -0.1875 C   0  0  0  0  0  0  0  0  0  0  0  0
    3.8768    0.2491   -0.1953 O   0  0  0  0  0  0  0  0  0  0  0  0
    1.8229   -1.0830    0.0066 C   0  0  0  0  0  0  0  0  0  0  0  0
    0.5338   -0.6177    0.5837 C   0  0  0  0  0  0  0  0  0  0  0  0
   -3.6347   -0.9639    0.3203 H   0  0  0  0  0  0  0  0  0  0  0  0
   -3.5587    0.1179   -1.0811 H   0  0  0  0  0  0  0  0  0  0  0  0
   -2.5496   -1.3949   -1.0529 H   0  0  0  0  0  0  0  0  0  0  0  0
   -2.0813    1.3495    0.0979 H   0  0  0  0  0  0  0  0  0  0  0  0
   -1.9191    0.1081    1.3521 H   0  0  0  0  0  0  0  0  0  0  0  0
   -0.3912   -0.0893   -1.3714 H   0  0  0  0  0  0  0  0  0  0  0  0
    0.2724    1.4231    1.3487 H   0  0  0  0  0  0  0  0  0  0  0  0
    1.4907    1.2706   -1.4835 H   0  0  0  0  0  0  0  0  0  0  0  0
    2.1450    2.2379   -0.1151 H   0  0  0  0  0  0  0  0  0  0  0  0
    2.3762   -1.7196    0.7424 H   0  0  0  0  0  0  0  0  0  0  0  0
    1.7355   -1.6845   -0.9104 H   0  0  0  0  0  0  0  0  0  0  0  0
    0.2005   -1.1323    1.5020 H   0  0  0  0  0  0  0  0  0  0  0  0
  1  2  1  0
  2  3  1  0
  3  4  1  0
  4  5  1  0
  5  6  1  0
  6  7  2  0
  6  8  1  0
  8  9  1  0
  9  3  1  0
  9  4  1  0
  1 10  1  0
  1 11  1  0
  1 12  1  0
  2 13  1  0
  2 14  1  0
  3 15  1  0
  4 16  1  0
  5 17  1  0
  5 18  1  0
  8 19  1  0
  8 20  1  0
  9 21  1  0
M  END
