
     RDKit          3D

 23 23  0  0  0  0  0  0  0  0999 V2000
    2.2505   -1.1050   -0.1564 C   0  0  0  0  0  0  0  0  0  0  0  0
    1.4054   -0.0668    0.5683 C   0  0  0  0  0  0  0  0  0  0  0  0
    0.0471    0.0841   -0.0321 C   0  0  0  0  0  0  0  0  0  0  0  0
   -0.7142   -1.2147    0.0140 C   0  0  0  0  0  0  0  0  0  0  0  0
   -2.0988   -1.0809   -0.5920 C   0  0  0  0  0  0  0  0  0  0  0  0
    0.1602    0.6368   -1.3206 O   0  0  0  0  0  0  0  0  0  0  0  0
    0.0933    1.8938   -0.7435 C   0  0  0  0  0  0  0  0  0  0  0  0
   -0.6829    1.3036    0.3882 C   0  0  0  0  0  0  0  0  0  0  0  0
   -0.3848    1.7947    1.6517 O   0  0  0  0  0  0  0  0  0  0  0  0
    2.2574   -2.0272    0.4794 H   0  0  0  0  0  0  0  0  0  0  0  0
    3.2886   -0.7500   -0.3272 H   0  0  0  0  0  0  0  0  0  0  0  0
    1.8391   -1.3312   -1.1727 H   0  0  0  0  0  0  0  0  0  0  0  0
    1.3405   -0.3405    1.6618 H   0  0  0  0  0  0  0  0  0  0  0  0
    1.9952    0.8802    0.5458 H   0  0  0  0  0  0  0  0  0  0  0  0
   -0.2098   -2.0254   -0.5360 H   0  0  0  0  0  0  0  0  0  0  0  0
   -0.8285   -1.4874    1.0834 H   0  0  0  0  0  0  0  0  0  0  0  0
   -2.4411   -2.1053   -0.8493 H   0  0  0  0  0  0  0  0  0  0  0  0
   -2.7864   -0.7407    0.2327 H   0  0  0  0  0  0  0  0  0  0  0  0
   -2.1246   -0.4153   -1.4659 H   0  0  0  0  0  0  0  0  0  0  0  0
   -0.5098    2.6274   -1.3404 H   0  0  0  0  0  0  0  0  0  0  0  0
    1.0470    2.3692   -0.4763 H   0  0  0  0  0  0  0  0  0  0  0  0
   -1.7583    1.3495    0.2075 H   0  0  0  0  0  0  0  0  0  0  0  0
   -1.1852    1.7512    2.2537 H   0  0  0  0  0  0  0  0  0  0  0  0
  1  2  1  0
  2  3  1  0
  3  4  1  0
  4  5  1  0
  3  6  1  0
  6  7  1  0
  7  8  1  0
  8  9  1  0
  8  3  1  0
  1 10  1  0
  1 11  1  0
  1 12  1  0
  2 13  1  0
  2 14  1  0
  4 15  1  0
  4 16  1  0
  5 17  1  0
  5 18  1  0
  5 19  1  0
  7 20  1  0
  7 21  1  0
  8 22  1  0
  9 23  1  0
M  END
