
     RDKit          3D

 21 22  0  0  0  0  0  0  0  0999 V2000
    1.8910    1.1390   -0.0245 C   0  0  0  0  0  0  0  0  0  0  0  0
    1.4697   -0.2832    0.0010 C   0  0  0  0  0  0  0  0  0  0  0  0
    0.0448   -0.5918   -0.1468 C   0  0  0  0  0  0  0  0  0  0  0  0
   -0.3313   -2.0817   -0.1137 C   0  0  0  0  0  0  0  0  0  0  0  0
   -1.4047   -1.7823    0.8650 C   0  0  0  0  0  0  0  0  0  0  0  0
   -2.2415   -2.4701    1.4159 O   0  0  0  0  0  0  0  0  0  0  0  0
   -0.9985   -0.3684    0.8463 C   0  0  0  0  0  0  0  0  0  0  0  0
   -1.0537    0.2818   -0.5110 C   0  0  0  0  0  0  0  0  0  0  0  0
   -1.0729    1.7628   -0.5253 C   0  0  0  0  0  0  0  0  0  0  0  0
    1.4758    1.6507   -0.9181 H   0  0  0  0  0  0  0  0  0  0  0  0
    3.0176    1.2208   -0.1392 H   0  0  0  0  0  0  0  0  0  0  0  0
    1.6976    1.6906    0.9111 H   0  0  0  0  0  0  0  0  0  0  0  0
    1.8107   -0.7030    0.9966 H   0  0  0  0  0  0  0  0  0  0  0  0
    2.0475   -0.9139   -0.7388 H   0  0  0  0  0  0  0  0  0  0  0  0
    0.4632   -2.6791    0.3808 H   0  0  0  0  0  0  0  0  0  0  0  0
   -0.6515   -2.4485   -1.0959 H   0  0  0  0  0  0  0  0  0  0  0  0
   -0.9076    0.2263    1.7494 H   0  0  0  0  0  0  0  0  0  0  0  0
   -1.8104   -0.1625   -1.2307 H   0  0  0  0  0  0  0  0  0  0  0  0
   -2.1622    2.0679   -0.4466 H   0  0  0  0  0  0  0  0  0  0  0  0
   -0.5137    2.2813    0.2459 H   0  0  0  0  0  0  0  0  0  0  0  0
   -0.7699    2.1630   -1.5215 H   0  0  0  0  0  0  0  0  0  0  0  0
  1  2  1  0
  2  3  1  0
  3  4  1  0
  4  5  1  0
  5  6  2  0
  5  7  1  0
  7  8  1  0
  8  9  1  0
  7  3  1  0
  8  3  1  0
  1 10  1  0
  1 11  1  0
  1 12  1  0
  2 13  1  0
  2 14  1  0
  4 15  1  0
  4 16  1  0
  7 17  1  0
  8 18  1  0
  9 19  1  0
  9 20  1  0
  9 21  1  0
M  END
