
     RDKit          3D

 23 24  0  0  0  0  0  0  0  0999 V2000
    2.5372    0.2109    0.3876 C   0  0  0  0  0  0  0  0  0  0  0  0
    1.6557   -0.0392   -0.8073 C   0  0  0  0  0  0  0  0  0  0  0  0
    0.2140    0.0013   -0.4596 C   0  0  0  0  0  0  0  0  0  0  0  0
   -0.2772    1.2992    0.1118 C   0  0  0  0  0  0  0  0  0  0  0  0
   -1.5970    0.8791    0.7839 C   0  0  0  0  0  0  0  0  0  0  0  0
   -1.6322   -0.6207    0.6310 C   0  0  0  0  0  0  0  0  0  0  0  0
   -1.8056   -0.9140   -0.8382 C   0  0  0  0  0  0  0  0  0  0  0  0
   -0.6500   -0.4097   -1.4401 O   0  0  0  0  0  0  0  0  0  0  0  0
   -0.1241   -0.9276    0.7228 C   0  0  0  0  0  0  0  0  0  0  0  0
    3.6034   -0.0147    0.1254 H   0  0  0  0  0  0  0  0  0  0  0  0
    2.4897    1.2411    0.7456 H   0  0  0  0  0  0  0  0  0  0  0  0
    2.2875   -0.4956    1.2164 H   0  0  0  0  0  0  0  0  0  0  0  0
    1.8829   -1.0588   -1.1834 H   0  0  0  0  0  0  0  0  0  0  0  0
    1.9581    0.6624   -1.5905 H   0  0  0  0  0  0  0  0  0  0  0  0
    0.4196    1.7083    0.8940 H   0  0  0  0  0  0  0  0  0  0  0  0
   -0.4625    2.0442   -0.6872 H   0  0  0  0  0  0  0  0  0  0  0  0
   -2.4385    1.3009    0.1783 H   0  0  0  0  0  0  0  0  0  0  0  0
   -1.6653    1.2296    1.8109 H   0  0  0  0  0  0  0  0  0  0  0  0
   -2.2359   -1.1676    1.3123 H   0  0  0  0  0  0  0  0  0  0  0  0
   -2.7182   -0.3912   -1.1788 H   0  0  0  0  0  0  0  0  0  0  0  0
   -1.8300   -2.0067   -1.0258 H   0  0  0  0  0  0  0  0  0  0  0  0
    0.0912   -1.9620    0.4643 H   0  0  0  0  0  0  0  0  0  0  0  0
    0.2972   -0.5692    1.6577 H   0  0  0  0  0  0  0  0  0  0  0  0
  1  2  1  0
  2  3  1  0
  3  4  1  0
  4  5  1  0
  5  6  1  0
  6  7  1  0
  7  8  1  0
  6  9  1  0
  8  3  1  0
  9  3  1  0
  1 10  1  0
  1 11  1  0
  1 12  1  0
  2 13  1  0
  2 14  1  0
  4 15  1  0
  4 16  1  0
  5 17  1  0
  5 18  1  0
  6 19  1  0
  7 20  1  0
  7 21  1  0
  9 22  1  0
  9 23  1  0
M  END
