
     RDKit          3D

 21 22  0  0  0  0  0  0  0  0999 V2000
   -2.7038    0.0356   -0.5412 C   0  0  0  0  0  0  0  0  0  0  0  0
   -1.2439    0.4036   -0.6972 C   0  0  0  0  0  0  0  0  0  0  0  0
   -0.5117    0.1468    0.6012 C   0  0  0  0  0  0  0  0  0  0  0  0
   -0.6225   -1.3202    0.9652 C   0  0  0  0  0  0  0  0  0  0  0  0
    0.4085   -1.5367    0.0204 O   0  0  0  0  0  0  0  0  0  0  0  0
    0.9173   -0.3018    0.4414 C   0  0  0  0  0  0  0  0  0  0  0  0
    1.7402    0.4329   -0.5547 C   0  0  0  0  0  0  0  0  0  0  0  0
    3.1473    0.7753   -0.0707 C   0  0  0  0  0  0  0  0  0  0  0  0
    2.8861   -0.2038   -1.0161 O   0  0  0  0  0  0  0  0  0  0  0  0
   -3.2981    0.5517   -1.3506 H   0  0  0  0  0  0  0  0  0  0  0  0
   -3.1098    0.4061    0.4180 H   0  0  0  0  0  0  0  0  0  0  0  0
   -2.8711   -1.0416   -0.6365 H   0  0  0  0  0  0  0  0  0  0  0  0
   -1.1300    1.4553   -1.0263 H   0  0  0  0  0  0  0  0  0  0  0  0
   -0.8470   -0.2232   -1.5213 H   0  0  0  0  0  0  0  0  0  0  0  0
   -0.7362    0.8182    1.4202 H   0  0  0  0  0  0  0  0  0  0  0  0
   -0.1987   -1.5293    1.9749 H   0  0  0  0  0  0  0  0  0  0  0  0
   -1.5656   -1.8105    0.7307 H   0  0  0  0  0  0  0  0  0  0  0  0
    1.3689   -0.4418    1.4505 H   0  0  0  0  0  0  0  0  0  0  0  0
    1.2994    1.2542   -1.1738 H   0  0  0  0  0  0  0  0  0  0  0  0
    3.5961    1.7336   -0.3510 H   0  0  0  0  0  0  0  0  0  0  0  0
    3.4747    0.3956    0.9168 H   0  0  0  0  0  0  0  0  0  0  0  0
  1  2  1  0
  2  3  1  0
  3  4  1  0
  4  5  1  0
  5  6  1  0
  6  7  1  0
  7  8  1  0
  8  9  1  0
  6  3  1  0
  9  7  1  0
  1 10  1  0
  1 11  1  0
  1 12  1  0
  2 13  1  0
  2 14  1  0
  3 15  1  0
  4 16  1  0
  4 17  1  0
  6 18  1  0
  7 19  1  0
  8 20  1  0
  8 21  1  0
M  END
