
     RDKit          3D

 17 18  0  0  0  0  0  0  0  0999 V2000
   -2.4260    0.1685    0.1687 C   0  0  0  0  0  0  0  0  0  0  0  0
   -1.2377   -0.0932   -0.7058 C   0  0  0  0  0  0  0  0  0  0  0  0
    0.0680   -0.1122    0.0425 C   0  0  0  0  0  0  0  0  0  0  0  0
    0.2883   -1.0163    1.0553 O   0  0  0  0  0  0  0  0  0  0  0  0
    1.0432   -1.1809   -0.0854 C   0  0  0  0  0  0  0  0  0  0  0  0
    2.3536   -0.5480   -0.2408 C   0  0  0  0  0  0  0  0  0  0  0  0
    2.2673    0.7607   -0.1864 C   0  0  0  0  0  0  0  0  0  0  0  0
    0.8713    1.1358    0.0135 C   0  0  0  0  0  0  0  0  0  0  0  0
    0.3630    2.2813    0.1456 O   0  0  0  0  0  0  0  0  0  0  0  0
   -3.2770   -0.4392   -0.2532 H   0  0  0  0  0  0  0  0  0  0  0  0
   -2.7679    1.2285    0.0586 H   0  0  0  0  0  0  0  0  0  0  0  0
   -2.2833   -0.1244    1.2243 H   0  0  0  0  0  0  0  0  0  0  0  0
   -1.3086   -1.0657   -1.2594 H   0  0  0  0  0  0  0  0  0  0  0  0
   -1.1505    0.6993   -1.4933 H   0  0  0  0  0  0  0  0  0  0  0  0
    0.8391   -2.1102   -0.6782 H   0  0  0  0  0  0  0  0  0  0  0  0
    3.2952   -1.0736   -0.3845 H   0  0  0  0  0  0  0  0  0  0  0  0
    3.0618    1.4897   -0.2692 H   0  0  0  0  0  0  0  0  0  0  0  0
  1  2  1  0
  2  3  1  0
  3  4  1  0
  4  5  1  0
  5  6  1  0
  6  7  2  0
  7  8  1  0
  8  9  2  0
  5  3  1  0
  8  3  1  0
  1 10  1  0
  1 11  1  0
  1 12  1  0
  2 13  1  0
  2 14  1  0
  5 15  1  0
  6 16  1  0
  7 17  1  0
M  END
