
     RDKit          3D

 23 24  0  0  0  0  0  0  0  0999 V2000
    2.8830    0.9211   -0.7823 C   0  0  0  0  0  0  0  0  0  0  0  0
    2.2487   -0.3658   -0.3358 C   0  0  0  0  0  0  0  0  0  0  0  0
    1.0535   -0.1307    0.5728 C   0  0  0  0  0  0  0  0  0  0  0  0
   -0.0273    0.6753   -0.1170 C   0  0  0  0  0  0  0  0  0  0  0  0
   -0.9710   -0.4332    0.1151 C   0  0  0  0  0  0  0  0  0  0  0  0
    0.1060   -1.3116    0.6345 C   0  0  0  0  0  0  0  0  0  0  0  0
   -1.7934   -0.9519   -0.8400 O   0  0  0  0  0  0  0  0  0  0  0  0
   -2.2770   -0.4947    0.4940 C   0  0  0  0  0  0  0  0  0  0  0  0
   -3.3531    0.5352    0.2285 C   0  0  0  0  0  0  0  0  0  0  0  0
    2.2261    1.7983   -0.6564 H   0  0  0  0  0  0  0  0  0  0  0  0
    3.1737    0.8911   -1.8677 H   0  0  0  0  0  0  0  0  0  0  0  0
    3.8356    1.1252   -0.2294 H   0  0  0  0  0  0  0  0  0  0  0  0
    1.8744   -0.9154   -1.2308 H   0  0  0  0  0  0  0  0  0  0  0  0
    3.0199   -0.9820    0.1479 H   0  0  0  0  0  0  0  0  0  0  0  0
    1.3039    0.1882    1.6001 H   0  0  0  0  0  0  0  0  0  0  0  0
    0.2030    0.8942   -1.1865 H   0  0  0  0  0  0  0  0  0  0  0  0
   -0.1965    1.6225    0.4519 H   0  0  0  0  0  0  0  0  0  0  0  0
   -0.0296   -1.7475    1.6384 H   0  0  0  0  0  0  0  0  0  0  0  0
    0.4082   -2.0859   -0.1149 H   0  0  0  0  0  0  0  0  0  0  0  0
   -2.6844   -1.3577    1.0949 H   0  0  0  0  0  0  0  0  0  0  0  0
   -4.2036   -0.0312   -0.2525 H   0  0  0  0  0  0  0  0  0  0  0  0
   -3.7570    0.9749    1.1431 H   0  0  0  0  0  0  0  0  0  0  0  0
   -3.0430    1.2968   -0.5079 H   0  0  0  0  0  0  0  0  0  0  0  0
  1  2  1  0
  2  3  1  0
  3  4  1  0
  4  5  1  0
  5  6  1  0
  5  7  1  0
  7  8  1  0
  8  9  1  0
  6  3  1  0
  8  5  1  0
  1 10  1  0
  1 11  1  0
  1 12  1  0
  2 13  1  0
  2 14  1  0
  3 15  1  0
  4 16  1  0
  4 17  1  0
  6 18  1  0
  6 19  1  0
  8 20  1  0
  9 21  1  0
  9 22  1  0
  9 23  1  0
M  END
