
     RDKit          3D

 23 23  0  0  0  0  0  0  0  0999 V2000
    2.1073   -1.0868    0.3469 C   0  0  0  0  0  0  0  0  0  0  0  0
    1.7393    0.3047   -0.0743 C   0  0  0  0  0  0  0  0  0  0  0  0
    0.2409    0.5473   -0.0538 C   0  0  0  0  0  0  0  0  0  0  0  0
   -0.0060    1.9709   -0.4932 C   0  0  0  0  0  0  0  0  0  0  0  0
   -0.5209   -0.3941   -0.9182 C   0  0  0  0  0  0  0  0  0  0  0  0
   -1.7865   -0.6227   -0.1203 C   0  0  0  0  0  0  0  0  0  0  0  0
   -2.1311   -1.9469   -0.0069 O   0  0  0  0  0  0  0  0  0  0  0  0
   -1.5246    0.0462    1.2142 C   0  0  0  0  0  0  0  0  0  0  0  0
   -0.1640    0.3233    1.2630 O   0  0  0  0  0  0  0  0  0  0  0  0
    2.5535   -1.1078    1.3753 H   0  0  0  0  0  0  0  0  0  0  0  0
    2.8009   -1.5267   -0.3787 H   0  0  0  0  0  0  0  0  0  0  0  0
    1.1941   -1.7071    0.4098 H   0  0  0  0  0  0  0  0  0  0  0  0
    2.1659    1.0014    0.6784 H   0  0  0  0  0  0  0  0  0  0  0  0
    2.1875    0.5935   -1.0461 H   0  0  0  0  0  0  0  0  0  0  0  0
    0.8491    2.2976   -1.1192 H   0  0  0  0  0  0  0  0  0  0  0  0
   -0.9016    2.0114   -1.1539 H   0  0  0  0  0  0  0  0  0  0  0  0
   -0.1413    2.6549    0.3691 H   0  0  0  0  0  0  0  0  0  0  0  0
   -0.0020   -1.3121   -1.1949 H   0  0  0  0  0  0  0  0  0  0  0  0
   -0.8298    0.1472   -1.8537 H   0  0  0  0  0  0  0  0  0  0  0  0
   -2.6647   -0.0896   -0.5631 H   0  0  0  0  0  0  0  0  0  0  0  0
   -1.3576   -2.5314   -0.0466 H   0  0  0  0  0  0  0  0  0  0  0  0
   -1.7597   -0.6006    2.0687 H   0  0  0  0  0  0  0  0  0  0  0  0
   -2.0487    1.0275    1.2974 H   0  0  0  0  0  0  0  0  0  0  0  0
  1  2  1  0
  2  3  1  0
  3  4  1  0
  3  5  1  0
  5  6  1  0
  6  7  1  0
  6  8  1  0
  8  9  1  0
  9  3  1  0
  1 10  1  0
  1 11  1  0
  1 12  1  0
  2 13  1  0
  2 14  1  0
  4 15  1  0
  4 16  1  0
  4 17  1  0
  5 18  1  0
  5 19  1  0
  6 20  1  0
  7 21  1  0
  8 22  1  0
  8 23  1  0
M  END
