
     RDKit          3D

 20 20  0  0  0  0  0  0  0  0999 V2000
   -2.5166    0.6214    0.2376 C   0  0  0  0  0  0  0  0  0  0  0  0
   -1.3903   -0.2561    0.6515 C   0  0  0  0  0  0  0  0  0  0  0  0
   -0.3534   -0.4851   -0.3938 C   0  0  0  0  0  0  0  0  0  0  0  0
    0.7783   -1.3905    0.1261 C   0  0  0  0  0  0  0  0  0  0  0  0
    0.9697    0.0607   -0.3946 C   0  0  0  0  0  0  0  0  0  0  0  0
    1.5865    0.9361    0.6913 C   0  0  0  0  0  0  0  0  0  0  0  0
    1.8344   -0.0107   -1.6155 C   0  0  0  0  0  0  0  0  0  0  0  0
    1.4147    0.3892   -2.6976 O   0  0  0  0  0  0  0  0  0  0  0  0
   -2.4839    1.6465    0.6501 H   0  0  0  0  0  0  0  0  0  0  0  0
   -2.6413    0.7152   -0.8550 H   0  0  0  0  0  0  0  0  0  0  0  0
   -3.4897    0.1841    0.6135 H   0  0  0  0  0  0  0  0  0  0  0  0
   -1.7799   -1.2492    0.9518 H   0  0  0  0  0  0  0  0  0  0  0  0
   -0.9308    0.1616    1.5913 H   0  0  0  0  0  0  0  0  0  0  0  0
   -0.7551   -0.7859   -1.3826 H   0  0  0  0  0  0  0  0  0  0  0  0
    1.0554   -2.2422   -0.4901 H   0  0  0  0  0  0  0  0  0  0  0  0
    0.8568   -1.5734    1.1972 H   0  0  0  0  0  0  0  0  0  0  0  0
    1.6886    1.9540    0.1469 H   0  0  0  0  0  0  0  0  0  0  0  0
    2.5183    0.5756    1.0529 H   0  0  0  0  0  0  0  0  0  0  0  0
    0.8411    1.1653    1.4858 H   0  0  0  0  0  0  0  0  0  0  0  0
    2.7970   -0.4166   -1.5668 H   0  0  0  0  0  0  0  0  0  0  0  0
  1  2  1  0
  2  3  1  0
  3  4  1  0
  4  5  1  0
  5  6  1  0
  5  7  1  0
  7  8  2  0
  5  3  1  0
  1  9  1  0
  1 10  1  0
  1 11  1  0
  2 12  1  0
  2 13  1  0
  3 14  1  0
  4 15  1  0
  4 16  1  0
  6 17  1  0
  6 18  1  0
  6 19  1  0
  7 20  1  0
M  END
