
     RDKit          3D

 18 19  0  0  0  0  0  0  0  0999 V2000
    2.4210   -0.4724   -0.6236 C   0  0  0  0  0  0  0  0  0  0  0  0
    1.4811    0.7135   -0.4788 C   0  0  0  0  0  0  0  0  0  0  0  0
    0.1384    0.2149   -0.0919 C   0  0  0  0  0  0  0  0  0  0  0  0
   -0.3085   -1.0252    0.1250 C   0  0  0  0  0  0  0  0  0  0  0  0
   -1.7475   -0.7314    0.4754 C   0  0  0  0  0  0  0  0  0  0  0  0
   -2.1892    0.2629   -0.5527 C   0  0  0  0  0  0  0  0  0  0  0  0
   -1.0965    1.0172    0.1603 C   0  0  0  0  0  0  0  0  0  0  0  0
   -1.5628    0.3773    1.3345 O   0  0  0  0  0  0  0  0  0  0  0  0
    2.2869   -1.1790    0.2308 H   0  0  0  0  0  0  0  0  0  0  0  0
    2.1576   -1.0273   -1.5365 H   0  0  0  0  0  0  0  0  0  0  0  0
    3.4641   -0.0829   -0.6614 H   0  0  0  0  0  0  0  0  0  0  0  0
    1.8975    1.3701    0.3337 H   0  0  0  0  0  0  0  0  0  0  0  0
    1.4906    1.2843   -1.4140 H   0  0  0  0  0  0  0  0  0  0  0  0
    0.1964   -1.9804    0.0713 H   0  0  0  0  0  0  0  0  0  0  0  0
   -2.3664   -1.5215    0.7901 H   0  0  0  0  0  0  0  0  0  0  0  0
   -3.1796    0.6932   -0.2837 H   0  0  0  0  0  0  0  0  0  0  0  0
   -2.0230    0.0190   -1.6002 H   0  0  0  0  0  0  0  0  0  0  0  0
   -1.0599    2.0676    0.1375 H   0  0  0  0  0  0  0  0  0  0  0  0
  1  2  1  0
  2  3  1  0
  3  4  2  0
  4  5  1  0
  5  6  1  0
  6  7  1  0
  7  8  1  0
  7  3  1  0
  8  5  1  0
  1  9  1  0
  1 10  1  0
  1 11  1  0
  2 12  1  0
  2 13  1  0
  4 14  1  0
  5 15  1  0
  6 16  1  0
  6 17  1  0
  7 18  1  0
M  END
