
     RDKit          3D

 20 20  0  0  0  0  0  0  0  0999 V2000
    2.1077    0.4185    1.1848 C   0  0  0  0  0  0  0  0  0  0  0  0
    1.5630    0.0012   -0.1511 C   0  0  0  0  0  0  0  0  0  0  0  0
    0.1468   -0.4982   -0.0748 C   0  0  0  0  0  0  0  0  0  0  0  0
   -0.0621   -1.6084    0.7413 O   0  0  0  0  0  0  0  0  0  0  0  0
   -0.6308   -0.5506   -1.3967 C   0  0  0  0  0  0  0  0  0  0  0  0
   -0.9995    0.4072   -0.3175 C   0  0  0  0  0  0  0  0  0  0  0  0
   -2.2268    0.1771    0.5336 C   0  0  0  0  0  0  0  0  0  0  0  0
   -0.7777    1.7463   -0.6241 O   0  0  0  0  0  0  0  0  0  0  0  0
    2.8988    1.1981    1.0115 H   0  0  0  0  0  0  0  0  0  0  0  0
    1.3416    0.8562    1.8552 H   0  0  0  0  0  0  0  0  0  0  0  0
    2.6399   -0.4132    1.7061 H   0  0  0  0  0  0  0  0  0  0  0  0
    1.5941    0.8284   -0.9008 H   0  0  0  0  0  0  0  0  0  0  0  0
    2.2301   -0.7918   -0.5689 H   0  0  0  0  0  0  0  0  0  0  0  0
    0.0573   -2.4063    0.1385 H   0  0  0  0  0  0  0  0  0  0  0  0
   -1.2921   -1.4178   -1.5689 H   0  0  0  0  0  0  0  0  0  0  0  0
   -0.0962   -0.1610   -2.2950 H   0  0  0  0  0  0  0  0  0  0  0  0
   -2.6776    1.1185    0.8983 H   0  0  0  0  0  0  0  0  0  0  0  0
   -2.9598   -0.4307   -0.0181 H   0  0  0  0  0  0  0  0  0  0  0  0
   -1.9392   -0.3961    1.4513 H   0  0  0  0  0  0  0  0  0  0  0  0
   -0.9173    1.9228   -1.6047 H   0  0  0  0  0  0  0  0  0  0  0  0
  1  2  1  0
  2  3  1  0
  3  4  1  0
  3  5  1  0
  5  6  1  0
  6  7  1  0
  6  8  1  0
  6  3  1  0
  1  9  1  0
  1 10  1  0
  1 11  1  0
  2 12  1  0
  2 13  1  0
  4 14  1  0
  5 15  1  0
  5 16  1  0
  7 17  1  0
  7 18  1  0
  7 19  1  0
  8 20  1  0
M  END
