
     RDKit          3D

 21 22  0  0  0  0  0  0  0  0999 V2000
    2.2049   -0.3215   -0.1104 C   0  0  0  0  0  0  0  0  0  0  0  0
    1.0299    0.1120    0.7207 C   0  0  0  0  0  0  0  0  0  0  0  0
   -0.0105    0.7065   -0.2580 C   0  0  0  0  0  0  0  0  0  0  0  0
   -0.3901   -0.3473   -1.2231 C   0  0  0  0  0  0  0  0  0  0  0  0
   -1.0452   -1.3488   -0.2461 C   0  0  0  0  0  0  0  0  0  0  0  0
   -1.3884   -0.4859    0.9576 C   0  0  0  0  0  0  0  0  0  0  0  0
   -1.5305   -0.8862    2.0934 O   0  0  0  0  0  0  0  0  0  0  0  0
   -1.4761    0.8321    0.3412 C   0  0  0  0  0  0  0  0  0  0  0  0
   -0.5916    1.9055    0.1627 C   0  0  0  0  0  0  0  0  0  0  0  0
    2.4702    0.3608   -0.9150 H   0  0  0  0  0  0  0  0  0  0  0  0
    2.0403   -1.3772   -0.4516 H   0  0  0  0  0  0  0  0  0  0  0  0
    3.0870   -0.3931    0.5863 H   0  0  0  0  0  0  0  0  0  0  0  0
    1.3802    0.8655    1.4345 H   0  0  0  0  0  0  0  0  0  0  0  0
    0.6269   -0.8007    1.2078 H   0  0  0  0  0  0  0  0  0  0  0  0
    0.4597   -0.8749   -1.6803 H   0  0  0  0  0  0  0  0  0  0  0  0
   -1.1312   -0.0419   -1.9907 H   0  0  0  0  0  0  0  0  0  0  0  0
   -2.0206   -1.6483   -0.6735 H   0  0  0  0  0  0  0  0  0  0  0  0
   -0.3801   -2.1622    0.0117 H   0  0  0  0  0  0  0  0  0  0  0  0
   -2.3162    0.7769   -0.4240 H   0  0  0  0  0  0  0  0  0  0  0  0
   -0.2014    2.4365    1.0737 H   0  0  0  0  0  0  0  0  0  0  0  0
   -0.8172    2.6921   -0.6169 H   0  0  0  0  0  0  0  0  0  0  0  0
  1  2  1  0
  2  3  1  0
  3  4  1  0
  4  5  1  0
  5  6  1  0
  6  7  2  0
  6  8  1  0
  8  9  1  0
  8  3  1  0
  9  3  1  0
  1 10  1  0
  1 11  1  0
  1 12  1  0
  2 13  1  0
  2 14  1  0
  4 15  1  0
  4 16  1  0
  5 17  1  0
  5 18  1  0
  8 19  1  0
  9 20  1  0
  9 21  1  0
M  END
