
     RDKit          3D

 20 21  0  0  0  0  0  0  0  0999 V2000
   -2.0989   -0.9262   -0.0015 C   0  0  0  0  0  0  0  0  0  0  0  0
   -1.3725    0.3679   -0.0389 C   0  0  0  0  0  0  0  0  0  0  0  0
    0.0975    0.3079    0.0025 C   0  0  0  0  0  0  0  0  0  0  0  0
    0.7079    1.6937   -0.0419 C   0  0  0  0  0  0  0  0  0  0  0  0
    0.8179   -0.6471   -0.8645 C   0  0  0  0  0  0  0  0  0  0  0  0
    1.9985   -0.5192    0.0567 C   0  0  0  0  0  0  0  0  0  0  0  0
    0.7637   -0.6686    0.8933 C   0  0  0  0  0  0  0  0  0  0  0  0
    0.4019   -1.6621   -0.0132 O   0  0  0  0  0  0  0  0  0  0  0  0
   -3.1873   -0.7034   -0.1673 H   0  0  0  0  0  0  0  0  0  0  0  0
   -1.8141   -1.6555   -0.7562 H   0  0  0  0  0  0  0  0  0  0  0  0
   -2.0693   -1.3537    1.0439 H   0  0  0  0  0  0  0  0  0  0  0  0
   -1.6783    0.9620   -0.9422 H   0  0  0  0  0  0  0  0  0  0  0  0
   -1.7292    0.9802    0.8288 H   0  0  0  0  0  0  0  0  0  0  0  0
    1.1876    1.8696    0.9217 H   0  0  0  0  0  0  0  0  0  0  0  0
    1.3761    1.8278   -0.9120 H   0  0  0  0  0  0  0  0  0  0  0  0
   -0.0894    2.4845   -0.1457 H   0  0  0  0  0  0  0  0  0  0  0  0
    0.8524   -0.6896   -1.8725 H   0  0  0  0  0  0  0  0  0  0  0  0
    2.6528   -1.3868   -0.0316 H   0  0  0  0  0  0  0  0  0  0  0  0
    2.4606    0.4587    0.1423 H   0  0  0  0  0  0  0  0  0  0  0  0
    0.7220   -0.7401    1.8983 H   0  0  0  0  0  0  0  0  0  0  0  0
  1  2  1  0
  2  3  1  0
  3  4  1  0
  3  5  1  0
  5  6  1  0
  6  7  1  0
  7  8  1  0
  7  3  1  0
  8  5  1  0
  1  9  1  0
  1 10  1  0
  1 11  1  0
  2 12  1  0
  2 13  1  0
  4 14  1  0
  4 15  1  0
  4 16  1  0
  5 17  1  0
  6 18  1  0
  6 19  1  0
  7 20  1  0
M  END
