
     RDKit          3D

 19 20  0  0  0  0  0  0  0  0999 V2000
    2.2535   -0.3675    0.2373 C   0  0  0  0  0  0  0  0  0  0  0  0
    1.3989    0.8331   -0.0968 C   0  0  0  0  0  0  0  0  0  0  0  0
    0.1558    0.4302   -0.8777 C   0  0  0  0  0  0  0  0  0  0  0  0
   -0.5813    1.6376   -1.1421 O   0  0  0  0  0  0  0  0  0  0  0  0
   -1.1574    1.4479    0.1296 C   0  0  0  0  0  0  0  0  0  0  0  0
   -1.5765    2.2523    0.9708 O   0  0  0  0  0  0  0  0  0  0  0  0
   -1.0034    0.0342   -0.0802 C   0  0  0  0  0  0  0  0  0  0  0  0
   -1.1683   -1.0376    0.8416 C   0  0  0  0  0  0  0  0  0  0  0  0
   -2.0396   -0.9148   -0.4481 C   0  0  0  0  0  0  0  0  0  0  0  0
    2.6345   -0.8109   -0.6937 H   0  0  0  0  0  0  0  0  0  0  0  0
    3.1176    0.0067    0.8180 H   0  0  0  0  0  0  0  0  0  0  0  0
    1.7370   -1.1198    0.8400 H   0  0  0  0  0  0  0  0  0  0  0  0
    1.0805    1.3620    0.8203 H   0  0  0  0  0  0  0  0  0  0  0  0
    2.0184    1.5209   -0.7003 H   0  0  0  0  0  0  0  0  0  0  0  0
    0.3838   -0.1285   -1.8020 H   0  0  0  0  0  0  0  0  0  0  0  0
   -0.5316   -1.9462    0.8632 H   0  0  0  0  0  0  0  0  0  0  0  0
   -1.7054   -0.8711    1.7965 H   0  0  0  0  0  0  0  0  0  0  0  0
   -3.0959   -0.6089   -0.2883 H   0  0  0  0  0  0  0  0  0  0  0  0
   -1.9207   -1.7197   -1.1882 H   0  0  0  0  0  0  0  0  0  0  0  0
  1  2  1  0
  2  3  1  0
  3  4  1  0
  4  5  1  0
  5  6  2  0
  5  7  1  0
  7  8  1  0
  8  9  1  0
  7  3  1  0
  9  7  1  0
  1 10  1  0
  1 11  1  0
  1 12  1  0
  2 13  1  0
  2 14  1  0
  3 15  1  0
  8 16  1  0
  8 17  1  0
  9 18  1  0
  9 19  1  0
M  END
