
     RDKit          3D

 23 23  0  0  0  0  0  0  0  0999 V2000
   -2.1852   -0.8272    0.2737 C   0  0  0  0  0  0  0  0  0  0  0  0
   -1.2356    0.1941    0.7879 C   0  0  0  0  0  0  0  0  0  0  0  0
    0.0394    0.3036   -0.0015 C   0  0  0  0  0  0  0  0  0  0  0  0
    0.8842   -0.9143   -0.0884 C   0  0  0  0  0  0  0  0  0  0  0  0
    1.5749   -1.1643    1.2544 C   0  0  0  0  0  0  0  0  0  0  0  0
    1.9103   -0.6493   -1.0219 O   0  0  0  0  0  0  0  0  0  0  0  0
   -0.1774    1.0182   -1.3217 C   0  0  0  0  0  0  0  0  0  0  0  0
    0.5528    2.1773   -0.7145 C   0  0  0  0  0  0  0  0  0  0  0  0
    0.7713    1.4135    0.4178 O   0  0  0  0  0  0  0  0  0  0  0  0
   -2.0239   -1.8523    0.6884 H   0  0  0  0  0  0  0  0  0  0  0  0
   -2.2684   -0.8260   -0.8312 H   0  0  0  0  0  0  0  0  0  0  0  0
   -3.2110   -0.5358    0.6410 H   0  0  0  0  0  0  0  0  0  0  0  0
   -1.7376    1.1819    0.8048 H   0  0  0  0  0  0  0  0  0  0  0  0
   -1.0181   -0.0509    1.8586 H   0  0  0  0  0  0  0  0  0  0  0  0
    0.3515   -1.8013   -0.4457 H   0  0  0  0  0  0  0  0  0  0  0  0
    1.1654   -2.0278    1.7788 H   0  0  0  0  0  0  0  0  0  0  0  0
    2.6711   -1.3033    1.1210 H   0  0  0  0  0  0  0  0  0  0  0  0
    1.4687   -0.2657    1.9224 H   0  0  0  0  0  0  0  0  0  0  0  0
    1.9974   -1.3535   -1.6916 H   0  0  0  0  0  0  0  0  0  0  0  0
   -1.2483    1.2531   -1.5390 H   0  0  0  0  0  0  0  0  0  0  0  0
    0.3452    0.5281   -2.1862 H   0  0  0  0  0  0  0  0  0  0  0  0
    1.4940    2.4628   -1.2159 H   0  0  0  0  0  0  0  0  0  0  0  0
   -0.1207    3.0391   -0.4910 H   0  0  0  0  0  0  0  0  0  0  0  0
  1  2  1  0
  2  3  1  0
  3  4  1  0
  4  5  1  0
  4  6  1  0
  3  7  1  0
  7  8  1  0
  8  9  1  0
  9  3  1  0
  1 10  1  0
  1 11  1  0
  1 12  1  0
  2 13  1  0
  2 14  1  0
  4 15  1  0
  5 16  1  0
  5 17  1  0
  5 18  1  0
  6 19  1  0
  7 20  1  0
  7 21  1  0
  8 22  1  0
  8 23  1  0
M  END
