
     RDKit          3D

 25 25  0  0  0  0  0  0  0  0999 V2000
    2.5404   -0.7807   -0.1053 C   0  0  0  0  0  0  0  0  0  0  0  0
    2.0955    0.5645    0.3530 C   0  0  0  0  0  0  0  0  0  0  0  0
    0.6327    0.8025    0.2887 C   0  0  0  0  0  0  0  0  0  0  0  0
    0.2863    2.0752    0.7303 O   0  0  0  0  0  0  0  0  0  0  0  0
   -0.0790    0.4774   -0.9812 C   0  0  0  0  0  0  0  0  0  0  0  0
   -1.1780   -0.1632   -0.1584 C   0  0  0  0  0  0  0  0  0  0  0  0
   -2.3342    0.7163    0.1782 C   0  0  0  0  0  0  0  0  0  0  0  0
   -1.6262   -1.4517   -0.7787 C   0  0  0  0  0  0  0  0  0  0  0  0
   -0.1794   -0.2964    0.9692 C   0  0  0  0  0  0  0  0  0  0  0  0
    2.2808   -1.6046    0.5864 H   0  0  0  0  0  0  0  0  0  0  0  0
    3.6706   -0.7623   -0.1166 H   0  0  0  0  0  0  0  0  0  0  0  0
    2.2611   -1.0042   -1.1609 H   0  0  0  0  0  0  0  0  0  0  0  0
    2.4461    0.7255    1.3759 H   0  0  0  0  0  0  0  0  0  0  0  0
    2.6008    1.3244   -0.2960 H   0  0  0  0  0  0  0  0  0  0  0  0
    0.0900    1.9719    1.7163 H   0  0  0  0  0  0  0  0  0  0  0  0
   -0.4120    1.3409   -1.5980 H   0  0  0  0  0  0  0  0  0  0  0  0
    0.4252   -0.2549   -1.6348 H   0  0  0  0  0  0  0  0  0  0  0  0
   -3.2791    0.3764   -0.3093 H   0  0  0  0  0  0  0  0  0  0  0  0
   -2.1958    1.7694   -0.1116 H   0  0  0  0  0  0  0  0  0  0  0  0
   -2.5207    0.6592    1.2737 H   0  0  0  0  0  0  0  0  0  0  0  0
   -2.1602   -1.1812   -1.7311 H   0  0  0  0  0  0  0  0  0  0  0  0
   -2.3601   -1.9984   -0.1569 H   0  0  0  0  0  0  0  0  0  0  0  0
   -0.7793   -2.1014   -1.0760 H   0  0  0  0  0  0  0  0  0  0  0  0
   -0.5343    0.0803    1.9592 H   0  0  0  0  0  0  0  0  0  0  0  0
    0.3090   -1.2850    0.9963 H   0  0  0  0  0  0  0  0  0  0  0  0
  1  2  1  0
  2  3  1  0
  3  4  1  0
  3  5  1  0
  5  6  1  0
  6  7  1  0
  6  8  1  0
  6  9  1  0
  9  3  1  0
  1 10  1  0
  1 11  1  0
  1 12  1  0
  2 13  1  0
  2 14  1  0
  4 15  1  0
  5 16  1  0
  5 17  1  0
  7 18  1  0
  7 19  1  0
  7 20  1  0
  8 21  1  0
  8 22  1  0
  8 23  1  0
  9 24  1  0
  9 25  1  0
M  END
