
     RDKit          3D

 19 19  0  0  0  0  0  0  0  0999 V2000
    1.8763    0.8092   -0.8444 C   0  0  0  0  0  0  0  0  0  0  0  0
    1.5689   -0.2876    0.1189 C   0  0  0  0  0  0  0  0  0  0  0  0
    0.1111   -0.5147    0.2065 C   0  0  0  0  0  0  0  0  0  0  0  0
   -0.5039   -1.6509   -0.0826 C   0  0  0  0  0  0  0  0  0  0  0  0
   -1.9797   -1.4137    0.1524 C   0  0  0  0  0  0  0  0  0  0  0  0
   -2.0599   -0.0390   -0.1331 O   0  0  0  0  0  0  0  0  0  0  0  0
   -0.9548    0.4253    0.6187 C   0  0  0  0  0  0  0  0  0  0  0  0
   -0.6684    1.8258    0.2557 C   0  0  0  0  0  0  0  0  0  0  0  0
   -1.3566    2.3631   -0.5783 O   0  0  0  0  0  0  0  0  0  0  0  0
    2.6996    0.4919   -1.5165 H   0  0  0  0  0  0  0  0  0  0  0  0
    0.9971    1.0153   -1.4942 H   0  0  0  0  0  0  0  0  0  0  0  0
    2.2017    1.6921   -0.2760 H   0  0  0  0  0  0  0  0  0  0  0  0
    2.0791   -1.2212   -0.2331 H   0  0  0  0  0  0  0  0  0  0  0  0
    2.0168   -0.0442    1.1172 H   0  0  0  0  0  0  0  0  0  0  0  0
   -0.1229   -2.6056   -0.4232 H   0  0  0  0  0  0  0  0  0  0  0  0
   -2.5956   -2.0230   -0.5195 H   0  0  0  0  0  0  0  0  0  0  0  0
   -2.2359   -1.5278    1.2247 H   0  0  0  0  0  0  0  0  0  0  0  0
   -1.2043    0.3237    1.6978 H   0  0  0  0  0  0  0  0  0  0  0  0
    0.1313    2.3813    0.7093 H   0  0  0  0  0  0  0  0  0  0  0  0
  1  2  1  0
  2  3  1  0
  3  4  2  0
  4  5  1  0
  5  6  1  0
  6  7  1  0
  7  8  1  0
  8  9  2  0
  7  3  1  0
  1 10  1  0
  1 11  1  0
  1 12  1  0
  2 13  1  0
  2 14  1  0
  4 15  1  0
  5 16  1  0
  5 17  1  0
  7 18  1  0
  8 19  1  0
M  END
