
     RDKit          3D

 15 15  0  0  0  0  0  0  0  0999 V2000
    1.9765   -0.5692   -0.4118 C   0  0  0  0  0  0  0  0  0  0  0  0
    0.9598    0.5534   -0.3282 C   0  0  0  0  0  0  0  0  0  0  0  0
   -0.2369    0.1016    0.4748 C   0  0  0  0  0  0  0  0  0  0  0  0
   -0.9045   -0.9997   -0.0457 O   0  0  0  0  0  0  0  0  0  0  0  0
   -2.0938   -0.4239    0.4466 C   0  0  0  0  0  0  0  0  0  0  0  0
   -1.4387    0.9104    0.2135 C   0  0  0  0  0  0  0  0  0  0  0  0
   -1.8140    2.0239   -0.0502 O   0  0  0  0  0  0  0  0  0  0  0  0
    1.4263   -1.4888   -0.7269 H   0  0  0  0  0  0  0  0  0  0  0  0
    2.4306   -0.7138    0.5875 H   0  0  0  0  0  0  0  0  0  0  0  0
    2.7804   -0.3034   -1.1231 H   0  0  0  0  0  0  0  0  0  0  0  0
    1.4555    1.4087    0.1710 H   0  0  0  0  0  0  0  0  0  0  0  0
    0.6172    0.7882   -1.3562 H   0  0  0  0  0  0  0  0  0  0  0  0
    0.0241   -0.0855    1.5281 H   0  0  0  0  0  0  0  0  0  0  0  0
   -2.2462   -0.5501    1.5351 H   0  0  0  0  0  0  0  0  0  0  0  0
   -2.9362   -0.6517   -0.2072 H   0  0  0  0  0  0  0  0  0  0  0  0
  1  2  1  0
  2  3  1  0
  3  4  1  0
  4  5  1  0
  5  6  1  0
  6  7  2  0
  6  3  1  0
  1  8  1  0
  1  9  1  0
  1 10  1  0
  2 11  1  0
  2 12  1  0
  3 13  1  0
  5 14  1  0
  5 15  1  0
M  END
