
     RDKit          3D

 23 24  0  0  0  0  0  0  0  0999 V2000
   -2.1707    1.3607   -0.0140 C   0  0  0  0  0  0  0  0  0  0  0  0
   -1.8640   -0.0938    0.1298 C   0  0  0  0  0  0  0  0  0  0  0  0
   -0.4029   -0.3976    0.2989 C   0  0  0  0  0  0  0  0  0  0  0  0
    0.2628    0.2119    1.4855 C   0  0  0  0  0  0  0  0  0  0  0  0
    1.6270    0.0969    1.5112 O   0  0  0  0  0  0  0  0  0  0  0  0
    2.2473    0.5410    0.3588 C   0  0  0  0  0  0  0  0  0  0  0  0
    1.8225   -0.2220   -0.8605 C   0  0  0  0  0  0  0  0  0  0  0  0
    0.3952   -0.6126   -0.8844 C   0  0  0  0  0  0  0  0  0  0  0  0
   -0.0150   -1.8019   -0.1019 C   0  0  0  0  0  0  0  0  0  0  0  0
   -3.2204    1.4333   -0.4204 H   0  0  0  0  0  0  0  0  0  0  0  0
   -1.5139    1.8203   -0.7695 H   0  0  0  0  0  0  0  0  0  0  0  0
   -2.1941    1.9012    0.9477 H   0  0  0  0  0  0  0  0  0  0  0  0
   -2.2714   -0.6157   -0.7759 H   0  0  0  0  0  0  0  0  0  0  0  0
   -2.4193   -0.5279    0.9970 H   0  0  0  0  0  0  0  0  0  0  0  0
   -0.1320   -0.2852    2.4070 H   0  0  0  0  0  0  0  0  0  0  0  0
   -0.0398    1.2762    1.5741 H   0  0  0  0  0  0  0  0  0  0  0  0
    3.3484    0.3506    0.4977 H   0  0  0  0  0  0  0  0  0  0  0  0
    2.1422    1.6206    0.1799 H   0  0  0  0  0  0  0  0  0  0  0  0
    2.0749    0.4039   -1.7529 H   0  0  0  0  0  0  0  0  0  0  0  0
    2.4459   -1.1514   -0.9832 H   0  0  0  0  0  0  0  0  0  0  0  0
   -0.1068   -0.5185   -1.8842 H   0  0  0  0  0  0  0  0  0  0  0  0
    0.7709   -2.3069    0.4722 H   0  0  0  0  0  0  0  0  0  0  0  0
   -0.7867   -2.4833   -0.5163 H   0  0  0  0  0  0  0  0  0  0  0  0
  1  2  1  0
  2  3  1  0
  3  4  1  0
  4  5  1  0
  5  6  1  0
  6  7  1  0
  7  8  1  0
  8  9  1  0
  8  3  1  0
  9  3  1  0
  1 10  1  0
  1 11  1  0
  1 12  1  0
  2 13  1  0
  2 14  1  0
  4 15  1  0
  4 16  1  0
  6 17  1  0
  6 18  1  0
  7 19  1  0
  7 20  1  0
  8 21  1  0
  9 22  1  0
  9 23  1  0
M  END
