
     RDKit          3D

 19 19  0  0  0  0  0  0  0  0999 V2000
   -2.3244    0.5883   -0.3483 C   0  0  0  0  0  0  0  0  0  0  0  0
   -0.9531    1.2009   -0.1531 C   0  0  0  0  0  0  0  0  0  0  0  0
   -0.1473    0.1637    0.6064 C   0  0  0  0  0  0  0  0  0  0  0  0
   -0.0188   -1.1035   -0.2587 C   0  0  0  0  0  0  0  0  0  0  0  0
    1.1695   -0.3352    0.2817 C   0  0  0  0  0  0  0  0  0  0  0  0
    1.9622   -1.1886    1.2453 C   0  0  0  0  0  0  0  0  0  0  0  0
    1.4217   -1.8471    2.0656 O   0  0  0  0  0  0  0  0  0  0  0  0
    1.9657    0.4068   -0.7475 C   0  0  0  0  0  0  0  0  0  0  0  0
    1.6807    1.6690   -0.7924 O   0  0  0  0  0  0  0  0  0  0  0  0
   -2.4048   -0.4804    0.0025 H   0  0  0  0  0  0  0  0  0  0  0  0
   -3.0450    1.1393    0.2735 H   0  0  0  0  0  0  0  0  0  0  0  0
   -2.6446    0.5837   -1.4249 H   0  0  0  0  0  0  0  0  0  0  0  0
   -0.5267    1.2800   -1.2061 H   0  0  0  0  0  0  0  0  0  0  0  0
   -0.9409    2.1480    0.3876 H   0  0  0  0  0  0  0  0  0  0  0  0
   -0.5628    0.0064    1.6288 H   0  0  0  0  0  0  0  0  0  0  0  0
   -0.2449   -2.0464    0.2745 H   0  0  0  0  0  0  0  0  0  0  0  0
   -0.1345   -1.0593   -1.3468 H   0  0  0  0  0  0  0  0  0  0  0  0
    3.0475   -1.1676    1.1591 H   0  0  0  0  0  0  0  0  0  0  0  0
    2.7006    0.0419   -1.4432 H   0  0  0  0  0  0  0  0  0  0  0  0
  1  2  1  0
  2  3  1  0
  3  4  1  0
  4  5  1  0
  5  6  1  0
  6  7  2  0
  5  8  1  0
  8  9  2  0
  5  3  1  0
  1 10  1  0
  1 11  1  0
  1 12  1  0
  2 13  1  0
  2 14  1  0
  3 15  1  0
  4 16  1  0
  4 17  1  0
  6 18  1  0
  8 19  1  0
M  END
