
     RDKit          3D

 16 16  0  0  0  0  0  0  0  0999 V2000
    2.0187    0.5212   -0.2735 C   0  0  0  0  0  0  0  0  0  0  0  0
    0.8810   -0.3159    0.2406 C   0  0  0  0  0  0  0  0  0  0  0  0
   -0.3680   -0.1660   -0.5724 C   0  0  0  0  0  0  0  0  0  0  0  0
   -1.4704   -1.0432    0.0111 C   0  0  0  0  0  0  0  0  0  0  0  0
   -2.3586   -0.0385   -0.4377 O   0  0  0  0  0  0  0  0  0  0  0  0
   -1.3528    0.8752   -0.0364 C   0  0  0  0  0  0  0  0  0  0  0  0
    2.8812    0.3574    0.3942 H   0  0  0  0  0  0  0  0  0  0  0  0
    2.2503    0.1660   -1.2982 H   0  0  0  0  0  0  0  0  0  0  0  0
    1.6976    1.5797   -0.2453 H   0  0  0  0  0  0  0  0  0  0  0  0
    0.6602   -0.0502    1.2930 H   0  0  0  0  0  0  0  0  0  0  0  0
    1.1441   -1.3956    0.2490 H   0  0  0  0  0  0  0  0  0  0  0  0
   -0.2738   -0.1941   -1.6555 H   0  0  0  0  0  0  0  0  0  0  0  0
   -1.5968   -2.0183   -0.4525 H   0  0  0  0  0  0  0  0  0  0  0  0
   -1.4225   -0.9954    1.1070 H   0  0  0  0  0  0  0  0  0  0  0  0
   -1.3583    1.8274   -0.5637 H   0  0  0  0  0  0  0  0  0  0  0  0
   -1.3320    0.8906    1.0622 H   0  0  0  0  0  0  0  0  0  0  0  0
  1  2  1  0
  2  3  1  0
  3  4  1  0
  4  5  1  0
  5  6  1  0
  6  3  1  0
  1  7  1  0
  1  8  1  0
  1  9  1  0
  2 10  1  0
  2 11  1  0
  3 12  1  0
  4 13  1  0
  4 14  1  0
  6 15  1  0
  6 16  1  0
M  END
