
     RDKit          3D

 21 22  0  0  0  0  0  0  0  0999 V2000
    2.6709    0.2669    0.7401 C   0  0  0  0  0  0  0  0  0  0  0  0
    1.8653   -0.0924   -0.4826 C   0  0  0  0  0  0  0  0  0  0  0  0
    0.3961    0.0513   -0.2263 C   0  0  0  0  0  0  0  0  0  0  0  0
   -0.0957    0.4438    0.9309 C   0  0  0  0  0  0  0  0  0  0  0  0
   -1.5389    0.5791    1.1639 C   0  0  0  0  0  0  0  0  0  0  0  0
   -2.2197    1.4057    0.1104 O   0  0  0  0  0  0  0  0  0  0  0  0
   -2.4070   -0.0494    0.2820 C   0  0  0  0  0  0  0  0  0  0  0  0
   -1.7952   -0.8986   -0.7736 C   0  0  0  0  0  0  0  0  0  0  0  0
   -0.5285   -0.2650   -1.3313 C   0  0  0  0  0  0  0  0  0  0  0  0
    2.6267   -0.4950    1.5347 H   0  0  0  0  0  0  0  0  0  0  0  0
    2.4516    1.2970    1.1064 H   0  0  0  0  0  0  0  0  0  0  0  0
    3.7426    0.3017    0.4120 H   0  0  0  0  0  0  0  0  0  0  0  0
    2.1880    0.5839   -1.3028 H   0  0  0  0  0  0  0  0  0  0  0  0
    2.1269   -1.1127   -0.7693 H   0  0  0  0  0  0  0  0  0  0  0  0
    0.6117    0.6694    1.7248 H   0  0  0  0  0  0  0  0  0  0  0  0
   -1.8516    0.9344    2.1756 H   0  0  0  0  0  0  0  0  0  0  0  0
   -3.4794   -0.2144    0.5298 H   0  0  0  0  0  0  0  0  0  0  0  0
   -1.4627   -1.8647   -0.2929 H   0  0  0  0  0  0  0  0  0  0  0  0
   -2.4647   -1.1805   -1.5859 H   0  0  0  0  0  0  0  0  0  0  0  0
   -0.0449   -0.9883   -2.0006 H   0  0  0  0  0  0  0  0  0  0  0  0
   -0.7915    0.6278   -1.9450 H   0  0  0  0  0  0  0  0  0  0  0  0
  1  2  1  0
  2  3  1  0
  3  4  2  0
  4  5  1  0
  5  6  1  0
  6  7  1  0
  7  8  1  0
  8  9  1  0
  9  3  1  0
  7  5  1  0
  1 10  1  0
  1 11  1  0
  1 12  1  0
  2 13  1  0
  2 14  1  0
  4 15  1  0
  5 16  1  0
  7 17  1  0
  8 18  1  0
  8 19  1  0
  9 20  1  0
  9 21  1  0
M  END
