
     RDKit          3D

 18 18  0  0  0  0  0  0  0  0999 V2000
   -2.2548    0.2718    0.0311 C   0  0  0  0  0  0  0  0  0  0  0  0
   -0.9112    0.6715   -0.5428 C   0  0  0  0  0  0  0  0  0  0  0  0
    0.1591   -0.3430   -0.2200 C   0  0  0  0  0  0  0  0  0  0  0  0
   -0.0835   -1.6257   -0.7059 O   0  0  0  0  0  0  0  0  0  0  0  0
    1.0006   -0.2262    0.9840 C   0  0  0  0  0  0  0  0  0  0  0  0
    1.4728   -1.4197    1.5553 O   0  0  0  0  0  0  0  0  0  0  0  0
    1.5957    0.1103   -0.3590 C   0  0  0  0  0  0  0  0  0  0  0  0
    1.8225    1.4514   -0.6586 O   0  0  0  0  0  0  0  0  0  0  0  0
   -2.3084    0.5753    1.0942 H   0  0  0  0  0  0  0  0  0  0  0  0
   -2.2982   -0.8390   -0.0233 H   0  0  0  0  0  0  0  0  0  0  0  0
   -3.0339    0.7579   -0.5625 H   0  0  0  0  0  0  0  0  0  0  0  0
   -0.6460    1.6882   -0.2401 H   0  0  0  0  0  0  0  0  0  0  0  0
   -1.0636    0.7098   -1.6612 H   0  0  0  0  0  0  0  0  0  0  0  0
    0.2843   -1.6507   -1.6328 H   0  0  0  0  0  0  0  0  0  0  0  0
    0.8805    0.5764    1.7236 H   0  0  0  0  0  0  0  0  0  0  0  0
    0.7175   -1.9837    1.8952 H   0  0  0  0  0  0  0  0  0  0  0  0
    2.3471   -0.5684   -0.7717 H   0  0  0  0  0  0  0  0  0  0  0  0
    2.3196    1.8436    0.0944 H   0  0  0  0  0  0  0  0  0  0  0  0
  1  2  1  0
  2  3  1  0
  3  4  1  0
  3  5  1  0
  5  6  1  0
  5  7  1  0
  7  8  1  0
  7  3  1  0
  1  9  1  0
  1 10  1  0
  1 11  1  0
  2 12  1  0
  2 13  1  0
  4 14  1  0
  5 15  1  0
  6 16  1  0
  7 17  1  0
  8 18  1  0
M  END
