
     RDKit          3D

 21 21  0  0  0  0  0  0  0  0999 V2000
    2.4155   -0.8472   -0.1966 C   0  0  0  0  0  0  0  0  0  0  0  0
    1.5232   -0.1241    0.8139 C   0  0  0  0  0  0  0  0  0  0  0  0
    0.1661   -0.0747    0.2481 C   0  0  0  0  0  0  0  0  0  0  0  0
   -0.5306    1.0120   -0.0216 C   0  0  0  0  0  0  0  0  0  0  0  0
   -0.1880    2.4087    0.1492 C   0  0  0  0  0  0  0  0  0  0  0  0
    0.9037    2.8201    0.6137 O   0  0  0  0  0  0  0  0  0  0  0  0
   -1.8578    0.5649   -0.5882 C   0  0  0  0  0  0  0  0  0  0  0  0
   -2.0222   -0.7648    0.1203 C   0  0  0  0  0  0  0  0  0  0  0  0
   -0.6003   -1.3099   -0.0935 C   0  0  0  0  0  0  0  0  0  0  0  0
    2.1055   -1.9067   -0.3088 H   0  0  0  0  0  0  0  0  0  0  0  0
    2.2794   -0.3052   -1.1557 H   0  0  0  0  0  0  0  0  0  0  0  0
    3.4549   -0.7463    0.1746 H   0  0  0  0  0  0  0  0  0  0  0  0
    1.4988   -0.6898    1.7755 H   0  0  0  0  0  0  0  0  0  0  0  0
    2.0003    0.8409    1.0010 H   0  0  0  0  0  0  0  0  0  0  0  0
   -0.8978    3.1789   -0.1323 H   0  0  0  0  0  0  0  0  0  0  0  0
   -1.7154    0.3357   -1.6691 H   0  0  0  0  0  0  0  0  0  0  0  0
   -2.6540    1.2762   -0.3791 H   0  0  0  0  0  0  0  0  0  0  0  0
   -2.7700   -1.4166   -0.3469 H   0  0  0  0  0  0  0  0  0  0  0  0
   -2.1835   -0.5746    1.1942 H   0  0  0  0  0  0  0  0  0  0  0  0
   -0.3866   -2.1503    0.5568 H   0  0  0  0  0  0  0  0  0  0  0  0
   -0.5411   -1.5272   -1.1790 H   0  0  0  0  0  0  0  0  0  0  0  0
  1  2  1  0
  2  3  1  0
  3  4  2  0
  4  5  1  0
  5  6  2  0
  4  7  1  0
  7  8  1  0
  8  9  1  0
  9  3  1  0
  1 10  1  0
  1 11  1  0
  1 12  1  0
  2 13  1  0
  2 14  1  0
  5 15  1  0
  7 16  1  0
  7 17  1  0
  8 18  1  0
  8 19  1  0
  9 20  1  0
  9 21  1  0
M  END
