
     RDKit          3D

 19 19  0  0  0  0  0  0  0  0999 V2000
    2.5704   -0.2335    0.2748 C   0  0  0  0  0  0  0  0  0  0  0  0
    1.2887   -0.8235   -0.3315 C   0  0  0  0  0  0  0  0  0  0  0  0
    0.4287    0.2837   -0.8417 C   0  0  0  0  0  0  0  0  0  0  0  0
   -0.7855    0.0245   -1.5346 O   0  0  0  0  0  0  0  0  0  0  0  0
   -0.8339    0.5241   -0.1871 C   0  0  0  0  0  0  0  0  0  0  0  0
   -1.3242    1.9318   -0.1366 C   0  0  0  0  0  0  0  0  0  0  0  0
   -0.6866    2.8161    0.3845 O   0  0  0  0  0  0  0  0  0  0  0  0
   -1.8200   -0.4204    0.4811 C   0  0  0  0  0  0  0  0  0  0  0  0
   -1.4310   -1.7179    0.4081 O   0  0  0  0  0  0  0  0  0  0  0  0
    2.9379    0.5851   -0.3798 H   0  0  0  0  0  0  0  0  0  0  0  0
    3.3110   -0.9837    0.4651 H   0  0  0  0  0  0  0  0  0  0  0  0
    2.2707    0.2107    1.2677 H   0  0  0  0  0  0  0  0  0  0  0  0
    0.7436   -1.3320    0.5033 H   0  0  0  0  0  0  0  0  0  0  0  0
    1.5550   -1.5653   -1.0757 H   0  0  0  0  0  0  0  0  0  0  0  0
    0.9540    1.1644   -1.3496 H   0  0  0  0  0  0  0  0  0  0  0  0
   -2.3134    2.1701   -0.6091 H   0  0  0  0  0  0  0  0  0  0  0  0
   -2.7840   -0.2351    0.0107 H   0  0  0  0  0  0  0  0  0  0  0  0
   -1.9071   -0.0617    1.5359 H   0  0  0  0  0  0  0  0  0  0  0  0
   -2.1744   -2.3372    0.7433 H   0  0  0  0  0  0  0  0  0  0  0  0
  1  2  1  0
  2  3  1  0
  3  4  1  0
  4  5  1  0
  5  6  1  0
  6  7  2  0
  5  8  1  0
  8  9  1  0
  5  3  1  0
  1 10  1  0
  1 11  1  0
  1 12  1  0
  2 13  1  0
  2 14  1  0
  3 15  1  0
  6 16  1  0
  8 17  1  0
  8 18  1  0
  9 19  1  0
M  END
