
     RDKit          3D

 23 24  0  0  0  0  0  0  0  0999 V2000
   -1.9173    1.3290    0.2781 C   0  0  0  0  0  0  0  0  0  0  0  0
   -1.6189   -0.0569   -0.1492 C   0  0  0  0  0  0  0  0  0  0  0  0
   -0.2291   -0.3876   -0.4587 C   0  0  0  0  0  0  0  0  0  0  0  0
   -0.0140   -1.8403   -0.8912 C   0  0  0  0  0  0  0  0  0  0  0  0
    1.1921   -1.9369    0.0458 C   0  0  0  0  0  0  0  0  0  0  0  0
    0.8601   -0.5532    0.4916 C   0  0  0  0  0  0  0  0  0  0  0  0
    0.8295   -0.1865    1.7966 O   0  0  0  0  0  0  0  0  0  0  0  0
    0.8985    0.4934   -0.6145 C   0  0  0  0  0  0  0  0  0  0  0  0
    1.0538    1.8673   -0.0861 C   0  0  0  0  0  0  0  0  0  0  0  0
   -1.6999    1.4391    1.3606 H   0  0  0  0  0  0  0  0  0  0  0  0
   -3.0364    1.4772    0.1987 H   0  0  0  0  0  0  0  0  0  0  0  0
   -1.4800    2.1105   -0.3519 H   0  0  0  0  0  0  0  0  0  0  0  0
   -2.2527   -0.2592   -1.0595 H   0  0  0  0  0  0  0  0  0  0  0  0
   -2.0434   -0.7509    0.6307 H   0  0  0  0  0  0  0  0  0  0  0  0
   -0.8023   -2.5305   -0.5111 H   0  0  0  0  0  0  0  0  0  0  0  0
    0.2121   -1.9708   -1.9512 H   0  0  0  0  0  0  0  0  0  0  0  0
    2.1649   -2.0092   -0.5229 H   0  0  0  0  0  0  0  0  0  0  0  0
    1.1244   -2.7117    0.8130 H   0  0  0  0  0  0  0  0  0  0  0  0
    1.6110   -0.5140    2.2786 H   0  0  0  0  0  0  0  0  0  0  0  0
    1.6127    0.2522   -1.4572 H   0  0  0  0  0  0  0  0  0  0  0  0
    0.5728    2.0482    0.8896 H   0  0  0  0  0  0  0  0  0  0  0  0
    2.1587    2.0237    0.1053 H   0  0  0  0  0  0  0  0  0  0  0  0
    0.8033    2.6670   -0.8351 H   0  0  0  0  0  0  0  0  0  0  0  0
  1  2  1  0
  2  3  1  0
  3  4  1  0
  4  5  1  0
  5  6  1  0
  6  7  1  0
  6  8  1  0
  8  9  1  0
  6  3  1  0
  8  3  1  0
  1 10  1  0
  1 11  1  0
  1 12  1  0
  2 13  1  0
  2 14  1  0
  4 15  1  0
  4 16  1  0
  5 17  1  0
  5 18  1  0
  7 19  1  0
  8 20  1  0
  9 21  1  0
  9 22  1  0
  9 23  1  0
M  END
