
     RDKit          3D

 21 23  0  0  0  0  0  0  0  0999 V2000
    2.5052    0.2818    0.3408 C   0  0  0  0  0  0  0  0  0  0  0  0
    1.6899   -0.0733   -0.8555 C   0  0  0  0  0  0  0  0  0  0  0  0
    0.2680   -0.2704   -0.4863 C   0  0  0  0  0  0  0  0  0  0  0  0
   -0.6974   -0.6075   -1.4144 O   0  0  0  0  0  0  0  0  0  0  0  0
   -1.8683   -0.3901   -0.7479 C   0  0  0  0  0  0  0  0  0  0  0  0
   -1.6247   -1.1431    0.5654 C   0  0  0  0  0  0  0  0  0  0  0  0
   -0.2209   -0.6110    0.8447 C   0  0  0  0  0  0  0  0  0  0  0  0
   -0.3052    0.7901    0.4190 C   0  0  0  0  0  0  0  0  0  0  0  0
   -1.6633    1.0269   -0.2226 C   0  0  0  0  0  0  0  0  0  0  0  0
    3.2964   -0.4787    0.5664 H   0  0  0  0  0  0  0  0  0  0  0  0
    3.0458    1.2206    0.1423 H   0  0  0  0  0  0  0  0  0  0  0  0
    1.8424    0.3687    1.2338 H   0  0  0  0  0  0  0  0  0  0  0  0
    2.1551   -0.9589   -1.3312 H   0  0  0  0  0  0  0  0  0  0  0  0
    1.7438    0.7450   -1.5989 H   0  0  0  0  0  0  0  0  0  0  0  0
   -2.7907   -0.5838   -1.2201 H   0  0  0  0  0  0  0  0  0  0  0  0
   -2.3123   -0.7019    1.2996 H   0  0  0  0  0  0  0  0  0  0  0  0
   -1.6635   -2.2155    0.4527 H   0  0  0  0  0  0  0  0  0  0  0  0
    0.3548   -0.9760    1.6752 H   0  0  0  0  0  0  0  0  0  0  0  0
    0.2844    1.6082    0.7986 H   0  0  0  0  0  0  0  0  0  0  0  0
   -1.6338    1.7748   -1.0206 H   0  0  0  0  0  0  0  0  0  0  0  0
   -2.4057    1.1941    0.5589 H   0  0  0  0  0  0  0  0  0  0  0  0
  1  2  1  0
  2  3  1  0
  3  4  1  0
  4  5  1  0
  5  6  1  0
  6  7  1  0
  7  8  1  0
  8  9  1  0
  7  3  1  0
  8  3  1  0
  9  5  1  0
  1 10  1  0
  1 11  1  0
  1 12  1  0
  2 13  1  0
  2 14  1  0
  5 15  1  0
  6 16  1  0
  6 17  1  0
  7 18  1  0
  8 19  1  0
  9 20  1  0
  9 21  1  0
M  END
