
     RDKit          3D

 17 17  0  0  0  0  0  0  0  0999 V2000
    2.0766    0.3900   -0.3126 C   0  0  0  0  0  0  0  0  0  0  0  0
    0.9045   -0.5084   -0.1339 C   0  0  0  0  0  0  0  0  0  0  0  0
   -0.4127    0.1750   -0.0657 C   0  0  0  0  0  0  0  0  0  0  0  0
   -1.5927   -0.7772    0.1179 C   0  0  0  0  0  0  0  0  0  0  0  0
   -1.2804   -1.5675    1.2226 O   0  0  0  0  0  0  0  0  0  0  0  0
   -0.6289    1.5574    0.2038 C   0  0  0  0  0  0  0  0  0  0  0  0
   -0.6005    1.0752   -1.2001 O   0  0  0  0  0  0  0  0  0  0  0  0
    2.6425    0.4239    0.6440 H   0  0  0  0  0  0  0  0  0  0  0  0
    2.7195    0.0839   -1.1716 H   0  0  0  0  0  0  0  0  0  0  0  0
    1.7116    1.4138   -0.5044 H   0  0  0  0  0  0  0  0  0  0  0  0
    0.8771   -1.2079   -1.0197 H   0  0  0  0  0  0  0  0  0  0  0  0
    1.0163   -1.1744    0.7563 H   0  0  0  0  0  0  0  0  0  0  0  0
   -2.5361   -0.2242    0.2416 H   0  0  0  0  0  0  0  0  0  0  0  0
   -1.6008   -1.4574   -0.7615 H   0  0  0  0  0  0  0  0  0  0  0  0
   -1.7676   -2.4265    1.1592 H   0  0  0  0  0  0  0  0  0  0  0  0
   -1.6610    1.9041    0.4082 H   0  0  0  0  0  0  0  0  0  0  0  0
    0.1327    2.3202    0.4157 H   0  0  0  0  0  0  0  0  0  0  0  0
  1  2  1  0
  2  3  1  0
  3  4  1  0
  4  5  1  0
  3  6  1  0
  6  7  1  0
  7  3  1  0
  1  8  1  0
  1  9  1  0
  1 10  1  0
  2 11  1  0
  2 12  1  0
  4 13  1  0
  4 14  1  0
  5 15  1  0
  6 16  1  0
  6 17  1  0
M  END
