
     RDKit          3D

 21 22  0  0  0  0  0  0  0  0999 V2000
   -2.6264    0.3204   -0.0052 C   0  0  0  0  0  0  0  0  0  0  0  0
   -1.5493   -0.6691   -0.3080 C   0  0  0  0  0  0  0  0  0  0  0  0
   -0.1961   -0.1525   -0.3569 C   0  0  0  0  0  0  0  0  0  0  0  0
    0.3592    0.5084    0.9111 C   0  0  0  0  0  0  0  0  0  0  0  0
    1.6912    0.1251    0.2434 C   0  0  0  0  0  0  0  0  0  0  0  0
    2.7844    0.0738    0.9781 O   0  0  0  0  0  0  0  0  0  0  0  0
    1.5969    0.9022   -1.0229 C   0  0  0  0  0  0  0  0  0  0  0  0
    0.2684    0.5804   -1.4088 O   0  0  0  0  0  0  0  0  0  0  0  0
    0.9490   -1.1526   -0.1203 C   0  0  0  0  0  0  0  0  0  0  0  0
   -2.4523    1.2589   -0.5569 H   0  0  0  0  0  0  0  0  0  0  0  0
   -2.6903    0.4791    1.0909 H   0  0  0  0  0  0  0  0  0  0  0  0
   -3.5970   -0.1382   -0.3485 H   0  0  0  0  0  0  0  0  0  0  0  0
   -1.6461   -1.5081    0.4232 H   0  0  0  0  0  0  0  0  0  0  0  0
   -1.7927   -1.1241   -1.2998 H   0  0  0  0  0  0  0  0  0  0  0  0
    0.2110    1.5877    0.9589 H   0  0  0  0  0  0  0  0  0  0  0  0
    0.2114   -0.0834    1.8104 H   0  0  0  0  0  0  0  0  0  0  0  0
    2.6095   -0.1794    1.8965 H   0  0  0  0  0  0  0  0  0  0  0  0
    1.5748    1.9893   -0.8060 H   0  0  0  0  0  0  0  0  0  0  0  0
    2.3176    0.6206   -1.8012 H   0  0  0  0  0  0  0  0  0  0  0  0
    0.6911   -1.7887    0.7491 H   0  0  0  0  0  0  0  0  0  0  0  0
    1.2855   -1.6497   -1.0270 H   0  0  0  0  0  0  0  0  0  0  0  0
  1  2  1  0
  2  3  1  0
  3  4  1  0
  4  5  1  0
  5  6  1  0
  5  7  1  0
  7  8  1  0
  5  9  1  0
  8  3  1  0
  9  3  1  0
  1 10  1  0
  1 11  1  0
  1 12  1  0
  2 13  1  0
  2 14  1  0
  4 15  1  0
  4 16  1  0
  6 17  1  0
  7 18  1  0
  7 19  1  0
  9 20  1  0
  9 21  1  0
M  END
