
     RDKit          3D

 23 23  0  0  0  0  0  0  0  0999 V2000
   -2.8596    0.7218    0.9520 C   0  0  0  0  0  0  0  0  0  0  0  0
   -2.1973    0.3188   -0.3706 C   0  0  0  0  0  0  0  0  0  0  0  0
   -0.7184    0.4584   -0.1711 C   0  0  0  0  0  0  0  0  0  0  0  0
   -0.1603   -0.4272    0.9538 C   0  0  0  0  0  0  0  0  0  0  0  0
    0.2171   -0.6629   -0.4357 C   0  0  0  0  0  0  0  0  0  0  0  0
    1.6127   -0.3851   -0.8694 C   0  0  0  0  0  0  0  0  0  0  0  0
    2.2450   -1.6377   -1.0419 O   0  0  0  0  0  0  0  0  0  0  0  0
    2.4671    0.3918    0.0626 C   0  0  0  0  0  0  0  0  0  0  0  0
    2.6117   -0.2474    1.2768 O   0  0  0  0  0  0  0  0  0  0  0  0
   -2.7685   -0.1415    1.6455 H   0  0  0  0  0  0  0  0  0  0  0  0
   -3.8834    1.0756    0.8085 H   0  0  0  0  0  0  0  0  0  0  0  0
   -2.2462    1.5359    1.4071 H   0  0  0  0  0  0  0  0  0  0  0  0
   -2.5064   -0.7505   -0.5255 H   0  0  0  0  0  0  0  0  0  0  0  0
   -2.5910    0.8819   -1.2172 H   0  0  0  0  0  0  0  0  0  0  0  0
   -0.3350    1.4779   -0.2938 H   0  0  0  0  0  0  0  0  0  0  0  0
   -0.8600   -1.1389    1.4429 H   0  0  0  0  0  0  0  0  0  0  0  0
    0.3789    0.1723    1.6910 H   0  0  0  0  0  0  0  0  0  0  0  0
   -0.2097   -1.6073   -0.8977 H   0  0  0  0  0  0  0  0  0  0  0  0
    1.6576    0.0808   -1.8947 H   0  0  0  0  0  0  0  0  0  0  0  0
    1.7026   -2.3772   -0.7081 H   0  0  0  0  0  0  0  0  0  0  0  0
    2.1783    1.4565    0.1661 H   0  0  0  0  0  0  0  0  0  0  0  0
    3.4970    0.4181   -0.3961 H   0  0  0  0  0  0  0  0  0  0  0  0
    2.7678    0.3860    2.0079 H   0  0  0  0  0  0  0  0  0  0  0  0
  1  2  1  0
  2  3  1  0
  3  4  1  0
  4  5  1  0
  5  6  1  0
  6  7  1  0
  6  8  1  0
  8  9  1  0
  5  3  1  0
  1 10  1  0
  1 11  1  0
  1 12  1  0
  2 13  1  0
  2 14  1  0
  3 15  1  0
  4 16  1  0
  4 17  1  0
  5 18  1  0
  6 19  1  0
  7 20  1  0
  8 21  1  0
  8 22  1  0
  9 23  1  0
M  END
