
     RDKit          3D

 18 18  0  0  0  0  0  0  0  0999 V2000
    2.1115    0.3083    0.9137 C   0  0  0  0  0  0  0  0  0  0  0  0
    1.3778   -0.4028   -0.1650 C   0  0  0  0  0  0  0  0  0  0  0  0
   -0.0767   -0.6308    0.1129 C   0  0  0  0  0  0  0  0  0  0  0  0
   -0.6974   -1.3010   -0.9400 O   0  0  0  0  0  0  0  0  0  0  0  0
   -1.0723   -0.0606   -1.4872 C   0  0  0  0  0  0  0  0  0  0  0  0
   -1.0050    0.5075   -0.0944 C   0  0  0  0  0  0  0  0  0  0  0  0
   -2.3055    0.3107    0.6292 C   0  0  0  0  0  0  0  0  0  0  0  0
   -2.5254    0.9249    1.6593 O   0  0  0  0  0  0  0  0  0  0  0  0
    3.2074    0.0576    0.7915 H   0  0  0  0  0  0  0  0  0  0  0  0
    2.0656    1.4107    0.8421 H   0  0  0  0  0  0  0  0  0  0  0  0
    1.8490   -0.0570    1.9237 H   0  0  0  0  0  0  0  0  0  0  0  0
    1.8640   -1.4063   -0.3071 H   0  0  0  0  0  0  0  0  0  0  0  0
    1.5109    0.1250   -1.1305 H   0  0  0  0  0  0  0  0  0  0  0  0
   -0.2420   -1.1773    1.0568 H   0  0  0  0  0  0  0  0  0  0  0  0
   -2.0949   -0.0516   -1.9143 H   0  0  0  0  0  0  0  0  0  0  0  0
   -0.2650    0.3039   -2.1430 H   0  0  0  0  0  0  0  0  0  0  0  0
   -0.6384    1.5211    0.0118 H   0  0  0  0  0  0  0  0  0  0  0  0
   -3.0636   -0.3823    0.2406 H   0  0  0  0  0  0  0  0  0  0  0  0
  1  2  1  0
  2  3  1  0
  3  4  1  0
  4  5  1  0
  5  6  1  0
  6  7  1  0
  7  8  2  0
  6  3  1  0
  1  9  1  0
  1 10  1  0
  1 11  1  0
  2 12  1  0
  2 13  1  0
  3 14  1  0
  5 15  1  0
  5 16  1  0
  6 17  1  0
  7 18  1  0
M  END
