
     RDKit          3D

 21 22  0  0  0  0  0  0  0  0999 V2000
    2.5268   -0.4645    0.4653 C   0  0  0  0  0  0  0  0  0  0  0  0
    1.9269    0.7869   -0.1212 C   0  0  0  0  0  0  0  0  0  0  0  0
    0.4883    0.6351   -0.5092 C   0  0  0  0  0  0  0  0  0  0  0  0
   -0.4610    0.2695    0.6120 C   0  0  0  0  0  0  0  0  0  0  0  0
   -1.8125    0.9045    0.6367 C   0  0  0  0  0  0  0  0  0  0  0  0
   -2.7215    0.3674   -0.2351 O   0  0  0  0  0  0  0  0  0  0  0  0
   -2.4223   -0.9527   -0.5281 C   0  0  0  0  0  0  0  0  0  0  0  0
   -1.2630   -0.9322   -1.3239 O   0  0  0  0  0  0  0  0  0  0  0  0
   -0.2039   -0.6756   -0.4724 C   0  0  0  0  0  0  0  0  0  0  0  0
    2.8090   -1.1503   -0.3775 H   0  0  0  0  0  0  0  0  0  0  0  0
    1.8990   -0.9440    1.2224 H   0  0  0  0  0  0  0  0  0  0  0  0
    3.4844   -0.1682    0.9466 H   0  0  0  0  0  0  0  0  0  0  0  0
    2.5371    1.0911   -0.9811 H   0  0  0  0  0  0  0  0  0  0  0  0
    2.0252    1.5939    0.6414 H   0  0  0  0  0  0  0  0  0  0  0  0
    0.1417    1.3377   -1.2959 H   0  0  0  0  0  0  0  0  0  0  0  0
    0.0081    0.0340    1.6048 H   0  0  0  0  0  0  0  0  0  0  0  0
   -2.2341    0.8025    1.6711 H   0  0  0  0  0  0  0  0  0  0  0  0
   -1.7435    2.0085    0.4503 H   0  0  0  0  0  0  0  0  0  0  0  0
   -3.2410   -1.5099   -0.9832 H   0  0  0  0  0  0  0  0  0  0  0  0
   -2.1229   -1.4264    0.4492 H   0  0  0  0  0  0  0  0  0  0  0  0
    0.3791   -1.6074   -0.2260 H   0  0  0  0  0  0  0  0  0  0  0  0
  1  2  1  0
  2  3  1  0
  3  4  1  0
  4  5  1  0
  5  6  1  0
  6  7  1  0
  7  8  1  0
  8  9  1  0
  9  3  1  0
  9  4  1  0
  1 10  1  0
  1 11  1  0
  1 12  1  0
  2 13  1  0
  2 14  1  0
  3 15  1  0
  4 16  1  0
  5 17  1  0
  5 18  1  0
  7 19  1  0
  7 20  1  0
  9 21  1  0
M  END
