
     RDKit          3D

 23 23  0  0  0  0  0  0  0  0999 V2000
   -2.9455   -0.1865   -0.2171 C   0  0  0  0  0  0  0  0  0  0  0  0
   -1.5934    0.0251   -0.8024 C   0  0  0  0  0  0  0  0  0  0  0  0
   -0.4864    0.0971    0.1985 C   0  0  0  0  0  0  0  0  0  0  0  0
   -0.3026   -1.0280    1.0038 O   0  0  0  0  0  0  0  0  0  0  0  0
    1.0342   -0.5771    1.1418 C   0  0  0  0  0  0  0  0  0  0  0  0
    0.8979   -0.1791   -0.3320 C   0  0  0  0  0  0  0  0  0  0  0  0
    1.0084   -1.4008   -1.1695 C   0  0  0  0  0  0  0  0  0  0  0  0
    1.6413    0.8630   -0.7483 O   0  0  0  0  0  0  0  0  0  0  0  0
    1.9340    1.8391    0.1571 C   0  0  0  0  0  0  0  0  0  0  0  0
   -3.3390    0.7674    0.2075 H   0  0  0  0  0  0  0  0  0  0  0  0
   -3.6423   -0.4621   -1.0358 H   0  0  0  0  0  0  0  0  0  0  0  0
   -2.9979   -1.0053    0.5233 H   0  0  0  0  0  0  0  0  0  0  0  0
   -1.6025    0.9914   -1.3515 H   0  0  0  0  0  0  0  0  0  0  0  0
   -1.4017   -0.7461   -1.6035 H   0  0  0  0  0  0  0  0  0  0  0  0
   -0.5741    0.9783    0.8296 H   0  0  0  0  0  0  0  0  0  0  0  0
    1.7639   -1.4008    1.2757 H   0  0  0  0  0  0  0  0  0  0  0  0
    1.1659    0.2573    1.8265 H   0  0  0  0  0  0  0  0  0  0  0  0
    1.2518   -1.1352   -2.2400 H   0  0  0  0  0  0  0  0  0  0  0  0
    0.1208   -2.0414   -1.1964 H   0  0  0  0  0  0  0  0  0  0  0  0
    1.8586   -2.0737   -0.8510 H   0  0  0  0  0  0  0  0  0  0  0  0
    2.5484    2.6147   -0.3490 H   0  0  0  0  0  0  0  0  0  0  0  0
    2.5993    1.4350    0.9723 H   0  0  0  0  0  0  0  0  0  0  0  0
    1.0608    2.3676    0.5716 H   0  0  0  0  0  0  0  0  0  0  0  0
  1  2  1  0
  2  3  1  0
  3  4  1  0
  4  5  1  0
  5  6  1  0
  6  7  1  0
  6  8  1  0
  8  9  1  0
  6  3  1  0
  1 10  1  0
  1 11  1  0
  1 12  1  0
  2 13  1  0
  2 14  1  0
  3 15  1  0
  5 16  1  0
  5 17  1  0
  7 18  1  0
  7 19  1  0
  7 20  1  0
  9 21  1  0
  9 22  1  0
  9 23  1  0
M  END
