
     RDKit          3D

 23 23  0  0  0  0  0  0  0  0999 V2000
    2.7655    0.2383   -0.4985 C   0  0  0  0  0  0  0  0  0  0  0  0
    1.6264   -0.6246    0.0037 C   0  0  0  0  0  0  0  0  0  0  0  0
    0.3815    0.1543    0.1972 C   0  0  0  0  0  0  0  0  0  0  0  0
    0.2897    1.4531   -0.0445 C   0  0  0  0  0  0  0  0  0  0  0  0
   -1.0898    1.9392    0.2476 C   0  0  0  0  0  0  0  0  0  0  0  0
   -1.8847    0.7267    0.6147 C   0  0  0  0  0  0  0  0  0  0  0  0
   -0.8947   -0.4200    0.6786 C   0  0  0  0  0  0  0  0  0  0  0  0
   -1.4166   -1.5117   -0.2247 C   0  0  0  0  0  0  0  0  0  0  0  0
   -0.5267   -2.5744   -0.3368 O   0  0  0  0  0  0  0  0  0  0  0  0
    3.1324    0.8812    0.3436 H   0  0  0  0  0  0  0  0  0  0  0  0
    2.4684    0.9085   -1.3053 H   0  0  0  0  0  0  0  0  0  0  0  0
    3.5792   -0.4292   -0.8510 H   0  0  0  0  0  0  0  0  0  0  0  0
    1.9579   -1.1137    0.9650 H   0  0  0  0  0  0  0  0  0  0  0  0
    1.4983   -1.4670   -0.7091 H   0  0  0  0  0  0  0  0  0  0  0  0
    1.0799    2.0985   -0.4024 H   0  0  0  0  0  0  0  0  0  0  0  0
   -0.9948    2.6677    1.0789 H   0  0  0  0  0  0  0  0  0  0  0  0
   -1.4457    2.4561   -0.6478 H   0  0  0  0  0  0  0  0  0  0  0  0
   -2.6623    0.5617   -0.1593 H   0  0  0  0  0  0  0  0  0  0  0  0
   -2.4207    0.8107    1.5788 H   0  0  0  0  0  0  0  0  0  0  0  0
   -0.7881   -0.8068    1.7129 H   0  0  0  0  0  0  0  0  0  0  0  0
   -2.3833   -1.8557    0.2375 H   0  0  0  0  0  0  0  0  0  0  0  0
   -1.6942   -1.1321   -1.2254 H   0  0  0  0  0  0  0  0  0  0  0  0
   -0.5776   -2.9606   -1.2535 H   0  0  0  0  0  0  0  0  0  0  0  0
  1  2  1  0
  2  3  1  0
  3  4  2  0
  4  5  1  0
  5  6  1  0
  6  7  1  0
  7  8  1  0
  8  9  1  0
  7  3  1  0
  1 10  1  0
  1 11  1  0
  1 12  1  0
  2 13  1  0
  2 14  1  0
  4 15  1  0
  5 16  1  0
  5 17  1  0
  6 18  1  0
  6 19  1  0
  7 20  1  0
  8 21  1  0
  8 22  1  0
  9 23  1  0
M  END
