
     RDKit          3D

 23 24  0  0  0  0  0  0  0  0999 V2000
    2.6107   -0.6171   -0.4334 C   0  0  0  0  0  0  0  0  0  0  0  0
    1.7274    0.4515    0.0690 C   0  0  0  0  0  0  0  0  0  0  0  0
    0.2792    0.1959    0.0585 C   0  0  0  0  0  0  0  0  0  0  0  0
   -0.4664    1.3953    0.6066 C   0  0  0  0  0  0  0  0  0  0  0  0
   -1.8591    1.1561    0.0114 C   0  0  0  0  0  0  0  0  0  0  0  0
   -1.6148   -0.0252   -0.8969 C   0  0  0  0  0  0  0  0  0  0  0  0
   -1.4915   -1.3266   -0.1192 C   0  0  0  0  0  0  0  0  0  0  0  0
   -0.2192   -1.0315    0.6917 C   0  0  0  0  0  0  0  0  0  0  0  0
   -0.2575    0.1686   -1.2526 O   0  0  0  0  0  0  0  0  0  0  0  0
    2.9678   -1.2178    0.4542 H   0  0  0  0  0  0  0  0  0  0  0  0
    2.1772   -1.2749   -1.2065 H   0  0  0  0  0  0  0  0  0  0  0  0
    3.5333   -0.1659   -0.8547 H   0  0  0  0  0  0  0  0  0  0  0  0
    1.9107    1.3712   -0.5635 H   0  0  0  0  0  0  0  0  0  0  0  0
    2.0633    0.7489    1.0849 H   0  0  0  0  0  0  0  0  0  0  0  0
   -0.4869    1.4359    1.6917 H   0  0  0  0  0  0  0  0  0  0  0  0
   -0.0298    2.2901    0.1285 H   0  0  0  0  0  0  0  0  0  0  0  0
   -2.1661    2.0068   -0.6033 H   0  0  0  0  0  0  0  0  0  0  0  0
   -2.6043    0.9401    0.7981 H   0  0  0  0  0  0  0  0  0  0  0  0
   -2.2724   -0.0844   -1.7526 H   0  0  0  0  0  0  0  0  0  0  0  0
   -1.3057   -2.1236   -0.8599 H   0  0  0  0  0  0  0  0  0  0  0  0
   -2.3522   -1.5200    0.5206 H   0  0  0  0  0  0  0  0  0  0  0  0
    0.4315   -1.9015    0.6796 H   0  0  0  0  0  0  0  0  0  0  0  0
   -0.5751   -0.8721    1.7477 H   0  0  0  0  0  0  0  0  0  0  0  0
  1  2  1  0
  2  3  1  0
  3  4  1  0
  4  5  1  0
  5  6  1  0
  6  7  1  0
  7  8  1  0
  6  9  1  0
  8  3  1  0
  9  3  1  0
  1 10  1  0
  1 11  1  0
  1 12  1  0
  2 13  1  0
  2 14  1  0
  4 15  1  0
  4 16  1  0
  5 17  1  0
  5 18  1  0
  6 19  1  0
  7 20  1  0
  7 21  1  0
  8 22  1  0
  8 23  1  0
M  END
