
     RDKit          3D

 23 23  0  0  0  0  0  0  0  0999 V2000
    2.5479    1.2573    0.2402 C   0  0  0  0  0  0  0  0  0  0  0  0
    1.8180    0.0194    0.7118 C   0  0  0  0  0  0  0  0  0  0  0  0
    0.9460   -0.4455   -0.4336 C   0  0  0  0  0  0  0  0  0  0  0  0
   -0.0434    0.6441   -0.8050 C   0  0  0  0  0  0  0  0  0  0  0  0
   -1.0903   -0.1514   -0.0501 C   0  0  0  0  0  0  0  0  0  0  0  0
   -2.2244   -0.2851   -0.8447 O   0  0  0  0  0  0  0  0  0  0  0  0
   -3.3141    0.1636   -0.1356 C   0  0  0  0  0  0  0  0  0  0  0  0
   -0.1876   -1.3386   -0.0682 C   0  0  0  0  0  0  0  0  0  0  0  0
   -0.0738   -2.0307    1.1318 O   0  0  0  0  0  0  0  0  0  0  0  0
    3.6244    1.0283    0.0033 H   0  0  0  0  0  0  0  0  0  0  0  0
    2.4737    2.0889    0.9814 H   0  0  0  0  0  0  0  0  0  0  0  0
    2.1230    1.6425   -0.7093 H   0  0  0  0  0  0  0  0  0  0  0  0
    1.2114    0.2954    1.5970 H   0  0  0  0  0  0  0  0  0  0  0  0
    2.5351   -0.7724    1.0151 H   0  0  0  0  0  0  0  0  0  0  0  0
    1.5258   -0.8392   -1.2771 H   0  0  0  0  0  0  0  0  0  0  0  0
   -0.1820    0.6438   -1.9064 H   0  0  0  0  0  0  0  0  0  0  0  0
    0.1180    1.6207   -0.3403 H   0  0  0  0  0  0  0  0  0  0  0  0
   -1.3006    0.2748    0.9533 H   0  0  0  0  0  0  0  0  0  0  0  0
   -3.4431   -0.4410    0.8087 H   0  0  0  0  0  0  0  0  0  0  0  0
   -4.2133    0.0872   -0.7788 H   0  0  0  0  0  0  0  0  0  0  0  0
   -3.1514    1.2125    0.2295 H   0  0  0  0  0  0  0  0  0  0  0  0
   -0.4383   -2.0537   -0.8763 H   0  0  0  0  0  0  0  0  0  0  0  0
    0.7392   -2.6208    1.0698 H   0  0  0  0  0  0  0  0  0  0  0  0
  1  2  1  0
  2  3  1  0
  3  4  1  0
  4  5  1  0
  5  6  1  0
  6  7  1  0
  5  8  1  0
  8  9  1  0
  8  3  1  0
  1 10  1  0
  1 11  1  0
  1 12  1  0
  2 13  1  0
  2 14  1  0
  3 15  1  0
  4 16  1  0
  4 17  1  0
  5 18  1  0
  7 19  1  0
  7 20  1  0
  7 21  1  0
  8 22  1  0
  9 23  1  0
M  END
