
     RDKit          3D

 21 21  0  0  0  0  0  0  0  0999 V2000
   -1.5856   -1.3009    0.2244 C   0  0  0  0  0  0  0  0  0  0  0  0
   -1.1821   -0.0689   -0.5025 C   0  0  0  0  0  0  0  0  0  0  0  0
   -0.0509    0.6861    0.1094 C   0  0  0  0  0  0  0  0  0  0  0  0
    0.2663    1.9199   -0.7226 C   0  0  0  0  0  0  0  0  0  0  0  0
   -0.0645    0.9082    1.5430 C   0  0  0  0  0  0  0  0  0  0  0  0
   -0.5841    1.7262    2.3352 O   0  0  0  0  0  0  0  0  0  0  0  0
    0.7608   -0.1805    1.7648 O   0  0  0  0  0  0  0  0  0  0  0  0
    1.1941   -0.0613    0.4253 C   0  0  0  0  0  0  0  0  0  0  0  0
    1.4507   -1.3328   -0.3076 C   0  0  0  0  0  0  0  0  0  0  0  0
   -2.7020   -1.3079    0.3991 H   0  0  0  0  0  0  0  0  0  0  0  0
   -1.4214   -2.2008   -0.4388 H   0  0  0  0  0  0  0  0  0  0  0  0
   -1.1343   -1.4338    1.2158 H   0  0  0  0  0  0  0  0  0  0  0  0
   -2.0515    0.6176   -0.5766 H   0  0  0  0  0  0  0  0  0  0  0  0
   -0.8975   -0.2849   -1.5728 H   0  0  0  0  0  0  0  0  0  0  0  0
   -0.3752    2.7801   -0.4603 H   0  0  0  0  0  0  0  0  0  0  0  0
    1.3126    2.2434   -0.5202 H   0  0  0  0  0  0  0  0  0  0  0  0
    0.2052    1.6460   -1.7996 H   0  0  0  0  0  0  0  0  0  0  0  0
    2.0993    0.6032    0.4090 H   0  0  0  0  0  0  0  0  0  0  0  0
    1.2877   -1.1801   -1.4012 H   0  0  0  0  0  0  0  0  0  0  0  0
    2.5508   -1.5665   -0.2064 H   0  0  0  0  0  0  0  0  0  0  0  0
    0.9215   -2.2122    0.0825 H   0  0  0  0  0  0  0  0  0  0  0  0
  1  2  1  0
  2  3  1  0
  3  4  1  0
  3  5  1  0
  5  6  2  0
  5  7  1  0
  7  8  1  0
  8  9  1  0
  8  3  1  0
  1 10  1  0
  1 11  1  0
  1 12  1  0
  2 13  1  0
  2 14  1  0
  4 15  1  0
  4 16  1  0
  4 17  1  0
  8 18  1  0
  9 19  1  0
  9 20  1  0
  9 21  1  0
M  END
