
     RDKit          3D

 19 20  0  0  0  0  0  0  0  0999 V2000
   -2.4242    0.1196    0.0297 C   0  0  0  0  0  0  0  0  0  0  0  0
   -1.3182   -0.8902    0.2356 C   0  0  0  0  0  0  0  0  0  0  0  0
    0.0020   -0.3567   -0.1637 C   0  0  0  0  0  0  0  0  0  0  0  0
    0.7817   -0.8704   -1.0994 C   0  0  0  0  0  0  0  0  0  0  0  0
    1.9670   -0.0574   -1.1838 C   0  0  0  0  0  0  0  0  0  0  0  0
    3.0746    0.1058   -0.5314 O   0  0  0  0  0  0  0  0  0  0  0  0
    2.1179    0.1555    0.3412 C   0  0  0  0  0  0  0  0  0  0  0  0
    0.7676    0.8294    0.4107 C   0  0  0  0  0  0  0  0  0  0  0  0
    0.4013    0.9497    1.7334 O   0  0  0  0  0  0  0  0  0  0  0  0
   -3.0981   -0.2934   -0.7675 H   0  0  0  0  0  0  0  0  0  0  0  0
   -2.0491    1.0960   -0.3030 H   0  0  0  0  0  0  0  0  0  0  0  0
   -3.0686    0.2045    0.9364 H   0  0  0  0  0  0  0  0  0  0  0  0
   -1.4967   -1.8513   -0.2444 H   0  0  0  0  0  0  0  0  0  0  0  0
   -1.2603   -1.0878    1.3323 H   0  0  0  0  0  0  0  0  0  0  0  0
    0.5625   -1.7496   -1.6955 H   0  0  0  0  0  0  0  0  0  0  0  0
    1.7223    0.8801   -1.7911 H   0  0  0  0  0  0  0  0  0  0  0  0
    2.0628   -0.7965    0.9603 H   0  0  0  0  0  0  0  0  0  0  0  0
    0.6649    1.7211   -0.2045 H   0  0  0  0  0  0  0  0  0  0  0  0
    0.5905    1.8917    2.0046 H   0  0  0  0  0  0  0  0  0  0  0  0
  1  2  1  0
  2  3  1  0
  3  4  2  0
  4  5  1  0
  5  6  1  0
  6  7  1  0
  7  8  1  0
  8  9  1  0
  8  3  1  0
  7  5  1  0
  1 10  1  0
  1 11  1  0
  1 12  1  0
  2 13  1  0
  2 14  1  0
  4 15  1  0
  5 16  1  0
  7 17  1  0
  8 18  1  0
  9 19  1  0
M  END
