
     RDKit          3D

 25 26  0  0  0  0  0  0  0  0999 V2000
    2.9022    0.0773   -0.2778 C   0  0  0  0  0  0  0  0  0  0  0  0
    1.7521    0.6095    0.5747 C   0  0  0  0  0  0  0  0  0  0  0  0
    0.5449    0.0666    0.2055 C   0  0  0  0  0  0  0  0  0  0  0  0
    0.1595   -1.3829    0.2094 C   0  0  0  0  0  0  0  0  0  0  0  0
   -1.0916   -0.6610   -0.2647 C   0  0  0  0  0  0  0  0  0  0  0  0
   -2.2826   -1.2069   -0.6286 C   0  0  0  0  0  0  0  0  0  0  0  0
   -0.1305    0.1431   -1.1118 C   0  0  0  0  0  0  0  0  0  0  0  0
   -0.7895    0.3107    0.8418 C   0  0  0  0  0  0  0  0  0  0  0  0
   -1.3697    1.6647    0.7393 C   0  0  0  0  0  0  0  0  0  0  0  0
    3.6256    0.8827   -0.5236 H   0  0  0  0  0  0  0  0  0  0  0  0
    3.4773   -0.6987    0.2770 H   0  0  0  0  0  0  0  0  0  0  0  0
    2.5028   -0.3203   -1.2370 H   0  0  0  0  0  0  0  0  0  0  0  0
    1.7784    1.7139    0.4669 H   0  0  0  0  0  0  0  0  0  0  0  0
    2.0337    0.4031    1.6254 H   0  0  0  0  0  0  0  0  0  0  0  0
    0.1171   -1.7781    1.2251 H   0  0  0  0  0  0  0  0  0  0  0  0
    0.5802   -2.0121   -0.5770 H   0  0  0  0  0  0  0  0  0  0  0  0
   -2.2839   -2.3286   -0.7701 H   0  0  0  0  0  0  0  0  0  0  0  0
   -2.7025   -0.8287   -1.6098 H   0  0  0  0  0  0  0  0  0  0  0  0
   -3.1378   -1.0412    0.0918 H   0  0  0  0  0  0  0  0  0  0  0  0
   -0.4766    1.1028   -1.4767 H   0  0  0  0  0  0  0  0  0  0  0  0
    0.3767   -0.5289   -1.8499 H   0  0  0  0  0  0  0  0  0  0  0  0
   -0.8410   -0.1881    1.8307 H   0  0  0  0  0  0  0  0  0  0  0  0
   -2.4256    1.5618    0.3598 H   0  0  0  0  0  0  0  0  0  0  0  0
   -0.8335    2.3602    0.0960 H   0  0  0  0  0  0  0  0  0  0  0  0
   -1.4856    2.0792    1.7838 H   0  0  0  0  0  0  0  0  0  0  0  0
  1  2  1  0
  2  3  1  0
  3  4  1  0
  4  5  1  0
  5  6  1  0
  5  7  1  0
  5  8  1  0
  8  9  1  0
  7  3  1  0
  8  3  1  0
  1 10  1  0
  1 11  1  0
  1 12  1  0
  2 13  1  0
  2 14  1  0
  4 15  1  0
  4 16  1  0
  6 17  1  0
  6 18  1  0
  6 19  1  0
  7 20  1  0
  7 21  1  0
  8 22  1  0
  9 23  1  0
  9 24  1  0
  9 25  1  0
M  END
