
     RDKit          3D

 27 27  0  0  0  0  0  0  0  0999 V2000
    2.4519    1.1548   -0.8426 C   0  0  0  0  0  0  0  0  0  0  0  0
    2.2092    0.3730    0.4267 C   0  0  0  0  0  0  0  0  0  0  0  0
    0.8754   -0.4151    0.3047 C   0  0  0  0  0  0  0  0  0  0  0  0
   -0.2398    0.4930    0.0925 C   0  0  0  0  0  0  0  0  0  0  0  0
   -1.6156    0.0836   -0.0608 C   0  0  0  0  0  0  0  0  0  0  0  0
   -2.3273   -0.6534    0.9914 C   0  0  0  0  0  0  0  0  0  0  0  0
   -2.5189    1.2951   -0.3762 C   0  0  0  0  0  0  0  0  0  0  0  0
    1.0304   -1.4838   -0.7979 C   0  0  0  0  0  0  0  0  0  0  0  0
    0.9483   -1.7831    0.7005 C   0  0  0  0  0  0  0  0  0  0  0  0
    1.8804    2.1044   -0.8787 H   0  0  0  0  0  0  0  0  0  0  0  0
    3.5325    1.4551   -0.8209 H   0  0  0  0  0  0  0  0  0  0  0  0
    2.2629    0.4986   -1.7022 H   0  0  0  0  0  0  0  0  0  0  0  0
    3.0449   -0.3095    0.5631 H   0  0  0  0  0  0  0  0  0  0  0  0
    2.1559    1.0427    1.3096 H   0  0  0  0  0  0  0  0  0  0  0  0
    0.0466    1.1310   -0.8024 H   0  0  0  0  0  0  0  0  0  0  0  0
   -0.2250    1.2699    0.9244 H   0  0  0  0  0  0  0  0  0  0  0  0
   -1.7200   -0.5382   -1.0040 H   0  0  0  0  0  0  0  0  0  0  0  0
   -2.1083   -1.7210    1.1051 H   0  0  0  0  0  0  0  0  0  0  0  0
   -2.2909   -0.0773    1.9356 H   0  0  0  0  0  0  0  0  0  0  0  0
   -3.4290   -0.6354    0.7172 H   0  0  0  0  0  0  0  0  0  0  0  0
   -3.4414    0.9296   -0.8790 H   0  0  0  0  0  0  0  0  0  0  0  0
   -2.7310    1.7670    0.6108 H   0  0  0  0  0  0  0  0  0  0  0  0
   -1.9680    2.0475   -0.9663 H   0  0  0  0  0  0  0  0  0  0  0  0
    0.1581   -1.6838   -1.4331 H   0  0  0  0  0  0  0  0  0  0  0  0
    1.9926   -1.7038   -1.2374 H   0  0  0  0  0  0  0  0  0  0  0  0
    1.8886   -2.1472    1.2046 H   0  0  0  0  0  0  0  0  0  0  0  0
    0.1376   -2.4934    0.9154 H   0  0  0  0  0  0  0  0  0  0  0  0
  1  2  1  0
  2  3  1  0
  3  4  1  0
  4  5  1  0
  5  6  1  0
  5  7  1  0
  3  8  1  0
  8  9  1  0
  9  3  1  0
  1 10  1  0
  1 11  1  0
  1 12  1  0
  2 13  1  0
  2 14  1  0
  4 15  1  0
  4 16  1  0
  5 17  1  0
  6 18  1  0
  6 19  1  0
  6 20  1  0
  7 21  1  0
  7 22  1  0
  7 23  1  0
  8 24  1  0
  8 25  1  0
  9 26  1  0
  9 27  1  0
M  END
