
     RDKit          3D

 23 23  0  0  0  0  0  0  0  0999 V2000
   -1.9504    0.8426    0.9636 C   0  0  0  0  0  0  0  0  0  0  0  0
   -1.9896    0.0655   -0.2776 C   0  0  0  0  0  0  0  0  0  0  0  0
   -0.7859   -0.6429   -0.7308 C   0  0  0  0  0  0  0  0  0  0  0  0
   -1.0247   -1.3259   -1.9323 O   0  0  0  0  0  0  0  0  0  0  0  0
   -0.1435   -1.5145    0.3862 C   0  0  0  0  0  0  0  0  0  0  0  0
    0.5966   -0.4343   -0.3552 C   0  0  0  0  0  0  0  0  0  0  0  0
    1.5663   -0.9763   -1.2416 O   0  0  0  0  0  0  0  0  0  0  0  0
    1.1483    0.7481    0.3477 C   0  0  0  0  0  0  0  0  0  0  0  0
    2.6348    0.5683    0.5512 C   0  0  0  0  0  0  0  0  0  0  0  0
   -3.0192    1.1151    1.2253 H   0  0  0  0  0  0  0  0  0  0  0  0
   -1.4854    1.8523    0.7617 H   0  0  0  0  0  0  0  0  0  0  0  0
   -1.5527    0.3504    1.8462 H   0  0  0  0  0  0  0  0  0  0  0  0
   -2.3376    0.7425   -1.1077 H   0  0  0  0  0  0  0  0  0  0  0  0
   -2.8219   -0.6965   -0.1950 H   0  0  0  0  0  0  0  0  0  0  0  0
   -1.1028   -0.6390   -2.6557 H   0  0  0  0  0  0  0  0  0  0  0  0
   -0.3888   -1.2693    1.4208 H   0  0  0  0  0  0  0  0  0  0  0  0
    0.0072   -2.5799    0.1278 H   0  0  0  0  0  0  0  0  0  0  0  0
    1.8532   -0.3150   -1.9059 H   0  0  0  0  0  0  0  0  0  0  0  0
    0.6893    1.0024    1.3069 H   0  0  0  0  0  0  0  0  0  0  0  0
    0.9916    1.6458   -0.3164 H   0  0  0  0  0  0  0  0  0  0  0  0
    2.8851    0.3747    1.6274 H   0  0  0  0  0  0  0  0  0  0  0  0
    3.0097   -0.3367    0.0051 H   0  0  0  0  0  0  0  0  0  0  0  0
    3.2205    1.4226    0.1485 H   0  0  0  0  0  0  0  0  0  0  0  0
  1  2  1  0
  2  3  1  0
  3  4  1  0
  3  5  1  0
  5  6  1  0
  6  7  1  0
  6  8  1  0
  8  9  1  0
  6  3  1  0
  1 10  1  0
  1 11  1  0
  1 12  1  0
  2 13  1  0
  2 14  1  0
  4 15  1  0
  5 16  1  0
  5 17  1  0
  7 18  1  0
  8 19  1  0
  8 20  1  0
  9 21  1  0
  9 22  1  0
  9 23  1  0
M  END
