
     RDKit          3D

 23 24  0  0  0  0  0  0  0  0999 V2000
    2.2947   -1.0178   -0.1899 C   0  0  0  0  0  0  0  0  0  0  0  0
    1.4140   -0.5002    0.8947 C   0  0  0  0  0  0  0  0  0  0  0  0
    0.4555    0.5401    0.4893 C   0  0  0  0  0  0  0  0  0  0  0  0
    0.8491    1.8478   -0.0886 C   0  0  0  0  0  0  0  0  0  0  0  0
   -0.5920    1.9487   -0.6163 C   0  0  0  0  0  0  0  0  0  0  0  0
   -0.7999    0.5908    0.0256 C   0  0  0  0  0  0  0  0  0  0  0  0
   -1.7366   -0.3787   -0.6044 C   0  0  0  0  0  0  0  0  0  0  0  0
   -2.0513   -1.5632    0.2499 C   0  0  0  0  0  0  0  0  0  0  0  0
   -0.6871    0.6326    1.4235 O   0  0  0  0  0  0  0  0  0  0  0  0
    2.1045   -0.4582   -1.1454 H   0  0  0  0  0  0  0  0  0  0  0  0
    3.3913   -0.9089    0.0441 H   0  0  0  0  0  0  0  0  0  0  0  0
    2.1591   -2.1105   -0.3880 H   0  0  0  0  0  0  0  0  0  0  0  0
    2.0949   -0.0554    1.6794 H   0  0  0  0  0  0  0  0  0  0  0  0
    0.9440   -1.3683    1.3982 H   0  0  0  0  0  0  0  0  0  0  0  0
    1.5209    1.7322   -0.9407 H   0  0  0  0  0  0  0  0  0  0  0  0
    1.1144    2.6498    0.6211 H   0  0  0  0  0  0  0  0  0  0  0  0
   -0.6839    1.9838   -1.6983 H   0  0  0  0  0  0  0  0  0  0  0  0
   -1.1315    2.7222   -0.0538 H   0  0  0  0  0  0  0  0  0  0  0  0
   -1.4045   -0.7503   -1.5919 H   0  0  0  0  0  0  0  0  0  0  0  0
   -2.7022    0.1714   -0.8036 H   0  0  0  0  0  0  0  0  0  0  0  0
   -2.9253   -2.0895   -0.2315 H   0  0  0  0  0  0  0  0  0  0  0  0
   -2.3908   -1.3043    1.2658 H   0  0  0  0  0  0  0  0  0  0  0  0
   -1.2373   -2.3141    0.2605 H   0  0  0  0  0  0  0  0  0  0  0  0
  1  2  1  0
  2  3  1  0
  3  4  1  0
  4  5  1  0
  5  6  1  0
  6  7  1  0
  7  8  1  0
  6  9  1  0
  6  3  1  0
  9  3  1  0
  1 10  1  0
  1 11  1  0
  1 12  1  0
  2 13  1  0
  2 14  1  0
  4 15  1  0
  4 16  1  0
  5 17  1  0
  5 18  1  0
  7 19  1  0
  7 20  1  0
  8 21  1  0
  8 22  1  0
  8 23  1  0
M  END
