
     RDKit          3D

 23 24  0  0  0  0  0  0  0  0999 V2000
    2.1516   -1.1360    0.0353 C   0  0  0  0  0  0  0  0  0  0  0  0
    1.5306    0.0954   -0.5301 C   0  0  0  0  0  0  0  0  0  0  0  0
    0.0818    0.2435   -0.3229 C   0  0  0  0  0  0  0  0  0  0  0  0
   -0.8362   -0.7827   -0.8640 C   0  0  0  0  0  0  0  0  0  0  0  0
   -1.3775   -1.4883    0.3111 C   0  0  0  0  0  0  0  0  0  0  0  0
   -1.1537   -0.7605    1.3835 C   0  0  0  0  0  0  0  0  0  0  0  0
   -0.4505    0.4860    1.0436 C   0  0  0  0  0  0  0  0  0  0  0  0
   -1.3137    1.5870    0.4650 C   0  0  0  0  0  0  0  0  0  0  0  0
   -0.3687    1.6575   -0.7287 C   0  0  0  0  0  0  0  0  0  0  0  0
    1.9442   -1.3284    1.0844 H   0  0  0  0  0  0  0  0  0  0  0  0
    1.9218   -2.0632   -0.5322 H   0  0  0  0  0  0  0  0  0  0  0  0
    3.2703   -1.0133   -0.0477 H   0  0  0  0  0  0  0  0  0  0  0  0
    1.7100    0.0657   -1.6464 H   0  0  0  0  0  0  0  0  0  0  0  0
    2.1143    0.9719   -0.1814 H   0  0  0  0  0  0  0  0  0  0  0  0
   -0.3685   -1.4727   -1.5981 H   0  0  0  0  0  0  0  0  0  0  0  0
   -1.7322   -0.2972   -1.3588 H   0  0  0  0  0  0  0  0  0  0  0  0
   -1.8929   -2.4717    0.3174 H   0  0  0  0  0  0  0  0  0  0  0  0
   -1.4524   -1.0477    2.3924 H   0  0  0  0  0  0  0  0  0  0  0  0
    0.2305    0.8102    1.8249 H   0  0  0  0  0  0  0  0  0  0  0  0
   -1.2310    2.5083    1.0813 H   0  0  0  0  0  0  0  0  0  0  0  0
   -2.3453    1.3220    0.2263 H   0  0  0  0  0  0  0  0  0  0  0  0
    0.4311    2.4145   -0.6420 H   0  0  0  0  0  0  0  0  0  0  0  0
   -0.8635    1.6998   -1.7129 H   0  0  0  0  0  0  0  0  0  0  0  0
  1  2  1  0
  2  3  1  0
  3  4  1  0
  4  5  1  0
  5  6  2  0
  6  7  1  0
  7  8  1  0
  8  9  1  0
  7  3  1  0
  9  3  1  0
  1 10  1  0
  1 11  1  0
  1 12  1  0
  2 13  1  0
  2 14  1  0
  4 15  1  0
  4 16  1  0
  5 17  1  0
  6 18  1  0
  7 19  1  0
  8 20  1  0
  8 21  1  0
  9 22  1  0
  9 23  1  0
M  END
