
     RDKit          3D

 21 21  0  0  0  0  0  0  0  0999 V2000
    2.6435    0.5849    0.2323 C   0  0  0  0  0  0  0  0  0  0  0  0
    1.7752   -0.6400   -0.0142 C   0  0  0  0  0  0  0  0  0  0  0  0
    0.3524   -0.2237   -0.2058 C   0  0  0  0  0  0  0  0  0  0  0  0
   -0.0109    1.0257   -0.1551 C   0  0  0  0  0  0  0  0  0  0  0  0
   -1.4487    1.3843   -0.3534 C   0  0  0  0  0  0  0  0  0  0  0  0
   -2.2979    0.3411    0.2845 C   0  0  0  0  0  0  0  0  0  0  0  0
   -3.4214    0.5817    0.6531 O   0  0  0  0  0  0  0  0  0  0  0  0
   -1.7986   -1.0507    0.4975 C   0  0  0  0  0  0  0  0  0  0  0  0
   -0.6472   -1.2917   -0.4652 C   0  0  0  0  0  0  0  0  0  0  0  0
    2.3034    1.1219    1.1385 H   0  0  0  0  0  0  0  0  0  0  0  0
    2.7081    1.2167   -0.6667 H   0  0  0  0  0  0  0  0  0  0  0  0
    3.6836    0.2509    0.4508 H   0  0  0  0  0  0  0  0  0  0  0  0
    2.0809   -1.1412   -0.9537 H   0  0  0  0  0  0  0  0  0  0  0  0
    1.8336   -1.3540    0.8284 H   0  0  0  0  0  0  0  0  0  0  0  0
    0.7359    1.8093    0.0322 H   0  0  0  0  0  0  0  0  0  0  0  0
   -1.5988    2.3806    0.1232 H   0  0  0  0  0  0  0  0  0  0  0  0
   -1.6530    1.4331   -1.4380 H   0  0  0  0  0  0  0  0  0  0  0  0
   -2.6193   -1.7829    0.3635 H   0  0  0  0  0  0  0  0  0  0  0  0
   -1.3663   -1.1022    1.5181 H   0  0  0  0  0  0  0  0  0  0  0  0
   -1.0198   -1.2381   -1.5257 H   0  0  0  0  0  0  0  0  0  0  0  0
   -0.2346   -2.3057   -0.3443 H   0  0  0  0  0  0  0  0  0  0  0  0
  1  2  1  0
  2  3  1  0
  3  4  2  0
  4  5  1  0
  5  6  1  0
  6  7  2  0
  6  8  1  0
  8  9  1  0
  9  3  1  0
  1 10  1  0
  1 11  1  0
  1 12  1  0
  2 13  1  0
  2 14  1  0
  4 15  1  0
  5 16  1  0
  5 17  1  0
  8 18  1  0
  8 19  1  0
  9 20  1  0
  9 21  1  0
M  END
