
     RDKit          3D

 21 21  0  0  0  0  0  0  0  0999 V2000
   -1.5994    1.4559    0.0474 C   0  0  0  0  0  0  0  0  0  0  0  0
   -1.5913    0.2728   -0.8539 C   0  0  0  0  0  0  0  0  0  0  0  0
   -0.5570   -0.7651   -0.5782 C   0  0  0  0  0  0  0  0  0  0  0  0
    0.9033   -0.4915   -0.6207 C   0  0  0  0  0  0  0  0  0  0  0  0
    1.4145    0.5458    0.3253 C   0  0  0  0  0  0  0  0  0  0  0  0
    2.8981    0.6166    0.0974 C   0  0  0  0  0  0  0  0  0  0  0  0
    3.6427   -0.2185    0.5678 O   0  0  0  0  0  0  0  0  0  0  0  0
   -1.0013   -1.9906    0.0844 C   0  0  0  0  0  0  0  0  0  0  0  0
   -0.8798   -1.9783   -1.3743 O   0  0  0  0  0  0  0  0  0  0  0  0
   -1.1879    2.3784   -0.4188 H   0  0  0  0  0  0  0  0  0  0  0  0
   -2.6797    1.7071    0.2763 H   0  0  0  0  0  0  0  0  0  0  0  0
   -1.1539    1.1952    1.0213 H   0  0  0  0  0  0  0  0  0  0  0  0
   -1.4570    0.5750   -1.9366 H   0  0  0  0  0  0  0  0  0  0  0  0
   -2.6091   -0.2059   -0.8191 H   0  0  0  0  0  0  0  0  0  0  0  0
    1.2522   -0.1677   -1.6475 H   0  0  0  0  0  0  0  0  0  0  0  0
    1.5179   -1.4180   -0.4309 H   0  0  0  0  0  0  0  0  0  0  0  0
    1.1866    0.3725    1.3764 H   0  0  0  0  0  0  0  0  0  0  0  0
    0.9750    1.5312    0.0273 H   0  0  0  0  0  0  0  0  0  0  0  0
    3.3007    1.4227   -0.4930 H   0  0  0  0  0  0  0  0  0  0  0  0
   -0.3084   -2.7315    0.4897 H   0  0  0  0  0  0  0  0  0  0  0  0
   -2.0664   -2.1061    0.3653 H   0  0  0  0  0  0  0  0  0  0  0  0
  1  2  1  0
  2  3  1  0
  3  4  1  0
  4  5  1  0
  5  6  1  0
  6  7  2  0
  3  8  1  0
  8  9  1  0
  9  3  1  0
  1 10  1  0
  1 11  1  0
  1 12  1  0
  2 13  1  0
  2 14  1  0
  4 15  1  0
  4 16  1  0
  5 17  1  0
  5 18  1  0
  6 19  1  0
  8 20  1  0
  8 21  1  0
M  END
