
     RDKit          3D

 23 23  0  0  0  0  0  0  0  0999 V2000
    2.8828   -0.2124   -0.2015 C   0  0  0  0  0  0  0  0  0  0  0  0
    1.7370    0.7333   -0.2193 C   0  0  0  0  0  0  0  0  0  0  0  0
    0.4526    0.1580    0.3012 C   0  0  0  0  0  0  0  0  0  0  0  0
   -0.6605    1.1842    0.2482 C   0  0  0  0  0  0  0  0  0  0  0  0
   -1.8760    0.2931    0.4299 C   0  0  0  0  0  0  0  0  0  0  0  0
   -3.0608    0.9617    0.1715 O   0  0  0  0  0  0  0  0  0  0  0  0
   -1.5857   -0.7783   -0.6007 C   0  0  0  0  0  0  0  0  0  0  0  0
   -2.2785   -1.9534   -0.3506 O   0  0  0  0  0  0  0  0  0  0  0  0
   -0.0841   -0.9679   -0.5209 C   0  0  0  0  0  0  0  0  0  0  0  0
    3.8253    0.3961   -0.1382 H   0  0  0  0  0  0  0  0  0  0  0  0
    2.9814   -0.8117   -1.1288 H   0  0  0  0  0  0  0  0  0  0  0  0
    2.9077   -0.8887    0.6674 H   0  0  0  0  0  0  0  0  0  0  0  0
    1.6045    1.1563   -1.2225 H   0  0  0  0  0  0  0  0  0  0  0  0
    1.9954    1.5939    0.4558 H   0  0  0  0  0  0  0  0  0  0  0  0
    0.5322   -0.1633    1.3577 H   0  0  0  0  0  0  0  0  0  0  0  0
   -0.5704    1.9411    1.0451 H   0  0  0  0  0  0  0  0  0  0  0  0
   -0.6867    1.6125   -0.7648 H   0  0  0  0  0  0  0  0  0  0  0  0
   -1.8314   -0.0893    1.4691 H   0  0  0  0  0  0  0  0  0  0  0  0
   -2.9931    1.6432   -0.5196 H   0  0  0  0  0  0  0  0  0  0  0  0
   -1.8901   -0.3733   -1.5872 H   0  0  0  0  0  0  0  0  0  0  0  0
   -1.8254   -2.5051    0.3491 H   0  0  0  0  0  0  0  0  0  0  0  0
    0.3523   -0.9796   -1.5384 H   0  0  0  0  0  0  0  0  0  0  0  0
    0.0716   -1.9504    0.0128 H   0  0  0  0  0  0  0  0  0  0  0  0
  1  2  1  0
  2  3  1  0
  3  4  1  0
  4  5  1  0
  5  6  1  0
  5  7  1  0
  7  8  1  0
  7  9  1  0
  9  3  1  0
  1 10  1  0
  1 11  1  0
  1 12  1  0
  2 13  1  0
  2 14  1  0
  3 15  1  0
  4 16  1  0
  4 17  1  0
  5 18  1  0
  6 19  1  0
  7 20  1  0
  8 21  1  0
  9 22  1  0
  9 23  1  0
M  END
