
     RDKit          3D

 23 23  0  0  0  0  0  0  0  0999 V2000
   -1.9180   -1.2820    0.5660 C   0  0  0  0  0  0  0  0  0  0  0  0
   -1.5051    0.1340    0.3800 C   0  0  0  0  0  0  0  0  0  0  0  0
   -0.0427    0.3279    0.1107 C   0  0  0  0  0  0  0  0  0  0  0  0
    0.1500    1.8390   -0.0448 C   0  0  0  0  0  0  0  0  0  0  0  0
   -0.6076    2.1868   -1.1831 O   0  0  0  0  0  0  0  0  0  0  0  0
    0.4810   -0.4025   -1.0631 C   0  0  0  0  0  0  0  0  0  0  0  0
    1.5165   -1.3302   -0.4289 C   0  0  0  0  0  0  0  0  0  0  0  0
    1.9611   -0.4321    0.7325 C   0  0  0  0  0  0  0  0  0  0  0  0
    0.6943   -0.0430    1.2271 O   0  0  0  0  0  0  0  0  0  0  0  0
   -2.1454   -1.8052   -0.4040 H   0  0  0  0  0  0  0  0  0  0  0  0
   -2.9111   -1.2685    1.1050 H   0  0  0  0  0  0  0  0  0  0  0  0
   -1.2310   -1.8550    1.2017 H   0  0  0  0  0  0  0  0  0  0  0  0
   -1.7231    0.6735    1.3476 H   0  0  0  0  0  0  0  0  0  0  0  0
   -2.1442    0.6156   -0.3862 H   0  0  0  0  0  0  0  0  0  0  0  0
   -0.3293    2.2981    0.8450 H   0  0  0  0  0  0  0  0  0  0  0  0
    1.2094    2.0994   -0.1549 H   0  0  0  0  0  0  0  0  0  0  0  0
   -0.6388    3.1804   -1.2226 H   0  0  0  0  0  0  0  0  0  0  0  0
   -0.2428   -0.9322   -1.6752 H   0  0  0  0  0  0  0  0  0  0  0  0
    1.0800    0.3062   -1.7034 H   0  0  0  0  0  0  0  0  0  0  0  0
    2.3359   -1.5650   -1.1037 H   0  0  0  0  0  0  0  0  0  0  0  0
    1.0053   -2.1949    0.0192 H   0  0  0  0  0  0  0  0  0  0  0  0
    2.5044    0.4579    0.3520 H   0  0  0  0  0  0  0  0  0  0  0  0
    2.5011   -1.0085    1.4834 H   0  0  0  0  0  0  0  0  0  0  0  0
  1  2  1  0
  2  3  1  0
  3  4  1  0
  4  5  1  0
  3  6  1  0
  6  7  1  0
  7  8  1  0
  8  9  1  0
  9  3  1  0
  1 10  1  0
  1 11  1  0
  1 12  1  0
  2 13  1  0
  2 14  1  0
  4 15  1  0
  4 16  1  0
  5 17  1  0
  6 18  1  0
  6 19  1  0
  7 20  1  0
  7 21  1  0
  8 22  1  0
  8 23  1  0
M  END
