
     RDKit          3D

 23 24  0  0  0  0  0  0  0  0999 V2000
   -2.1950   -0.9870    0.5783 C   0  0  0  0  0  0  0  0  0  0  0  0
   -1.4722   -0.3539   -0.5611 C   0  0  0  0  0  0  0  0  0  0  0  0
   -0.2038    0.3061   -0.2672 C   0  0  0  0  0  0  0  0  0  0  0  0
   -0.2978    1.4364    0.7165 C   0  0  0  0  0  0  0  0  0  0  0  0
    1.0710    1.0039    1.2485 C   0  0  0  0  0  0  0  0  0  0  0  0
    0.8692   -0.2964    0.5046 C   0  0  0  0  0  0  0  0  0  0  0  0
    1.7666   -0.3303   -0.7045 C   0  0  0  0  0  0  0  0  0  0  0  0
    1.9531   -1.6070   -1.2534 O   0  0  0  0  0  0  0  0  0  0  0  0
    0.7150    0.4971   -1.4277 C   0  0  0  0  0  0  0  0  0  0  0  0
   -1.5931   -1.2100    1.4564 H   0  0  0  0  0  0  0  0  0  0  0  0
   -3.0631   -0.3667    0.9144 H   0  0  0  0  0  0  0  0  0  0  0  0
   -2.6580   -1.9626    0.2570 H   0  0  0  0  0  0  0  0  0  0  0  0
   -2.1612    0.3725   -1.0421 H   0  0  0  0  0  0  0  0  0  0  0  0
   -1.2993   -1.1446   -1.3487 H   0  0  0  0  0  0  0  0  0  0  0  0
   -0.3191    2.4166    0.2394 H   0  0  0  0  0  0  0  0  0  0  0  0
   -1.0521    1.2282    1.4808 H   0  0  0  0  0  0  0  0  0  0  0  0
    1.1092    0.9363    2.3430 H   0  0  0  0  0  0  0  0  0  0  0  0
    1.8337    1.6850    0.8150 H   0  0  0  0  0  0  0  0  0  0  0  0
    0.7492   -1.1929    1.0785 H   0  0  0  0  0  0  0  0  0  0  0  0
    2.6991    0.2661   -0.6320 H   0  0  0  0  0  0  0  0  0  0  0  0
    2.1960   -2.2088   -0.5014 H   0  0  0  0  0  0  0  0  0  0  0  0
    0.3824   -0.0436   -2.3334 H   0  0  0  0  0  0  0  0  0  0  0  0
    0.9702    1.5556   -1.5608 H   0  0  0  0  0  0  0  0  0  0  0  0
  1  2  1  0
  2  3  1  0
  3  4  1  0
  4  5  1  0
  5  6  1  0
  6  7  1  0
  7  8  1  0
  7  9  1  0
  6  3  1  0
  9  3  1  0
  1 10  1  0
  1 11  1  0
  1 12  1  0
  2 13  1  0
  2 14  1  0
  4 15  1  0
  4 16  1  0
  5 17  1  0
  5 18  1  0
  6 19  1  0
  7 20  1  0
  8 21  1  0
  9 22  1  0
  9 23  1  0
M  END
