
     RDKit          3D

 23 23  0  0  0  0  0  0  0  0999 V2000
    2.8837    0.6630   -0.3236 C   0  0  0  0  0  0  0  0  0  0  0  0
    2.1129   -0.4450    0.3479 C   0  0  0  0  0  0  0  0  0  0  0  0
    0.6449   -0.2796    0.1453 C   0  0  0  0  0  0  0  0  0  0  0  0
    0.2048    0.7575   -0.5583 C   0  0  0  0  0  0  0  0  0  0  0  0
   -1.2385    1.0158   -0.8198 C   0  0  0  0  0  0  0  0  0  0  0  0
   -2.0219    0.2305    0.2045 C   0  0  0  0  0  0  0  0  0  0  0  0
   -3.3826    0.3630    0.0793 O   0  0  0  0  0  0  0  0  0  0  0  0
   -1.5664   -1.2271    0.0444 C   0  0  0  0  0  0  0  0  0  0  0  0
   -0.2355   -1.3118    0.7607 C   0  0  0  0  0  0  0  0  0  0  0  0
    3.9701    0.4847   -0.0779 H   0  0  0  0  0  0  0  0  0  0  0  0
    2.5627    1.6163    0.1880 H   0  0  0  0  0  0  0  0  0  0  0  0
    2.7367    0.6985   -1.4033 H   0  0  0  0  0  0  0  0  0  0  0  0
    2.3930   -1.4275   -0.0565 H   0  0  0  0  0  0  0  0  0  0  0  0
    2.3359   -0.3601    1.4464 H   0  0  0  0  0  0  0  0  0  0  0  0
    0.9045    1.4951   -0.9933 H   0  0  0  0  0  0  0  0  0  0  0  0
   -1.4892    2.0841   -0.7430 H   0  0  0  0  0  0  0  0  0  0  0  0
   -1.4867    0.6077   -1.8426 H   0  0  0  0  0  0  0  0  0  0  0  0
   -1.7216    0.6043    1.2207 H   0  0  0  0  0  0  0  0  0  0  0  0
   -3.6404    1.2259    0.4965 H   0  0  0  0  0  0  0  0  0  0  0  0
   -1.4117   -1.4479   -1.0271 H   0  0  0  0  0  0  0  0  0  0  0  0
   -2.3207   -1.9220    0.4651 H   0  0  0  0  0  0  0  0  0  0  0  0
    0.1994   -2.3226    0.6108 H   0  0  0  0  0  0  0  0  0  0  0  0
   -0.4333   -1.1026    1.8356 H   0  0  0  0  0  0  0  0  0  0  0  0
  1  2  1  0
  2  3  1  0
  3  4  2  0
  4  5  1  0
  5  6  1  0
  6  7  1  0
  6  8  1  0
  8  9  1  0
  9  3  1  0
  1 10  1  0
  1 11  1  0
  1 12  1  0
  2 13  1  0
  2 14  1  0
  4 15  1  0
  5 16  1  0
  5 17  1  0
  6 18  1  0
  7 19  1  0
  8 20  1  0
  8 21  1  0
  9 22  1  0
  9 23  1  0
M  END
