
     RDKit          3D

 23 24  0  0  0  0  0  0  0  0999 V2000
    2.5494   -0.2891    0.3589 C   0  0  0  0  0  0  0  0  0  0  0  0
    1.1650   -0.0162    0.9659 C   0  0  0  0  0  0  0  0  0  0  0  0
    0.3778    0.6870   -0.0918 C   0  0  0  0  0  0  0  0  0  0  0  0
    0.1716   -0.0435   -1.3754 C   0  0  0  0  0  0  0  0  0  0  0  0
   -0.3664   -1.4076   -1.0206 C   0  0  0  0  0  0  0  0  0  0  0  0
   -1.4140   -0.9378    0.0123 C   0  0  0  0  0  0  0  0  0  0  0  0
   -1.1003    0.5393   -0.0790 C   0  0  0  0  0  0  0  0  0  0  0  0
   -1.9335    1.4830    0.6592 C   0  0  0  0  0  0  0  0  0  0  0  0
   -1.0353    0.6909   -1.4868 O   0  0  0  0  0  0  0  0  0  0  0  0
    3.1251   -1.0037    0.9522 H   0  0  0  0  0  0  0  0  0  0  0  0
    2.3379   -0.6584   -0.6750 H   0  0  0  0  0  0  0  0  0  0  0  0
    3.0313    0.6987    0.2344 H   0  0  0  0  0  0  0  0  0  0  0  0
    1.3177    0.6584    1.8331 H   0  0  0  0  0  0  0  0  0  0  0  0
    0.7280   -0.9392    1.3433 H   0  0  0  0  0  0  0  0  0  0  0  0
    0.6894    1.7155   -0.2144 H   0  0  0  0  0  0  0  0  0  0  0  0
    0.8719    0.0498   -2.1739 H   0  0  0  0  0  0  0  0  0  0  0  0
   -0.8475   -1.8981   -1.8703 H   0  0  0  0  0  0  0  0  0  0  0  0
    0.3726   -2.0543   -0.5345 H   0  0  0  0  0  0  0  0  0  0  0  0
   -2.4207   -1.1371   -0.4040 H   0  0  0  0  0  0  0  0  0  0  0  0
   -1.2324   -1.3738    0.9939 H   0  0  0  0  0  0  0  0  0  0  0  0
   -1.9122    2.4779    0.1427 H   0  0  0  0  0  0  0  0  0  0  0  0
   -1.5190    1.6489    1.6720 H   0  0  0  0  0  0  0  0  0  0  0  0
   -2.9563    1.1094    0.7577 H   0  0  0  0  0  0  0  0  0  0  0  0
  1  2  1  0
  2  3  1  0
  3  4  1  0
  4  5  1  0
  5  6  1  0
  6  7  1  0
  7  8  1  0
  7  9  1  0
  7  3  1  0
  9  4  1  0
  1 10  1  0
  1 11  1  0
  1 12  1  0
  2 13  1  0
  2 14  1  0
  3 15  1  0
  4 16  1  0
  5 17  1  0
  5 18  1  0
  6 19  1  0
  6 20  1  0
  8 21  1  0
  8 22  1  0
  8 23  1  0
M  END
