
     RDKit          3D

 21 23  0  0  0  0  0  0  0  0999 V2000
    2.3863   -0.3608    0.4489 C   0  0  0  0  0  0  0  0  0  0  0  0
    1.1029    0.1785    1.0530 C   0  0  0  0  0  0  0  0  0  0  0  0
    0.0744    0.3378   -0.0221 C   0  0  0  0  0  0  0  0  0  0  0  0
    0.3006    1.2339   -1.1928 C   0  0  0  0  0  0  0  0  0  0  0  0
   -0.6973    1.5949   -0.1927 C   0  0  0  0  0  0  0  0  0  0  0  0
   -1.9661    0.7359   -0.1703 C   0  0  0  0  0  0  0  0  0  0  0  0
   -2.1842    0.1187    1.0424 O   0  0  0  0  0  0  0  0  0  0  0  0
   -1.2550   -0.3936    0.1096 C   0  0  0  0  0  0  0  0  0  0  0  0
   -1.3844   -1.8007   -0.3384 C   0  0  0  0  0  0  0  0  0  0  0  0
    2.1189   -0.8709   -0.4868 H   0  0  0  0  0  0  0  0  0  0  0  0
    2.8063   -1.1161    1.1504 H   0  0  0  0  0  0  0  0  0  0  0  0
    3.1060    0.4639    0.2737 H   0  0  0  0  0  0  0  0  0  0  0  0
    1.2917    1.1006    1.6340 H   0  0  0  0  0  0  0  0  0  0  0  0
    0.7012   -0.5951    1.7696 H   0  0  0  0  0  0  0  0  0  0  0  0
   -0.0051    0.8641   -2.2141 H   0  0  0  0  0  0  0  0  0  0  0  0
    1.2484    1.7729   -1.1956 H   0  0  0  0  0  0  0  0  0  0  0  0
   -0.6170    2.4423    0.4813 H   0  0  0  0  0  0  0  0  0  0  0  0
   -2.7529    0.9142   -0.8903 H   0  0  0  0  0  0  0  0  0  0  0  0
   -2.0838   -1.9517   -1.1951 H   0  0  0  0  0  0  0  0  0  0  0  0
   -1.7901   -2.4141    0.5128 H   0  0  0  0  0  0  0  0  0  0  0  0
   -0.4007   -2.2546   -0.5773 H   0  0  0  0  0  0  0  0  0  0  0  0
  1  2  1  0
  2  3  1  0
  3  4  1  0
  4  5  1  0
  5  6  1  0
  6  7  1  0
  7  8  1  0
  8  9  1  0
  5  3  1  0
  8  6  1  0
  8  3  1  0
  1 10  1  0
  1 11  1  0
  1 12  1  0
  2 13  1  0
  2 14  1  0
  4 15  1  0
  4 16  1  0
  5 17  1  0
  6 18  1  0
  9 19  1  0
  9 20  1  0
  9 21  1  0
M  END
