
     RDKit          3D

 23 24  0  0  0  0  0  0  0  0999 V2000
   -2.6744    0.0190   -0.6981 C   0  0  0  0  0  0  0  0  0  0  0  0
   -1.7159   -0.4668    0.3652 C   0  0  0  0  0  0  0  0  0  0  0  0
   -0.6306    0.5630    0.5453 C   0  0  0  0  0  0  0  0  0  0  0  0
    0.0782    0.7229   -0.7761 C   0  0  0  0  0  0  0  0  0  0  0  0
    1.5360    0.7432   -0.4492 C   0  0  0  0  0  0  0  0  0  0  0  0
    2.3537   -0.4237   -0.8972 C   0  0  0  0  0  0  0  0  0  0  0  0
    1.9064   -1.1601    0.2164 O   0  0  0  0  0  0  0  0  0  0  0  0
    1.7140    0.0402    0.8691 C   0  0  0  0  0  0  0  0  0  0  0  0
    0.3853    0.1757    1.5685 C   0  0  0  0  0  0  0  0  0  0  0  0
   -2.7239    1.1418   -0.6873 H   0  0  0  0  0  0  0  0  0  0  0  0
   -2.3847   -0.3004   -1.7160 H   0  0  0  0  0  0  0  0  0  0  0  0
   -3.7088   -0.3778   -0.5233 H   0  0  0  0  0  0  0  0  0  0  0  0
   -1.1983   -1.4092    0.0172 H   0  0  0  0  0  0  0  0  0  0  0  0
   -2.2230   -0.7157    1.3202 H   0  0  0  0  0  0  0  0  0  0  0  0
   -1.1123    1.5259    0.8734 H   0  0  0  0  0  0  0  0  0  0  0  0
   -0.1903   -0.0707   -1.5092 H   0  0  0  0  0  0  0  0  0  0  0  0
   -0.1930    1.7154   -1.1886 H   0  0  0  0  0  0  0  0  0  0  0  0
    2.0493    1.7208   -0.5469 H   0  0  0  0  0  0  0  0  0  0  0  0
    3.4490   -0.1591   -0.8158 H   0  0  0  0  0  0  0  0  0  0  0  0
    2.0889   -0.9071   -1.8384 H   0  0  0  0  0  0  0  0  0  0  0  0
    2.5885    0.3929    1.4306 H   0  0  0  0  0  0  0  0  0  0  0  0
    0.0852   -0.7481    2.1071 H   0  0  0  0  0  0  0  0  0  0  0  0
    0.5206    0.9917    2.3332 H   0  0  0  0  0  0  0  0  0  0  0  0
  1  2  1  0
  2  3  1  0
  3  4  1  0
  4  5  1  0
  5  6  1  0
  6  7  1  0
  7  8  1  0
  8  9  1  0
  9  3  1  0
  8  5  1  0
  1 10  1  0
  1 11  1  0
  1 12  1  0
  2 13  1  0
  2 14  1  0
  3 15  1  0
  4 16  1  0
  4 17  1  0
  5 18  1  0
  6 19  1  0
  6 20  1  0
  8 21  1  0
  9 22  1  0
  9 23  1  0
M  END
