
     RDKit          3D

 23 24  0  0  0  0  0  0  0  0999 V2000
    3.1167   -0.2732   -0.3174 C   0  0  0  0  0  0  0  0  0  0  0  0
    1.7387   -0.8776   -0.4459 C   0  0  0  0  0  0  0  0  0  0  0  0
    0.8660   -0.3560    0.6476 C   0  0  0  0  0  0  0  0  0  0  0  0
    0.5739    1.0801    0.8157 C   0  0  0  0  0  0  0  0  0  0  0  0
   -0.4932    0.0712    0.3338 C   0  0  0  0  0  0  0  0  0  0  0  0
   -1.0168    0.3293   -1.0226 C   0  0  0  0  0  0  0  0  0  0  0  0
   -2.5123    0.2271   -0.8633 C   0  0  0  0  0  0  0  0  0  0  0  0
   -2.6987   -0.2555    0.5279 C   0  0  0  0  0  0  0  0  0  0  0  0
   -1.5037   -0.2675    1.1795 O   0  0  0  0  0  0  0  0  0  0  0  0
    3.2180    0.2249    0.6750 H   0  0  0  0  0  0  0  0  0  0  0  0
    3.2695    0.5277   -1.0745 H   0  0  0  0  0  0  0  0  0  0  0  0
    3.9160   -1.0412   -0.3507 H   0  0  0  0  0  0  0  0  0  0  0  0
    1.3441   -0.7166   -1.4645 H   0  0  0  0  0  0  0  0  0  0  0  0
    1.8448   -1.9748   -0.3220 H   0  0  0  0  0  0  0  0  0  0  0  0
    0.9999   -0.9146    1.6214 H   0  0  0  0  0  0  0  0  0  0  0  0
    0.3499    1.4871    1.7969 H   0  0  0  0  0  0  0  0  0  0  0  0
    0.9152    1.8397    0.0797 H   0  0  0  0  0  0  0  0  0  0  0  0
   -0.7969    1.3716   -1.3335 H   0  0  0  0  0  0  0  0  0  0  0  0
   -0.6276   -0.3348   -1.8196 H   0  0  0  0  0  0  0  0  0  0  0  0
   -2.8686   -0.5352   -1.6115 H   0  0  0  0  0  0  0  0  0  0  0  0
   -3.0280    1.1576   -1.0915 H   0  0  0  0  0  0  0  0  0  0  0  0
   -3.3727    0.4669    1.0608 H   0  0  0  0  0  0  0  0  0  0  0  0
   -3.2341   -1.2364    0.5167 H   0  0  0  0  0  0  0  0  0  0  0  0
  1  2  1  0
  2  3  1  0
  3  4  1  0
  4  5  1  0
  5  6  1  0
  6  7  1  0
  7  8  1  0
  8  9  1  0
  5  3  1  0
  9  5  1  0
  1 10  1  0
  1 11  1  0
  1 12  1  0
  2 13  1  0
  2 14  1  0
  3 15  1  0
  4 16  1  0
  4 17  1  0
  6 18  1  0
  6 19  1  0
  7 20  1  0
  7 21  1  0
  8 22  1  0
  8 23  1  0
M  END
