
     RDKit          3D

 21 22  0  0  0  0  0  0  0  0999 V2000
    2.4835    0.5271   -0.1232 C   0  0  0  0  0  0  0  0  0  0  0  0
    1.7700   -0.7394   -0.4477 C   0  0  0  0  0  0  0  0  0  0  0  0
    0.2920   -0.6901   -0.3379 C   0  0  0  0  0  0  0  0  0  0  0  0
   -0.2874   -0.3606    0.9689 C   0  0  0  0  0  0  0  0  0  0  0  0
    0.4678    0.1741    2.0028 O   0  0  0  0  0  0  0  0  0  0  0  0
   -0.4406    0.5895   -0.2189 C   0  0  0  0  0  0  0  0  0  0  0  0
   -1.8375    0.7663   -0.6818 C   0  0  0  0  0  0  0  0  0  0  0  0
   -2.9801    0.0020   -0.1816 C   0  0  0  0  0  0  0  0  0  0  0  0
   -2.4410   -0.1670   -1.5147 O   0  0  0  0  0  0  0  0  0  0  0  0
    2.1627    1.3212   -0.8416 H   0  0  0  0  0  0  0  0  0  0  0  0
    2.4119    0.8650    0.9082 H   0  0  0  0  0  0  0  0  0  0  0  0
    3.5747    0.3479   -0.3223 H   0  0  0  0  0  0  0  0  0  0  0  0
    2.1177   -1.0662   -1.4669 H   0  0  0  0  0  0  0  0  0  0  0  0
    2.1495   -1.5292    0.2539 H   0  0  0  0  0  0  0  0  0  0  0  0
   -0.2373   -1.4717   -0.9451 H   0  0  0  0  0  0  0  0  0  0  0  0
   -1.1421   -0.9463    1.3090 H   0  0  0  0  0  0  0  0  0  0  0  0
    0.7223   -0.4635    2.6873 H   0  0  0  0  0  0  0  0  0  0  0  0
    0.2211    1.4907   -0.2423 H   0  0  0  0  0  0  0  0  0  0  0  0
   -2.0912    1.8177   -1.0149 H   0  0  0  0  0  0  0  0  0  0  0  0
   -2.9343   -0.9450    0.3517 H   0  0  0  0  0  0  0  0  0  0  0  0
   -3.9817    0.4775   -0.1429 H   0  0  0  0  0  0  0  0  0  0  0  0
  1  2  1  0
  2  3  1  0
  3  4  1  0
  4  5  1  0
  4  6  1  0
  6  7  1  0
  7  8  1  0
  8  9  1  0
  6  3  1  0
  9  7  1  0
  1 10  1  0
  1 11  1  0
  1 12  1  0
  2 13  1  0
  2 14  1  0
  3 15  1  0
  4 16  1  0
  5 17  1  0
  6 18  1  0
  7 19  1  0
  8 20  1  0
  8 21  1  0
M  END
