
     RDKit          3D

 23 23  0  0  0  0  0  0  0  0999 V2000
   -2.4443    0.9834    0.1195 C   0  0  0  0  0  0  0  0  0  0  0  0
   -2.1838   -0.4230   -0.3475 C   0  0  0  0  0  0  0  0  0  0  0  0
   -0.7502   -0.7659    0.0802 C   0  0  0  0  0  0  0  0  0  0  0  0
    0.3528    0.0901   -0.4596 C   0  0  0  0  0  0  0  0  0  0  0  0
    1.6735   -0.3601    0.0299 C   0  0  0  0  0  0  0  0  0  0  0  0
    2.8278    0.4584   -0.5179 C   0  0  0  0  0  0  0  0  0  0  0  0
    2.7491    1.7854   -0.1895 O   0  0  0  0  0  0  0  0  0  0  0  0
   -0.6016   -1.3083    1.4724 C   0  0  0  0  0  0  0  0  0  0  0  0
   -0.4724   -2.1149    0.3147 O   0  0  0  0  0  0  0  0  0  0  0  0
   -1.7316    1.2929    0.9201 H   0  0  0  0  0  0  0  0  0  0  0  0
   -3.4599    1.0977    0.5533 H   0  0  0  0  0  0  0  0  0  0  0  0
   -2.2877    1.7222   -0.7142 H   0  0  0  0  0  0  0  0  0  0  0  0
   -2.3148   -0.4782   -1.4276 H   0  0  0  0  0  0  0  0  0  0  0  0
   -2.8452   -1.0955    0.1995 H   0  0  0  0  0  0  0  0  0  0  0  0
    0.1015    1.1402   -0.1813 H   0  0  0  0  0  0  0  0  0  0  0  0
    0.3234   -0.0238   -1.5677 H   0  0  0  0  0  0  0  0  0  0  0  0
    1.6884   -0.2657    1.1549 H   0  0  0  0  0  0  0  0  0  0  0  0
    1.8249   -1.4243   -0.2248 H   0  0  0  0  0  0  0  0  0  0  0  0
    2.8436    0.3727   -1.6235 H   0  0  0  0  0  0  0  0  0  0  0  0
    3.7748    0.0339   -0.1215 H   0  0  0  0  0  0  0  0  0  0  0  0
    2.2177    1.9312    0.6561 H   0  0  0  0  0  0  0  0  0  0  0  0
    0.2726   -1.1824    2.0960 H   0  0  0  0  0  0  0  0  0  0  0  0
   -1.5587   -1.4660    2.0279 H   0  0  0  0  0  0  0  0  0  0  0  0
  1  2  1  0
  2  3  1  0
  3  4  1  0
  4  5  1  0
  5  6  1  0
  6  7  1  0
  3  8  1  0
  8  9  1  0
  9  3  1  0
  1 10  1  0
  1 11  1  0
  1 12  1  0
  2 13  1  0
  2 14  1  0
  4 15  1  0
  4 16  1  0
  5 17  1  0
  5 18  1  0
  6 19  1  0
  6 20  1  0
  7 21  1  0
  8 22  1  0
  8 23  1  0
M  END
