
     RDKit          3D

 19 21  0  0  0  0  0  0  0  0999 V2000
    2.3610    0.0450   -0.4037 C   0  0  0  0  0  0  0  0  0  0  0  0
    1.2388   -0.3206    0.5809 C   0  0  0  0  0  0  0  0  0  0  0  0
    0.0561    0.2915    0.2290 C   0  0  0  0  0  0  0  0  0  0  0  0
   -0.1478    1.6725    0.1332 O   0  0  0  0  0  0  0  0  0  0  0  0
   -1.4094    1.2031   -0.1693 C   0  0  0  0  0  0  0  0  0  0  0  0
   -0.7406    0.1551   -0.9968 C   0  0  0  0  0  0  0  0  0  0  0  0
   -1.5831   -1.0546   -0.7592 C   0  0  0  0  0  0  0  0  0  0  0  0
   -1.8683   -0.9258    0.6222 O   0  0  0  0  0  0  0  0  0  0  0  0
   -1.2456    0.2482    0.9674 C   0  0  0  0  0  0  0  0  0  0  0  0
    3.3319   -0.3092   -0.0106 H   0  0  0  0  0  0  0  0  0  0  0  0
    2.3668    1.1497   -0.4583 H   0  0  0  0  0  0  0  0  0  0  0  0
    2.1120   -0.3842   -1.3984 H   0  0  0  0  0  0  0  0  0  0  0  0
    1.6465   -0.0392    1.5801 H   0  0  0  0  0  0  0  0  0  0  0  0
    1.2172   -1.4295    0.5794 H   0  0  0  0  0  0  0  0  0  0  0  0
   -2.2307    1.7424   -0.4060 H   0  0  0  0  0  0  0  0  0  0  0  0
   -0.3646    0.3809   -1.9619 H   0  0  0  0  0  0  0  0  0  0  0  0
   -0.9508   -1.9572   -0.8636 H   0  0  0  0  0  0  0  0  0  0  0  0
   -2.4958   -1.0735   -1.3668 H   0  0  0  0  0  0  0  0  0  0  0  0
   -1.2935    0.6055    1.9758 H   0  0  0  0  0  0  0  0  0  0  0  0
  1  2  1  0
  2  3  1  0
  3  4  1  0
  4  5  1  0
  5  6  1  0
  6  7  1  0
  7  8  1  0
  8  9  1  0
  6  3  1  0
  9  3  1  0
  9  5  1  0
  1 10  1  0
  1 11  1  0
  1 12  1  0
  2 13  1  0
  2 14  1  0
  5 15  1  0
  6 16  1  0
  7 17  1  0
  7 18  1  0
  9 19  1  0
M  END
