
     RDKit          3D

 23 23  0  0  0  0  0  0  0  0999 V2000
    3.2404    0.0423    0.2749 C   0  0  0  0  0  0  0  0  0  0  0  0
    1.9961    0.5930   -0.4120 C   0  0  0  0  0  0  0  0  0  0  0  0
    0.8252    0.2425    0.4527 C   0  0  0  0  0  0  0  0  0  0  0  0
   -0.5218    0.7067   -0.0616 C   0  0  0  0  0  0  0  0  0  0  0  0
   -1.0787   -0.5969    0.5272 C   0  0  0  0  0  0  0  0  0  0  0  0
   -2.1456   -1.2205   -0.2584 C   0  0  0  0  0  0  0  0  0  0  0  0
   -3.3963   -0.4371   -0.4943 C   0  0  0  0  0  0  0  0  0  0  0  0
   -2.0071   -2.3503   -0.7040 O   0  0  0  0  0  0  0  0  0  0  0  0
    0.3089   -1.1873    0.2379 C   0  0  0  0  0  0  0  0  0  0  0  0
    3.2198    0.4380    1.3311 H   0  0  0  0  0  0  0  0  0  0  0  0
    4.1657    0.4132   -0.1684 H   0  0  0  0  0  0  0  0  0  0  0  0
    3.1480   -1.0440    0.3462 H   0  0  0  0  0  0  0  0  0  0  0  0
    1.8901    0.0131   -1.3625 H   0  0  0  0  0  0  0  0  0  0  0  0
    2.0814    1.6599   -0.6337 H   0  0  0  0  0  0  0  0  0  0  0  0
    0.9409    0.4255    1.5193 H   0  0  0  0  0  0  0  0  0  0  0  0
   -0.5869    0.7321   -1.1781 H   0  0  0  0  0  0  0  0  0  0  0  0
   -0.8773    1.5990    0.4602 H   0  0  0  0  0  0  0  0  0  0  0  0
   -1.2487   -0.4832    1.6069 H   0  0  0  0  0  0  0  0  0  0  0  0
   -4.0353   -0.4784    0.4156 H   0  0  0  0  0  0  0  0  0  0  0  0
   -3.0820    0.6163   -0.6781 H   0  0  0  0  0  0  0  0  0  0  0  0
   -3.8939   -0.8292   -1.3856 H   0  0  0  0  0  0  0  0  0  0  0  0
    0.6701   -1.8931    0.9862 H   0  0  0  0  0  0  0  0  0  0  0  0
    0.3870   -1.4694   -0.8214 H   0  0  0  0  0  0  0  0  0  0  0  0
  1  2  1  0
  2  3  1  0
  3  4  1  0
  4  5  1  0
  5  6  1  0
  6  7  1  0
  6  8  2  0
  5  9  1  0
  9  3  1  0
  1 10  1  0
  1 11  1  0
  1 12  1  0
  2 13  1  0
  2 14  1  0
  3 15  1  0
  4 16  1  0
  4 17  1  0
  5 18  1  0
  7 19  1  0
  7 20  1  0
  7 21  1  0
  9 22  1  0
  9 23  1  0
M  END
