
     RDKit          3D

 23 23  0  0  0  0  0  0  0  0999 V2000
   -2.9543    0.6771   -0.3614 C   0  0  0  0  0  0  0  0  0  0  0  0
   -2.1260   -0.0320    0.6689 C   0  0  0  0  0  0  0  0  0  0  0  0
   -0.7015   -0.1828    0.2714 C   0  0  0  0  0  0  0  0  0  0  0  0
   -0.3311    0.3047   -0.9013 C   0  0  0  0  0  0  0  0  0  0  0  0
    1.0395    0.2485   -1.4644 C   0  0  0  0  0  0  0  0  0  0  0  0
    2.0903    0.5923   -0.4457 C   0  0  0  0  0  0  0  0  0  0  0  0
    2.4549   -0.5340    0.4638 C   0  0  0  0  0  0  0  0  0  0  0  0
    1.3875   -1.0008    1.3424 C   0  0  0  0  0  0  0  0  0  0  0  0
    0.0708   -0.8773    1.2991 C   0  0  0  0  0  0  0  0  0  0  0  0
   -3.0070    0.0788   -1.3186 H   0  0  0  0  0  0  0  0  0  0  0  0
   -2.6612    1.7054   -0.5572 H   0  0  0  0  0  0  0  0  0  0  0  0
   -3.9983    0.6908    0.0163 H   0  0  0  0  0  0  0  0  0  0  0  0
   -2.2118    0.5100    1.6203 H   0  0  0  0  0  0  0  0  0  0  0  0
   -2.5326   -1.0525    0.7973 H   0  0  0  0  0  0  0  0  0  0  0  0
   -1.0993    0.7808   -1.4886 H   0  0  0  0  0  0  0  0  0  0  0  0
    1.2400   -0.7732   -1.8417 H   0  0  0  0  0  0  0  0  0  0  0  0
    1.1146    0.9806   -2.2958 H   0  0  0  0  0  0  0  0  0  0  0  0
    1.8009    1.4836    0.1473 H   0  0  0  0  0  0  0  0  0  0  0  0
    3.0051    0.8820   -1.0047 H   0  0  0  0  0  0  0  0  0  0  0  0
    3.2929   -0.1748    1.1079 H   0  0  0  0  0  0  0  0  0  0  0  0
    2.8687   -1.3977   -0.1002 H   0  0  0  0  0  0  0  0  0  0  0  0
    1.7630   -1.5683    2.2126 H   0  0  0  0  0  0  0  0  0  0  0  0
   -0.5052   -1.3411    2.1144 H   0  0  0  0  0  0  0  0  0  0  0  0
  1  2  1  0
  2  3  1  0
  3  4  2  0
  4  5  1  0
  5  6  1  0
  6  7  1  0
  7  8  1  0
  8  9  2  0
  9  3  1  0
  1 10  1  0
  1 11  1  0
  1 12  1  0
  2 13  1  0
  2 14  1  0
  4 15  1  0
  5 16  1  0
  5 17  1  0
  6 18  1  0
  6 19  1  0
  7 20  1  0
  7 21  1  0
  8 22  1  0
  9 23  1  0
M  END
