
     RDKit          3D

 21 22  0  0  0  0  0  0  0  0999 V2000
    1.7783    0.5988    1.6766 C   0  0  0  0  0  0  0  0  0  0  0  0
    1.5183   -0.5904    0.7722 C   0  0  0  0  0  0  0  0  0  0  0  0
    0.0529   -0.5409    0.4175 C   0  0  0  0  0  0  0  0  0  0  0  0
   -0.3292   -1.7202   -0.5121 C   0  0  0  0  0  0  0  0  0  0  0  0
   -1.5065   -1.0839   -1.1572 C   0  0  0  0  0  0  0  0  0  0  0  0
   -1.5148    0.2233   -1.0839 C   0  0  0  0  0  0  0  0  0  0  0  0
   -1.7271    1.7383   -1.1151 C   0  0  0  0  0  0  0  0  0  0  0  0
   -0.8320    1.7513    0.0084 O   0  0  0  0  0  0  0  0  0  0  0  0
   -0.1936    0.6334   -0.4483 C   0  0  0  0  0  0  0  0  0  0  0  0
    1.1652    1.4280    1.2888 H   0  0  0  0  0  0  0  0  0  0  0  0
    2.8479    0.8485    1.7559 H   0  0  0  0  0  0  0  0  0  0  0  0
    1.3600    0.3471    2.6923 H   0  0  0  0  0  0  0  0  0  0  0  0
    1.7971   -1.5496    1.2518 H   0  0  0  0  0  0  0  0  0  0  0  0
    2.1422   -0.4768   -0.1365 H   0  0  0  0  0  0  0  0  0  0  0  0
   -0.5994   -0.5594    1.3069 H   0  0  0  0  0  0  0  0  0  0  0  0
    0.4999   -1.9315   -1.1734 H   0  0  0  0  0  0  0  0  0  0  0  0
   -0.6904   -2.5429    0.1162 H   0  0  0  0  0  0  0  0  0  0  0  0
   -2.3148   -1.6359   -1.6594 H   0  0  0  0  0  0  0  0  0  0  0  0
   -2.7274    2.0438   -0.7723 H   0  0  0  0  0  0  0  0  0  0  0  0
   -1.3197    2.2002   -2.0153 H   0  0  0  0  0  0  0  0  0  0  0  0
    0.5931    0.8188   -1.2133 H   0  0  0  0  0  0  0  0  0  0  0  0
  1  2  1  0
  2  3  1  0
  3  4  1  0
  4  5  1  0
  5  6  2  0
  6  7  1  0
  7  8  1  0
  8  9  1  0
  9  3  1  0
  9  6  1  0
  1 10  1  0
  1 11  1  0
  1 12  1  0
  2 13  1  0
  2 14  1  0
  3 15  1  0
  4 16  1  0
  4 17  1  0
  5 18  1  0
  7 19  1  0
  7 20  1  0
  9 21  1  0
M  END
