
     RDKit          3D

 19 20  0  0  0  0  0  0  0  0999 V2000
    2.2805    0.2258    0.6141 C   0  0  0  0  0  0  0  0  0  0  0  0
    1.3828   -0.8119    0.1046 C   0  0  0  0  0  0  0  0  0  0  0  0
   -0.0489   -0.5189    0.0010 C   0  0  0  0  0  0  0  0  0  0  0  0
   -0.7565   -1.6946   -0.5308 O   0  0  0  0  0  0  0  0  0  0  0  0
   -1.1816   -0.9860    0.5735 C   0  0  0  0  0  0  0  0  0  0  0  0
   -1.9831    0.2601    0.1725 C   0  0  0  0  0  0  0  0  0  0  0  0
   -2.9157   -0.0679   -0.7796 O   0  0  0  0  0  0  0  0  0  0  0  0
   -0.6493    0.7808   -0.3871 C   0  0  0  0  0  0  0  0  0  0  0  0
   -0.2218    1.8325    0.3660 O   0  0  0  0  0  0  0  0  0  0  0  0
    3.0657   -0.2084    1.3031 H   0  0  0  0  0  0  0  0  0  0  0  0
    1.8445    1.0656    1.1440 H   0  0  0  0  0  0  0  0  0  0  0  0
    2.8899    0.6351   -0.2452 H   0  0  0  0  0  0  0  0  0  0  0  0
    1.7295   -1.1894   -0.9045 H   0  0  0  0  0  0  0  0  0  0  0  0
    1.4882   -1.7274    0.7637 H   0  0  0  0  0  0  0  0  0  0  0  0
   -1.3794   -1.4582    1.5301 H   0  0  0  0  0  0  0  0  0  0  0  0
   -2.3843    0.8268    1.0062 H   0  0  0  0  0  0  0  0  0  0  0  0
   -2.5593   -0.5561   -1.5342 H   0  0  0  0  0  0  0  0  0  0  0  0
   -0.7685    1.0193   -1.4392 H   0  0  0  0  0  0  0  0  0  0  0  0
    0.1673    2.5727   -0.1808 H   0  0  0  0  0  0  0  0  0  0  0  0
  1  2  1  0
  2  3  1  0
  3  4  1  0
  4  5  1  0
  5  6  1  0
  6  7  1  0
  6  8  1  0
  8  9  1  0
  5  3  1  0
  8  3  1  0
  1 10  1  0
  1 11  1  0
  1 12  1  0
  2 13  1  0
  2 14  1  0
  5 15  1  0
  6 16  1  0
  7 17  1  0
  8 18  1  0
  9 19  1  0
M  END
