
     RDKit          3D

 25 25  0  0  0  0  0  0  0  0999 V2000
   -2.6674   -0.5585   -0.5799 C   0  0  0  0  0  0  0  0  0  0  0  0
   -1.2935   -0.2228   -1.1617 C   0  0  0  0  0  0  0  0  0  0  0  0
   -0.4723    0.3337   -0.0321 C   0  0  0  0  0  0  0  0  0  0  0  0
   -1.1567    1.5691    0.5009 C   0  0  0  0  0  0  0  0  0  0  0  0
   -0.2713   -0.6970    1.0014 C   0  0  0  0  0  0  0  0  0  0  0  0
    0.9387   -1.1946    0.9219 C   0  0  0  0  0  0  0  0  0  0  0  0
    1.6990   -0.5633   -0.1703 C   0  0  0  0  0  0  0  0  0  0  0  0
    3.0868   -0.2322    0.3943 C   0  0  0  0  0  0  0  0  0  0  0  0
    0.9271    0.7019   -0.4497 C   0  0  0  0  0  0  0  0  0  0  0  0
   -3.3450   -0.9516   -1.3458 H   0  0  0  0  0  0  0  0  0  0  0  0
   -3.0272    0.3534   -0.0809 H   0  0  0  0  0  0  0  0  0  0  0  0
   -2.5836   -1.3371    0.2160 H   0  0  0  0  0  0  0  0  0  0  0  0
   -1.4776    0.5566   -1.9357 H   0  0  0  0  0  0  0  0  0  0  0  0
   -0.8262   -1.0983   -1.6423 H   0  0  0  0  0  0  0  0  0  0  0  0
   -1.8829    1.3340    1.3016 H   0  0  0  0  0  0  0  0  0  0  0  0
   -1.7355    2.0104   -0.3362 H   0  0  0  0  0  0  0  0  0  0  0  0
   -0.4205    2.3435    0.8093 H   0  0  0  0  0  0  0  0  0  0  0  0
   -1.0442   -1.0143    1.7534 H   0  0  0  0  0  0  0  0  0  0  0  0
    1.3378   -1.9942    1.5973 H   0  0  0  0  0  0  0  0  0  0  0  0
    1.7865   -1.2105   -1.0649 H   0  0  0  0  0  0  0  0  0  0  0  0
    3.8383   -0.1657   -0.3877 H   0  0  0  0  0  0  0  0  0  0  0  0
    3.3665   -1.1072    1.0436 H   0  0  0  0  0  0  0  0  0  0  0  0
    3.0123    0.6352    1.0608 H   0  0  0  0  0  0  0  0  0  0  0  0
    0.9167    0.9356   -1.5331 H   0  0  0  0  0  0  0  0  0  0  0  0
    1.2941    1.5741    0.1198 H   0  0  0  0  0  0  0  0  0  0  0  0
  1  2  1  0
  2  3  1  0
  3  4  1  0
  3  5  1  0
  5  6  2  0
  6  7  1  0
  7  8  1  0
  7  9  1  0
  9  3  1  0
  1 10  1  0
  1 11  1  0
  1 12  1  0
  2 13  1  0
  2 14  1  0
  4 15  1  0
  4 16  1  0
  4 17  1  0
  5 18  1  0
  6 19  1  0
  7 20  1  0
  8 21  1  0
  8 22  1  0
  8 23  1  0
  9 24  1  0
  9 25  1  0
M  END
