
     RDKit          3D

 23 24  0  0  0  0  0  0  0  0999 V2000
    2.7201   -0.3947   -0.5194 C   0  0  0  0  0  0  0  0  0  0  0  0
    1.9674    0.8635   -0.7994 C   0  0  0  0  0  0  0  0  0  0  0  0
    0.5304    0.8676   -0.4300 C   0  0  0  0  0  0  0  0  0  0  0  0
    0.0372    0.6576    0.9337 C   0  0  0  0  0  0  0  0  0  0  0  0
   -1.4655    0.7653    1.1045 C   0  0  0  0  0  0  0  0  0  0  0  0
   -1.5989   -0.4651    0.2637 C   0  0  0  0  0  0  0  0  0  0  0  0
   -2.6413   -0.4213   -0.8172 C   0  0  0  0  0  0  0  0  0  0  0  0
   -0.1693   -0.3821   -0.1909 C   0  0  0  0  0  0  0  0  0  0  0  0
    0.5637   -1.5620   -0.1196 O   0  0  0  0  0  0  0  0  0  0  0  0
    3.8228   -0.1650   -0.6420 H   0  0  0  0  0  0  0  0  0  0  0  0
    2.5464   -1.1971   -1.2755 H   0  0  0  0  0  0  0  0  0  0  0  0
    2.6336   -0.7283    0.5231 H   0  0  0  0  0  0  0  0  0  0  0  0
    2.1319    1.1412   -1.8766 H   0  0  0  0  0  0  0  0  0  0  0  0
    2.4817    1.6778   -0.2061 H   0  0  0  0  0  0  0  0  0  0  0  0
   -0.0561    1.6415   -1.0137 H   0  0  0  0  0  0  0  0  0  0  0  0
    0.6572    0.2938    1.7680 H   0  0  0  0  0  0  0  0  0  0  0  0
   -1.8059    1.7189    0.6285 H   0  0  0  0  0  0  0  0  0  0  0  0
   -1.7542    0.6338    2.1617 H   0  0  0  0  0  0  0  0  0  0  0  0
   -1.7599   -1.3527    0.9100 H   0  0  0  0  0  0  0  0  0  0  0  0
   -3.5994   -0.0431   -0.4154 H   0  0  0  0  0  0  0  0  0  0  0  0
   -2.8262   -1.4558   -1.1707 H   0  0  0  0  0  0  0  0  0  0  0  0
   -2.3607    0.2327   -1.6642 H   0  0  0  0  0  0  0  0  0  0  0  0
   -0.0548   -2.3267   -0.1244 H   0  0  0  0  0  0  0  0  0  0  0  0
  1  2  1  0
  2  3  1  0
  3  4  1  0
  4  5  1  0
  5  6  1  0
  6  7  1  0
  6  8  1  0
  8  9  1  0
  8  3  1  0
  8  4  1  0
  1 10  1  0
  1 11  1  0
  1 12  1  0
  2 13  1  0
  2 14  1  0
  3 15  1  0
  4 16  1  0
  5 17  1  0
  5 18  1  0
  6 19  1  0
  7 20  1  0
  7 21  1  0
  7 22  1  0
  9 23  1  0
M  END
