
     RDKit          3D

 21 22  0  0  0  0  0  0  0  0999 V2000
   -2.5207   -0.3497   -0.6464 C   0  0  0  0  0  0  0  0  0  0  0  0
   -1.4148   -0.8508    0.2581 C   0  0  0  0  0  0  0  0  0  0  0  0
   -0.4973    0.2708    0.6867 C   0  0  0  0  0  0  0  0  0  0  0  0
   -1.1195    1.2728    1.3783 O   0  0  0  0  0  0  0  0  0  0  0  0
    0.8312   -0.2111    1.2347 C   0  0  0  0  0  0  0  0  0  0  0  0
    1.4639    0.3707   -0.0338 C   0  0  0  0  0  0  0  0  0  0  0  0
    2.6380   -0.2800   -0.6460 C   0  0  0  0  0  0  0  0  0  0  0  0
    1.2923    1.7580   -0.1007 O   0  0  0  0  0  0  0  0  0  0  0  0
    0.2709    0.8056   -0.4995 C   0  0  0  0  0  0  0  0  0  0  0  0
   -2.7238   -1.0517   -1.4928 H   0  0  0  0  0  0  0  0  0  0  0  0
   -2.2543    0.6594   -0.9987 H   0  0  0  0  0  0  0  0  0  0  0  0
   -3.4632   -0.2727   -0.0560 H   0  0  0  0  0  0  0  0  0  0  0  0
   -1.8637   -1.2802    1.1755 H   0  0  0  0  0  0  0  0  0  0  0  0
   -0.8478   -1.6157   -0.3066 H   0  0  0  0  0  0  0  0  0  0  0  0
   -0.6274    2.1259    1.3267 H   0  0  0  0  0  0  0  0  0  0  0  0
    0.8995   -1.3168    1.2831 H   0  0  0  0  0  0  0  0  0  0  0  0
    1.1963    0.3433    2.1082 H   0  0  0  0  0  0  0  0  0  0  0  0
    2.8793   -1.2063   -0.0746 H   0  0  0  0  0  0  0  0  0  0  0  0
    3.5303    0.3956   -0.4930 H   0  0  0  0  0  0  0  0  0  0  0  0
    2.5345   -0.5669   -1.7039 H   0  0  0  0  0  0  0  0  0  0  0  0
   -0.2037    0.9997   -1.4509 H   0  0  0  0  0  0  0  0  0  0  0  0
  1  2  1  0
  2  3  1  0
  3  4  1  0
  3  5  1  0
  5  6  1  0
  6  7  1  0
  6  8  1  0
  8  9  1  0
  9  3  1  0
  9  6  1  0
  1 10  1  0
  1 11  1  0
  1 12  1  0
  2 13  1  0
  2 14  1  0
  4 15  1  0
  5 16  1  0
  5 17  1  0
  7 18  1  0
  7 19  1  0
  7 20  1  0
  9 21  1  0
M  END
