
     RDKit          3D

 23 23  0  0  0  0  0  0  0  0999 V2000
   -2.4537    0.3804    1.0149 C   0  0  0  0  0  0  0  0  0  0  0  0
   -1.6387   -0.5289    0.1294 C   0  0  0  0  0  0  0  0  0  0  0  0
   -0.6539    0.2012   -0.7064 C   0  0  0  0  0  0  0  0  0  0  0  0
   -1.1939    1.1247   -1.5654 O   0  0  0  0  0  0  0  0  0  0  0  0
    0.4156    0.8873    0.0867 C   0  0  0  0  0  0  0  0  0  0  0  0
    1.4879    0.1331    0.2184 C   0  0  0  0  0  0  0  0  0  0  0  0
    2.7699    0.4401    0.9304 C   0  0  0  0  0  0  0  0  0  0  0  0
    1.2257   -1.1475   -0.4698 C   0  0  0  0  0  0  0  0  0  0  0  0
    0.1829   -0.8116   -1.4842 C   0  0  0  0  0  0  0  0  0  0  0  0
   -1.8416    1.1435    1.5231 H   0  0  0  0  0  0  0  0  0  0  0  0
   -3.2390    0.9007    0.4313 H   0  0  0  0  0  0  0  0  0  0  0  0
   -2.9577   -0.2807    1.7762 H   0  0  0  0  0  0  0  0  0  0  0  0
   -1.1143   -1.3056    0.7086 H   0  0  0  0  0  0  0  0  0  0  0  0
   -2.3363   -1.0550   -0.5466 H   0  0  0  0  0  0  0  0  0  0  0  0
   -1.4364    1.9348   -1.0470 H   0  0  0  0  0  0  0  0  0  0  0  0
    0.3046    1.8851    0.4961 H   0  0  0  0  0  0  0  0  0  0  0  0
    3.6134    0.5213    0.1884 H   0  0  0  0  0  0  0  0  0  0  0  0
    2.7322    1.4026    1.4613 H   0  0  0  0  0  0  0  0  0  0  0  0
    3.0118   -0.3606    1.6545 H   0  0  0  0  0  0  0  0  0  0  0  0
    0.7692   -1.9068    0.2320 H   0  0  0  0  0  0  0  0  0  0  0  0
    2.1526   -1.5693   -0.9181 H   0  0  0  0  0  0  0  0  0  0  0  0
    0.6683   -0.3271   -2.3532 H   0  0  0  0  0  0  0  0  0  0  0  0
   -0.4685   -1.6616   -1.7605 H   0  0  0  0  0  0  0  0  0  0  0  0
  1  2  1  0
  2  3  1  0
  3  4  1  0
  3  5  1  0
  5  6  2  0
  6  7  1  0
  6  8  1  0
  8  9  1  0
  9  3  1  0
  1 10  1  0
  1 11  1  0
  1 12  1  0
  2 13  1  0
  2 14  1  0
  4 15  1  0
  5 16  1  0
  7 17  1  0
  7 18  1  0
  7 19  1  0
  8 20  1  0
  8 21  1  0
  9 22  1  0
  9 23  1  0
M  END
