
     RDKit          3D

 19 20  0  0  0  0  0  0  0  0999 V2000
   -2.5281   -0.3158   -0.0862 C   0  0  0  0  0  0  0  0  0  0  0  0
   -1.3579   -0.5317    0.8692 C   0  0  0  0  0  0  0  0  0  0  0  0
   -0.3515    0.5504    0.6184 C   0  0  0  0  0  0  0  0  0  0  0  0
    0.7729    0.4950    1.4087 O   0  0  0  0  0  0  0  0  0  0  0  0
    1.4661    1.0799    0.3344 C   0  0  0  0  0  0  0  0  0  0  0  0
    1.8734    0.1357   -0.7112 C   0  0  0  0  0  0  0  0  0  0  0  0
    2.3921   -1.1756   -0.2306 C   0  0  0  0  0  0  0  0  0  0  0  0
    1.7930   -1.7271    0.6757 O   0  0  0  0  0  0  0  0  0  0  0  0
    0.4328    0.4389   -0.6514 C   0  0  0  0  0  0  0  0  0  0  0  0
   -2.9915   -1.2782   -0.3927 H   0  0  0  0  0  0  0  0  0  0  0  0
   -2.1064    0.1502   -0.9993 H   0  0  0  0  0  0  0  0  0  0  0  0
   -3.2715    0.3921    0.3384 H   0  0  0  0  0  0  0  0  0  0  0  0
   -0.9411   -1.5435    0.7578 H   0  0  0  0  0  0  0  0  0  0  0  0
   -1.7604   -0.4649    1.8984 H   0  0  0  0  0  0  0  0  0  0  0  0
   -0.8106    1.5744    0.7243 H   0  0  0  0  0  0  0  0  0  0  0  0
    1.5764    2.1612    0.2814 H   0  0  0  0  0  0  0  0  0  0  0  0
    2.4764    0.5953   -1.5497 H   0  0  0  0  0  0  0  0  0  0  0  0
    3.2719   -1.6512   -0.6521 H   0  0  0  0  0  0  0  0  0  0  0  0
    0.0639    1.1149   -1.4723 H   0  0  0  0  0  0  0  0  0  0  0  0
  1  2  1  0
  2  3  1  0
  3  4  1  0
  4  5  1  0
  5  6  1  0
  6  7  1  0
  7  8  2  0
  6  9  1  0
  9  3  1  0
  9  5  1  0
  1 10  1  0
  1 11  1  0
  1 12  1  0
  2 13  1  0
  2 14  1  0
  3 15  1  0
  5 16  1  0
  6 17  1  0
  7 18  1  0
  9 19  1  0
M  END
