
     RDKit          3D

 23 24  0  0  0  0  0  0  0  0999 V2000
    2.7706   -0.0962   -0.9883 C   0  0  0  0  0  0  0  0  0  0  0  0
    1.8208    0.0664    0.1717 C   0  0  0  0  0  0  0  0  0  0  0  0
    0.5088   -0.6249   -0.0582 C   0  0  0  0  0  0  0  0  0  0  0  0
   -0.1969   -0.1894   -1.1506 O   0  0  0  0  0  0  0  0  0  0  0  0
   -1.5310   -0.0404   -0.8077 C   0  0  0  0  0  0  0  0  0  0  0  0
   -1.7380    1.2378    0.0158 C   0  0  0  0  0  0  0  0  0  0  0  0
   -0.9079    0.9158    1.2443 C   0  0  0  0  0  0  0  0  0  0  0  0
   -0.4498   -0.5206    1.0791 C   0  0  0  0  0  0  0  0  0  0  0  0
   -1.6934   -1.0616    0.3404 C   0  0  0  0  0  0  0  0  0  0  0  0
    2.2389   -0.2132   -1.9524 H   0  0  0  0  0  0  0  0  0  0  0  0
    3.4098   -1.0164   -0.8744 H   0  0  0  0  0  0  0  0  0  0  0  0
    3.5083    0.7474   -1.0174 H   0  0  0  0  0  0  0  0  0  0  0  0
    1.7059    1.1185    0.4210 H   0  0  0  0  0  0  0  0  0  0  0  0
    2.2959   -0.4320    1.0516 H   0  0  0  0  0  0  0  0  0  0  0  0
    0.6880   -1.7292   -0.2209 H   0  0  0  0  0  0  0  0  0  0  0  0
   -2.2486   -0.1742   -1.5957 H   0  0  0  0  0  0  0  0  0  0  0  0
   -2.8266    1.2618    0.2412 H   0  0  0  0  0  0  0  0  0  0  0  0
   -1.4062    2.1306   -0.5125 H   0  0  0  0  0  0  0  0  0  0  0  0
   -0.0674    1.6213    1.2709 H   0  0  0  0  0  0  0  0  0  0  0  0
   -1.5257    1.0054    2.1826 H   0  0  0  0  0  0  0  0  0  0  0  0
   -0.2216   -1.0436    1.9750 H   0  0  0  0  0  0  0  0  0  0  0  0
   -2.6056   -0.8933    0.9048 H   0  0  0  0  0  0  0  0  0  0  0  0
   -1.5283   -2.0700   -0.0350 H   0  0  0  0  0  0  0  0  0  0  0  0
  1  2  1  0
  2  3  1  0
  3  4  1  0
  4  5  1  0
  5  6  1  0
  6  7  1  0
  7  8  1  0
  8  9  1  0
  8  3  1  0
  9  5  1  0
  1 10  1  0
  1 11  1  0
  1 12  1  0
  2 13  1  0
  2 14  1  0
  3 15  1  0
  5 16  1  0
  6 17  1  0
  6 18  1  0
  7 19  1  0
  7 20  1  0
  8 21  1  0
  9 22  1  0
  9 23  1  0
M  END
