
     RDKit          3D

 23 24  0  0  0  0  0  0  0  0999 V2000
    2.9644   -0.4999   -0.1588 C   0  0  0  0  0  0  0  0  0  0  0  0
    1.9257    0.5023    0.3363 C   0  0  0  0  0  0  0  0  0  0  0  0
    0.5993    0.2216   -0.3406 C   0  0  0  0  0  0  0  0  0  0  0  0
   -0.3890    1.2685    0.2086 C   0  0  0  0  0  0  0  0  0  0  0  0
   -1.6126    0.5062    0.4864 C   0  0  0  0  0  0  0  0  0  0  0  0
   -2.8369    0.3237   -0.1794 C   0  0  0  0  0  0  0  0  0  0  0  0
   -1.7592   -0.2953   -0.8497 C   0  0  0  0  0  0  0  0  0  0  0  0
   -0.9517   -1.5009   -0.5856 C   0  0  0  0  0  0  0  0  0  0  0  0
    0.2435   -1.0735   -0.0155 O   0  0  0  0  0  0  0  0  0  0  0  0
    3.7099   -0.6683    0.6345 H   0  0  0  0  0  0  0  0  0  0  0  0
    3.4053   -0.0906   -1.0772 H   0  0  0  0  0  0  0  0  0  0  0  0
    2.3894   -1.4433   -0.3599 H   0  0  0  0  0  0  0  0  0  0  0  0
    1.8678    0.3544    1.4363 H   0  0  0  0  0  0  0  0  0  0  0  0
    2.2612    1.5482    0.1793 H   0  0  0  0  0  0  0  0  0  0  0  0
    0.7357    0.3267   -1.4244 H   0  0  0  0  0  0  0  0  0  0  0  0
   -0.5735    1.9859   -0.6373 H   0  0  0  0  0  0  0  0  0  0  0  0
    0.0336    1.8446    1.0248 H   0  0  0  0  0  0  0  0  0  0  0  0
   -1.4585   -0.1143    1.4247 H   0  0  0  0  0  0  0  0  0  0  0  0
   -3.3517    1.1931   -0.6721 H   0  0  0  0  0  0  0  0  0  0  0  0
   -3.6226   -0.3287    0.2893 H   0  0  0  0  0  0  0  0  0  0  0  0
   -1.4002    0.2123   -1.7949 H   0  0  0  0  0  0  0  0  0  0  0  0
   -1.4814   -2.1938    0.0909 H   0  0  0  0  0  0  0  0  0  0  0  0
   -0.6984   -2.0791   -1.5051 H   0  0  0  0  0  0  0  0  0  0  0  0
  1  2  1  0
  2  3  1  0
  3  4  1  0
  4  5  1  0
  5  6  1  0
  6  7  1  0
  7  8  1  0
  8  9  1  0
  9  3  1  0
  7  5  1  0
  1 10  1  0
  1 11  1  0
  1 12  1  0
  2 13  1  0
  2 14  1  0
  3 15  1  0
  4 16  1  0
  4 17  1  0
  5 18  1  0
  6 19  1  0
  6 20  1  0
  7 21  1  0
  8 22  1  0
  8 23  1  0
M  END
