
     RDKit          3D

 21 22  0  0  0  0  0  0  0  0999 V2000
    2.5029   -0.3606   -0.0415 C   0  0  0  0  0  0  0  0  0  0  0  0
    1.3091    0.5389   -0.3051 C   0  0  0  0  0  0  0  0  0  0  0  0
    0.0644   -0.2229   -0.5919 C   0  0  0  0  0  0  0  0  0  0  0  0
   -0.4198   -1.1595    0.4958 C   0  0  0  0  0  0  0  0  0  0  0  0
   -1.7950   -0.9438   -0.1705 C   0  0  0  0  0  0  0  0  0  0  0  0
   -1.2429    0.4799   -0.2656 C   0  0  0  0  0  0  0  0  0  0  0  0
   -1.7714    1.3284   -1.1218 O   0  0  0  0  0  0  0  0  0  0  0  0
   -1.1052    0.7970    1.1901 C   0  0  0  0  0  0  0  0  0  0  0  0
   -0.5212   -0.4126    1.6460 O   0  0  0  0  0  0  0  0  0  0  0  0
    2.6637   -0.9607   -0.9610 H   0  0  0  0  0  0  0  0  0  0  0  0
    2.3615   -0.9688    0.8499 H   0  0  0  0  0  0  0  0  0  0  0  0
    3.3891    0.3229    0.0416 H   0  0  0  0  0  0  0  0  0  0  0  0
    1.2433    1.2777    0.4977 H   0  0  0  0  0  0  0  0  0  0  0  0
    1.5638    1.1092   -1.2354 H   0  0  0  0  0  0  0  0  0  0  0  0
    0.0698   -0.7184   -1.5639 H   0  0  0  0  0  0  0  0  0  0  0  0
   -0.0527   -2.1576    0.5185 H   0  0  0  0  0  0  0  0  0  0  0  0
   -2.6370   -1.0650    0.5248 H   0  0  0  0  0  0  0  0  0  0  0  0
   -1.8638   -1.4595   -1.1396 H   0  0  0  0  0  0  0  0  0  0  0  0
   -1.0945    2.0017   -1.4078 H   0  0  0  0  0  0  0  0  0  0  0  0
   -2.1454    0.8996    1.6030 H   0  0  0  0  0  0  0  0  0  0  0  0
   -0.5186    1.6741    1.4368 H   0  0  0  0  0  0  0  0  0  0  0  0
  1  2  1  0
  2  3  1  0
  3  4  1  0
  4  5  1  0
  5  6  1  0
  6  7  1  0
  6  8  1  0
  8  9  1  0
  6  3  1  0
  9  4  1  0
  1 10  1  0
  1 11  1  0
  1 12  1  0
  2 13  1  0
  2 14  1  0
  3 15  1  0
  4 16  1  0
  5 17  1  0
  5 18  1  0
  7 19  1  0
  8 20  1  0
  8 21  1  0
M  END
