
     RDKit          3D

 23 24  0  0  0  0  0  0  0  0999 V2000
    2.2191    1.1757   -0.5570 C   0  0  0  0  0  0  0  0  0  0  0  0
    1.7813   -0.1086    0.0746 C   0  0  0  0  0  0  0  0  0  0  0  0
    0.3810   -0.4536   -0.0885 C   0  0  0  0  0  0  0  0  0  0  0  0
   -0.1193   -1.7452    0.5306 C   0  0  0  0  0  0  0  0  0  0  0  0
   -1.4630   -1.0016    0.4574 C   0  0  0  0  0  0  0  0  0  0  0  0
   -1.5727   -0.7944   -1.0195 C   0  0  0  0  0  0  0  0  0  0  0  0
   -0.2279   -0.4347   -1.3091 O   0  0  0  0  0  0  0  0  0  0  0  0
   -0.6304    0.2253    0.8509 C   0  0  0  0  0  0  0  0  0  0  0  0
   -1.2416    1.4713    0.3012 C   0  0  0  0  0  0  0  0  0  0  0  0
    3.3408    1.2336   -0.4384 H   0  0  0  0  0  0  0  0  0  0  0  0
    2.0390    1.2181   -1.6423 H   0  0  0  0  0  0  0  0  0  0  0  0
    1.7738    2.0399   -0.0241 H   0  0  0  0  0  0  0  0  0  0  0  0
    1.9993   -0.0065    1.1791 H   0  0  0  0  0  0  0  0  0  0  0  0
    2.4212   -0.9284   -0.3380 H   0  0  0  0  0  0  0  0  0  0  0  0
    0.2206   -1.9438    1.5490 H   0  0  0  0  0  0  0  0  0  0  0  0
   -0.0616   -2.5756   -0.1981 H   0  0  0  0  0  0  0  0  0  0  0  0
   -2.2551   -1.3085    1.0626 H   0  0  0  0  0  0  0  0  0  0  0  0
   -1.8555   -1.7086   -1.5480 H   0  0  0  0  0  0  0  0  0  0  0  0
   -2.2156    0.0659   -1.2829 H   0  0  0  0  0  0  0  0  0  0  0  0
   -0.2827    0.2363    1.8818 H   0  0  0  0  0  0  0  0  0  0  0  0
   -2.3566    1.3893    0.3728 H   0  0  0  0  0  0  0  0  0  0  0  0
   -0.9358    1.6244   -0.7589 H   0  0  0  0  0  0  0  0  0  0  0  0
   -0.9582    2.3296    0.9446 H   0  0  0  0  0  0  0  0  0  0  0  0
  1  2  1  0
  2  3  1  0
  3  4  1  0
  4  5  1  0
  5  6  1  0
  6  7  1  0
  5  8  1  0
  8  9  1  0
  7  3  1  0
  8  3  1  0
  1 10  1  0
  1 11  1  0
  1 12  1  0
  2 13  1  0
  2 14  1  0
  4 15  1  0
  4 16  1  0
  5 17  1  0
  6 18  1  0
  6 19  1  0
  8 20  1  0
  9 21  1  0
  9 22  1  0
  9 23  1  0
M  END
