
     RDKit          3D

 21 22  0  0  0  0  0  0  0  0999 V2000
    2.7995   -0.0001   -0.2382 C   0  0  0  0  0  0  0  0  0  0  0  0
    1.7041    0.4998    0.6641 C   0  0  0  0  0  0  0  0  0  0  0  0
    0.4403   -0.3124    0.5400 C   0  0  0  0  0  0  0  0  0  0  0  0
   -0.1283   -0.3024   -0.8440 C   0  0  0  0  0  0  0  0  0  0  0  0
   -1.5446   -0.8171   -0.5527 C   0  0  0  0  0  0  0  0  0  0  0  0
   -2.5557   -0.0717   -1.0981 O   0  0  0  0  0  0  0  0  0  0  0  0
   -2.4768    0.8518   -0.0532 C   0  0  0  0  0  0  0  0  0  0  0  0
   -1.7789   -0.2057    0.8070 C   0  0  0  0  0  0  0  0  0  0  0  0
   -0.5738    0.2106    1.3023 O   0  0  0  0  0  0  0  0  0  0  0  0
    3.7060   -0.1458    0.3614 H   0  0  0  0  0  0  0  0  0  0  0  0
    2.5490   -0.9864   -0.6897 H   0  0  0  0  0  0  0  0  0  0  0  0
    2.9771    0.6851   -1.0966 H   0  0  0  0  0  0  0  0  0  0  0  0
    1.9983    0.5776    1.7234 H   0  0  0  0  0  0  0  0  0  0  0  0
    1.4554    1.5393    0.3314 H   0  0  0  0  0  0  0  0  0  0  0  0
    0.6109   -1.3768    0.8232 H   0  0  0  0  0  0  0  0  0  0  0  0
    0.3513   -0.9985   -1.5399 H   0  0  0  0  0  0  0  0  0  0  0  0
   -0.1736    0.6987   -1.3050 H   0  0  0  0  0  0  0  0  0  0  0  0
   -1.6412   -1.9039   -0.5829 H   0  0  0  0  0  0  0  0  0  0  0  0
   -1.7918    1.6944   -0.3140 H   0  0  0  0  0  0  0  0  0  0  0  0
   -3.4779    1.1244    0.2858 H   0  0  0  0  0  0  0  0  0  0  0  0
   -2.4492   -0.7612    1.4756 H   0  0  0  0  0  0  0  0  0  0  0  0
  1  2  1  0
  2  3  1  0
  3  4  1  0
  4  5  1  0
  5  6  1  0
  6  7  1  0
  7  8  1  0
  8  9  1  0
  9  3  1  0
  8  5  1  0
  1 10  1  0
  1 11  1  0
  1 12  1  0
  2 13  1  0
  2 14  1  0
  3 15  1  0
  4 16  1  0
  4 17  1  0
  5 18  1  0
  7 19  1  0
  7 20  1  0
  8 21  1  0
M  END
