
     RDKit          3D

 21 23  0  0  0  0  0  0  0  0999 V2000
   -2.4178    0.7413    0.5258 C   0  0  0  0  0  0  0  0  0  0  0  0
   -1.6208   -0.5353    0.4902 C   0  0  0  0  0  0  0  0  0  0  0  0
   -0.3977   -0.3908   -0.3450 C   0  0  0  0  0  0  0  0  0  0  0  0
    0.5631    0.6908    0.1395 C   0  0  0  0  0  0  0  0  0  0  0  0
    1.4498    1.1053   -1.0101 C   0  0  0  0  0  0  0  0  0  0  0  0
    2.3440    0.0943   -1.2451 O   0  0  0  0  0  0  0  0  0  0  0  0
    2.1147   -0.9520   -0.3980 C   0  0  0  0  0  0  0  0  0  0  0  0
    0.7129   -1.3870   -0.0764 C   0  0  0  0  0  0  0  0  0  0  0  0
    1.3840   -0.4046    0.7490 C   0  0  0  0  0  0  0  0  0  0  0  0
   -2.6703    1.0343   -0.5271 H   0  0  0  0  0  0  0  0  0  0  0  0
   -3.4046    0.5747    1.0189 H   0  0  0  0  0  0  0  0  0  0  0  0
   -1.8651    1.5536    1.0323 H   0  0  0  0  0  0  0  0  0  0  0  0
   -1.3116   -0.7624    1.5306 H   0  0  0  0  0  0  0  0  0  0  0  0
   -2.2490   -1.3358    0.1038 H   0  0  0  0  0  0  0  0  0  0  0  0
   -0.6228   -0.2751   -1.4268 H   0  0  0  0  0  0  0  0  0  0  0  0
    0.1563    1.4593    0.7764 H   0  0  0  0  0  0  0  0  0  0  0  0
    1.9452    2.0587   -0.7383 H   0  0  0  0  0  0  0  0  0  0  0  0
    0.8204    1.2584   -1.9121 H   0  0  0  0  0  0  0  0  0  0  0  0
    2.9256   -1.6507   -0.1945 H   0  0  0  0  0  0  0  0  0  0  0  0
    0.4912   -2.4173    0.1785 H   0  0  0  0  0  0  0  0  0  0  0  0
    1.6524   -0.4596    1.7801 H   0  0  0  0  0  0  0  0  0  0  0  0
  1  2  1  0
  2  3  1  0
  3  4  1  0
  4  5  1  0
  5  6  1  0
  6  7  1  0
  7  8  1  0
  8  9  1  0
  8  3  1  0
  9  4  1  0
  9  7  1  0
  1 10  1  0
  1 11  1  0
  1 12  1  0
  2 13  1  0
  2 14  1  0
  3 15  1  0
  4 16  1  0
  5 17  1  0
  5 18  1  0
  7 19  1  0
  8 20  1  0
  9 21  1  0
M  END
