
     RDKit          3D

 21 21  0  0  0  0  0  0  0  0999 V2000
   -2.6692    0.3084    0.3467 C   0  0  0  0  0  0  0  0  0  0  0  0
   -1.6695   -0.3750   -0.5616 C   0  0  0  0  0  0  0  0  0  0  0  0
   -0.2862   -0.2076   -0.0020 C   0  0  0  0  0  0  0  0  0  0  0  0
    0.1072    1.2228    0.1194 C   0  0  0  0  0  0  0  0  0  0  0  0
    1.3911    1.4336    0.3708 C   0  0  0  0  0  0  0  0  0  0  0  0
    2.3565    0.3407    0.5192 C   0  0  0  0  0  0  0  0  0  0  0  0
    3.5106    0.5053    0.9866 O   0  0  0  0  0  0  0  0  0  0  0  0
    1.9867   -1.0596    0.1040 C   0  0  0  0  0  0  0  0  0  0  0  0
    0.7749   -0.8779   -0.8222 C   0  0  0  0  0  0  0  0  0  0  0  0
   -2.1400    0.7637    1.2252 H   0  0  0  0  0  0  0  0  0  0  0  0
   -3.3847   -0.4279    0.7971 H   0  0  0  0  0  0  0  0  0  0  0  0
   -3.2235    1.1116   -0.1590 H   0  0  0  0  0  0  0  0  0  0  0  0
   -1.8849   -1.4621   -0.5817 H   0  0  0  0  0  0  0  0  0  0  0  0
   -1.7755   -0.0096   -1.5900 H   0  0  0  0  0  0  0  0  0  0  0  0
   -0.2779   -0.6157    1.0345 H   0  0  0  0  0  0  0  0  0  0  0  0
   -0.5557    2.0519    0.0200 H   0  0  0  0  0  0  0  0  0  0  0  0
    1.7375    2.4593    0.4701 H   0  0  0  0  0  0  0  0  0  0  0  0
    2.8079   -1.5765   -0.3926 H   0  0  0  0  0  0  0  0  0  0  0  0
    1.6032   -1.5993    1.0119 H   0  0  0  0  0  0  0  0  0  0  0  0
    1.1192   -0.1740   -1.6078 H   0  0  0  0  0  0  0  0  0  0  0  0
    0.4724   -1.8121   -1.2885 H   0  0  0  0  0  0  0  0  0  0  0  0
  1  2  1  0
  2  3  1  0
  3  4  1  0
  4  5  2  0
  5  6  1  0
  6  7  2  0
  6  8  1  0
  8  9  1  0
  9  3  1  0
  1 10  1  0
  1 11  1  0
  1 12  1  0
  2 13  1  0
  2 14  1  0
  3 15  1  0
  4 16  1  0
  5 17  1  0
  8 18  1  0
  8 19  1  0
  9 20  1  0
  9 21  1  0
M  END
