
     RDKit          3D

 23 24  0  0  0  0  0  0  0  0999 V2000
    2.8468   -0.2248    0.3122 C   0  0  0  0  0  0  0  0  0  0  0  0
    1.5838   -1.0528    0.2273 C   0  0  0  0  0  0  0  0  0  0  0  0
    0.5399   -0.3461   -0.6514 C   0  0  0  0  0  0  0  0  0  0  0  0
    0.1889    0.9846   -0.0905 C   0  0  0  0  0  0  0  0  0  0  0  0
   -1.2666    1.0670    0.2952 C   0  0  0  0  0  0  0  0  0  0  0  0
   -1.7662   -0.2329    0.8952 C   0  0  0  0  0  0  0  0  0  0  0  0
   -1.7395   -0.7640   -0.5441 C   0  0  0  0  0  0  0  0  0  0  0  0
   -2.0528    0.6791   -0.9669 C   0  0  0  0  0  0  0  0  0  0  0  0
   -0.5046   -1.1733   -0.9327 O   0  0  0  0  0  0  0  0  0  0  0  0
    3.6677   -0.9302    0.6222 H   0  0  0  0  0  0  0  0  0  0  0  0
    3.1014    0.2709   -0.6394 H   0  0  0  0  0  0  0  0  0  0  0  0
    2.7742    0.5308    1.1083 H   0  0  0  0  0  0  0  0  0  0  0  0
    1.7818   -2.0432   -0.2332 H   0  0  0  0  0  0  0  0  0  0  0  0
    1.2266   -1.2158    1.2434 H   0  0  0  0  0  0  0  0  0  0  0  0
    1.0942   -0.1717   -1.6224 H   0  0  0  0  0  0  0  0  0  0  0  0
    0.8496    1.2793    0.7772 H   0  0  0  0  0  0  0  0  0  0  0  0
    0.3559    1.8079   -0.8395 H   0  0  0  0  0  0  0  0  0  0  0  0
   -1.5833    1.9839    0.7759 H   0  0  0  0  0  0  0  0  0  0  0  0
   -2.8096   -0.1053    1.2197 H   0  0  0  0  0  0  0  0  0  0  0  0
   -1.1000   -0.7386    1.5876 H   0  0  0  0  0  0  0  0  0  0  0  0
   -2.5168   -1.4859   -0.7829 H   0  0  0  0  0  0  0  0  0  0  0  0
   -1.5497    0.9837   -1.9087 H   0  0  0  0  0  0  0  0  0  0  0  0
   -3.1218    0.8972   -0.9231 H   0  0  0  0  0  0  0  0  0  0  0  0
  1  2  1  0
  2  3  1  0
  3  4  1  0
  4  5  1  0
  5  6  1  0
  6  7  1  0
  7  8  1  0
  7  9  1  0
  9  3  1  0
  8  5  1  0
  1 10  1  0
  1 11  1  0
  1 12  1  0
  2 13  1  0
  2 14  1  0
  3 15  1  0
  4 16  1  0
  4 17  1  0
  5 18  1  0
  6 19  1  0
  6 20  1  0
  7 21  1  0
  8 22  1  0
  8 23  1  0
M  END
