
     RDKit          3D

 21 22  0  0  0  0  0  0  0  0999 V2000
   -2.3076   -0.3428   -0.2191 C   0  0  0  0  0  0  0  0  0  0  0  0
   -1.2635    0.7456   -0.1943 C   0  0  0  0  0  0  0  0  0  0  0  0
    0.0868    0.3162    0.0836 C   0  0  0  0  0  0  0  0  0  0  0  0
    0.3603   -0.3679    1.3866 C   0  0  0  0  0  0  0  0  0  0  0  0
    1.5843   -1.0076    1.1791 O   0  0  0  0  0  0  0  0  0  0  0  0
    1.9655   -0.8172   -0.1397 C   0  0  0  0  0  0  0  0  0  0  0  0
    0.5897   -0.8150   -0.8417 C   0  0  0  0  0  0  0  0  0  0  0  0
    2.3479    0.5060   -0.3965 O   0  0  0  0  0  0  0  0  0  0  0  0
    1.1967    1.2871   -0.1453 C   0  0  0  0  0  0  0  0  0  0  0  0
   -3.1819    0.0672   -0.7935 H   0  0  0  0  0  0  0  0  0  0  0  0
   -1.8845   -1.2283   -0.7336 H   0  0  0  0  0  0  0  0  0  0  0  0
   -2.5828   -0.5539    0.8349 H   0  0  0  0  0  0  0  0  0  0  0  0
   -1.5646    1.5723    0.4764 H   0  0  0  0  0  0  0  0  0  0  0  0
   -1.2825    1.2013   -1.2287 H   0  0  0  0  0  0  0  0  0  0  0  0
    0.5647    0.4325    2.1437 H   0  0  0  0  0  0  0  0  0  0  0  0
   -0.4313   -1.0305    1.7328 H   0  0  0  0  0  0  0  0  0  0  0  0
    2.6300   -1.5529   -0.5387 H   0  0  0  0  0  0  0  0  0  0  0  0
    0.6594   -0.4921   -1.8732 H   0  0  0  0  0  0  0  0  0  0  0  0
    0.0845   -1.7544   -0.6460 H   0  0  0  0  0  0  0  0  0  0  0  0
    1.0136    2.0281   -0.9191 H   0  0  0  0  0  0  0  0  0  0  0  0
    1.4153    1.8062    0.8323 H   0  0  0  0  0  0  0  0  0  0  0  0
  1  2  1  0
  2  3  1  0
  3  4  1  0
  4  5  1  0
  5  6  1  0
  6  7  1  0
  6  8  1  0
  8  9  1  0
  7  3  1  0
  9  3  1  0
  1 10  1  0
  1 11  1  0
  1 12  1  0
  2 13  1  0
  2 14  1  0
  4 15  1  0
  4 16  1  0
  6 17  1  0
  7 18  1  0
  7 19  1  0
  9 20  1  0
  9 21  1  0
M  END
