
     RDKit          3D

 25 26  0  0  0  0  0  0  0  0999 V2000
   -2.3183    1.3104    0.2158 C   0  0  0  0  0  0  0  0  0  0  0  0
   -1.6379   -0.0146   -0.0632 C   0  0  0  0  0  0  0  0  0  0  0  0
   -0.2612    0.2145   -0.6295 C   0  0  0  0  0  0  0  0  0  0  0  0
    0.4901   -1.0321   -0.9376 C   0  0  0  0  0  0  0  0  0  0  0  0
   -0.1813   -2.3341   -0.6397 C   0  0  0  0  0  0  0  0  0  0  0  0
    1.5268   -0.7201    0.1048 C   0  0  0  0  0  0  0  0  0  0  0  0
    1.1050   -0.3037    1.4618 C   0  0  0  0  0  0  0  0  0  0  0  0
    0.7910    0.6256    0.3661 C   0  0  0  0  0  0  0  0  0  0  0  0
    1.6362    1.8350    0.1282 C   0  0  0  0  0  0  0  0  0  0  0  0
   -3.4104    1.0616    0.3551 H   0  0  0  0  0  0  0  0  0  0  0  0
   -2.1752    2.0381   -0.5994 H   0  0  0  0  0  0  0  0  0  0  0  0
   -1.9740    1.6793    1.2040 H   0  0  0  0  0  0  0  0  0  0  0  0
   -1.6115   -0.5609    0.9026 H   0  0  0  0  0  0  0  0  0  0  0  0
   -2.2399   -0.5301   -0.8388 H   0  0  0  0  0  0  0  0  0  0  0  0
   -0.3060    0.9429   -1.4637 H   0  0  0  0  0  0  0  0  0  0  0  0
    0.8891   -1.0303   -1.9797 H   0  0  0  0  0  0  0  0  0  0  0  0
   -0.7826   -2.3165    0.2755 H   0  0  0  0  0  0  0  0  0  0  0  0
    0.6417   -3.0841   -0.4470 H   0  0  0  0  0  0  0  0  0  0  0  0
   -0.7224   -2.7262   -1.5209 H   0  0  0  0  0  0  0  0  0  0  0  0
    2.5507   -0.6670   -0.2566 H   0  0  0  0  0  0  0  0  0  0  0  0
    0.2904   -0.8241    1.9650 H   0  0  0  0  0  0  0  0  0  0  0  0
    1.9393    0.0070    2.1359 H   0  0  0  0  0  0  0  0  0  0  0  0
    1.5215    2.2718   -0.8785 H   0  0  0  0  0  0  0  0  0  0  0  0
    1.5129    2.6095    0.9384 H   0  0  0  0  0  0  0  0  0  0  0  0
    2.7259    1.5480    0.2012 H   0  0  0  0  0  0  0  0  0  0  0  0
  1  2  1  0
  2  3  1  0
  3  4  1  0
  4  5  1  0
  4  6  1  0
  6  7  1  0
  7  8  1  0
  8  9  1  0
  8  3  1  0
  8  6  1  0
  1 10  1  0
  1 11  1  0
  1 12  1  0
  2 13  1  0
  2 14  1  0
  3 15  1  0
  4 16  1  0
  5 17  1  0
  5 18  1  0
  5 19  1  0
  6 20  1  0
  7 21  1  0
  7 22  1  0
  9 23  1  0
  9 24  1  0
  9 25  1  0
M  END
