
     RDKit          3D

 23 24  0  0  0  0  0  0  0  0999 V2000
    2.7137    0.7756    0.5345 C   0  0  0  0  0  0  0  0  0  0  0  0
    1.5718    0.5044   -0.3752 C   0  0  0  0  0  0  0  0  0  0  0  0
    0.7558   -0.7043   -0.0136 C   0  0  0  0  0  0  0  0  0  0  0  0
    0.1020   -0.7266    1.3116 C   0  0  0  0  0  0  0  0  0  0  0  0
   -1.2328   -1.0360    0.6588 C   0  0  0  0  0  0  0  0  0  0  0  0
   -0.5470   -0.8421   -0.7332 C   0  0  0  0  0  0  0  0  0  0  0  0
   -1.7679   -0.1270   -0.3643 C   0  0  0  0  0  0  0  0  0  0  0  0
   -1.7883    1.3550   -0.0740 C   0  0  0  0  0  0  0  0  0  0  0  0
   -2.9453   -0.5664   -0.9908 O   0  0  0  0  0  0  0  0  0  0  0  0
    3.3233   -0.1178    0.7164 H   0  0  0  0  0  0  0  0  0  0  0  0
    3.3918    1.5055    0.0096 H   0  0  0  0  0  0  0  0  0  0  0  0
    2.4337    1.2802    1.4798 H   0  0  0  0  0  0  0  0  0  0  0  0
    1.9610    0.4576   -1.4134 H   0  0  0  0  0  0  0  0  0  0  0  0
    0.8641    1.3772   -0.3721 H   0  0  0  0  0  0  0  0  0  0  0  0
    1.4071   -1.6189   -0.1406 H   0  0  0  0  0  0  0  0  0  0  0  0
    0.1078    0.1946    1.9110 H   0  0  0  0  0  0  0  0  0  0  0  0
    0.3680   -1.5873    1.9861 H   0  0  0  0  0  0  0  0  0  0  0  0
   -1.7090   -2.0155    0.8185 H   0  0  0  0  0  0  0  0  0  0  0  0
   -0.6446   -1.7417   -1.4119 H   0  0  0  0  0  0  0  0  0  0  0  0
   -2.8351    1.6817    0.1061 H   0  0  0  0  0  0  0  0  0  0  0  0
   -1.4073    1.8753   -0.9583 H   0  0  0  0  0  0  0  0  0  0  0  0
   -1.2039    1.6314    0.8154 H   0  0  0  0  0  0  0  0  0  0  0  0
   -2.9189   -1.5548   -1.0094 H   0  0  0  0  0  0  0  0  0  0  0  0
  1  2  1  0
  2  3  1  0
  3  4  1  0
  4  5  1  0
  5  6  1  0
  6  7  1  0
  7  8  1  0
  7  9  1  0
  6  3  1  0
  7  5  1  0
  1 10  1  0
  1 11  1  0
  1 12  1  0
  2 13  1  0
  2 14  1  0
  3 15  1  0
  4 16  1  0
  4 17  1  0
  5 18  1  0
  6 19  1  0
  8 20  1  0
  8 21  1  0
  8 22  1  0
  9 23  1  0
M  END
