
     RDKit          3D

 21 22  0  0  0  0  0  0  0  0999 V2000
    2.4509   -0.1298   -0.3762 C   0  0  0  0  0  0  0  0  0  0  0  0
    1.0221   -0.4247   -0.8469 C   0  0  0  0  0  0  0  0  0  0  0  0
    0.1859   -0.5789    0.3986 C   0  0  0  0  0  0  0  0  0  0  0  0
    0.1971    0.6581    1.2379 C   0  0  0  0  0  0  0  0  0  0  0  0
   -0.0963    1.7383    0.2325 C   0  0  0  0  0  0  0  0  0  0  0  0
   -1.1271    1.1713   -0.4348 C   0  0  0  0  0  0  0  0  0  0  0  0
   -1.2389   -0.1346    0.2963 C   0  0  0  0  0  0  0  0  0  0  0  0
   -2.2948   -1.0505   -0.0329 C   0  0  0  0  0  0  0  0  0  0  0  0
   -1.1073    0.3232    1.6294 O   0  0  0  0  0  0  0  0  0  0  0  0
    2.7350   -1.0104    0.2529 H   0  0  0  0  0  0  0  0  0  0  0  0
    3.1592   -0.0907   -1.2109 H   0  0  0  0  0  0  0  0  0  0  0  0
    2.3996    0.7777    0.2344 H   0  0  0  0  0  0  0  0  0  0  0  0
    1.0058   -1.3073   -1.4938 H   0  0  0  0  0  0  0  0  0  0  0  0
    0.6000    0.4556   -1.4011 H   0  0  0  0  0  0  0  0  0  0  0  0
    0.3428   -1.5182    0.9574 H   0  0  0  0  0  0  0  0  0  0  0  0
    0.9360    0.8273    1.9698 H   0  0  0  0  0  0  0  0  0  0  0  0
    0.3773    2.6977    0.0801 H   0  0  0  0  0  0  0  0  0  0  0  0
   -1.7047    1.5589   -1.2641 H   0  0  0  0  0  0  0  0  0  0  0  0
   -2.8055   -1.4222    0.9042 H   0  0  0  0  0  0  0  0  0  0  0  0
   -3.1014   -0.5915   -0.6377 H   0  0  0  0  0  0  0  0  0  0  0  0
   -1.9357   -1.9489   -0.5573 H   0  0  0  0  0  0  0  0  0  0  0  0
  1  2  1  0
  2  3  1  0
  3  4  1  0
  4  5  1  0
  5  6  2  0
  6  7  1  0
  7  8  1  0
  7  9  1  0
  7  3  1  0
  9  4  1  0
  1 10  1  0
  1 11  1  0
  1 12  1  0
  2 13  1  0
  2 14  1  0
  3 15  1  0
  4 16  1  0
  5 17  1  0
  6 18  1  0
  8 19  1  0
  8 20  1  0
  8 21  1  0
M  END
