
     RDKit          3D

 20 20  0  0  0  0  0  0  0  0999 V2000
   -2.2693    0.4354   -0.3424 C   0  0  0  0  0  0  0  0  0  0  0  0
   -1.7375   -0.3817    0.7822 C   0  0  0  0  0  0  0  0  0  0  0  0
   -0.2500   -0.5619    0.7569 C   0  0  0  0  0  0  0  0  0  0  0  0
    0.5480    0.7382    0.8280 C   0  0  0  0  0  0  0  0  0  0  0  0
    1.5475   -0.0459   -0.0312 C   0  0  0  0  0  0  0  0  0  0  0  0
    2.3288    0.7850   -0.9949 C   0  0  0  0  0  0  0  0  0  0  0  0
    0.3663   -0.7497   -0.5713 C   0  0  0  0  0  0  0  0  0  0  0  0
    0.0723   -1.2412   -1.6234 O   0  0  0  0  0  0  0  0  0  0  0  0
   -2.0719    0.0060   -1.3448 H   0  0  0  0  0  0  0  0  0  0  0  0
   -1.9239    1.4886   -0.2541 H   0  0  0  0  0  0  0  0  0  0  0  0
   -3.3761    0.4741   -0.2413 H   0  0  0  0  0  0  0  0  0  0  0  0
   -2.2017   -1.3882    0.8000 H   0  0  0  0  0  0  0  0  0  0  0  0
   -2.0173    0.1078    1.7308 H   0  0  0  0  0  0  0  0  0  0  0  0
    0.1244   -1.2350    1.5552 H   0  0  0  0  0  0  0  0  0  0  0  0
    0.0583    1.5008    0.2272 H   0  0  0  0  0  0  0  0  0  0  0  0
    0.9109    1.0085    1.8235 H   0  0  0  0  0  0  0  0  0  0  0  0
    2.1793   -0.6545    0.6721 H   0  0  0  0  0  0  0  0  0  0  0  0
    2.7396    1.7172   -0.5534 H   0  0  0  0  0  0  0  0  0  0  0  0
    1.7506    0.9717   -1.9138 H   0  0  0  0  0  0  0  0  0  0  0  0
    3.2218    0.1821   -1.3051 H   0  0  0  0  0  0  0  0  0  0  0  0
  1  2  1  0
  2  3  1  0
  3  4  1  0
  4  5  1  0
  5  6  1  0
  5  7  1  0
  7  8  2  0
  7  3  1  0
  1  9  1  0
  1 10  1  0
  1 11  1  0
  2 12  1  0
  2 13  1  0
  3 14  1  0
  4 15  1  0
  4 16  1  0
  5 17  1  0
  6 18  1  0
  6 19  1  0
  6 20  1  0
M  END
