
     RDKit          3D

 23 23  0  0  0  0  0  0  0  0999 V2000
    2.6813    0.4746    0.0386 C   0  0  0  0  0  0  0  0  0  0  0  0
    1.2202    0.7152    0.3461 C   0  0  0  0  0  0  0  0  0  0  0  0
    0.3312   -0.2119   -0.4581 C   0  0  0  0  0  0  0  0  0  0  0  0
    0.6120   -1.6607   -0.1706 C   0  0  0  0  0  0  0  0  0  0  0  0
   -0.6973   -2.3023   -0.1323 C   0  0  0  0  0  0  0  0  0  0  0  0
   -1.6324   -1.3926   -0.0035 C   0  0  0  0  0  0  0  0  0  0  0  0
   -1.0706   -0.0496    0.0594 C   0  0  0  0  0  0  0  0  0  0  0  0
   -1.7476    0.8430   -0.7698 O   0  0  0  0  0  0  0  0  0  0  0  0
   -2.1781    1.8904    0.0322 C   0  0  0  0  0  0  0  0  0  0  0  0
    3.2518    1.4405    0.0082 H   0  0  0  0  0  0  0  0  0  0  0  0
    3.1241   -0.1558    0.8129 H   0  0  0  0  0  0  0  0  0  0  0  0
    2.7368    0.0602   -0.9773 H   0  0  0  0  0  0  0  0  0  0  0  0
    0.9994    1.7529   -0.0016 H   0  0  0  0  0  0  0  0  0  0  0  0
    0.9970    0.6885    1.4306 H   0  0  0  0  0  0  0  0  0  0  0  0
    0.4574    0.0361   -1.5137 H   0  0  0  0  0  0  0  0  0  0  0  0
    1.1584   -2.0612   -1.0730 H   0  0  0  0  0  0  0  0  0  0  0  0
    1.2490   -1.8322    0.7041 H   0  0  0  0  0  0  0  0  0  0  0  0
   -0.9313   -3.3899   -0.1978 H   0  0  0  0  0  0  0  0  0  0  0  0
   -2.7156   -1.5965    0.0524 H   0  0  0  0  0  0  0  0  0  0  0  0
   -1.0436    0.2881    1.1177 H   0  0  0  0  0  0  0  0  0  0  0  0
   -1.2744    2.3452    0.4785 H   0  0  0  0  0  0  0  0  0  0  0  0
   -2.8249    1.4896    0.8242 H   0  0  0  0  0  0  0  0  0  0  0  0
   -2.7025    2.6284   -0.6074 H   0  0  0  0  0  0  0  0  0  0  0  0
  1  2  1  0
  2  3  1  0
  3  4  1  0
  4  5  1  0
  5  6  2  0
  6  7  1  0
  7  8  1  0
  8  9  1  0
  7  3  1  0
  1 10  1  0
  1 11  1  0
  1 12  1  0
  2 13  1  0
  2 14  1  0
  3 15  1  0
  4 16  1  0
  4 17  1  0
  5 18  1  0
  6 19  1  0
  7 20  1  0
  9 21  1  0
  9 22  1  0
  9 23  1  0
M  END
