
     RDKit          3D

 23 23  0  0  0  0  0  0  0  0999 V2000
    2.6558    0.1529   -0.2481 C   0  0  0  0  0  0  0  0  0  0  0  0
    1.4795    0.2390    0.7004 C   0  0  0  0  0  0  0  0  0  0  0  0
    0.2102   -0.1460    0.0864 C   0  0  0  0  0  0  0  0  0  0  0  0
   -0.7907    0.7227    0.0263 C   0  0  0  0  0  0  0  0  0  0  0  0
   -0.5843    2.0637    0.5887 C   0  0  0  0  0  0  0  0  0  0  0  0
   -2.0565    0.2659   -0.6125 C   0  0  0  0  0  0  0  0  0  0  0  0
   -2.4242   -1.0062   -0.2774 O   0  0  0  0  0  0  0  0  0  0  0  0
   -1.4238   -1.9059   -0.0679 C   0  0  0  0  0  0  0  0  0  0  0  0
   -0.0595   -1.4866   -0.4987 C   0  0  0  0  0  0  0  0  0  0  0  0
    2.5484    0.8692   -1.0908 H   0  0  0  0  0  0  0  0  0  0  0  0
    2.8325   -0.8898   -0.5918 H   0  0  0  0  0  0  0  0  0  0  0  0
    3.5570    0.4275    0.3498 H   0  0  0  0  0  0  0  0  0  0  0  0
    1.4975    1.2056    1.1898 H   0  0  0  0  0  0  0  0  0  0  0  0
    1.6954   -0.5230    1.5084 H   0  0  0  0  0  0  0  0  0  0  0  0
    0.3239    2.5487    0.1950 H   0  0  0  0  0  0  0  0  0  0  0  0
   -0.5902    2.0590    1.7137 H   0  0  0  0  0  0  0  0  0  0  0  0
   -1.4373    2.7267    0.2710 H   0  0  0  0  0  0  0  0  0  0  0  0
   -2.8711    0.9570   -0.2464 H   0  0  0  0  0  0  0  0  0  0  0  0
   -2.0424    0.3840   -1.7124 H   0  0  0  0  0  0  0  0  0  0  0  0
   -1.7360   -2.8826   -0.5323 H   0  0  0  0  0  0  0  0  0  0  0  0
   -1.3653   -2.1268    1.0373 H   0  0  0  0  0  0  0  0  0  0  0  0
    0.6625   -2.2510   -0.1657 H   0  0  0  0  0  0  0  0  0  0  0  0
   -0.0815   -1.4041   -1.6230 H   0  0  0  0  0  0  0  0  0  0  0  0
  1  2  1  0
  2  3  1  0
  3  4  2  0
  4  5  1  0
  4  6  1  0
  6  7  1  0
  7  8  1  0
  8  9  1  0
  9  3  1  0
  1 10  1  0
  1 11  1  0
  1 12  1  0
  2 13  1  0
  2 14  1  0
  5 15  1  0
  5 16  1  0
  5 17  1  0
  6 18  1  0
  6 19  1  0
  8 20  1  0
  8 21  1  0
  9 22  1  0
  9 23  1  0
M  END
