
     RDKit          3D

 21 23  0  0  0  0  0  0  0  0999 V2000
    2.6363   -0.7462   -0.5285 C   0  0  0  0  0  0  0  0  0  0  0  0
    1.6212    0.3954   -0.5477 C   0  0  0  0  0  0  0  0  0  0  0  0
    0.5617    0.1017    0.4932 C   0  0  0  0  0  0  0  0  0  0  0  0
   -0.5220    1.0744    0.6484 C   0  0  0  0  0  0  0  0  0  0  0  0
   -1.2767    1.6495   -0.4950 C   0  0  0  0  0  0  0  0  0  0  0  0
   -1.0037    1.2820   -1.7911 O   0  0  0  0  0  0  0  0  0  0  0  0
   -1.5266    0.2504   -1.0551 C   0  0  0  0  0  0  0  0  0  0  0  0
   -0.7916   -0.3451    0.0981 C   0  0  0  0  0  0  0  0  0  0  0  0
   -1.5683   -1.2317    1.0311 C   0  0  0  0  0  0  0  0  0  0  0  0
    2.0545   -1.6670   -0.2865 H   0  0  0  0  0  0  0  0  0  0  0  0
    3.1896   -0.8188   -1.4778 H   0  0  0  0  0  0  0  0  0  0  0  0
    3.2875   -0.5546    0.3525 H   0  0  0  0  0  0  0  0  0  0  0  0
    2.1747    1.3123   -0.2485 H   0  0  0  0  0  0  0  0  0  0  0  0
    1.1993    0.5351   -1.5612 H   0  0  0  0  0  0  0  0  0  0  0  0
    0.9484   -0.3550    1.4282 H   0  0  0  0  0  0  0  0  0  0  0  0
   -0.9073    1.3081    1.6549 H   0  0  0  0  0  0  0  0  0  0  0  0
   -2.2037    2.2080   -0.2664 H   0  0  0  0  0  0  0  0  0  0  0  0
   -2.5708   -0.0783   -1.1813 H   0  0  0  0  0  0  0  0  0  0  0  0
   -2.6621   -0.9553    0.9877 H   0  0  0  0  0  0  0  0  0  0  0  0
   -1.1935   -1.0821    2.0625 H   0  0  0  0  0  0  0  0  0  0  0  0
   -1.4471   -2.2828    0.6822 H   0  0  0  0  0  0  0  0  0  0  0  0
  1  2  1  0
  2  3  1  0
  3  4  1  0
  4  5  1  0
  5  6  1  0
  6  7  1  0
  7  8  1  0
  8  9  1  0
  8  3  1  0
  8  4  1  0
  7  5  1  0
  1 10  1  0
  1 11  1  0
  1 12  1  0
  2 13  1  0
  2 14  1  0
  3 15  1  0
  4 16  1  0
  5 17  1  0
  7 18  1  0
  9 19  1  0
  9 20  1  0
  9 21  1  0
M  END
