
     RDKit          3D

 25 25  0  0  0  0  0  0  0  0999 V2000
   -1.0577    2.2509   -0.2719 C   0  0  0  0  0  0  0  0  0  0  0  0
   -1.4832    0.8084   -0.3739 C   0  0  0  0  0  0  0  0  0  0  0  0
   -0.5312   -0.1428    0.3104 C   0  0  0  0  0  0  0  0  0  0  0  0
   -0.9334   -1.5948    0.2214 C   0  0  0  0  0  0  0  0  0  0  0  0
   -1.0337   -2.1048   -1.1777 C   0  0  0  0  0  0  0  0  0  0  0  0
    0.0906    0.2312    1.6340 C   0  0  0  0  0  0  0  0  0  0  0  0
    0.8869    0.2714    0.3301 C   0  0  0  0  0  0  0  0  0  0  0  0
    1.9170   -0.6373    0.2889 O   0  0  0  0  0  0  0  0  0  0  0  0
    3.0561    0.0259   -0.1551 C   0  0  0  0  0  0  0  0  0  0  0  0
   -0.2118    2.4746   -0.9535 H   0  0  0  0  0  0  0  0  0  0  0  0
   -1.9042    2.8885   -0.6588 H   0  0  0  0  0  0  0  0  0  0  0  0
   -0.8675    2.4784    0.7791 H   0  0  0  0  0  0  0  0  0  0  0  0
   -2.5240    0.6976   -0.0007 H   0  0  0  0  0  0  0  0  0  0  0  0
   -1.5006    0.5488   -1.4653 H   0  0  0  0  0  0  0  0  0  0  0  0
   -1.8978   -1.7389    0.7454 H   0  0  0  0  0  0  0  0  0  0  0  0
   -0.1970   -2.2404    0.7702 H   0  0  0  0  0  0  0  0  0  0  0  0
   -0.9061   -1.3391   -1.9585 H   0  0  0  0  0  0  0  0  0  0  0  0
   -2.0339   -2.5641   -1.3485 H   0  0  0  0  0  0  0  0  0  0  0  0
   -0.2877   -2.8983   -1.3852 H   0  0  0  0  0  0  0  0  0  0  0  0
    0.3245   -0.5957    2.3642 H   0  0  0  0  0  0  0  0  0  0  0  0
   -0.1607    1.1575    2.1478 H   0  0  0  0  0  0  0  0  0  0  0  0
    1.1269    1.2925    0.0260 H   0  0  0  0  0  0  0  0  0  0  0  0
    3.9266   -0.6601   -0.2094 H   0  0  0  0  0  0  0  0  0  0  0  0
    3.3147    0.8541    0.5531 H   0  0  0  0  0  0  0  0  0  0  0  0
    2.8872    0.5366   -1.1407 H   0  0  0  0  0  0  0  0  0  0  0  0
  1  2  1  0
  2  3  1  0
  3  4  1  0
  4  5  1  0
  3  6  1  0
  6  7  1  0
  7  8  1  0
  8  9  1  0
  7  3  1  0
  1 10  1  0
  1 11  1  0
  1 12  1  0
  2 13  1  0
  2 14  1  0
  4 15  1  0
  4 16  1  0
  5 17  1  0
  5 18  1  0
  5 19  1  0
  6 20  1  0
  6 21  1  0
  7 22  1  0
  9 23  1  0
  9 24  1  0
  9 25  1  0
M  END
