
     RDKit          3D

 23 23  0  0  0  0  0  0  0  0999 V2000
   -2.8503    0.7199   -0.0494 C   0  0  0  0  0  0  0  0  0  0  0  0
   -1.9843   -0.1145    0.9051 C   0  0  0  0  0  0  0  0  0  0  0  0
   -0.8188   -0.6125    0.0739 C   0  0  0  0  0  0  0  0  0  0  0  0
    0.1434   -1.4517    0.8355 C   0  0  0  0  0  0  0  0  0  0  0  0
    1.4556   -1.0322    0.3398 C   0  0  0  0  0  0  0  0  0  0  0  0
    1.4206    0.1116   -0.2991 C   0  0  0  0  0  0  0  0  0  0  0  0
    2.5481    0.8341   -0.9294 C   0  0  0  0  0  0  0  0  0  0  0  0
    3.7522    0.1846   -0.8002 O   0  0  0  0  0  0  0  0  0  0  0  0
    0.0197    0.5986   -0.2978 C   0  0  0  0  0  0  0  0  0  0  0  0
   -3.9078    0.4227    0.1099 H   0  0  0  0  0  0  0  0  0  0  0  0
   -2.6214    0.4848   -1.1092 H   0  0  0  0  0  0  0  0  0  0  0  0
   -2.6880    1.7971    0.0839 H   0  0  0  0  0  0  0  0  0  0  0  0
   -1.6487    0.5995    1.6854 H   0  0  0  0  0  0  0  0  0  0  0  0
   -2.5632   -0.9316    1.3667 H   0  0  0  0  0  0  0  0  0  0  0  0
   -1.1742   -1.1316   -0.8375 H   0  0  0  0  0  0  0  0  0  0  0  0
    0.0277   -1.3720    1.9349 H   0  0  0  0  0  0  0  0  0  0  0  0
    0.0006   -2.5254    0.5288 H   0  0  0  0  0  0  0  0  0  0  0  0
    2.3913   -1.5997    0.4757 H   0  0  0  0  0  0  0  0  0  0  0  0
    2.6223    1.8814   -0.5768 H   0  0  0  0  0  0  0  0  0  0  0  0
    2.3198    0.8815   -2.0288 H   0  0  0  0  0  0  0  0  0  0  0  0
    3.9838   -0.0563    0.1234 H   0  0  0  0  0  0  0  0  0  0  0  0
   -0.3167    0.9444   -1.2892 H   0  0  0  0  0  0  0  0  0  0  0  0
   -0.1117    1.3673    0.4926 H   0  0  0  0  0  0  0  0  0  0  0  0
  1  2  1  0
  2  3  1  0
  3  4  1  0
  4  5  1  0
  5  6  2  0
  6  7  1  0
  7  8  1  0
  6  9  1  0
  9  3  1  0
  1 10  1  0
  1 11  1  0
  1 12  1  0
  2 13  1  0
  2 14  1  0
  3 15  1  0
  4 16  1  0
  4 17  1  0
  5 18  1  0
  7 19  1  0
  7 20  1  0
  8 21  1  0
  9 22  1  0
  9 23  1  0
M  END
