
     RDKit          3D

 21 23  0  0  0  0  0  0  0  0999 V2000
    3.0991    0.7138    0.1172 C   0  0  0  0  0  0  0  0  0  0  0  0
    1.9692    0.0883   -0.6638 C   0  0  0  0  0  0  0  0  0  0  0  0
    0.8695   -0.4256    0.2482 C   0  0  0  0  0  0  0  0  0  0  0  0
    0.2180    0.4776    1.0833 O   0  0  0  0  0  0  0  0  0  0  0  0
   -0.4391   -0.0963    0.0345 C   0  0  0  0  0  0  0  0  0  0  0  0
   -1.1106    0.6957   -1.0164 C   0  0  0  0  0  0  0  0  0  0  0  0
   -2.3506   -0.1564   -0.8554 C   0  0  0  0  0  0  0  0  0  0  0  0
   -2.9121   -0.3990    0.4884 C   0  0  0  0  0  0  0  0  0  0  0  0
   -1.6054   -1.0032    0.2057 C   0  0  0  0  0  0  0  0  0  0  0  0
    3.0444    0.3932    1.1815 H   0  0  0  0  0  0  0  0  0  0  0  0
    3.0181    1.8057    0.0479 H   0  0  0  0  0  0  0  0  0  0  0  0
    4.0799    0.3259   -0.2590 H   0  0  0  0  0  0  0  0  0  0  0  0
    2.3332   -0.7935   -1.2339 H   0  0  0  0  0  0  0  0  0  0  0  0
    1.5486    0.7873   -1.4125 H   0  0  0  0  0  0  0  0  0  0  0  0
    1.1732   -1.3636    0.7766 H   0  0  0  0  0  0  0  0  0  0  0  0
   -1.3521    1.7538   -0.7835 H   0  0  0  0  0  0  0  0  0  0  0  0
   -0.6605    0.6406   -2.0173 H   0  0  0  0  0  0  0  0  0  0  0  0
   -2.7251   -0.6950   -1.7222 H   0  0  0  0  0  0  0  0  0  0  0  0
   -2.9305    0.3919    1.2652 H   0  0  0  0  0  0  0  0  0  0  0  0
   -3.7744   -1.0763    0.5396 H   0  0  0  0  0  0  0  0  0  0  0  0
   -1.4928   -2.0646   -0.0320 H   0  0  0  0  0  0  0  0  0  0  0  0
  1  2  1  0
  2  3  1  0
  3  4  1  0
  4  5  1  0
  5  6  1  0
  6  7  1  0
  7  8  1  0
  8  9  1  0
  5  3  1  0
  9  7  1  0
  9  5  1  0
  1 10  1  0
  1 11  1  0
  1 12  1  0
  2 13  1  0
  2 14  1  0
  3 15  1  0
  6 16  1  0
  6 17  1  0
  7 18  1  0
  8 19  1  0
  8 20  1  0
  9 21  1  0
M  END
