
     RDKit          3D

 20 20  0  0  0  0  0  0  0  0999 V2000
   -1.9812   -1.1974   -0.2180 C   0  0  0  0  0  0  0  0  0  0  0  0
   -1.4385    0.1316   -0.6381 C   0  0  0  0  0  0  0  0  0  0  0  0
   -0.2217    0.5628    0.1195 C   0  0  0  0  0  0  0  0  0  0  0  0
    0.3386    1.8797   -0.2918 C   0  0  0  0  0  0  0  0  0  0  0  0
    0.3590    2.7611    0.6094 O   0  0  0  0  0  0  0  0  0  0  0  0
    0.2691    0.0618    1.3989 C   0  0  0  0  0  0  0  0  0  0  0  0
    0.8270   -0.5514    0.1768 C   0  0  0  0  0  0  0  0  0  0  0  0
    2.2135   -0.2394   -0.2767 C   0  0  0  0  0  0  0  0  0  0  0  0
   -1.7068   -2.0380   -0.8816 H   0  0  0  0  0  0  0  0  0  0  0  0
   -3.1087   -1.1528   -0.2721 H   0  0  0  0  0  0  0  0  0  0  0  0
   -1.7596   -1.4745    0.8308 H   0  0  0  0  0  0  0  0  0  0  0  0
   -1.2647    0.1550   -1.7154 H   0  0  0  0  0  0  0  0  0  0  0  0
   -2.2318    0.9048   -0.3802 H   0  0  0  0  0  0  0  0  0  0  0  0
    0.7441    2.2023   -1.2076 H   0  0  0  0  0  0  0  0  0  0  0  0
   -0.3673   -0.5227    2.0833 H   0  0  0  0  0  0  0  0  0  0  0  0
    1.0314    0.6592    1.9725 H   0  0  0  0  0  0  0  0  0  0  0  0
    0.4518   -1.5474   -0.1000 H   0  0  0  0  0  0  0  0  0  0  0  0
    2.3522   -0.2361   -1.3952 H   0  0  0  0  0  0  0  0  0  0  0  0
    2.8943   -1.0723    0.0839 H   0  0  0  0  0  0  0  0  0  0  0  0
    2.5993    0.7136    0.1015 H   0  0  0  0  0  0  0  0  0  0  0  0
  1  2  1  0
  2  3  1  0
  3  4  1  0
  4  5  2  0
  3  6  1  0
  6  7  1  0
  7  8  1  0
  7  3  1  0
  1  9  1  0
  1 10  1  0
  1 11  1  0
  2 12  1  0
  2 13  1  0
  4 14  1  0
  6 15  1  0
  6 16  1  0
  7 17  1  0
  8 18  1  0
  8 19  1  0
  8 20  1  0
M  END
