
     RDKit          3D

 23 24  0  0  0  0  0  0  0  0999 V2000
    1.7554   -1.6178    0.4481 C   0  0  0  0  0  0  0  0  0  0  0  0
    2.0482   -0.1853    0.7418 C   0  0  0  0  0  0  0  0  0  0  0  0
    0.9432    0.7777    0.4903 C   0  0  0  0  0  0  0  0  0  0  0  0
    0.4015    0.8825   -0.8768 C   0  0  0  0  0  0  0  0  0  0  0  0
   -0.5607    2.0110   -1.1235 C   0  0  0  0  0  0  0  0  0  0  0  0
   -1.4972    1.3377   -0.1377 C   0  0  0  0  0  0  0  0  0  0  0  0
   -0.4523    0.2951    0.1329 C   0  0  0  0  0  0  0  0  0  0  0  0
   -0.7208   -0.9820    0.4102 O   0  0  0  0  0  0  0  0  0  0  0  0
   -1.9294   -1.4943    0.1282 C   0  0  0  0  0  0  0  0  0  0  0  0
    1.2318   -1.8099   -0.5042 H   0  0  0  0  0  0  0  0  0  0  0  0
    2.7418   -2.1474    0.4287 H   0  0  0  0  0  0  0  0  0  0  0  0
    1.1396   -2.0577    1.2609 H   0  0  0  0  0  0  0  0  0  0  0  0
    2.9382    0.1701    0.1669 H   0  0  0  0  0  0  0  0  0  0  0  0
    2.2717   -0.1422    1.8526 H   0  0  0  0  0  0  0  0  0  0  0  0
    0.9170    1.6606    1.1621 H   0  0  0  0  0  0  0  0  0  0  0  0
    0.8392    0.3747   -1.7339 H   0  0  0  0  0  0  0  0  0  0  0  0
   -0.1617    2.9738   -0.7402 H   0  0  0  0  0  0  0  0  0  0  0  0
   -0.9285    2.0795   -2.1573 H   0  0  0  0  0  0  0  0  0  0  0  0
   -1.7667    1.9807    0.7196 H   0  0  0  0  0  0  0  0  0  0  0  0
   -2.3744    0.9545   -0.6900 H   0  0  0  0  0  0  0  0  0  0  0  0
   -2.7976   -1.0276    0.6148 H   0  0  0  0  0  0  0  0  0  0  0  0
   -2.0886   -1.4611   -0.9888 H   0  0  0  0  0  0  0  0  0  0  0  0
   -1.9496   -2.5729    0.3952 H   0  0  0  0  0  0  0  0  0  0  0  0
  1  2  1  0
  2  3  1  0
  3  4  1  0
  4  5  1  0
  5  6  1  0
  6  7  1  0
  7  8  1  0
  8  9  1  0
  7  3  1  0
  7  4  1  0
  1 10  1  0
  1 11  1  0
  1 12  1  0
  2 13  1  0
  2 14  1  0
  3 15  1  0
  4 16  1  0
  5 17  1  0
  5 18  1  0
  6 19  1  0
  6 20  1  0
  9 21  1  0
  9 22  1  0
  9 23  1  0
M  END
