
     RDKit          3D

 18 19  0  0  0  0  0  0  0  0999 V2000
    2.4196    0.3039   -0.0670 C   0  0  0  0  0  0  0  0  0  0  0  0
    1.3408   -0.3759    0.7511 C   0  0  0  0  0  0  0  0  0  0  0  0
    0.2388   -0.7943   -0.2030 C   0  0  0  0  0  0  0  0  0  0  0  0
   -0.8890   -1.4785    0.4806 O   0  0  0  0  0  0  0  0  0  0  0  0
   -1.0132   -0.2656   -0.1338 C   0  0  0  0  0  0  0  0  0  0  0  0
   -1.5855    0.9030    0.5437 C   0  0  0  0  0  0  0  0  0  0  0  0
   -2.2813    1.2242   -0.6315 O   0  0  0  0  0  0  0  0  0  0  0  0
   -1.9939   -0.0166   -1.2290 C   0  0  0  0  0  0  0  0  0  0  0  0
    3.3063    0.5626    0.5447 H   0  0  0  0  0  0  0  0  0  0  0  0
    1.9698    1.1734   -0.5561 H   0  0  0  0  0  0  0  0  0  0  0  0
    2.7087   -0.4386   -0.8599 H   0  0  0  0  0  0  0  0  0  0  0  0
    1.7847   -1.3027    1.1585 H   0  0  0  0  0  0  0  0  0  0  0  0
    0.9705    0.3205    1.5157 H   0  0  0  0  0  0  0  0  0  0  0  0
    0.5659   -1.4742   -1.0164 H   0  0  0  0  0  0  0  0  0  0  0  0
   -2.3455    0.5955    1.3146 H   0  0  0  0  0  0  0  0  0  0  0  0
   -0.9181    1.7208    0.8591 H   0  0  0  0  0  0  0  0  0  0  0  0
   -2.8169   -0.7291   -1.2571 H   0  0  0  0  0  0  0  0  0  0  0  0
   -1.4616    0.0716   -2.2059 H   0  0  0  0  0  0  0  0  0  0  0  0
  1  2  1  0
  2  3  1  0
  3  4  1  0
  4  5  1  0
  5  6  1  0
  6  7  1  0
  7  8  1  0
  5  3  1  0
  8  5  1  0
  1  9  1  0
  1 10  1  0
  1 11  1  0
  2 12  1  0
  2 13  1  0
  3 14  1  0
  6 15  1  0
  6 16  1  0
  8 17  1  0
  8 18  1  0
M  END
