
     RDKit          3D

 23 23  0  0  0  0  0  0  0  0999 V2000
    2.9350   -0.5081    0.1304 C   0  0  0  0  0  0  0  0  0  0  0  0
    1.7700    0.1407    0.8200 C   0  0  0  0  0  0  0  0  0  0  0  0
    0.7145    0.6352   -0.1570 C   0  0  0  0  0  0  0  0  0  0  0  0
    0.1758   -0.4797   -0.9624 C   0  0  0  0  0  0  0  0  0  0  0  0
   -1.0119   -1.0594   -0.9626 C   0  0  0  0  0  0  0  0  0  0  0  0
   -2.2084   -0.8000   -0.1656 C   0  0  0  0  0  0  0  0  0  0  0  0
   -2.4944    0.6560    0.0856 C   0  0  0  0  0  0  0  0  0  0  0  0
   -1.4533    1.4957   -0.2153 O   0  0  0  0  0  0  0  0  0  0  0  0
   -0.4136    1.2152    0.6674 C   0  0  0  0  0  0  0  0  0  0  0  0
    3.7067    0.2333   -0.1780 H   0  0  0  0  0  0  0  0  0  0  0  0
    2.6367   -1.1889   -0.6902 H   0  0  0  0  0  0  0  0  0  0  0  0
    3.4252   -1.1749    0.8993 H   0  0  0  0  0  0  0  0  0  0  0  0
    2.1698    1.0187    1.3768 H   0  0  0  0  0  0  0  0  0  0  0  0
    1.3301   -0.5475    1.5692 H   0  0  0  0  0  0  0  0  0  0  0  0
    1.1175    1.3914   -0.8440 H   0  0  0  0  0  0  0  0  0  0  0  0
    0.8767   -0.8940   -1.6775 H   0  0  0  0  0  0  0  0  0  0  0  0
   -1.1114   -1.8671   -1.6783 H   0  0  0  0  0  0  0  0  0  0  0  0
   -2.1522   -1.3754    0.8032 H   0  0  0  0  0  0  0  0  0  0  0  0
   -3.0888   -1.2065   -0.7025 H   0  0  0  0  0  0  0  0  0  0  0  0
   -3.4408    0.9998   -0.4041 H   0  0  0  0  0  0  0  0  0  0  0  0
   -2.6973    0.7774    1.1912 H   0  0  0  0  0  0  0  0  0  0  0  0
   -0.0974    2.1067    1.2429 H   0  0  0  0  0  0  0  0  0  0  0  0
   -0.6885    0.4314    1.4139 H   0  0  0  0  0  0  0  0  0  0  0  0
  1  2  1  0
  2  3  1  0
  3  4  1  0
  4  5  2  0
  5  6  1  0
  6  7  1  0
  7  8  1  0
  8  9  1  0
  9  3  1  0
  1 10  1  0
  1 11  1  0
  1 12  1  0
  2 13  1  0
  2 14  1  0
  3 15  1  0
  4 16  1  0
  5 17  1  0
  6 18  1  0
  6 19  1  0
  7 20  1  0
  7 21  1  0
  9 22  1  0
  9 23  1  0
M  END
