
     RDKit          3D

 23 24  0  0  0  0  0  0  0  0999 V2000
    2.1343    0.5889    0.9743 C   0  0  0  0  0  0  0  0  0  0  0  0
    1.5324    0.7690   -0.3683 C   0  0  0  0  0  0  0  0  0  0  0  0
    0.2858    0.0623   -0.6186 C   0  0  0  0  0  0  0  0  0  0  0  0
    0.2317   -1.4239   -0.5265 C   0  0  0  0  0  0  0  0  0  0  0  0
   -0.8721   -1.1535   -1.5220 C   0  0  0  0  0  0  0  0  0  0  0  0
   -1.9391   -0.4603   -0.6870 C   0  0  0  0  0  0  0  0  0  0  0  0
   -1.0025    0.5886   -0.0491 C   0  0  0  0  0  0  0  0  0  0  0  0
   -1.0783    0.5700    1.4302 C   0  0  0  0  0  0  0  0  0  0  0  0
   -0.0717   -0.0901   -1.9809 O   0  0  0  0  0  0  0  0  0  0  0  0
    2.4573   -0.4679    1.1650 H   0  0  0  0  0  0  0  0  0  0  0  0
    1.5228    0.9123    1.8134 H   0  0  0  0  0  0  0  0  0  0  0  0
    3.0729    1.2170    1.0101 H   0  0  0  0  0  0  0  0  0  0  0  0
    2.2957    0.4441   -1.1279 H   0  0  0  0  0  0  0  0  0  0  0  0
    1.3925    1.8522   -0.5502 H   0  0  0  0  0  0  0  0  0  0  0  0
   -0.1092   -1.8499    0.4330 H   0  0  0  0  0  0  0  0  0  0  0  0
    1.1147   -1.8841   -0.9836 H   0  0  0  0  0  0  0  0  0  0  0  0
   -1.1616   -1.9080   -2.2082 H   0  0  0  0  0  0  0  0  0  0  0  0
   -2.7073    0.0183   -1.2999 H   0  0  0  0  0  0  0  0  0  0  0  0
   -2.3138   -1.1590    0.0678 H   0  0  0  0  0  0  0  0  0  0  0  0
   -1.2654    1.5857   -0.4260 H   0  0  0  0  0  0  0  0  0  0  0  0
   -2.1672    0.4734    1.7128 H   0  0  0  0  0  0  0  0  0  0  0  0
   -0.5681   -0.2606    1.9242 H   0  0  0  0  0  0  0  0  0  0  0  0
   -0.7837    1.5756    1.8175 H   0  0  0  0  0  0  0  0  0  0  0  0
  1  2  1  0
  2  3  1  0
  3  4  1  0
  4  5  1  0
  5  6  1  0
  6  7  1  0
  7  8  1  0
  5  9  1  0
  7  3  1  0
  9  3  1  0
  1 10  1  0
  1 11  1  0
  1 12  1  0
  2 13  1  0
  2 14  1  0
  4 15  1  0
  4 16  1  0
  5 17  1  0
  6 18  1  0
  6 19  1  0
  7 20  1  0
  8 21  1  0
  8 22  1  0
  8 23  1  0
M  END
