
     RDKit          3D

 23 24  0  0  0  0  0  0  0  0999 V2000
    2.4614    0.1984   -1.0153 C   0  0  0  0  0  0  0  0  0  0  0  0
    1.8298   -0.0569    0.3090 C   0  0  0  0  0  0  0  0  0  0  0  0
    0.4709    0.5596    0.4697 C   0  0  0  0  0  0  0  0  0  0  0  0
   -0.1159    0.2673    1.8271 C   0  0  0  0  0  0  0  0  0  0  0  0
   -1.3361   -0.2769    1.1395 C   0  0  0  0  0  0  0  0  0  0  0  0
   -1.2319   -1.3897    0.1690 C   0  0  0  0  0  0  0  0  0  0  0  0
   -2.4311   -1.7517   -0.4473 O   0  0  0  0  0  0  0  0  0  0  0  0
   -0.6588   -0.1017   -0.2278 C   0  0  0  0  0  0  0  0  0  0  0  0
   -1.4709    0.7673   -1.1799 C   0  0  0  0  0  0  0  0  0  0  0  0
    2.3839    1.2507   -1.3534 H   0  0  0  0  0  0  0  0  0  0  0  0
    2.1245   -0.4424   -1.8250 H   0  0  0  0  0  0  0  0  0  0  0  0
    3.5661    0.0073   -0.8978 H   0  0  0  0  0  0  0  0  0  0  0  0
    1.7736   -1.1471    0.4719 H   0  0  0  0  0  0  0  0  0  0  0  0
    2.5134    0.3369    1.0975 H   0  0  0  0  0  0  0  0  0  0  0  0
    0.5148    1.6644    0.3114 H   0  0  0  0  0  0  0  0  0  0  0  0
    0.4531   -0.4483    2.4383 H   0  0  0  0  0  0  0  0  0  0  0  0
   -0.3787    1.1526    2.4317 H   0  0  0  0  0  0  0  0  0  0  0  0
   -2.2999    0.2020    1.3154 H   0  0  0  0  0  0  0  0  0  0  0  0
   -0.6368   -2.2517    0.4986 H   0  0  0  0  0  0  0  0  0  0  0  0
   -2.4379   -1.5568   -1.4162 H   0  0  0  0  0  0  0  0  0  0  0  0
   -1.4640    1.8000   -0.7476 H   0  0  0  0  0  0  0  0  0  0  0  0
   -2.5534    0.4664   -1.1682 H   0  0  0  0  0  0  0  0  0  0  0  0
   -1.0761    0.7503   -2.2007 H   0  0  0  0  0  0  0  0  0  0  0  0
  1  2  1  0
  2  3  1  0
  3  4  1  0
  4  5  1  0
  5  6  1  0
  6  7  1  0
  6  8  1  0
  8  9  1  0
  8  3  1  0
  8  5  1  0
  1 10  1  0
  1 11  1  0
  1 12  1  0
  2 13  1  0
  2 14  1  0
  3 15  1  0
  4 16  1  0
  4 17  1  0
  5 18  1  0
  6 19  1  0
  7 20  1  0
  9 21  1  0
  9 22  1  0
  9 23  1  0
M  END
