
     RDKit          3D

 23 24  0  0  0  0  0  0  0  0999 V2000
   -2.8004   -0.1795    0.2774 C   0  0  0  0  0  0  0  0  0  0  0  0
   -1.8372    0.2361   -0.7761 C   0  0  0  0  0  0  0  0  0  0  0  0
   -0.4685   -0.0088   -0.3584 C   0  0  0  0  0  0  0  0  0  0  0  0
   -0.0384   -1.4149   -0.0290 C   0  0  0  0  0  0  0  0  0  0  0  0
    1.4616   -1.1181    0.1860 C   0  0  0  0  0  0  0  0  0  0  0  0
    1.3813    0.3850   -0.1129 C   0  0  0  0  0  0  0  0  0  0  0  0
    2.6087    1.1540   -0.1103 C   0  0  0  0  0  0  0  0  0  0  0  0
    0.1830    0.8629    0.6597 C   0  0  0  0  0  0  0  0  0  0  0  0
    0.5639    0.3815   -1.2435 O   0  0  0  0  0  0  0  0  0  0  0  0
   -2.6721    0.3469    1.2408 H   0  0  0  0  0  0  0  0  0  0  0  0
   -2.8195   -1.2915    0.4218 H   0  0  0  0  0  0  0  0  0  0  0  0
   -3.8343    0.0690   -0.0875 H   0  0  0  0  0  0  0  0  0  0  0  0
   -2.0651   -0.3367   -1.6973 H   0  0  0  0  0  0  0  0  0  0  0  0
   -1.9870    1.2931   -1.0119 H   0  0  0  0  0  0  0  0  0  0  0  0
   -0.4701   -1.7096    0.9382 H   0  0  0  0  0  0  0  0  0  0  0  0
   -0.1974   -2.1155   -0.8476 H   0  0  0  0  0  0  0  0  0  0  0  0
    2.0688   -1.6170   -0.5734 H   0  0  0  0  0  0  0  0  0  0  0  0
    1.7613   -1.3019    1.2162 H   0  0  0  0  0  0  0  0  0  0  0  0
    3.3504    0.6829    0.5999 H   0  0  0  0  0  0  0  0  0  0  0  0
    2.4856    2.1933    0.1980 H   0  0  0  0  0  0  0  0  0  0  0  0
    3.1269    1.0985   -1.1083 H   0  0  0  0  0  0  0  0  0  0  0  0
    0.0024    1.9260    0.5334 H   0  0  0  0  0  0  0  0  0  0  0  0
    0.1960    0.4645    1.6849 H   0  0  0  0  0  0  0  0  0  0  0  0
  1  2  1  0
  2  3  1  0
  3  4  1  0
  4  5  1  0
  5  6  1  0
  6  7  1  0
  6  8  1  0
  6  9  1  0
  8  3  1  0
  9  3  1  0
  1 10  1  0
  1 11  1  0
  1 12  1  0
  2 13  1  0
  2 14  1  0
  4 15  1  0
  4 16  1  0
  5 17  1  0
  5 18  1  0
  7 19  1  0
  7 20  1  0
  7 21  1  0
  8 22  1  0
  8 23  1  0
M  END
