
     RDKit          3D

 20 21  0  0  0  0  0  0  0  0999 V2000
    2.3870   -0.3672    0.0830 C   0  0  0  0  0  0  0  0  0  0  0  0
    1.2145   -0.0545   -0.7859 C   0  0  0  0  0  0  0  0  0  0  0  0
    0.0739    0.6006   -0.0207 C   0  0  0  0  0  0  0  0  0  0  0  0
    0.3930    1.7909    0.5810 O   0  0  0  0  0  0  0  0  0  0  0  0
   -1.1145    0.7476   -0.9785 C   0  0  0  0  0  0  0  0  0  0  0  0
   -1.6549   -0.5223   -0.3765 C   0  0  0  0  0  0  0  0  0  0  0  0
   -2.0924   -0.3912    1.0410 C   0  0  0  0  0  0  0  0  0  0  0  0
   -0.6415   -0.4185    0.8038 C   0  0  0  0  0  0  0  0  0  0  0  0
    2.0401   -0.9049    0.9861 H   0  0  0  0  0  0  0  0  0  0  0  0
    3.0386    0.4882    0.2979 H   0  0  0  0  0  0  0  0  0  0  0  0
    3.0242   -1.1062   -0.4762 H   0  0  0  0  0  0  0  0  0  0  0  0
    1.5894    0.6222   -1.5997 H   0  0  0  0  0  0  0  0  0  0  0  0
    0.8843   -0.9800   -1.2801 H   0  0  0  0  0  0  0  0  0  0  0  0
    0.3923    1.7647    1.5710 H   0  0  0  0  0  0  0  0  0  0  0  0
   -1.7859    1.6016   -0.6969 H   0  0  0  0  0  0  0  0  0  0  0  0
   -0.8468    0.7103   -2.0433 H   0  0  0  0  0  0  0  0  0  0  0  0
   -1.6248   -1.4680   -0.9079 H   0  0  0  0  0  0  0  0  0  0  0  0
   -2.5403   -1.2964    1.4701 H   0  0  0  0  0  0  0  0  0  0  0  0
   -2.6468    0.5321    1.2793 H   0  0  0  0  0  0  0  0  0  0  0  0
   -0.0895   -1.3493    1.0526 H   0  0  0  0  0  0  0  0  0  0  0  0
  1  2  1  0
  2  3  1  0
  3  4  1  0
  3  5  1  0
  5  6  1  0
  6  7  1  0
  7  8  1  0
  8  3  1  0
  8  6  1  0
  1  9  1  0
  1 10  1  0
  1 11  1  0
  2 12  1  0
  2 13  1  0
  4 14  1  0
  5 15  1  0
  5 16  1  0
  6 17  1  0
  7 18  1  0
  7 19  1  0
  8 20  1  0
M  END
