
     RDKit          3D

 23 23  0  0  0  0  0  0  0  0999 V2000
    2.6246   -0.1091   -0.2074 C   0  0  0  0  0  0  0  0  0  0  0  0
    1.3318    0.5969   -0.5064 C   0  0  0  0  0  0  0  0  0  0  0  0
    0.1304   -0.1411    0.0371 C   0  0  0  0  0  0  0  0  0  0  0  0
    0.1089   -0.3468    1.5149 C   0  0  0  0  0  0  0  0  0  0  0  0
   -0.1477   -1.4342   -0.6574 C   0  0  0  0  0  0  0  0  0  0  0  0
    0.4187   -2.3831   -1.1471 O   0  0  0  0  0  0  0  0  0  0  0  0
   -1.5858   -1.0740   -0.5028 C   0  0  0  0  0  0  0  0  0  0  0  0
   -1.1250    0.3556   -0.6009 C   0  0  0  0  0  0  0  0  0  0  0  0
   -1.9237    1.3814    0.0773 C   0  0  0  0  0  0  0  0  0  0  0  0
    2.4069   -1.0254    0.3477 H   0  0  0  0  0  0  0  0  0  0  0  0
    3.3174    0.5001    0.4237 H   0  0  0  0  0  0  0  0  0  0  0  0
    3.1671   -0.2970   -1.1628 H   0  0  0  0  0  0  0  0  0  0  0  0
    1.1700    0.7672   -1.5778 H   0  0  0  0  0  0  0  0  0  0  0  0
    1.3554    1.5830   -0.0013 H   0  0  0  0  0  0  0  0  0  0  0  0
   -0.3834   -1.3146    1.8194 H   0  0  0  0  0  0  0  0  0  0  0  0
   -0.3370    0.4526    2.0982 H   0  0  0  0  0  0  0  0  0  0  0  0
    1.1746   -0.4416    1.8652 H   0  0  0  0  0  0  0  0  0  0  0  0
   -2.0210   -1.3155    0.4907 H   0  0  0  0  0  0  0  0  0  0  0  0
   -2.2532   -1.4251   -1.2989 H   0  0  0  0  0  0  0  0  0  0  0  0
   -0.9185    0.6221   -1.6726 H   0  0  0  0  0  0  0  0  0  0  0  0
   -3.0158    1.2035   -0.1458 H   0  0  0  0  0  0  0  0  0  0  0  0
   -1.6521    2.3881   -0.3504 H   0  0  0  0  0  0  0  0  0  0  0  0
   -1.8424    1.4571    1.1573 H   0  0  0  0  0  0  0  0  0  0  0  0
  1  2  1  0
  2  3  1  0
  3  4  1  0
  3  5  1  0
  5  6  2  0
  5  7  1  0
  7  8  1  0
  8  9  1  0
  8  3  1  0
  1 10  1  0
  1 11  1  0
  1 12  1  0
  2 13  1  0
  2 14  1  0
  4 15  1  0
  4 16  1  0
  4 17  1  0
  7 18  1  0
  7 19  1  0
  8 20  1  0
  9 21  1  0
  9 22  1  0
  9 23  1  0
M  END
