
     RDKit          3D

 21 22  0  0  0  0  0  0  0  0999 V2000
    2.6892    0.1263   -0.0100 C   0  0  0  0  0  0  0  0  0  0  0  0
    1.3741   -0.2436    0.5976 C   0  0  0  0  0  0  0  0  0  0  0  0
    0.2002    0.4978   -0.0185 C   0  0  0  0  0  0  0  0  0  0  0  0
    0.0942    0.2034   -1.5011 C   0  0  0  0  0  0  0  0  0  0  0  0
   -0.9425   -0.8381   -1.1458 C   0  0  0  0  0  0  0  0  0  0  0  0
   -1.3069   -1.8024   -1.8092 O   0  0  0  0  0  0  0  0  0  0  0  0
   -1.1254   -0.1302    0.0915 C   0  0  0  0  0  0  0  0  0  0  0  0
   -2.3719    0.5911    0.3863 C   0  0  0  0  0  0  0  0  0  0  0  0
   -1.8043   -0.5328    1.2927 C   0  0  0  0  0  0  0  0  0  0  0  0
    2.5116    0.6913   -0.9683 H   0  0  0  0  0  0  0  0  0  0  0  0
    3.2790   -0.7957   -0.1781 H   0  0  0  0  0  0  0  0  0  0  0  0
    3.2877    0.7892    0.6650 H   0  0  0  0  0  0  0  0  0  0  0  0
    1.2249   -1.3306    0.4941 H   0  0  0  0  0  0  0  0  0  0  0  0
    1.4364   -0.0480    1.6967 H   0  0  0  0  0  0  0  0  0  0  0  0
    0.1670    1.5761    0.2314 H   0  0  0  0  0  0  0  0  0  0  0  0
   -0.3778    1.0876   -2.0015 H   0  0  0  0  0  0  0  0  0  0  0  0
    0.9829   -0.1876   -1.9835 H   0  0  0  0  0  0  0  0  0  0  0  0
   -2.2479    1.6303    0.7508 H   0  0  0  0  0  0  0  0  0  0  0  0
   -3.2482    0.3314   -0.2342 H   0  0  0  0  0  0  0  0  0  0  0  0
   -2.4212   -1.4333    1.3754 H   0  0  0  0  0  0  0  0  0  0  0  0
   -1.4011   -0.1823    2.2687 H   0  0  0  0  0  0  0  0  0  0  0  0
  1  2  1  0
  2  3  1  0
  3  4  1  0
  4  5  1  0
  5  6  2  0
  5  7  1  0
  7  8  1  0
  8  9  1  0
  7  3  1  0
  9  7  1  0
  1 10  1  0
  1 11  1  0
  1 12  1  0
  2 13  1  0
  2 14  1  0
  3 15  1  0
  4 16  1  0
  4 17  1  0
  8 18  1  0
  8 19  1  0
  9 20  1  0
  9 21  1  0
M  END
