
     RDKit          3D

 23 25  0  0  0  0  0  0  0  0999 V2000
   -2.4249    0.5372   -0.3278 C   0  0  0  0  0  0  0  0  0  0  0  0
   -1.2583    0.2120    0.5919 C   0  0  0  0  0  0  0  0  0  0  0  0
   -0.3510   -0.8578   -0.0364 C   0  0  0  0  0  0  0  0  0  0  0  0
    0.7658   -1.1334    0.9115 C   0  0  0  0  0  0  0  0  0  0  0  0
    1.2614    0.3113    1.1038 C   0  0  0  0  0  0  0  0  0  0  0  0
    2.3997    0.8480    0.3856 C   0  0  0  0  0  0  0  0  0  0  0  0
    1.0145    0.8485   -0.3341 C   0  0  0  0  0  0  0  0  0  0  0  0
    0.6563   -0.3225   -1.1378 C   0  0  0  0  0  0  0  0  0  0  0  0
   -0.5438   -1.0268   -1.4101 C   0  0  0  0  0  0  0  0  0  0  0  0
   -2.1570    1.2075   -1.1421 H   0  0  0  0  0  0  0  0  0  0  0  0
   -3.1613    1.0927    0.3132 H   0  0  0  0  0  0  0  0  0  0  0  0
   -2.9526   -0.3873   -0.6388 H   0  0  0  0  0  0  0  0  0  0  0  0
   -1.6858   -0.2805    1.4883 H   0  0  0  0  0  0  0  0  0  0  0  0
   -0.7566    1.1360    0.8257 H   0  0  0  0  0  0  0  0  0  0  0  0
    0.4285   -1.5302    1.8850 H   0  0  0  0  0  0  0  0  0  0  0  0
    1.5902   -1.7253    0.4596 H   0  0  0  0  0  0  0  0  0  0  0  0
    0.8916    0.8717    1.9561 H   0  0  0  0  0  0  0  0  0  0  0  0
    2.8254    1.7878    0.7016 H   0  0  0  0  0  0  0  0  0  0  0  0
    3.1235    0.0950   -0.0381 H   0  0  0  0  0  0  0  0  0  0  0  0
    0.6398    1.8499   -0.4689 H   0  0  0  0  0  0  0  0  0  0  0  0
    1.5686   -0.9767   -1.3170 H   0  0  0  0  0  0  0  0  0  0  0  0
   -0.5340   -2.0849   -1.8085 H   0  0  0  0  0  0  0  0  0  0  0  0
   -1.3400   -0.4721   -1.9625 H   0  0  0  0  0  0  0  0  0  0  0  0
  1  2  1  0
  2  3  1  0
  3  4  1  0
  4  5  1  0
  5  6  1  0
  6  7  1  0
  7  8  1  0
  8  9  1  0
  8  3  1  0
  9  3  1  0
  7  5  1  0
  1 10  1  0
  1 11  1  0
  1 12  1  0
  2 13  1  0
  2 14  1  0
  4 15  1  0
  4 16  1  0
  5 17  1  0
  6 18  1  0
  6 19  1  0
  7 20  1  0
  8 21  1  0
  9 22  1  0
  9 23  1  0
M  END
