
     RDKit          3D

 21 21  0  0  0  0  0  0  0  0999 V2000
    2.2920    0.6912    0.0307 C   0  0  0  0  0  0  0  0  0  0  0  0
    1.3501   -0.3884   -0.3814 C   0  0  0  0  0  0  0  0  0  0  0  0
   -0.0374   -0.2215    0.1526 C   0  0  0  0  0  0  0  0  0  0  0  0
   -0.1168   -0.2024    1.6125 C   0  0  0  0  0  0  0  0  0  0  0  0
    0.6162   -0.8672    2.3112 O   0  0  0  0  0  0  0  0  0  0  0  0
   -0.7901    0.9175   -0.4779 C   0  0  0  0  0  0  0  0  0  0  0  0
   -2.2183    0.4199   -0.3090 C   0  0  0  0  0  0  0  0  0  0  0  0
   -2.1616   -0.9378   -0.1294 O   0  0  0  0  0  0  0  0  0  0  0  0
   -0.8859   -1.3774   -0.3530 C   0  0  0  0  0  0  0  0  0  0  0  0
    2.5774    0.6073    1.1103 H   0  0  0  0  0  0  0  0  0  0  0  0
    1.9073    1.7103   -0.1942 H   0  0  0  0  0  0  0  0  0  0  0  0
    3.2358    0.5732   -0.5401 H   0  0  0  0  0  0  0  0  0  0  0  0
    1.3303   -0.5011   -1.4726 H   0  0  0  0  0  0  0  0  0  0  0  0
    1.7449   -1.3515    0.0253 H   0  0  0  0  0  0  0  0  0  0  0  0
   -0.8492    0.4211    2.1001 H   0  0  0  0  0  0  0  0  0  0  0  0
   -0.5833    0.8831   -1.5706 H   0  0  0  0  0  0  0  0  0  0  0  0
   -0.6132    1.8884   -0.0238 H   0  0  0  0  0  0  0  0  0  0  0  0
   -2.6481    0.8913    0.6043 H   0  0  0  0  0  0  0  0  0  0  0  0
   -2.8305    0.6264   -1.2101 H   0  0  0  0  0  0  0  0  0  0  0  0
   -0.6647   -2.3227    0.1591 H   0  0  0  0  0  0  0  0  0  0  0  0
   -0.6548   -1.4598   -1.4440 H   0  0  0  0  0  0  0  0  0  0  0  0
  1  2  1  0
  2  3  1  0
  3  4  1  0
  4  5  2  0
  3  6  1  0
  6  7  1  0
  7  8  1  0
  8  9  1  0
  9  3  1  0
  1 10  1  0
  1 11  1  0
  1 12  1  0
  2 13  1  0
  2 14  1  0
  4 15  1  0
  6 16  1  0
  6 17  1  0
  7 18  1  0
  7 19  1  0
  9 20  1  0
  9 21  1  0
M  END
