
     RDKit          3D

 21 21  0  0  0  0  0  0  0  0999 V2000
    2.5855   -0.2782   -0.3922 C   0  0  0  0  0  0  0  0  0  0  0  0
    1.4831    0.7085   -0.2090 C   0  0  0  0  0  0  0  0  0  0  0  0
    0.4460    0.3016    0.7807 C   0  0  0  0  0  0  0  0  0  0  0  0
   -0.5414    1.2887    0.8815 O   0  0  0  0  0  0  0  0  0  0  0  0
   -1.2383    0.6536   -0.1247 C   0  0  0  0  0  0  0  0  0  0  0  0
   -2.7369    0.5618    0.0685 C   0  0  0  0  0  0  0  0  0  0  0  0
   -0.6023   -0.6508    0.3415 C   0  0  0  0  0  0  0  0  0  0  0  0
   -0.3358   -1.5665   -0.7436 C   0  0  0  0  0  0  0  0  0  0  0  0
    0.4001   -2.5171   -0.5865 O   0  0  0  0  0  0  0  0  0  0  0  0
    2.7358   -0.9767    0.4296 H   0  0  0  0  0  0  0  0  0  0  0  0
    2.4776   -0.8802   -1.3393 H   0  0  0  0  0  0  0  0  0  0  0  0
    3.5691    0.2578   -0.5311 H   0  0  0  0  0  0  0  0  0  0  0  0
    1.9529    1.6596    0.1803 H   0  0  0  0  0  0  0  0  0  0  0  0
    1.0878    0.9631   -1.2014 H   0  0  0  0  0  0  0  0  0  0  0  0
    0.8928    0.1361    1.7753 H   0  0  0  0  0  0  0  0  0  0  0  0
   -0.9507    0.9869   -1.1257 H   0  0  0  0  0  0  0  0  0  0  0  0
   -2.9519    0.9392    1.0943 H   0  0  0  0  0  0  0  0  0  0  0  0
   -3.1396   -0.4351   -0.1326 H   0  0  0  0  0  0  0  0  0  0  0  0
   -3.1855    1.3205   -0.6392 H   0  0  0  0  0  0  0  0  0  0  0  0
   -1.1659   -1.0453    1.2253 H   0  0  0  0  0  0  0  0  0  0  0  0
   -0.7824   -1.4274   -1.7138 H   0  0  0  0  0  0  0  0  0  0  0  0
  1  2  1  0
  2  3  1  0
  3  4  1  0
  4  5  1  0
  5  6  1  0
  5  7  1  0
  7  8  1  0
  8  9  2  0
  7  3  1  0
  1 10  1  0
  1 11  1  0
  1 12  1  0
  2 13  1  0
  2 14  1  0
  3 15  1  0
  5 16  1  0
  6 17  1  0
  6 18  1  0
  6 19  1  0
  7 20  1  0
  8 21  1  0
M  END
