
     RDKit          3D

 19 20  0  0  0  0  0  0  0  0999 V2000
   -2.0907   -0.4424    0.6941 C   0  0  0  0  0  0  0  0  0  0  0  0
   -1.1892   -0.5670   -0.5246 C   0  0  0  0  0  0  0  0  0  0  0  0
   -0.1192    0.2996   -0.5651 C   0  0  0  0  0  0  0  0  0  0  0  0
    0.8411    0.3862   -1.5606 O   0  0  0  0  0  0  0  0  0  0  0  0
    1.3075    1.3229   -0.6511 C   0  0  0  0  0  0  0  0  0  0  0  0
   -0.0858    1.7401   -0.5083 C   0  0  0  0  0  0  0  0  0  0  0  0
   -0.7841    2.7064   -0.4052 O   0  0  0  0  0  0  0  0  0  0  0  0
    1.0448    0.3051    0.3997 C   0  0  0  0  0  0  0  0  0  0  0  0
    1.8187   -0.9626    0.3546 C   0  0  0  0  0  0  0  0  0  0  0  0
   -1.5051   -0.4573    1.6442 H   0  0  0  0  0  0  0  0  0  0  0  0
   -2.7609    0.4363    0.6175 H   0  0  0  0  0  0  0  0  0  0  0  0
   -2.7320   -1.3476    0.7084 H   0  0  0  0  0  0  0  0  0  0  0  0
   -1.8633   -0.4989   -1.4046 H   0  0  0  0  0  0  0  0  0  0  0  0
   -0.8652   -1.6521   -0.5187 H   0  0  0  0  0  0  0  0  0  0  0  0
    2.1232    1.9072   -0.7583 H   0  0  0  0  0  0  0  0  0  0  0  0
    0.8592    0.7543    1.3738 H   0  0  0  0  0  0  0  0  0  0  0  0
    2.9117   -0.8258    0.5531 H   0  0  0  0  0  0  0  0  0  0  0  0
    1.4494   -1.6234    1.1680 H   0  0  0  0  0  0  0  0  0  0  0  0
    1.6402   -1.4811   -0.6169 H   0  0  0  0  0  0  0  0  0  0  0  0
  1  2  1  0
  2  3  1  0
  3  4  1  0
  4  5  1  0
  5  6  1  0
  6  7  2  0
  5  8  1  0
  8  9  1  0
  6  3  1  0
  8  3  1  0
  1 10  1  0
  1 11  1  0
  1 12  1  0
  2 13  1  0
  2 14  1  0
  5 15  1  0
  8 16  1  0
  9 17  1  0
  9 18  1  0
  9 19  1  0
M  END
