
     RDKit          3D

 23 23  0  0  0  0  0  0  0  0999 V2000
    2.7700   -0.9226   -0.5021 C   0  0  0  0  0  0  0  0  0  0  0  0
    2.1772    0.4493   -0.4677 C   0  0  0  0  0  0  0  0  0  0  0  0
    0.6788    0.3851   -0.2162 C   0  0  0  0  0  0  0  0  0  0  0  0
   -0.0279   -0.7114   -0.0479 C   0  0  0  0  0  0  0  0  0  0  0  0
   -1.4634   -0.4251    0.1786 C   0  0  0  0  0  0  0  0  0  0  0  0
   -2.3157   -0.5502   -1.0241 C   0  0  0  0  0  0  0  0  0  0  0  0
   -1.9138   -1.1993    1.2316 O   0  0  0  0  0  0  0  0  0  0  0  0
   -1.3892    1.0364    0.6694 C   0  0  0  0  0  0  0  0  0  0  0  0
   -0.2218    1.5509   -0.1349 C   0  0  0  0  0  0  0  0  0  0  0  0
    2.6838   -1.4077   -1.5126 H   0  0  0  0  0  0  0  0  0  0  0  0
    2.4015   -1.5515    0.3122 H   0  0  0  0  0  0  0  0  0  0  0  0
    3.8751   -0.8060   -0.3468 H   0  0  0  0  0  0  0  0  0  0  0  0
    2.6846    1.0377    0.3058 H   0  0  0  0  0  0  0  0  0  0  0  0
    2.3053    0.9632   -1.4342 H   0  0  0  0  0  0  0  0  0  0  0  0
    0.4067   -1.7325   -0.0735 H   0  0  0  0  0  0  0  0  0  0  0  0
   -2.1936    0.3694   -1.6405 H   0  0  0  0  0  0  0  0  0  0  0  0
   -2.0282   -1.4248   -1.6318 H   0  0  0  0  0  0  0  0  0  0  0  0
   -3.3828   -0.6408   -0.6870 H   0  0  0  0  0  0  0  0  0  0  0  0
   -1.2611   -1.2751    1.9598 H   0  0  0  0  0  0  0  0  0  0  0  0
   -2.3262    1.5692    0.4892 H   0  0  0  0  0  0  0  0  0  0  0  0
   -1.0943    1.0535    1.7407 H   0  0  0  0  0  0  0  0  0  0  0  0
    0.2524    2.4379    0.3268 H   0  0  0  0  0  0  0  0  0  0  0  0
   -0.6173    1.7947   -1.1489 H   0  0  0  0  0  0  0  0  0  0  0  0
  1  2  1  0
  2  3  1  0
  3  4  2  0
  4  5  1  0
  5  6  1  0
  5  7  1  0
  5  8  1  0
  8  9  1  0
  9  3  1  0
  1 10  1  0
  1 11  1  0
  1 12  1  0
  2 13  1  0
  2 14  1  0
  4 15  1  0
  6 16  1  0
  6 17  1  0
  6 18  1  0
  7 19  1  0
  8 20  1  0
  8 21  1  0
  9 22  1  0
  9 23  1  0
M  END
