
     RDKit          3D

 25 25  0  0  0  0  0  0  0  0999 V2000
    1.6467   -0.4473   -1.5105 C   0  0  0  0  0  0  0  0  0  0  0  0
    0.4750    0.4243   -1.1308 C   0  0  0  0  0  0  0  0  0  0  0  0
   -0.0462    0.1404    0.2480 C   0  0  0  0  0  0  0  0  0  0  0  0
   -1.2000    0.9519    0.7127 C   0  0  0  0  0  0  0  0  0  0  0  0
   -0.9488    2.4314    0.7616 C   0  0  0  0  0  0  0  0  0  0  0  0
    1.0395   -0.0606    1.2738 C   0  0  0  0  0  0  0  0  0  0  0  0
    1.1135   -1.4199    0.9169 O   0  0  0  0  0  0  0  0  0  0  0  0
   -0.2362   -1.3092    0.5833 C   0  0  0  0  0  0  0  0  0  0  0  0
   -0.7675   -2.2077   -0.4624 C   0  0  0  0  0  0  0  0  0  0  0  0
    1.4668   -1.5182   -1.3890 H   0  0  0  0  0  0  0  0  0  0  0  0
    2.5958   -0.0999   -1.0486 H   0  0  0  0  0  0  0  0  0  0  0  0
    1.7983   -0.2874   -2.6193 H   0  0  0  0  0  0  0  0  0  0  0  0
   -0.3196    0.2381   -1.9014 H   0  0  0  0  0  0  0  0  0  0  0  0
    0.7910    1.4645   -1.2705 H   0  0  0  0  0  0  0  0  0  0  0  0
   -1.5368    0.6228    1.7020 H   0  0  0  0  0  0  0  0  0  0  0  0
   -2.0789    0.8020    0.0251 H   0  0  0  0  0  0  0  0  0  0  0  0
   -1.8453    2.8966    1.2316 H   0  0  0  0  0  0  0  0  0  0  0  0
   -0.8631    2.9007   -0.2367 H   0  0  0  0  0  0  0  0  0  0  0  0
   -0.0972    2.6706    1.4240 H   0  0  0  0  0  0  0  0  0  0  0  0
    0.6817    0.1318    2.2974 H   0  0  0  0  0  0  0  0  0  0  0  0
    2.0053    0.4165    1.0679 H   0  0  0  0  0  0  0  0  0  0  0  0
   -0.8189   -1.4100    1.5398 H   0  0  0  0  0  0  0  0  0  0  0  0
   -0.9233   -1.6446   -1.4037 H   0  0  0  0  0  0  0  0  0  0  0  0
   -1.7699   -2.5711   -0.1588 H   0  0  0  0  0  0  0  0  0  0  0  0
   -0.1621   -3.1155   -0.6525 H   0  0  0  0  0  0  0  0  0  0  0  0
  1  2  1  0
  2  3  1  0
  3  4  1  0
  4  5  1  0
  3  6  1  0
  6  7  1  0
  7  8  1  0
  8  9  1  0
  8  3  1  0
  1 10  1  0
  1 11  1  0
  1 12  1  0
  2 13  1  0
  2 14  1  0
  4 15  1  0
  4 16  1  0
  5 17  1  0
  5 18  1  0
  5 19  1  0
  6 20  1  0
  6 21  1  0
  8 22  1  0
  9 23  1  0
  9 24  1  0
  9 25  1  0
M  END
