
     RDKit          3D

 21 22  0  0  0  0  0  0  0  0999 V2000
    2.2219    0.7952   -0.1383 C   0  0  0  0  0  0  0  0  0  0  0  0
    1.5270   -0.5498   -0.1572 C   0  0  0  0  0  0  0  0  0  0  0  0
    0.0812   -0.3950    0.2358 C   0  0  0  0  0  0  0  0  0  0  0  0
   -0.7213   -1.6697    0.2548 C   0  0  0  0  0  0  0  0  0  0  0  0
   -1.9005   -0.8378   -0.2702 C   0  0  0  0  0  0  0  0  0  0  0  0
   -0.8343    0.0784   -0.8870 C   0  0  0  0  0  0  0  0  0  0  0  0
   -1.0173    1.4058   -0.6084 O   0  0  0  0  0  0  0  0  0  0  0  0
   -0.8651    1.5667    0.7421 C   0  0  0  0  0  0  0  0  0  0  0  0
   -0.1799    0.4906    1.2528 O   0  0  0  0  0  0  0  0  0  0  0  0
    3.2844    0.6866   -0.3951 H   0  0  0  0  0  0  0  0  0  0  0  0
    2.0777    1.2086    0.8824 H   0  0  0  0  0  0  0  0  0  0  0  0
    1.7244    1.5230   -0.8260 H   0  0  0  0  0  0  0  0  0  0  0  0
    2.0258   -1.1806    0.6075 H   0  0  0  0  0  0  0  0  0  0  0  0
    1.5893   -1.0058   -1.1697 H   0  0  0  0  0  0  0  0  0  0  0  0
   -0.9377   -2.1080    1.2270 H   0  0  0  0  0  0  0  0  0  0  0  0
   -0.3765   -2.3596   -0.5418 H   0  0  0  0  0  0  0  0  0  0  0  0
   -2.5342   -1.3442   -0.9957 H   0  0  0  0  0  0  0  0  0  0  0  0
   -2.4193   -0.3079    0.5675 H   0  0  0  0  0  0  0  0  0  0  0  0
   -0.5214   -0.2085   -1.8907 H   0  0  0  0  0  0  0  0  0  0  0  0
   -1.8780    1.6785    1.1888 H   0  0  0  0  0  0  0  0  0  0  0  0
   -0.3461    2.5335    0.9213 H   0  0  0  0  0  0  0  0  0  0  0  0
  1  2  1  0
  2  3  1  0
  3  4  1  0
  4  5  1  0
  5  6  1  0
  6  7  1  0
  7  8  1  0
  8  9  1  0
  6  3  1  0
  9  3  1  0
  1 10  1  0
  1 11  1  0
  1 12  1  0
  2 13  1  0
  2 14  1  0
  4 15  1  0
  4 16  1  0
  5 17  1  0
  5 18  1  0
  6 19  1  0
  8 20  1  0
  8 21  1  0
M  END
