
     RDKit          3D

 21 22  0  0  0  0  0  0  0  0999 V2000
    2.3816   -0.2538    0.2538 C   0  0  0  0  0  0  0  0  0  0  0  0
    1.2366   -0.5120   -0.6435 C   0  0  0  0  0  0  0  0  0  0  0  0
   -0.0641    0.0625   -0.2625 C   0  0  0  0  0  0  0  0  0  0  0  0
   -1.1757   -0.2386   -1.2151 C   0  0  0  0  0  0  0  0  0  0  0  0
   -1.9665   -0.8100   -0.0422 C   0  0  0  0  0  0  0  0  0  0  0  0
   -0.8306   -0.4143    0.8727 C   0  0  0  0  0  0  0  0  0  0  0  0
   -0.9391    0.9873    1.3926 C   0  0  0  0  0  0  0  0  0  0  0  0
   -1.4544    1.5869    2.3120 O   0  0  0  0  0  0  0  0  0  0  0  0
   -0.0977    1.4552    0.2620 C   0  0  0  0  0  0  0  0  0  0  0  0
    3.1928   -0.9925    0.0754 H   0  0  0  0  0  0  0  0  0  0  0  0
    2.1545   -0.2967    1.3310 H   0  0  0  0  0  0  0  0  0  0  0  0
    2.8273    0.7549    0.0739 H   0  0  0  0  0  0  0  0  0  0  0  0
    1.5049   -0.1155   -1.6672 H   0  0  0  0  0  0  0  0  0  0  0  0
    1.1033   -1.6116   -0.8171 H   0  0  0  0  0  0  0  0  0  0  0  0
   -1.6842    0.6656   -1.6330 H   0  0  0  0  0  0  0  0  0  0  0  0
   -0.9368   -0.9986   -1.9952 H   0  0  0  0  0  0  0  0  0  0  0  0
   -2.0736   -1.9083   -0.1299 H   0  0  0  0  0  0  0  0  0  0  0  0
   -2.9082   -0.2618    0.1427 H   0  0  0  0  0  0  0  0  0  0  0  0
   -0.4633   -1.1570    1.5601 H   0  0  0  0  0  0  0  0  0  0  0  0
   -0.6648    2.1501   -0.3992 H   0  0  0  0  0  0  0  0  0  0  0  0
    0.8579    1.9082    0.5287 H   0  0  0  0  0  0  0  0  0  0  0  0
  1  2  1  0
  2  3  1  0
  3  4  1  0
  4  5  1  0
  5  6  1  0
  6  7  1  0
  7  8  2  0
  7  9  1  0
  6  3  1  0
  9  3  1  0
  1 10  1  0
  1 11  1  0
  1 12  1  0
  2 13  1  0
  2 14  1  0
  4 15  1  0
  4 16  1  0
  5 17  1  0
  5 18  1  0
  6 19  1  0
  9 20  1  0
  9 21  1  0
M  END
