
     RDKit          3D

 23 24  0  0  0  0  0  0  0  0999 V2000
    2.5687    0.8440    0.2592 C   0  0  0  0  0  0  0  0  0  0  0  0
    1.2697    0.4803    0.9907 C   0  0  0  0  0  0  0  0  0  0  0  0
    0.2714    0.1784   -0.1437 C   0  0  0  0  0  0  0  0  0  0  0  0
    0.7652   -0.9013   -0.9103 C   0  0  0  0  0  0  0  0  0  0  0  0
   -0.3771   -1.2556   -0.1187 C   0  0  0  0  0  0  0  0  0  0  0  0
   -1.4398   -1.5064   -1.0272 O   0  0  0  0  0  0  0  0  0  0  0  0
   -1.0013   -0.6659    1.0969 C   0  0  0  0  0  0  0  0  0  0  0  0
   -1.0772    0.6058    0.2329 C   0  0  0  0  0  0  0  0  0  0  0  0
   -2.1610    0.7226   -0.7404 C   0  0  0  0  0  0  0  0  0  0  0  0
    2.4705    1.9250   -0.0456 H   0  0  0  0  0  0  0  0  0  0  0  0
    3.4525    0.6837    0.8974 H   0  0  0  0  0  0  0  0  0  0  0  0
    2.6182    0.2377   -0.6634 H   0  0  0  0  0  0  0  0  0  0  0  0
    1.5387   -0.4323    1.5584 H   0  0  0  0  0  0  0  0  0  0  0  0
    0.9930    1.3488    1.5790 H   0  0  0  0  0  0  0  0  0  0  0  0
    0.7846   -0.7131   -2.0252 H   0  0  0  0  0  0  0  0  0  0  0  0
    1.6661   -1.5515   -0.6800 H   0  0  0  0  0  0  0  0  0  0  0  0
   -1.3224   -2.3394   -1.5097 H   0  0  0  0  0  0  0  0  0  0  0  0
   -0.4146   -0.5181    1.9996 H   0  0  0  0  0  0  0  0  0  0  0  0
   -1.9690   -1.0876    1.3758 H   0  0  0  0  0  0  0  0  0  0  0  0
   -1.1042    1.4651    0.9626 H   0  0  0  0  0  0  0  0  0  0  0  0
   -2.6092    1.7662   -0.7212 H   0  0  0  0  0  0  0  0  0  0  0  0
   -3.0692    0.0793   -0.5410 H   0  0  0  0  0  0  0  0  0  0  0  0
   -1.8534    0.6344   -1.8260 H   0  0  0  0  0  0  0  0  0  0  0  0
  1  2  1  0
  2  3  1  0
  3  4  1  0
  4  5  1  0
  5  6  1  0
  5  7  1  0
  7  8  1  0
  8  9  1  0
  5  3  1  0
  8  3  1  0
  1 10  1  0
  1 11  1  0
  1 12  1  0
  2 13  1  0
  2 14  1  0
  4 15  1  0
  4 16  1  0
  6 17  1  0
  7 18  1  0
  7 19  1  0
  8 20  1  0
  9 21  1  0
  9 22  1  0
  9 23  1  0
M  END
