
     RDKit          3D

 24 24  0  0  0  0  0  0  0  0999 V2000
    2.0874   -0.3677    0.7818 C   0  0  0  0  0  0  0  0  0  0  0  0
    0.9228   -0.9723    0.0998 C   0  0  0  0  0  0  0  0  0  0  0  0
   -0.1233   -0.0607   -0.4225 C   0  0  0  0  0  0  0  0  0  0  0  0
   -1.2972   -0.7743   -1.1319 C   0  0  0  0  0  0  0  0  0  0  0  0
   -2.0013   -1.7159   -0.2112 C   0  0  0  0  0  0  0  0  0  0  0  0
    0.3875    1.1185   -1.1946 C   0  0  0  0  0  0  0  0  0  0  0  0
   -0.4470    1.2721    0.0745 C   0  0  0  0  0  0  0  0  0  0  0  0
    0.1479    1.9416    1.2606 C   0  0  0  0  0  0  0  0  0  0  0  0
    3.0143   -0.9573    0.5342 H   0  0  0  0  0  0  0  0  0  0  0  0
    1.9684   -0.5263    1.8946 H   0  0  0  0  0  0  0  0  0  0  0  0
    2.2654    0.6950    0.6254 H   0  0  0  0  0  0  0  0  0  0  0  0
    1.3227   -1.5730   -0.7783 H   0  0  0  0  0  0  0  0  0  0  0  0
    0.4975   -1.7788    0.7744 H   0  0  0  0  0  0  0  0  0  0  0  0
   -0.8277   -1.3104   -1.9840 H   0  0  0  0  0  0  0  0  0  0  0  0
   -1.9960   -0.0450   -1.5446 H   0  0  0  0  0  0  0  0  0  0  0  0
   -1.8166   -1.5374    0.8581 H   0  0  0  0  0  0  0  0  0  0  0  0
   -3.1215   -1.6537   -0.3430 H   0  0  0  0  0  0  0  0  0  0  0  0
   -1.7551   -2.7687   -0.5213 H   0  0  0  0  0  0  0  0  0  0  0  0
    1.4660    1.3952   -1.1142 H   0  0  0  0  0  0  0  0  0  0  0  0
   -0.0368    1.3723   -2.1746 H   0  0  0  0  0  0  0  0  0  0  0  0
   -1.4671    1.6823   -0.1924 H   0  0  0  0  0  0  0  0  0  0  0  0
   -0.6152    2.6296    1.7277 H   0  0  0  0  0  0  0  0  0  0  0  0
    0.4709    1.2892    2.0808 H   0  0  0  0  0  0  0  0  0  0  0  0
    0.9539    2.6458    0.9007 H   0  0  0  0  0  0  0  0  0  0  0  0
  1  2  1  0
  2  3  1  0
  3  4  1  0
  4  5  1  0
  3  6  1  0
  6  7  1  0
  7  8  1  0
  7  3  1  0
  1  9  1  0
  1 10  1  0
  1 11  1  0
  2 12  1  0
  2 13  1  0
  4 14  1  0
  4 15  1  0
  5 16  1  0
  5 17  1  0
  5 18  1  0
  6 19  1  0
  6 20  1  0
  7 21  1  0
  8 22  1  0
  8 23  1  0
  8 24  1  0
M  END
