
     RDKit          3D

 23 23  0  0  0  0  0  0  0  0999 V2000
    2.6533   -0.5276   -0.2604 C   0  0  0  0  0  0  0  0  0  0  0  0
    1.7147    0.4197    0.4109 C   0  0  0  0  0  0  0  0  0  0  0  0
    0.3085    0.1909   -0.0915 C   0  0  0  0  0  0  0  0  0  0  0  0
   -0.1763   -1.2050    0.1799 C   0  0  0  0  0  0  0  0  0  0  0  0
   -1.5811   -1.3610   -0.2754 C   0  0  0  0  0  0  0  0  0  0  0  0
   -2.2916   -0.1147   -0.6292 C   0  0  0  0  0  0  0  0  0  0  0  0
   -1.8952    1.0799   -0.2280 C   0  0  0  0  0  0  0  0  0  0  0  0
   -0.6696    1.1185    0.6178 C   0  0  0  0  0  0  0  0  0  0  0  0
   -0.1635    2.3956    0.7531 O   0  0  0  0  0  0  0  0  0  0  0  0
    3.7007   -0.1867   -0.1282 H   0  0  0  0  0  0  0  0  0  0  0  0
    2.4474   -0.5520   -1.3675 H   0  0  0  0  0  0  0  0  0  0  0  0
    2.4904   -1.5545    0.1070 H   0  0  0  0  0  0  0  0  0  0  0  0
    2.0072    1.4489    0.1924 H   0  0  0  0  0  0  0  0  0  0  0  0
    1.7059    0.2299    1.5071 H   0  0  0  0  0  0  0  0  0  0  0  0
    0.2258    0.3657   -1.1848 H   0  0  0  0  0  0  0  0  0  0  0  0
   -0.1491   -1.3761    1.2894 H   0  0  0  0  0  0  0  0  0  0  0  0
    0.5213   -1.9589   -0.2402 H   0  0  0  0  0  0  0  0  0  0  0  0
   -1.5719   -2.0611   -1.1364 H   0  0  0  0  0  0  0  0  0  0  0  0
   -2.2023   -1.8712    0.5021 H   0  0  0  0  0  0  0  0  0  0  0  0
   -3.1849   -0.1895   -1.2516 H   0  0  0  0  0  0  0  0  0  0  0  0
   -2.4049    2.0038   -0.4781 H   0  0  0  0  0  0  0  0  0  0  0  0
   -0.9223    0.6660    1.5938 H   0  0  0  0  0  0  0  0  0  0  0  0
   -0.5625    3.0395    0.1175 H   0  0  0  0  0  0  0  0  0  0  0  0
  1  2  1  0
  2  3  1  0
  3  4  1  0
  4  5  1  0
  5  6  1  0
  6  7  2  0
  7  8  1  0
  8  9  1  0
  8  3  1  0
  1 10  1  0
  1 11  1  0
  1 12  1  0
  2 13  1  0
  2 14  1  0
  3 15  1  0
  4 16  1  0
  4 17  1  0
  5 18  1  0
  5 19  1  0
  6 20  1  0
  7 21  1  0
  8 22  1  0
  9 23  1  0
M  END
