
     RDKit          3D

 19 19  0  0  0  0  0  0  0  0999 V2000
   -2.2572   -0.6725   -0.0205 C   0  0  0  0  0  0  0  0  0  0  0  0
   -1.2561    0.0446   -0.8963 C   0  0  0  0  0  0  0  0  0  0  0  0
   -0.0682    0.4820   -0.0819 C   0  0  0  0  0  0  0  0  0  0  0  0
    0.3084    1.7433    0.0511 C   0  0  0  0  0  0  0  0  0  0  0  0
    1.4849    1.8127    0.8983 C   0  0  0  0  0  0  0  0  0  0  0  0
    2.0674    2.8820    1.2024 O   0  0  0  0  0  0  0  0  0  0  0  0
    1.7786    0.5095    1.2570 O   0  0  0  0  0  0  0  0  0  0  0  0
    0.8463   -0.3703    0.6776 C   0  0  0  0  0  0  0  0  0  0  0  0
    1.6199   -1.2987   -0.2408 C   0  0  0  0  0  0  0  0  0  0  0  0
   -2.5448   -1.6669   -0.4204 H   0  0  0  0  0  0  0  0  0  0  0  0
   -1.8459   -0.7497    1.0265 H   0  0  0  0  0  0  0  0  0  0  0  0
   -3.1952   -0.0546    0.0402 H   0  0  0  0  0  0  0  0  0  0  0  0
   -0.8499   -0.6242   -1.6899 H   0  0  0  0  0  0  0  0  0  0  0  0
   -1.7237    0.9246   -1.3741 H   0  0  0  0  0  0  0  0  0  0  0  0
   -0.2053    2.5984   -0.4174 H   0  0  0  0  0  0  0  0  0  0  0  0
    0.3469   -1.0080    1.4309 H   0  0  0  0  0  0  0  0  0  0  0  0
    2.7227   -1.2410   -0.0494 H   0  0  0  0  0  0  0  0  0  0  0  0
    1.4504   -0.9616   -1.2910 H   0  0  0  0  0  0  0  0  0  0  0  0
    1.3207   -2.3497   -0.1024 H   0  0  0  0  0  0  0  0  0  0  0  0
  1  2  1  0
  2  3  1  0
  3  4  2  0
  4  5  1  0
  5  6  2  0
  5  7  1  0
  7  8  1  0
  8  9  1  0
  8  3  1  0
  1 10  1  0
  1 11  1  0
  1 12  1  0
  2 13  1  0
  2 14  1  0
  4 15  1  0
  8 16  1  0
  9 17  1  0
  9 18  1  0
  9 19  1  0
M  END
