
     RDKit          3D

 21 22  0  0  0  0  0  0  0  0999 V2000
   -2.8440    0.1476    0.2993 C   0  0  0  0  0  0  0  0  0  0  0  0
   -1.6819    0.8610   -0.3388 C   0  0  0  0  0  0  0  0  0  0  0  0
   -0.5476   -0.1101   -0.4614 C   0  0  0  0  0  0  0  0  0  0  0  0
    0.5859    0.4704   -1.0493 O   0  0  0  0  0  0  0  0  0  0  0  0
    1.7037   -0.2356   -0.5829 C   0  0  0  0  0  0  0  0  0  0  0  0
    2.6160    0.5912    0.2545 C   0  0  0  0  0  0  0  0  0  0  0  0
    1.1036   -1.4102    0.1049 C   0  0  0  0  0  0  0  0  0  0  0  0
    0.6019   -1.6195    1.2866 O   0  0  0  0  0  0  0  0  0  0  0  0
    0.0347   -0.5352    0.8444 C   0  0  0  0  0  0  0  0  0  0  0  0
   -3.5225   -0.3119   -0.4672 H   0  0  0  0  0  0  0  0  0  0  0  0
   -3.4358    0.8636    0.8850 H   0  0  0  0  0  0  0  0  0  0  0  0
   -2.5036   -0.7088    0.9370 H   0  0  0  0  0  0  0  0  0  0  0  0
   -1.4137    1.7917    0.1861 H   0  0  0  0  0  0  0  0  0  0  0  0
   -1.9881    1.1477   -1.3677 H   0  0  0  0  0  0  0  0  0  0  0  0
   -0.8579   -0.9367   -1.1201 H   0  0  0  0  0  0  0  0  0  0  0  0
    2.2663   -0.5695   -1.4781 H   0  0  0  0  0  0  0  0  0  0  0  0
    3.4248    1.0365   -0.3953 H   0  0  0  0  0  0  0  0  0  0  0  0
    3.1730   -0.1113    0.9354 H   0  0  0  0  0  0  0  0  0  0  0  0
    2.1501    1.3846    0.8297 H   0  0  0  0  0  0  0  0  0  0  0  0
    0.6848   -2.1349   -0.6612 H   0  0  0  0  0  0  0  0  0  0  0  0
    0.4504    0.3892    1.3592 H   0  0  0  0  0  0  0  0  0  0  0  0
  1  2  1  0
  2  3  1  0
  3  4  1  0
  4  5  1  0
  5  6  1  0
  5  7  1  0
  7  8  1  0
  8  9  1  0
  9  3  1  0
  9  7  1  0
  1 10  1  0
  1 11  1  0
  1 12  1  0
  2 13  1  0
  2 14  1  0
  3 15  1  0
  5 16  1  0
  6 17  1  0
  6 18  1  0
  6 19  1  0
  7 20  1  0
  9 21  1  0
M  END
