
     RDKit          3D

 19 20  0  0  0  0  0  0  0  0999 V2000
    1.7338    1.2037   -0.2662 C   0  0  0  0  0  0  0  0  0  0  0  0
    1.1233   -0.0171   -0.9720 C   0  0  0  0  0  0  0  0  0  0  0  0
    0.0678   -0.5369   -0.2507 C   0  0  0  0  0  0  0  0  0  0  0  0
   -0.7897   -1.7005   -0.5710 C   0  0  0  0  0  0  0  0  0  0  0  0
   -1.1579   -1.2280    0.8134 C   0  0  0  0  0  0  0  0  0  0  0  0
    0.2003   -1.1043    1.0396 O   0  0  0  0  0  0  0  0  0  0  0  0
   -1.1263    0.1587    0.2746 C   0  0  0  0  0  0  0  0  0  0  0  0
   -0.9343    1.2603    1.2041 C   0  0  0  0  0  0  0  0  0  0  0  0
   -1.3442    2.3693    0.9383 O   0  0  0  0  0  0  0  0  0  0  0  0
    1.7156    0.9755    0.8058 H   0  0  0  0  0  0  0  0  0  0  0  0
    1.0181    2.0312   -0.4382 H   0  0  0  0  0  0  0  0  0  0  0  0
    2.7453    1.4221   -0.6436 H   0  0  0  0  0  0  0  0  0  0  0  0
    0.8835    0.3240   -1.9978 H   0  0  0  0  0  0  0  0  0  0  0  0
    1.9769   -0.7339   -1.0940 H   0  0  0  0  0  0  0  0  0  0  0  0
   -0.3139   -2.6887   -0.6173 H   0  0  0  0  0  0  0  0  0  0  0  0
   -1.5821   -1.4814   -1.3006 H   0  0  0  0  0  0  0  0  0  0  0  0
   -1.8465   -1.6483    1.4200 H   0  0  0  0  0  0  0  0  0  0  0  0
   -1.9440    0.2899   -0.4848 H   0  0  0  0  0  0  0  0  0  0  0  0
   -0.4256    1.1044    2.1403 H   0  0  0  0  0  0  0  0  0  0  0  0
  1  2  1  0
  2  3  1  0
  3  4  1  0
  4  5  1  0
  5  6  1  0
  5  7  1  0
  7  8  1  0
  8  9  2  0
  6  3  1  0
  7  3  1  0
  1 10  1  0
  1 11  1  0
  1 12  1  0
  2 13  1  0
  2 14  1  0
  4 15  1  0
  4 16  1  0
  5 17  1  0
  7 18  1  0
  8 19  1  0
M  END
