
     RDKit          3D

 21 22  0  0  0  0  0  0  0  0999 V2000
    2.3979    0.4245    0.0827 C   0  0  0  0  0  0  0  0  0  0  0  0
    1.0676    0.7981   -0.5902 C   0  0  0  0  0  0  0  0  0  0  0  0
    0.0510   -0.0187   -0.1684 C   0  0  0  0  0  0  0  0  0  0  0  0
   -0.4402   -0.1913    1.2414 C   0  0  0  0  0  0  0  0  0  0  0  0
   -1.2801   -1.1471    0.4412 C   0  0  0  0  0  0  0  0  0  0  0  0
    0.0111   -1.5212   -0.2479 C   0  0  0  0  0  0  0  0  0  0  0  0
   -1.3739   -0.0501   -0.5867 C   0  0  0  0  0  0  0  0  0  0  0  0
   -2.2129    1.0936   -0.2451 C   0  0  0  0  0  0  0  0  0  0  0  0
   -1.8936    2.2103   -0.5813 O   0  0  0  0  0  0  0  0  0  0  0  0
    3.0610    1.3104   -0.0812 H   0  0  0  0  0  0  0  0  0  0  0  0
    2.8726   -0.4341   -0.4253 H   0  0  0  0  0  0  0  0  0  0  0  0
    2.2452    0.2917    1.1579 H   0  0  0  0  0  0  0  0  0  0  0  0
    0.8813    1.8680   -0.4479 H   0  0  0  0  0  0  0  0  0  0  0  0
    1.2817    0.6760   -1.6892 H   0  0  0  0  0  0  0  0  0  0  0  0
    0.2716   -0.7572    1.8811 H   0  0  0  0  0  0  0  0  0  0  0  0
   -0.9442    0.6564    1.6981 H   0  0  0  0  0  0  0  0  0  0  0  0
   -1.9991   -1.7575    0.7581 H   0  0  0  0  0  0  0  0  0  0  0  0
    0.7387   -2.0448    0.3917 H   0  0  0  0  0  0  0  0  0  0  0  0
   -0.1498   -1.9492   -1.2533 H   0  0  0  0  0  0  0  0  0  0  0  0
   -1.4623   -0.4156   -1.6443 H   0  0  0  0  0  0  0  0  0  0  0  0
   -3.1234    0.9579    0.3085 H   0  0  0  0  0  0  0  0  0  0  0  0
  1  2  1  0
  2  3  1  0
  3  4  1  0
  4  5  1  0
  5  6  1  0
  5  7  1  0
  7  8  1  0
  8  9  2  0
  6  3  1  0
  7  3  1  0
  1 10  1  0
  1 11  1  0
  1 12  1  0
  2 13  1  0
  2 14  1  0
  4 15  1  0
  4 16  1  0
  5 17  1  0
  6 18  1  0
  6 19  1  0
  7 20  1  0
  8 21  1  0
M  END
