
     RDKit          3D

 21 22  0  0  0  0  0  0  0  0999 V2000
    2.6026    0.1811   -0.4932 C   0  0  0  0  0  0  0  0  0  0  0  0
    1.7232   -0.2650    0.6470 C   0  0  0  0  0  0  0  0  0  0  0  0
    0.2851   -0.1097    0.3495 C   0  0  0  0  0  0  0  0  0  0  0  0
   -0.4925    0.6617    1.0910 C   0  0  0  0  0  0  0  0  0  0  0  0
   -1.9473    0.8480    0.8282 C   0  0  0  0  0  0  0  0  0  0  0  0
   -2.0872    0.5870   -0.6187 C   0  0  0  0  0  0  0  0  0  0  0  0
   -2.7016   -0.3245   -1.3247 O   0  0  0  0  0  0  0  0  0  0  0  0
   -1.7097   -0.9167   -0.6857 C   0  0  0  0  0  0  0  0  0  0  0  0
   -0.2408   -0.8798   -0.8433 C   0  0  0  0  0  0  0  0  0  0  0  0
    2.1769   -0.1037   -1.4815 H   0  0  0  0  0  0  0  0  0  0  0  0
    3.5718   -0.3521   -0.4022 H   0  0  0  0  0  0  0  0  0  0  0  0
    2.8437    1.2669   -0.4530 H   0  0  0  0  0  0  0  0  0  0  0  0
    1.9807   -1.3201    0.8701 H   0  0  0  0  0  0  0  0  0  0  0  0
    1.9798    0.3360    1.5484 H   0  0  0  0  0  0  0  0  0  0  0  0
   -0.0416    1.1758    1.9230 H   0  0  0  0  0  0  0  0  0  0  0  0
   -2.4654    0.0683    1.4603 H   0  0  0  0  0  0  0  0  0  0  0  0
   -2.3183    1.8318    1.1490 H   0  0  0  0  0  0  0  0  0  0  0  0
   -1.4500    1.2905   -1.2297 H   0  0  0  0  0  0  0  0  0  0  0  0
   -2.0368   -1.5685    0.1616 H   0  0  0  0  0  0  0  0  0  0  0  0
    0.1422   -0.4961   -1.7842 H   0  0  0  0  0  0  0  0  0  0  0  0
    0.1851   -1.9108   -0.7118 H   0  0  0  0  0  0  0  0  0  0  0  0
  1  2  1  0
  2  3  1  0
  3  4  2  0
  4  5  1  0
  5  6  1  0
  6  7  1  0
  7  8  1  0
  8  9  1  0
  9  3  1  0
  8  6  1  0
  1 10  1  0
  1 11  1  0
  1 12  1  0
  2 13  1  0
  2 14  1  0
  4 15  1  0
  5 16  1  0
  5 17  1  0
  6 18  1  0
  8 19  1  0
  9 20  1  0
  9 21  1  0
M  END
