
     RDKit          3D

 21 22  0  0  0  0  0  0  0  0999 V2000
    2.3788    0.7127    0.7365 C   0  0  0  0  0  0  0  0  0  0  0  0
    1.5975   -0.4705    0.2032 C   0  0  0  0  0  0  0  0  0  0  0  0
    0.1343   -0.1796    0.0759 C   0  0  0  0  0  0  0  0  0  0  0  0
   -0.2099    0.9581   -0.8454 C   0  0  0  0  0  0  0  0  0  0  0  0
   -1.5243    0.8496   -1.3273 O   0  0  0  0  0  0  0  0  0  0  0  0
   -2.3048    0.4241   -0.2574 C   0  0  0  0  0  0  0  0  0  0  0  0
   -1.6698   -0.7513    0.4516 C   0  0  0  0  0  0  0  0  0  0  0  0
   -0.6064   -1.4076   -0.4024 C   0  0  0  0  0  0  0  0  0  0  0  0
   -0.6156   -0.2112    1.2261 O   0  0  0  0  0  0  0  0  0  0  0  0
    3.3575    0.7594    0.1997 H   0  0  0  0  0  0  0  0  0  0  0  0
    1.8771    1.6709    0.5964 H   0  0  0  0  0  0  0  0  0  0  0  0
    2.6292    0.6103    1.8102 H   0  0  0  0  0  0  0  0  0  0  0  0
    1.7309   -1.3048    0.9227 H   0  0  0  0  0  0  0  0  0  0  0  0
    2.0059   -0.7900   -0.7704 H   0  0  0  0  0  0  0  0  0  0  0  0
    0.4414    0.8598   -1.7407 H   0  0  0  0  0  0  0  0  0  0  0  0
   -0.1177    1.9548   -0.3675 H   0  0  0  0  0  0  0  0  0  0  0  0
   -3.3599    0.2345   -0.5421 H   0  0  0  0  0  0  0  0  0  0  0  0
   -2.3288    1.2586    0.4764 H   0  0  0  0  0  0  0  0  0  0  0  0
   -2.3449   -1.4150    0.9839 H   0  0  0  0  0  0  0  0  0  0  0  0
   -0.8219   -1.4379   -1.4890 H   0  0  0  0  0  0  0  0  0  0  0  0
   -0.2486   -2.3250    0.0595 H   0  0  0  0  0  0  0  0  0  0  0  0
  1  2  1  0
  2  3  1  0
  3  4  1  0
  4  5  1  0
  5  6  1  0
  6  7  1  0
  7  8  1  0
  7  9  1  0
  8  3  1  0
  9  3  1  0
  1 10  1  0
  1 11  1  0
  1 12  1  0
  2 13  1  0
  2 14  1  0
  4 15  1  0
  4 16  1  0
  6 17  1  0
  6 18  1  0
  7 19  1  0
  8 20  1  0
  8 21  1  0
M  END
