
     RDKit          3D

 25 25  0  0  0  0  0  0  0  0999 V2000
    3.0207    0.1665    0.0503 C   0  0  0  0  0  0  0  0  0  0  0  0
    1.7328   -0.4046    0.5151 C   0  0  0  0  0  0  0  0  0  0  0  0
    0.6233   -0.3591   -0.4881 C   0  0  0  0  0  0  0  0  0  0  0  0
    0.2111    0.9869   -0.9846 C   0  0  0  0  0  0  0  0  0  0  0  0
   -1.2256    0.7167   -0.5374 C   0  0  0  0  0  0  0  0  0  0  0  0
   -1.7110    1.8981    0.2889 C   0  0  0  0  0  0  0  0  0  0  0  0
   -0.7184   -0.4320    0.2552 C   0  0  0  0  0  0  0  0  0  0  0  0
   -1.3549   -1.7730   -0.0052 C   0  0  0  0  0  0  0  0  0  0  0  0
   -2.5725   -1.8348    0.6716 O   0  0  0  0  0  0  0  0  0  0  0  0
    3.0980    1.2236    0.4303 H   0  0  0  0  0  0  0  0  0  0  0  0
    3.8495   -0.3891    0.5639 H   0  0  0  0  0  0  0  0  0  0  0  0
    3.2123    0.0842   -1.0206 H   0  0  0  0  0  0  0  0  0  0  0  0
    1.3860    0.1476    1.4286 H   0  0  0  0  0  0  0  0  0  0  0  0
    1.8547   -1.4574    0.8420 H   0  0  0  0  0  0  0  0  0  0  0  0
    0.6989   -1.0851   -1.3233 H   0  0  0  0  0  0  0  0  0  0  0  0
    0.6850    1.8598   -0.5063 H   0  0  0  0  0  0  0  0  0  0  0  0
    0.2075    1.1337   -2.0850 H   0  0  0  0  0  0  0  0  0  0  0  0
   -1.9260    0.4996   -1.3453 H   0  0  0  0  0  0  0  0  0  0  0  0
   -0.9889    2.0091    1.1401 H   0  0  0  0  0  0  0  0  0  0  0  0
   -1.7450    2.8267   -0.3041 H   0  0  0  0  0  0  0  0  0  0  0  0
   -2.7036    1.6678    0.7278 H   0  0  0  0  0  0  0  0  0  0  0  0
   -0.6678   -0.2044    1.3198 H   0  0  0  0  0  0  0  0  0  0  0  0
   -1.5321   -1.9742   -1.0707 H   0  0  0  0  0  0  0  0  0  0  0  0
   -0.7182   -2.5835    0.4057 H   0  0  0  0  0  0  0  0  0  0  0  0
   -2.7157   -2.7229    1.0312 H   0  0  0  0  0  0  0  0  0  0  0  0
  1  2  1  0
  2  3  1  0
  3  4  1  0
  4  5  1  0
  5  6  1  0
  5  7  1  0
  7  8  1  0
  8  9  1  0
  7  3  1  0
  1 10  1  0
  1 11  1  0
  1 12  1  0
  2 13  1  0
  2 14  1  0
  3 15  1  0
  4 16  1  0
  4 17  1  0
  5 18  1  0
  6 19  1  0
  6 20  1  0
  6 21  1  0
  7 22  1  0
  8 23  1  0
  8 24  1  0
  9 25  1  0
M  END
