
     RDKit          3D

 21 22  0  0  0  0  0  0  0  0999 V2000
    2.4920    0.2684   -0.1989 C   0  0  0  0  0  0  0  0  0  0  0  0
    1.3787   -0.5100    0.4446 C   0  0  0  0  0  0  0  0  0  0  0  0
    0.0394   -0.1190    0.0733 C   0  0  0  0  0  0  0  0  0  0  0  0
   -0.3697    1.2734    0.3639 C   0  0  0  0  0  0  0  0  0  0  0  0
   -1.7075    1.2693    0.2365 C   0  0  0  0  0  0  0  0  0  0  0  0
   -2.1788   -0.1267    0.0357 C   0  0  0  0  0  0  0  0  0  0  0  0
   -1.0784   -0.8597    0.8341 C   0  0  0  0  0  0  0  0  0  0  0  0
   -1.8365   -0.5081   -1.2544 O   0  0  0  0  0  0  0  0  0  0  0  0
   -0.4247   -0.4347   -1.3230 C   0  0  0  0  0  0  0  0  0  0  0  0
    3.4206   -0.3693   -0.2441 H   0  0  0  0  0  0  0  0  0  0  0  0
    2.1519    0.5322   -1.2348 H   0  0  0  0  0  0  0  0  0  0  0  0
    2.6631    1.1884    0.4091 H   0  0  0  0  0  0  0  0  0  0  0  0
    1.5049   -0.3685    1.5574 H   0  0  0  0  0  0  0  0  0  0  0  0
    1.5732   -1.5848    0.2732 H   0  0  0  0  0  0  0  0  0  0  0  0
    0.2401    2.1262    0.6232 H   0  0  0  0  0  0  0  0  0  0  0  0
   -2.3504    2.1375    0.2725 H   0  0  0  0  0  0  0  0  0  0  0  0
   -3.1653   -0.3563    0.3460 H   0  0  0  0  0  0  0  0  0  0  0  0
   -1.1113   -0.5729    1.8838 H   0  0  0  0  0  0  0  0  0  0  0  0
   -1.0794   -1.9252    0.6227 H   0  0  0  0  0  0  0  0  0  0  0  0
   -0.0106   -1.4058   -1.6612 H   0  0  0  0  0  0  0  0  0  0  0  0
   -0.1512    0.3453   -2.0595 H   0  0  0  0  0  0  0  0  0  0  0  0
  1  2  1  0
  2  3  1  0
  3  4  1  0
  4  5  2  0
  5  6  1  0
  6  7  1  0
  6  8  1  0
  8  9  1  0
  7  3  1  0
  9  3  1  0
  1 10  1  0
  1 11  1  0
  1 12  1  0
  2 13  1  0
  2 14  1  0
  4 15  1  0
  5 16  1  0
  6 17  1  0
  7 18  1  0
  7 19  1  0
  9 20  1  0
  9 21  1  0
M  END
