
     RDKit          3D

 25 25  0  0  0  0  0  0  0  0999 V2000
    2.4418   -1.2982    0.2138 C   0  0  0  0  0  0  0  0  0  0  0  0
    1.3263   -0.6155   -0.5391 C   0  0  0  0  0  0  0  0  0  0  0  0
    0.4555    0.2305    0.3394 C   0  0  0  0  0  0  0  0  0  0  0  0
    1.1535    1.3543    1.0620 C   0  0  0  0  0  0  0  0  0  0  0  0
   -0.3077   -0.5801    1.1721 O   0  0  0  0  0  0  0  0  0  0  0  0
   -1.2760   -0.6172    0.1773 C   0  0  0  0  0  0  0  0  0  0  0  0
   -2.6766   -0.7116    0.7583 C   0  0  0  0  0  0  0  0  0  0  0  0
   -0.8310    0.7249   -0.2496 C   0  0  0  0  0  0  0  0  0  0  0  0
   -0.8301    1.0389   -1.7114 C   0  0  0  0  0  0  0  0  0  0  0  0
    2.1094   -1.6394    1.2362 H   0  0  0  0  0  0  0  0  0  0  0  0
    3.3584   -0.6761    0.2655 H   0  0  0  0  0  0  0  0  0  0  0  0
    2.7349   -2.2309   -0.3135 H   0  0  0  0  0  0  0  0  0  0  0  0
    0.7735   -1.4150   -1.0684 H   0  0  0  0  0  0  0  0  0  0  0  0
    1.8255   -0.0243   -1.3497 H   0  0  0  0  0  0  0  0  0  0  0  0
    2.1676    1.1343    1.3718 H   0  0  0  0  0  0  0  0  0  0  0  0
    1.1365    2.3118    0.4904 H   0  0  0  0  0  0  0  0  0  0  0  0
    0.5366    1.5662    1.9827 H   0  0  0  0  0  0  0  0  0  0  0  0
   -1.1835   -1.4051   -0.5902 H   0  0  0  0  0  0  0  0  0  0  0  0
   -2.7403   -1.4684    1.5740 H   0  0  0  0  0  0  0  0  0  0  0  0
   -3.3824   -0.9440   -0.0780 H   0  0  0  0  0  0  0  0  0  0  0  0
   -2.9505    0.2689    1.2047 H   0  0  0  0  0  0  0  0  0  0  0  0
   -1.2612    1.5449    0.3627 H   0  0  0  0  0  0  0  0  0  0  0  0
   -1.2572    2.0512   -1.8779 H   0  0  0  0  0  0  0  0  0  0  0  0
    0.1752    1.0663   -2.1675 H   0  0  0  0  0  0  0  0  0  0  0  0
   -1.4980    0.3337   -2.2658 H   0  0  0  0  0  0  0  0  0  0  0  0
  1  2  1  0
  2  3  1  0
  3  4  1  0
  3  5  1  0
  5  6  1  0
  6  7  1  0
  6  8  1  0
  8  9  1  0
  8  3  1  0
  1 10  1  0
  1 11  1  0
  1 12  1  0
  2 13  1  0
  2 14  1  0
  4 15  1  0
  4 16  1  0
  4 17  1  0
  6 18  1  0
  7 19  1  0
  7 20  1  0
  7 21  1  0
  8 22  1  0
  9 23  1  0
  9 24  1  0
  9 25  1  0
M  END
