
     RDKit          3D

 23 24  0  0  0  0  0  0  0  0999 V2000
    1.2549   -1.6804    0.8500 C   0  0  0  0  0  0  0  0  0  0  0  0
    1.3657   -0.7181   -0.2784 C   0  0  0  0  0  0  0  0  0  0  0  0
    0.2291    0.2611   -0.3874 C   0  0  0  0  0  0  0  0  0  0  0  0
   -1.1200   -0.3183   -0.5886 C   0  0  0  0  0  0  0  0  0  0  0  0
   -1.8335   -1.2125    0.3075 C   0  0  0  0  0  0  0  0  0  0  0  0
   -2.2246    0.2384    0.3038 C   0  0  0  0  0  0  0  0  0  0  0  0
    0.5411    1.4335   -1.3311 C   0  0  0  0  0  0  0  0  0  0  0  0
    0.4729    1.6084    0.1517 C   0  0  0  0  0  0  0  0  0  0  0  0
    1.7131    1.8412    0.7442 O   0  0  0  0  0  0  0  0  0  0  0  0
    2.2895   -2.0232    1.1628 H   0  0  0  0  0  0  0  0  0  0  0  0
    0.6552   -2.5557    0.5379 H   0  0  0  0  0  0  0  0  0  0  0  0
    0.8281   -1.2593    1.7803 H   0  0  0  0  0  0  0  0  0  0  0  0
    2.3471   -0.1775   -0.1924 H   0  0  0  0  0  0  0  0  0  0  0  0
    1.4519   -1.3237   -1.2268 H   0  0  0  0  0  0  0  0  0  0  0  0
   -1.4161   -0.3395   -1.6838 H   0  0  0  0  0  0  0  0  0  0  0  0
   -2.6307   -1.8630   -0.1628 H   0  0  0  0  0  0  0  0  0  0  0  0
   -1.4491   -1.6708    1.2204 H   0  0  0  0  0  0  0  0  0  0  0  0
   -1.9148    0.8081    1.2198 H   0  0  0  0  0  0  0  0  0  0  0  0
   -3.1618    0.5717   -0.1651 H   0  0  0  0  0  0  0  0  0  0  0  0
   -0.2986    1.8841   -1.8929 H   0  0  0  0  0  0  0  0  0  0  0  0
    1.4900    1.4470   -1.8660 H   0  0  0  0  0  0  0  0  0  0  0  0
   -0.3492    2.2334    0.5692 H   0  0  0  0  0  0  0  0  0  0  0  0
    1.7597    2.8153    0.9279 H   0  0  0  0  0  0  0  0  0  0  0  0
  1  2  1  0
  2  3  1  0
  3  4  1  0
  4  5  1  0
  5  6  1  0
  3  7  1  0
  7  8  1  0
  8  9  1  0
  8  3  1  0
  6  4  1  0
  1 10  1  0
  1 11  1  0
  1 12  1  0
  2 13  1  0
  2 14  1  0
  4 15  1  0
  5 16  1  0
  5 17  1  0
  6 18  1  0
  6 19  1  0
  7 20  1  0
  7 21  1  0
  8 22  1  0
  9 23  1  0
M  END
