
     RDKit          3D

 21 24  0  0  0  0  0  0  0  0999 V2000
   -2.3688    1.2145   -0.6583 C   0  0  0  0  0  0  0  0  0  0  0  0
   -1.9775   -0.1789   -0.2442 C   0  0  0  0  0  0  0  0  0  0  0  0
   -0.6103   -0.3999    0.0785 C   0  0  0  0  0  0  0  0  0  0  0  0
    0.1392   -1.5352    0.5008 C   0  0  0  0  0  0  0  0  0  0  0  0
    1.1949   -0.6300    1.0328 C   0  0  0  0  0  0  0  0  0  0  0  0
    0.4378    0.5159    0.5443 C   0  0  0  0  0  0  0  0  0  0  0  0
    1.4124   -0.1109   -0.3031 C   0  0  0  0  0  0  0  0  0  0  0  0
    2.6022    0.3833   -0.9232 C   0  0  0  0  0  0  0  0  0  0  0  0
    0.4150   -1.0552   -0.8215 C   0  0  0  0  0  0  0  0  0  0  0  0
   -3.2794    1.1545   -1.2778 H   0  0  0  0  0  0  0  0  0  0  0  0
   -2.6680    1.8179    0.2479 H   0  0  0  0  0  0  0  0  0  0  0  0
   -1.5422    1.7801   -1.1340 H   0  0  0  0  0  0  0  0  0  0  0  0
   -2.3245   -0.8758   -1.0639 H   0  0  0  0  0  0  0  0  0  0  0  0
   -2.6530   -0.4437    0.6222 H   0  0  0  0  0  0  0  0  0  0  0  0
   -0.1274   -2.4823    0.8719 H   0  0  0  0  0  0  0  0  0  0  0  0
    1.8172   -0.7536    1.8576 H   0  0  0  0  0  0  0  0  0  0  0  0
    0.3526    1.4888    0.9362 H   0  0  0  0  0  0  0  0  0  0  0  0
    2.4599    1.2152   -1.6519 H   0  0  0  0  0  0  0  0  0  0  0  0
    3.3505    0.7465   -0.1800 H   0  0  0  0  0  0  0  0  0  0  0  0
    3.1346   -0.4446   -1.4774 H   0  0  0  0  0  0  0  0  0  0  0  0
    0.2349   -1.4068   -1.7871 H   0  0  0  0  0  0  0  0  0  0  0  0
  1  2  1  0
  2  3  1  0
  3  4  1  0
  4  5  1  0
  5  6  1  0
  6  7  1  0
  7  8  1  0
  7  9  1  0
  6  3  1  0
  9  3  1  0
  9  4  1  0
  7  5  1  0
  1 10  1  0
  1 11  1  0
  1 12  1  0
  2 13  1  0
  2 14  1  0
  4 15  1  0
  5 16  1  0
  6 17  1  0
  8 18  1  0
  8 19  1  0
  8 20  1  0
  9 21  1  0
M  END
