
     RDKit          3D

 27 27  0  0  0  0  0  0  0  0999 V2000
   -1.2425   -2.2164   -0.5533 C   0  0  0  0  0  0  0  0  0  0  0  0
   -0.3989   -1.1643   -1.1936 C   0  0  0  0  0  0  0  0  0  0  0  0
   -0.1306   -0.0148   -0.2492 C   0  0  0  0  0  0  0  0  0  0  0  0
   -1.4707    0.5705    0.1327 C   0  0  0  0  0  0  0  0  0  0  0  0
   -1.3410    1.7413    1.0855 C   0  0  0  0  0  0  0  0  0  0  0  0
    0.7716    1.0164   -0.8898 C   0  0  0  0  0  0  0  0  0  0  0  0
    2.0336    1.0661   -0.0726 C   0  0  0  0  0  0  0  0  0  0  0  0
    2.0885   -0.3393    0.4765 C   0  0  0  0  0  0  0  0  0  0  0  0
    0.6324   -0.5225    0.9285 C   0  0  0  0  0  0  0  0  0  0  0  0
   -2.2526   -2.3080   -1.0132 H   0  0  0  0  0  0  0  0  0  0  0  0
   -1.3809   -2.0777    0.5226 H   0  0  0  0  0  0  0  0  0  0  0  0
   -0.7857   -3.2382   -0.6743 H   0  0  0  0  0  0  0  0  0  0  0  0
    0.5442   -1.6090   -1.5730 H   0  0  0  0  0  0  0  0  0  0  0  0
   -0.9835   -0.7585   -2.0648 H   0  0  0  0  0  0  0  0  0  0  0  0
   -2.0838   -0.1826    0.6364 H   0  0  0  0  0  0  0  0  0  0  0  0
   -2.0393    0.9317   -0.7403 H   0  0  0  0  0  0  0  0  0  0  0  0
   -1.0912    1.4148    2.1235 H   0  0  0  0  0  0  0  0  0  0  0  0
   -2.3858    2.1628    1.1740 H   0  0  0  0  0  0  0  0  0  0  0  0
   -0.7221    2.5568    0.7130 H   0  0  0  0  0  0  0  0  0  0  0  0
    0.3510    2.0221   -0.9324 H   0  0  0  0  0  0  0  0  0  0  0  0
    0.9610    0.6948   -1.9352 H   0  0  0  0  0  0  0  0  0  0  0  0
    1.9677    1.7592    0.7651 H   0  0  0  0  0  0  0  0  0  0  0  0
    2.9053    1.3180   -0.7072 H   0  0  0  0  0  0  0  0  0  0  0  0
    2.7605   -0.4101    1.3558 H   0  0  0  0  0  0  0  0  0  0  0  0
    2.3415   -1.0728   -0.3204 H   0  0  0  0  0  0  0  0  0  0  0  0
    0.4361   -1.5485    1.2321 H   0  0  0  0  0  0  0  0  0  0  0  0
    0.5153    0.2082    1.7736 H   0  0  0  0  0  0  0  0  0  0  0  0
  1  2  1  0
  2  3  1  0
  3  4  1  0
  4  5  1  0
  3  6  1  0
  6  7  1  0
  7  8  1  0
  8  9  1  0
  9  3  1  0
  1 10  1  0
  1 11  1  0
  1 12  1  0
  2 13  1  0
  2 14  1  0
  4 15  1  0
  4 16  1  0
  5 17  1  0
  5 18  1  0
  5 19  1  0
  6 20  1  0
  6 21  1  0
  7 22  1  0
  7 23  1  0
  8 24  1  0
  8 25  1  0
  9 26  1  0
  9 27  1  0
M  END
