
     RDKit          3D

 19 19  0  0  0  0  0  0  0  0999 V2000
   -2.8967   -0.2423    0.0817 C   0  0  0  0  0  0  0  0  0  0  0  0
   -1.6279   -0.2767   -0.7658 C   0  0  0  0  0  0  0  0  0  0  0  0
   -0.6092    0.5686   -0.0295 C   0  0  0  0  0  0  0  0  0  0  0  0
    0.6827    0.6348   -0.7282 C   0  0  0  0  0  0  0  0  0  0  0  0
    1.6307    0.1023    0.0207 C   0  0  0  0  0  0  0  0  0  0  0  0
    3.0640   -0.0334   -0.3004 C   0  0  0  0  0  0  0  0  0  0  0  0
    0.9746   -0.3373    1.2568 C   0  0  0  0  0  0  0  0  0  0  0  0
    1.5901   -0.9036    2.2220 O   0  0  0  0  0  0  0  0  0  0  0  0
   -0.3799   -0.0507    1.2164 O   0  0  0  0  0  0  0  0  0  0  0  0
   -3.5089   -1.1427   -0.0377 H   0  0  0  0  0  0  0  0  0  0  0  0
   -3.4075    0.7015   -0.1684 H   0  0  0  0  0  0  0  0  0  0  0  0
   -2.5807   -0.1918    1.1525 H   0  0  0  0  0  0  0  0  0  0  0  0
   -1.2931   -1.3497   -0.8160 H   0  0  0  0  0  0  0  0  0  0  0  0
   -1.8105    0.0756   -1.7991 H   0  0  0  0  0  0  0  0  0  0  0  0
   -1.0584    1.5491    0.1674 H   0  0  0  0  0  0  0  0  0  0  0  0
    0.8191    1.0599   -1.7098 H   0  0  0  0  0  0  0  0  0  0  0  0
    3.5659    0.9600   -0.4256 H   0  0  0  0  0  0  0  0  0  0  0  0
    3.6068   -0.5441    0.5108 H   0  0  0  0  0  0  0  0  0  0  0  0
    3.2390   -0.5794   -1.2630 H   0  0  0  0  0  0  0  0  0  0  0  0
  1  2  1  0
  2  3  1  0
  3  4  1  0
  4  5  2  0
  5  6  1  0
  5  7  1  0
  7  8  2  0
  7  9  1  0
  9  3  1  0
  1 10  1  0
  1 11  1  0
  1 12  1  0
  2 13  1  0
  2 14  1  0
  3 15  1  0
  4 16  1  0
  6 17  1  0
  6 18  1  0
  6 19  1  0
M  END
