
     RDKit          3D

 19 20  0  0  0  0  0  0  0  0999 V2000
    2.5846    0.2076   -0.0679 C   0  0  0  0  0  0  0  0  0  0  0  0
    1.5145   -0.7246    0.3648 C   0  0  0  0  0  0  0  0  0  0  0  0
    0.1327   -0.2963    0.0138 C   0  0  0  0  0  0  0  0  0  0  0  0
   -0.3581    0.9978    0.5561 C   0  0  0  0  0  0  0  0  0  0  0  0
   -1.5065    1.3211   -0.0258 C   0  0  0  0  0  0  0  0  0  0  0  0
   -1.8933    0.2697   -1.0159 C   0  0  0  0  0  0  0  0  0  0  0  0
   -3.0572   -0.3344   -0.5176 O   0  0  0  0  0  0  0  0  0  0  0  0
   -0.7277   -0.7119   -0.9562 C   0  0  0  0  0  0  0  0  0  0  0  0
   -0.7768   -1.4398    0.3009 O   0  0  0  0  0  0  0  0  0  0  0  0
    2.3808    1.2342    0.3269 H   0  0  0  0  0  0  0  0  0  0  0  0
    2.6810    0.3011   -1.1596 H   0  0  0  0  0  0  0  0  0  0  0  0
    3.5421   -0.1113    0.4234 H   0  0  0  0  0  0  0  0  0  0  0  0
    1.5605   -0.8005    1.4841 H   0  0  0  0  0  0  0  0  0  0  0  0
    1.6912   -1.7400   -0.0379 H   0  0  0  0  0  0  0  0  0  0  0  0
    0.1323    1.5983    1.3100 H   0  0  0  0  0  0  0  0  0  0  0  0
   -2.1350    2.2060    0.1401 H   0  0  0  0  0  0  0  0  0  0  0  0
   -2.0399    0.6735   -2.0224 H   0  0  0  0  0  0  0  0  0  0  0  0
   -3.1191   -1.2860   -0.7605 H   0  0  0  0  0  0  0  0  0  0  0  0
   -0.6059   -1.3644   -1.8497 H   0  0  0  0  0  0  0  0  0  0  0  0
  1  2  1  0
  2  3  1  0
  3  4  1  0
  4  5  2  0
  5  6  1  0
  6  7  1  0
  6  8  1  0
  8  9  1  0
  8  3  1  0
  9  3  1  0
  1 10  1  0
  1 11  1  0
  1 12  1  0
  2 13  1  0
  2 14  1  0
  4 15  1  0
  5 16  1  0
  6 17  1  0
  7 18  1  0
  8 19  1  0
M  END
