
     RDKit          3D

 20 21  0  0  0  0  0  0  0  0999 V2000
    1.9251   -1.1545   -0.3029 C   0  0  0  0  0  0  0  0  0  0  0  0
    1.4099    0.0822   -0.9628 C   0  0  0  0  0  0  0  0  0  0  0  0
    0.1598    0.6160   -0.2873 C   0  0  0  0  0  0  0  0  0  0  0  0
   -1.0124   -0.3005   -0.2552 C   0  0  0  0  0  0  0  0  0  0  0  0
   -2.2989    0.0462    0.3539 C   0  0  0  0  0  0  0  0  0  0  0  0
   -1.3650   -0.9371    1.0327 C   0  0  0  0  0  0  0  0  0  0  0  0
    0.2742    1.8581    0.4207 C   0  0  0  0  0  0  0  0  0  0  0  0
   -0.2141    1.9055   -0.9279 O   0  0  0  0  0  0  0  0  0  0  0  0
    2.6440   -0.8878    0.4795 H   0  0  0  0  0  0  0  0  0  0  0  0
    2.4659   -1.7494   -1.0861 H   0  0  0  0  0  0  0  0  0  0  0  0
    1.1357   -1.7772    0.1456 H   0  0  0  0  0  0  0  0  0  0  0  0
    2.2290    0.8274   -0.9745 H   0  0  0  0  0  0  0  0  0  0  0  0
    1.1830   -0.1393   -2.0273 H   0  0  0  0  0  0  0  0  0  0  0  0
   -1.0699   -0.9875   -1.1461 H   0  0  0  0  0  0  0  0  0  0  0  0
   -3.2251   -0.4222   -0.0156 H   0  0  0  0  0  0  0  0  0  0  0  0
   -2.4579    1.0387    0.8078 H   0  0  0  0  0  0  0  0  0  0  0  0
   -0.9737   -0.5671    1.9977 H   0  0  0  0  0  0  0  0  0  0  0  0
   -1.6318   -2.0098    1.0504 H   0  0  0  0  0  0  0  0  0  0  0  0
    1.2934    2.2759    0.5860 H   0  0  0  0  0  0  0  0  0  0  0  0
   -0.4711    2.2824    1.1114 H   0  0  0  0  0  0  0  0  0  0  0  0
  1  2  1  0
  2  3  1  0
  3  4  1  0
  4  5  1  0
  5  6  1  0
  3  7  1  0
  7  8  1  0
  8  3  1  0
  6  4  1  0
  1  9  1  0
  1 10  1  0
  1 11  1  0
  2 12  1  0
  2 13  1  0
  4 14  1  0
  5 15  1  0
  5 16  1  0
  6 17  1  0
  6 18  1  0
  7 19  1  0
  7 20  1  0
M  END
