
     RDKit          3D

 17 17  0  0  0  0  0  0  0  0999 V2000
    2.2533   -0.1578   -0.1202 C   0  0  0  0  0  0  0  0  0  0  0  0
    0.9675    0.5905    0.2415 C   0  0  0  0  0  0  0  0  0  0  0  0
   -0.1770   -0.0341   -0.5212 C   0  0  0  0  0  0  0  0  0  0  0  0
   -0.2880   -1.3803   -0.1651 O   0  0  0  0  0  0  0  0  0  0  0  0
   -1.5819   -1.1761    0.3326 C   0  0  0  0  0  0  0  0  0  0  0  0
   -1.5437    0.2905   -0.0227 C   0  0  0  0  0  0  0  0  0  0  0  0
   -1.5639    1.1718    1.0231 O   0  0  0  0  0  0  0  0  0  0  0  0
    2.0373   -1.2422   -0.1501 H   0  0  0  0  0  0  0  0  0  0  0  0
    2.6545    0.2143   -1.0757 H   0  0  0  0  0  0  0  0  0  0  0  0
    2.9851    0.0443    0.6989 H   0  0  0  0  0  0  0  0  0  0  0  0
    1.1178    1.6509    0.0129 H   0  0  0  0  0  0  0  0  0  0  0  0
    0.8376    0.4468    1.3338 H   0  0  0  0  0  0  0  0  0  0  0  0
   -0.1239    0.1186   -1.6178 H   0  0  0  0  0  0  0  0  0  0  0  0
   -1.6991   -1.4186    1.3924 H   0  0  0  0  0  0  0  0  0  0  0  0
   -2.3079   -1.7673   -0.2990 H   0  0  0  0  0  0  0  0  0  0  0  0
   -2.2766    0.5920   -0.8074 H   0  0  0  0  0  0  0  0  0  0  0  0
   -1.2910    2.0567    0.7119 H   0  0  0  0  0  0  0  0  0  0  0  0
  1  2  1  0
  2  3  1  0
  3  4  1  0
  4  5  1  0
  5  6  1  0
  6  7  1  0
  6  3  1  0
  1  8  1  0
  1  9  1  0
  1 10  1  0
  2 11  1  0
  2 12  1  0
  3 13  1  0
  5 14  1  0
  5 15  1  0
  6 16  1  0
  7 17  1  0
M  END
