
     RDKit          3D

 19 19  0  0  0  0  0  0  0  0999 V2000
   -2.6787   -0.4085    0.4118 C   0  0  0  0  0  0  0  0  0  0  0  0
   -1.5596   -0.5096   -0.5875 C   0  0  0  0  0  0  0  0  0  0  0  0
   -0.2510   -0.1430    0.0432 C   0  0  0  0  0  0  0  0  0  0  0  0
    0.7687   -0.2465   -0.9098 O   0  0  0  0  0  0  0  0  0  0  0  0
    1.7942    0.5508   -0.4506 C   0  0  0  0  0  0  0  0  0  0  0  0
    2.7961   -0.3343    0.2466 C   0  0  0  0  0  0  0  0  0  0  0  0
    1.2337    1.5241    0.4055 O   0  0  0  0  0  0  0  0  0  0  0  0
   -0.1561    1.3080    0.3663 C   0  0  0  0  0  0  0  0  0  0  0  0
   -1.0773    2.1380    0.5575 O   0  0  0  0  0  0  0  0  0  0  0  0
   -2.9908   -1.4003    0.8096 H   0  0  0  0  0  0  0  0  0  0  0  0
   -2.4652    0.2951    1.2278 H   0  0  0  0  0  0  0  0  0  0  0  0
   -3.5645   -0.0025   -0.1353 H   0  0  0  0  0  0  0  0  0  0  0  0
   -1.6997    0.1425   -1.4741 H   0  0  0  0  0  0  0  0  0  0  0  0
   -1.4789   -1.5492   -0.9517 H   0  0  0  0  0  0  0  0  0  0  0  0
   -0.0310   -0.7139    0.9617 H   0  0  0  0  0  0  0  0  0  0  0  0
    2.2986    1.1194   -1.2749 H   0  0  0  0  0  0  0  0  0  0  0  0
    3.4827    0.2230    0.9132 H   0  0  0  0  0  0  0  0  0  0  0  0
    2.2211   -1.1250    0.7671 H   0  0  0  0  0  0  0  0  0  0  0  0
    3.3575   -0.8682   -0.5758 H   0  0  0  0  0  0  0  0  0  0  0  0
  1  2  1  0
  2  3  1  0
  3  4  1  0
  4  5  1  0
  5  6  1  0
  5  7  1  0
  7  8  1  0
  8  9  2  0
  8  3  1  0
  1 10  1  0
  1 11  1  0
  1 12  1  0
  2 13  1  0
  2 14  1  0
  3 15  1  0
  5 16  1  0
  6 17  1  0
  6 18  1  0
  6 19  1  0
M  END
