
     RDKit          3D

 22 23  0  0  0  0  0  0  0  0999 V2000
    1.5068    1.3340    1.0460 C   0  0  0  0  0  0  0  0  0  0  0  0
    1.5341    0.4026   -0.1039 C   0  0  0  0  0  0  0  0  0  0  0  0
    0.2989   -0.2574   -0.4964 C   0  0  0  0  0  0  0  0  0  0  0  0
    0.4759   -1.2047   -1.7151 C   0  0  0  0  0  0  0  0  0  0  0  0
   -0.0277   -1.6692   -0.3962 C   0  0  0  0  0  0  0  0  0  0  0  0
   -1.4728   -1.2856   -0.0785 C   0  0  0  0  0  0  0  0  0  0  0  0
   -1.0727    0.1795   -0.3151 C   0  0  0  0  0  0  0  0  0  0  0  0
   -1.4970    0.9991    0.8391 C   0  0  0  0  0  0  0  0  0  0  0  0
    1.4126    0.8246    2.0333 H   0  0  0  0  0  0  0  0  0  0  0  0
    0.8036    2.1813    0.9330 H   0  0  0  0  0  0  0  0  0  0  0  0
    2.5253    1.8256    1.0961 H   0  0  0  0  0  0  0  0  0  0  0  0
    2.3135   -0.3836    0.1290 H   0  0  0  0  0  0  0  0  0  0  0  0
    1.9803    0.9565   -0.9786 H   0  0  0  0  0  0  0  0  0  0  0  0
    1.4908   -1.4971   -1.9973 H   0  0  0  0  0  0  0  0  0  0  0  0
   -0.2263   -1.0280   -2.5627 H   0  0  0  0  0  0  0  0  0  0  0  0
    0.4828   -2.4114    0.2122 H   0  0  0  0  0  0  0  0  0  0  0  0
   -2.2186   -1.6623   -0.7813 H   0  0  0  0  0  0  0  0  0  0  0  0
   -1.6815   -1.5230    0.9724 H   0  0  0  0  0  0  0  0  0  0  0  0
   -1.5163    0.5881   -1.2635 H   0  0  0  0  0  0  0  0  0  0  0  0
   -1.5670    2.1004    0.5958 H   0  0  0  0  0  0  0  0  0  0  0  0
   -0.9694    0.8056    1.7793 H   0  0  0  0  0  0  0  0  0  0  0  0
   -2.5755    0.7250    1.0522 H   0  0  0  0  0  0  0  0  0  0  0  0
  1  2  1  0
  2  3  1  0
  3  4  1  0
  4  5  1  0
  5  6  1  0
  6  7  1  0
  7  8  1  0
  5  3  1  0
  7  3  1  0
  1  9  1  0
  1 10  1  0
  1 11  1  0
  2 12  1  0
  2 13  1  0
  4 14  1  0
  4 15  1  0
  5 16  1  0
  6 17  1  0
  6 18  1  0
  7 19  1  0
  8 20  1  0
  8 21  1  0
  8 22  1  0
M  END
