
     RDKit          3D

 18 19  0  0  0  0  0  0  0  0999 V2000
   -2.2840   -0.7098    0.1832 C   0  0  0  0  0  0  0  0  0  0  0  0
   -1.0723   -0.8636   -0.7422 C   0  0  0  0  0  0  0  0  0  0  0  0
   -0.1578    0.3130   -0.5711 C   0  0  0  0  0  0  0  0  0  0  0  0
    0.3850    0.4991    0.8234 C   0  0  0  0  0  0  0  0  0  0  0  0
    1.0229    1.6664    1.1634 O   0  0  0  0  0  0  0  0  0  0  0  0
    1.9765    1.4479    0.1796 C   0  0  0  0  0  0  0  0  0  0  0  0
    1.2680    0.1940   -0.3007 C   0  0  0  0  0  0  0  0  0  0  0  0
    2.0045   -0.9472   -0.4289 O   0  0  0  0  0  0  0  0  0  0  0  0
   -3.0945   -1.4073   -0.0841 H   0  0  0  0  0  0  0  0  0  0  0  0
   -1.9544   -0.8067    1.2379 H   0  0  0  0  0  0  0  0  0  0  0  0
   -2.6478    0.3246    0.0191 H   0  0  0  0  0  0  0  0  0  0  0  0
   -0.5352   -1.8078   -0.5067 H   0  0  0  0  0  0  0  0  0  0  0  0
   -1.4902   -0.9343   -1.7684 H   0  0  0  0  0  0  0  0  0  0  0  0
   -0.4972    1.2292   -1.1106 H   0  0  0  0  0  0  0  0  0  0  0  0
    0.1425   -0.2423    1.6120 H   0  0  0  0  0  0  0  0  0  0  0  0
    2.9999    1.3010    0.5272 H   0  0  0  0  0  0  0  0  0  0  0  0
    1.9261    2.2969   -0.5596 H   0  0  0  0  0  0  0  0  0  0  0  0
    2.0082   -1.5532    0.3264 H   0  0  0  0  0  0  0  0  0  0  0  0
  1  2  1  0
  2  3  1  0
  3  4  1  0
  4  5  1  0
  5  6  1  0
  6  7  1  0
  7  8  1  0
  7  3  1  0
  7  4  1  0
  1  9  1  0
  1 10  1  0
  1 11  1  0
  2 12  1  0
  2 13  1  0
  3 14  1  0
  4 15  1  0
  6 16  1  0
  6 17  1  0
  8 18  1  0
M  END
