
     RDKit          3D

 23 23  0  0  0  0  0  0  0  0999 V2000
    0.1546    2.1796    0.6275 C   0  0  0  0  0  0  0  0  0  0  0  0
   -0.8300    1.2576    0.0211 C   0  0  0  0  0  0  0  0  0  0  0  0
   -0.5123   -0.1854   -0.0325 C   0  0  0  0  0  0  0  0  0  0  0  0
    0.6874   -0.6569   -0.7702 C   0  0  0  0  0  0  0  0  0  0  0  0
    2.0097   -0.1723   -0.3279 C   0  0  0  0  0  0  0  0  0  0  0  0
    2.2646   -0.5506    1.0058 O   0  0  0  0  0  0  0  0  0  0  0  0
   -1.7386   -0.9359   -0.5875 C   0  0  0  0  0  0  0  0  0  0  0  0
   -1.4087   -1.9102    0.4899 C   0  0  0  0  0  0  0  0  0  0  0  0
   -0.7139   -0.9011    1.1529 O   0  0  0  0  0  0  0  0  0  0  0  0
    0.7031    2.6903   -0.2201 H   0  0  0  0  0  0  0  0  0  0  0  0
   -0.3572    3.0523    1.1449 H   0  0  0  0  0  0  0  0  0  0  0  0
    0.8812    1.7694    1.3203 H   0  0  0  0  0  0  0  0  0  0  0  0
   -1.0650    1.5776   -1.0370 H   0  0  0  0  0  0  0  0  0  0  0  0
   -1.8073    1.4290    0.5669 H   0  0  0  0  0  0  0  0  0  0  0  0
    0.5560   -0.4198   -1.8683 H   0  0  0  0  0  0  0  0  0  0  0  0
    0.6876   -1.7846   -0.7595 H   0  0  0  0  0  0  0  0  0  0  0  0
    2.8148   -0.7152   -0.9089 H   0  0  0  0  0  0  0  0  0  0  0  0
    2.2334    0.8791   -0.4477 H   0  0  0  0  0  0  0  0  0  0  0  0
    2.9032    0.0622    1.4380 H   0  0  0  0  0  0  0  0  0  0  0  0
   -1.6071   -1.2723   -1.6339 H   0  0  0  0  0  0  0  0  0  0  0  0
   -2.6910   -0.3972   -0.3993 H   0  0  0  0  0  0  0  0  0  0  0  0
   -0.8228   -2.7819    0.1743 H   0  0  0  0  0  0  0  0  0  0  0  0
   -2.3417   -2.2136    1.0512 H   0  0  0  0  0  0  0  0  0  0  0  0
  1  2  1  0
  2  3  1  0
  3  4  1  0
  4  5  1  0
  5  6  1  0
  3  7  1  0
  7  8  1  0
  8  9  1  0
  9  3  1  0
  1 10  1  0
  1 11  1  0
  1 12  1  0
  2 13  1  0
  2 14  1  0
  4 15  1  0
  4 16  1  0
  5 17  1  0
  5 18  1  0
  6 19  1  0
  7 20  1  0
  7 21  1  0
  8 22  1  0
  8 23  1  0
M  END
