
     RDKit          3D

 23 24  0  0  0  0  0  0  0  0999 V2000
    2.2111   -0.9023   -0.2986 C   0  0  0  0  0  0  0  0  0  0  0  0
    1.6271    0.4675   -0.2042 C   0  0  0  0  0  0  0  0  0  0  0  0
    0.1862    0.4655    0.2554 C   0  0  0  0  0  0  0  0  0  0  0  0
   -0.4321    1.8331    0.3612 C   0  0  0  0  0  0  0  0  0  0  0  0
   -0.6550   -0.4596   -0.6325 C   0  0  0  0  0  0  0  0  0  0  0  0
   -2.0880    0.0435   -0.7932 C   0  0  0  0  0  0  0  0  0  0  0  0
   -0.6496   -1.5301    0.4081 C   0  0  0  0  0  0  0  0  0  0  0  0
    0.4037   -1.7189    1.2703 O   0  0  0  0  0  0  0  0  0  0  0  0
   -0.1355   -0.4740    1.3692 C   0  0  0  0  0  0  0  0  0  0  0  0
    3.0931   -0.8734   -1.0050 H   0  0  0  0  0  0  0  0  0  0  0  0
    2.6170   -1.2956    0.6507 H   0  0  0  0  0  0  0  0  0  0  0  0
    1.5027   -1.6224   -0.7898 H   0  0  0  0  0  0  0  0  0  0  0  0
    1.7391    0.9562   -1.1940 H   0  0  0  0  0  0  0  0  0  0  0  0
    2.2385    1.0480    0.5260 H   0  0  0  0  0  0  0  0  0  0  0  0
    0.3469    2.5624    0.7271 H   0  0  0  0  0  0  0  0  0  0  0  0
   -1.2489    1.8420    1.1299 H   0  0  0  0  0  0  0  0  0  0  0  0
   -0.8087    2.2142   -0.6064 H   0  0  0  0  0  0  0  0  0  0  0  0
   -0.1719   -0.6990   -1.5895 H   0  0  0  0  0  0  0  0  0  0  0  0
   -2.4275    0.3665    0.2297 H   0  0  0  0  0  0  0  0  0  0  0  0
   -2.7535   -0.7955   -1.0676 H   0  0  0  0  0  0  0  0  0  0  0  0
   -2.1626    0.8640   -1.5234 H   0  0  0  0  0  0  0  0  0  0  0  0
   -1.5576   -2.0867    0.6339 H   0  0  0  0  0  0  0  0  0  0  0  0
   -0.8746   -0.2056    2.1426 H   0  0  0  0  0  0  0  0  0  0  0  0
  1  2  1  0
  2  3  1  0
  3  4  1  0
  3  5  1  0
  5  6  1  0
  5  7  1  0
  7  8  1  0
  8  9  1  0
  9  3  1  0
  9  7  1  0
  1 10  1  0
  1 11  1  0
  1 12  1  0
  2 13  1  0
  2 14  1  0
  4 15  1  0
  4 16  1  0
  4 17  1  0
  5 18  1  0
  6 19  1  0
  6 20  1  0
  6 21  1  0
  7 22  1  0
  9 23  1  0
M  END
