
     RDKit          3D

 23 24  0  0  0  0  0  0  0  0999 V2000
    2.8199   -0.4802    0.3743 C   0  0  0  0  0  0  0  0  0  0  0  0
    1.7455    0.4011   -0.2050 C   0  0  0  0  0  0  0  0  0  0  0  0
    0.5261    0.3777    0.7144 C   0  0  0  0  0  0  0  0  0  0  0  0
    0.0406   -1.0082    0.8160 C   0  0  0  0  0  0  0  0  0  0  0  0
   -0.9309   -1.4848    0.0504 C   0  0  0  0  0  0  0  0  0  0  0  0
   -1.5616   -0.6198   -0.9420 C   0  0  0  0  0  0  0  0  0  0  0  0
   -2.7511    0.1721   -0.4383 C   0  0  0  0  0  0  0  0  0  0  0  0
   -1.4367    0.8166   -0.7904 C   0  0  0  0  0  0  0  0  0  0  0  0
   -0.5252    1.3440    0.2467 C   0  0  0  0  0  0  0  0  0  0  0  0
    2.4038   -1.5003    0.5723 H   0  0  0  0  0  0  0  0  0  0  0  0
    3.5950   -0.6138   -0.4105 H   0  0  0  0  0  0  0  0  0  0  0  0
    3.2367   -0.0295    1.3021 H   0  0  0  0  0  0  0  0  0  0  0  0
    2.1784    1.4417   -0.2325 H   0  0  0  0  0  0  0  0  0  0  0  0
    1.5025    0.0396   -1.2042 H   0  0  0  0  0  0  0  0  0  0  0  0
    0.8520    0.7066    1.7224 H   0  0  0  0  0  0  0  0  0  0  0  0
    0.4994   -1.6647    1.5493 H   0  0  0  0  0  0  0  0  0  0  0  0
   -1.2814   -2.5189    0.1380 H   0  0  0  0  0  0  0  0  0  0  0  0
   -1.6595   -1.0675   -1.9695 H   0  0  0  0  0  0  0  0  0  0  0  0
   -3.6098    0.2453   -1.1451 H   0  0  0  0  0  0  0  0  0  0  0  0
   -3.0567    0.0425    0.5995 H   0  0  0  0  0  0  0  0  0  0  0  0
   -1.5030    1.4234   -1.7419 H   0  0  0  0  0  0  0  0  0  0  0  0
    0.0297    2.2497   -0.1304 H   0  0  0  0  0  0  0  0  0  0  0  0
   -1.1137    1.7274    1.1243 H   0  0  0  0  0  0  0  0  0  0  0  0
  1  2  1  0
  2  3  1  0
  3  4  1  0
  4  5  2  0
  5  6  1  0
  6  7  1  0
  7  8  1  0
  8  9  1  0
  9  3  1  0
  8  6  1  0
  1 10  1  0
  1 11  1  0
  1 12  1  0
  2 13  1  0
  2 14  1  0
  3 15  1  0
  4 16  1  0
  5 17  1  0
  6 18  1  0
  7 19  1  0
  7 20  1  0
  8 21  1  0
  9 22  1  0
  9 23  1  0
M  END
