
     RDKit          3D

 23 23  0  0  0  0  0  0  0  0999 V2000
    2.6545   -0.9951    0.2737 C   0  0  0  0  0  0  0  0  0  0  0  0
    1.1331   -1.0264    0.4579 C   0  0  0  0  0  0  0  0  0  0  0  0
    0.5765    0.0228   -0.4602 C   0  0  0  0  0  0  0  0  0  0  0  0
    1.1029    1.2404   -0.0993 O   0  0  0  0  0  0  0  0  0  0  0  0
    0.1025    2.1709   -0.0493 C   0  0  0  0  0  0  0  0  0  0  0  0
   -1.1944    1.4074    0.2064 C   0  0  0  0  0  0  0  0  0  0  0  0
   -0.8947    0.1058   -0.5026 C   0  0  0  0  0  0  0  0  0  0  0  0
   -1.6332   -1.0214    0.1350 C   0  0  0  0  0  0  0  0  0  0  0  0
   -3.0121   -0.7386   -0.0203 O   0  0  0  0  0  0  0  0  0  0  0  0
    3.1733   -1.2478    1.2032 H   0  0  0  0  0  0  0  0  0  0  0  0
    2.9703   -1.7698   -0.4856 H   0  0  0  0  0  0  0  0  0  0  0  0
    2.9785   -0.0240   -0.1674 H   0  0  0  0  0  0  0  0  0  0  0  0
    0.9641   -0.7064    1.5182 H   0  0  0  0  0  0  0  0  0  0  0  0
    0.7702   -2.0343    0.2819 H   0  0  0  0  0  0  0  0  0  0  0  0
    0.9435   -0.1894   -1.5075 H   0  0  0  0  0  0  0  0  0  0  0  0
    0.0367    2.7099   -1.0365 H   0  0  0  0  0  0  0  0  0  0  0  0
    0.3186    2.8852    0.7772 H   0  0  0  0  0  0  0  0  0  0  0  0
   -1.3801    1.2881    1.2728 H   0  0  0  0  0  0  0  0  0  0  0  0
   -1.9883    1.9782   -0.3044 H   0  0  0  0  0  0  0  0  0  0  0  0
   -1.2930    0.2215   -1.5423 H   0  0  0  0  0  0  0  0  0  0  0  0
   -1.4820   -1.0746    1.2401 H   0  0  0  0  0  0  0  0  0  0  0  0
   -1.4635   -1.9694   -0.3802 H   0  0  0  0  0  0  0  0  0  0  0  0
   -3.3834   -1.2333   -0.8107 H   0  0  0  0  0  0  0  0  0  0  0  0
  1  2  1  0
  2  3  1  0
  3  4  1  0
  4  5  1  0
  5  6  1  0
  6  7  1  0
  7  8  1  0
  8  9  1  0
  7  3  1  0
  1 10  1  0
  1 11  1  0
  1 12  1  0
  2 13  1  0
  2 14  1  0
  3 15  1  0
  5 16  1  0
  5 17  1  0
  6 18  1  0
  6 19  1  0
  7 20  1  0
  8 21  1  0
  8 22  1  0
  9 23  1  0
M  END
