
     RDKit          3D

 23 23  0  0  0  0  0  0  0  0999 V2000
    2.0092   -0.3756   -0.4244 C   0  0  0  0  0  0  0  0  0  0  0  0
    1.3641    0.4187    0.6705 C   0  0  0  0  0  0  0  0  0  0  0  0
   -0.1289    0.2665    0.7275 C   0  0  0  0  0  0  0  0  0  0  0  0
   -0.5917    1.0532    1.7828 O   0  0  0  0  0  0  0  0  0  0  0  0
   -0.4807   -1.1741    1.0416 C   0  0  0  0  0  0  0  0  0  0  0  0
   -1.0133   -1.6639   -0.2652 C   0  0  0  0  0  0  0  0  0  0  0  0
   -1.3173   -0.4752   -1.1095 C   0  0  0  0  0  0  0  0  0  0  0  0
   -0.8079    0.6032   -0.5286 C   0  0  0  0  0  0  0  0  0  0  0  0
   -0.9371    1.9600   -1.1182 C   0  0  0  0  0  0  0  0  0  0  0  0
    2.9247    0.2001   -0.7484 H   0  0  0  0  0  0  0  0  0  0  0  0
    2.3771   -1.3704   -0.0742 H   0  0  0  0  0  0  0  0  0  0  0  0
    1.3446   -0.5845   -1.2807 H   0  0  0  0  0  0  0  0  0  0  0  0
    1.7596    0.0355    1.6516 H   0  0  0  0  0  0  0  0  0  0  0  0
    1.6461    1.4996    0.6524 H   0  0  0  0  0  0  0  0  0  0  0  0
   -0.1101    0.7078    2.6008 H   0  0  0  0  0  0  0  0  0  0  0  0
   -1.3341   -1.1950    1.7810 H   0  0  0  0  0  0  0  0  0  0  0  0
    0.3828   -1.7505    1.4222 H   0  0  0  0  0  0  0  0  0  0  0  0
   -1.9124   -2.2867   -0.1085 H   0  0  0  0  0  0  0  0  0  0  0  0
   -0.2911   -2.3142   -0.8224 H   0  0  0  0  0  0  0  0  0  0  0  0
   -1.8722   -0.5643   -2.0369 H   0  0  0  0  0  0  0  0  0  0  0  0
   -1.1562    1.9197   -2.2139 H   0  0  0  0  0  0  0  0  0  0  0  0
   -1.7979    2.5060   -0.6347 H   0  0  0  0  0  0  0  0  0  0  0  0
   -0.0574    2.5843   -0.9648 H   0  0  0  0  0  0  0  0  0  0  0  0
  1  2  1  0
  2  3  1  0
  3  4  1  0
  3  5  1  0
  5  6  1  0
  6  7  1  0
  7  8  2  0
  8  9  1  0
  8  3  1  0
  1 10  1  0
  1 11  1  0
  1 12  1  0
  2 13  1  0
  2 14  1  0
  4 15  1  0
  5 16  1  0
  5 17  1  0
  6 18  1  0
  6 19  1  0
  7 20  1  0
  9 21  1  0
  9 22  1  0
  9 23  1  0
M  END
