
     RDKit          3D

 23 24  0  0  0  0  0  0  0  0999 V2000
   -1.1665   -2.2959   -0.1595 C   0  0  0  0  0  0  0  0  0  0  0  0
   -0.9910   -0.9706    0.5319 C   0  0  0  0  0  0  0  0  0  0  0  0
   -0.2833    0.0443   -0.3415 C   0  0  0  0  0  0  0  0  0  0  0  0
   -0.1597    1.3187    0.4338 C   0  0  0  0  0  0  0  0  0  0  0  0
   -1.0842    2.3451   -0.2236 C   0  0  0  0  0  0  0  0  0  0  0  0
    1.1393    1.7159    0.4485 O   0  0  0  0  0  0  0  0  0  0  0  0
    1.9384    0.7657   -0.1093 C   0  0  0  0  0  0  0  0  0  0  0  0
    2.0981   -0.5908    0.4624 C   0  0  0  0  0  0  0  0  0  0  0  0
    1.1307   -0.3433   -0.6427 C   0  0  0  0  0  0  0  0  0  0  0  0
   -0.9970   -3.1236    0.5700 H   0  0  0  0  0  0  0  0  0  0  0  0
   -0.4821   -2.4617   -0.9946 H   0  0  0  0  0  0  0  0  0  0  0  0
   -2.2418   -2.3976   -0.4710 H   0  0  0  0  0  0  0  0  0  0  0  0
   -1.9887   -0.5481    0.7945 H   0  0  0  0  0  0  0  0  0  0  0  0
   -0.4613   -1.1313    1.4795 H   0  0  0  0  0  0  0  0  0  0  0  0
   -0.8406    0.1658   -1.2867 H   0  0  0  0  0  0  0  0  0  0  0  0
   -0.5080    1.1998    1.4910 H   0  0  0  0  0  0  0  0  0  0  0  0
   -0.5256    3.2437   -0.5521 H   0  0  0  0  0  0  0  0  0  0  0  0
   -1.8774    2.6747    0.4569 H   0  0  0  0  0  0  0  0  0  0  0  0
   -1.5789    1.9321   -1.1245 H   0  0  0  0  0  0  0  0  0  0  0  0
    2.8106    1.1731   -0.6800 H   0  0  0  0  0  0  0  0  0  0  0  0
    1.6873   -0.8864    1.4299 H   0  0  0  0  0  0  0  0  0  0  0  0
    3.0058   -1.1654    0.1656 H   0  0  0  0  0  0  0  0  0  0  0  0
    1.3759   -0.6642   -1.6785 H   0  0  0  0  0  0  0  0  0  0  0  0
  1  2  1  0
  2  3  1  0
  3  4  1  0
  4  5  1  0
  4  6  1  0
  6  7  1  0
  7  8  1  0
  8  9  1  0
  9  3  1  0
  9  7  1  0
  1 10  1  0
  1 11  1  0
  1 12  1  0
  2 13  1  0
  2 14  1  0
  3 15  1  0
  4 16  1  0
  5 17  1  0
  5 18  1  0
  5 19  1  0
  7 20  1  0
  8 21  1  0
  8 22  1  0
  9 23  1  0
M  END
