
     RDKit          3D

 25 26  0  0  0  0  0  0  0  0999 V2000
    2.6620   -0.6156    0.0857 C   0  0  0  0  0  0  0  0  0  0  0  0
    1.7259    0.5584    0.0404 C   0  0  0  0  0  0  0  0  0  0  0  0
    0.3074    0.2529    0.0822 C   0  0  0  0  0  0  0  0  0  0  0  0
   -0.4970    1.5430    0.0289 C   0  0  0  0  0  0  0  0  0  0  0  0
   -1.9013    1.0500   -0.3215 C   0  0  0  0  0  0  0  0  0  0  0  0
   -1.6993   -0.3849   -0.7118 C   0  0  0  0  0  0  0  0  0  0  0  0
   -1.5397   -1.1802    0.5713 C   0  0  0  0  0  0  0  0  0  0  0  0
   -0.2078   -0.6505    1.1294 C   0  0  0  0  0  0  0  0  0  0  0  0
   -0.2357   -0.4257   -1.1848 C   0  0  0  0  0  0  0  0  0  0  0  0
    2.2918   -1.4848   -0.4888 H   0  0  0  0  0  0  0  0  0  0  0  0
    3.6275   -0.2936   -0.3954 H   0  0  0  0  0  0  0  0  0  0  0  0
    2.9247   -0.8732    1.1319 H   0  0  0  0  0  0  0  0  0  0  0  0
    1.9325    1.1362   -0.9105 H   0  0  0  0  0  0  0  0  0  0  0  0
    1.9985    1.2385    0.8537 H   0  0  0  0  0  0  0  0  0  0  0  0
   -0.0720    2.1408   -0.8180 H   0  0  0  0  0  0  0  0  0  0  0  0
   -0.4737    2.0839    0.9737 H   0  0  0  0  0  0  0  0  0  0  0  0
   -2.3150    1.6593   -1.1508 H   0  0  0  0  0  0  0  0  0  0  0  0
   -2.4875    1.1352    0.6171 H   0  0  0  0  0  0  0  0  0  0  0  0
   -2.3901   -0.7916   -1.4178 H   0  0  0  0  0  0  0  0  0  0  0  0
   -2.3720   -0.9415    1.2588 H   0  0  0  0  0  0  0  0  0  0  0  0
   -1.4383   -2.2639    0.3895 H   0  0  0  0  0  0  0  0  0  0  0  0
    0.4958   -1.5021    1.2813 H   0  0  0  0  0  0  0  0  0  0  0  0
   -0.4116   -0.1302    2.0813 H   0  0  0  0  0  0  0  0  0  0  0  0
    0.1480   -1.4462   -1.2209 H   0  0  0  0  0  0  0  0  0  0  0  0
   -0.0731    0.1857   -2.0665 H   0  0  0  0  0  0  0  0  0  0  0  0
  1  2  1  0
  2  3  1  0
  3  4  1  0
  4  5  1  0
  5  6  1  0
  6  7  1  0
  7  8  1  0
  6  9  1  0
  8  3  1  0
  9  3  1  0
  1 10  1  0
  1 11  1  0
  1 12  1  0
  2 13  1  0
  2 14  1  0
  4 15  1  0
  4 16  1  0
  5 17  1  0
  5 18  1  0
  6 19  1  0
  7 20  1  0
  7 21  1  0
  8 22  1  0
  8 23  1  0
  9 24  1  0
  9 25  1  0
M  END
