
     RDKit          3D

 21 22  0  0  0  0  0  0  0  0999 V2000
    2.5528    0.1153    0.0017 C   0  0  0  0  0  0  0  0  0  0  0  0
    1.3227    0.5408    0.7270 C   0  0  0  0  0  0  0  0  0  0  0  0
    0.0608    0.0878    0.2078 C   0  0  0  0  0  0  0  0  0  0  0  0
   -0.3870    0.4327   -1.1821 C   0  0  0  0  0  0  0  0  0  0  0  0
   -1.7877    0.1819   -0.6062 C   0  0  0  0  0  0  0  0  0  0  0  0
   -1.7731   -1.2663   -0.1886 C   0  0  0  0  0  0  0  0  0  0  0  0
   -0.3556   -1.3300    0.3185 C   0  0  0  0  0  0  0  0  0  0  0  0
    0.2989   -2.2462    0.7130 O   0  0  0  0  0  0  0  0  0  0  0  0
   -1.2062    0.8337    0.6571 C   0  0  0  0  0  0  0  0  0  0  0  0
    2.3445   -0.5399   -0.8569 H   0  0  0  0  0  0  0  0  0  0  0  0
    3.2515   -0.4603    0.6664 H   0  0  0  0  0  0  0  0  0  0  0  0
    3.1447    1.0210   -0.3188 H   0  0  0  0  0  0  0  0  0  0  0  0
    1.3052    1.6643    0.8189 H   0  0  0  0  0  0  0  0  0  0  0  0
    1.4161    0.1976    1.7995 H   0  0  0  0  0  0  0  0  0  0  0  0
   -0.2869    1.4634   -1.5082 H   0  0  0  0  0  0  0  0  0  0  0  0
   -0.1283   -0.2835   -1.9719 H   0  0  0  0  0  0  0  0  0  0  0  0
   -2.6188    0.6200   -1.0691 H   0  0  0  0  0  0  0  0  0  0  0  0
   -2.4114   -1.4549    0.6959 H   0  0  0  0  0  0  0  0  0  0  0  0
   -1.9659   -1.9692   -0.9932 H   0  0  0  0  0  0  0  0  0  0  0  0
   -1.6330    0.4753    1.5954 H   0  0  0  0  0  0  0  0  0  0  0  0
   -1.1432    1.9163    0.4937 H   0  0  0  0  0  0  0  0  0  0  0  0
  1  2  1  0
  2  3  1  0
  3  4  1  0
  4  5  1  0
  5  6  1  0
  6  7  1  0
  7  8  2  0
  5  9  1  0
  7  3  1  0
  9  3  1  0
  1 10  1  0
  1 11  1  0
  1 12  1  0
  2 13  1  0
  2 14  1  0
  4 15  1  0
  4 16  1  0
  5 17  1  0
  6 18  1  0
  6 19  1  0
  9 20  1  0
  9 21  1  0
M  END
