
     RDKit          3D

 19 19  0  0  0  0  0  0  0  0999 V2000
    2.3976    0.2234   -0.6855 C   0  0  0  0  0  0  0  0  0  0  0  0
    1.8872    0.1805    0.7315 C   0  0  0  0  0  0  0  0  0  0  0  0
    0.3816    0.2231    0.6549 C   0  0  0  0  0  0  0  0  0  0  0  0
   -0.3151    0.2853   -0.4506 C   0  0  0  0  0  0  0  0  0  0  0  0
   -1.7459    0.3093   -0.1088 C   0  0  0  0  0  0  0  0  0  0  0  0
   -2.4081   -0.8897   -0.7582 C   0  0  0  0  0  0  0  0  0  0  0  0
   -1.7867    0.2552    1.2815 O   0  0  0  0  0  0  0  0  0  0  0  0
   -0.5142    0.2011    1.8008 C   0  0  0  0  0  0  0  0  0  0  0  0
   -0.1586    0.1431    3.0261 O   0  0  0  0  0  0  0  0  0  0  0  0
    2.0632   -0.7059   -1.1895 H   0  0  0  0  0  0  0  0  0  0  0  0
    1.9836    1.0713   -1.2321 H   0  0  0  0  0  0  0  0  0  0  0  0
    3.4998    0.3263   -0.6719 H   0  0  0  0  0  0  0  0  0  0  0  0
    2.1901   -0.7631    1.2281 H   0  0  0  0  0  0  0  0  0  0  0  0
    2.2783    1.0525    1.2956 H   0  0  0  0  0  0  0  0  0  0  0  0
    0.1061    0.3154   -1.4866 H   0  0  0  0  0  0  0  0  0  0  0  0
   -2.1482    1.2645   -0.5221 H   0  0  0  0  0  0  0  0  0  0  0  0
   -2.9279   -0.5148   -1.6639 H   0  0  0  0  0  0  0  0  0  0  0  0
   -3.1466   -1.3697   -0.1104 H   0  0  0  0  0  0  0  0  0  0  0  0
   -1.6360   -1.6076   -1.1389 H   0  0  0  0  0  0  0  0  0  0  0  0
  1  2  1  0
  2  3  1  0
  3  4  2  0
  4  5  1  0
  5  6  1  0
  5  7  1  0
  7  8  1  0
  8  9  2  0
  8  3  1  0
  1 10  1  0
  1 11  1  0
  1 12  1  0
  2 13  1  0
  2 14  1  0
  4 15  1  0
  5 16  1  0
  6 17  1  0
  6 18  1  0
  6 19  1  0
M  END
