
     RDKit          3D

 23 24  0  0  0  0  0  0  0  0999 V2000
    2.8316    0.0429    0.4060 C   0  0  0  0  0  0  0  0  0  0  0  0
    1.6063   -0.6964    0.8686 C   0  0  0  0  0  0  0  0  0  0  0  0
    0.4718   -0.6429   -0.1005 C   0  0  0  0  0  0  0  0  0  0  0  0
   -0.1563    0.6139   -0.5364 C   0  0  0  0  0  0  0  0  0  0  0  0
    0.4838    1.9494   -0.1319 C   0  0  0  0  0  0  0  0  0  0  0  0
   -0.8541   -0.1557    0.5089 C   0  0  0  0  0  0  0  0  0  0  0  0
   -2.0120   -1.0433    0.2487 C   0  0  0  0  0  0  0  0  0  0  0  0
   -3.3529   -0.8214    0.6966 C   0  0  0  0  0  0  0  0  0  0  0  0
   -2.9824   -0.4619   -0.7042 O   0  0  0  0  0  0  0  0  0  0  0  0
    3.7199   -0.6224    0.3039 H   0  0  0  0  0  0  0  0  0  0  0  0
    3.1000    0.7980    1.1670 H   0  0  0  0  0  0  0  0  0  0  0  0
    2.6774    0.4892   -0.6027 H   0  0  0  0  0  0  0  0  0  0  0  0
    1.2986   -0.3490    1.8946 H   0  0  0  0  0  0  0  0  0  0  0  0
    1.9041   -1.7604    1.0079 H   0  0  0  0  0  0  0  0  0  0  0  0
    0.4220   -1.4842   -0.8227 H   0  0  0  0  0  0  0  0  0  0  0  0
   -0.6036    0.6656   -1.5512 H   0  0  0  0  0  0  0  0  0  0  0  0
    1.1597    2.3289   -0.9122 H   0  0  0  0  0  0  0  0  0  0  0  0
   -0.3288    2.7007   -0.0214 H   0  0  0  0  0  0  0  0  0  0  0  0
    0.9582    1.8470    0.8643 H   0  0  0  0  0  0  0  0  0  0  0  0
   -0.8128    0.2731    1.5326 H   0  0  0  0  0  0  0  0  0  0  0  0
   -1.7435   -2.1064   -0.0181 H   0  0  0  0  0  0  0  0  0  0  0  0
   -4.0905   -1.6292    0.6254 H   0  0  0  0  0  0  0  0  0  0  0  0
   -3.6964    0.0647    1.2570 H   0  0  0  0  0  0  0  0  0  0  0  0
  1  2  1  0
  2  3  1  0
  3  4  1  0
  4  5  1  0
  4  6  1  0
  6  7  1  0
  7  8  1  0
  8  9  1  0
  6  3  1  0
  9  7  1  0
  1 10  1  0
  1 11  1  0
  1 12  1  0
  2 13  1  0
  2 14  1  0
  3 15  1  0
  4 16  1  0
  5 17  1  0
  5 18  1  0
  5 19  1  0
  6 20  1  0
  7 21  1  0
  8 22  1  0
  8 23  1  0
M  END
