
     RDKit          3D

 25 25  0  0  0  0  0  0  0  0999 V2000
   -1.9153   -1.0028    1.1855 C   0  0  0  0  0  0  0  0  0  0  0  0
   -1.6140    0.2157    0.3491 C   0  0  0  0  0  0  0  0  0  0  0  0
   -0.2171    0.1968   -0.2176 C   0  0  0  0  0  0  0  0  0  0  0  0
   -0.0053    1.4569   -1.0413 C   0  0  0  0  0  0  0  0  0  0  0  0
   -0.1986    2.6261   -0.0978 C   0  0  0  0  0  0  0  0  0  0  0  0
    0.2145   -1.0451   -0.9014 C   0  0  0  0  0  0  0  0  0  0  0  0
    1.5244   -0.6482   -0.2503 C   0  0  0  0  0  0  0  0  0  0  0  0
    2.3032   -1.8159    0.3239 C   0  0  0  0  0  0  0  0  0  0  0  0
    0.7990    0.0467    0.6939 O   0  0  0  0  0  0  0  0  0  0  0  0
   -1.1163   -1.0783    1.9617 H   0  0  0  0  0  0  0  0  0  0  0  0
   -2.8891   -0.8196    1.6856 H   0  0  0  0  0  0  0  0  0  0  0  0
   -2.0142   -1.9231    0.5926 H   0  0  0  0  0  0  0  0  0  0  0  0
   -1.6637    1.0916    1.0329 H   0  0  0  0  0  0  0  0  0  0  0  0
   -2.3217    0.3774   -0.4614 H   0  0  0  0  0  0  0  0  0  0  0  0
    0.9589    1.4711   -1.5619 H   0  0  0  0  0  0  0  0  0  0  0  0
   -0.7915    1.5371   -1.8336 H   0  0  0  0  0  0  0  0  0  0  0  0
    0.2036    2.3347    0.8816 H   0  0  0  0  0  0  0  0  0  0  0  0
    0.2357    3.5686   -0.4921 H   0  0  0  0  0  0  0  0  0  0  0  0
   -1.3035    2.7953   -0.0330 H   0  0  0  0  0  0  0  0  0  0  0  0
   -0.1562   -1.9708   -0.4251 H   0  0  0  0  0  0  0  0  0  0  0  0
    0.2330   -1.0526   -2.0046 H   0  0  0  0  0  0  0  0  0  0  0  0
    2.1773   -0.0560   -0.9154 H   0  0  0  0  0  0  0  0  0  0  0  0
    1.8312   -2.7822    0.1067 H   0  0  0  0  0  0  0  0  0  0  0  0
    2.3651   -1.7042    1.4435 H   0  0  0  0  0  0  0  0  0  0  0  0
    3.3605   -1.8191   -0.0216 H   0  0  0  0  0  0  0  0  0  0  0  0
  1  2  1  0
  2  3  1  0
  3  4  1  0
  4  5  1  0
  3  6  1  0
  6  7  1  0
  7  8  1  0
  7  9  1  0
  9  3  1  0
  1 10  1  0
  1 11  1  0
  1 12  1  0
  2 13  1  0
  2 14  1  0
  4 15  1  0
  4 16  1  0
  5 17  1  0
  5 18  1  0
  5 19  1  0
  6 20  1  0
  6 21  1  0
  7 22  1  0
  8 23  1  0
  8 24  1  0
  8 25  1  0
M  END
