
     RDKit          3D

 23 23  0  0  0  0  0  0  0  0999 V2000
    2.9284   -0.2874    0.6271 C   0  0  0  0  0  0  0  0  0  0  0  0
    2.2224   -0.0779   -0.6916 C   0  0  0  0  0  0  0  0  0  0  0  0
    0.8191    0.4414   -0.4708 C   0  0  0  0  0  0  0  0  0  0  0  0
    0.1230    0.6481   -1.7607 C   0  0  0  0  0  0  0  0  0  0  0  0
   -1.1389    0.2999   -1.5731 C   0  0  0  0  0  0  0  0  0  0  0  0
   -1.2998   -0.1490   -0.1389 C   0  0  0  0  0  0  0  0  0  0  0  0
   -1.8738    0.9456    0.6983 C   0  0  0  0  0  0  0  0  0  0  0  0
   -2.1840   -1.3587   -0.1445 C   0  0  0  0  0  0  0  0  0  0  0  0
    0.0214   -0.4571    0.1953 O   0  0  0  0  0  0  0  0  0  0  0  0
    3.8790   -0.8298    0.3912 H   0  0  0  0  0  0  0  0  0  0  0  0
    2.3067   -0.9203    1.2902 H   0  0  0  0  0  0  0  0  0  0  0  0
    3.2019    0.6678    1.1121 H   0  0  0  0  0  0  0  0  0  0  0  0
    2.7696    0.7336   -1.2527 H   0  0  0  0  0  0  0  0  0  0  0  0
    2.2567   -0.9945   -1.2738 H   0  0  0  0  0  0  0  0  0  0  0  0
    0.8580    1.4304    0.0543 H   0  0  0  0  0  0  0  0  0  0  0  0
    0.6039    1.0237   -2.6808 H   0  0  0  0  0  0  0  0  0  0  0  0
   -1.9336    0.3212   -2.2945 H   0  0  0  0  0  0  0  0  0  0  0  0
   -1.2724    1.1694    1.5881 H   0  0  0  0  0  0  0  0  0  0  0  0
   -2.8916    0.6525    1.0722 H   0  0  0  0  0  0  0  0  0  0  0  0
   -2.0687    1.8567    0.0638 H   0  0  0  0  0  0  0  0  0  0  0  0
   -2.5081   -1.6510   -1.1750 H   0  0  0  0  0  0  0  0  0  0  0  0
   -3.1255   -1.2147    0.4418 H   0  0  0  0  0  0  0  0  0  0  0  0
   -1.6936   -2.2500    0.3136 H   0  0  0  0  0  0  0  0  0  0  0  0
  1  2  1  0
  2  3  1  0
  3  4  1  0
  4  5  2  0
  5  6  1  0
  6  7  1  0
  6  8  1  0
  6  9  1  0
  9  3  1  0
  1 10  1  0
  1 11  1  0
  1 12  1  0
  2 13  1  0
  2 14  1  0
  3 15  1  0
  4 16  1  0
  5 17  1  0
  7 18  1  0
  7 19  1  0
  7 20  1  0
  8 21  1  0
  8 22  1  0
  8 23  1  0
M  END
