
     RDKit          3D

 19 20  0  0  0  0  0  0  0  0999 V2000
    2.1475   -0.0971    0.0275 C   0  0  0  0  0  0  0  0  0  0  0  0
    0.8950   -0.3931   -0.7831 C   0  0  0  0  0  0  0  0  0  0  0  0
   -0.2701    0.2419   -0.0630 C   0  0  0  0  0  0  0  0  0  0  0  0
   -0.1356    1.7448    0.0892 C   0  0  0  0  0  0  0  0  0  0  0  0
   -0.8536   -0.4513    1.1093 C   0  0  0  0  0  0  0  0  0  0  0  0
   -1.2834   -1.7873    1.0466 O   0  0  0  0  0  0  0  0  0  0  0  0
   -1.7844   -1.7655   -0.2514 C   0  0  0  0  0  0  0  0  0  0  0  0
   -2.1996   -2.5672   -1.1264 O   0  0  0  0  0  0  0  0  0  0  0  0
   -1.6305   -0.2760   -0.2195 C   0  0  0  0  0  0  0  0  0  0  0  0
    2.1840   -0.7084    0.9520 H   0  0  0  0  0  0  0  0  0  0  0  0
    2.1805    0.9890    0.2514 H   0  0  0  0  0  0  0  0  0  0  0  0
    3.0496   -0.3354   -0.5551 H   0  0  0  0  0  0  0  0  0  0  0  0
    1.0404    0.1322   -1.7693 H   0  0  0  0  0  0  0  0  0  0  0  0
    0.7780   -1.4765   -0.9377 H   0  0  0  0  0  0  0  0  0  0  0  0
    0.5077    1.9302    0.9608 H   0  0  0  0  0  0  0  0  0  0  0  0
   -1.1307    2.1908    0.3229 H   0  0  0  0  0  0  0  0  0  0  0  0
    0.2611    2.1539   -0.8610 H   0  0  0  0  0  0  0  0  0  0  0  0
   -1.2253    0.1375    1.9740 H   0  0  0  0  0  0  0  0  0  0  0  0
   -2.5305    0.3374   -0.1672 H   0  0  0  0  0  0  0  0  0  0  0  0
  1  2  1  0
  2  3  1  0
  3  4  1  0
  3  5  1  0
  5  6  1  0
  6  7  1  0
  7  8  2  0
  7  9  1  0
  9  3  1  0
  9  5  1  0
  1 10  1  0
  1 11  1  0
  1 12  1  0
  2 13  1  0
  2 14  1  0
  4 15  1  0
  4 16  1  0
  4 17  1  0
  5 18  1  0
  9 19  1  0
M  END
