
     RDKit          3D

 23 23  0  0  0  0  0  0  0  0999 V2000
   -1.7098    1.5486   -0.0602 C   0  0  0  0  0  0  0  0  0  0  0  0
   -1.6845    0.0986    0.2409 C   0  0  0  0  0  0  0  0  0  0  0  0
   -0.5132   -0.6511   -0.2947 C   0  0  0  0  0  0  0  0  0  0  0  0
   -0.6014   -2.1176    0.0776 C   0  0  0  0  0  0  0  0  0  0  0  0
   -0.3634   -0.4104   -1.6575 O   0  0  0  0  0  0  0  0  0  0  0  0
    1.0000   -0.6438   -1.4871 C   0  0  0  0  0  0  0  0  0  0  0  0
    0.8516   -0.1377   -0.0446 C   0  0  0  0  0  0  0  0  0  0  0  0
    1.0710    1.1911    0.0767 O   0  0  0  0  0  0  0  0  0  0  0  0
    2.0627    1.4054    1.0285 C   0  0  0  0  0  0  0  0  0  0  0  0
   -2.7628    1.8701   -0.2055 H   0  0  0  0  0  0  0  0  0  0  0  0
   -1.1693    1.8467   -0.9767 H   0  0  0  0  0  0  0  0  0  0  0  0
   -1.3316    2.1532    0.8010 H   0  0  0  0  0  0  0  0  0  0  0  0
   -1.7381   -0.0347    1.3417 H   0  0  0  0  0  0  0  0  0  0  0  0
   -2.6012   -0.3785   -0.1671 H   0  0  0  0  0  0  0  0  0  0  0  0
    0.2791   -2.4549    0.6725 H   0  0  0  0  0  0  0  0  0  0  0  0
   -0.6013   -2.7215   -0.8472 H   0  0  0  0  0  0  0  0  0  0  0  0
   -1.4900   -2.3309    0.7202 H   0  0  0  0  0  0  0  0  0  0  0  0
    1.6667   -0.0222   -2.0867 H   0  0  0  0  0  0  0  0  0  0  0  0
    1.1718   -1.7511   -1.5433 H   0  0  0  0  0  0  0  0  0  0  0  0
    1.4986   -0.7358    0.6277 H   0  0  0  0  0  0  0  0  0  0  0  0
    2.2428    2.4875    1.1286 H   0  0  0  0  0  0  0  0  0  0  0  0
    1.7536    0.9410    1.9891 H   0  0  0  0  0  0  0  0  0  0  0  0
    2.9686    0.8479    0.6869 H   0  0  0  0  0  0  0  0  0  0  0  0
  1  2  1  0
  2  3  1  0
  3  4  1  0
  3  5  1  0
  5  6  1  0
  6  7  1  0
  7  8  1  0
  8  9  1  0
  7  3  1  0
  1 10  1  0
  1 11  1  0
  1 12  1  0
  2 13  1  0
  2 14  1  0
  4 15  1  0
  4 16  1  0
  4 17  1  0
  6 18  1  0
  6 19  1  0
  7 20  1  0
  9 21  1  0
  9 22  1  0
  9 23  1  0
M  END
