
     RDKit          3D

 25 25  0  0  0  0  0  0  0  0999 V2000
    2.3125   -1.2242    0.1674 C   0  0  0  0  0  0  0  0  0  0  0  0
    1.8359    0.0941   -0.3599 C   0  0  0  0  0  0  0  0  0  0  0  0
    0.4453    0.3443    0.1338 C   0  0  0  0  0  0  0  0  0  0  0  0
   -0.0012    1.7039   -0.4290 C   0  0  0  0  0  0  0  0  0  0  0  0
   -1.4232    1.7180    0.0838 C   0  0  0  0  0  0  0  0  0  0  0  0
   -1.4595    2.0894    1.4079 O   0  0  0  0  0  0  0  0  0  0  0  0
   -1.8690    0.2850   -0.1069 C   0  0  0  0  0  0  0  0  0  0  0  0
   -0.6121   -0.5077   -0.4804 C   0  0  0  0  0  0  0  0  0  0  0  0
   -0.7151   -1.8933    0.0942 C   0  0  0  0  0  0  0  0  0  0  0  0
    2.3285   -1.9432   -0.6968 H   0  0  0  0  0  0  0  0  0  0  0  0
    3.3622   -1.1901    0.5384 H   0  0  0  0  0  0  0  0  0  0  0  0
    1.7125   -1.6157    1.0122 H   0  0  0  0  0  0  0  0  0  0  0  0
    2.4874    0.8816    0.1016 H   0  0  0  0  0  0  0  0  0  0  0  0
    1.9452    0.2032   -1.4410 H   0  0  0  0  0  0  0  0  0  0  0  0
    0.3957    0.3413    1.2211 H   0  0  0  0  0  0  0  0  0  0  0  0
   -0.0365    1.5774   -1.5175 H   0  0  0  0  0  0  0  0  0  0  0  0
    0.6121    2.5215   -0.0625 H   0  0  0  0  0  0  0  0  0  0  0  0
   -2.0204    2.4136   -0.5345 H   0  0  0  0  0  0  0  0  0  0  0  0
   -1.4657    1.3130    2.0176 H   0  0  0  0  0  0  0  0  0  0  0  0
   -2.6143    0.2706   -0.9139 H   0  0  0  0  0  0  0  0  0  0  0  0
   -2.2921   -0.1402    0.8067 H   0  0  0  0  0  0  0  0  0  0  0  0
   -0.5690   -0.5167   -1.5730 H   0  0  0  0  0  0  0  0  0  0  0  0
   -1.7202   -2.2926   -0.2323 H   0  0  0  0  0  0  0  0  0  0  0  0
   -0.6623   -1.8934    1.1816 H   0  0  0  0  0  0  0  0  0  0  0  0
    0.0233   -2.5397   -0.4187 H   0  0  0  0  0  0  0  0  0  0  0  0
  1  2  1  0
  2  3  1  0
  3  4  1  0
  4  5  1  0
  5  6  1  0
  5  7  1  0
  7  8  1  0
  8  9  1  0
  8  3  1  0
  1 10  1  0
  1 11  1  0
  1 12  1  0
  2 13  1  0
  2 14  1  0
  3 15  1  0
  4 16  1  0
  4 17  1  0
  5 18  1  0
  6 19  1  0
  7 20  1  0
  7 21  1  0
  8 22  1  0
  9 23  1  0
  9 24  1  0
  9 25  1  0
M  END
