
     RDKit          3D

 19 19  0  0  0  0  0  0  0  0999 V2000
   -1.8651   -0.0432   -1.0722 C   0  0  0  0  0  0  0  0  0  0  0  0
   -1.4860   -0.1542    0.3820 C   0  0  0  0  0  0  0  0  0  0  0  0
   -0.0172   -0.3926    0.5849 C   0  0  0  0  0  0  0  0  0  0  0  0
    0.4158   -0.5071    1.9036 O   0  0  0  0  0  0  0  0  0  0  0  0
    0.7956   -1.1574   -0.3970 C   0  0  0  0  0  0  0  0  0  0  0  0
    0.8995    0.3174   -0.4153 C   0  0  0  0  0  0  0  0  0  0  0  0
    2.0455    1.0321    0.2459 C   0  0  0  0  0  0  0  0  0  0  0  0
   -1.5886   -0.9129   -1.6704 H   0  0  0  0  0  0  0  0  0  0  0  0
   -2.9948    0.0076   -1.0903 H   0  0  0  0  0  0  0  0  0  0  0  0
   -1.5519    0.9331   -1.5243 H   0  0  0  0  0  0  0  0  0  0  0  0
   -2.1199   -0.9250    0.8551 H   0  0  0  0  0  0  0  0  0  0  0  0
   -1.7389    0.8250    0.8556 H   0  0  0  0  0  0  0  0  0  0  0  0
   -0.2448   -0.1522    2.5334 H   0  0  0  0  0  0  0  0  0  0  0  0
    1.6750   -1.7383   -0.0399 H   0  0  0  0  0  0  0  0  0  0  0  0
    0.2414   -1.6660   -1.1911 H   0  0  0  0  0  0  0  0  0  0  0  0
    0.4674    0.8236   -1.2771 H   0  0  0  0  0  0  0  0  0  0  0  0
    1.8649    1.2076    1.3374 H   0  0  0  0  0  0  0  0  0  0  0  0
    2.9986    0.4800    0.1793 H   0  0  0  0  0  0  0  0  0  0  0  0
    2.2035    2.0224   -0.1998 H   0  0  0  0  0  0  0  0  0  0  0  0
  1  2  1  0
  2  3  1  0
  3  4  1  0
  3  5  1  0
  5  6  1  0
  6  7  1  0
  6  3  1  0
  1  8  1  0
  1  9  1  0
  1 10  1  0
  2 11  1  0
  2 12  1  0
  4 13  1  0
  5 14  1  0
  5 15  1  0
  6 16  1  0
  7 17  1  0
  7 18  1  0
  7 19  1  0
M  END
