
     RDKit          3D

 21 22  0  0  0  0  0  0  0  0999 V2000
    2.2645   -0.8711    0.5691 C   0  0  0  0  0  0  0  0  0  0  0  0
    1.1469    0.0450    1.0212 C   0  0  0  0  0  0  0  0  0  0  0  0
    0.3876    0.4945   -0.1761 C   0  0  0  0  0  0  0  0  0  0  0  0
   -0.2625   -0.5576   -1.0174 C   0  0  0  0  0  0  0  0  0  0  0  0
   -1.0969   -1.3045   -0.0340 C   0  0  0  0  0  0  0  0  0  0  0  0
   -1.6137   -0.3108    0.7097 C   0  0  0  0  0  0  0  0  0  0  0  0
   -1.0727    0.8965    0.0928 C   0  0  0  0  0  0  0  0  0  0  0  0
   -1.3379    2.1111    0.5115 O   0  0  0  0  0  0  0  0  0  0  0  0
   -1.2490    0.5612   -1.3990 C   0  0  0  0  0  0  0  0  0  0  0  0
    2.6494   -1.5110    1.3965 H   0  0  0  0  0  0  0  0  0  0  0  0
    1.8311   -1.5068   -0.2465 H   0  0  0  0  0  0  0  0  0  0  0  0
    3.1157   -0.3126    0.1359 H   0  0  0  0  0  0  0  0  0  0  0  0
    1.6031    0.9567    1.4867 H   0  0  0  0  0  0  0  0  0  0  0  0
    0.5610   -0.4583    1.7869 H   0  0  0  0  0  0  0  0  0  0  0  0
    0.9375    1.2266   -0.7995 H   0  0  0  0  0  0  0  0  0  0  0  0
    0.2464   -1.0585   -1.7850 H   0  0  0  0  0  0  0  0  0  0  0  0
   -1.2427   -2.3756    0.0509 H   0  0  0  0  0  0  0  0  0  0  0  0
   -2.2726   -0.3791    1.5620 H   0  0  0  0  0  0  0  0  0  0  0  0
   -1.5457    2.7842   -0.1988 H   0  0  0  0  0  0  0  0  0  0  0  0
   -0.8048    1.3648   -2.0016 H   0  0  0  0  0  0  0  0  0  0  0  0
   -2.2448    0.2052   -1.6657 H   0  0  0  0  0  0  0  0  0  0  0  0
  1  2  1  0
  2  3  1  0
  3  4  1  0
  4  5  1  0
  5  6  2  0
  6  7  1  0
  7  8  1  0
  7  9  1  0
  7  3  1  0
  9  4  1  0
  1 10  1  0
  1 11  1  0
  1 12  1  0
  2 13  1  0
  2 14  1  0
  3 15  1  0
  4 16  1  0
  5 17  1  0
  6 18  1  0
  8 19  1  0
  9 20  1  0
  9 21  1  0
M  END
