
     RDKit          3D

 21 22  0  0  0  0  0  0  0  0999 V2000
    2.7178    0.4625    0.1897 C   0  0  0  0  0  0  0  0  0  0  0  0
    1.6451   -0.5176   -0.1583 C   0  0  0  0  0  0  0  0  0  0  0  0
    0.3805   -0.2851    0.6798 C   0  0  0  0  0  0  0  0  0  0  0  0
   -0.7263   -1.2429    0.3688 C   0  0  0  0  0  0  0  0  0  0  0  0
   -1.5127   -0.1859   -0.3391 C   0  0  0  0  0  0  0  0  0  0  0  0
   -2.9233   -0.0012    0.0355 C   0  0  0  0  0  0  0  0  0  0  0  0
   -3.7731    0.0841   -0.8606 O   0  0  0  0  0  0  0  0  0  0  0  0
   -0.8826    0.8115   -1.2191 C   0  0  0  0  0  0  0  0  0  0  0  0
   -0.4842    0.8405    0.1973 C   0  0  0  0  0  0  0  0  0  0  0  0
    2.3051    1.4118    0.6075 H   0  0  0  0  0  0  0  0  0  0  0  0
    3.3787    0.0458    0.9863 H   0  0  0  0  0  0  0  0  0  0  0  0
    3.3895    0.6951   -0.6666 H   0  0  0  0  0  0  0  0  0  0  0  0
    1.4387   -0.5365   -1.2270 H   0  0  0  0  0  0  0  0  0  0  0  0
    1.9815   -1.5513    0.1218 H   0  0  0  0  0  0  0  0  0  0  0  0
    0.6502   -0.1653    1.7333 H   0  0  0  0  0  0  0  0  0  0  0  0
   -0.4692   -2.1416   -0.2020 H   0  0  0  0  0  0  0  0  0  0  0  0
   -1.2513   -1.5221    1.3271 H   0  0  0  0  0  0  0  0  0  0  0  0
   -3.2962    0.0690    1.0544 H   0  0  0  0  0  0  0  0  0  0  0  0
   -1.5337    1.6387   -1.5574 H   0  0  0  0  0  0  0  0  0  0  0  0
   -0.1350    0.5163   -1.9863 H   0  0  0  0  0  0  0  0  0  0  0  0
   -0.8997    1.5743    0.9148 H   0  0  0  0  0  0  0  0  0  0  0  0
  1  2  1  0
  2  3  1  0
  3  4  1  0
  4  5  1  0
  5  6  1  0
  6  7  2  0
  5  8  1  0
  8  9  1  0
  9  3  1  0
  9  5  1  0
  1 10  1  0
  1 11  1  0
  1 12  1  0
  2 13  1  0
  2 14  1  0
  3 15  1  0
  4 16  1  0
  4 17  1  0
  6 18  1  0
  8 19  1  0
  8 20  1  0
  9 21  1  0
M  END
