
     RDKit          3D

 23 23  0  0  0  0  0  0  0  0999 V2000
    3.5179    0.0985   -0.3590 C   0  0  0  0  0  0  0  0  0  0  0  0
    2.4504   -0.2686    0.6553 C   0  0  0  0  0  0  0  0  0  0  0  0
    1.1307   -0.4982   -0.0773 C   0  0  0  0  0  0  0  0  0  0  0  0
    0.7599    0.7138   -0.7676 O   0  0  0  0  0  0  0  0  0  0  0  0
   -0.0318    0.2373    0.3995 C   0  0  0  0  0  0  0  0  0  0  0  0
   -1.4231   -0.0937   -0.0354 C   0  0  0  0  0  0  0  0  0  0  0  0
   -1.5075   -1.2236   -1.0042 C   0  0  0  0  0  0  0  0  0  0  0  0
   -2.0996    0.9960   -0.5834 O   0  0  0  0  0  0  0  0  0  0  0  0
   -3.2126    1.3383    0.1568 C   0  0  0  0  0  0  0  0  0  0  0  0
    3.5553    1.2140   -0.4924 H   0  0  0  0  0  0  0  0  0  0  0  0
    4.4883   -0.3058   -0.0028 H   0  0  0  0  0  0  0  0  0  0  0  0
    3.2872   -0.3723   -1.3597 H   0  0  0  0  0  0  0  0  0  0  0  0
    2.7740   -1.1528    1.1994 H   0  0  0  0  0  0  0  0  0  0  0  0
    2.3580    0.5969    1.3378 H   0  0  0  0  0  0  0  0  0  0  0  0
    0.9833   -1.4378   -0.6033 H   0  0  0  0  0  0  0  0  0  0  0  0
    0.1022    0.8705    1.2953 H   0  0  0  0  0  0  0  0  0  0  0  0
   -1.9901   -0.3980    0.8832 H   0  0  0  0  0  0  0  0  0  0  0  0
   -1.5583   -2.2259   -0.5196 H   0  0  0  0  0  0  0  0  0  0  0  0
   -0.6836   -1.2353   -1.7587 H   0  0  0  0  0  0  0  0  0  0  0  0
   -2.4462   -1.1608   -1.6272 H   0  0  0  0  0  0  0  0  0  0  0  0
   -2.8949    1.6013    1.1771 H   0  0  0  0  0  0  0  0  0  0  0  0
   -3.6543    2.2428   -0.3155 H   0  0  0  0  0  0  0  0  0  0  0  0
   -3.9051    0.4635    0.1265 H   0  0  0  0  0  0  0  0  0  0  0  0
  1  2  1  0
  2  3  1  0
  3  4  1  0
  4  5  1  0
  5  6  1  0
  6  7  1  0
  6  8  1  0
  8  9  1  0
  5  3  1  0
  1 10  1  0
  1 11  1  0
  1 12  1  0
  2 13  1  0
  2 14  1  0
  3 15  1  0
  5 16  1  0
  6 17  1  0
  7 18  1  0
  7 19  1  0
  7 20  1  0
  9 21  1  0
  9 22  1  0
  9 23  1  0
M  END
