
     RDKit          3D

 23 24  0  0  0  0  0  0  0  0999 V2000
   -0.1549    2.2529    0.2014 C   0  0  0  0  0  0  0  0  0  0  0  0
   -0.6604    1.1624   -0.6531 C   0  0  0  0  0  0  0  0  0  0  0  0
   -0.5089   -0.2391   -0.1436 C   0  0  0  0  0  0  0  0  0  0  0  0
    0.8449   -0.7815    0.1020 C   0  0  0  0  0  0  0  0  0  0  0  0
    1.7381   -0.1261    1.1139 C   0  0  0  0  0  0  0  0  0  0  0  0
    2.1038   -0.1726   -0.3860 C   0  0  0  0  0  0  0  0  0  0  0  0
   -1.4583   -1.1659   -0.8861 C   0  0  0  0  0  0  0  0  0  0  0  0
   -1.5856   -1.7260    0.5003 C   0  0  0  0  0  0  0  0  0  0  0  0
   -1.3068   -0.4778    1.0083 O   0  0  0  0  0  0  0  0  0  0  0  0
   -0.3695    2.1288    1.2845 H   0  0  0  0  0  0  0  0  0  0  0  0
    0.8922    2.4715    0.0186 H   0  0  0  0  0  0  0  0  0  0  0  0
   -0.7435    3.1817   -0.0722 H   0  0  0  0  0  0  0  0  0  0  0  0
   -0.1735    1.2029   -1.6515 H   0  0  0  0  0  0  0  0  0  0  0  0
   -1.7502    1.3554   -0.8766 H   0  0  0  0  0  0  0  0  0  0  0  0
    0.8886   -1.9147    0.0967 H   0  0  0  0  0  0  0  0  0  0  0  0
    1.5458    0.8330    1.5676 H   0  0  0  0  0  0  0  0  0  0  0  0
    2.3742   -0.7852    1.7650 H   0  0  0  0  0  0  0  0  0  0  0  0
    2.1519    0.7647   -0.9531 H   0  0  0  0  0  0  0  0  0  0  0  0
    2.9522   -0.8510   -0.6509 H   0  0  0  0  0  0  0  0  0  0  0  0
   -0.9631   -1.8332   -1.6186 H   0  0  0  0  0  0  0  0  0  0  0  0
   -2.3352   -0.6219   -1.2359 H   0  0  0  0  0  0  0  0  0  0  0  0
   -2.6098   -2.1114    0.7400 H   0  0  0  0  0  0  0  0  0  0  0  0
   -0.8720   -2.5467    0.7293 H   0  0  0  0  0  0  0  0  0  0  0  0
  1  2  1  0
  2  3  1  0
  3  4  1  0
  4  5  1  0
  5  6  1  0
  3  7  1  0
  7  8  1  0
  8  9  1  0
  9  3  1  0
  6  4  1  0
  1 10  1  0
  1 11  1  0
  1 12  1  0
  2 13  1  0
  2 14  1  0
  4 15  1  0
  5 16  1  0
  5 17  1  0
  6 18  1  0
  6 19  1  0
  7 20  1  0
  7 21  1  0
  8 22  1  0
  8 23  1  0
M  END
