
     RDKit          3D

 22 23  0  0  0  0  0  0  0  0999 V2000
    3.0606   -0.2098   -0.3143 C   0  0  0  0  0  0  0  0  0  0  0  0
    1.9982    0.8599   -0.2387 C   0  0  0  0  0  0  0  0  0  0  0  0
    0.6163    0.3132   -0.5318 C   0  0  0  0  0  0  0  0  0  0  0  0
    0.1516   -0.7430    0.3732 C   0  0  0  0  0  0  0  0  0  0  0  0
   -1.1997   -1.3479    0.0264 C   0  0  0  0  0  0  0  0  0  0  0  0
   -1.7702   -0.0129    0.5051 C   0  0  0  0  0  0  0  0  0  0  0  0
   -2.9346    0.4835   -0.2998 C   0  0  0  0  0  0  0  0  0  0  0  0
   -0.4808    0.6810    0.3758 C   0  0  0  0  0  0  0  0  0  0  0  0
    4.0434    0.3188   -0.2610 H   0  0  0  0  0  0  0  0  0  0  0  0
    3.0412   -0.7719   -1.2589 H   0  0  0  0  0  0  0  0  0  0  0  0
    2.9980   -0.8473    0.5829 H   0  0  0  0  0  0  0  0  0  0  0  0
    1.9887    1.2261    0.8089 H   0  0  0  0  0  0  0  0  0  0  0  0
    2.2828    1.6827   -0.9248 H   0  0  0  0  0  0  0  0  0  0  0  0
    0.3394    0.1957   -1.6063 H   0  0  0  0  0  0  0  0  0  0  0  0
    0.6398   -1.0067    1.3089 H   0  0  0  0  0  0  0  0  0  0  0  0
   -1.2890   -1.5137   -1.0636 H   0  0  0  0  0  0  0  0  0  0  0  0
   -1.4052   -2.2031    0.6716 H   0  0  0  0  0  0  0  0  0  0  0  0
   -2.0810   -0.1446    1.5695 H   0  0  0  0  0  0  0  0  0  0  0  0
   -3.8959    0.3728    0.2550 H   0  0  0  0  0  0  0  0  0  0  0  0
   -2.8646    1.5372   -0.5979 H   0  0  0  0  0  0  0  0  0  0  0  0
   -3.0403   -0.2030   -1.1869 H   0  0  0  0  0  0  0  0  0  0  0  0
   -0.1987    1.3330    1.2369 H   0  0  0  0  0  0  0  0  0  0  0  0
  1  2  1  0
  2  3  1  0
  3  4  1  0
  4  5  1  0
  5  6  1  0
  6  7  1  0
  6  8  1  0
  8  3  1  0
  8  4  1  0
  1  9  1  0
  1 10  1  0
  1 11  1  0
  2 12  1  0
  2 13  1  0
  3 14  1  0
  4 15  1  0
  5 16  1  0
  5 17  1  0
  6 18  1  0
  7 19  1  0
  7 20  1  0
  7 21  1  0
  8 22  1  0
M  END
