
     RDKit          3D

 21 21  0  0  0  0  0  0  0  0999 V2000
   -2.4886    0.3423   -0.5636 C   0  0  0  0  0  0  0  0  0  0  0  0
   -1.6185   -0.0327    0.6173 C   0  0  0  0  0  0  0  0  0  0  0  0
   -0.1906    0.2302    0.2137 C   0  0  0  0  0  0  0  0  0  0  0  0
    0.1485   -0.6106   -0.9890 C   0  0  0  0  0  0  0  0  0  0  0  0
    1.4112   -0.4439   -1.4708 O   0  0  0  0  0  0  0  0  0  0  0  0
    2.3002    0.2388   -0.6858 C   0  0  0  0  0  0  0  0  0  0  0  0
    2.1217    0.0568    0.7639 C   0  0  0  0  0  0  0  0  0  0  0  0
    3.0840    0.1297    1.4845 O   0  0  0  0  0  0  0  0  0  0  0  0
    0.7807   -0.2105    1.3188 C   0  0  0  0  0  0  0  0  0  0  0  0
   -3.3997    0.8737   -0.2160 H   0  0  0  0  0  0  0  0  0  0  0  0
   -1.9543    1.0435   -1.2297 H   0  0  0  0  0  0  0  0  0  0  0  0
   -2.8431   -0.5488   -1.1261 H   0  0  0  0  0  0  0  0  0  0  0  0
   -1.7882   -1.0397    0.9926 H   0  0  0  0  0  0  0  0  0  0  0  0
   -1.8629    0.6775    1.4328 H   0  0  0  0  0  0  0  0  0  0  0  0
    0.0193    1.2855    0.0256 H   0  0  0  0  0  0  0  0  0  0  0  0
    0.0671   -1.6839   -0.6412 H   0  0  0  0  0  0  0  0  0  0  0  0
   -0.6451   -0.5298   -1.7774 H   0  0  0  0  0  0  0  0  0  0  0  0
    2.3722    1.3218   -0.9587 H   0  0  0  0  0  0  0  0  0  0  0  0
    3.3230   -0.1689   -0.9430 H   0  0  0  0  0  0  0  0  0  0  0  0
    0.5925   -1.2924    1.5082 H   0  0  0  0  0  0  0  0  0  0  0  0
    0.5705    0.3614    2.2441 H   0  0  0  0  0  0  0  0  0  0  0  0
  1  2  1  0
  2  3  1  0
  3  4  1  0
  4  5  1  0
  5  6  1  0
  6  7  1  0
  7  8  2  0
  7  9  1  0
  9  3  1  0
  1 10  1  0
  1 11  1  0
  1 12  1  0
  2 13  1  0
  2 14  1  0
  3 15  1  0
  4 16  1  0
  4 17  1  0
  6 18  1  0
  6 19  1  0
  9 20  1  0
  9 21  1  0
M  END
