
     RDKit          3D

 21 22  0  0  0  0  0  0  0  0999 V2000
    2.4445    0.1034   -0.9769 C   0  0  0  0  0  0  0  0  0  0  0  0
    2.0224    0.0798    0.4603 C   0  0  0  0  0  0  0  0  0  0  0  0
    0.5891   -0.0470    0.7067 C   0  0  0  0  0  0  0  0  0  0  0  0
   -0.2490   -1.1941    0.2554 C   0  0  0  0  0  0  0  0  0  0  0  0
   -1.4628   -0.2812    0.4783 C   0  0  0  0  0  0  0  0  0  0  0  0
   -2.1983    0.0427   -0.7865 C   0  0  0  0  0  0  0  0  0  0  0  0
   -3.2697    0.8670   -0.4769 O   0  0  0  0  0  0  0  0  0  0  0  0
   -0.4515    0.7851    0.9179 C   0  0  0  0  0  0  0  0  0  0  0  0
    0.2483    0.4108    2.0534 O   0  0  0  0  0  0  0  0  0  0  0  0
    3.2450    0.8623   -1.1525 H   0  0  0  0  0  0  0  0  0  0  0  0
    2.9196   -0.8765   -1.2718 H   0  0  0  0  0  0  0  0  0  0  0  0
    1.6344    0.3193   -1.6846 H   0  0  0  0  0  0  0  0  0  0  0  0
    2.5575   -0.7831    0.9518 H   0  0  0  0  0  0  0  0  0  0  0  0
    2.4070    1.0018    0.9361 H   0  0  0  0  0  0  0  0  0  0  0  0
   -0.0728   -1.4176   -0.8082 H   0  0  0  0  0  0  0  0  0  0  0  0
   -0.1829   -2.0350    0.9636 H   0  0  0  0  0  0  0  0  0  0  0  0
   -2.1260   -0.5812    1.2868 H   0  0  0  0  0  0  0  0  0  0  0  0
   -1.5647    0.5196   -1.5439 H   0  0  0  0  0  0  0  0  0  0  0  0
   -2.6214   -0.9016   -1.1808 H   0  0  0  0  0  0  0  0  0  0  0  0
   -3.1815    1.2903    0.4111 H   0  0  0  0  0  0  0  0  0  0  0  0
   -0.6871    1.8352    0.7899 H   0  0  0  0  0  0  0  0  0  0  0  0
  1  2  1  0
  2  3  1  0
  3  4  1  0
  4  5  1  0
  5  6  1  0
  6  7  1  0
  5  8  1  0
  8  9  1  0
  8  3  1  0
  9  3  1  0
  1 10  1  0
  1 11  1  0
  1 12  1  0
  2 13  1  0
  2 14  1  0
  4 15  1  0
  4 16  1  0
  5 17  1  0
  6 18  1  0
  6 19  1  0
  7 20  1  0
  8 21  1  0
M  END
