
     RDKit          3D

 19 19  0  0  0  0  0  0  0  0999 V2000
   -2.7166   -0.7418    0.1228 C   0  0  0  0  0  0  0  0  0  0  0  0
   -1.2206   -0.8661    0.1830 C   0  0  0  0  0  0  0  0  0  0  0  0
   -0.5900    0.3585   -0.4401 C   0  0  0  0  0  0  0  0  0  0  0  0
   -0.9233    1.5795    0.1850 O   0  0  0  0  0  0  0  0  0  0  0  0
    0.3681    2.0113   -0.0887 C   0  0  0  0  0  0  0  0  0  0  0  0
    0.9882    3.0723   -0.3560 O   0  0  0  0  0  0  0  0  0  0  0  0
    0.8146    0.6023    0.0648 C   0  0  0  0  0  0  0  0  0  0  0  0
    1.8222    0.2127   -0.8087 O   0  0  0  0  0  0  0  0  0  0  0  0
    2.8162   -0.4118   -0.0576 C   0  0  0  0  0  0  0  0  0  0  0  0
   -2.9934   -0.1500   -0.7693 H   0  0  0  0  0  0  0  0  0  0  0  0
   -3.1362   -1.7702    0.1038 H   0  0  0  0  0  0  0  0  0  0  0  0
   -3.0373   -0.1852    1.0493 H   0  0  0  0  0  0  0  0  0  0  0  0
   -0.9145   -1.0203    1.2167 H   0  0  0  0  0  0  0  0  0  0  0  0
   -0.8742   -1.7462   -0.3987 H   0  0  0  0  0  0  0  0  0  0  0  0
   -0.6689    0.4309   -1.5242 H   0  0  0  0  0  0  0  0  0  0  0  0
    0.9656    0.3677    1.1182 H   0  0  0  0  0  0  0  0  0  0  0  0
    3.2435    0.2827    0.7204 H   0  0  0  0  0  0  0  0  0  0  0  0
    2.4466   -1.3193    0.4650 H   0  0  0  0  0  0  0  0  0  0  0  0
    3.6101   -0.7069   -0.7858 H   0  0  0  0  0  0  0  0  0  0  0  0
  1  2  1  0
  2  3  1  0
  3  4  1  0
  4  5  1  0
  5  6  2  0
  5  7  1  0
  7  8  1  0
  8  9  1  0
  7  3  1  0
  1 10  1  0
  1 11  1  0
  1 12  1  0
  2 13  1  0
  2 14  1  0
  3 15  1  0
  7 16  1  0
  9 17  1  0
  9 18  1  0
  9 19  1  0
M  END
