
     RDKit          3D

 25 25  0  0  0  0  0  0  0  0999 V2000
   -2.2047    0.4807   -0.8147 C   0  0  0  0  0  0  0  0  0  0  0  0
   -1.9251   -0.4719    0.3043 C   0  0  0  0  0  0  0  0  0  0  0  0
   -0.4649   -0.5588    0.6591 C   0  0  0  0  0  0  0  0  0  0  0  0
    0.1220    0.7363    1.0936 C   0  0  0  0  0  0  0  0  0  0  0  0
    1.1390    1.0074   -0.0242 C   0  0  0  0  0  0  0  0  0  0  0  0
    2.1908    1.9713    0.4133 C   0  0  0  0  0  0  0  0  0  0  0  0
    1.6079   -0.2699   -0.2746 O   0  0  0  0  0  0  0  0  0  0  0  0
    0.3983   -0.9725   -0.4858 C   0  0  0  0  0  0  0  0  0  0  0  0
    0.7477   -2.4386   -0.4744 C   0  0  0  0  0  0  0  0  0  0  0  0
   -1.7961    1.4969   -0.6352 H   0  0  0  0  0  0  0  0  0  0  0  0
   -1.9314    0.0837   -1.8106 H   0  0  0  0  0  0  0  0  0  0  0  0
   -3.3230    0.6186   -0.8486 H   0  0  0  0  0  0  0  0  0  0  0  0
   -2.3487   -1.4555    0.0256 H   0  0  0  0  0  0  0  0  0  0  0  0
   -2.4878   -0.1177    1.1931 H   0  0  0  0  0  0  0  0  0  0  0  0
   -0.3441   -1.3004    1.4713 H   0  0  0  0  0  0  0  0  0  0  0  0
   -0.5541    1.5877    1.1074 H   0  0  0  0  0  0  0  0  0  0  0  0
    0.7100    0.6662    2.0306 H   0  0  0  0  0  0  0  0  0  0  0  0
    0.5813    1.3371   -0.9232 H   0  0  0  0  0  0  0  0  0  0  0  0
    3.1702    1.4648    0.3913 H   0  0  0  0  0  0  0  0  0  0  0  0
    1.9620    2.4215    1.4154 H   0  0  0  0  0  0  0  0  0  0  0  0
    2.1647    2.8371   -0.3050 H   0  0  0  0  0  0  0  0  0  0  0  0
   -0.0724   -0.7041   -1.4305 H   0  0  0  0  0  0  0  0  0  0  0  0
    0.9491   -2.7351   -1.5247 H   0  0  0  0  0  0  0  0  0  0  0  0
   -0.0082   -3.0688    0.0156 H   0  0  0  0  0  0  0  0  0  0  0  0
    1.7174   -2.6159    0.0714 H   0  0  0  0  0  0  0  0  0  0  0  0
  1  2  1  0
  2  3  1  0
  3  4  1  0
  4  5  1  0
  5  6  1  0
  5  7  1  0
  7  8  1  0
  8  9  1  0
  8  3  1  0
  1 10  1  0
  1 11  1  0
  1 12  1  0
  2 13  1  0
  2 14  1  0
  3 15  1  0
  4 16  1  0
  4 17  1  0
  5 18  1  0
  6 19  1  0
  6 20  1  0
  6 21  1  0
  8 22  1  0
  9 23  1  0
  9 24  1  0
  9 25  1  0
M  END
