
     RDKit          3D

 25 25  0  0  0  0  0  0  0  0999 V2000
    2.0117   -1.2413    0.3050 C   0  0  0  0  0  0  0  0  0  0  0  0
    1.6090    0.1788    0.0356 C   0  0  0  0  0  0  0  0  0  0  0  0
    0.2938    0.2922   -0.7275 C   0  0  0  0  0  0  0  0  0  0  0  0
    0.0495    1.7714   -0.9134 C   0  0  0  0  0  0  0  0  0  0  0  0
   -1.0858    2.0267    0.0303 C   0  0  0  0  0  0  0  0  0  0  0  0
   -1.8155    0.8509    0.0812 O   0  0  0  0  0  0  0  0  0  0  0  0
   -0.8902   -0.1893    0.0151 C   0  0  0  0  0  0  0  0  0  0  0  0
   -0.6087   -0.7453    1.3951 C   0  0  0  0  0  0  0  0  0  0  0  0
   -1.6157   -1.3195   -0.7349 C   0  0  0  0  0  0  0  0  0  0  0  0
    1.3955   -1.9338   -0.3103 H   0  0  0  0  0  0  0  0  0  0  0  0
    3.0788   -1.4482   -0.0070 H   0  0  0  0  0  0  0  0  0  0  0  0
    1.9943   -1.4958    1.3828 H   0  0  0  0  0  0  0  0  0  0  0  0
    2.4438    0.6266   -0.5810 H   0  0  0  0  0  0  0  0  0  0  0  0
    1.5678    0.7808    0.9498 H   0  0  0  0  0  0  0  0  0  0  0  0
    0.3940   -0.2224   -1.7314 H   0  0  0  0  0  0  0  0  0  0  0  0
   -0.1978    2.0226   -1.9660 H   0  0  0  0  0  0  0  0  0  0  0  0
    0.9233    2.3984   -0.6239 H   0  0  0  0  0  0  0  0  0  0  0  0
   -1.6641    2.8898   -0.3059 H   0  0  0  0  0  0  0  0  0  0  0  0
   -0.6435    2.2326    1.0336 H   0  0  0  0  0  0  0  0  0  0  0  0
   -1.5676   -0.7349    2.0006 H   0  0  0  0  0  0  0  0  0  0  0  0
   -0.3749   -1.8205    1.2888 H   0  0  0  0  0  0  0  0  0  0  0  0
    0.1037   -0.1597    1.9758 H   0  0  0  0  0  0  0  0  0  0  0  0
   -1.0421   -2.2666   -0.6185 H   0  0  0  0  0  0  0  0  0  0  0  0
   -2.5754   -1.4550   -0.1964 H   0  0  0  0  0  0  0  0  0  0  0  0
   -1.7838   -1.0386   -1.7775 H   0  0  0  0  0  0  0  0  0  0  0  0
  1  2  1  0
  2  3  1  0
  3  4  1  0
  4  5  1  0
  5  6  1  0
  6  7  1  0
  7  8  1  0
  7  9  1  0
  7  3  1  0
  1 10  1  0
  1 11  1  0
  1 12  1  0
  2 13  1  0
  2 14  1  0
  3 15  1  0
  4 16  1  0
  4 17  1  0
  5 18  1  0
  5 19  1  0
  8 20  1  0
  8 21  1  0
  8 22  1  0
  9 23  1  0
  9 24  1  0
  9 25  1  0
M  END
