
     RDKit          3D

 23 23  0  0  0  0  0  0  0  0999 V2000
   -2.7033   -0.8763   -0.0526 C   0  0  0  0  0  0  0  0  0  0  0  0
   -1.8630    0.3734   -0.1367 C   0  0  0  0  0  0  0  0  0  0  0  0
   -0.4316    0.0698    0.1830 C   0  0  0  0  0  0  0  0  0  0  0  0
   -0.0359   -1.1603    0.4893 C   0  0  0  0  0  0  0  0  0  0  0  0
    1.4511   -1.1795    0.7632 C   0  0  0  0  0  0  0  0  0  0  0  0
    1.9390   -2.3438    0.2067 O   0  0  0  0  0  0  0  0  0  0  0  0
    1.8783    0.0303   -0.0910 C   0  0  0  0  0  0  0  0  0  0  0  0
    0.7280    0.9483    0.2415 C   0  0  0  0  0  0  0  0  0  0  0  0
    0.6709    2.1449   -0.6579 C   0  0  0  0  0  0  0  0  0  0  0  0
   -2.4906   -1.5933   -0.8553 H   0  0  0  0  0  0  0  0  0  0  0  0
   -2.5358   -1.3978    0.9154 H   0  0  0  0  0  0  0  0  0  0  0  0
   -3.7782   -0.5464   -0.1172 H   0  0  0  0  0  0  0  0  0  0  0  0
   -1.9402    0.7284   -1.2056 H   0  0  0  0  0  0  0  0  0  0  0  0
   -2.2756    1.1804    0.4744 H   0  0  0  0  0  0  0  0  0  0  0  0
   -0.6449   -2.0699    0.5524 H   0  0  0  0  0  0  0  0  0  0  0  0
    1.6809   -1.0336    1.8213 H   0  0  0  0  0  0  0  0  0  0  0  0
    2.7377   -2.1612   -0.3396 H   0  0  0  0  0  0  0  0  0  0  0  0
    2.8531    0.4121    0.2089 H   0  0  0  0  0  0  0  0  0  0  0  0
    1.7961   -0.2532   -1.1465 H   0  0  0  0  0  0  0  0  0  0  0  0
    0.8744    1.2904    1.2944 H   0  0  0  0  0  0  0  0  0  0  0  0
    0.2350    1.9508   -1.6398 H   0  0  0  0  0  0  0  0  0  0  0  0
    0.1372    2.9741   -0.1249 H   0  0  0  0  0  0  0  0  0  0  0  0
    1.7176    2.5125   -0.7834 H   0  0  0  0  0  0  0  0  0  0  0  0
  1  2  1  0
  2  3  1  0
  3  4  2  0
  4  5  1  0
  5  6  1  0
  5  7  1  0
  7  8  1  0
  8  9  1  0
  8  3  1  0
  1 10  1  0
  1 11  1  0
  1 12  1  0
  2 13  1  0
  2 14  1  0
  4 15  1  0
  5 16  1  0
  6 17  1  0
  7 18  1  0
  7 19  1  0
  8 20  1  0
  9 21  1  0
  9 22  1  0
  9 23  1  0
M  END
