
     RDKit          3D

 27 27  0  0  0  0  0  0  0  0999 V2000
    3.0191    0.0670   -0.8461 C   0  0  0  0  0  0  0  0  0  0  0  0
    2.0740   -0.0969    0.3378 C   0  0  0  0  0  0  0  0  0  0  0  0
    0.7732    0.5556   -0.0455 C   0  0  0  0  0  0  0  0  0  0  0  0
   -0.3146    0.5044    1.0034 C   0  0  0  0  0  0  0  0  0  0  0  0
   -1.3001    0.3428   -0.1615 C   0  0  0  0  0  0  0  0  0  0  0  0
   -1.7451    1.6721   -0.6786 C   0  0  0  0  0  0  0  0  0  0  0  0
   -2.4323   -0.5842    0.1079 C   0  0  0  0  0  0  0  0  0  0  0  0
   -0.1273   -0.2769   -0.9273 C   0  0  0  0  0  0  0  0  0  0  0  0
   -0.0922   -1.7555   -0.6606 C   0  0  0  0  0  0  0  0  0  0  0  0
    2.4368    0.2496   -1.7726 H   0  0  0  0  0  0  0  0  0  0  0  0
    3.6381   -0.8486   -0.9386 H   0  0  0  0  0  0  0  0  0  0  0  0
    3.6868    0.9516   -0.7098 H   0  0  0  0  0  0  0  0  0  0  0  0
    1.9720   -1.1677    0.5527 H   0  0  0  0  0  0  0  0  0  0  0  0
    2.5045    0.4860    1.1766 H   0  0  0  0  0  0  0  0  0  0  0  0
    0.8713    1.5777   -0.4617 H   0  0  0  0  0  0  0  0  0  0  0  0
   -0.4118    1.4551    1.5475 H   0  0  0  0  0  0  0  0  0  0  0  0
   -0.3008   -0.4044    1.6335 H   0  0  0  0  0  0  0  0  0  0  0  0
   -2.7581    1.6877   -1.0937 H   0  0  0  0  0  0  0  0  0  0  0  0
   -1.0645    2.0969   -1.4411 H   0  0  0  0  0  0  0  0  0  0  0  0
   -1.7299    2.3879    0.1929 H   0  0  0  0  0  0  0  0  0  0  0  0
   -2.2589   -1.2280    0.9768 H   0  0  0  0  0  0  0  0  0  0  0  0
   -3.3592    0.0299    0.2550 H   0  0  0  0  0  0  0  0  0  0  0  0
   -2.6365   -1.1715   -0.8294 H   0  0  0  0  0  0  0  0  0  0  0  0
   -0.1103   -0.0605   -1.9922 H   0  0  0  0  0  0  0  0  0  0  0  0
   -0.3572   -2.0200    0.3692 H   0  0  0  0  0  0  0  0  0  0  0  0
   -0.8541   -2.2236   -1.3215 H   0  0  0  0  0  0  0  0  0  0  0  0
    0.8772   -2.2264   -0.9110 H   0  0  0  0  0  0  0  0  0  0  0  0
  1  2  1  0
  2  3  1  0
  3  4  1  0
  4  5  1  0
  5  6  1  0
  5  7  1  0
  5  8  1  0
  8  9  1  0
  8  3  1  0
  1 10  1  0
  1 11  1  0
  1 12  1  0
  2 13  1  0
  2 14  1  0
  3 15  1  0
  4 16  1  0
  4 17  1  0
  6 18  1  0
  6 19  1  0
  6 20  1  0
  7 21  1  0
  7 22  1  0
  7 23  1  0
  8 24  1  0
  9 25  1  0
  9 26  1  0
  9 27  1  0
M  END
