
     RDKit          3D

 17 17  0  0  0  0  0  0  0  0999 V2000
    1.5991   -0.9957   -0.3241 C   0  0  0  0  0  0  0  0  0  0  0  0
    0.9857    0.3572   -0.4621 C   0  0  0  0  0  0  0  0  0  0  0  0
   -0.3826    0.4499    0.1558 C   0  0  0  0  0  0  0  0  0  0  0  0
   -1.0337    1.7701    0.0460 C   0  0  0  0  0  0  0  0  0  0  0  0
   -1.5170    2.3330    1.0077 O   0  0  0  0  0  0  0  0  0  0  0  0
   -1.3125   -0.6483   -0.3551 C   0  0  0  0  0  0  0  0  0  0  0  0
   -1.8701   -0.5768    0.9652 O   0  0  0  0  0  0  0  0  0  0  0  0
   -0.5930   -0.2691    1.4066 C   0  0  0  0  0  0  0  0  0  0  0  0
    0.0037   -0.5568    2.4676 O   0  0  0  0  0  0  0  0  0  0  0  0
    1.4854   -1.3842    0.7004 H   0  0  0  0  0  0  0  0  0  0  0  0
    2.7098   -0.8717   -0.4800 H   0  0  0  0  0  0  0  0  0  0  0  0
    1.1972   -1.7015   -1.0978 H   0  0  0  0  0  0  0  0  0  0  0  0
    0.9326    0.6675   -1.5264 H   0  0  0  0  0  0  0  0  0  0  0  0
    1.6309    1.0928    0.0674 H   0  0  0  0  0  0  0  0  0  0  0  0
   -1.0923    2.2689   -0.9146 H   0  0  0  0  0  0  0  0  0  0  0  0
   -0.7541   -1.5909   -0.5045 H   0  0  0  0  0  0  0  0  0  0  0  0
   -1.9892   -0.3446   -1.1521 H   0  0  0  0  0  0  0  0  0  0  0  0
  1  2  1  0
  2  3  1  0
  3  4  1  0
  4  5  2  0
  3  6  1  0
  6  7  1  0
  7  8  1  0
  8  9  2  0
  8  3  1  0
  1 10  1  0
  1 11  1  0
  1 12  1  0
  2 13  1  0
  2 14  1  0
  4 15  1  0
  6 16  1  0
  6 17  1  0
M  END
