
     RDKit          3D

 21 21  0  0  0  0  0  0  0  0999 V2000
   -2.8266    0.2903   -0.4584 C   0  0  0  0  0  0  0  0  0  0  0  0
   -1.7225   -0.0036    0.5681 C   0  0  0  0  0  0  0  0  0  0  0  0
   -0.5001   -0.3005   -0.2708 C   0  0  0  0  0  0  0  0  0  0  0  0
   -0.6704   -1.3967   -1.1301 O   0  0  0  0  0  0  0  0  0  0  0  0
    0.0678    0.9694   -0.9397 C   0  0  0  0  0  0  0  0  0  0  0  0
    0.8352    0.1513    0.0851 C   0  0  0  0  0  0  0  0  0  0  0  0
    2.0188   -0.5781   -0.4875 C   0  0  0  0  0  0  0  0  0  0  0  0
    3.2506    0.0795    0.0300 C   0  0  0  0  0  0  0  0  0  0  0  0
    4.3567   -0.3232   -0.2859 O   0  0  0  0  0  0  0  0  0  0  0  0
   -3.7326    0.6777    0.0108 H   0  0  0  0  0  0  0  0  0  0  0  0
   -2.9662   -0.6281   -1.0524 H   0  0  0  0  0  0  0  0  0  0  0  0
   -2.3839    1.1089   -1.0993 H   0  0  0  0  0  0  0  0  0  0  0  0
   -2.0055   -0.8438    1.2240 H   0  0  0  0  0  0  0  0  0  0  0  0
   -1.5699    0.9488    1.1257 H   0  0  0  0  0  0  0  0  0  0  0  0
   -0.5107   -2.2484   -0.6165 H   0  0  0  0  0  0  0  0  0  0  0  0
   -0.2550    1.9416   -0.5687 H   0  0  0  0  0  0  0  0  0  0  0  0
    0.3420    0.8729   -2.0098 H   0  0  0  0  0  0  0  0  0  0  0  0
    1.0039    0.5675    1.0922 H   0  0  0  0  0  0  0  0  0  0  0  0
    2.0403   -1.6443   -0.1335 H   0  0  0  0  0  0  0  0  0  0  0  0
    2.0033   -0.5796   -1.6095 H   0  0  0  0  0  0  0  0  0  0  0  0
    3.2247    0.9383    0.7050 H   0  0  0  0  0  0  0  0  0  0  0  0
  1  2  1  0
  2  3  1  0
  3  4  1  0
  3  5  1  0
  5  6  1  0
  6  7  1  0
  7  8  1  0
  8  9  2  0
  6  3  1  0
  1 10  1  0
  1 11  1  0
  1 12  1  0
  2 13  1  0
  2 14  1  0
  4 15  1  0
  5 16  1  0
  5 17  1  0
  6 18  1  0
  7 19  1  0
  7 20  1  0
  8 21  1  0
M  END
