
     RDKit          3D

 23 24  0  0  0  0  0  0  0  0999 V2000
    2.2972   -0.2807    0.6746 C   0  0  0  0  0  0  0  0  0  0  0  0
    1.4190   -1.0081   -0.2475 C   0  0  0  0  0  0  0  0  0  0  0  0
    0.0375   -0.5740   -0.5222 C   0  0  0  0  0  0  0  0  0  0  0  0
   -0.0908    0.7694   -1.0959 C   0  0  0  0  0  0  0  0  0  0  0  0
   -0.0354    1.6249    0.1676 C   0  0  0  0  0  0  0  0  0  0  0  0
   -0.1761    0.6475    1.1844 O   0  0  0  0  0  0  0  0  0  0  0  0
   -1.0045   -0.2391    0.5867 C   0  0  0  0  0  0  0  0  0  0  0  0
   -2.3196    0.3988    0.2423 C   0  0  0  0  0  0  0  0  0  0  0  0
   -0.9041   -1.5210    0.0012 C   0  0  0  0  0  0  0  0  0  0  0  0
    1.9104   -0.2147    1.6986 H   0  0  0  0  0  0  0  0  0  0  0  0
    3.2299   -0.9241    0.8008 H   0  0  0  0  0  0  0  0  0  0  0  0
    2.7378    0.6575    0.2811 H   0  0  0  0  0  0  0  0  0  0  0  0
    1.5484   -2.1098   -0.0146 H   0  0  0  0  0  0  0  0  0  0  0  0
    1.9267   -0.9475   -1.2664 H   0  0  0  0  0  0  0  0  0  0  0  0
   -0.9908    0.9447   -1.7042 H   0  0  0  0  0  0  0  0  0  0  0  0
    0.7619    1.0112   -1.7734 H   0  0  0  0  0  0  0  0  0  0  0  0
    0.9231    2.1803    0.2592 H   0  0  0  0  0  0  0  0  0  0  0  0
   -0.7902    2.4082    0.1942 H   0  0  0  0  0  0  0  0  0  0  0  0
   -2.5002    1.4129    0.5271 H   0  0  0  0  0  0  0  0  0  0  0  0
   -3.0774   -0.2109    0.8327 H   0  0  0  0  0  0  0  0  0  0  0  0
   -2.6569    0.2591   -0.8007 H   0  0  0  0  0  0  0  0  0  0  0  0
   -0.6347   -2.3476    0.7199 H   0  0  0  0  0  0  0  0  0  0  0  0
   -1.6111   -1.9370   -0.7455 H   0  0  0  0  0  0  0  0  0  0  0  0
  1  2  1  0
  2  3  1  0
  3  4  1  0
  4  5  1  0
  5  6  1  0
  6  7  1  0
  7  8  1  0
  7  9  1  0
  7  3  1  0
  9  3  1  0
  1 10  1  0
  1 11  1  0
  1 12  1  0
  2 13  1  0
  2 14  1  0
  4 15  1  0
  4 16  1  0
  5 17  1  0
  5 18  1  0
  8 19  1  0
  8 20  1  0
  8 21  1  0
  9 22  1  0
  9 23  1  0
M  END
