
     RDKit          3D

 18 18  0  0  0  0  0  0  0  0999 V2000
   -2.1791   -0.3109   -0.1926 C   0  0  0  0  0  0  0  0  0  0  0  0
   -0.9595    0.4974   -0.5655 C   0  0  0  0  0  0  0  0  0  0  0  0
    0.0380    0.4534    0.5680 C   0  0  0  0  0  0  0  0  0  0  0  0
    1.2958    1.2446    0.2700 C   0  0  0  0  0  0  0  0  0  0  0  0
    1.8139    0.0217   -0.4001 C   0  0  0  0  0  0  0  0  0  0  0  0
    2.5930   -0.1535   -1.3132 O   0  0  0  0  0  0  0  0  0  0  0  0
    0.9609   -0.7470    0.5451 C   0  0  0  0  0  0  0  0  0  0  0  0
    0.4198   -1.9107    0.0439 O   0  0  0  0  0  0  0  0  0  0  0  0
   -1.9873   -1.3895   -0.4153 H   0  0  0  0  0  0  0  0  0  0  0  0
   -2.4142   -0.1496    0.8804 H   0  0  0  0  0  0  0  0  0  0  0  0
   -3.0246   -0.0103   -0.8615 H   0  0  0  0  0  0  0  0  0  0  0  0
   -0.5513    0.0464   -1.4976 H   0  0  0  0  0  0  0  0  0  0  0  0
   -1.2831    1.5451   -0.7054 H   0  0  0  0  0  0  0  0  0  0  0  0
   -0.4273    0.6345    1.5360 H   0  0  0  0  0  0  0  0  0  0  0  0
    1.8532    1.4019    1.2154 H   0  0  0  0  0  0  0  0  0  0  0  0
    1.1630    2.1201   -0.3676 H   0  0  0  0  0  0  0  0  0  0  0  0
    1.4840   -0.8251    1.5223 H   0  0  0  0  0  0  0  0  0  0  0  0
    1.2049   -2.4686   -0.2623 H   0  0  0  0  0  0  0  0  0  0  0  0
  1  2  1  0
  2  3  1  0
  3  4  1  0
  4  5  1  0
  5  6  2  0
  5  7  1  0
  7  8  1  0
  7  3  1  0
  1  9  1  0
  1 10  1  0
  1 11  1  0
  2 12  1  0
  2 13  1  0
  3 14  1  0
  4 15  1  0
  4 16  1  0
  7 17  1  0
  8 18  1  0
M  END
