
     RDKit          3D

 25 25  0  0  0  0  0  0  0  0999 V2000
    2.8643    0.3748    0.0696 C   0  0  0  0  0  0  0  0  0  0  0  0
    1.7541   -0.6018   -0.0065 C   0  0  0  0  0  0  0  0  0  0  0  0
    0.4991   -0.0783   -0.6554 C   0  0  0  0  0  0  0  0  0  0  0  0
   -0.4827   -1.2611   -0.6134 C   0  0  0  0  0  0  0  0  0  0  0  0
   -1.7944   -0.5574   -0.5539 C   0  0  0  0  0  0  0  0  0  0  0  0
   -2.8213   -1.3893    0.1517 C   0  0  0  0  0  0  0  0  0  0  0  0
   -1.4735    0.6950    0.1441 C   0  0  0  0  0  0  0  0  0  0  0  0
   -0.1762    0.9842    0.0976 C   0  0  0  0  0  0  0  0  0  0  0  0
    0.3997    2.2003    0.7300 C   0  0  0  0  0  0  0  0  0  0  0  0
    3.7561   -0.0515   -0.4324 H   0  0  0  0  0  0  0  0  0  0  0  0
    2.6488    1.3286   -0.4644 H   0  0  0  0  0  0  0  0  0  0  0  0
    3.1852    0.5622    1.1241 H   0  0  0  0  0  0  0  0  0  0  0  0
    2.0711   -1.4862   -0.5935 H   0  0  0  0  0  0  0  0  0  0  0  0
    1.5425   -0.9771    1.0168 H   0  0  0  0  0  0  0  0  0  0  0  0
    0.6998    0.2026   -1.7084 H   0  0  0  0  0  0  0  0  0  0  0  0
   -0.3373   -1.7798    0.3757 H   0  0  0  0  0  0  0  0  0  0  0  0
   -0.3445   -1.9354   -1.4591 H   0  0  0  0  0  0  0  0  0  0  0  0
   -2.1263   -0.3587   -1.6087 H   0  0  0  0  0  0  0  0  0  0  0  0
   -2.3401   -2.1497    0.7862 H   0  0  0  0  0  0  0  0  0  0  0  0
   -3.4859   -1.8562   -0.6124 H   0  0  0  0  0  0  0  0  0  0  0  0
   -3.4788   -0.7930    0.8286 H   0  0  0  0  0  0  0  0  0  0  0  0
   -2.2480    1.3055    0.6424 H   0  0  0  0  0  0  0  0  0  0  0  0
    1.2616    1.9696    1.3846 H   0  0  0  0  0  0  0  0  0  0  0  0
    0.7666    2.9338   -0.0173 H   0  0  0  0  0  0  0  0  0  0  0  0
   -0.3398    2.7188    1.3741 H   0  0  0  0  0  0  0  0  0  0  0  0
  1  2  1  0
  2  3  1  0
  3  4  1  0
  4  5  1  0
  5  6  1  0
  5  7  1  0
  7  8  2  0
  8  9  1  0
  8  3  1  0
  1 10  1  0
  1 11  1  0
  1 12  1  0
  2 13  1  0
  2 14  1  0
  3 15  1  0
  4 16  1  0
  4 17  1  0
  5 18  1  0
  6 19  1  0
  6 20  1  0
  6 21  1  0
  7 22  1  0
  9 23  1  0
  9 24  1  0
  9 25  1  0
M  END
