
     RDKit          3D

 19 19  0  0  0  0  0  0  0  0999 V2000
   -2.0406   -0.4469   -0.7216 C   0  0  0  0  0  0  0  0  0  0  0  0
   -0.9755    0.5458   -0.4148 C   0  0  0  0  0  0  0  0  0  0  0  0
   -0.0326    0.0579    0.6894 C   0  0  0  0  0  0  0  0  0  0  0  0
   -0.6791   -0.1850    1.8586 O   0  0  0  0  0  0  0  0  0  0  0  0
    0.7964   -1.1000    0.1767 C   0  0  0  0  0  0  0  0  0  0  0  0
    1.7018   -0.4152   -0.7729 C   0  0  0  0  0  0  0  0  0  0  0  0
    1.8611    0.8432   -0.4077 C   0  0  0  0  0  0  0  0  0  0  0  0
    1.0654    1.0822    0.8197 C   0  0  0  0  0  0  0  0  0  0  0  0
    1.2797    1.9189    1.7027 O   0  0  0  0  0  0  0  0  0  0  0  0
   -3.0234    0.0188   -1.0044 H   0  0  0  0  0  0  0  0  0  0  0  0
   -1.7669   -1.1170   -1.5747 H   0  0  0  0  0  0  0  0  0  0  0  0
   -2.2501   -1.0666    0.1743 H   0  0  0  0  0  0  0  0  0  0  0  0
   -1.4651    1.4646   -0.0194 H   0  0  0  0  0  0  0  0  0  0  0  0
   -0.3844    0.7541   -1.3270 H   0  0  0  0  0  0  0  0  0  0  0  0
   -0.3058    0.2541    2.6578 H   0  0  0  0  0  0  0  0  0  0  0  0
    0.1782   -1.8780   -0.3060 H   0  0  0  0  0  0  0  0  0  0  0  0
    1.3926   -1.4738    1.0239 H   0  0  0  0  0  0  0  0  0  0  0  0
    2.1714   -0.8513   -1.6357 H   0  0  0  0  0  0  0  0  0  0  0  0
    2.4770    1.5942   -0.9188 H   0  0  0  0  0  0  0  0  0  0  0  0
  1  2  1  0
  2  3  1  0
  3  4  1  0
  3  5  1  0
  5  6  1  0
  6  7  2  0
  7  8  1  0
  8  9  2  0
  8  3  1  0
  1 10  1  0
  1 11  1  0
  1 12  1  0
  2 13  1  0
  2 14  1  0
  4 15  1  0
  5 16  1  0
  5 17  1  0
  6 18  1  0
  7 19  1  0
M  END
