
     RDKit          3D

 19 19  0  0  0  0  0  0  0  0999 V2000
   -2.3228   -0.0079   -0.2394 C   0  0  0  0  0  0  0  0  0  0  0  0
   -1.5501   -0.1618    1.0063 C   0  0  0  0  0  0  0  0  0  0  0  0
   -0.0726   -0.0490    0.8875 C   0  0  0  0  0  0  0  0  0  0  0  0
    0.4439    1.2066    0.3780 C   0  0  0  0  0  0  0  0  0  0  0  0
    1.5242    0.9860   -0.3533 C   0  0  0  0  0  0  0  0  0  0  0  0
    1.8413   -0.4716   -0.4054 C   0  0  0  0  0  0  0  0  0  0  0  0
    2.8280   -0.7686    0.4999 O   0  0  0  0  0  0  0  0  0  0  0  0
    0.5144   -1.0810   -0.0029 C   0  0  0  0  0  0  0  0  0  0  0  0
    0.1080   -2.1617   -0.3689 O   0  0  0  0  0  0  0  0  0  0  0  0
   -1.9270    0.6904   -0.9773 H   0  0  0  0  0  0  0  0  0  0  0  0
   -3.3659    0.3540   -0.0000 H   0  0  0  0  0  0  0  0  0  0  0  0
   -2.4510   -1.0262   -0.7142 H   0  0  0  0  0  0  0  0  0  0  0  0
   -1.8923    0.6113    1.7363 H   0  0  0  0  0  0  0  0  0  0  0  0
   -1.7792   -1.1403    1.4896 H   0  0  0  0  0  0  0  0  0  0  0  0
    0.3989   -0.2246    1.8987 H   0  0  0  0  0  0  0  0  0  0  0  0
    0.0902    2.2401    0.5045 H   0  0  0  0  0  0  0  0  0  0  0  0
    2.1488    1.7386   -0.8788 H   0  0  0  0  0  0  0  0  0  0  0  0
    2.1222   -0.7901   -1.4362 H   0  0  0  0  0  0  0  0  0  0  0  0
    3.3408    0.0557    0.6841 H   0  0  0  0  0  0  0  0  0  0  0  0
  1  2  1  0
  2  3  1  0
  3  4  1  0
  4  5  2  0
  5  6  1  0
  6  7  1  0
  6  8  1  0
  8  9  2  0
  8  3  1  0
  1 10  1  0
  1 11  1  0
  1 12  1  0
  2 13  1  0
  2 14  1  0
  3 15  1  0
  4 16  1  0
  5 17  1  0
  6 18  1  0
  7 19  1  0
M  END
