
     RDKit          3D

 23 24  0  0  0  0  0  0  0  0999 V2000
    3.3086    0.1030    0.4008 C   0  0  0  0  0  0  0  0  0  0  0  0
    2.1206    0.1707   -0.5327 C   0  0  0  0  0  0  0  0  0  0  0  0
    0.8419   -0.2235    0.1056 C   0  0  0  0  0  0  0  0  0  0  0  0
   -0.4510   -0.2164   -0.6746 C   0  0  0  0  0  0  0  0  0  0  0  0
   -1.5665   -1.1284   -0.2890 C   0  0  0  0  0  0  0  0  0  0  0  0
   -2.4740   -0.6008    0.7665 C   0  0  0  0  0  0  0  0  0  0  0  0
   -2.2122    0.8390    1.1350 C   0  0  0  0  0  0  0  0  0  0  0  0
   -0.8533    0.9550    1.3986 O   0  0  0  0  0  0  0  0  0  0  0  0
   -0.1802    0.9053    0.2047 C   0  0  0  0  0  0  0  0  0  0  0  0
    3.6617   -0.9315    0.5634 H   0  0  0  0  0  0  0  0  0  0  0  0
    3.1216    0.6696    1.3187 H   0  0  0  0  0  0  0  0  0  0  0  0
    4.1456    0.6275   -0.1281 H   0  0  0  0  0  0  0  0  0  0  0  0
    2.0527    1.2201   -0.8758 H   0  0  0  0  0  0  0  0  0  0  0  0
    2.3851   -0.4693   -1.4131 H   0  0  0  0  0  0  0  0  0  0  0  0
    0.8358   -0.9913    0.9088 H   0  0  0  0  0  0  0  0  0  0  0  0
   -0.2814   -0.0706   -1.7694 H   0  0  0  0  0  0  0  0  0  0  0  0
   -2.1843   -1.3554   -1.1873 H   0  0  0  0  0  0  0  0  0  0  0  0
   -1.1812   -2.1328    0.0484 H   0  0  0  0  0  0  0  0  0  0  0  0
   -3.5578   -0.6431    0.4523 H   0  0  0  0  0  0  0  0  0  0  0  0
   -2.3607   -1.1835    1.7184 H   0  0  0  0  0  0  0  0  0  0  0  0
   -2.4402    1.5293    0.3031 H   0  0  0  0  0  0  0  0  0  0  0  0
   -2.7920    1.0493    2.0532 H   0  0  0  0  0  0  0  0  0  0  0  0
    0.0612    1.8777   -0.2471 H   0  0  0  0  0  0  0  0  0  0  0  0
  1  2  1  0
  2  3  1  0
  3  4  1  0
  4  5  1  0
  5  6  1  0
  6  7  1  0
  7  8  1  0
  8  9  1  0
  9  3  1  0
  9  4  1  0
  1 10  1  0
  1 11  1  0
  1 12  1  0
  2 13  1  0
  2 14  1  0
  3 15  1  0
  4 16  1  0
  5 17  1  0
  5 18  1  0
  6 19  1  0
  6 20  1  0
  7 21  1  0
  7 22  1  0
  9 23  1  0
M  END
