
     RDKit          3D

 20 20  0  0  0  0  0  0  0  0999 V2000
    2.5553   -0.2806   -0.0482 C   0  0  0  0  0  0  0  0  0  0  0  0
    1.3149    0.5662    0.1309 C   0  0  0  0  0  0  0  0  0  0  0  0
    0.1593    0.0689   -0.6850 C   0  0  0  0  0  0  0  0  0  0  0  0
   -0.2163   -1.3372   -0.3108 C   0  0  0  0  0  0  0  0  0  0  0  0
   -1.5272   -1.4107   -0.1180 C   0  0  0  0  0  0  0  0  0  0  0  0
   -2.2087   -0.1085   -0.3266 C   0  0  0  0  0  0  0  0  0  0  0  0
   -1.0702    0.8827   -0.2626 C   0  0  0  0  0  0  0  0  0  0  0  0
   -0.9273    1.2873    1.0576 O   0  0  0  0  0  0  0  0  0  0  0  0
    2.9168   -0.2904   -1.0846 H   0  0  0  0  0  0  0  0  0  0  0  0
    2.3750   -1.3103    0.3528 H   0  0  0  0  0  0  0  0  0  0  0  0
    3.3560    0.1487    0.5884 H   0  0  0  0  0  0  0  0  0  0  0  0
    1.5464    1.6002   -0.1822 H   0  0  0  0  0  0  0  0  0  0  0  0
    1.0487    0.5415    1.1947 H   0  0  0  0  0  0  0  0  0  0  0  0
    0.2859    0.1475   -1.7634 H   0  0  0  0  0  0  0  0  0  0  0  0
    0.4783   -2.1668   -0.2130 H   0  0  0  0  0  0  0  0  0  0  0  0
   -2.0310   -2.3543    0.1671 H   0  0  0  0  0  0  0  0  0  0  0  0
   -2.6501   -0.0155   -1.3446 H   0  0  0  0  0  0  0  0  0  0  0  0
   -2.9643    0.0810    0.4616 H   0  0  0  0  0  0  0  0  0  0  0  0
   -1.2440    1.7217   -0.9632 H   0  0  0  0  0  0  0  0  0  0  0  0
   -1.1977    2.2288    1.2006 H   0  0  0  0  0  0  0  0  0  0  0  0
  1  2  1  0
  2  3  1  0
  3  4  1  0
  4  5  2  0
  5  6  1  0
  6  7  1  0
  7  8  1  0
  7  3  1  0
  1  9  1  0
  1 10  1  0
  1 11  1  0
  2 12  1  0
  2 13  1  0
  3 14  1  0
  4 15  1  0
  5 16  1  0
  6 17  1  0
  6 18  1  0
  7 19  1  0
  8 20  1  0
M  END
