
     RDKit          3D

 21 22  0  0  0  0  0  0  0  0999 V2000
    3.0211   -0.3408   -0.2371 C   0  0  0  0  0  0  0  0  0  0  0  0
    1.6833   -1.0242   -0.2152 C   0  0  0  0  0  0  0  0  0  0  0  0
    0.5646   -0.1251   -0.6656 C   0  0  0  0  0  0  0  0  0  0  0  0
    0.3280    1.1328    0.1257 C   0  0  0  0  0  0  0  0  0  0  0  0
   -1.1377    1.3397    0.1705 C   0  0  0  0  0  0  0  0  0  0  0  0
   -1.7809    0.2885   -0.2882 C   0  0  0  0  0  0  0  0  0  0  0  0
   -3.2445    0.1170   -0.4019 C   0  0  0  0  0  0  0  0  0  0  0  0
   -0.7981   -0.7494   -0.6947 C   0  0  0  0  0  0  0  0  0  0  0  0
   -0.0788   -0.3837   -1.8328 O   0  0  0  0  0  0  0  0  0  0  0  0
    3.6007   -0.6434    0.6603 H   0  0  0  0  0  0  0  0  0  0  0  0
    3.6424   -0.6749   -1.1149 H   0  0  0  0  0  0  0  0  0  0  0  0
    2.9549    0.7650   -0.2278 H   0  0  0  0  0  0  0  0  0  0  0  0
    1.7119   -1.9458   -0.8190 H   0  0  0  0  0  0  0  0  0  0  0  0
    1.4539   -1.3078    0.8459 H   0  0  0  0  0  0  0  0  0  0  0  0
    0.8876    2.0036   -0.2381 H   0  0  0  0  0  0  0  0  0  0  0  0
    0.6377    0.8959    1.1862 H   0  0  0  0  0  0  0  0  0  0  0  0
   -1.6129    2.2384    0.5334 H   0  0  0  0  0  0  0  0  0  0  0  0
   -3.7198    1.0481   -0.8274 H   0  0  0  0  0  0  0  0  0  0  0  0
   -3.5048   -0.6894   -1.1460 H   0  0  0  0  0  0  0  0  0  0  0  0
   -3.6929   -0.1563    0.5653 H   0  0  0  0  0  0  0  0  0  0  0  0
   -0.9161   -1.7881   -0.4096 H   0  0  0  0  0  0  0  0  0  0  0  0
  1  2  1  0
  2  3  1  0
  3  4  1  0
  4  5  1  0
  5  6  2  0
  6  7  1  0
  6  8  1  0
  8  9  1  0
  8  3  1  0
  9  3  1  0
  1 10  1  0
  1 11  1  0
  1 12  1  0
  2 13  1  0
  2 14  1  0
  4 15  1  0
  4 16  1  0
  5 17  1  0
  7 18  1  0
  7 19  1  0
  7 20  1  0
  8 21  1  0
M  END
