
     RDKit          3D

 21 22  0  0  0  0  0  0  0  0999 V2000
    2.5301    0.0025   -0.3045 C   0  0  0  0  0  0  0  0  0  0  0  0
    1.4874   -0.1299    0.7875 C   0  0  0  0  0  0  0  0  0  0  0  0
    0.1373   -0.1436    0.1272 C   0  0  0  0  0  0  0  0  0  0  0  0
   -0.1709    1.0867   -0.6625 C   0  0  0  0  0  0  0  0  0  0  0  0
   -1.6495    1.0723   -0.9444 C   0  0  0  0  0  0  0  0  0  0  0  0
   -2.1702   -0.1445   -1.0859 C   0  0  0  0  0  0  0  0  0  0  0  0
   -1.4127   -1.2156   -0.3387 C   0  0  0  0  0  0  0  0  0  0  0  0
   -1.0135   -0.5552    0.9835 C   0  0  0  0  0  0  0  0  0  0  0  0
   -0.0801   -1.2495   -0.7039 O   0  0  0  0  0  0  0  0  0  0  0  0
    2.6170   -0.9772   -0.8304 H   0  0  0  0  0  0  0  0  0  0  0  0
    2.2468    0.7540   -1.0588 H   0  0  0  0  0  0  0  0  0  0  0  0
    3.4970    0.2674    0.1944 H   0  0  0  0  0  0  0  0  0  0  0  0
    1.6719   -1.0354    1.3653 H   0  0  0  0  0  0  0  0  0  0  0  0
    1.5470    0.8084    1.3880 H   0  0  0  0  0  0  0  0  0  0  0  0
    0.1345    1.9687   -0.0858 H   0  0  0  0  0  0  0  0  0  0  0  0
    0.3168    1.0274   -1.6607 H   0  0  0  0  0  0  0  0  0  0  0  0
   -2.2319    1.9872   -1.0233 H   0  0  0  0  0  0  0  0  0  0  0  0
   -3.0488   -0.3626   -1.6743 H   0  0  0  0  0  0  0  0  0  0  0  0
   -1.9385   -2.1630   -0.2462 H   0  0  0  0  0  0  0  0  0  0  0  0
   -1.6872    0.2805    1.2846 H   0  0  0  0  0  0  0  0  0  0  0  0
   -0.7825   -1.2787    1.7787 H   0  0  0  0  0  0  0  0  0  0  0  0
  1  2  1  0
  2  3  1  0
  3  4  1  0
  4  5  1  0
  5  6  2  0
  6  7  1  0
  7  8  1  0
  7  9  1  0
  8  3  1  0
  9  3  1  0
  1 10  1  0
  1 11  1  0
  1 12  1  0
  2 13  1  0
  2 14  1  0
  4 15  1  0
  4 16  1  0
  5 17  1  0
  6 18  1  0
  7 19  1  0
  8 20  1  0
  8 21  1  0
M  END
