
     RDKit          3D

 22 22  0  0  0  0  0  0  0  0999 V2000
   -2.6756    0.0483    0.5203 C   0  0  0  0  0  0  0  0  0  0  0  0
   -1.3527    0.7834    0.3558 C   0  0  0  0  0  0  0  0  0  0  0  0
   -0.5310    0.1774   -0.7672 C   0  0  0  0  0  0  0  0  0  0  0  0
   -0.2241   -1.2545   -0.5022 C   0  0  0  0  0  0  0  0  0  0  0  0
    1.1232   -1.4556   -0.6004 O   0  0  0  0  0  0  0  0  0  0  0  0
    1.7810   -0.2603   -0.4751 C   0  0  0  0  0  0  0  0  0  0  0  0
    2.4121   -0.1478    0.8966 C   0  0  0  0  0  0  0  0  0  0  0  0
    0.8198    0.8344   -0.7786 C   0  0  0  0  0  0  0  0  0  0  0  0
   -3.0194   -0.3784   -0.4518 H   0  0  0  0  0  0  0  0  0  0  0  0
   -2.5534   -0.8064    1.2218 H   0  0  0  0  0  0  0  0  0  0  0  0
   -3.4363    0.7252    0.9695 H   0  0  0  0  0  0  0  0  0  0  0  0
   -1.5438    1.8546    0.1369 H   0  0  0  0  0  0  0  0  0  0  0  0
   -0.7564    0.7373    1.2897 H   0  0  0  0  0  0  0  0  0  0  0  0
   -1.0144    0.3087   -1.7485 H   0  0  0  0  0  0  0  0  0  0  0  0
   -0.6585   -1.6306    0.4684 H   0  0  0  0  0  0  0  0  0  0  0  0
   -0.7149   -1.9079   -1.2827 H   0  0  0  0  0  0  0  0  0  0  0  0
    2.6405   -0.1972   -1.2054 H   0  0  0  0  0  0  0  0  0  0  0  0
    1.7308    0.2033    1.6702 H   0  0  0  0  0  0  0  0  0  0  0  0
    3.2837    0.5531    0.8832 H   0  0  0  0  0  0  0  0  0  0  0  0
    2.7783   -1.1606    1.1708 H   0  0  0  0  0  0  0  0  0  0  0  0
    1.0029    1.3258   -1.7576 H   0  0  0  0  0  0  0  0  0  0  0  0
    0.9081    1.6480   -0.0139 H   0  0  0  0  0  0  0  0  0  0  0  0
  1  2  1  0
  2  3  1  0
  3  4  1  0
  4  5  1  0
  5  6  1  0
  6  7  1  0
  6  8  1  0
  8  3  1  0
  1  9  1  0
  1 10  1  0
  1 11  1  0
  2 12  1  0
  2 13  1  0
  3 14  1  0
  4 15  1  0
  4 16  1  0
  6 17  1  0
  7 18  1  0
  7 19  1  0
  7 20  1  0
  8 21  1  0
  8 22  1  0
M  END
