
     RDKit          3D

 22 22  0  0  0  0  0  0  0  0999 V2000
   -2.5789   -0.8521   -0.3932 C   0  0  0  0  0  0  0  0  0  0  0  0
   -1.1222   -1.0175   -0.7017 C   0  0  0  0  0  0  0  0  0  0  0  0
   -0.1717   -0.8383    0.3860 C   0  0  0  0  0  0  0  0  0  0  0  0
    0.1203    0.2777    1.2422 C   0  0  0  0  0  0  0  0  0  0  0  0
   -0.6888    1.5572    1.3384 C   0  0  0  0  0  0  0  0  0  0  0  0
    0.9784    0.1450    0.0638 C   0  0  0  0  0  0  0  0  0  0  0  0
    2.2628   -0.3264    0.0706 O   0  0  0  0  0  0  0  0  0  0  0  0
    3.0803    0.1461   -0.9220 C   0  0  0  0  0  0  0  0  0  0  0  0
   -3.1445   -0.7561   -1.3450 H   0  0  0  0  0  0  0  0  0  0  0  0
   -2.8117    0.0239    0.2302 H   0  0  0  0  0  0  0  0  0  0  0  0
   -3.0266   -1.7253    0.1306 H   0  0  0  0  0  0  0  0  0  0  0  0
   -0.8916   -0.3118   -1.5439 H   0  0  0  0  0  0  0  0  0  0  0  0
   -1.0421   -2.0204   -1.1970 H   0  0  0  0  0  0  0  0  0  0  0  0
    0.2319   -1.8363    0.7523 H   0  0  0  0  0  0  0  0  0  0  0  0
    0.6055    0.0675    2.2215 H   0  0  0  0  0  0  0  0  0  0  0  0
   -1.1719    1.8104    0.3621 H   0  0  0  0  0  0  0  0  0  0  0  0
    0.0122    2.4226    1.5010 H   0  0  0  0  0  0  0  0  0  0  0  0
   -1.3743    1.5805    2.1847 H   0  0  0  0  0  0  0  0  0  0  0  0
    0.7908    0.8638   -0.7760 H   0  0  0  0  0  0  0  0  0  0  0  0
    2.6344   -0.1399   -1.8994 H   0  0  0  0  0  0  0  0  0  0  0  0
    4.0841   -0.3072   -0.7775 H   0  0  0  0  0  0  0  0  0  0  0  0
    3.2236    1.2366   -0.9277 H   0  0  0  0  0  0  0  0  0  0  0  0
  1  2  1  0
  2  3  1  0
  3  4  1  0
  4  5  1  0
  4  6  1  0
  6  7  1  0
  7  8  1  0
  6  3  1  0
  1  9  1  0
  1 10  1  0
  1 11  1  0
  2 12  1  0
  2 13  1  0
  3 14  1  0
  4 15  1  0
  5 16  1  0
  5 17  1  0
  5 18  1  0
  6 19  1  0
  8 20  1  0
  8 21  1  0
  8 22  1  0
M  END
