
     RDKit          3D

 23 23  0  0  0  0  0  0  0  0999 V2000
    2.6221    0.0924    1.1122 C   0  0  0  0  0  0  0  0  0  0  0  0
    1.8174    0.4256   -0.0980 C   0  0  0  0  0  0  0  0  0  0  0  0
    0.4403   -0.1634   -0.0662 C   0  0  0  0  0  0  0  0  0  0  0  0
   -0.6736    0.5468   -0.1046 C   0  0  0  0  0  0  0  0  0  0  0  0
   -0.7470    2.0477   -0.1852 C   0  0  0  0  0  0  0  0  0  0  0  0
   -1.8765   -0.3087   -0.0646 C   0  0  0  0  0  0  0  0  0  0  0  0
   -2.4217   -0.2591    1.2052 O   0  0  0  0  0  0  0  0  0  0  0  0
   -1.3698   -1.6920   -0.4219 C   0  0  0  0  0  0  0  0  0  0  0  0
    0.0602   -1.5906    0.0154 C   0  0  0  0  0  0  0  0  0  0  0  0
    2.4877   -0.9364    1.4455 H   0  0  0  0  0  0  0  0  0  0  0  0
    2.3604    0.8006    1.9470 H   0  0  0  0  0  0  0  0  0  0  0  0
    3.6910    0.3013    0.8763 H   0  0  0  0  0  0  0  0  0  0  0  0
    2.3851    0.0531   -0.9866 H   0  0  0  0  0  0  0  0  0  0  0  0
    1.7138    1.5132   -0.2477 H   0  0  0  0  0  0  0  0  0  0  0  0
   -0.0500    2.3355   -1.0175 H   0  0  0  0  0  0  0  0  0  0  0  0
   -0.4341    2.4694    0.7814 H   0  0  0  0  0  0  0  0  0  0  0  0
   -1.7411    2.3998   -0.4474 H   0  0  0  0  0  0  0  0  0  0  0  0
   -2.6492   -0.0066   -0.8043 H   0  0  0  0  0  0  0  0  0  0  0  0
   -3.0625    0.5206    1.2075 H   0  0  0  0  0  0  0  0  0  0  0  0
   -1.4200   -1.8765   -1.5025 H   0  0  0  0  0  0  0  0  0  0  0  0
   -1.9457   -2.4387    0.1580 H   0  0  0  0  0  0  0  0  0  0  0  0
    0.6952   -2.2424   -0.6135 H   0  0  0  0  0  0  0  0  0  0  0  0
    0.1180   -1.9917    1.0518 H   0  0  0  0  0  0  0  0  0  0  0  0
  1  2  1  0
  2  3  1  0
  3  4  2  0
  4  5  1  0
  4  6  1  0
  6  7  1  0
  6  8  1  0
  8  9  1  0
  9  3  1  0
  1 10  1  0
  1 11  1  0
  1 12  1  0
  2 13  1  0
  2 14  1  0
  5 15  1  0
  5 16  1  0
  5 17  1  0
  6 18  1  0
  7 19  1  0
  8 20  1  0
  8 21  1  0
  9 22  1  0
  9 23  1  0
M  END
