
     RDKit          3D

 17 18  0  0  0  0  0  0  0  0999 V2000
    2.0337   -0.3963    0.5575 C   0  0  0  0  0  0  0  0  0  0  0  0
    1.3598   -0.4078   -0.7567 C   0  0  0  0  0  0  0  0  0  0  0  0
   -0.1123   -0.2310   -0.7544 C   0  0  0  0  0  0  0  0  0  0  0  0
   -0.8383   -1.1935   -0.0508 O   0  0  0  0  0  0  0  0  0  0  0  0
   -1.7050   -0.3243    0.5648 C   0  0  0  0  0  0  0  0  0  0  0  0
   -2.2466    0.8848   -0.0525 C   0  0  0  0  0  0  0  0  0  0  0  0
   -0.7326    0.7984    0.1063 C   0  0  0  0  0  0  0  0  0  0  0  0
    2.1761   -1.4278    0.9441 H   0  0  0  0  0  0  0  0  0  0  0  0
    3.0701    0.0446    0.5165 H   0  0  0  0  0  0  0  0  0  0  0  0
    1.5104    0.1679    1.3485 H   0  0  0  0  0  0  0  0  0  0  0  0
    1.5841   -1.3762   -1.2809 H   0  0  0  0  0  0  0  0  0  0  0  0
    1.8206    0.3762   -1.3949 H   0  0  0  0  0  0  0  0  0  0  0  0
   -0.5147   -0.1888   -1.7887 H   0  0  0  0  0  0  0  0  0  0  0  0
   -1.8494   -0.4644    1.6332 H   0  0  0  0  0  0  0  0  0  0  0  0
   -2.7147    1.6244    0.5991 H   0  0  0  0  0  0  0  0  0  0  0  0
   -2.6032    0.8196   -1.1209 H   0  0  0  0  0  0  0  0  0  0  0  0
   -0.2381    1.2943    0.9297 H   0  0  0  0  0  0  0  0  0  0  0  0
  1  2  1  0
  2  3  1  0
  3  4  1  0
  4  5  1  0
  5  6  1  0
  6  7  1  0
  7  3  1  0
  7  5  1  0
  1  8  1  0
  1  9  1  0
  1 10  1  0
  2 11  1  0
  2 12  1  0
  3 13  1  0
  5 14  1  0
  6 15  1  0
  6 16  1  0
  7 17  1  0
M  END
