
     RDKit          3D

 22 22  0  0  0  0  0  0  0  0999 V2000
    2.3990    0.1112   -0.6418 C   0  0  0  0  0  0  0  0  0  0  0  0
    1.0382   -0.5150   -0.7964 C   0  0  0  0  0  0  0  0  0  0  0  0
    0.0127    0.0847    0.1279 C   0  0  0  0  0  0  0  0  0  0  0  0
   -0.2262    1.5443   -0.0449 C   0  0  0  0  0  0  0  0  0  0  0  0
    0.1952   -0.2565    1.5936 C   0  0  0  0  0  0  0  0  0  0  0  0
   -1.2203   -0.2480    1.6759 O   0  0  0  0  0  0  0  0  0  0  0  0
   -1.1832   -0.7746    0.3706 C   0  0  0  0  0  0  0  0  0  0  0  0
   -2.3920   -0.5293   -0.4598 C   0  0  0  0  0  0  0  0  0  0  0  0
    3.1750   -0.6887   -0.7721 H   0  0  0  0  0  0  0  0  0  0  0  0
    2.5184    0.5941    0.3623 H   0  0  0  0  0  0  0  0  0  0  0  0
    2.6141    0.8921   -1.3918 H   0  0  0  0  0  0  0  0  0  0  0  0
    1.0793   -1.6114   -0.6310 H   0  0  0  0  0  0  0  0  0  0  0  0
    0.6945   -0.3032   -1.8356 H   0  0  0  0  0  0  0  0  0  0  0  0
   -0.6284    1.7844   -1.0385 H   0  0  0  0  0  0  0  0  0  0  0  0
    0.7324    2.0728    0.1784 H   0  0  0  0  0  0  0  0  0  0  0  0
   -0.9324    1.8740    0.7554 H   0  0  0  0  0  0  0  0  0  0  0  0
    0.5998    0.5547    2.2075 H   0  0  0  0  0  0  0  0  0  0  0  0
    0.5466   -1.2722    1.8077 H   0  0  0  0  0  0  0  0  0  0  0  0
   -0.8680   -1.8451    0.4558 H   0  0  0  0  0  0  0  0  0  0  0  0
   -2.1603   -0.4491   -1.5355 H   0  0  0  0  0  0  0  0  0  0  0  0
   -3.0883   -1.3994   -0.3028 H   0  0  0  0  0  0  0  0  0  0  0  0
   -2.9060    0.3806   -0.0850 H   0  0  0  0  0  0  0  0  0  0  0  0
  1  2  1  0
  2  3  1  0
  3  4  1  0
  3  5  1  0
  5  6  1  0
  6  7  1  0
  7  8  1  0
  7  3  1  0
  1  9  1  0
  1 10  1  0
  1 11  1  0
  2 12  1  0
  2 13  1  0
  4 14  1  0
  4 15  1  0
  4 16  1  0
  5 17  1  0
  5 18  1  0
  7 19  1  0
  8 20  1  0
  8 21  1  0
  8 22  1  0
M  END
