
     RDKit          3D

 21 21  0  0  0  0  0  0  0  0999 V2000
    1.8369    1.0417    0.1888 C   0  0  0  0  0  0  0  0  0  0  0  0
    0.6857    0.3250    0.9088 C   0  0  0  0  0  0  0  0  0  0  0  0
   -0.1490   -0.3086   -0.1392 C   0  0  0  0  0  0  0  0  0  0  0  0
   -0.6931    0.7334   -1.0861 C   0  0  0  0  0  0  0  0  0  0  0  0
   -1.5125    1.6705   -0.3071 C   0  0  0  0  0  0  0  0  0  0  0  0
   -2.0422    2.6256   -0.8665 O   0  0  0  0  0  0  0  0  0  0  0  0
   -1.0905   -1.3915    0.2651 C   0  0  0  0  0  0  0  0  0  0  0  0
    0.1425   -2.2172    0.1158 C   0  0  0  0  0  0  0  0  0  0  0  0
    0.6070   -1.2925   -0.8185 O   0  0  0  0  0  0  0  0  0  0  0  0
    2.0783    0.4490   -0.7415 H   0  0  0  0  0  0  0  0  0  0  0  0
    2.7387    1.0138    0.8236 H   0  0  0  0  0  0  0  0  0  0  0  0
    1.5519    2.0411   -0.1517 H   0  0  0  0  0  0  0  0  0  0  0  0
    1.1068   -0.3951    1.6357 H   0  0  0  0  0  0  0  0  0  0  0  0
    0.1476    1.1177    1.4634 H   0  0  0  0  0  0  0  0  0  0  0  0
   -1.2470    0.2195   -1.8893 H   0  0  0  0  0  0  0  0  0  0  0  0
    0.2182    1.2510   -1.5064 H   0  0  0  0  0  0  0  0  0  0  0  0
   -1.6911    1.5809    0.7565 H   0  0  0  0  0  0  0  0  0  0  0  0
   -1.5583   -1.3329    1.2477 H   0  0  0  0  0  0  0  0  0  0  0  0
   -1.8187   -1.6121   -0.5432 H   0  0  0  0  0  0  0  0  0  0  0  0
    0.7857   -2.3098    1.0101 H   0  0  0  0  0  0  0  0  0  0  0  0
   -0.0967   -3.2097   -0.3659 H   0  0  0  0  0  0  0  0  0  0  0  0
  1  2  1  0
  2  3  1  0
  3  4  1  0
  4  5  1  0
  5  6  2  0
  3  7  1  0
  7  8  1  0
  8  9  1  0
  9  3  1  0
  1 10  1  0
  1 11  1  0
  1 12  1  0
  2 13  1  0
  2 14  1  0
  4 15  1  0
  4 16  1  0
  5 17  1  0
  7 18  1  0
  7 19  1  0
  8 20  1  0
  8 21  1  0
M  END
