
     RDKit          3D

 25 25  0  0  0  0  0  0  0  0999 V2000
    2.7244   -0.3038   -0.9717 C   0  0  0  0  0  0  0  0  0  0  0  0
    1.6006    0.6373   -0.6845 C   0  0  0  0  0  0  0  0  0  0  0  0
    0.5134    0.0600    0.1577 C   0  0  0  0  0  0  0  0  0  0  0  0
    0.8842   -0.4209    1.5193 C   0  0  0  0  0  0  0  0  0  0  0  0
   -0.6466    1.0594    0.2474 C   0  0  0  0  0  0  0  0  0  0  0  0
   -1.5838   -0.1296    0.1337 C   0  0  0  0  0  0  0  0  0  0  0  0
   -2.7883    0.0989   -0.7300 C   0  0  0  0  0  0  0  0  0  0  0  0
   -1.9395   -0.5907    1.3853 O   0  0  0  0  0  0  0  0  0  0  0  0
   -0.4423   -0.8814   -0.5314 C   0  0  0  0  0  0  0  0  0  0  0  0
    3.3749    0.1956   -1.7462 H   0  0  0  0  0  0  0  0  0  0  0  0
    3.3782   -0.5098   -0.1203 H   0  0  0  0  0  0  0  0  0  0  0  0
    2.3436   -1.2233   -1.4616 H   0  0  0  0  0  0  0  0  0  0  0  0
    1.9888    1.5573   -0.2021 H   0  0  0  0  0  0  0  0  0  0  0  0
    1.1493    0.9505   -1.6522 H   0  0  0  0  0  0  0  0  0  0  0  0
    1.9377   -0.7928    1.5481 H   0  0  0  0  0  0  0  0  0  0  0  0
    0.2618   -1.2864    1.8541 H   0  0  0  0  0  0  0  0  0  0  0  0
    0.7281    0.3911    2.2682 H   0  0  0  0  0  0  0  0  0  0  0  0
   -0.6895    1.6161    1.1868 H   0  0  0  0  0  0  0  0  0  0  0  0
   -0.7169    1.6559   -0.6877 H   0  0  0  0  0  0  0  0  0  0  0  0
   -2.9268    1.1801   -0.9969 H   0  0  0  0  0  0  0  0  0  0  0  0
   -3.7303   -0.1923   -0.2052 H   0  0  0  0  0  0  0  0  0  0  0  0
   -2.7494   -0.5180   -1.6580 H   0  0  0  0  0  0  0  0  0  0  0  0
   -1.8958    0.1673    2.0156 H   0  0  0  0  0  0  0  0  0  0  0  0
   -0.3035   -1.9175   -0.1547 H   0  0  0  0  0  0  0  0  0  0  0  0
   -0.4722   -0.8031   -1.6342 H   0  0  0  0  0  0  0  0  0  0  0  0
  1  2  1  0
  2  3  1  0
  3  4  1  0
  3  5  1  0
  5  6  1  0
  6  7  1  0
  6  8  1  0
  6  9  1  0
  9  3  1  0
  1 10  1  0
  1 11  1  0
  1 12  1  0
  2 13  1  0
  2 14  1  0
  4 15  1  0
  4 16  1  0
  4 17  1  0
  5 18  1  0
  5 19  1  0
  7 20  1  0
  7 21  1  0
  7 22  1  0
  8 23  1  0
  9 24  1  0
  9 25  1  0
M  END
