
     RDKit          3D

 22 22  0  0  0  0  0  0  0  0999 V2000
   -1.1785    1.7696    0.5264 C   0  0  0  0  0  0  0  0  0  0  0  0
   -1.5433    0.5694   -0.2595 C   0  0  0  0  0  0  0  0  0  0  0  0
   -0.6407   -0.6043   -0.0841 C   0  0  0  0  0  0  0  0  0  0  0  0
   -1.0820   -1.8099   -0.9295 C   0  0  0  0  0  0  0  0  0  0  0  0
   -0.0481   -0.9716    1.2195 C   0  0  0  0  0  0  0  0  0  0  0  0
    0.8225   -0.4703    0.0815 C   0  0  0  0  0  0  0  0  0  0  0  0
    1.4334    0.7691    0.2220 O   0  0  0  0  0  0  0  0  0  0  0  0
    2.7150    0.8045   -0.2718 C   0  0  0  0  0  0  0  0  0  0  0  0
   -0.3327    2.2891    0.0374 H   0  0  0  0  0  0  0  0  0  0  0  0
   -1.0175    1.5405    1.5869 H   0  0  0  0  0  0  0  0  0  0  0  0
   -2.0391    2.4874    0.4796 H   0  0  0  0  0  0  0  0  0  0  0  0
   -1.5636    0.8507   -1.3408 H   0  0  0  0  0  0  0  0  0  0  0  0
   -2.5777    0.2529    0.0183 H   0  0  0  0  0  0  0  0  0  0  0  0
   -0.2148   -2.4249   -1.2205 H   0  0  0  0  0  0  0  0  0  0  0  0
   -1.7201   -2.4505   -0.2767 H   0  0  0  0  0  0  0  0  0  0  0  0
   -1.6931   -1.4916   -1.7925 H   0  0  0  0  0  0  0  0  0  0  0  0
   -0.0918   -0.2645    2.0904 H   0  0  0  0  0  0  0  0  0  0  0  0
    0.0448   -2.0521    1.5001 H   0  0  0  0  0  0  0  0  0  0  0  0
    1.4889   -1.2199   -0.4113 H   0  0  0  0  0  0  0  0  0  0  0  0
    3.3705    0.0589    0.2591 H   0  0  0  0  0  0  0  0  0  0  0  0
    3.1295    1.8087   -0.0714 H   0  0  0  0  0  0  0  0  0  0  0  0
    2.7383    0.5588   -1.3631 H   0  0  0  0  0  0  0  0  0  0  0  0
  1  2  1  0
  2  3  1  0
  3  4  1  0
  3  5  1  0
  5  6  1  0
  6  7  1  0
  7  8  1  0
  6  3  1  0
  1  9  1  0
  1 10  1  0
  1 11  1  0
  2 12  1  0
  2 13  1  0
  4 14  1  0
  4 15  1  0
  4 16  1  0
  5 17  1  0
  5 18  1  0
  6 19  1  0
  8 20  1  0
  8 21  1  0
  8 22  1  0
M  END
