
     RDKit          3D

 25 25  0  0  0  0  0  0  0  0999 V2000
    3.0364    0.0291    0.3527 C   0  0  0  0  0  0  0  0  0  0  0  0
    1.6891    0.1031    1.0191 C   0  0  0  0  0  0  0  0  0  0  0  0
    0.6170   -0.6066    0.2716 C   0  0  0  0  0  0  0  0  0  0  0  0
   -0.6792   -0.4912    0.9880 O   0  0  0  0  0  0  0  0  0  0  0  0
   -0.4976   -0.0551   -0.4119 C   0  0  0  0  0  0  0  0  0  0  0  0
   -0.7754    1.4177   -0.5808 C   0  0  0  0  0  0  0  0  0  0  0  0
   -0.9325    2.1045    0.7512 C   0  0  0  0  0  0  0  0  0  0  0  0
   -1.3018   -0.9498   -1.3103 C   0  0  0  0  0  0  0  0  0  0  0  0
   -1.9114   -2.1213   -0.6004 C   0  0  0  0  0  0  0  0  0  0  0  0
    2.9402   -0.1764   -0.7470 H   0  0  0  0  0  0  0  0  0  0  0  0
    3.6843   -0.7743    0.7830 H   0  0  0  0  0  0  0  0  0  0  0  0
    3.6300    0.9780    0.4928 H   0  0  0  0  0  0  0  0  0  0  0  0
    1.8254   -0.3472    2.0464 H   0  0  0  0  0  0  0  0  0  0  0  0
    1.4933    1.1758    1.2130 H   0  0  0  0  0  0  0  0  0  0  0  0
    0.8232   -1.7006    0.1415 H   0  0  0  0  0  0  0  0  0  0  0  0
   -1.7207    1.5482   -1.1588 H   0  0  0  0  0  0  0  0  0  0  0  0
    0.0184    1.9297   -1.1673 H   0  0  0  0  0  0  0  0  0  0  0  0
   -0.8631    1.3630    1.5799 H   0  0  0  0  0  0  0  0  0  0  0  0
   -1.9093    2.6303    0.7508 H   0  0  0  0  0  0  0  0  0  0  0  0
   -0.1340    2.8857    0.8445 H   0  0  0  0  0  0  0  0  0  0  0  0
   -2.1605   -0.3728   -1.7661 H   0  0  0  0  0  0  0  0  0  0  0  0
   -0.7234   -1.3093   -2.1844 H   0  0  0  0  0  0  0  0  0  0  0  0
   -2.1259   -1.8498    0.4604 H   0  0  0  0  0  0  0  0  0  0  0  0
   -2.8220   -2.4296   -1.1242 H   0  0  0  0  0  0  0  0  0  0  0  0
   -1.2006   -2.9811   -0.6435 H   0  0  0  0  0  0  0  0  0  0  0  0
  1  2  1  0
  2  3  1  0
  3  4  1  0
  4  5  1  0
  5  6  1  0
  6  7  1  0
  5  8  1  0
  8  9  1  0
  5  3  1  0
  1 10  1  0
  1 11  1  0
  1 12  1  0
  2 13  1  0
  2 14  1  0
  3 15  1  0
  6 16  1  0
  6 17  1  0
  7 18  1  0
  7 19  1  0
  7 20  1  0
  8 21  1  0
  8 22  1  0
  9 23  1  0
  9 24  1  0
  9 25  1  0
M  END
