
     RDKit          3D

 23 23  0  0  0  0  0  0  0  0999 V2000
    2.8496    0.8158    0.2503 C   0  0  0  0  0  0  0  0  0  0  0  0
    1.7333    0.2997   -0.5843 C   0  0  0  0  0  0  0  0  0  0  0  0
    0.7457   -0.5436    0.2451 C   0  0  0  0  0  0  0  0  0  0  0  0
   -0.3337   -1.0587   -0.4950 C   0  0  0  0  0  0  0  0  0  0  0  0
   -1.3923   -1.4477   -1.1255 O   0  0  0  0  0  0  0  0  0  0  0  0
   -2.5415   -0.8494   -0.4847 C   0  0  0  0  0  0  0  0  0  0  0  0
   -2.1114    0.2588    0.4922 C   0  0  0  0  0  0  0  0  0  0  0  0
   -1.2411    0.0088    1.4639 O   0  0  0  0  0  0  0  0  0  0  0  0
    0.1141    0.4096    1.3265 C   0  0  0  0  0  0  0  0  0  0  0  0
    3.3397    1.6646   -0.2262 H   0  0  0  0  0  0  0  0  0  0  0  0
    2.5217    1.0588    1.2987 H   0  0  0  0  0  0  0  0  0  0  0  0
    3.6055   -0.0182    0.3474 H   0  0  0  0  0  0  0  0  0  0  0  0
    1.1565    1.1429   -1.0413 H   0  0  0  0  0  0  0  0  0  0  0  0
    2.1553   -0.3571   -1.3713 H   0  0  0  0  0  0  0  0  0  0  0  0
    1.3976   -1.2838    0.7559 H   0  0  0  0  0  0  0  0  0  0  0  0
   -0.7815   -1.5188    0.4499 H   0  0  0  0  0  0  0  0  0  0  0  0
   -0.6094    0.0043   -0.8009 H   0  0  0  0  0  0  0  0  0  0  0  0
   -3.1367   -0.3410   -1.2550 H   0  0  0  0  0  0  0  0  0  0  0  0
   -3.1022   -1.6216    0.0425 H   0  0  0  0  0  0  0  0  0  0  0  0
   -1.9995    1.2478   -0.0494 H   0  0  0  0  0  0  0  0  0  0  0  0
   -3.1077    0.4523    1.0238 H   0  0  0  0  0  0  0  0  0  0  0  0
    0.5995    0.2656    2.2819 H   0  0  0  0  0  0  0  0  0  0  0  0
    0.1385    1.4111    0.8993 H   0  0  0  0  0  0  0  0  0  0  0  0
  1  2  1  0
  2  3  1  0
  3  4  1  0
  4  5  1  0
  5  6  1  0
  6  7  1  0
  7  8  1  0
  8  9  1  0
  9  3  1  0
  1 10  1  0
  1 11  1  0
  1 12  1  0
  2 13  1  0
  2 14  1  0
  3 15  1  0
  4 16  1  0
  4 17  1  0
  6 18  1  0
  6 19  1  0
  7 20  1  0
  7 21  1  0
  9 22  1  0
  9 23  1  0
M  END
