
     RDKit          3D

 19 21  0  0  0  0  0  0  0  0999 V2000
    2.2408   -0.5398   -1.2897 C   0  0  0  0  0  0  0  0  0  0  0  0
    1.5704    0.5394   -0.5226 C   0  0  0  0  0  0  0  0  0  0  0  0
    0.1273    0.4125   -0.3442 C   0  0  0  0  0  0  0  0  0  0  0  0
   -0.3359   -0.8360    0.3877 C   0  0  0  0  0  0  0  0  0  0  0  0
   -1.8369   -0.4969    0.3503 C   0  0  0  0  0  0  0  0  0  0  0  0
   -1.8218    0.9664    0.3925 C   0  0  0  0  0  0  0  0  0  0  0  0
   -0.4739    1.3951    0.4129 O   0  0  0  0  0  0  0  0  0  0  0  0
   -1.9430    0.2730   -0.8982 C   0  0  0  0  0  0  0  0  0  0  0  0
   -0.6537    0.3763   -1.4675 O   0  0  0  0  0  0  0  0  0  0  0  0
    3.1931   -0.1143   -1.7202 H   0  0  0  0  0  0  0  0  0  0  0  0
    1.6619   -0.8916   -2.1685 H   0  0  0  0  0  0  0  0  0  0  0  0
    2.5662   -1.3902   -0.6605 H   0  0  0  0  0  0  0  0  0  0  0  0
    2.0462    0.5691    0.4989 H   0  0  0  0  0  0  0  0  0  0  0  0
    1.7977    1.5067   -1.0026 H   0  0  0  0  0  0  0  0  0  0  0  0
   -0.0498   -0.8024    1.4425 H   0  0  0  0  0  0  0  0  0  0  0  0
   -0.1123   -1.7593   -0.1418 H   0  0  0  0  0  0  0  0  0  0  0  0
   -2.5645   -1.1563    0.7683 H   0  0  0  0  0  0  0  0  0  0  0  0
   -2.5874    1.5939    0.8345 H   0  0  0  0  0  0  0  0  0  0  0  0
   -2.8244    0.3544   -1.5177 H   0  0  0  0  0  0  0  0  0  0  0  0
  1  2  1  0
  2  3  1  0
  3  4  1  0
  4  5  1  0
  5  6  1  0
  6  7  1  0
  6  8  1  0
  8  9  1  0
  7  3  1  0
  9  3  1  0
  8  5  1  0
  1 10  1  0
  1 11  1  0
  1 12  1  0
  2 13  1  0
  2 14  1  0
  4 15  1  0
  4 16  1  0
  5 17  1  0
  6 18  1  0
  8 19  1  0
M  END
