
     RDKit          3D

 21 21  0  0  0  0  0  0  0  0999 V2000
    2.5038   -0.1120    0.2292 C   0  0  0  0  0  0  0  0  0  0  0  0
    1.1681    0.4817    0.5161 C   0  0  0  0  0  0  0  0  0  0  0  0
    0.1372    0.2040   -0.5549 C   0  0  0  0  0  0  0  0  0  0  0  0
   -0.1197   -1.2463   -0.7650 C   0  0  0  0  0  0  0  0  0  0  0  0
   -1.2705   -1.5547    0.1677 C   0  0  0  0  0  0  0  0  0  0  0  0
   -1.9168   -0.2411    0.3050 C   0  0  0  0  0  0  0  0  0  0  0  0
   -1.1501    0.7369   -0.0904 C   0  0  0  0  0  0  0  0  0  0  0  0
   -1.4881    2.1513   -0.0853 C   0  0  0  0  0  0  0  0  0  0  0  0
   -2.6092    2.5266    0.3274 O   0  0  0  0  0  0  0  0  0  0  0  0
    2.9707   -0.4490    1.1998 H   0  0  0  0  0  0  0  0  0  0  0  0
    3.2247    0.6622   -0.1568 H   0  0  0  0  0  0  0  0  0  0  0  0
    2.4996   -0.9206   -0.5083 H   0  0  0  0  0  0  0  0  0  0  0  0
    0.7460    0.1829    1.4967 H   0  0  0  0  0  0  0  0  0  0  0  0
    1.2874    1.5956    0.5584 H   0  0  0  0  0  0  0  0  0  0  0  0
    0.4434    0.7419   -1.4758 H   0  0  0  0  0  0  0  0  0  0  0  0
    0.7159   -1.9111   -0.4874 H   0  0  0  0  0  0  0  0  0  0  0  0
   -0.4662   -1.4165   -1.8064 H   0  0  0  0  0  0  0  0  0  0  0  0
   -0.9318   -1.9864    1.1317 H   0  0  0  0  0  0  0  0  0  0  0  0
   -2.0013   -2.2533   -0.2740 H   0  0  0  0  0  0  0  0  0  0  0  0
   -2.9475   -0.0883    0.7021 H   0  0  0  0  0  0  0  0  0  0  0  0
   -0.7959    2.8963   -0.4296 H   0  0  0  0  0  0  0  0  0  0  0  0
  1  2  1  0
  2  3  1  0
  3  4  1  0
  4  5  1  0
  5  6  1  0
  6  7  2  0
  7  8  1  0
  8  9  2  0
  7  3  1  0
  1 10  1  0
  1 11  1  0
  1 12  1  0
  2 13  1  0
  2 14  1  0
  3 15  1  0
  4 16  1  0
  4 17  1  0
  5 18  1  0
  5 19  1  0
  6 20  1  0
  8 21  1  0
M  END
