
     RDKit          3D

 21 22  0  0  0  0  0  0  0  0999 V2000
   -1.4848    1.4634    0.3574 C   0  0  0  0  0  0  0  0  0  0  0  0
   -1.5776    0.0332   -0.0137 C   0  0  0  0  0  0  0  0  0  0  0  0
   -0.3529   -0.6867   -0.3202 C   0  0  0  0  0  0  0  0  0  0  0  0
   -0.5701   -2.1497   -0.6884 C   0  0  0  0  0  0  0  0  0  0  0  0
    0.4892   -2.5579    0.0955 O   0  0  0  0  0  0  0  0  0  0  0  0
    0.5981   -1.2811    0.5846 C   0  0  0  0  0  0  0  0  0  0  0  0
    1.0035   -0.2038   -0.4358 C   0  0  0  0  0  0  0  0  0  0  0  0
    1.6275    0.9793    0.1583 C   0  0  0  0  0  0  0  0  0  0  0  0
    2.9891    1.0722   -0.2206 O   0  0  0  0  0  0  0  0  0  0  0  0
   -1.2127    2.1127   -0.5231 H   0  0  0  0  0  0  0  0  0  0  0  0
   -2.5333    1.8037    0.6161 H   0  0  0  0  0  0  0  0  0  0  0  0
   -0.8801    1.6662    1.2428 H   0  0  0  0  0  0  0  0  0  0  0  0
   -2.1320   -0.4958    0.8177 H   0  0  0  0  0  0  0  0  0  0  0  0
   -2.2879   -0.0461   -0.8890 H   0  0  0  0  0  0  0  0  0  0  0  0
   -0.4481   -2.2931   -1.7707 H   0  0  0  0  0  0  0  0  0  0  0  0
   -1.5289   -2.5745   -0.2688 H   0  0  0  0  0  0  0  0  0  0  0  0
    0.6572   -1.0568    1.6476 H   0  0  0  0  0  0  0  0  0  0  0  0
    1.5752   -0.6269   -1.3200 H   0  0  0  0  0  0  0  0  0  0  0  0
    1.6571    0.8828    1.2624 H   0  0  0  0  0  0  0  0  0  0  0  0
    1.1313    1.9470   -0.0359 H   0  0  0  0  0  0  0  0  0  0  0  0
    3.2801    2.0119   -0.2960 H   0  0  0  0  0  0  0  0  0  0  0  0
  1  2  1  0
  2  3  1  0
  3  4  1  0
  4  5  1  0
  5  6  1  0
  6  7  1  0
  7  8  1  0
  8  9  1  0
  6  3  1  0
  7  3  1  0
  1 10  1  0
  1 11  1  0
  1 12  1  0
  2 13  1  0
  2 14  1  0
  4 15  1  0
  4 16  1  0
  6 17  1  0
  7 18  1  0
  8 19  1  0
  8 20  1  0
  9 21  1  0
M  END
