
     RDKit          3D

 20 20  0  0  0  0  0  0  0  0999 V2000
    2.6896    0.3440   -0.1027 C   0  0  0  0  0  0  0  0  0  0  0  0
    1.6005   -0.5912   -0.5611 C   0  0  0  0  0  0  0  0  0  0  0  0
    0.3183    0.2158   -0.6712 C   0  0  0  0  0  0  0  0  0  0  0  0
   -0.6629   -0.6553   -1.0906 O   0  0  0  0  0  0  0  0  0  0  0  0
   -1.9521   -0.1884   -0.8930 C   0  0  0  0  0  0  0  0  0  0  0  0
   -2.1792    0.1981    0.5689 C   0  0  0  0  0  0  0  0  0  0  0  0
   -0.8249   -0.0273    1.2551 C   0  0  0  0  0  0  0  0  0  0  0  0
    0.0741    0.7974    0.5572 O   0  0  0  0  0  0  0  0  0  0  0  0
    2.2342    1.0727    0.6079 H   0  0  0  0  0  0  0  0  0  0  0  0
    3.5140   -0.1526    0.4205 H   0  0  0  0  0  0  0  0  0  0  0  0
    3.0162    0.9280   -0.9860 H   0  0  0  0  0  0  0  0  0  0  0  0
    1.4662   -1.3599    0.2502 H   0  0  0  0  0  0  0  0  0  0  0  0
    1.8457   -1.1272   -1.4963 H   0  0  0  0  0  0  0  0  0  0  0  0
    0.4685    1.0270   -1.4120 H   0  0  0  0  0  0  0  0  0  0  0  0
   -2.2236    0.6376   -1.5791 H   0  0  0  0  0  0  0  0  0  0  0  0
   -2.6382   -1.0390   -1.0929 H   0  0  0  0  0  0  0  0  0  0  0  0
   -2.9219   -0.4366    1.0609 H   0  0  0  0  0  0  0  0  0  0  0  0
   -2.3856    1.2686    0.5903 H   0  0  0  0  0  0  0  0  0  0  0  0
   -0.5749   -1.1021    1.0299 H   0  0  0  0  0  0  0  0  0  0  0  0
   -0.8638    0.1902    2.3244 H   0  0  0  0  0  0  0  0  0  0  0  0
  1  2  1  0
  2  3  1  0
  3  4  1  0
  4  5  1  0
  5  6  1  0
  6  7  1  0
  7  8  1  0
  8  3  1  0
  1  9  1  0
  1 10  1  0
  1 11  1  0
  2 12  1  0
  2 13  1  0
  3 14  1  0
  5 15  1  0
  5 16  1  0
  6 17  1  0
  6 18  1  0
  7 19  1  0
  7 20  1  0
M  END
