
     RDKit          3D

 23 23  0  0  0  0  0  0  0  0999 V2000
    2.2070    1.3227   -0.1632 C   0  0  0  0  0  0  0  0  0  0  0  0
    1.8241   -0.0902   -0.1382 C   0  0  0  0  0  0  0  0  0  0  0  0
    0.4254   -0.4888   -0.0199 C   0  0  0  0  0  0  0  0  0  0  0  0
   -0.7050    0.1841    0.0647 C   0  0  0  0  0  0  0  0  0  0  0  0
   -0.9205    1.6324    0.0666 C   0  0  0  0  0  0  0  0  0  0  0  0
   -1.5524    2.0619    1.2619 O   0  0  0  0  0  0  0  0  0  0  0  0
   -1.8900   -0.7697    0.1556 C   0  0  0  0  0  0  0  0  0  0  0  0
   -1.3147   -1.9812   -0.5653 C   0  0  0  0  0  0  0  0  0  0  0  0
    0.0645   -1.9628    0.0423 C   0  0  0  0  0  0  0  0  0  0  0  0
    2.0337    1.8902   -1.0926 H   0  0  0  0  0  0  0  0  0  0  0  0
    3.3534    1.3193   -0.1095 H   0  0  0  0  0  0  0  0  0  0  0  0
    1.9405    1.8554    0.7734 H   0  0  0  0  0  0  0  0  0  0  0  0
    2.3431   -0.5354    0.7730 H   0  0  0  0  0  0  0  0  0  0  0  0
    2.3595   -0.6102   -0.9812 H   0  0  0  0  0  0  0  0  0  0  0  0
   -0.1151    2.2734   -0.2594 H   0  0  0  0  0  0  0  0  0  0  0  0
   -1.7481    1.8553   -0.6934 H   0  0  0  0  0  0  0  0  0  0  0  0
   -1.1259    2.9293    1.4829 H   0  0  0  0  0  0  0  0  0  0  0  0
   -2.7581   -0.3412   -0.3431 H   0  0  0  0  0  0  0  0  0  0  0  0
   -2.0079   -0.9888    1.2241 H   0  0  0  0  0  0  0  0  0  0  0  0
   -1.9079   -2.8560   -0.2687 H   0  0  0  0  0  0  0  0  0  0  0  0
   -1.2894   -1.8073   -1.6520 H   0  0  0  0  0  0  0  0  0  0  0  0
    0.7238   -2.5535   -0.6182 H   0  0  0  0  0  0  0  0  0  0  0  0
    0.0597   -2.3387    1.0602 H   0  0  0  0  0  0  0  0  0  0  0  0
  1  2  1  0
  2  3  1  0
  3  4  2  0
  4  5  1  0
  5  6  1  0
  4  7  1  0
  7  8  1  0
  8  9  1  0
  9  3  1  0
  1 10  1  0
  1 11  1  0
  1 12  1  0
  2 13  1  0
  2 14  1  0
  5 15  1  0
  5 16  1  0
  6 17  1  0
  7 18  1  0
  7 19  1  0
  8 20  1  0
  8 21  1  0
  9 22  1  0
  9 23  1  0
M  END
