
     RDKit          3D

 25 26  0  0  0  0  0  0  0  0999 V2000
    2.5240    0.7427   -0.1564 C   0  0  0  0  0  0  0  0  0  0  0  0
    1.3772    0.2596    0.6915 C   0  0  0  0  0  0  0  0  0  0  0  0
    0.2538   -0.3234   -0.1146 C   0  0  0  0  0  0  0  0  0  0  0  0
    0.6653   -1.5058   -0.9415 C   0  0  0  0  0  0  0  0  0  0  0  0
   -0.4019    0.6704   -1.0283 C   0  0  0  0  0  0  0  0  0  0  0  0
   -1.8783    0.6435   -0.7516 C   0  0  0  0  0  0  0  0  0  0  0  0
   -2.0930   -0.1943    0.4721 C   0  0  0  0  0  0  0  0  0  0  0  0
   -1.4513    0.2416    1.7316 C   0  0  0  0  0  0  0  0  0  0  0  0
   -0.8068   -0.7991    0.8575 C   0  0  0  0  0  0  0  0  0  0  0  0
    3.2353    1.2587    0.5462 H   0  0  0  0  0  0  0  0  0  0  0  0
    2.2148    1.5320   -0.8767 H   0  0  0  0  0  0  0  0  0  0  0  0
    2.9846   -0.1361   -0.6434 H   0  0  0  0  0  0  0  0  0  0  0  0
    1.7762   -0.5583    1.3341 H   0  0  0  0  0  0  0  0  0  0  0  0
    0.9700    1.0243    1.3669 H   0  0  0  0  0  0  0  0  0  0  0  0
    1.1847   -2.2954   -0.3665 H   0  0  0  0  0  0  0  0  0  0  0  0
   -0.2893   -1.9666   -1.3290 H   0  0  0  0  0  0  0  0  0  0  0  0
    1.2319   -1.1527   -1.8234 H   0  0  0  0  0  0  0  0  0  0  0  0
    0.0593    1.6606   -0.9157 H   0  0  0  0  0  0  0  0  0  0  0  0
   -0.2748    0.3922   -2.1156 H   0  0  0  0  0  0  0  0  0  0  0  0
   -2.1955    1.6904   -0.5409 H   0  0  0  0  0  0  0  0  0  0  0  0
   -2.4753    0.2426   -1.5961 H   0  0  0  0  0  0  0  0  0  0  0  0
   -3.0412   -0.7874    0.5235 H   0  0  0  0  0  0  0  0  0  0  0  0
   -1.0425    1.2837    1.7257 H   0  0  0  0  0  0  0  0  0  0  0  0
   -1.7880   -0.0928    2.7162 H   0  0  0  0  0  0  0  0  0  0  0  0
   -0.7392   -1.8302    1.2344 H   0  0  0  0  0  0  0  0  0  0  0  0
  1  2  1  0
  2  3  1  0
  3  4  1  0
  3  5  1  0
  5  6  1  0
  6  7  1  0
  7  8  1  0
  8  9  1  0
  9  3  1  0
  9  7  1  0
  1 10  1  0
  1 11  1  0
  1 12  1  0
  2 13  1  0
  2 14  1  0
  4 15  1  0
  4 16  1  0
  4 17  1  0
  5 18  1  0
  5 19  1  0
  6 20  1  0
  6 21  1  0
  7 22  1  0
  8 23  1  0
  8 24  1  0
  9 25  1  0
M  END
