
     RDKit          3D

 23 23  0  0  0  0  0  0  0  0999 V2000
    2.6617    0.4915   -0.5399 C   0  0  0  0  0  0  0  0  0  0  0  0
    1.8190   -0.1905    0.4872 C   0  0  0  0  0  0  0  0  0  0  0  0
    0.3504    0.1470    0.3837 C   0  0  0  0  0  0  0  0  0  0  0  0
   -0.2614   -0.2236   -0.9230 C   0  0  0  0  0  0  0  0  0  0  0  0
   -1.4254    0.6308   -1.3227 C   0  0  0  0  0  0  0  0  0  0  0  0
   -2.3209    0.8814   -0.3097 O   0  0  0  0  0  0  0  0  0  0  0  0
   -2.4080   -0.1098    0.6404 C   0  0  0  0  0  0  0  0  0  0  0  0
   -1.5469    0.1031    1.7303 O   0  0  0  0  0  0  0  0  0  0  0  0
   -0.3799   -0.6106    1.4739 C   0  0  0  0  0  0  0  0  0  0  0  0
    3.3498    1.2438   -0.0516 H   0  0  0  0  0  0  0  0  0  0  0  0
    1.9823    1.0491   -1.2303 H   0  0  0  0  0  0  0  0  0  0  0  0
    3.2325   -0.2558   -1.1083 H   0  0  0  0  0  0  0  0  0  0  0  0
    2.1468    0.1407    1.5031 H   0  0  0  0  0  0  0  0  0  0  0  0
    1.9316   -1.2683    0.4104 H   0  0  0  0  0  0  0  0  0  0  0  0
    0.1850    1.2463    0.5366 H   0  0  0  0  0  0  0  0  0  0  0  0
   -0.6234   -1.2907   -0.8668 H   0  0  0  0  0  0  0  0  0  0  0  0
    0.4679   -0.2108   -1.7586 H   0  0  0  0  0  0  0  0  0  0  0  0
   -1.0337    1.6110   -1.6780 H   0  0  0  0  0  0  0  0  0  0  0  0
   -1.9281    0.1547   -2.1753 H   0  0  0  0  0  0  0  0  0  0  0  0
   -2.3348   -1.1270    0.2349 H   0  0  0  0  0  0  0  0  0  0  0  0
   -3.4460   -0.0337    1.0831 H   0  0  0  0  0  0  0  0  0  0  0  0
    0.2460   -0.7572    2.3756 H   0  0  0  0  0  0  0  0  0  0  0  0
   -0.6646   -1.6215    1.1048 H   0  0  0  0  0  0  0  0  0  0  0  0
  1  2  1  0
  2  3  1  0
  3  4  1  0
  4  5  1  0
  5  6  1  0
  6  7  1  0
  7  8  1  0
  8  9  1  0
  9  3  1  0
  1 10  1  0
  1 11  1  0
  1 12  1  0
  2 13  1  0
  2 14  1  0
  3 15  1  0
  4 16  1  0
  4 17  1  0
  5 18  1  0
  5 19  1  0
  7 20  1  0
  7 21  1  0
  9 22  1  0
  9 23  1  0
M  END
