
     RDKit          3D

 21 22  0  0  0  0  0  0  0  0999 V2000
    2.3354    0.6087    0.4310 C   0  0  0  0  0  0  0  0  0  0  0  0
    1.3591   -0.5388    0.5822 C   0  0  0  0  0  0  0  0  0  0  0  0
    0.3023   -0.4641   -0.5011 C   0  0  0  0  0  0  0  0  0  0  0  0
   -0.4888    0.7886   -0.4721 C   0  0  0  0  0  0  0  0  0  0  0  0
    0.0931    1.8142    0.2648 O   0  0  0  0  0  0  0  0  0  0  0  0
   -1.8328    0.5019    0.1317 C   0  0  0  0  0  0  0  0  0  0  0  0
   -1.9633   -0.9873    0.1552 C   0  0  0  0  0  0  0  0  0  0  0  0
   -1.1587   -1.6906    1.0494 O   0  0  0  0  0  0  0  0  0  0  0  0
   -0.7070   -1.5406   -0.2830 C   0  0  0  0  0  0  0  0  0  0  0  0
    2.2276    1.0495   -0.5993 H   0  0  0  0  0  0  0  0  0  0  0  0
    3.3880    0.2566    0.4831 H   0  0  0  0  0  0  0  0  0  0  0  0
    2.2092    1.3960    1.1752 H   0  0  0  0  0  0  0  0  0  0  0  0
    1.9454   -1.4769    0.4094 H   0  0  0  0  0  0  0  0  0  0  0  0
    0.9300   -0.6137    1.5896 H   0  0  0  0  0  0  0  0  0  0  0  0
    0.7848   -0.6079   -1.4819 H   0  0  0  0  0  0  0  0  0  0  0  0
   -0.6514    1.1645   -1.5226 H   0  0  0  0  0  0  0  0  0  0  0  0
   -0.6466    2.4386    0.4965 H   0  0  0  0  0  0  0  0  0  0  0  0
   -1.9433    0.9646    1.1469 H   0  0  0  0  0  0  0  0  0  0  0  0
   -2.6600    0.8974   -0.5100 H   0  0  0  0  0  0  0  0  0  0  0  0
   -2.9122   -1.4403   -0.1869 H   0  0  0  0  0  0  0  0  0  0  0  0
   -0.6109   -2.5201   -0.7903 H   0  0  0  0  0  0  0  0  0  0  0  0
  1  2  1  0
  2  3  1  0
  3  4  1  0
  4  5  1  0
  4  6  1  0
  6  7  1  0
  7  8  1  0
  8  9  1  0
  9  3  1  0
  9  7  1  0
  1 10  1  0
  1 11  1  0
  1 12  1  0
  2 13  1  0
  2 14  1  0
  3 15  1  0
  4 16  1  0
  5 17  1  0
  6 18  1  0
  6 19  1  0
  7 20  1  0
  9 21  1  0
M  END
