
     RDKit          3D

 21 21  0  0  0  0  0  0  0  0999 V2000
    2.6899   -0.7632    0.1219 C   0  0  0  0  0  0  0  0  0  0  0  0
    1.5801    0.1279    0.6231 C   0  0  0  0  0  0  0  0  0  0  0  0
    0.3663    0.0694   -0.2979 C   0  0  0  0  0  0  0  0  0  0  0  0
   -0.1053   -1.2159   -0.3617 O   0  0  0  0  0  0  0  0  0  0  0  0
   -1.4216   -1.3167   -0.7920 C   0  0  0  0  0  0  0  0  0  0  0  0
   -2.3263   -0.6257    0.1914 C   0  0  0  0  0  0  0  0  0  0  0  0
   -1.8980    0.5532    0.6348 C   0  0  0  0  0  0  0  0  0  0  0  0
   -0.6170    1.0908    0.1574 C   0  0  0  0  0  0  0  0  0  0  0  0
   -0.9004    2.0067   -0.8812 O   0  0  0  0  0  0  0  0  0  0  0  0
    3.0532   -0.3243   -0.8396 H   0  0  0  0  0  0  0  0  0  0  0  0
    2.3713   -1.8077   -0.0348 H   0  0  0  0  0  0  0  0  0  0  0  0
    3.5209   -0.7120    0.8265 H   0  0  0  0  0  0  0  0  0  0  0  0
    1.9575    1.1845    0.5432 H   0  0  0  0  0  0  0  0  0  0  0  0
    1.3240   -0.0305    1.6749 H   0  0  0  0  0  0  0  0  0  0  0  0
    0.7715    0.3179   -1.3221 H   0  0  0  0  0  0  0  0  0  0  0  0
   -1.7045   -2.3677   -0.8128 H   0  0  0  0  0  0  0  0  0  0  0  0
   -1.6041   -0.8697   -1.7775 H   0  0  0  0  0  0  0  0  0  0  0  0
   -3.2537   -1.0276    0.5293 H   0  0  0  0  0  0  0  0  0  0  0  0
   -2.5178    1.0819    1.3419 H   0  0  0  0  0  0  0  0  0  0  0  0
   -0.2004    1.7294    0.9881 H   0  0  0  0  0  0  0  0  0  0  0  0
   -1.0854    2.8993   -0.5129 H   0  0  0  0  0  0  0  0  0  0  0  0
  1  2  1  0
  2  3  1  0
  3  4  1  0
  4  5  1  0
  5  6  1  0
  6  7  2  0
  7  8  1  0
  8  9  1  0
  8  3  1  0
  1 10  1  0
  1 11  1  0
  1 12  1  0
  2 13  1  0
  2 14  1  0
  3 15  1  0
  5 16  1  0
  5 17  1  0
  6 18  1  0
  7 19  1  0
  8 20  1  0
  9 21  1  0
M  END
