
     RDKit          3D

 23 23  0  0  0  0  0  0  0  0999 V2000
   -1.9144   -0.9296    0.6517 C   0  0  0  0  0  0  0  0  0  0  0  0
   -1.6527   -0.1213   -0.5482 C   0  0  0  0  0  0  0  0  0  0  0  0
   -0.3164    0.5212   -0.6642 C   0  0  0  0  0  0  0  0  0  0  0  0
   -0.3059    1.2337   -1.8852 O   0  0  0  0  0  0  0  0  0  0  0  0
    0.0987    1.4303    0.4118 C   0  0  0  0  0  0  0  0  0  0  0  0
    1.2367    0.7691    1.1873 C   0  0  0  0  0  0  0  0  0  0  0  0
    1.8678   -0.1239    0.1563 C   0  0  0  0  0  0  0  0  0  0  0  0
    2.4254   -1.2758    0.6988 O   0  0  0  0  0  0  0  0  0  0  0  0
    0.7696   -0.5284   -0.7960 C   0  0  0  0  0  0  0  0  0  0  0  0
   -1.7807   -2.0317    0.4417 H   0  0  0  0  0  0  0  0  0  0  0  0
   -2.9973   -0.8531    0.9661 H   0  0  0  0  0  0  0  0  0  0  0  0
   -1.3258   -0.7206    1.5386 H   0  0  0  0  0  0  0  0  0  0  0  0
   -1.7677   -0.7889   -1.4523 H   0  0  0  0  0  0  0  0  0  0  0  0
   -2.4684    0.6327   -0.6616 H   0  0  0  0  0  0  0  0  0  0  0  0
   -0.5078    0.5525   -2.5819 H   0  0  0  0  0  0  0  0  0  0  0  0
   -0.7032    1.7766    1.0915 H   0  0  0  0  0  0  0  0  0  0  0  0
    0.5499    2.3710   -0.0021 H   0  0  0  0  0  0  0  0  0  0  0  0
    0.8228    0.2192    2.0460 H   0  0  0  0  0  0  0  0  0  0  0  0
    1.9874    1.5259    1.5136 H   0  0  0  0  0  0  0  0  0  0  0  0
    2.6610    0.4670   -0.3719 H   0  0  0  0  0  0  0  0  0  0  0  0
    1.7887   -2.0152    0.6064 H   0  0  0  0  0  0  0  0  0  0  0  0
    0.3367   -1.5172   -0.5463 H   0  0  0  0  0  0  0  0  0  0  0  0
    1.1955   -0.5933   -1.8000 H   0  0  0  0  0  0  0  0  0  0  0  0
  1  2  1  0
  2  3  1  0
  3  4  1  0
  3  5  1  0
  5  6  1  0
  6  7  1  0
  7  8  1  0
  7  9  1  0
  9  3  1  0
  1 10  1  0
  1 11  1  0
  1 12  1  0
  2 13  1  0
  2 14  1  0
  4 15  1  0
  5 16  1  0
  5 17  1  0
  6 18  1  0
  6 19  1  0
  7 20  1  0
  8 21  1  0
  9 22  1  0
  9 23  1  0
M  END
