
     RDKit          3D

 20 20  0  0  0  0  0  0  0  0999 V2000
    2.3569    0.5756    0.0951 C   0  0  0  0  0  0  0  0  0  0  0  0
    1.2583    0.1027   -0.8013 C   0  0  0  0  0  0  0  0  0  0  0  0
   -0.0033   -0.2521   -0.0457 C   0  0  0  0  0  0  0  0  0  0  0  0
    0.2206   -1.3518    0.9608 C   0  0  0  0  0  0  0  0  0  0  0  0
   -0.9309   -0.7009   -0.9701 O   0  0  0  0  0  0  0  0  0  0  0  0
   -2.1446   -0.1508   -0.6696 C   0  0  0  0  0  0  0  0  0  0  0  0
   -1.8086    1.0486    0.1810 C   0  0  0  0  0  0  0  0  0  0  0  0
   -0.5299    0.8229    0.6147 O   0  0  0  0  0  0  0  0  0  0  0  0
    2.3820   -0.0029    1.0653 H   0  0  0  0  0  0  0  0  0  0  0  0
    3.3613    0.3903   -0.3578 H   0  0  0  0  0  0  0  0  0  0  0  0
    2.3037    1.6736    0.3144 H   0  0  0  0  0  0  0  0  0  0  0  0
    1.6119   -0.7300   -1.4313 H   0  0  0  0  0  0  0  0  0  0  0  0
    0.9712    0.9340   -1.4985 H   0  0  0  0  0  0  0  0  0  0  0  0
   -0.7875   -1.6576    1.3273 H   0  0  0  0  0  0  0  0  0  0  0  0
    0.7366   -2.2091    0.4699 H   0  0  0  0  0  0  0  0  0  0  0  0
    0.7706   -0.9935    1.8577 H   0  0  0  0  0  0  0  0  0  0  0  0
   -2.8513   -0.8322   -0.1800 H   0  0  0  0  0  0  0  0  0  0  0  0
   -2.6253    0.2376   -1.5943 H   0  0  0  0  0  0  0  0  0  0  0  0
   -1.8138    1.9997   -0.4051 H   0  0  0  0  0  0  0  0  0  0  0  0
   -2.4778    1.0961    1.0674 H   0  0  0  0  0  0  0  0  0  0  0  0
  1  2  1  0
  2  3  1  0
  3  4  1  0
  3  5  1  0
  5  6  1  0
  6  7  1  0
  7  8  1  0
  8  3  1  0
  1  9  1  0
  1 10  1  0
  1 11  1  0
  2 12  1  0
  2 13  1  0
  4 14  1  0
  4 15  1  0
  4 16  1  0
  6 17  1  0
  6 18  1  0
  7 19  1  0
  7 20  1  0
M  END
