
     RDKit          3D

 25 25  0  0  0  0  0  0  0  0999 V2000
    3.2840   -0.5204   -0.0881 C   0  0  0  0  0  0  0  0  0  0  0  0
    2.2647    0.5485    0.2017 C   0  0  0  0  0  0  0  0  0  0  0  0
    0.8689    0.0476    0.0530 C   0  0  0  0  0  0  0  0  0  0  0  0
    0.5893   -1.1820   -0.2903 C   0  0  0  0  0  0  0  0  0  0  0  0
   -0.7698   -1.7494   -0.4573 C   0  0  0  0  0  0  0  0  0  0  0  0
   -1.8716   -0.7682   -0.3956 C   0  0  0  0  0  0  0  0  0  0  0  0
   -1.5113    0.6550   -0.3580 C   0  0  0  0  0  0  0  0  0  0  0  0
   -2.6107    1.4512    0.3270 C   0  0  0  0  0  0  0  0  0  0  0  0
   -0.2208    0.9976    0.3091 C   0  0  0  0  0  0  0  0  0  0  0  0
    3.3268   -0.7092   -1.1907 H   0  0  0  0  0  0  0  0  0  0  0  0
    3.1540   -1.4288    0.5071 H   0  0  0  0  0  0  0  0  0  0  0  0
    4.2797   -0.0932    0.1912 H   0  0  0  0  0  0  0  0  0  0  0  0
    2.4552    1.3912   -0.4903 H   0  0  0  0  0  0  0  0  0  0  0  0
    2.4616    0.9245    1.2336 H   0  0  0  0  0  0  0  0  0  0  0  0
    1.4200   -1.8674   -0.4750 H   0  0  0  0  0  0  0  0  0  0  0  0
   -0.7704   -2.3427   -1.4188 H   0  0  0  0  0  0  0  0  0  0  0  0
   -0.8690   -2.5454    0.3386 H   0  0  0  0  0  0  0  0  0  0  0  0
   -2.5543   -0.9616   -1.2747 H   0  0  0  0  0  0  0  0  0  0  0  0
   -2.5150   -1.0133    0.5003 H   0  0  0  0  0  0  0  0  0  0  0  0
   -1.4668    1.0439   -1.4104 H   0  0  0  0  0  0  0  0  0  0  0  0
   -3.6076    1.1485   -0.0675 H   0  0  0  0  0  0  0  0  0  0  0  0
   -2.4897    2.5342    0.0653 H   0  0  0  0  0  0  0  0  0  0  0  0
   -2.5949    1.3520    1.4136 H   0  0  0  0  0  0  0  0  0  0  0  0
   -0.3549    1.0947    1.4012 H   0  0  0  0  0  0  0  0  0  0  0  0
    0.1024    1.9929   -0.0763 H   0  0  0  0  0  0  0  0  0  0  0  0
  1  2  1  0
  2  3  1  0
  3  4  2  0
  4  5  1  0
  5  6  1  0
  6  7  1  0
  7  8  1  0
  7  9  1  0
  9  3  1  0
  1 10  1  0
  1 11  1  0
  1 12  1  0
  2 13  1  0
  2 14  1  0
  4 15  1  0
  5 16  1  0
  5 17  1  0
  6 18  1  0
  6 19  1  0
  7 20  1  0
  8 21  1  0
  8 22  1  0
  8 23  1  0
  9 24  1  0
  9 25  1  0
M  END
