
     RDKit          3D

 21 21  0  0  0  0  0  0  0  0999 V2000
    2.2727   -0.2929   -0.1165 C   0  0  0  0  0  0  0  0  0  0  0  0
    0.8900   -0.6545   -0.5588 C   0  0  0  0  0  0  0  0  0  0  0  0
   -0.0987    0.2912    0.0311 C   0  0  0  0  0  0  0  0  0  0  0  0
   -1.5404    0.0609   -0.3198 C   0  0  0  0  0  0  0  0  0  0  0  0
   -2.0651   -1.2693    0.0919 C   0  0  0  0  0  0  0  0  0  0  0  0
    0.2810    1.7508   -0.1857 C   0  0  0  0  0  0  0  0  0  0  0  0
   -0.3103    1.9666    1.0845 O   0  0  0  0  0  0  0  0  0  0  0  0
    0.1200    0.6921    1.4352 C   0  0  0  0  0  0  0  0  0  0  0  0
    0.5285    0.0601    2.4441 O   0  0  0  0  0  0  0  0  0  0  0  0
    2.9468   -1.1810   -0.1565 H   0  0  0  0  0  0  0  0  0  0  0  0
    2.6991    0.4518   -0.7994 H   0  0  0  0  0  0  0  0  0  0  0  0
    2.2890    0.1341    0.9056 H   0  0  0  0  0  0  0  0  0  0  0  0
    0.8328   -0.5698   -1.6770 H   0  0  0  0  0  0  0  0  0  0  0  0
    0.6110   -1.6952   -0.3229 H   0  0  0  0  0  0  0  0  0  0  0  0
   -1.6666    0.2222   -1.4181 H   0  0  0  0  0  0  0  0  0  0  0  0
   -2.1346    0.8406    0.2267 H   0  0  0  0  0  0  0  0  0  0  0  0
   -3.1581   -1.1759    0.2525 H   0  0  0  0  0  0  0  0  0  0  0  0
   -1.9487   -2.0480   -0.7048 H   0  0  0  0  0  0  0  0  0  0  0  0
   -1.6359   -1.6200    1.0444 H   0  0  0  0  0  0  0  0  0  0  0  0
   -0.2893    2.1450   -1.0423 H   0  0  0  0  0  0  0  0  0  0  0  0
    1.3767    1.8912   -0.2143 H   0  0  0  0  0  0  0  0  0  0  0  0
  1  2  1  0
  2  3  1  0
  3  4  1  0
  4  5  1  0
  3  6  1  0
  6  7  1  0
  7  8  1  0
  8  9  2  0
  8  3  1  0
  1 10  1  0
  1 11  1  0
  1 12  1  0
  2 13  1  0
  2 14  1  0
  4 15  1  0
  4 16  1  0
  5 17  1  0
  5 18  1  0
  5 19  1  0
  6 20  1  0
  6 21  1  0
M  END
