
     RDKit          3D

 21 22  0  0  0  0  0  0  0  0999 V2000
    2.3731    0.0408    1.2092 C   0  0  0  0  0  0  0  0  0  0  0  0
    1.8110    0.6322   -0.0543 C   0  0  0  0  0  0  0  0  0  0  0  0
    0.3962    0.2494   -0.3277 C   0  0  0  0  0  0  0  0  0  0  0  0
   -0.2121    0.8044   -1.5633 C   0  0  0  0  0  0  0  0  0  0  0  0
   -0.0291   -0.7129   -1.3214 C   0  0  0  0  0  0  0  0  0  0  0  0
   -1.1625   -1.3305   -0.8270 O   0  0  0  0  0  0  0  0  0  0  0  0
   -1.3844   -0.8647    0.4421 C   0  0  0  0  0  0  0  0  0  0  0  0
   -2.7051   -0.1568    0.6139 C   0  0  0  0  0  0  0  0  0  0  0  0
   -0.3700   -0.0122    0.7927 O   0  0  0  0  0  0  0  0  0  0  0  0
    2.0108   -0.9645    1.4376 H   0  0  0  0  0  0  0  0  0  0  0  0
    2.1902    0.6677    2.1053 H   0  0  0  0  0  0  0  0  0  0  0  0
    3.4929    0.0272    1.0829 H   0  0  0  0  0  0  0  0  0  0  0  0
    1.8315    1.7521    0.0851 H   0  0  0  0  0  0  0  0  0  0  0  0
    2.4537    0.4341   -0.9460 H   0  0  0  0  0  0  0  0  0  0  0  0
   -1.2319    1.1718   -1.6132 H   0  0  0  0  0  0  0  0  0  0  0  0
    0.4728    1.2331   -2.3076 H   0  0  0  0  0  0  0  0  0  0  0  0
    0.6056   -1.2413   -2.0327 H   0  0  0  0  0  0  0  0  0  0  0  0
   -1.4115   -1.7654    1.1219 H   0  0  0  0  0  0  0  0  0  0  0  0
   -2.6639    0.9066    0.3033 H   0  0  0  0  0  0  0  0  0  0  0  0
   -3.5212   -0.7195    0.0904 H   0  0  0  0  0  0  0  0  0  0  0  0
   -2.9461   -0.1515    1.7087 H   0  0  0  0  0  0  0  0  0  0  0  0
  1  2  1  0
  2  3  1  0
  3  4  1  0
  4  5  1  0
  5  6  1  0
  6  7  1  0
  7  8  1  0
  7  9  1  0
  5  3  1  0
  9  3  1  0
  1 10  1  0
  1 11  1  0
  1 12  1  0
  2 13  1  0
  2 14  1  0
  4 15  1  0
  4 16  1  0
  5 17  1  0
  7 18  1  0
  8 19  1  0
  8 20  1  0
  8 21  1  0
M  END
