
     RDKit          3D

 23 24  0  0  0  0  0  0  0  0999 V2000
    2.8631    0.2162    0.7170 C   0  0  0  0  0  0  0  0  0  0  0  0
    2.2176    0.2719   -0.6488 C   0  0  0  0  0  0  0  0  0  0  0  0
    0.7508    0.0789   -0.5941 C   0  0  0  0  0  0  0  0  0  0  0  0
   -0.1583    0.9493   -1.0077 C   0  0  0  0  0  0  0  0  0  0  0  0
   -1.5232    0.4524   -0.8135 C   0  0  0  0  0  0  0  0  0  0  0  0
   -2.1974    0.8686    0.4749 C   0  0  0  0  0  0  0  0  0  0  0  0
   -2.1724   -0.5737    0.9092 C   0  0  0  0  0  0  0  0  0  0  0  0
   -1.3589   -0.9414   -0.3063 C   0  0  0  0  0  0  0  0  0  0  0  0
    0.1063   -1.1458   -0.0547 C   0  0  0  0  0  0  0  0  0  0  0  0
    3.5901   -0.6437    0.7325 H   0  0  0  0  0  0  0  0  0  0  0  0
    2.1536    0.0748    1.5322 H   0  0  0  0  0  0  0  0  0  0  0  0
    3.4763    1.1166    0.9272 H   0  0  0  0  0  0  0  0  0  0  0  0
    2.5032    1.2429   -1.1032 H   0  0  0  0  0  0  0  0  0  0  0  0
    2.6772   -0.5065   -1.3246 H   0  0  0  0  0  0  0  0  0  0  0  0
    0.0582    1.9379   -1.4499 H   0  0  0  0  0  0  0  0  0  0  0  0
   -2.2236    0.5670   -1.6520 H   0  0  0  0  0  0  0  0  0  0  0  0
   -3.1966    1.2965    0.3872 H   0  0  0  0  0  0  0  0  0  0  0  0
   -1.5689    1.5010    1.1409 H   0  0  0  0  0  0  0  0  0  0  0  0
   -1.6359   -0.7554    1.8578 H   0  0  0  0  0  0  0  0  0  0  0  0
   -3.2001   -1.0085    0.8583 H   0  0  0  0  0  0  0  0  0  0  0  0
   -1.8453   -1.7080   -0.9507 H   0  0  0  0  0  0  0  0  0  0  0  0
    0.2583   -1.2680    1.0198 H   0  0  0  0  0  0  0  0  0  0  0  0
    0.4259   -2.0229   -0.6514 H   0  0  0  0  0  0  0  0  0  0  0  0
  1  2  1  0
  2  3  1  0
  3  4  2  0
  4  5  1  0
  5  6  1  0
  6  7  1  0
  7  8  1  0
  8  9  1  0
  9  3  1  0
  8  5  1  0
  1 10  1  0
  1 11  1  0
  1 12  1  0
  2 13  1  0
  2 14  1  0
  4 15  1  0
  5 16  1  0
  6 17  1  0
  6 18  1  0
  7 19  1  0
  7 20  1  0
  8 21  1  0
  9 22  1  0
  9 23  1  0
M  END
