
     RDKit          3D

 22 22  0  0  0  0  0  0  0  0999 V2000
   -1.4788   -1.8302    0.7131 C   0  0  0  0  0  0  0  0  0  0  0  0
   -1.2899   -0.8629   -0.4225 C   0  0  0  0  0  0  0  0  0  0  0  0
   -0.1357    0.1009   -0.1344 C   0  0  0  0  0  0  0  0  0  0  0  0
    1.1397   -0.6628    0.0525 C   0  0  0  0  0  0  0  0  0  0  0  0
    2.3193    0.2041    0.3386 C   0  0  0  0  0  0  0  0  0  0  0  0
   -0.0905    1.2653   -1.0763 C   0  0  0  0  0  0  0  0  0  0  0  0
   -0.6545    2.0742    0.0790 C   0  0  0  0  0  0  0  0  0  0  0  0
   -0.4944    0.9511    0.8833 O   0  0  0  0  0  0  0  0  0  0  0  0
   -1.0599   -2.8362    0.4973 H   0  0  0  0  0  0  0  0  0  0  0  0
   -1.0345   -1.4396    1.6689 H   0  0  0  0  0  0  0  0  0  0  0  0
   -2.5831   -1.9200    0.8826 H   0  0  0  0  0  0  0  0  0  0  0  0
   -2.1971   -0.2339   -0.6056 H   0  0  0  0  0  0  0  0  0  0  0  0
   -1.0790   -1.4234   -1.3577 H   0  0  0  0  0  0  0  0  0  0  0  0
    1.3052   -1.3165   -0.8124 H   0  0  0  0  0  0  0  0  0  0  0  0
    0.9930   -1.3285    0.9419 H   0  0  0  0  0  0  0  0  0  0  0  0
    3.2085   -0.4795    0.4369 H   0  0  0  0  0  0  0  0  0  0  0  0
    2.2079    0.6831    1.3294 H   0  0  0  0  0  0  0  0  0  0  0  0
    2.5679    0.9230   -0.4407 H   0  0  0  0  0  0  0  0  0  0  0  0
   -0.8000    1.1669   -1.9357 H   0  0  0  0  0  0  0  0  0  0  0  0
    0.8947    1.6423   -1.3583 H   0  0  0  0  0  0  0  0  0  0  0  0
   -1.6970    2.4019   -0.0906 H   0  0  0  0  0  0  0  0  0  0  0  0
   -0.0418    2.9208    0.4107 H   0  0  0  0  0  0  0  0  0  0  0  0
  1  2  1  0
  2  3  1  0
  3  4  1  0
  4  5  1  0
  3  6  1  0
  6  7  1  0
  7  8  1  0
  8  3  1  0
  1  9  1  0
  1 10  1  0
  1 11  1  0
  2 12  1  0
  2 13  1  0
  4 14  1  0
  4 15  1  0
  5 16  1  0
  5 17  1  0
  5 18  1  0
  6 19  1  0
  6 20  1  0
  7 21  1  0
  7 22  1  0
M  END
