
     RDKit          3D

 21 22  0  0  0  0  0  0  0  0999 V2000
    2.0883   -0.5819   -0.2585 C   0  0  0  0  0  0  0  0  0  0  0  0
    1.3504    0.6850    0.0322 C   0  0  0  0  0  0  0  0  0  0  0  0
   -0.1275    0.5172    0.1602 C   0  0  0  0  0  0  0  0  0  0  0  0
   -0.8868    1.8014    0.4556 C   0  0  0  0  0  0  0  0  0  0  0  0
   -1.0869    1.0649   -0.8178 C   0  0  0  0  0  0  0  0  0  0  0  0
   -2.1342    0.1630   -0.9273 O   0  0  0  0  0  0  0  0  0  0  0  0
   -1.6221   -1.1004   -0.6178 C   0  0  0  0  0  0  0  0  0  0  0  0
   -0.7488   -0.7599    0.5986 C   0  0  0  0  0  0  0  0  0  0  0  0
    0.1132   -1.7926    0.8315 O   0  0  0  0  0  0  0  0  0  0  0  0
    3.0726   -0.3516   -0.7569 H   0  0  0  0  0  0  0  0  0  0  0  0
    2.3795   -1.0532    0.7183 H   0  0  0  0  0  0  0  0  0  0  0  0
    1.5645   -1.2661   -0.9224 H   0  0  0  0  0  0  0  0  0  0  0  0
    1.5310    1.3931   -0.8238 H   0  0  0  0  0  0  0  0  0  0  0  0
    1.7667    1.1953    0.9229 H   0  0  0  0  0  0  0  0  0  0  0  0
   -1.6251    1.7088    1.2740 H   0  0  0  0  0  0  0  0  0  0  0  0
   -0.3341    2.7579    0.3702 H   0  0  0  0  0  0  0  0  0  0  0  0
   -0.7096    1.4693   -1.7520 H   0  0  0  0  0  0  0  0  0  0  0  0
   -0.9750   -1.4745   -1.4335 H   0  0  0  0  0  0  0  0  0  0  0  0
   -2.3865   -1.7979   -0.2908 H   0  0  0  0  0  0  0  0  0  0  0  0
   -1.4795   -0.6028    1.4374 H   0  0  0  0  0  0  0  0  0  0  0  0
    0.2496   -1.9750    1.8000 H   0  0  0  0  0  0  0  0  0  0  0  0
  1  2  1  0
  2  3  1  0
  3  4  1  0
  4  5  1  0
  5  6  1  0
  6  7  1  0
  7  8  1  0
  8  9  1  0
  5  3  1  0
  8  3  1  0
  1 10  1  0
  1 11  1  0
  1 12  1  0
  2 13  1  0
  2 14  1  0
  4 15  1  0
  4 16  1  0
  5 17  1  0
  7 18  1  0
  7 19  1  0
  8 20  1  0
  9 21  1  0
M  END
