
     RDKit          3D

 23 24  0  0  0  0  0  0  0  0999 V2000
   -2.3156   -0.1715   -0.3924 C   0  0  0  0  0  0  0  0  0  0  0  0
   -1.2197    0.6744   -0.9483 C   0  0  0  0  0  0  0  0  0  0  0  0
   -0.0453    0.6618    0.0213 C   0  0  0  0  0  0  0  0  0  0  0  0
    1.0965    1.5116   -0.4177 C   0  0  0  0  0  0  0  0  0  0  0  0
    2.2848    0.9042    0.2106 C   0  0  0  0  0  0  0  0  0  0  0  0
    2.0498   -0.2789    0.7140 C   0  0  0  0  0  0  0  0  0  0  0  0
    0.6048   -0.5820    0.4528 C   0  0  0  0  0  0  0  0  0  0  0  0
    0.2896   -1.9365   -0.0766 C   0  0  0  0  0  0  0  0  0  0  0  0
   -0.2974    0.1739    1.3716 C   0  0  0  0  0  0  0  0  0  0  0  0
   -3.1271   -0.2260   -1.1857 H   0  0  0  0  0  0  0  0  0  0  0  0
   -2.8041    0.4348    0.4162 H   0  0  0  0  0  0  0  0  0  0  0  0
   -2.0616   -1.1757   -0.0767 H   0  0  0  0  0  0  0  0  0  0  0  0
   -1.5424    1.7085   -1.1565 H   0  0  0  0  0  0  0  0  0  0  0  0
   -0.8394    0.2606   -1.9290 H   0  0  0  0  0  0  0  0  0  0  0  0
    1.0086    2.5744   -0.0938 H   0  0  0  0  0  0  0  0  0  0  0  0
    1.2311    1.4604   -1.5342 H   0  0  0  0  0  0  0  0  0  0  0  0
    3.2444    1.4618    0.2132 H   0  0  0  0  0  0  0  0  0  0  0  0
    2.7231   -0.9257    1.2150 H   0  0  0  0  0  0  0  0  0  0  0  0
    1.2802   -2.4988   -0.1575 H   0  0  0  0  0  0  0  0  0  0  0  0
   -0.1179   -1.9570   -1.1112 H   0  0  0  0  0  0  0  0  0  0  0  0
   -0.3019   -2.5314    0.6533 H   0  0  0  0  0  0  0  0  0  0  0  0
   -1.2765   -0.2760    1.5658 H   0  0  0  0  0  0  0  0  0  0  0  0
    0.1359    0.7329    2.2458 H   0  0  0  0  0  0  0  0  0  0  0  0
  1  2  1  0
  2  3  1  0
  3  4  1  0
  4  5  1  0
  5  6  2  0
  6  7  1  0
  7  8  1  0
  7  9  1  0
  7  3  1  0
  9  3  1  0
  1 10  1  0
  1 11  1  0
  1 12  1  0
  2 13  1  0
  2 14  1  0
  4 15  1  0
  4 16  1  0
  5 17  1  0
  6 18  1  0
  8 19  1  0
  8 20  1  0
  8 21  1  0
  9 22  1  0
  9 23  1  0
M  END
