
     RDKit          3D

 25 25  0  0  0  0  0  0  0  0999 V2000
   -1.9936    1.7950   -0.3758 C   0  0  0  0  0  0  0  0  0  0  0  0
   -0.9694    1.1023    0.5339 C   0  0  0  0  0  0  0  0  0  0  0  0
   -0.2197    0.0572   -0.2398 C   0  0  0  0  0  0  0  0  0  0  0  0
   -0.9684   -0.9768   -0.8037 O   0  0  0  0  0  0  0  0  0  0  0  0
   -1.6605   -1.7036    0.1543 C   0  0  0  0  0  0  0  0  0  0  0  0
    0.8291    0.6232   -1.2039 C   0  0  0  0  0  0  0  0  0  0  0  0
    1.2134   -0.2043   -0.0340 C   0  0  0  0  0  0  0  0  0  0  0  0
    1.9289    0.4101    1.1477 C   0  0  0  0  0  0  0  0  0  0  0  0
    1.7659   -1.5822   -0.4077 C   0  0  0  0  0  0  0  0  0  0  0  0
   -1.7050    1.7322   -1.4334 H   0  0  0  0  0  0  0  0  0  0  0  0
   -2.9749    1.2679   -0.2286 H   0  0  0  0  0  0  0  0  0  0  0  0
   -2.0977    2.8689   -0.1170 H   0  0  0  0  0  0  0  0  0  0  0  0
   -1.4938    0.7032    1.4141 H   0  0  0  0  0  0  0  0  0  0  0  0
   -0.2777    1.9294    0.8314 H   0  0  0  0  0  0  0  0  0  0  0  0
   -2.2203   -2.4950   -0.3860 H   0  0  0  0  0  0  0  0  0  0  0  0
   -0.9524   -2.2408    0.8358 H   0  0  0  0  0  0  0  0  0  0  0  0
   -2.3847   -1.0993    0.7159 H   0  0  0  0  0  0  0  0  0  0  0  0
    0.9912    1.7333   -1.1922 H   0  0  0  0  0  0  0  0  0  0  0  0
    0.9004    0.2059   -2.2143 H   0  0  0  0  0  0  0  0  0  0  0  0
    2.2878   -0.4292    1.8092 H   0  0  0  0  0  0  0  0  0  0  0  0
    1.2929    1.0425    1.7631 H   0  0  0  0  0  0  0  0  0  0  0  0
    2.8751    0.9212    0.8265 H   0  0  0  0  0  0  0  0  0  0  0  0
    1.9828   -2.1392    0.5392 H   0  0  0  0  0  0  0  0  0  0  0  0
    2.7629   -1.3874   -0.8714 H   0  0  0  0  0  0  0  0  0  0  0  0
    1.0874   -2.1343   -1.0634 H   0  0  0  0  0  0  0  0  0  0  0  0
  1  2  1  0
  2  3  1  0
  3  4  1  0
  4  5  1  0
  3  6  1  0
  6  7  1  0
  7  8  1  0
  7  9  1  0
  7  3  1  0
  1 10  1  0
  1 11  1  0
  1 12  1  0
  2 13  1  0
  2 14  1  0
  5 15  1  0
  5 16  1  0
  5 17  1  0
  6 18  1  0
  6 19  1  0
  8 20  1  0
  8 21  1  0
  8 22  1  0
  9 23  1  0
  9 24  1  0
  9 25  1  0
M  END
