
     RDKit          3D

 25 25  0  0  0  0  0  0  0  0999 V2000
    2.2948    0.7644    0.5877 C   0  0  0  0  0  0  0  0  0  0  0  0
    1.7565    0.2579   -0.6775 C   0  0  0  0  0  0  0  0  0  0  0  0
    0.3660   -0.2070   -0.7658 C   0  0  0  0  0  0  0  0  0  0  0  0
   -0.7037    0.8021   -0.4441 C   0  0  0  0  0  0  0  0  0  0  0  0
   -0.6491    1.3993    0.9116 C   0  0  0  0  0  0  0  0  0  0  0  0
   -1.9514   -0.0613   -0.5874 C   0  0  0  0  0  0  0  0  0  0  0  0
   -1.5157   -1.4762   -0.3214 C   0  0  0  0  0  0  0  0  0  0  0  0
   -0.0186   -1.4454   -0.0612 C   0  0  0  0  0  0  0  0  0  0  0  0
    0.1409   -1.4777    1.2899 O   0  0  0  0  0  0  0  0  0  0  0  0
    1.7596    0.5460    1.5034 H   0  0  0  0  0  0  0  0  0  0  0  0
    2.4430    1.8864    0.5677 H   0  0  0  0  0  0  0  0  0  0  0  0
    3.3507    0.3909    0.7699 H   0  0  0  0  0  0  0  0  0  0  0  0
    2.4315   -0.5530   -1.0578 H   0  0  0  0  0  0  0  0  0  0  0  0
    1.8720    1.0738   -1.4560 H   0  0  0  0  0  0  0  0  0  0  0  0
    0.1931   -0.4271   -1.8712 H   0  0  0  0  0  0  0  0  0  0  0  0
   -0.7078    1.6240   -1.2074 H   0  0  0  0  0  0  0  0  0  0  0  0
   -1.6390    1.9341    1.0495 H   0  0  0  0  0  0  0  0  0  0  0  0
   -0.6174    0.6781    1.7328 H   0  0  0  0  0  0  0  0  0  0  0  0
    0.1094    2.2048    0.9869 H   0  0  0  0  0  0  0  0  0  0  0  0
   -2.7247    0.2274    0.1549 H   0  0  0  0  0  0  0  0  0  0  0  0
   -2.3194    0.1011   -1.6194 H   0  0  0  0  0  0  0  0  0  0  0  0
   -2.0704   -1.9399    0.5420 H   0  0  0  0  0  0  0  0  0  0  0  0
   -1.6610   -2.0575   -1.2564 H   0  0  0  0  0  0  0  0  0  0  0  0
    0.4843   -2.3313   -0.5054 H   0  0  0  0  0  0  0  0  0  0  0  0
   -0.6238   -1.9140    1.7349 H   0  0  0  0  0  0  0  0  0  0  0  0
  1  2  1  0
  2  3  1  0
  3  4  1  0
  4  5  1  0
  4  6  1  0
  6  7  1  0
  7  8  1  0
  8  9  1  0
  8  3  1  0
  1 10  1  0
  1 11  1  0
  1 12  1  0
  2 13  1  0
  2 14  1  0
  3 15  1  0
  4 16  1  0
  5 17  1  0
  5 18  1  0
  5 19  1  0
  6 20  1  0
  6 21  1  0
  7 22  1  0
  7 23  1  0
  8 24  1  0
  9 25  1  0
M  END
