
     RDKit          3D

 23 25  0  0  0  0  0  0  0  0999 V2000
    2.5554    0.3539   -0.3832 C   0  0  0  0  0  0  0  0  0  0  0  0
    1.3837    0.5524    0.5632 C   0  0  0  0  0  0  0  0  0  0  0  0
    0.1461    0.4329   -0.0074 C   0  0  0  0  0  0  0  0  0  0  0  0
   -0.4307    1.2559   -1.1329 C   0  0  0  0  0  0  0  0  0  0  0  0
   -1.5191    0.2795   -0.8163 C   0  0  0  0  0  0  0  0  0  0  0  0
   -1.1934    0.5436    0.6335 C   0  0  0  0  0  0  0  0  0  0  0  0
   -1.4811   -0.7522    1.3420 C   0  0  0  0  0  0  0  0  0  0  0  0
   -0.8959   -1.7354    0.3094 C   0  0  0  0  0  0  0  0  0  0  0  0
   -0.4311   -0.7535   -0.7245 C   0  0  0  0  0  0  0  0  0  0  0  0
    3.2451    1.2043   -0.4150 H   0  0  0  0  0  0  0  0  0  0  0  0
    2.1636    0.1161   -1.4042 H   0  0  0  0  0  0  0  0  0  0  0  0
    3.1733   -0.5380   -0.1054 H   0  0  0  0  0  0  0  0  0  0  0  0
    1.5674   -0.1376    1.4197 H   0  0  0  0  0  0  0  0  0  0  0  0
    1.5494    1.5776    1.0151 H   0  0  0  0  0  0  0  0  0  0  0  0
    0.0839    1.1522   -2.0874 H   0  0  0  0  0  0  0  0  0  0  0  0
   -0.7083    2.2909   -0.8853 H   0  0  0  0  0  0  0  0  0  0  0  0
   -2.4244    0.1883   -1.2289 H   0  0  0  0  0  0  0  0  0  0  0  0
   -1.5111    1.4640    1.0738 H   0  0  0  0  0  0  0  0  0  0  0  0
   -2.5558   -0.8877    1.4509 H   0  0  0  0  0  0  0  0  0  0  0  0
   -0.9449   -0.8276    2.2966 H   0  0  0  0  0  0  0  0  0  0  0  0
   -0.0709   -2.3052    0.7447 H   0  0  0  0  0  0  0  0  0  0  0  0
   -1.7356   -2.3688   -0.0381 H   0  0  0  0  0  0  0  0  0  0  0  0
    0.0344   -1.1052   -1.6201 H   0  0  0  0  0  0  0  0  0  0  0  0
  1  2  1  0
  2  3  1  0
  3  4  1  0
  4  5  1  0
  5  6  1  0
  6  7  1  0
  7  8  1  0
  8  9  1  0
  6  3  1  0
  9  3  1  0
  9  5  1  0
  1 10  1  0
  1 11  1  0
  1 12  1  0
  2 13  1  0
  2 14  1  0
  4 15  1  0
  4 16  1  0
  5 17  1  0
  6 18  1  0
  7 19  1  0
  7 20  1  0
  8 21  1  0
  8 22  1  0
  9 23  1  0
M  END
