
     RDKit          3D

 25 25  0  0  0  0  0  0  0  0999 V2000
    1.7758   -1.3005    0.2734 C   0  0  0  0  0  0  0  0  0  0  0  0
    1.0473   -0.4708   -0.7160 C   0  0  0  0  0  0  0  0  0  0  0  0
    0.0796    0.5062   -0.1420 C   0  0  0  0  0  0  0  0  0  0  0  0
    0.6446    1.5400    0.7882 C   0  0  0  0  0  0  0  0  0  0  0  0
    1.2574    1.0294    1.9012 O   0  0  0  0  0  0  0  0  0  0  0  0
   -0.6438    1.2255   -1.2944 C   0  0  0  0  0  0  0  0  0  0  0  0
   -1.6772    0.1242   -1.2290 C   0  0  0  0  0  0  0  0  0  0  0  0
   -1.2690   -0.0289    0.2411 C   0  0  0  0  0  0  0  0  0  0  0  0
   -1.3095   -1.4606    0.6985 C   0  0  0  0  0  0  0  0  0  0  0  0
    2.8648   -1.0043    0.2648 H   0  0  0  0  0  0  0  0  0  0  0  0
    1.7751   -2.3840    0.0096 H   0  0  0  0  0  0  0  0  0  0  0  0
    1.4449   -1.2235    1.3074 H   0  0  0  0  0  0  0  0  0  0  0  0
    1.7643    0.0861   -1.3768 H   0  0  0  0  0  0  0  0  0  0  0  0
    0.4887   -1.1451   -1.3980 H   0  0  0  0  0  0  0  0  0  0  0  0
   -0.1775    2.2163    1.0997 H   0  0  0  0  0  0  0  0  0  0  0  0
    1.4044    2.1725    0.2483 H   0  0  0  0  0  0  0  0  0  0  0  0
    1.8328    1.7476    2.2881 H   0  0  0  0  0  0  0  0  0  0  0  0
   -0.0416    1.2809   -2.2002 H   0  0  0  0  0  0  0  0  0  0  0  0
   -1.0988    2.1732   -0.9326 H   0  0  0  0  0  0  0  0  0  0  0  0
   -2.7254    0.4361   -1.2986 H   0  0  0  0  0  0  0  0  0  0  0  0
   -1.4705   -0.7611   -1.8389 H   0  0  0  0  0  0  0  0  0  0  0  0
   -1.8118    0.6624    0.9013 H   0  0  0  0  0  0  0  0  0  0  0  0
   -0.8994   -1.5501    1.7039 H   0  0  0  0  0  0  0  0  0  0  0  0
   -2.3937   -1.7446    0.7555 H   0  0  0  0  0  0  0  0  0  0  0  0
   -0.8617   -2.1266   -0.0545 H   0  0  0  0  0  0  0  0  0  0  0  0
  1  2  1  0
  2  3  1  0
  3  4  1  0
  4  5  1  0
  3  6  1  0
  6  7  1  0
  7  8  1  0
  8  9  1  0
  8  3  1  0
  1 10  1  0
  1 11  1  0
  1 12  1  0
  2 13  1  0
  2 14  1  0
  4 15  1  0
  4 16  1  0
  5 17  1  0
  6 18  1  0
  6 19  1  0
  7 20  1  0
  7 21  1  0
  8 22  1  0
  9 23  1  0
  9 24  1  0
  9 25  1  0
M  END
