
     RDKit          3D

 21 21  0  0  0  0  0  0  0  0999 V2000
   -2.6995    0.0547    0.3424 C   0  0  0  0  0  0  0  0  0  0  0  0
   -1.4761   -0.2183   -0.5535 C   0  0  0  0  0  0  0  0  0  0  0  0
   -0.2644   -0.2451    0.2973 C   0  0  0  0  0  0  0  0  0  0  0  0
    0.1137    0.9903    1.1079 C   0  0  0  0  0  0  0  0  0  0  0  0
    0.9990    0.4433    0.0107 C   0  0  0  0  0  0  0  0  0  0  0  0
    1.1540    1.2365   -1.2149 C   0  0  0  0  0  0  0  0  0  0  0  0
    0.2289    1.8003   -1.7297 O   0  0  0  0  0  0  0  0  0  0  0  0
    2.2040   -0.1027    0.4982 O   0  0  0  0  0  0  0  0  0  0  0  0
    2.4172   -1.3780    0.0011 C   0  0  0  0  0  0  0  0  0  0  0  0
   -2.3143    0.6631    1.2126 H   0  0  0  0  0  0  0  0  0  0  0  0
   -3.4684    0.6190   -0.1955 H   0  0  0  0  0  0  0  0  0  0  0  0
   -3.0971   -0.8907    0.7654 H   0  0  0  0  0  0  0  0  0  0  0  0
   -1.6809   -1.2590   -0.9498 H   0  0  0  0  0  0  0  0  0  0  0  0
   -1.4975    0.4455   -1.4088 H   0  0  0  0  0  0  0  0  0  0  0  0
   -0.1860   -1.2208    0.8942 H   0  0  0  0  0  0  0  0  0  0  0  0
    0.4004    0.8441    2.1599 H   0  0  0  0  0  0  0  0  0  0  0  0
   -0.4036    1.9483    0.8803 H   0  0  0  0  0  0  0  0  0  0  0  0
    2.1438    1.3373   -1.7045 H   0  0  0  0  0  0  0  0  0  0  0  0
    1.5862   -2.0400    0.3050 H   0  0  0  0  0  0  0  0  0  0  0  0
    3.3903   -1.7211    0.4027 H   0  0  0  0  0  0  0  0  0  0  0  0
    2.4503   -1.3069   -1.1210 H   0  0  0  0  0  0  0  0  0  0  0  0
  1  2  1  0
  2  3  1  0
  3  4  1  0
  4  5  1  0
  5  6  1  0
  6  7  2  0
  5  8  1  0
  8  9  1  0
  5  3  1  0
  1 10  1  0
  1 11  1  0
  1 12  1  0
  2 13  1  0
  2 14  1  0
  3 15  1  0
  4 16  1  0
  4 17  1  0
  6 18  1  0
  9 19  1  0
  9 20  1  0
  9 21  1  0
M  END
