
     RDKit          3D

 23 23  0  0  0  0  0  0  0  0999 V2000
    2.9224    0.4437   -0.1488 C   0  0  0  0  0  0  0  0  0  0  0  0
    1.9014   -0.6019   -0.5982 C   0  0  0  0  0  0  0  0  0  0  0  0
    0.5182   -0.2067   -0.2023 C   0  0  0  0  0  0  0  0  0  0  0  0
   -0.0626   -1.0748    0.5906 C   0  0  0  0  0  0  0  0  0  0  0  0
   -1.4010   -1.0336    1.1806 C   0  0  0  0  0  0  0  0  0  0  0  0
   -2.3773   -0.5065    0.1499 C   0  0  0  0  0  0  0  0  0  0  0  0
   -2.0830    0.9897    0.0252 C   0  0  0  0  0  0  0  0  0  0  0  0
   -1.2664    1.1468   -1.0630 O   0  0  0  0  0  0  0  0  0  0  0  0
    0.0878    1.0875   -0.7881 C   0  0  0  0  0  0  0  0  0  0  0  0
    2.5267    1.4467   -0.3384 H   0  0  0  0  0  0  0  0  0  0  0  0
    3.1938    0.2706    0.9274 H   0  0  0  0  0  0  0  0  0  0  0  0
    3.8236    0.2624   -0.7971 H   0  0  0  0  0  0  0  0  0  0  0  0
    2.1731   -1.6009   -0.2122 H   0  0  0  0  0  0  0  0  0  0  0  0
    1.9781   -0.6649   -1.7035 H   0  0  0  0  0  0  0  0  0  0  0  0
    0.5380   -1.9367    0.8368 H   0  0  0  0  0  0  0  0  0  0  0  0
   -1.4673   -0.3336    2.0579 H   0  0  0  0  0  0  0  0  0  0  0  0
   -1.7121   -2.0282    1.5848 H   0  0  0  0  0  0  0  0  0  0  0  0
   -2.1336   -1.0389   -0.8045 H   0  0  0  0  0  0  0  0  0  0  0  0
   -3.4344   -0.6893    0.4298 H   0  0  0  0  0  0  0  0  0  0  0  0
   -3.0695    1.5023   -0.1665 H   0  0  0  0  0  0  0  0  0  0  0  0
   -1.7019    1.4169    0.9641 H   0  0  0  0  0  0  0  0  0  0  0  0
    0.6095    1.2021   -1.7619 H   0  0  0  0  0  0  0  0  0  0  0  0
    0.4366    1.9471   -0.1628 H   0  0  0  0  0  0  0  0  0  0  0  0
  1  2  1  0
  2  3  1  0
  3  4  2  0
  4  5  1  0
  5  6  1  0
  6  7  1  0
  7  8  1  0
  8  9  1  0
  9  3  1  0
  1 10  1  0
  1 11  1  0
  1 12  1  0
  2 13  1  0
  2 14  1  0
  4 15  1  0
  5 16  1  0
  5 17  1  0
  6 18  1  0
  6 19  1  0
  7 20  1  0
  7 21  1  0
  9 22  1  0
  9 23  1  0
M  END
