
     RDKit          3D

 25 25  0  0  0  0  0  0  0  0999 V2000
   -3.2304    0.3411   -0.7066 C   0  0  0  0  0  0  0  0  0  0  0  0
   -2.9520   -0.9932   -0.0957 C   0  0  0  0  0  0  0  0  0  0  0  0
   -1.5853   -1.1237    0.5028 C   0  0  0  0  0  0  0  0  0  0  0  0
   -1.2277   -0.2480    1.5421 O   0  0  0  0  0  0  0  0  0  0  0  0
   -0.5117   -0.1497    0.2730 C   0  0  0  0  0  0  0  0  0  0  0  0
    0.8984   -0.6342    0.2867 C   0  0  0  0  0  0  0  0  0  0  0  0
    1.9066    0.4643    0.0379 C   0  0  0  0  0  0  0  0  0  0  0  0
    3.3111   -0.1013    0.0664 C   0  0  0  0  0  0  0  0  0  0  0  0
    1.8358    1.5442    1.0897 C   0  0  0  0  0  0  0  0  0  0  0  0
   -4.1455    0.2198   -1.3576 H   0  0  0  0  0  0  0  0  0  0  0  0
   -2.4227    0.7232   -1.3429 H   0  0  0  0  0  0  0  0  0  0  0  0
   -3.5603    1.0867    0.0726 H   0  0  0  0  0  0  0  0  0  0  0  0
   -3.7091   -1.1896    0.6927 H   0  0  0  0  0  0  0  0  0  0  0  0
   -3.0360   -1.7562   -0.9003 H   0  0  0  0  0  0  0  0  0  0  0  0
   -1.2632   -2.1970    0.6231 H   0  0  0  0  0  0  0  0  0  0  0  0
   -0.7418    0.8403   -0.1931 H   0  0  0  0  0  0  0  0  0  0  0  0
    1.0060   -1.4040   -0.5043 H   0  0  0  0  0  0  0  0  0  0  0  0
    1.1842   -1.1399    1.2460 H   0  0  0  0  0  0  0  0  0  0  0  0
    1.6974    0.9079   -0.9680 H   0  0  0  0  0  0  0  0  0  0  0  0
    4.0212    0.6863   -0.2665 H   0  0  0  0  0  0  0  0  0  0  0  0
    3.4128   -0.9884   -0.5972 H   0  0  0  0  0  0  0  0  0  0  0  0
    3.5478   -0.3394    1.1304 H   0  0  0  0  0  0  0  0  0  0  0  0
    2.8373    2.0218    1.1333 H   0  0  0  0  0  0  0  0  0  0  0  0
    1.0982    2.3270    0.8172 H   0  0  0  0  0  0  0  0  0  0  0  0
    1.6288    1.1018    2.0861 H   0  0  0  0  0  0  0  0  0  0  0  0
  1  2  1  0
  2  3  1  0
  3  4  1  0
  4  5  1  0
  5  6  1  0
  6  7  1  0
  7  8  1  0
  7  9  1  0
  5  3  1  0
  1 10  1  0
  1 11  1  0
  1 12  1  0
  2 13  1  0
  2 14  1  0
  3 15  1  0
  5 16  1  0
  6 17  1  0
  6 18  1  0
  7 19  1  0
  8 20  1  0
  8 21  1  0
  8 22  1  0
  9 23  1  0
  9 24  1  0
  9 25  1  0
M  END
