
     RDKit          3D

 23 23  0  0  0  0  0  0  0  0999 V2000
   -3.0368    0.7013   -0.0569 C   0  0  0  0  0  0  0  0  0  0  0  0
   -2.0826   -0.3414    0.4724 C   0  0  0  0  0  0  0  0  0  0  0  0
   -0.6480    0.1215    0.2830 C   0  0  0  0  0  0  0  0  0  0  0  0
    0.3850   -0.8583    0.7837 C   0  0  0  0  0  0  0  0  0  0  0  0
    1.1722   -0.6272   -0.4495 C   0  0  0  0  0  0  0  0  0  0  0  0
    2.2028    0.4395   -0.4469 C   0  0  0  0  0  0  0  0  0  0  0  0
    3.2752    0.2875    0.5345 C   0  0  0  0  0  0  0  0  0  0  0  0
    3.4049   -0.6173    1.3405 O   0  0  0  0  0  0  0  0  0  0  0  0
   -0.1039   -0.1062   -1.1064 C   0  0  0  0  0  0  0  0  0  0  0  0
   -4.0148    0.2355   -0.3551 H   0  0  0  0  0  0  0  0  0  0  0  0
   -2.6289    1.1694   -0.9861 H   0  0  0  0  0  0  0  0  0  0  0  0
   -3.1749    1.4536    0.7573 H   0  0  0  0  0  0  0  0  0  0  0  0
   -2.2150   -0.5147    1.5531 H   0  0  0  0  0  0  0  0  0  0  0  0
   -2.1857   -1.3095   -0.0627 H   0  0  0  0  0  0  0  0  0  0  0  0
   -0.4383    1.1225    0.7050 H   0  0  0  0  0  0  0  0  0  0  0  0
   -0.0234   -1.9043    0.8194 H   0  0  0  0  0  0  0  0  0  0  0  0
    0.8475   -0.6146    1.7507 H   0  0  0  0  0  0  0  0  0  0  0  0
    1.4571   -1.5727   -0.9689 H   0  0  0  0  0  0  0  0  0  0  0  0
    2.6764    0.4556   -1.4639 H   0  0  0  0  0  0  0  0  0  0  0  0
    1.7351    1.4489   -0.3388 H   0  0  0  0  0  0  0  0  0  0  0  0
    4.0473    1.0490    0.5659 H   0  0  0  0  0  0  0  0  0  0  0  0
    0.0115    0.8436   -1.6528 H   0  0  0  0  0  0  0  0  0  0  0  0
   -0.6628   -0.8618   -1.6778 H   0  0  0  0  0  0  0  0  0  0  0  0
  1  2  1  0
  2  3  1  0
  3  4  1  0
  4  5  1  0
  5  6  1  0
  6  7  1  0
  7  8  2  0
  5  9  1  0
  9  3  1  0
  1 10  1  0
  1 11  1  0
  1 12  1  0
  2 13  1  0
  2 14  1  0
  3 15  1  0
  4 16  1  0
  4 17  1  0
  5 18  1  0
  6 19  1  0
  6 20  1  0
  7 21  1  0
  9 22  1  0
  9 23  1  0
M  END
