
     RDKit          3D

 23 23  0  0  0  0  0  0  0  0999 V2000
    1.9405   -1.0854    0.7830 C   0  0  0  0  0  0  0  0  0  0  0  0
    1.5596   -0.1272   -0.3056 C   0  0  0  0  0  0  0  0  0  0  0  0
    0.1172    0.3114   -0.2635 C   0  0  0  0  0  0  0  0  0  0  0  0
   -1.0001   -0.6627   -0.3797 C   0  0  0  0  0  0  0  0  0  0  0  0
   -1.0735   -1.7252    0.6560 C   0  0  0  0  0  0  0  0  0  0  0  0
   -2.1964    0.0862   -0.3085 O   0  0  0  0  0  0  0  0  0  0  0  0
   -0.1393    1.6172   -1.0513 C   0  0  0  0  0  0  0  0  0  0  0  0
   -0.1233    1.5808    0.4659 C   0  0  0  0  0  0  0  0  0  0  0  0
   -1.3444    1.8701    1.0477 O   0  0  0  0  0  0  0  0  0  0  0  0
    3.0710   -1.0694    0.8299 H   0  0  0  0  0  0  0  0  0  0  0  0
    1.6384   -2.1214    0.6242 H   0  0  0  0  0  0  0  0  0  0  0  0
    1.5887   -0.7029    1.7815 H   0  0  0  0  0  0  0  0  0  0  0  0
    1.8392   -0.5702   -1.2827 H   0  0  0  0  0  0  0  0  0  0  0  0
    2.2087    0.7677   -0.1938 H   0  0  0  0  0  0  0  0  0  0  0  0
   -1.0448   -1.1601   -1.3888 H   0  0  0  0  0  0  0  0  0  0  0  0
   -0.6938   -1.4024    1.6255 H   0  0  0  0  0  0  0  0  0  0  0  0
   -0.6573   -2.6965    0.2983 H   0  0  0  0  0  0  0  0  0  0  0  0
   -2.1652   -1.9636    0.8331 H   0  0  0  0  0  0  0  0  0  0  0  0
   -2.5497    0.3017   -1.1997 H   0  0  0  0  0  0  0  0  0  0  0  0
   -1.0941    1.7362   -1.5750 H   0  0  0  0  0  0  0  0  0  0  0  0
    0.7176    2.0787   -1.5785 H   0  0  0  0  0  0  0  0  0  0  0  0
    0.7329    2.1111    0.9558 H   0  0  0  0  0  0  0  0  0  0  0  0
   -1.3318    2.8257    1.3096 H   0  0  0  0  0  0  0  0  0  0  0  0
  1  2  1  0
  2  3  1  0
  3  4  1  0
  4  5  1  0
  4  6  1  0
  3  7  1  0
  7  8  1  0
  8  9  1  0
  8  3  1  0
  1 10  1  0
  1 11  1  0
  1 12  1  0
  2 13  1  0
  2 14  1  0
  4 15  1  0
  5 16  1  0
  5 17  1  0
  5 18  1  0
  6 19  1  0
  7 20  1  0
  7 21  1  0
  8 22  1  0
  9 23  1  0
M  END
