
     RDKit          3D

 23 24  0  0  0  0  0  0  0  0999 V2000
    2.6422   -0.4803   -0.2474 C   0  0  0  0  0  0  0  0  0  0  0  0
    1.2667   -0.7427    0.3326 C   0  0  0  0  0  0  0  0  0  0  0  0
    0.2980    0.3965   -0.0272 C   0  0  0  0  0  0  0  0  0  0  0  0
    0.7881    1.6587    0.4930 C   0  0  0  0  0  0  0  0  0  0  0  0
   -0.3082    1.1217    1.2362 C   0  0  0  0  0  0  0  0  0  0  0  0
   -0.7513   -0.1643    1.4411 O   0  0  0  0  0  0  0  0  0  0  0  0
   -1.1093   -0.1207    0.0683 C   0  0  0  0  0  0  0  0  0  0  0  0
   -2.2153    0.7297   -0.3571 C   0  0  0  0  0  0  0  0  0  0  0  0
   -1.2602   -1.5543   -0.4168 C   0  0  0  0  0  0  0  0  0  0  0  0
    3.2368    0.1396    0.4194 H   0  0  0  0  0  0  0  0  0  0  0  0
    3.1360   -1.4751   -0.3040 H   0  0  0  0  0  0  0  0  0  0  0  0
    2.5868   -0.1058   -1.2944 H   0  0  0  0  0  0  0  0  0  0  0  0
    0.8734   -1.6316   -0.1880 H   0  0  0  0  0  0  0  0  0  0  0  0
    1.3833   -0.8797    1.3994 H   0  0  0  0  0  0  0  0  0  0  0  0
    1.7608    1.7771    1.0492 H   0  0  0  0  0  0  0  0  0  0  0  0
    0.6959    2.5180   -0.2398 H   0  0  0  0  0  0  0  0  0  0  0  0
   -1.2428    1.7357    1.0671 H   0  0  0  0  0  0  0  0  0  0  0  0
   -2.7997    0.2140   -1.1759 H   0  0  0  0  0  0  0  0  0  0  0  0
   -2.9963    0.9141    0.4365 H   0  0  0  0  0  0  0  0  0  0  0  0
   -1.9197    1.7030   -0.8511 H   0  0  0  0  0  0  0  0  0  0  0  0
   -0.9632   -2.2969    0.3458 H   0  0  0  0  0  0  0  0  0  0  0  0
   -0.7603   -1.7351   -1.3852 H   0  0  0  0  0  0  0  0  0  0  0  0
   -2.3415   -1.7217   -0.6100 H   0  0  0  0  0  0  0  0  0  0  0  0
  1  2  1  0
  2  3  1  0
  3  4  1  0
  4  5  1  0
  5  6  1  0
  6  7  1  0
  7  8  1  0
  7  9  1  0
  5  3  1  0
  7  3  1  0
  1 10  1  0
  1 11  1  0
  1 12  1  0
  2 13  1  0
  2 14  1  0
  4 15  1  0
  4 16  1  0
  5 17  1  0
  8 18  1  0
  8 19  1  0
  8 20  1  0
  9 21  1  0
  9 22  1  0
  9 23  1  0
M  END
