
     RDKit          3D

 23 23  0  0  0  0  0  0  0  0999 V2000
    2.3136   -0.9888    0.4737 C   0  0  0  0  0  0  0  0  0  0  0  0
    0.8284   -1.2744    0.3896 C   0  0  0  0  0  0  0  0  0  0  0  0
    0.2141   -0.2651   -0.5266 C   0  0  0  0  0  0  0  0  0  0  0  0
   -1.2575   -0.4084   -0.7195 C   0  0  0  0  0  0  0  0  0  0  0  0
   -1.9725   -0.6102    0.5948 C   0  0  0  0  0  0  0  0  0  0  0  0
   -1.6170    0.9571   -1.2035 C   0  0  0  0  0  0  0  0  0  0  0  0
   -0.7249    1.8340   -0.7518 C   0  0  0  0  0  0  0  0  0  0  0  0
    0.3011    1.1292    0.0684 C   0  0  0  0  0  0  0  0  0  0  0  0
    1.5727    1.6529   -0.1079 O   0  0  0  0  0  0  0  0  0  0  0  0
    2.7044   -0.5822   -0.5044 H   0  0  0  0  0  0  0  0  0  0  0  0
    2.5452   -0.2125    1.2284 H   0  0  0  0  0  0  0  0  0  0  0  0
    2.8568   -1.9379    0.6458 H   0  0  0  0  0  0  0  0  0  0  0  0
    0.4081   -1.0875    1.4184 H   0  0  0  0  0  0  0  0  0  0  0  0
    0.5870   -2.3065    0.1452 H   0  0  0  0  0  0  0  0  0  0  0  0
    0.7400   -0.2807   -1.4754 H   0  0  0  0  0  0  0  0  0  0  0  0
   -1.5399   -1.1909   -1.4512 H   0  0  0  0  0  0  0  0  0  0  0  0
   -1.4221   -0.1887    1.4524 H   0  0  0  0  0  0  0  0  0  0  0  0
   -2.9996   -0.1694    0.5807 H   0  0  0  0  0  0  0  0  0  0  0  0
   -2.1019   -1.7049    0.8072 H   0  0  0  0  0  0  0  0  0  0  0  0
   -2.4772    1.1939   -1.8291 H   0  0  0  0  0  0  0  0  0  0  0  0
   -0.7167    2.8975   -0.9330 H   0  0  0  0  0  0  0  0  0  0  0  0
    0.0760    1.1577    1.1407 H   0  0  0  0  0  0  0  0  0  0  0  0
    1.6817    2.3859    0.5571 H   0  0  0  0  0  0  0  0  0  0  0  0
  1  2  1  0
  2  3  1  0
  3  4  1  0
  4  5  1  0
  4  6  1  0
  6  7  2  0
  7  8  1  0
  8  9  1  0
  8  3  1  0
  1 10  1  0
  1 11  1  0
  1 12  1  0
  2 13  1  0
  2 14  1  0
  3 15  1  0
  4 16  1  0
  5 17  1  0
  5 18  1  0
  5 19  1  0
  6 20  1  0
  7 21  1  0
  8 22  1  0
  9 23  1  0
M  END
