
     RDKit          3D

 17 18  0  0  0  0  0  0  0  0999 V2000
    1.6553    0.6863    0.1458 C   0  0  0  0  0  0  0  0  0  0  0  0
    1.2040   -0.2813   -0.9281 C   0  0  0  0  0  0  0  0  0  0  0  0
   -0.0889   -0.9703   -0.5433 C   0  0  0  0  0  0  0  0  0  0  0  0
   -0.0086   -1.7247    0.6543 O   0  0  0  0  0  0  0  0  0  0  0  0
   -1.2850   -1.3119    0.9862 C   0  0  0  0  0  0  0  0  0  0  0  0
   -2.2502   -1.7003    1.7105 O   0  0  0  0  0  0  0  0  0  0  0  0
   -1.1119   -0.1523    0.1198 C   0  0  0  0  0  0  0  0  0  0  0  0
   -1.2766    1.1684    0.3605 C   0  0  0  0  0  0  0  0  0  0  0  0
   -2.1651    0.4353   -0.5276 O   0  0  0  0  0  0  0  0  0  0  0  0
    1.0075    0.5437    1.0429 H   0  0  0  0  0  0  0  0  0  0  0  0
    1.6460    1.7312   -0.2222 H   0  0  0  0  0  0  0  0  0  0  0  0
    2.7227    0.4215    0.4040 H   0  0  0  0  0  0  0  0  0  0  0  0
    1.9455   -1.0837   -1.1100 H   0  0  0  0  0  0  0  0  0  0  0  0
    1.0333    0.3039   -1.8531 H   0  0  0  0  0  0  0  0  0  0  0  0
   -0.4994   -1.6205   -1.3432 H   0  0  0  0  0  0  0  0  0  0  0  0
   -0.7401    1.9811   -0.1767 H   0  0  0  0  0  0  0  0  0  0  0  0
   -1.7886    1.5734    1.2804 H   0  0  0  0  0  0  0  0  0  0  0  0
  1  2  1  0
  2  3  1  0
  3  4  1  0
  4  5  1  0
  5  6  2  0
  5  7  1  0
  7  8  1  0
  8  9  1  0
  7  3  1  0
  9  7  1  0
  1 10  1  0
  1 11  1  0
  1 12  1  0
  2 13  1  0
  2 14  1  0
  3 15  1  0
  8 16  1  0
  8 17  1  0
M  END
