
     RDKit          3D

 21 22  0  0  0  0  0  0  0  0999 V2000
    2.7351   -0.5541    0.3006 C   0  0  0  0  0  0  0  0  0  0  0  0
    1.9555    0.7165    0.1281 C   0  0  0  0  0  0  0  0  0  0  0  0
    0.5011    0.5007   -0.0864 C   0  0  0  0  0  0  0  0  0  0  0  0
    0.1738   -0.3013   -1.2843 C   0  0  0  0  0  0  0  0  0  0  0  0
   -0.9953   -0.8782   -1.0110 C   0  0  0  0  0  0  0  0  0  0  0  0
   -1.3406   -0.4139    0.3331 C   0  0  0  0  0  0  0  0  0  0  0  0
   -2.6163   -0.4892    0.9692 C   0  0  0  0  0  0  0  0  0  0  0  0
   -2.2248    0.8436    0.4616 C   0  0  0  0  0  0  0  0  0  0  0  0
   -0.1084   -0.2491    0.9206 O   0  0  0  0  0  0  0  0  0  0  0  0
    3.1949   -0.8034   -0.6734 H   0  0  0  0  0  0  0  0  0  0  0  0
    3.5911   -0.4102    1.0109 H   0  0  0  0  0  0  0  0  0  0  0  0
    2.1603   -1.4039    0.6581 H   0  0  0  0  0  0  0  0  0  0  0  0
    2.0819    1.3107    1.0541 H   0  0  0  0  0  0  0  0  0  0  0  0
    2.3508    1.3163   -0.6970 H   0  0  0  0  0  0  0  0  0  0  0  0
   -0.0070    1.4688   -0.1730 H   0  0  0  0  0  0  0  0  0  0  0  0
    0.7417   -0.4161   -2.2031 H   0  0  0  0  0  0  0  0  0  0  0  0
   -1.5049   -1.5355   -1.6997 H   0  0  0  0  0  0  0  0  0  0  0  0
   -2.6746   -0.5989    2.0710 H   0  0  0  0  0  0  0  0  0  0  0  0
   -3.4473   -0.9912    0.4441 H   0  0  0  0  0  0  0  0  0  0  0  0
   -2.6611    1.2470   -0.4847 H   0  0  0  0  0  0  0  0  0  0  0  0
   -1.9062    1.6414    1.1502 H   0  0  0  0  0  0  0  0  0  0  0  0
  1  2  1  0
  2  3  1  0
  3  4  1  0
  4  5  2  0
  5  6  1  0
  6  7  1  0
  7  8  1  0
  6  9  1  0
  9  3  1  0
  8  6  1  0
  1 10  1  0
  1 11  1  0
  1 12  1  0
  2 13  1  0
  2 14  1  0
  3 15  1  0
  4 16  1  0
  5 17  1  0
  7 18  1  0
  7 19  1  0
  8 20  1  0
  8 21  1  0
M  END
