
     RDKit          3D

 23 24  0  0  0  0  0  0  0  0999 V2000
    2.2137    0.7033    1.0154 C   0  0  0  0  0  0  0  0  0  0  0  0
    1.7128    0.3782   -0.3503 C   0  0  0  0  0  0  0  0  0  0  0  0
    0.5369   -0.5374   -0.3871 C   0  0  0  0  0  0  0  0  0  0  0  0
    0.2209   -0.7222   -1.7584 O   0  0  0  0  0  0  0  0  0  0  0  0
   -0.9060   -1.5059   -1.6790 C   0  0  0  0  0  0  0  0  0  0  0  0
   -1.7750   -0.8008   -0.6892 C   0  0  0  0  0  0  0  0  0  0  0  0
   -0.7481    0.0167    0.1089 C   0  0  0  0  0  0  0  0  0  0  0  0
   -1.0135    1.4310    0.3804 C   0  0  0  0  0  0  0  0  0  0  0  0
   -1.0592    0.3846    1.4732 C   0  0  0  0  0  0  0  0  0  0  0  0
    3.3225    0.9013    0.9274 H   0  0  0  0  0  0  0  0  0  0  0  0
    2.1627   -0.2008    1.6880 H   0  0  0  0  0  0  0  0  0  0  0  0
    1.7977    1.5917    1.4871 H   0  0  0  0  0  0  0  0  0  0  0  0
    1.5456    1.3122   -0.9280 H   0  0  0  0  0  0  0  0  0  0  0  0
    2.5425   -0.1504   -0.8939 H   0  0  0  0  0  0  0  0  0  0  0  0
    0.8332   -1.5022    0.0544 H   0  0  0  0  0  0  0  0  0  0  0  0
   -0.6157   -2.5046   -1.3233 H   0  0  0  0  0  0  0  0  0  0  0  0
   -1.4169   -1.6465   -2.6508 H   0  0  0  0  0  0  0  0  0  0  0  0
   -2.2006   -1.5891   -0.0061 H   0  0  0  0  0  0  0  0  0  0  0  0
   -2.5457   -0.1605   -1.1176 H   0  0  0  0  0  0  0  0  0  0  0  0
   -2.0250    1.8721    0.1596 H   0  0  0  0  0  0  0  0  0  0  0  0
   -0.2148    2.1730    0.3344 H   0  0  0  0  0  0  0  0  0  0  0  0
   -0.3117    0.4863    2.2845 H   0  0  0  0  0  0  0  0  0  0  0  0
   -2.0563    0.0698    1.8704 H   0  0  0  0  0  0  0  0  0  0  0  0
  1  2  1  0
  2  3  1  0
  3  4  1  0
  4  5  1  0
  5  6  1  0
  6  7  1  0
  7  8  1  0
  8  9  1  0
  7  3  1  0
  9  7  1  0
  1 10  1  0
  1 11  1  0
  1 12  1  0
  2 13  1  0
  2 14  1  0
  3 15  1  0
  5 16  1  0
  5 17  1  0
  6 18  1  0
  6 19  1  0
  8 20  1  0
  8 21  1  0
  9 22  1  0
  9 23  1  0
M  END
