
     RDKit          3D

 20 20  0  0  0  0  0  0  0  0999 V2000
   -2.4538   -0.0964   -0.2255 C   0  0  0  0  0  0  0  0  0  0  0  0
   -1.1991    0.6946    0.0153 C   0  0  0  0  0  0  0  0  0  0  0  0
   -0.0122   -0.1515    0.3368 C   0  0  0  0  0  0  0  0  0  0  0  0
   -0.1583   -0.9246    1.4642 O   0  0  0  0  0  0  0  0  0  0  0  0
    1.1814    0.7714    0.5093 C   0  0  0  0  0  0  0  0  0  0  0  0
    2.2837    0.0468   -0.1863 C   0  0  0  0  0  0  0  0  0  0  0  0
    1.7950   -1.1201   -0.7101 O   0  0  0  0  0  0  0  0  0  0  0  0
    0.4142   -0.9765   -0.8545 C   0  0  0  0  0  0  0  0  0  0  0  0
   -2.8438   -0.5478    0.7099 H   0  0  0  0  0  0  0  0  0  0  0  0
   -3.2398    0.6470   -0.5410 H   0  0  0  0  0  0  0  0  0  0  0  0
   -2.3689   -0.8310   -1.0430 H   0  0  0  0  0  0  0  0  0  0  0  0
   -1.4040    1.4204    0.8115 H   0  0  0  0  0  0  0  0  0  0  0  0
   -0.9689    1.2639   -0.9100 H   0  0  0  0  0  0  0  0  0  0  0  0
    0.6468   -0.8358    2.0559 H   0  0  0  0  0  0  0  0  0  0  0  0
    1.0191    1.7349   -0.0258 H   0  0  0  0  0  0  0  0  0  0  0  0
    1.3412    0.9322    1.5872 H   0  0  0  0  0  0  0  0  0  0  0  0
    2.7740    0.6684   -0.9673 H   0  0  0  0  0  0  0  0  0  0  0  0
    3.0863   -0.1562    0.5711 H   0  0  0  0  0  0  0  0  0  0  0  0
   -0.0135   -1.9994   -0.7857 H   0  0  0  0  0  0  0  0  0  0  0  0
    0.1205   -0.5402   -1.8121 H   0  0  0  0  0  0  0  0  0  0  0  0
  1  2  1  0
  2  3  1  0
  3  4  1  0
  3  5  1  0
  5  6  1  0
  6  7  1  0
  7  8  1  0
  8  3  1  0
  1  9  1  0
  1 10  1  0
  1 11  1  0
  2 12  1  0
  2 13  1  0
  4 14  1  0
  5 15  1  0
  5 16  1  0
  6 17  1  0
  6 18  1  0
  8 19  1  0
  8 20  1  0
M  END
