
     RDKit          3D

 23 24  0  0  0  0  0  0  0  0999 V2000
    1.9776    0.4173    0.5730 C   0  0  0  0  0  0  0  0  0  0  0  0
    1.4281    0.7238   -0.8019 C   0  0  0  0  0  0  0  0  0  0  0  0
    0.1547   -0.0589   -1.0479 C   0  0  0  0  0  0  0  0  0  0  0  0
    0.4595   -1.4979   -0.9514 C   0  0  0  0  0  0  0  0  0  0  0  0
    0.0014   -2.0562    0.1467 C   0  0  0  0  0  0  0  0  0  0  0  0
   -0.6978   -1.0466    0.9721 C   0  0  0  0  0  0  0  0  0  0  0  0
   -0.8516    0.1169    0.0609 C   0  0  0  0  0  0  0  0  0  0  0  0
   -2.2303    0.6057   -0.2300 C   0  0  0  0  0  0  0  0  0  0  0  0
   -1.2020    1.4717    0.5174 C   0  0  0  0  0  0  0  0  0  0  0  0
    1.9892   -0.6679    0.7891 H   0  0  0  0  0  0  0  0  0  0  0  0
    1.3286    0.9802    1.2966 H   0  0  0  0  0  0  0  0  0  0  0  0
    2.9958    0.8616    0.6244 H   0  0  0  0  0  0  0  0  0  0  0  0
    2.1357    0.4794   -1.6063 H   0  0  0  0  0  0  0  0  0  0  0  0
    1.2506    1.8171   -0.8426 H   0  0  0  0  0  0  0  0  0  0  0  0
   -0.2913    0.2091   -2.0136 H   0  0  0  0  0  0  0  0  0  0  0  0
    1.0193   -2.0323   -1.7372 H   0  0  0  0  0  0  0  0  0  0  0  0
    0.0989   -3.1098    0.4486 H   0  0  0  0  0  0  0  0  0  0  0  0
   -1.7062   -1.4828    1.2297 H   0  0  0  0  0  0  0  0  0  0  0  0
   -0.1322   -0.8258    1.8998 H   0  0  0  0  0  0  0  0  0  0  0  0
   -3.0549    0.2581    0.4438 H   0  0  0  0  0  0  0  0  0  0  0  0
   -2.4459    0.8251   -1.2742 H   0  0  0  0  0  0  0  0  0  0  0  0
   -1.3531    1.6724    1.5782 H   0  0  0  0  0  0  0  0  0  0  0  0
   -0.8742    2.3396   -0.0751 H   0  0  0  0  0  0  0  0  0  0  0  0
  1  2  1  0
  2  3  1  0
  3  4  1  0
  4  5  2  0
  5  6  1  0
  6  7  1  0
  7  8  1  0
  8  9  1  0
  7  3  1  0
  9  7  1  0
  1 10  1  0
  1 11  1  0
  1 12  1  0
  2 13  1  0
  2 14  1  0
  3 15  1  0
  4 16  1  0
  5 17  1  0
  6 18  1  0
  6 19  1  0
  8 20  1  0
  8 21  1  0
  9 22  1  0
  9 23  1  0
M  END
