
     RDKit          3D

 25 26  0  0  0  0  0  0  0  0999 V2000
   -1.2504   -1.9401    0.4854 C   0  0  0  0  0  0  0  0  0  0  0  0
   -0.9259   -1.0962   -0.6916 C   0  0  0  0  0  0  0  0  0  0  0  0
   -0.1259    0.1069   -0.4707 C   0  0  0  0  0  0  0  0  0  0  0  0
    0.1165    0.8660   -1.7875 C   0  0  0  0  0  0  0  0  0  0  0  0
   -0.2149    2.1267   -1.0242 C   0  0  0  0  0  0  0  0  0  0  0  0
   -0.6361    1.3146    0.1451 C   0  0  0  0  0  0  0  0  0  0  0  0
    0.3531    1.1388    1.2634 C   0  0  0  0  0  0  0  0  0  0  0  0
    1.0900    0.1514    0.3426 C   0  0  0  0  0  0  0  0  0  0  0  0
    1.6011   -1.0361    1.0491 C   0  0  0  0  0  0  0  0  0  0  0  0
   -0.8528   -2.9965    0.4009 H   0  0  0  0  0  0  0  0  0  0  0  0
   -0.9156   -1.5792    1.4524 H   0  0  0  0  0  0  0  0  0  0  0  0
   -2.3641   -2.1132    0.6044 H   0  0  0  0  0  0  0  0  0  0  0  0
   -1.9163   -0.7646   -1.1365 H   0  0  0  0  0  0  0  0  0  0  0  0
   -0.5295   -1.7734   -1.4907 H   0  0  0  0  0  0  0  0  0  0  0  0
    1.1634    0.8593   -2.1226 H   0  0  0  0  0  0  0  0  0  0  0  0
   -0.5985    0.5730   -2.5675 H   0  0  0  0  0  0  0  0  0  0  0  0
   -1.0899    2.6136   -1.5072 H   0  0  0  0  0  0  0  0  0  0  0  0
    0.5970    2.8411   -0.9062 H   0  0  0  0  0  0  0  0  0  0  0  0
   -1.6473    1.4529    0.4666 H   0  0  0  0  0  0  0  0  0  0  0  0
    0.9245    2.0075    1.5753 H   0  0  0  0  0  0  0  0  0  0  0  0
   -0.0838    0.5776    2.0943 H   0  0  0  0  0  0  0  0  0  0  0  0
    1.9617    0.7332   -0.0903 H   0  0  0  0  0  0  0  0  0  0  0  0
    1.3017   -0.9915    2.1363 H   0  0  0  0  0  0  0  0  0  0  0  0
    2.7317   -1.0631    1.1071 H   0  0  0  0  0  0  0  0  0  0  0  0
    1.3103   -2.0088    0.6723 H   0  0  0  0  0  0  0  0  0  0  0  0
  1  2  1  0
  2  3  1  0
  3  4  1  0
  4  5  1  0
  5  6  1  0
  6  7  1  0
  7  8  1  0
  8  9  1  0
  6  3  1  0
  8  3  1  0
  1 10  1  0
  1 11  1  0
  1 12  1  0
  2 13  1  0
  2 14  1  0
  4 15  1  0
  4 16  1  0
  5 17  1  0
  5 18  1  0
  6 19  1  0
  7 20  1  0
  7 21  1  0
  8 22  1  0
  9 23  1  0
  9 24  1  0
  9 25  1  0
M  END
