
     RDKit          3D

 23 24  0  0  0  0  0  0  0  0999 V2000
    2.3570    0.1672    1.1141 C   0  0  0  0  0  0  0  0  0  0  0  0
    1.4449   -0.8916    0.4845 C   0  0  0  0  0  0  0  0  0  0  0  0
    0.5758   -0.1500   -0.5138 C   0  0  0  0  0  0  0  0  0  0  0  0
    1.3085    0.4847   -1.5095 O   0  0  0  0  0  0  0  0  0  0  0  0
   -0.6973   -0.7597   -0.9519 C   0  0  0  0  0  0  0  0  0  0  0  0
   -1.4639   -1.5042    0.1229 C   0  0  0  0  0  0  0  0  0  0  0  0
   -1.6589   -0.1780    0.8150 C   0  0  0  0  0  0  0  0  0  0  0  0
   -0.6493    0.5080   -0.0531 C   0  0  0  0  0  0  0  0  0  0  0  0
   -1.0063    1.8190   -0.7093 C   0  0  0  0  0  0  0  0  0  0  0  0
    2.4394    1.0594    0.4506 H   0  0  0  0  0  0  0  0  0  0  0  0
    1.9364    0.5319    2.0701 H   0  0  0  0  0  0  0  0  0  0  0  0
    3.3953   -0.2201    1.2185 H   0  0  0  0  0  0  0  0  0  0  0  0
    0.8603   -1.3129    1.3148 H   0  0  0  0  0  0  0  0  0  0  0  0
    2.0315   -1.6740   -0.0171 H   0  0  0  0  0  0  0  0  0  0  0  0
    0.8501    0.4493   -2.3930 H   0  0  0  0  0  0  0  0  0  0  0  0
   -1.1367   -0.5748   -1.9264 H   0  0  0  0  0  0  0  0  0  0  0  0
   -0.8306   -2.2383    0.6475 H   0  0  0  0  0  0  0  0  0  0  0  0
   -2.3875   -1.9722   -0.2843 H   0  0  0  0  0  0  0  0  0  0  0  0
   -2.6883    0.2011    0.5436 H   0  0  0  0  0  0  0  0  0  0  0  0
   -1.4850   -0.1669    1.8966 H   0  0  0  0  0  0  0  0  0  0  0  0
   -2.0460    2.1318   -0.5110 H   0  0  0  0  0  0  0  0  0  0  0  0
   -0.8259    1.6872   -1.7986 H   0  0  0  0  0  0  0  0  0  0  0  0
   -0.3235    2.6034   -0.3213 H   0  0  0  0  0  0  0  0  0  0  0  0
  1  2  1  0
  2  3  1  0
  3  4  1  0
  3  5  1  0
  5  6  1  0
  6  7  1  0
  7  8  1  0
  8  9  1  0
  8  3  1  0
  8  5  1  0
  1 10  1  0
  1 11  1  0
  1 12  1  0
  2 13  1  0
  2 14  1  0
  4 15  1  0
  5 16  1  0
  6 17  1  0
  6 18  1  0
  7 19  1  0
  7 20  1  0
  9 21  1  0
  9 22  1  0
  9 23  1  0
M  END
