
     RDKit          3D

 23 24  0  0  0  0  0  0  0  0999 V2000
    2.5471    0.3132   -0.2239 C   0  0  0  0  0  0  0  0  0  0  0  0
    1.4799   -0.7486   -0.3533 C   0  0  0  0  0  0  0  0  0  0  0  0
    0.2793   -0.4652    0.5294 C   0  0  0  0  0  0  0  0  0  0  0  0
   -0.6983   -1.6189    0.2857 C   0  0  0  0  0  0  0  0  0  0  0  0
   -2.0255   -0.9094    0.4616 C   0  0  0  0  0  0  0  0  0  0  0  0
   -1.8220    0.3214   -0.3987 C   0  0  0  0  0  0  0  0  0  0  0  0
   -0.4366    0.7602    0.0887 C   0  0  0  0  0  0  0  0  0  0  0  0
   -0.3227    2.0636    0.6519 C   0  0  0  0  0  0  0  0  0  0  0  0
    0.2489    1.6757   -0.6684 O   0  0  0  0  0  0  0  0  0  0  0  0
    2.2272    1.1396    0.4533 H   0  0  0  0  0  0  0  0  0  0  0  0
    3.4787   -0.1541    0.1178 H   0  0  0  0  0  0  0  0  0  0  0  0
    2.7281    0.7287   -1.2529 H   0  0  0  0  0  0  0  0  0  0  0  0
    1.0872   -0.8086   -1.3915 H   0  0  0  0  0  0  0  0  0  0  0  0
    1.9297   -1.7337   -0.1367 H   0  0  0  0  0  0  0  0  0  0  0  0
    0.5418   -0.4936    1.5940 H   0  0  0  0  0  0  0  0  0  0  0  0
   -0.5423   -2.4365    0.9925 H   0  0  0  0  0  0  0  0  0  0  0  0
   -0.5676   -1.9811   -0.7415 H   0  0  0  0  0  0  0  0  0  0  0  0
   -2.8743   -1.4963    0.0787 H   0  0  0  0  0  0  0  0  0  0  0  0
   -2.1342   -0.5724    1.4968 H   0  0  0  0  0  0  0  0  0  0  0  0
   -2.5921    1.0864   -0.1629 H   0  0  0  0  0  0  0  0  0  0  0  0
   -1.8054    0.0911   -1.4774 H   0  0  0  0  0  0  0  0  0  0  0  0
    0.4254    2.4475    1.3484 H   0  0  0  0  0  0  0  0  0  0  0  0
   -1.1523    2.7908    0.4451 H   0  0  0  0  0  0  0  0  0  0  0  0
  1  2  1  0
  2  3  1  0
  3  4  1  0
  4  5  1  0
  5  6  1  0
  6  7  1  0
  7  8  1  0
  8  9  1  0
  7  3  1  0
  9  7  1  0
  1 10  1  0
  1 11  1  0
  1 12  1  0
  2 13  1  0
  2 14  1  0
  3 15  1  0
  4 16  1  0
  4 17  1  0
  5 18  1  0
  5 19  1  0
  6 20  1  0
  6 21  1  0
  8 22  1  0
  8 23  1  0
M  END
