
     RDKit          3D

 21 22  0  0  0  0  0  0  0  0999 V2000
    2.0062    0.4348    0.3786 C   0  0  0  0  0  0  0  0  0  0  0  0
    0.6267    0.0962    0.9713 C   0  0  0  0  0  0  0  0  0  0  0  0
   -0.2809   -0.1636   -0.1506 C   0  0  0  0  0  0  0  0  0  0  0  0
   -0.3804    0.9482   -0.9854 O   0  0  0  0  0  0  0  0  0  0  0  0
   -0.8628    2.0821   -0.3931 C   0  0  0  0  0  0  0  0  0  0  0  0
   -0.0166   -1.4390   -0.9669 C   0  0  0  0  0  0  0  0  0  0  0  0
   -0.7603   -2.1134    0.1060 C   0  0  0  0  0  0  0  0  0  0  0  0
   -1.9783   -1.9431    0.6230 O   0  0  0  0  0  0  0  0  0  0  0  0
   -1.5890   -0.8194    0.0671 C   0  0  0  0  0  0  0  0  0  0  0  0
    2.6505   -0.4676    0.3334 H   0  0  0  0  0  0  0  0  0  0  0  0
    2.4832    1.2664    0.9079 H   0  0  0  0  0  0  0  0  0  0  0  0
    1.8912    0.7629   -0.6921 H   0  0  0  0  0  0  0  0  0  0  0  0
    0.2827    0.9140    1.6332 H   0  0  0  0  0  0  0  0  0  0  0  0
    0.8485   -0.7427    1.6599 H   0  0  0  0  0  0  0  0  0  0  0  0
   -0.2151    2.4131    0.4316 H   0  0  0  0  0  0  0  0  0  0  0  0
   -0.9838    2.9303   -1.0902 H   0  0  0  0  0  0  0  0  0  0  0  0
   -1.8948    1.8889    0.0272 H   0  0  0  0  0  0  0  0  0  0  0  0
   -0.5421   -1.3369   -1.9404 H   0  0  0  0  0  0  0  0  0  0  0  0
    1.0431   -1.6596   -1.0137 H   0  0  0  0  0  0  0  0  0  0  0  0
   -0.1095   -2.3419    0.9741 H   0  0  0  0  0  0  0  0  0  0  0  0
   -2.2185   -0.7096   -0.8809 H   0  0  0  0  0  0  0  0  0  0  0  0
  1  2  1  0
  2  3  1  0
  3  4  1  0
  4  5  1  0
  3  6  1  0
  6  7  1  0
  7  8  1  0
  8  9  1  0
  9  3  1  0
  9  7  1  0
  1 10  1  0
  1 11  1  0
  1 12  1  0
  2 13  1  0
  2 14  1  0
  5 15  1  0
  5 16  1  0
  5 17  1  0
  6 18  1  0
  6 19  1  0
  7 20  1  0
  9 21  1  0
M  END
