
     RDKit          3D

 23 24  0  0  0  0  0  0  0  0999 V2000
   -3.2054   -0.0911    0.4515 C   0  0  0  0  0  0  0  0  0  0  0  0
   -2.1701    0.5870   -0.4336 C   0  0  0  0  0  0  0  0  0  0  0  0
   -0.8687    0.7620    0.3702 C   0  0  0  0  0  0  0  0  0  0  0  0
   -0.3006   -0.4411    0.8319 C   0  0  0  0  0  0  0  0  0  0  0  0
    0.1359   -1.5772    0.2420 O   0  0  0  0  0  0  0  0  0  0  0  0
    1.5431   -1.3806    0.2501 C   0  0  0  0  0  0  0  0  0  0  0  0
    1.7303    0.1503    0.2483 C   0  0  0  0  0  0  0  0  0  0  0  0
    2.8464    0.5591   -0.6668 C   0  0  0  0  0  0  0  0  0  0  0  0
    0.3749    0.5186   -0.2325 C   0  0  0  0  0  0  0  0  0  0  0  0
   -4.0015    0.6146    0.7014 H   0  0  0  0  0  0  0  0  0  0  0  0
   -3.6132   -0.9826   -0.0730 H   0  0  0  0  0  0  0  0  0  0  0  0
   -2.7050   -0.5046    1.3718 H   0  0  0  0  0  0  0  0  0  0  0  0
   -1.9101   -0.0728   -1.2941 H   0  0  0  0  0  0  0  0  0  0  0  0
   -2.5254    1.5519   -0.8252 H   0  0  0  0  0  0  0  0  0  0  0  0
   -0.9782    1.6380    1.0492 H   0  0  0  0  0  0  0  0  0  0  0  0
    0.1226   -0.3871    1.8808 H   0  0  0  0  0  0  0  0  0  0  0  0
    1.9114   -1.7795   -0.7163 H   0  0  0  0  0  0  0  0  0  0  0  0
    2.0024   -1.8312    1.1328 H   0  0  0  0  0  0  0  0  0  0  0  0
    1.8944    0.5101    1.2610 H   0  0  0  0  0  0  0  0  0  0  0  0
    2.7504    1.6473   -0.8463 H   0  0  0  0  0  0  0  0  0  0  0  0
    2.8574   -0.0125   -1.6128 H   0  0  0  0  0  0  0  0  0  0  0  0
    3.8097    0.3687   -0.1547 H   0  0  0  0  0  0  0  0  0  0  0  0
    0.2995    0.1529   -1.3079 H   0  0  0  0  0  0  0  0  0  0  0  0
  1  2  1  0
  2  3  1  0
  3  4  1  0
  4  5  1  0
  5  6  1  0
  6  7  1  0
  7  8  1  0
  7  9  1  0
  9  3  1  0
  9  4  1  0
  1 10  1  0
  1 11  1  0
  1 12  1  0
  2 13  1  0
  2 14  1  0
  3 15  1  0
  4 16  1  0
  6 17  1  0
  6 18  1  0
  7 19  1  0
  8 20  1  0
  8 21  1  0
  8 22  1  0
  9 23  1  0
M  END
