
     RDKit          3D

 22 22  0  0  0  0  0  0  0  0999 V2000
   -2.9515    0.0701    0.2684 C   0  0  0  0  0  0  0  0  0  0  0  0
   -1.8414   -0.5121   -0.5838 C   0  0  0  0  0  0  0  0  0  0  0  0
   -0.7400   -0.9276    0.3355 C   0  0  0  0  0  0  0  0  0  0  0  0
   -0.1447    0.1783    1.1665 C   0  0  0  0  0  0  0  0  0  0  0  0
    0.6665   -0.5694    0.1218 C   0  0  0  0  0  0  0  0  0  0  0  0
    1.1459    0.2599   -1.0123 C   0  0  0  0  0  0  0  0  0  0  0  0
    2.6675    0.4240   -0.9070 C   0  0  0  0  0  0  0  0  0  0  0  0
    2.8923    1.0539    0.3213 O   0  0  0  0  0  0  0  0  0  0  0  0
   -3.9425   -0.3538    0.0092 H   0  0  0  0  0  0  0  0  0  0  0  0
   -2.9741    1.1710    0.0358 H   0  0  0  0  0  0  0  0  0  0  0  0
   -2.7716   -0.0937    1.3543 H   0  0  0  0  0  0  0  0  0  0  0  0
   -2.2883   -1.4006   -1.1131 H   0  0  0  0  0  0  0  0  0  0  0  0
   -1.5079    0.2009   -1.3800 H   0  0  0  0  0  0  0  0  0  0  0  0
   -0.9459   -1.8492    0.9158 H   0  0  0  0  0  0  0  0  0  0  0  0
    0.1582   -0.0042    2.2051 H   0  0  0  0  0  0  0  0  0  0  0  0
   -0.4628    1.2177    0.9444 H   0  0  0  0  0  0  0  0  0  0  0  0
    1.4375   -1.2992    0.4968 H   0  0  0  0  0  0  0  0  0  0  0  0
    0.7338    1.2827   -0.9264 H   0  0  0  0  0  0  0  0  0  0  0  0
    0.8647   -0.1307   -2.0102 H   0  0  0  0  0  0  0  0  0  0  0  0
    3.1608   -0.5623   -0.8516 H   0  0  0  0  0  0  0  0  0  0  0  0
    3.0443    1.0573   -1.7162 H   0  0  0  0  0  0  0  0  0  0  0  0
    3.7992    0.7869    0.6373 H   0  0  0  0  0  0  0  0  0  0  0  0
  1  2  1  0
  2  3  1  0
  3  4  1  0
  4  5  1  0
  5  6  1  0
  6  7  1  0
  7  8  1  0
  5  3  1  0
  1  9  1  0
  1 10  1  0
  1 11  1  0
  2 12  1  0
  2 13  1  0
  3 14  1  0
  4 15  1  0
  4 16  1  0
  5 17  1  0
  6 18  1  0
  6 19  1  0
  7 20  1  0
  7 21  1  0
  8 22  1  0
M  END
