
     RDKit          3D

 19 19  0  0  0  0  0  0  0  0999 V2000
    2.2842    0.3927   -0.1270 C   0  0  0  0  0  0  0  0  0  0  0  0
    1.0007    0.3637    0.6446 C   0  0  0  0  0  0  0  0  0  0  0  0
    0.0771   -0.7404    0.2236 C   0  0  0  0  0  0  0  0  0  0  0  0
   -0.3130   -0.6244   -1.2407 C   0  0  0  0  0  0  0  0  0  0  0  0
   -1.2718    0.5130   -1.1927 C   0  0  0  0  0  0  0  0  0  0  0  0
   -1.2942    1.4162   -1.9948 O   0  0  0  0  0  0  0  0  0  0  0  0
   -2.1142    0.2409    0.0143 C   0  0  0  0  0  0  0  0  0  0  0  0
   -1.2213   -0.5347    0.9105 C   0  0  0  0  0  0  0  0  0  0  0  0
   -1.4790   -0.9438    2.0177 O   0  0  0  0  0  0  0  0  0  0  0  0
    2.8656    1.2755    0.2491 H   0  0  0  0  0  0  0  0  0  0  0  0
    2.1550    0.5411   -1.2052 H   0  0  0  0  0  0  0  0  0  0  0  0
    2.8614   -0.5425    0.1213 H   0  0  0  0  0  0  0  0  0  0  0  0
    0.4754    1.3367    0.6043 H   0  0  0  0  0  0  0  0  0  0  0  0
    1.2563    0.1907    1.7103 H   0  0  0  0  0  0  0  0  0  0  0  0
    0.5116   -1.7327    0.4120 H   0  0  0  0  0  0  0  0  0  0  0  0
   -0.9150   -1.5310   -1.4742 H   0  0  0  0  0  0  0  0  0  0  0  0
    0.5301   -0.4713   -1.9081 H   0  0  0  0  0  0  0  0  0  0  0  0
   -3.0040   -0.3656   -0.3003 H   0  0  0  0  0  0  0  0  0  0  0  0
   -2.4050    1.2159    0.4413 H   0  0  0  0  0  0  0  0  0  0  0  0
  1  2  1  0
  2  3  1  0
  3  4  1  0
  4  5  1  0
  5  6  2  0
  5  7  1  0
  7  8  1  0
  8  9  2  0
  8  3  1  0
  1 10  1  0
  1 11  1  0
  1 12  1  0
  2 13  1  0
  2 14  1  0
  3 15  1  0
  4 16  1  0
  4 17  1  0
  7 18  1  0
  7 19  1  0
M  END
