
     RDKit          3D

 21 23  0  0  0  0  0  0  0  0999 V2000
    2.6852    0.4728   -0.2871 C   0  0  0  0  0  0  0  0  0  0  0  0
    1.7321   -0.5935    0.1490 C   0  0  0  0  0  0  0  0  0  0  0  0
    0.3416   -0.4179   -0.4209 C   0  0  0  0  0  0  0  0  0  0  0  0
   -0.3087    0.9093   -0.0144 C   0  0  0  0  0  0  0  0  0  0  0  0
   -1.2534    1.2579   -0.9417 O   0  0  0  0  0  0  0  0  0  0  0  0
   -2.3289    0.4272   -0.8577 C   0  0  0  0  0  0  0  0  0  0  0  0
   -2.1089   -0.5178    0.3110 C   0  0  0  0  0  0  0  0  0  0  0  0
   -0.7130   -1.1131    0.4022 C   0  0  0  0  0  0  0  0  0  0  0  0
   -1.0281    0.1386    1.0515 C   0  0  0  0  0  0  0  0  0  0  0  0
    2.4686    0.8687   -1.2998 H   0  0  0  0  0  0  0  0  0  0  0  0
    2.6862    1.3345    0.4362 H   0  0  0  0  0  0  0  0  0  0  0  0
    3.7248    0.0597   -0.2250 H   0  0  0  0  0  0  0  0  0  0  0  0
    1.6748   -0.5689    1.2678 H   0  0  0  0  0  0  0  0  0  0  0  0
    2.1002   -1.5831   -0.1846 H   0  0  0  0  0  0  0  0  0  0  0  0
    0.2554   -0.6736   -1.4752 H   0  0  0  0  0  0  0  0  0  0  0  0
    0.3798    1.6856    0.3089 H   0  0  0  0  0  0  0  0  0  0  0  0
   -3.2201    1.0542   -0.5651 H   0  0  0  0  0  0  0  0  0  0  0  0
   -2.5929   -0.0934   -1.7862 H   0  0  0  0  0  0  0  0  0  0  0  0
   -2.9405   -0.9570    0.8435 H   0  0  0  0  0  0  0  0  0  0  0  0
   -0.5444   -2.0767    0.8617 H   0  0  0  0  0  0  0  0  0  0  0  0
   -1.0099    0.3866    2.0898 H   0  0  0  0  0  0  0  0  0  0  0  0
  1  2  1  0
  2  3  1  0
  3  4  1  0
  4  5  1  0
  5  6  1  0
  6  7  1  0
  7  8  1  0
  8  9  1  0
  8  3  1  0
  9  4  1  0
  9  7  1  0
  1 10  1  0
  1 11  1  0
  1 12  1  0
  2 13  1  0
  2 14  1  0
  3 15  1  0
  4 16  1  0
  6 17  1  0
  6 18  1  0
  7 19  1  0
  8 20  1  0
  9 21  1  0
M  END
