
     RDKit          3D

 21 21  0  0  0  0  0  0  0  0999 V2000
    2.0425   -0.3156   -0.6337 C   0  0  0  0  0  0  0  0  0  0  0  0
    1.4302    0.1807    0.6058 C   0  0  0  0  0  0  0  0  0  0  0  0
    0.0120    0.4913    0.6768 C   0  0  0  0  0  0  0  0  0  0  0  0
   -0.3627    0.9777    1.9783 O   0  0  0  0  0  0  0  0  0  0  0  0
   -0.6867    1.2832   -0.3276 C   0  0  0  0  0  0  0  0  0  0  0  0
   -0.5771    2.1088   -1.1942 O   0  0  0  0  0  0  0  0  0  0  0  0
   -1.9419    0.5761    0.1640 C   0  0  0  0  0  0  0  0  0  0  0  0
   -0.9679   -0.6156    0.3606 C   0  0  0  0  0  0  0  0  0  0  0  0
   -0.8084   -1.3005   -0.9474 C   0  0  0  0  0  0  0  0  0  0  0  0
    3.1822   -0.3356   -0.5776 H   0  0  0  0  0  0  0  0  0  0  0  0
    1.8362    0.2298   -1.5459 H   0  0  0  0  0  0  0  0  0  0  0  0
    1.7825   -1.3798   -0.7840 H   0  0  0  0  0  0  0  0  0  0  0  0
    2.0046    1.1219    0.8859 H   0  0  0  0  0  0  0  0  0  0  0  0
    1.6724   -0.4778    1.4995 H   0  0  0  0  0  0  0  0  0  0  0  0
    0.0584    1.8664    2.1034 H   0  0  0  0  0  0  0  0  0  0  0  0
   -2.2272    0.9426    1.1469 H   0  0  0  0  0  0  0  0  0  0  0  0
   -2.6971    0.4131   -0.5993 H   0  0  0  0  0  0  0  0  0  0  0  0
   -1.2347   -1.2429    1.2238 H   0  0  0  0  0  0  0  0  0  0  0  0
   -0.3729   -2.3193   -0.9039 H   0  0  0  0  0  0  0  0  0  0  0  0
   -0.3040   -0.7143   -1.7341 H   0  0  0  0  0  0  0  0  0  0  0  0
   -1.8405   -1.4900   -1.3974 H   0  0  0  0  0  0  0  0  0  0  0  0
  1  2  1  0
  2  3  1  0
  3  4  1  0
  3  5  1  0
  5  6  2  0
  5  7  1  0
  7  8  1  0
  8  9  1  0
  8  3  1  0
  1 10  1  0
  1 11  1  0
  1 12  1  0
  2 13  1  0
  2 14  1  0
  4 15  1  0
  7 16  1  0
  7 17  1  0
  8 18  1  0
  9 19  1  0
  9 20  1  0
  9 21  1  0
M  END
