
     RDKit          3D

 19 19  0  0  0  0  0  0  0  0999 V2000
   -2.0155    0.5415    0.4082 C   0  0  0  0  0  0  0  0  0  0  0  0
   -1.1846   -0.1003   -0.6466 C   0  0  0  0  0  0  0  0  0  0  0  0
    0.2705   -0.2290   -0.2852 C   0  0  0  0  0  0  0  0  0  0  0  0
    0.9541    1.0907   -0.0120 C   0  0  0  0  0  0  0  0  0  0  0  0
    2.2846    0.8388    0.3083 O   0  0  0  0  0  0  0  0  0  0  0  0
    0.5976   -1.2653    0.7529 C   0  0  0  0  0  0  0  0  0  0  0  0
    0.5533   -2.2093   -0.3278 O   0  0  0  0  0  0  0  0  0  0  0  0
    1.0302   -1.1751   -1.1377 C   0  0  0  0  0  0  0  0  0  0  0  0
    1.7780   -1.1032   -2.1461 O   0  0  0  0  0  0  0  0  0  0  0  0
   -3.0091    0.7864   -0.0542 H   0  0  0  0  0  0  0  0  0  0  0  0
   -2.2698   -0.1731    1.2386 H   0  0  0  0  0  0  0  0  0  0  0  0
   -1.6165    1.4822    0.7971 H   0  0  0  0  0  0  0  0  0  0  0  0
   -1.5616   -1.1000   -0.8824 H   0  0  0  0  0  0  0  0  0  0  0  0
   -1.2412    0.5288   -1.5643 H   0  0  0  0  0  0  0  0  0  0  0  0
    0.9147    1.6736   -0.9557 H   0  0  0  0  0  0  0  0  0  0  0  0
    0.4212    1.5885    0.8061 H   0  0  0  0  0  0  0  0  0  0  0  0
    2.5955    1.3890    1.0767 H   0  0  0  0  0  0  0  0  0  0  0  0
    1.6500   -1.1352    1.0881 H   0  0  0  0  0  0  0  0  0  0  0  0
   -0.1515   -1.4290    1.5363 H   0  0  0  0  0  0  0  0  0  0  0  0
  1  2  1  0
  2  3  1  0
  3  4  1  0
  4  5  1  0
  3  6  1  0
  6  7  1  0
  7  8  1  0
  8  9  2  0
  8  3  1  0
  1 10  1  0
  1 11  1  0
  1 12  1  0
  2 13  1  0
  2 14  1  0
  4 15  1  0
  4 16  1  0
  5 17  1  0
  6 18  1  0
  6 19  1  0
M  END
