
     RDKit          3D

 21 21  0  0  0  0  0  0  0  0999 V2000
    2.4689    0.2844   -0.3480 C   0  0  0  0  0  0  0  0  0  0  0  0
    1.4186   -0.5249    0.4035 C   0  0  0  0  0  0  0  0  0  0  0  0
    0.1856    0.3658    0.5943 C   0  0  0  0  0  0  0  0  0  0  0  0
   -0.8125   -0.4506    1.3286 C   0  0  0  0  0  0  0  0  0  0  0  0
   -1.0375   -0.4989    2.5317 O   0  0  0  0  0  0  0  0  0  0  0  0
   -1.4962   -1.2162    0.2528 C   0  0  0  0  0  0  0  0  0  0  0  0
   -1.7979   -0.0741   -0.7282 C   0  0  0  0  0  0  0  0  0  0  0  0
   -0.4886    0.6485   -0.7151 C   0  0  0  0  0  0  0  0  0  0  0  0
   -0.7365    2.0113   -0.8037 O   0  0  0  0  0  0  0  0  0  0  0  0
    3.0180   -0.3922   -1.0409 H   0  0  0  0  0  0  0  0  0  0  0  0
    3.1404    0.7432    0.4083 H   0  0  0  0  0  0  0  0  0  0  0  0
    1.9451    1.0946   -0.8950 H   0  0  0  0  0  0  0  0  0  0  0  0
    1.8185   -0.8755    1.3504 H   0  0  0  0  0  0  0  0  0  0  0  0
    1.1535   -1.4147   -0.2006 H   0  0  0  0  0  0  0  0  0  0  0  0
    0.4572    1.2889    1.1446 H   0  0  0  0  0  0  0  0  0  0  0  0
   -0.8042   -1.9194   -0.2147 H   0  0  0  0  0  0  0  0  0  0  0  0
   -2.4350   -1.6876    0.6049 H   0  0  0  0  0  0  0  0  0  0  0  0
   -2.5745    0.5412   -0.2180 H   0  0  0  0  0  0  0  0  0  0  0  0
   -2.1009   -0.4473   -1.7053 H   0  0  0  0  0  0  0  0  0  0  0  0
    0.1770    0.3145   -1.5450 H   0  0  0  0  0  0  0  0  0  0  0  0
   -1.4989    2.2089   -0.2046 H   0  0  0  0  0  0  0  0  0  0  0  0
  1  2  1  0
  2  3  1  0
  3  4  1  0
  4  5  2  0
  4  6  1  0
  6  7  1  0
  7  8  1  0
  8  9  1  0
  8  3  1  0
  1 10  1  0
  1 11  1  0
  1 12  1  0
  2 13  1  0
  2 14  1  0
  3 15  1  0
  6 16  1  0
  6 17  1  0
  7 18  1  0
  7 19  1  0
  8 20  1  0
  9 21  1  0
M  END
