
     RDKit          3D

 23 23  0  0  0  0  0  0  0  0999 V2000
    1.8503   -0.5266   -0.6827 C   0  0  0  0  0  0  0  0  0  0  0  0
    1.2364   -0.7543    0.6392 C   0  0  0  0  0  0  0  0  0  0  0  0
   -0.0132   -0.0475    0.9517 C   0  0  0  0  0  0  0  0  0  0  0  0
   -0.4486   -0.3814    2.2492 O   0  0  0  0  0  0  0  0  0  0  0  0
   -0.0575    1.4359    0.7709 C   0  0  0  0  0  0  0  0  0  0  0  0
   -0.7414    1.1781   -0.5735 C   0  0  0  0  0  0  0  0  0  0  0  0
   -1.8136    2.0119   -0.8393 O   0  0  0  0  0  0  0  0  0  0  0  0
   -1.1736   -0.1539    0.0044 C   0  0  0  0  0  0  0  0  0  0  0  0
   -1.2097   -1.3093   -0.9194 C   0  0  0  0  0  0  0  0  0  0  0  0
    2.1923    0.5252   -0.8527 H   0  0  0  0  0  0  0  0  0  0  0  0
    2.8102   -1.1241   -0.7076 H   0  0  0  0  0  0  0  0  0  0  0  0
    1.2920   -0.8273   -1.5622 H   0  0  0  0  0  0  0  0  0  0  0  0
    1.1192   -1.8451    0.7923 H   0  0  0  0  0  0  0  0  0  0  0  0
    1.9965   -0.4411    1.4148 H   0  0  0  0  0  0  0  0  0  0  0  0
    0.2912   -0.7266    2.8071 H   0  0  0  0  0  0  0  0  0  0  0  0
   -0.7810    1.9766    1.4172 H   0  0  0  0  0  0  0  0  0  0  0  0
    0.9201    1.9548    0.6820 H   0  0  0  0  0  0  0  0  0  0  0  0
   -0.0527    1.1533   -1.4129 H   0  0  0  0  0  0  0  0  0  0  0  0
   -1.5167    2.8311   -1.2854 H   0  0  0  0  0  0  0  0  0  0  0  0
   -2.1517   -0.0175    0.5205 H   0  0  0  0  0  0  0  0  0  0  0  0
   -0.4854   -2.0740   -0.5521 H   0  0  0  0  0  0  0  0  0  0  0  0
   -1.0540   -1.0514   -1.9861 H   0  0  0  0  0  0  0  0  0  0  0  0
   -2.2090   -1.7869   -0.8756 H   0  0  0  0  0  0  0  0  0  0  0  0
  1  2  1  0
  2  3  1  0
  3  4  1  0
  3  5  1  0
  5  6  1  0
  6  7  1  0
  6  8  1  0
  8  9  1  0
  8  3  1  0
  1 10  1  0
  1 11  1  0
  1 12  1  0
  2 13  1  0
  2 14  1  0
  4 15  1  0
  5 16  1  0
  5 17  1  0
  6 18  1  0
  7 19  1  0
  8 20  1  0
  9 21  1  0
  9 22  1  0
  9 23  1  0
M  END
