
     RDKit          3D

 23 24  0  0  0  0  0  0  0  0999 V2000
   -3.1902   -0.6872   -0.5714 C   0  0  0  0  0  0  0  0  0  0  0  0
   -2.0679   -0.9033    0.4507 C   0  0  0  0  0  0  0  0  0  0  0  0
   -1.1412    0.2790    0.3329 C   0  0  0  0  0  0  0  0  0  0  0  0
   -0.6165    0.3078   -1.0593 O   0  0  0  0  0  0  0  0  0  0  0  0
    0.2277    0.2435    0.0377 C   0  0  0  0  0  0  0  0  0  0  0  0
    1.1878   -0.8863    0.1886 C   0  0  0  0  0  0  0  0  0  0  0  0
    2.4234   -0.3809   -0.5350 C   0  0  0  0  0  0  0  0  0  0  0  0
    2.4172    1.1207   -0.3325 C   0  0  0  0  0  0  0  0  0  0  0  0
    1.0728    1.4696    0.2460 C   0  0  0  0  0  0  0  0  0  0  0  0
   -3.8321    0.1308   -0.1385 H   0  0  0  0  0  0  0  0  0  0  0  0
   -2.7259   -0.2387   -1.4767 H   0  0  0  0  0  0  0  0  0  0  0  0
   -3.7429   -1.6081   -0.7667 H   0  0  0  0  0  0  0  0  0  0  0  0
   -1.5794   -1.8560    0.1634 H   0  0  0  0  0  0  0  0  0  0  0  0
   -2.4664   -1.0262    1.4674 H   0  0  0  0  0  0  0  0  0  0  0  0
   -1.6230    1.2395    0.6146 H   0  0  0  0  0  0  0  0  0  0  0  0
    1.4618   -1.0343    1.2376 H   0  0  0  0  0  0  0  0  0  0  0  0
    0.8227   -1.8410   -0.2377 H   0  0  0  0  0  0  0  0  0  0  0  0
    3.3451   -0.8222   -0.0579 H   0  0  0  0  0  0  0  0  0  0  0  0
    2.4533   -0.6744   -1.5851 H   0  0  0  0  0  0  0  0  0  0  0  0
    3.1871    1.4427    0.4067 H   0  0  0  0  0  0  0  0  0  0  0  0
    2.5828    1.5700   -1.3368 H   0  0  0  0  0  0  0  0  0  0  0  0
    1.1139    1.8103    1.2931 H   0  0  0  0  0  0  0  0  0  0  0  0
    0.6897    2.3447   -0.3539 H   0  0  0  0  0  0  0  0  0  0  0  0
  1  2  1  0
  2  3  1  0
  3  4  1  0
  4  5  1  0
  5  6  1  0
  6  7  1  0
  7  8  1  0
  8  9  1  0
  5  3  1  0
  9  5  1  0
  1 10  1  0
  1 11  1  0
  1 12  1  0
  2 13  1  0
  2 14  1  0
  3 15  1  0
  6 16  1  0
  6 17  1  0
  7 18  1  0
  7 19  1  0
  8 20  1  0
  8 21  1  0
  9 22  1  0
  9 23  1  0
M  END
