
     RDKit          3D

 23 23  0  0  0  0  0  0  0  0999 V2000
   -2.7381   -0.5898   -0.6089 C   0  0  0  0  0  0  0  0  0  0  0  0
   -1.7784    0.5915   -0.4649 C   0  0  0  0  0  0  0  0  0  0  0  0
   -0.7029    0.1671    0.4914 C   0  0  0  0  0  0  0  0  0  0  0  0
    0.4040    1.0732    0.8650 C   0  0  0  0  0  0  0  0  0  0  0  0
    0.2545    2.4964    0.4270 C   0  0  0  0  0  0  0  0  0  0  0  0
   -0.2283    2.7927   -0.6612 O   0  0  0  0  0  0  0  0  0  0  0  0
    0.6901    0.0668   -0.1496 C   0  0  0  0  0  0  0  0  0  0  0  0
    1.3753   -1.2409    0.1560 C   0  0  0  0  0  0  0  0  0  0  0  0
    2.7284   -1.3526   -0.4595 C   0  0  0  0  0  0  0  0  0  0  0  0
   -3.0488   -0.7406   -1.6547 H   0  0  0  0  0  0  0  0  0  0  0  0
   -2.2644   -1.5341   -0.2383 H   0  0  0  0  0  0  0  0  0  0  0  0
   -3.6250   -0.4204    0.0247 H   0  0  0  0  0  0  0  0  0  0  0  0
   -2.3297    1.4882   -0.1305 H   0  0  0  0  0  0  0  0  0  0  0  0
   -1.3857    0.8000   -1.4709 H   0  0  0  0  0  0  0  0  0  0  0  0
   -0.9935   -0.5768    1.2397 H   0  0  0  0  0  0  0  0  0  0  0  0
    0.8538    0.9679    1.8659 H   0  0  0  0  0  0  0  0  0  0  0  0
    0.5638    3.3336    1.0465 H   0  0  0  0  0  0  0  0  0  0  0  0
    0.8096    0.4158   -1.1898 H   0  0  0  0  0  0  0  0  0  0  0  0
    0.6792   -2.0508   -0.2111 H   0  0  0  0  0  0  0  0  0  0  0  0
    1.4587   -1.4122    1.2467 H   0  0  0  0  0  0  0  0  0  0  0  0
    3.0059   -0.4876   -1.0990 H   0  0  0  0  0  0  0  0  0  0  0  0
    2.7437   -2.2485   -1.1223 H   0  0  0  0  0  0  0  0  0  0  0  0
    3.5279   -1.5389    0.2993 H   0  0  0  0  0  0  0  0  0  0  0  0
  1  2  1  0
  2  3  1  0
  3  4  1  0
  4  5  1  0
  5  6  2  0
  4  7  1  0
  7  8  1  0
  8  9  1  0
  7  3  1  0
  1 10  1  0
  1 11  1  0
  1 12  1  0
  2 13  1  0
  2 14  1  0
  3 15  1  0
  4 16  1  0
  5 17  1  0
  7 18  1  0
  8 19  1  0
  8 20  1  0
  9 21  1  0
  9 22  1  0
  9 23  1  0
M  END
