
     RDKit          3D

 27 27  0  0  0  0  0  0  0  0999 V2000
   -2.0166   -1.3642    0.5675 C   0  0  0  0  0  0  0  0  0  0  0  0
   -1.6718   -0.2510   -0.3295 C   0  0  0  0  0  0  0  0  0  0  0  0
   -0.4246    0.4919   -0.1196 C   0  0  0  0  0  0  0  0  0  0  0  0
   -0.3209    1.5951   -1.1925 C   0  0  0  0  0  0  0  0  0  0  0  0
   -0.1834    1.1381    1.2136 C   0  0  0  0  0  0  0  0  0  0  0  0
    1.3167    0.9482    0.9319 C   0  0  0  0  0  0  0  0  0  0  0  0
    0.8768   -0.1851   -0.0033 C   0  0  0  0  0  0  0  0  0  0  0  0
    1.0158   -1.4829    0.6998 C   0  0  0  0  0  0  0  0  0  0  0  0
    1.6133   -0.2072   -1.3227 C   0  0  0  0  0  0  0  0  0  0  0  0
   -3.1030   -1.3168    0.8836 H   0  0  0  0  0  0  0  0  0  0  0  0
   -1.4558   -1.4668    1.4885 H   0  0  0  0  0  0  0  0  0  0  0  0
   -1.9646   -2.3602    0.0347 H   0  0  0  0  0  0  0  0  0  0  0  0
   -2.5180    0.4987   -0.3128 H   0  0  0  0  0  0  0  0  0  0  0  0
   -1.6860   -0.6335   -1.3871 H   0  0  0  0  0  0  0  0  0  0  0  0
    0.2966    2.4349   -0.8439 H   0  0  0  0  0  0  0  0  0  0  0  0
    0.0647    1.2142   -2.1339 H   0  0  0  0  0  0  0  0  0  0  0  0
   -1.3541    2.0050   -1.3464 H   0  0  0  0  0  0  0  0  0  0  0  0
   -0.4317    2.2143    1.2563 H   0  0  0  0  0  0  0  0  0  0  0  0
   -0.5422    0.6232    2.0991 H   0  0  0  0  0  0  0  0  0  0  0  0
    1.7846    1.7603    0.3772 H   0  0  0  0  0  0  0  0  0  0  0  0
    1.8842    0.6154    1.8091 H   0  0  0  0  0  0  0  0  0  0  0  0
    0.4192   -2.2599    0.2225 H   0  0  0  0  0  0  0  0  0  0  0  0
    0.9160   -1.4199    1.8006 H   0  0  0  0  0  0  0  0  0  0  0  0
    2.0907   -1.8085    0.5463 H   0  0  0  0  0  0  0  0  0  0  0  0
    0.9220   -0.6515   -2.0689 H   0  0  0  0  0  0  0  0  0  0  0  0
    1.9846    0.7880   -1.5917 H   0  0  0  0  0  0  0  0  0  0  0  0
    2.4875   -0.9199   -1.2781 H   0  0  0  0  0  0  0  0  0  0  0  0
  1  2  1  0
  2  3  1  0
  3  4  1  0
  3  5  1  0
  5  6  1  0
  6  7  1  0
  7  8  1  0
  7  9  1  0
  7  3  1  0
  1 10  1  0
  1 11  1  0
  1 12  1  0
  2 13  1  0
  2 14  1  0
  4 15  1  0
  4 16  1  0
  4 17  1  0
  5 18  1  0
  5 19  1  0
  6 20  1  0
  6 21  1  0
  8 22  1  0
  8 23  1  0
  8 24  1  0
  9 25  1  0
  9 26  1  0
  9 27  1  0
M  END
