
     RDKit          3D

 19 20  0  0  0  0  0  0  0  0999 V2000
   -2.3923    0.1676    0.0129 C   0  0  0  0  0  0  0  0  0  0  0  0
   -1.2476   -0.6676    0.4327 C   0  0  0  0  0  0  0  0  0  0  0  0
    0.0560   -0.0865    0.1826 C   0  0  0  0  0  0  0  0  0  0  0  0
    1.2728   -0.9258    0.6056 C   0  0  0  0  0  0  0  0  0  0  0  0
    2.2776    0.1405    0.3051 C   0  0  0  0  0  0  0  0  0  0  0  0
    3.4639    0.1499    0.4699 O   0  0  0  0  0  0  0  0  0  0  0  0
    1.3922    1.1895   -0.2571 C   0  0  0  0  0  0  0  0  0  0  0  0
    0.4536    0.3979   -1.1586 C   0  0  0  0  0  0  0  0  0  0  0  0
    0.3459    1.1898    0.6626 O   0  0  0  0  0  0  0  0  0  0  0  0
   -3.0811   -0.4213   -0.6525 H   0  0  0  0  0  0  0  0  0  0  0  0
   -3.0249    0.4915    0.8692 H   0  0  0  0  0  0  0  0  0  0  0  0
   -2.0971    1.1015   -0.5157 H   0  0  0  0  0  0  0  0  0  0  0  0
   -1.2855   -1.6848   -0.0244 H   0  0  0  0  0  0  0  0  0  0  0  0
   -1.3446   -0.8632    1.5415 H   0  0  0  0  0  0  0  0  0  0  0  0
    1.2375   -1.2007    1.6584 H   0  0  0  0  0  0  0  0  0  0  0  0
    1.4176   -1.7885   -0.0787 H   0  0  0  0  0  0  0  0  0  0  0  0
    1.7937    2.1009   -0.6083 H   0  0  0  0  0  0  0  0  0  0  0  0
   -0.2287    1.0660   -1.6944 H   0  0  0  0  0  0  0  0  0  0  0  0
    0.9909   -0.3567   -1.7508 H   0  0  0  0  0  0  0  0  0  0  0  0
  1  2  1  0
  2  3  1  0
  3  4  1  0
  4  5  1  0
  5  6  2  0
  5  7  1  0
  7  8  1  0
  7  9  1  0
  8  3  1  0
  9  3  1  0
  1 10  1  0
  1 11  1  0
  1 12  1  0
  2 13  1  0
  2 14  1  0
  4 15  1  0
  4 16  1  0
  7 17  1  0
  8 18  1  0
  8 19  1  0
M  END
