
     RDKit          3D

 23 24  0  0  0  0  0  0  0  0999 V2000
   -2.6744   -0.5648   -0.3136 C   0  0  0  0  0  0  0  0  0  0  0  0
   -1.2487   -0.9140   -0.6817 C   0  0  0  0  0  0  0  0  0  0  0  0
   -0.3479    0.0984   -0.0283 C   0  0  0  0  0  0  0  0  0  0  0  0
   -0.5083    1.5355   -0.3705 C   0  0  0  0  0  0  0  0  0  0  0  0
    0.6799    2.1347   -0.4330 C   0  0  0  0  0  0  0  0  0  0  0  0
    1.7671    1.1923   -0.1460 C   0  0  0  0  0  0  0  0  0  0  0  0
    1.1011   -0.1137    0.1166 C   0  0  0  0  0  0  0  0  0  0  0  0
    1.7982   -1.3342   -0.4103 C   0  0  0  0  0  0  0  0  0  0  0  0
    0.2061   -0.1887    1.3081 C   0  0  0  0  0  0  0  0  0  0  0  0
   -2.8919    0.4628   -0.7068 H   0  0  0  0  0  0  0  0  0  0  0  0
   -2.8315   -0.5284    0.7711 H   0  0  0  0  0  0  0  0  0  0  0  0
   -3.4099   -1.2328   -0.7901 H   0  0  0  0  0  0  0  0  0  0  0  0
   -0.9940   -1.9089   -0.2273 H   0  0  0  0  0  0  0  0  0  0  0  0
   -1.1491   -0.9824   -1.7629 H   0  0  0  0  0  0  0  0  0  0  0  0
   -1.4917    1.9830   -0.5366 H   0  0  0  0  0  0  0  0  0  0  0  0
    0.7837    3.1895   -0.6700 H   0  0  0  0  0  0  0  0  0  0  0  0
    2.4600    1.1274   -1.0078 H   0  0  0  0  0  0  0  0  0  0  0  0
    2.3219    1.5039    0.7845 H   0  0  0  0  0  0  0  0  0  0  0  0
    2.8633   -1.2754   -0.0974 H   0  0  0  0  0  0  0  0  0  0  0  0
    1.8024   -1.3249   -1.5172 H   0  0  0  0  0  0  0  0  0  0  0  0
    1.3957   -2.2812   -0.0144 H   0  0  0  0  0  0  0  0  0  0  0  0
    0.0193   -1.1890    1.7785 H   0  0  0  0  0  0  0  0  0  0  0  0
    0.3488    0.6110    2.0736 H   0  0  0  0  0  0  0  0  0  0  0  0
  1  2  1  0
  2  3  1  0
  3  4  1  0
  4  5  2  0
  5  6  1  0
  6  7  1  0
  7  8  1  0
  7  9  1  0
  7  3  1  0
  9  3  1  0
  1 10  1  0
  1 11  1  0
  1 12  1  0
  2 13  1  0
  2 14  1  0
  4 15  1  0
  5 16  1  0
  6 17  1  0
  6 18  1  0
  8 19  1  0
  8 20  1  0
  8 21  1  0
  9 22  1  0
  9 23  1  0
M  END
