
     RDKit          3D

 22 22  0  0  0  0  0  0  0  0999 V2000
   -2.7881    0.2365   -0.8964 C   0  0  0  0  0  0  0  0  0  0  0  0
   -1.8163    0.4540    0.2242 C   0  0  0  0  0  0  0  0  0  0  0  0
   -0.7207   -0.5533    0.2914 C   0  0  0  0  0  0  0  0  0  0  0  0
    0.1754   -0.6694   -0.8912 C   0  0  0  0  0  0  0  0  0  0  0  0
    1.1337    0.2901   -0.2319 C   0  0  0  0  0  0  0  0  0  0  0  0
    2.5758   -0.1472   -0.2396 C   0  0  0  0  0  0  0  0  0  0  0  0
    2.9939   -0.2985   -1.5585 O   0  0  0  0  0  0  0  0  0  0  0  0
    0.4618    0.0249    1.0796 C   0  0  0  0  0  0  0  0  0  0  0  0
   -3.5809    1.0192   -0.7921 H   0  0  0  0  0  0  0  0  0  0  0  0
   -2.3196    0.4395   -1.8936 H   0  0  0  0  0  0  0  0  0  0  0  0
   -3.2980   -0.7280   -0.8780 H   0  0  0  0  0  0  0  0  0  0  0  0
   -1.4385    1.4944    0.1465 H   0  0  0  0  0  0  0  0  0  0  0  0
   -2.4003    0.3756    1.1792 H   0  0  0  0  0  0  0  0  0  0  0  0
   -1.0136   -1.5061    0.7842 H   0  0  0  0  0  0  0  0  0  0  0  0
   -0.2153   -0.3365   -1.8600 H   0  0  0  0  0  0  0  0  0  0  0  0
    0.5795   -1.7066   -0.9716 H   0  0  0  0  0  0  0  0  0  0  0  0
    1.0623    1.3368   -0.5905 H   0  0  0  0  0  0  0  0  0  0  0  0
    2.7321   -1.1067    0.2777 H   0  0  0  0  0  0  0  0  0  0  0  0
    3.1536    0.6501    0.2852 H   0  0  0  0  0  0  0  0  0  0  0  0
    3.5318    0.5045   -1.7934 H   0  0  0  0  0  0  0  0  0  0  0  0
    0.1976    0.9299    1.6752 H   0  0  0  0  0  0  0  0  0  0  0  0
    0.9938   -0.7030    1.7041 H   0  0  0  0  0  0  0  0  0  0  0  0
  1  2  1  0
  2  3  1  0
  3  4  1  0
  4  5  1  0
  5  6  1  0
  6  7  1  0
  5  8  1  0
  8  3  1  0
  1  9  1  0
  1 10  1  0
  1 11  1  0
  2 12  1  0
  2 13  1  0
  3 14  1  0
  4 15  1  0
  4 16  1  0
  5 17  1  0
  6 18  1  0
  6 19  1  0
  7 20  1  0
  8 21  1  0
  8 22  1  0
M  END
