
     RDKit          3D

 21 21  0  0  0  0  0  0  0  0999 V2000
   -2.4869   -0.2640    0.3434 C   0  0  0  0  0  0  0  0  0  0  0  0
   -1.2568   -0.3506   -0.5008 C   0  0  0  0  0  0  0  0  0  0  0  0
   -0.2104    0.6800   -0.1469 C   0  0  0  0  0  0  0  0  0  0  0  0
   -0.6484    1.9700   -0.2817 O   0  0  0  0  0  0  0  0  0  0  0  0
    0.3719    0.3760    1.1840 C   0  0  0  0  0  0  0  0  0  0  0  0
    1.4091   -0.4187    1.2391 C   0  0  0  0  0  0  0  0  0  0  0  0
    2.0523   -1.0457    0.0478 C   0  0  0  0  0  0  0  0  0  0  0  0
    1.2541   -0.8662   -1.1005 O   0  0  0  0  0  0  0  0  0  0  0  0
    0.9321    0.4842   -1.1535 C   0  0  0  0  0  0  0  0  0  0  0  0
   -2.2765    0.0078    1.4000 H   0  0  0  0  0  0  0  0  0  0  0  0
   -2.9292   -1.2980    0.3894 H   0  0  0  0  0  0  0  0  0  0  0  0
   -3.2699    0.3689   -0.1055 H   0  0  0  0  0  0  0  0  0  0  0  0
   -0.8039   -1.3584   -0.3596 H   0  0  0  0  0  0  0  0  0  0  0  0
   -1.5668   -0.2813   -1.5632 H   0  0  0  0  0  0  0  0  0  0  0  0
   -0.0471    2.5457   -0.8197 H   0  0  0  0  0  0  0  0  0  0  0  0
   -0.0636    0.8093    2.0713 H   0  0  0  0  0  0  0  0  0  0  0  0
    1.8471   -0.6517    2.2003 H   0  0  0  0  0  0  0  0  0  0  0  0
    2.2645   -2.1207    0.2069 H   0  0  0  0  0  0  0  0  0  0  0  0
    2.9813   -0.4674   -0.1498 H   0  0  0  0  0  0  0  0  0  0  0  0
    0.6279    0.8328   -2.1344 H   0  0  0  0  0  0  0  0  0  0  0  0
    1.8193    1.0481   -0.7667 H   0  0  0  0  0  0  0  0  0  0  0  0
  1  2  1  0
  2  3  1  0
  3  4  1  0
  3  5  1  0
  5  6  2  0
  6  7  1  0
  7  8  1  0
  8  9  1  0
  9  3  1  0
  1 10  1  0
  1 11  1  0
  1 12  1  0
  2 13  1  0
  2 14  1  0
  4 15  1  0
  5 16  1  0
  6 17  1  0
  7 18  1  0
  7 19  1  0
  9 20  1  0
  9 21  1  0
M  END
