
     RDKit          3D

 21 21  0  0  0  0  0  0  0  0999 V2000
   -2.7466    0.5886   -0.0381 C   0  0  0  0  0  0  0  0  0  0  0  0
   -1.3651    0.9649    0.3402 C   0  0  0  0  0  0  0  0  0  0  0  0
   -0.2943   -0.0346    0.0667 C   0  0  0  0  0  0  0  0  0  0  0  0
    1.0757    0.4086    0.4594 C   0  0  0  0  0  0  0  0  0  0  0  0
    1.2285    1.5832    0.8497 O   0  0  0  0  0  0  0  0  0  0  0  0
    2.1832   -0.4151    0.4114 O   0  0  0  0  0  0  0  0  0  0  0  0
    3.4704    0.0612    0.7969 C   0  0  0  0  0  0  0  0  0  0  0  0
   -0.6608   -1.4662    0.3057 C   0  0  0  0  0  0  0  0  0  0  0  0
   -0.3648   -0.9934   -1.0484 C   0  0  0  0  0  0  0  0  0  0  0  0
   -3.4305    0.8262    0.8320 H   0  0  0  0  0  0  0  0  0  0  0  0
   -2.8649   -0.4549   -0.3806 H   0  0  0  0  0  0  0  0  0  0  0  0
   -3.0763    1.2816   -0.8741 H   0  0  0  0  0  0  0  0  0  0  0  0
   -1.3268    1.1529    1.4567 H   0  0  0  0  0  0  0  0  0  0  0  0
   -1.0616    1.9380   -0.1579 H   0  0  0  0  0  0  0  0  0  0  0  0
    3.5022    1.1548    0.5874 H   0  0  0  0  0  0  0  0  0  0  0  0
    4.2842   -0.4705    0.2838 H   0  0  0  0  0  0  0  0  0  0  0  0
    3.6277   -0.0492    1.8853 H   0  0  0  0  0  0  0  0  0  0  0  0
    0.0839   -2.0312    0.9134 H   0  0  0  0  0  0  0  0  0  0  0  0
   -1.6901   -1.7391    0.5602 H   0  0  0  0  0  0  0  0  0  0  0  0
    0.5926   -1.3711   -1.4880 H   0  0  0  0  0  0  0  0  0  0  0  0
   -1.1665   -0.9347   -1.8103 H   0  0  0  0  0  0  0  0  0  0  0  0
  1  2  1  0
  2  3  1  0
  3  4  1  0
  4  5  2  0
  4  6  1  0
  6  7  1  0
  3  8  1  0
  8  9  1  0
  9  3  1  0
  1 10  1  0
  1 11  1  0
  1 12  1  0
  2 13  1  0
  2 14  1  0
  7 15  1  0
  7 16  1  0
  7 17  1  0
  8 18  1  0
  8 19  1  0
  9 20  1  0
  9 21  1  0
M  END
