
     RDKit          3D

 23 24  0  0  0  0  0  0  0  0999 V2000
    2.6641    0.1651   -0.1243 C   0  0  0  0  0  0  0  0  0  0  0  0
    1.3848    0.4247   -0.8952 C   0  0  0  0  0  0  0  0  0  0  0  0
    0.2721   -0.4872   -0.4743 C   0  0  0  0  0  0  0  0  0  0  0  0
   -0.0539   -0.3112    1.0189 C   0  0  0  0  0  0  0  0  0  0  0  0
   -0.4193    1.1180    1.0286 C   0  0  0  0  0  0  0  0  0  0  0  0
   -1.0260    1.3865   -0.1135 C   0  0  0  0  0  0  0  0  0  0  0  0
   -1.0655    0.1198   -0.9341 C   0  0  0  0  0  0  0  0  0  0  0  0
   -2.0270   -0.7954   -0.2559 C   0  0  0  0  0  0  0  0  0  0  0  0
   -1.3441   -1.0949    1.0821 C   0  0  0  0  0  0  0  0  0  0  0  0
    3.5139    0.4465   -0.7989 H   0  0  0  0  0  0  0  0  0  0  0  0
    2.7418    0.8768    0.7451 H   0  0  0  0  0  0  0  0  0  0  0  0
    2.7630   -0.8751    0.1964 H   0  0  0  0  0  0  0  0  0  0  0  0
    1.0949    1.4780   -0.8187 H   0  0  0  0  0  0  0  0  0  0  0  0
    1.5974    0.2216   -1.9652 H   0  0  0  0  0  0  0  0  0  0  0  0
    0.3858   -1.5270   -0.7602 H   0  0  0  0  0  0  0  0  0  0  0  0
    0.7229   -0.6226    1.6754 H   0  0  0  0  0  0  0  0  0  0  0  0
   -0.2237    1.8051    1.8228 H   0  0  0  0  0  0  0  0  0  0  0  0
   -1.4506    2.3065   -0.4877 H   0  0  0  0  0  0  0  0  0  0  0  0
   -1.1501    0.2633   -1.9821 H   0  0  0  0  0  0  0  0  0  0  0  0
   -2.9994   -0.3036   -0.1180 H   0  0  0  0  0  0  0  0  0  0  0  0
   -2.1655   -1.6956   -0.8552 H   0  0  0  0  0  0  0  0  0  0  0  0
   -2.0179   -0.7194    1.8690 H   0  0  0  0  0  0  0  0  0  0  0  0
   -1.1978   -2.1799    1.1447 H   0  0  0  0  0  0  0  0  0  0  0  0
  1  2  1  0
  2  3  1  0
  3  4  1  0
  4  5  1  0
  5  6  2  0
  6  7  1  0
  7  8  1  0
  8  9  1  0
  7  3  1  0
  9  4  1  0
  1 10  1  0
  1 11  1  0
  1 12  1  0
  2 13  1  0
  2 14  1  0
  3 15  1  0
  4 16  1  0
  5 17  1  0
  6 18  1  0
  7 19  1  0
  8 20  1  0
  8 21  1  0
  9 22  1  0
  9 23  1  0
M  END
