
     RDKit          3D

 19 20  0  0  0  0  0  0  0  0999 V2000
   -2.7199    0.6222    0.0098 C   0  0  0  0  0  0  0  0  0  0  0  0
   -1.6019    0.0200    0.7957 C   0  0  0  0  0  0  0  0  0  0  0  0
   -0.5253   -0.5993   -0.0701 C   0  0  0  0  0  0  0  0  0  0  0  0
    0.4359   -1.1122    0.8012 O   0  0  0  0  0  0  0  0  0  0  0  0
    1.6494   -1.0698    0.1529 C   0  0  0  0  0  0  0  0  0  0  0  0
    2.4476    0.1526    0.0232 C   0  0  0  0  0  0  0  0  0  0  0  0
    2.1668    1.3255    0.6814 O   0  0  0  0  0  0  0  0  0  0  0  0
    1.3988   -0.2251   -1.0319 C   0  0  0  0  0  0  0  0  0  0  0  0
    0.1397    0.3111   -0.8519 O   0  0  0  0  0  0  0  0  0  0  0  0
   -2.4049    1.0042   -0.9854 H   0  0  0  0  0  0  0  0  0  0  0  0
   -3.0873    1.5305    0.5710 H   0  0  0  0  0  0  0  0  0  0  0  0
   -3.5700   -0.0764   -0.1071 H   0  0  0  0  0  0  0  0  0  0  0  0
   -1.9868   -0.8205    1.4426 H   0  0  0  0  0  0  0  0  0  0  0  0
   -1.0973    0.7393    1.4752 H   0  0  0  0  0  0  0  0  0  0  0  0
   -0.9638   -1.3865   -0.7136 H   0  0  0  0  0  0  0  0  0  0  0  0
    2.1608   -2.0492    0.0853 H   0  0  0  0  0  0  0  0  0  0  0  0
    3.5188    0.0088   -0.2556 H   0  0  0  0  0  0  0  0  0  0  0  0
    2.2468    2.0651   -0.0001 H   0  0  0  0  0  0  0  0  0  0  0  0
    1.7928   -0.4404   -2.0229 H   0  0  0  0  0  0  0  0  0  0  0  0
  1  2  1  0
  2  3  1  0
  3  4  1  0
  4  5  1  0
  5  6  1  0
  6  7  1  0
  6  8  1  0
  8  9  1  0
  9  3  1  0
  8  5  1  0
  1 10  1  0
  1 11  1  0
  1 12  1  0
  2 13  1  0
  2 14  1  0
  3 15  1  0
  5 16  1  0
  6 17  1  0
  7 18  1  0
  8 19  1  0
M  END
