
     RDKit          3D

 19 20  0  0  0  0  0  0  0  0999 V2000
    2.5578    0.0731    0.3600 C   0  0  0  0  0  0  0  0  0  0  0  0
    1.5454   -0.4489   -0.5679 C   0  0  0  0  0  0  0  0  0  0  0  0
    0.1229   -0.2192   -0.2092 C   0  0  0  0  0  0  0  0  0  0  0  0
   -0.6982   -0.8337   -1.2915 O   0  0  0  0  0  0  0  0  0  0  0  0
   -0.8664   -1.1136    0.1612 C   0  0  0  0  0  0  0  0  0  0  0  0
   -2.0747   -0.3668    0.6124 C   0  0  0  0  0  0  0  0  0  0  0  0
   -1.8607    1.0320    0.1358 C   0  0  0  0  0  0  0  0  0  0  0  0
   -0.3874    1.1517    0.0345 C   0  0  0  0  0  0  0  0  0  0  0  0
    0.2131    2.1981    0.1406 O   0  0  0  0  0  0  0  0  0  0  0  0
    3.4813    0.4196   -0.1891 H   0  0  0  0  0  0  0  0  0  0  0  0
    2.9323   -0.7477    1.0292 H   0  0  0  0  0  0  0  0  0  0  0  0
    2.2590    0.9149    0.9946 H   0  0  0  0  0  0  0  0  0  0  0  0
    1.6942   -1.5466   -0.6911 H   0  0  0  0  0  0  0  0  0  0  0  0
    1.7534   -0.0232   -1.5934 H   0  0  0  0  0  0  0  0  0  0  0  0
   -0.8535   -2.1919    0.3668 H   0  0  0  0  0  0  0  0  0  0  0  0
   -2.9498   -0.7771    0.0286 H   0  0  0  0  0  0  0  0  0  0  0  0
   -2.2982   -0.4515    1.6797 H   0  0  0  0  0  0  0  0  0  0  0  0
   -2.3019    1.7338    0.8693 H   0  0  0  0  0  0  0  0  0  0  0  0
   -2.2685    1.1969   -0.8836 H   0  0  0  0  0  0  0  0  0  0  0  0
  1  2  1  0
  2  3  1  0
  3  4  1  0
  4  5  1  0
  5  6  1  0
  6  7  1  0
  7  8  1  0
  8  9  2  0
  5  3  1  0
  8  3  1  0
  1 10  1  0
  1 11  1  0
  1 12  1  0
  2 13  1  0
  2 14  1  0
  5 15  1  0
  6 16  1  0
  6 17  1  0
  7 18  1  0
  7 19  1  0
M  END
