
     RDKit          3D

 16 16  0  0  0  0  0  0  0  0999 V2000
    1.7112    0.4813    0.9152 C   0  0  0  0  0  0  0  0  0  0  0  0
    0.9928   -0.2967   -0.1359 C   0  0  0  0  0  0  0  0  0  0  0  0
   -0.4826   -0.1051   -0.1528 C   0  0  0  0  0  0  0  0  0  0  0  0
   -1.1865   -0.9125   -1.2367 C   0  0  0  0  0  0  0  0  0  0  0  0
   -1.1976    0.9748    0.4314 C   0  0  0  0  0  0  0  0  0  0  0  0
   -1.1094   -0.3380    1.1267 O   0  0  0  0  0  0  0  0  0  0  0  0
    1.0817    1.1363    1.5233 H   0  0  0  0  0  0  0  0  0  0  0  0
    2.2697   -0.1982    1.6015 H   0  0  0  0  0  0  0  0  0  0  0  0
    2.5128    1.1063    0.4254 H   0  0  0  0  0  0  0  0  0  0  0  0
    1.3785   -0.0415   -1.1559 H   0  0  0  0  0  0  0  0  0  0  0  0
    1.1870   -1.4014   -0.0093 H   0  0  0  0  0  0  0  0  0  0  0  0
   -2.2561   -1.0611   -0.9918 H   0  0  0  0  0  0  0  0  0  0  0  0
   -1.1325   -0.3577   -2.2164 H   0  0  0  0  0  0  0  0  0  0  0  0
   -0.6975   -1.8970   -1.3319 H   0  0  0  0  0  0  0  0  0  0  0  0
   -0.8281    1.7352    1.1211 H   0  0  0  0  0  0  0  0  0  0  0  0
   -2.2432    1.1753    0.0861 H   0  0  0  0  0  0  0  0  0  0  0  0
  1  2  1  0
  2  3  1  0
  3  4  1  0
  3  5  1  0
  5  6  1  0
  6  3  1  0
  1  7  1  0
  1  8  1  0
  1  9  1  0
  2 10  1  0
  2 11  1  0
  4 12  1  0
  4 13  1  0
  4 14  1  0
  5 15  1  0
  5 16  1  0
M  END
