
     RDKit          3D

 21 21  0  0  0  0  0  0  0  0999 V2000
    2.1505   -0.9427    0.3078 C   0  0  0  0  0  0  0  0  0  0  0  0
    1.6711    0.4810    0.4833 C   0  0  0  0  0  0  0  0  0  0  0  0
    0.3839    0.6380   -0.2700 C   0  0  0  0  0  0  0  0  0  0  0  0
   -0.2422    1.9736   -0.2157 C   0  0  0  0  0  0  0  0  0  0  0  0
    0.1343    3.1063   -0.1324 O   0  0  0  0  0  0  0  0  0  0  0  0
   -1.5359    1.2662   -0.3113 C   0  0  0  0  0  0  0  0  0  0  0  0
   -0.8493    0.1347    0.4563 C   0  0  0  0  0  0  0  0  0  0  0  0
   -1.2885   -1.2460    0.0548 C   0  0  0  0  0  0  0  0  0  0  0  0
   -1.5926   -1.2997   -1.2953 O   0  0  0  0  0  0  0  0  0  0  0  0
    3.2473   -0.9496    0.0506 H   0  0  0  0  0  0  0  0  0  0  0  0
    2.0628   -1.5340    1.2425 H   0  0  0  0  0  0  0  0  0  0  0  0
    1.6576   -1.4479   -0.5620 H   0  0  0  0  0  0  0  0  0  0  0  0
    1.5484    0.7291    1.5436 H   0  0  0  0  0  0  0  0  0  0  0  0
    2.4289    1.1532    0.0076 H   0  0  0  0  0  0  0  0  0  0  0  0
    0.4094    0.1687   -1.2847 H   0  0  0  0  0  0  0  0  0  0  0  0
   -1.7867    0.8662   -1.3286 H   0  0  0  0  0  0  0  0  0  0  0  0
   -2.3854    1.7234    0.2208 H   0  0  0  0  0  0  0  0  0  0  0  0
   -0.8496    0.3588    1.5195 H   0  0  0  0  0  0  0  0  0  0  0  0
   -2.2074   -1.4732    0.6518 H   0  0  0  0  0  0  0  0  0  0  0  0
   -0.5027   -1.9706    0.3572 H   0  0  0  0  0  0  0  0  0  0  0  0
   -2.4540   -1.7353   -1.4955 H   0  0  0  0  0  0  0  0  0  0  0  0
  1  2  1  0
  2  3  1  0
  3  4  1  0
  4  5  2  0
  4  6  1  0
  6  7  1  0
  7  8  1  0
  8  9  1  0
  7  3  1  0
  1 10  1  0
  1 11  1  0
  1 12  1  0
  2 13  1  0
  2 14  1  0
  3 15  1  0
  6 16  1  0
  6 17  1  0
  7 18  1  0
  8 19  1  0
  8 20  1  0
  9 21  1  0
M  END
