
     RDKit          3D

 23 24  0  0  0  0  0  0  0  0999 V2000
   -2.0331   -1.2638    0.8036 C   0  0  0  0  0  0  0  0  0  0  0  0
   -1.9030   -0.1463   -0.2042 C   0  0  0  0  0  0  0  0  0  0  0  0
   -0.4980    0.3469   -0.3689 C   0  0  0  0  0  0  0  0  0  0  0  0
   -0.4358    1.4542   -1.3807 C   0  0  0  0  0  0  0  0  0  0  0  0
    0.5783   -0.6881   -0.4652 C   0  0  0  0  0  0  0  0  0  0  0  0
    0.3610   -0.9258    0.8846 O   0  0  0  0  0  0  0  0  0  0  0  0
    0.3357    0.4639    0.8421 C   0  0  0  0  0  0  0  0  0  0  0  0
    1.5511    0.3654   -0.0343 C   0  0  0  0  0  0  0  0  0  0  0  0
    2.7868   -0.2024    0.6243 C   0  0  0  0  0  0  0  0  0  0  0  0
   -1.7732   -0.9546    1.8334 H   0  0  0  0  0  0  0  0  0  0  0  0
   -1.5539   -2.2005    0.4799 H   0  0  0  0  0  0  0  0  0  0  0  0
   -3.1374   -1.4992    0.8459 H   0  0  0  0  0  0  0  0  0  0  0  0
   -2.5408    0.6937    0.1423 H   0  0  0  0  0  0  0  0  0  0  0  0
   -2.3415   -0.5270   -1.1505 H   0  0  0  0  0  0  0  0  0  0  0  0
    0.0623    2.3629   -0.9990 H   0  0  0  0  0  0  0  0  0  0  0  0
   -1.4582    1.7830   -1.7056 H   0  0  0  0  0  0  0  0  0  0  0  0
    0.0735    1.0430   -2.2849 H   0  0  0  0  0  0  0  0  0  0  0  0
    0.7033   -1.3766   -1.1892 H   0  0  0  0  0  0  0  0  0  0  0  0
    0.2224    1.0764    1.6348 H   0  0  0  0  0  0  0  0  0  0  0  0
    1.7284    1.1950   -0.7232 H   0  0  0  0  0  0  0  0  0  0  0  0
    3.6501    0.4718    0.4439 H   0  0  0  0  0  0  0  0  0  0  0  0
    2.5956   -0.2499    1.7069 H   0  0  0  0  0  0  0  0  0  0  0  0
    3.0265   -1.2219    0.2641 H   0  0  0  0  0  0  0  0  0  0  0  0
  1  2  1  0
  2  3  1  0
  3  4  1  0
  3  5  1  0
  5  6  1  0
  6  7  1  0
  7  8  1  0
  8  9  1  0
  7  3  1  0
  8  5  1  0
  1 10  1  0
  1 11  1  0
  1 12  1  0
  2 13  1  0
  2 14  1  0
  4 15  1  0
  4 16  1  0
  4 17  1  0
  5 18  1  0
  7 19  1  0
  8 20  1  0
  9 21  1  0
  9 22  1  0
  9 23  1  0
M  END
