
     RDKit          3D

 23 24  0  0  0  0  0  0  0  0999 V2000
   -2.7690    0.4088    0.4683 C   0  0  0  0  0  0  0  0  0  0  0  0
   -1.4953    1.1294    0.1208 C   0  0  0  0  0  0  0  0  0  0  0  0
   -0.3388    0.1913   -0.1015 C   0  0  0  0  0  0  0  0  0  0  0  0
   -0.5090   -0.8319   -1.2268 C   0  0  0  0  0  0  0  0  0  0  0  0
    0.3921   -0.2954    1.0737 C   0  0  0  0  0  0  0  0  0  0  0  0
    1.6029   -1.1741    0.8834 C   0  0  0  0  0  0  0  0  0  0  0  0
    2.2467   -0.0633    0.1069 C   0  0  0  0  0  0  0  0  0  0  0  0
    2.6882   -0.3913   -1.1693 O   0  0  0  0  0  0  0  0  0  0  0  0
    1.0014    0.7455    0.1901 C   0  0  0  0  0  0  0  0  0  0  0  0
   -2.7041    0.0035    1.4945 H   0  0  0  0  0  0  0  0  0  0  0  0
   -2.9659   -0.3526   -0.2932 H   0  0  0  0  0  0  0  0  0  0  0  0
   -3.5756    1.1867    0.4977 H   0  0  0  0  0  0  0  0  0  0  0  0
   -1.2345    1.7781    0.9912 H   0  0  0  0  0  0  0  0  0  0  0  0
   -1.6473    1.8245   -0.7441 H   0  0  0  0  0  0  0  0  0  0  0  0
   -1.0323   -1.7429   -0.8524 H   0  0  0  0  0  0  0  0  0  0  0  0
   -1.0487   -0.3523   -2.0423 H   0  0  0  0  0  0  0  0  0  0  0  0
    0.4812   -1.1740   -1.5855 H   0  0  0  0  0  0  0  0  0  0  0  0
    0.0389   -0.0559    2.0895 H   0  0  0  0  0  0  0  0  0  0  0  0
    1.4290   -2.1134    0.3141 H   0  0  0  0  0  0  0  0  0  0  0  0
    2.0904   -1.3401    1.8833 H   0  0  0  0  0  0  0  0  0  0  0  0
    3.0787    0.4102    0.6700 H   0  0  0  0  0  0  0  0  0  0  0  0
    3.1847    0.4159   -1.5004 H   0  0  0  0  0  0  0  0  0  0  0  0
    1.0861    1.7932    0.5383 H   0  0  0  0  0  0  0  0  0  0  0  0
  1  2  1  0
  2  3  1  0
  3  4  1  0
  3  5  1  0
  5  6  1  0
  6  7  1  0
  7  8  1  0
  7  9  1  0
  9  3  1  0
  9  5  1  0
  1 10  1  0
  1 11  1  0
  1 12  1  0
  2 13  1  0
  2 14  1  0
  4 15  1  0
  4 16  1  0
  4 17  1  0
  5 18  1  0
  6 19  1  0
  6 20  1  0
  7 21  1  0
  8 22  1  0
  9 23  1  0
M  END
