
     RDKit          3D

 25 25  0  0  0  0  0  0  0  0999 V2000
    2.9649    0.3153    0.8677 C   0  0  0  0  0  0  0  0  0  0  0  0
    2.1358   -0.2449   -0.2577 C   0  0  0  0  0  0  0  0  0  0  0  0
    0.6926    0.2506   -0.2038 C   0  0  0  0  0  0  0  0  0  0  0  0
    0.0110   -0.1335    1.0628 C   0  0  0  0  0  0  0  0  0  0  0  0
   -1.2296   -0.9375    0.7157 C   0  0  0  0  0  0  0  0  0  0  0  0
   -2.0506   -0.2443   -0.3408 C   0  0  0  0  0  0  0  0  0  0  0  0
   -2.7553    0.9746    0.1618 C   0  0  0  0  0  0  0  0  0  0  0  0
   -1.3401    0.0431   -1.4797 O   0  0  0  0  0  0  0  0  0  0  0  0
   -0.0033   -0.3242   -1.4147 C   0  0  0  0  0  0  0  0  0  0  0  0
    3.3845   -0.5008    1.5004 H   0  0  0  0  0  0  0  0  0  0  0  0
    2.3650    0.9982    1.4964 H   0  0  0  0  0  0  0  0  0  0  0  0
    3.8625    0.8793    0.4879 H   0  0  0  0  0  0  0  0  0  0  0  0
    2.1453   -1.3582   -0.2845 H   0  0  0  0  0  0  0  0  0  0  0  0
    2.5953    0.0989   -1.2072 H   0  0  0  0  0  0  0  0  0  0  0  0
    0.7299    1.3604   -0.3375 H   0  0  0  0  0  0  0  0  0  0  0  0
   -0.3532    0.7911    1.5934 H   0  0  0  0  0  0  0  0  0  0  0  0
    0.6351   -0.7306    1.7505 H   0  0  0  0  0  0  0  0  0  0  0  0
   -0.9343   -1.9244    0.3474 H   0  0  0  0  0  0  0  0  0  0  0  0
   -1.8203   -1.0374    1.6272 H   0  0  0  0  0  0  0  0  0  0  0  0
   -2.8532   -0.9805   -0.6389 H   0  0  0  0  0  0  0  0  0  0  0  0
   -2.4258    1.2586    1.1894 H   0  0  0  0  0  0  0  0  0  0  0  0
   -2.5396    1.8437   -0.4982 H   0  0  0  0  0  0  0  0  0  0  0  0
   -3.8614    0.8675    0.1751 H   0  0  0  0  0  0  0  0  0  0  0  0
    0.1525   -1.4154   -1.5272 H   0  0  0  0  0  0  0  0  0  0  0  0
    0.4923    0.1502   -2.3101 H   0  0  0  0  0  0  0  0  0  0  0  0
  1  2  1  0
  2  3  1  0
  3  4  1  0
  4  5  1  0
  5  6  1  0
  6  7  1  0
  6  8  1  0
  8  9  1  0
  9  3  1  0
  1 10  1  0
  1 11  1  0
  1 12  1  0
  2 13  1  0
  2 14  1  0
  3 15  1  0
  4 16  1  0
  4 17  1  0
  5 18  1  0
  5 19  1  0
  6 20  1  0
  7 21  1  0
  7 22  1  0
  7 23  1  0
  9 24  1  0
  9 25  1  0
M  END
