
     RDKit          3D

 21 22  0  0  0  0  0  0  0  0999 V2000
    2.5573    0.5562   -0.1239 C   0  0  0  0  0  0  0  0  0  0  0  0
    1.2457    0.9714   -0.7907 C   0  0  0  0  0  0  0  0  0  0  0  0
    0.4418   -0.2920   -0.9691 C   0  0  0  0  0  0  0  0  0  0  0  0
    0.1874   -0.9238    0.3877 C   0  0  0  0  0  0  0  0  0  0  0  0
   -1.2820   -0.7700    0.1793 C   0  0  0  0  0  0  0  0  0  0  0  0
   -2.1282   -1.8390    0.3398 O   0  0  0  0  0  0  0  0  0  0  0  0
   -1.7959    0.6008   -0.0334 C   0  0  0  0  0  0  0  0  0  0  0  0
   -3.1664    0.7107   -0.2045 O   0  0  0  0  0  0  0  0  0  0  0  0
   -1.0436   -0.1061   -1.1105 C   0  0  0  0  0  0  0  0  0  0  0  0
    2.8724    1.3035    0.6452 H   0  0  0  0  0  0  0  0  0  0  0  0
    2.4305   -0.4266    0.4082 H   0  0  0  0  0  0  0  0  0  0  0  0
    3.3673    0.4373   -0.8578 H   0  0  0  0  0  0  0  0  0  0  0  0
    0.7642    1.7099   -0.1333 H   0  0  0  0  0  0  0  0  0  0  0  0
    1.4804    1.4674   -1.7620 H   0  0  0  0  0  0  0  0  0  0  0  0
    0.8731   -0.9394   -1.7295 H   0  0  0  0  0  0  0  0  0  0  0  0
    0.5213   -0.3206    1.2546 H   0  0  0  0  0  0  0  0  0  0  0  0
    0.5732   -1.9651    0.4543 H   0  0  0  0  0  0  0  0  0  0  0  0
   -1.6254   -2.6910    0.2845 H   0  0  0  0  0  0  0  0  0  0  0  0
   -1.2489    1.4738    0.3996 H   0  0  0  0  0  0  0  0  0  0  0  0
   -3.4478    1.5732    0.1465 H   0  0  0  0  0  0  0  0  0  0  0  0
   -1.5767   -0.5306   -1.9913 H   0  0  0  0  0  0  0  0  0  0  0  0
  1  2  1  0
  2  3  1  0
  3  4  1  0
  4  5  1  0
  5  6  1  0
  5  7  1  0
  7  8  1  0
  7  9  1  0
  9  3  1  0
  9  5  1  0
  1 10  1  0
  1 11  1  0
  1 12  1  0
  2 13  1  0
  2 14  1  0
  3 15  1  0
  4 16  1  0
  4 17  1  0
  6 18  1  0
  7 19  1  0
  8 20  1  0
  9 21  1  0
M  END
