
     RDKit          3D

 23 24  0  0  0  0  0  0  0  0999 V2000
   -3.0476   -0.5620   -0.7510 C   0  0  0  0  0  0  0  0  0  0  0  0
   -2.2698    0.0743    0.3437 C   0  0  0  0  0  0  0  0  0  0  0  0
   -0.8783    0.4882   -0.0422 C   0  0  0  0  0  0  0  0  0  0  0  0
   -0.0869    1.1315    1.0584 C   0  0  0  0  0  0  0  0  0  0  0  0
    0.2668   -0.2680    0.5093 C   0  0  0  0  0  0  0  0  0  0  0  0
    1.5932   -0.3332   -0.1391 C   0  0  0  0  0  0  0  0  0  0  0  0
    2.3637    0.9616   -0.3662 C   0  0  0  0  0  0  0  0  0  0  0  0
    2.4798   -1.4738    0.3141 C   0  0  0  0  0  0  0  0  0  0  0  0
    1.9657   -1.3752   -0.9638 O   0  0  0  0  0  0  0  0  0  0  0  0
   -3.4523   -1.5674   -0.4336 H   0  0  0  0  0  0  0  0  0  0  0  0
   -3.9783    0.0416   -0.9650 H   0  0  0  0  0  0  0  0  0  0  0  0
   -2.4973   -0.6842   -1.7030 H   0  0  0  0  0  0  0  0  0  0  0  0
   -2.8076    0.9689    0.7617 H   0  0  0  0  0  0  0  0  0  0  0  0
   -2.1899   -0.6431    1.1939 H   0  0  0  0  0  0  0  0  0  0  0  0
   -0.8071    1.0344   -1.0139 H   0  0  0  0  0  0  0  0  0  0  0  0
    0.5987    1.9561    0.8593 H   0  0  0  0  0  0  0  0  0  0  0  0
   -0.5148    1.1595    2.0908 H   0  0  0  0  0  0  0  0  0  0  0  0
   -0.0118   -1.1093    1.1831 H   0  0  0  0  0  0  0  0  0  0  0  0
    1.7430    1.7279   -0.8385 H   0  0  0  0  0  0  0  0  0  0  0  0
    2.7044    1.2859    0.6598 H   0  0  0  0  0  0  0  0  0  0  0  0
    3.2485    0.7893   -0.9990 H   0  0  0  0  0  0  0  0  0  0  0  0
    3.5441   -1.2944    0.5162 H   0  0  0  0  0  0  0  0  0  0  0  0
    2.0336   -2.3086    0.8998 H   0  0  0  0  0  0  0  0  0  0  0  0
  1  2  1  0
  2  3  1  0
  3  4  1  0
  4  5  1  0
  5  6  1  0
  6  7  1  0
  6  8  1  0
  8  9  1  0
  5  3  1  0
  9  6  1  0
  1 10  1  0
  1 11  1  0
  1 12  1  0
  2 13  1  0
  2 14  1  0
  3 15  1  0
  4 16  1  0
  4 17  1  0
  5 18  1  0
  7 19  1  0
  7 20  1  0
  7 21  1  0
  8 22  1  0
  8 23  1  0
M  END
