
     RDKit          3D

 23 23  0  0  0  0  0  0  0  0999 V2000
    2.0893    1.2101   -0.3982 C   0  0  0  0  0  0  0  0  0  0  0  0
    1.6296   -0.1830   -0.1571 C   0  0  0  0  0  0  0  0  0  0  0  0
    0.1644   -0.3515    0.0427 C   0  0  0  0  0  0  0  0  0  0  0  0
   -0.1347   -1.8181    0.2741 C   0  0  0  0  0  0  0  0  0  0  0  0
   -0.4408    0.4395    1.1321 C   0  0  0  0  0  0  0  0  0  0  0  0
   -1.9209    0.5202    0.7560 C   0  0  0  0  0  0  0  0  0  0  0  0
   -1.9878    0.1788   -0.6703 C   0  0  0  0  0  0  0  0  0  0  0  0
   -2.9748   -0.0073   -1.3486 O   0  0  0  0  0  0  0  0  0  0  0  0
   -0.6021    0.0873   -1.1982 C   0  0  0  0  0  0  0  0  0  0  0  0
    1.9066    1.8493    0.5141 H   0  0  0  0  0  0  0  0  0  0  0  0
    1.6911    1.6703   -1.3166 H   0  0  0  0  0  0  0  0  0  0  0  0
    3.1939    1.1905   -0.5098 H   0  0  0  0  0  0  0  0  0  0  0  0
    2.1706   -0.5784    0.7269 H   0  0  0  0  0  0  0  0  0  0  0  0
    1.9364   -0.8103   -1.0163 H   0  0  0  0  0  0  0  0  0  0  0  0
    0.3131   -2.4598   -0.5141 H   0  0  0  0  0  0  0  0  0  0  0  0
   -1.2251   -1.9690    0.3013 H   0  0  0  0  0  0  0  0  0  0  0  0
    0.2683   -2.1616    1.2510 H   0  0  0  0  0  0  0  0  0  0  0  0
   -0.0906    1.4723    1.2318 H   0  0  0  0  0  0  0  0  0  0  0  0
   -0.3709   -0.0245    2.1414 H   0  0  0  0  0  0  0  0  0  0  0  0
   -2.5264   -0.1557    1.4036 H   0  0  0  0  0  0  0  0  0  0  0  0
   -2.3211    1.5393    0.8800 H   0  0  0  0  0  0  0  0  0  0  0  0
   -0.2446    1.0638   -1.5335 H   0  0  0  0  0  0  0  0  0  0  0  0
   -0.5234   -0.7020   -1.9921 H   0  0  0  0  0  0  0  0  0  0  0  0
  1  2  1  0
  2  3  1  0
  3  4  1  0
  3  5  1  0
  5  6  1  0
  6  7  1  0
  7  8  2  0
  7  9  1  0
  9  3  1  0
  1 10  1  0
  1 11  1  0
  1 12  1  0
  2 13  1  0
  2 14  1  0
  4 15  1  0
  4 16  1  0
  4 17  1  0
  5 18  1  0
  5 19  1  0
  6 20  1  0
  6 21  1  0
  9 22  1  0
  9 23  1  0
M  END
