
     RDKit          3D

 24 24  0  0  0  0  0  0  0  0999 V2000
    2.3694    0.5940   -0.0833 C   0  0  0  0  0  0  0  0  0  0  0  0
    1.0568    0.4000    0.6020 C   0  0  0  0  0  0  0  0  0  0  0  0
    0.0501   -0.3328   -0.2431 C   0  0  0  0  0  0  0  0  0  0  0  0
    0.5059   -1.7024   -0.6368 C   0  0  0  0  0  0  0  0  0  0  0  0
   -0.4053    0.4404   -1.4753 C   0  0  0  0  0  0  0  0  0  0  0  0
   -1.4374    1.0881   -0.5484 C   0  0  0  0  0  0  0  0  0  0  0  0
   -1.3815   -0.2265    0.2372 C   0  0  0  0  0  0  0  0  0  0  0  0
   -1.5785   -0.0999    1.7018 C   0  0  0  0  0  0  0  0  0  0  0  0
    2.7869   -0.3402   -0.5089 H   0  0  0  0  0  0  0  0  0  0  0  0
    3.1106    0.9106    0.7064 H   0  0  0  0  0  0  0  0  0  0  0  0
    2.3572    1.4240   -0.8201 H   0  0  0  0  0  0  0  0  0  0  0  0
    1.2401   -0.2349    1.5012 H   0  0  0  0  0  0  0  0  0  0  0  0
    0.6996    1.3775    0.9560 H   0  0  0  0  0  0  0  0  0  0  0  0
    1.3914   -1.6077   -1.2909 H   0  0  0  0  0  0  0  0  0  0  0  0
   -0.3155   -2.1404   -1.2782 H   0  0  0  0  0  0  0  0  0  0  0  0
    0.6803   -2.3618    0.2390 H   0  0  0  0  0  0  0  0  0  0  0  0
    0.3377    1.1202   -1.8930 H   0  0  0  0  0  0  0  0  0  0  0  0
   -0.9221   -0.2394   -2.1685 H   0  0  0  0  0  0  0  0  0  0  0  0
   -1.0553    1.9228    0.0537 H   0  0  0  0  0  0  0  0  0  0  0  0
   -2.4240    1.2411   -1.0289 H   0  0  0  0  0  0  0  0  0  0  0  0
   -2.0083   -0.9660   -0.2938 H   0  0  0  0  0  0  0  0  0  0  0  0
   -0.7222   -0.4453    2.3180 H   0  0  0  0  0  0  0  0  0  0  0  0
   -1.8937    0.9381    1.9589 H   0  0  0  0  0  0  0  0  0  0  0  0
   -2.4421   -0.7596    1.9949 H   0  0  0  0  0  0  0  0  0  0  0  0
  1  2  1  0
  2  3  1  0
  3  4  1  0
  3  5  1  0
  5  6  1  0
  6  7  1  0
  7  8  1  0
  7  3  1  0
  1  9  1  0
  1 10  1  0
  1 11  1  0
  2 12  1  0
  2 13  1  0
  4 14  1  0
  4 15  1  0
  4 16  1  0
  5 17  1  0
  5 18  1  0
  6 19  1  0
  6 20  1  0
  7 21  1  0
  8 22  1  0
  8 23  1  0
  8 24  1  0
M  END
