
     RDKit          3D

 23 24  0  0  0  0  0  0  0  0999 V2000
    2.6631    1.1743   -0.1800 C   0  0  0  0  0  0  0  0  0  0  0  0
    2.0427    0.0270    0.5891 C   0  0  0  0  0  0  0  0  0  0  0  0
    0.7230   -0.3621    0.0457 C   0  0  0  0  0  0  0  0  0  0  0  0
    0.1305    0.2067   -0.9875 C   0  0  0  0  0  0  0  0  0  0  0  0
   -1.1768   -0.4409   -1.2473 C   0  0  0  0  0  0  0  0  0  0  0  0
   -2.2245   -0.1625   -0.2033 C   0  0  0  0  0  0  0  0  0  0  0  0
   -1.9942    0.9814    0.7538 C   0  0  0  0  0  0  0  0  0  0  0  0
   -1.4276   -1.3997   -0.1419 C   0  0  0  0  0  0  0  0  0  0  0  0
   -0.1149   -1.4545    0.5985 C   0  0  0  0  0  0  0  0  0  0  0  0
    2.1081    2.1185   -0.0648 H   0  0  0  0  0  0  0  0  0  0  0  0
    2.5656    0.8931   -1.2694 H   0  0  0  0  0  0  0  0  0  0  0  0
    3.7440    1.2528    0.0012 H   0  0  0  0  0  0  0  0  0  0  0  0
    1.9633    0.2487    1.6720 H   0  0  0  0  0  0  0  0  0  0  0  0
    2.7599   -0.8328    0.5018 H   0  0  0  0  0  0  0  0  0  0  0  0
    0.5499    1.0208   -1.5478 H   0  0  0  0  0  0  0  0  0  0  0  0
   -1.4764   -0.7073   -2.2733 H   0  0  0  0  0  0  0  0  0  0  0  0
   -3.2613   -0.2670   -0.5589 H   0  0  0  0  0  0  0  0  0  0  0  0
   -1.3621    1.7909    0.2877 H   0  0  0  0  0  0  0  0  0  0  0  0
   -1.4908    0.6301    1.6780 H   0  0  0  0  0  0  0  0  0  0  0  0
   -2.9685    1.4979    0.9973 H   0  0  0  0  0  0  0  0  0  0  0  0
   -1.9060   -2.3745   -0.3737 H   0  0  0  0  0  0  0  0  0  0  0  0
    0.3736   -2.4148    0.3356 H   0  0  0  0  0  0  0  0  0  0  0  0
   -0.2204   -1.4261    1.6839 H   0  0  0  0  0  0  0  0  0  0  0  0
  1  2  1  0
  2  3  1  0
  3  4  2  0
  4  5  1  0
  5  6  1  0
  6  7  1  0
  6  8  1  0
  8  9  1  0
  9  3  1  0
  8  5  1  0
  1 10  1  0
  1 11  1  0
  1 12  1  0
  2 13  1  0
  2 14  1  0
  4 15  1  0
  5 16  1  0
  6 17  1  0
  7 18  1  0
  7 19  1  0
  7 20  1  0
  8 21  1  0
  9 22  1  0
  9 23  1  0
M  END
