
     RDKit          3D

 23 24  0  0  0  0  0  0  0  0999 V2000
    2.7127    0.1327   -0.5158 C   0  0  0  0  0  0  0  0  0  0  0  0
    1.5992    0.8578    0.2350 C   0  0  0  0  0  0  0  0  0  0  0  0
    0.6084   -0.1656    0.7415 C   0  0  0  0  0  0  0  0  0  0  0  0
   -0.0410   -0.9735   -0.2338 C   0  0  0  0  0  0  0  0  0  0  0  0
   -1.0923   -0.8400   -1.2317 C   0  0  0  0  0  0  0  0  0  0  0  0
   -2.2885   -1.0247   -0.4962 O   0  0  0  0  0  0  0  0  0  0  0  0
   -1.9428   -0.8793    0.8736 C   0  0  0  0  0  0  0  0  0  0  0  0
   -0.7797    0.0388    0.7297 C   0  0  0  0  0  0  0  0  0  0  0  0
   -1.2243    1.3625    0.1609 C   0  0  0  0  0  0  0  0  0  0  0  0
    2.2610   -0.6196   -1.1891 H   0  0  0  0  0  0  0  0  0  0  0  0
    3.3195    0.8716   -1.0502 H   0  0  0  0  0  0  0  0  0  0  0  0
    3.3096   -0.4139    0.2663 H   0  0  0  0  0  0  0  0  0  0  0  0
    2.0915    1.3088    1.1352 H   0  0  0  0  0  0  0  0  0  0  0  0
    1.1364    1.6085   -0.4054 H   0  0  0  0  0  0  0  0  0  0  0  0
    0.9964   -0.6337    1.7053 H   0  0  0  0  0  0  0  0  0  0  0  0
   -0.0473   -2.0654    0.1078 H   0  0  0  0  0  0  0  0  0  0  0  0
   -1.0914   -1.7412   -1.9265 H   0  0  0  0  0  0  0  0  0  0  0  0
   -1.1129    0.0138   -1.8963 H   0  0  0  0  0  0  0  0  0  0  0  0
   -1.7366   -1.8365    1.3485 H   0  0  0  0  0  0  0  0  0  0  0  0
   -2.7844   -0.3161    1.3274 H   0  0  0  0  0  0  0  0  0  0  0  0
   -2.3108    1.5567    0.2501 H   0  0  0  0  0  0  0  0  0  0  0  0
   -0.7743    2.1272    0.8723 H   0  0  0  0  0  0  0  0  0  0  0  0
   -0.8083    1.6313   -0.8086 H   0  0  0  0  0  0  0  0  0  0  0  0
  1  2  1  0
  2  3  1  0
  3  4  1  0
  4  5  1  0
  5  6  1  0
  6  7  1  0
  7  8  1  0
  8  9  1  0
  8  3  1  0
  8  4  1  0
  1 10  1  0
  1 11  1  0
  1 12  1  0
  2 13  1  0
  2 14  1  0
  3 15  1  0
  4 16  1  0
  5 17  1  0
  5 18  1  0
  7 19  1  0
  7 20  1  0
  9 21  1  0
  9 22  1  0
  9 23  1  0
M  END
