
     RDKit          3D

 21 22  0  0  0  0  0  0  0  0999 V2000
    2.4995    0.5375    0.0261 C   0  0  0  0  0  0  0  0  0  0  0  0
    1.4005   -0.2783    0.7120 C   0  0  0  0  0  0  0  0  0  0  0  0
    0.5436   -0.8358   -0.4062 C   0  0  0  0  0  0  0  0  0  0  0  0
   -0.0048    0.3103   -1.1618 C   0  0  0  0  0  0  0  0  0  0  0  0
   -1.1515    0.6713   -0.6400 C   0  0  0  0  0  0  0  0  0  0  0  0
   -2.4541    1.2243   -0.1950 C   0  0  0  0  0  0  0  0  0  0  0  0
   -2.7791   -0.1156    0.1683 O   0  0  0  0  0  0  0  0  0  0  0  0
   -1.4638   -0.2173    0.5528 C   0  0  0  0  0  0  0  0  0  0  0  0
   -0.7089   -1.4661    0.1689 C   0  0  0  0  0  0  0  0  0  0  0  0
    2.1283    1.4980   -0.3212 H   0  0  0  0  0  0  0  0  0  0  0  0
    2.8167   -0.0437   -0.8882 H   0  0  0  0  0  0  0  0  0  0  0  0
    3.3544    0.5699    0.7087 H   0  0  0  0  0  0  0  0  0  0  0  0
    1.7975   -1.0431    1.3774 H   0  0  0  0  0  0  0  0  0  0  0  0
    0.8000    0.4286    1.3186 H   0  0  0  0  0  0  0  0  0  0  0  0
    1.1066   -1.5433   -1.0457 H   0  0  0  0  0  0  0  0  0  0  0  0
    0.4829    0.7662   -2.0130 H   0  0  0  0  0  0  0  0  0  0  0  0
   -2.3566    1.8229    0.7148 H   0  0  0  0  0  0  0  0  0  0  0  0
   -3.0993    1.6336   -0.9863 H   0  0  0  0  0  0  0  0  0  0  0  0
   -1.1996    0.2141    1.5276 H   0  0  0  0  0  0  0  0  0  0  0  0
   -1.2458   -2.0363   -0.6090 H   0  0  0  0  0  0  0  0  0  0  0  0
   -0.4665   -2.0971    1.0568 H   0  0  0  0  0  0  0  0  0  0  0  0
  1  2  1  0
  2  3  1  0
  3  4  1  0
  4  5  2  0
  5  6  1  0
  6  7  1  0
  7  8  1  0
  8  9  1  0
  9  3  1  0
  8  5  1  0
  1 10  1  0
  1 11  1  0
  1 12  1  0
  2 13  1  0
  2 14  1  0
  3 15  1  0
  4 16  1  0
  6 17  1  0
  6 18  1  0
  8 19  1  0
  9 20  1  0
  9 21  1  0
M  END
