
     RDKit          3D

 21 22  0  0  0  0  0  0  0  0999 V2000
   -2.6488    0.7068    0.2537 C   0  0  0  0  0  0  0  0  0  0  0  0
   -1.7805   -0.5627    0.1042 C   0  0  0  0  0  0  0  0  0  0  0  0
   -0.7214   -0.2179   -0.8524 C   0  0  0  0  0  0  0  0  0  0  0  0
    0.3033   -1.2244   -1.2403 C   0  0  0  0  0  0  0  0  0  0  0  0
    0.5815   -1.9590   -2.1526 O   0  0  0  0  0  0  0  0  0  0  0  0
    0.9052   -0.9414    0.0613 C   0  0  0  0  0  0  0  0  0  0  0  0
    1.3690    0.2666    0.7073 C   0  0  0  0  0  0  0  0  0  0  0  0
    2.8863    0.4944    0.6215 C   0  0  0  0  0  0  0  0  0  0  0  0
    0.4949    0.4947   -0.3793 C   0  0  0  0  0  0  0  0  0  0  0  0
   -3.4812    0.5503    0.9343 H   0  0  0  0  0  0  0  0  0  0  0  0
   -1.9699    1.4623    0.7001 H   0  0  0  0  0  0  0  0  0  0  0  0
   -2.9552    1.0836   -0.7384 H   0  0  0  0  0  0  0  0  0  0  0  0
   -1.4851   -0.7510    1.1548 H   0  0  0  0  0  0  0  0  0  0  0  0
   -2.4570   -1.3552   -0.2892 H   0  0  0  0  0  0  0  0  0  0  0  0
   -1.1452    0.2069   -1.7923 H   0  0  0  0  0  0  0  0  0  0  0  0
    0.2964   -1.5152    0.7862 H   0  0  0  0  0  0  0  0  0  0  0  0
    0.9994    0.6409    1.7095 H   0  0  0  0  0  0  0  0  0  0  0  0
    3.3444   -0.1637   -0.1461 H   0  0  0  0  0  0  0  0  0  0  0  0
    3.3699    0.3958    1.5899 H   0  0  0  0  0  0  0  0  0  0  0  0
    3.0163    1.5415    0.2676 H   0  0  0  0  0  0  0  0  0  0  0  0
    1.0774    0.8466   -1.2996 H   0  0  0  0  0  0  0  0  0  0  0  0
  1  2  1  0
  2  3  1  0
  3  4  1  0
  4  5  2  0
  4  6  1  0
  6  7  1  0
  7  8  1  0
  7  9  1  0
  9  3  1  0
  9  6  1  0
  1 10  1  0
  1 11  1  0
  1 12  1  0
  2 13  1  0
  2 14  1  0
  3 15  1  0
  6 16  1  0
  7 17  1  0
  8 18  1  0
  8 19  1  0
  8 20  1  0
  9 21  1  0
M  END
