
     RDKit          3D

 21 22  0  0  0  0  0  0  0  0999 V2000
    2.1336   -0.9248    0.0006 C   0  0  0  0  0  0  0  0  0  0  0  0
    1.5835    0.3310    0.6456 C   0  0  0  0  0  0  0  0  0  0  0  0
    0.5639    0.9014   -0.3058 C   0  0  0  0  0  0  0  0  0  0  0  0
   -0.0470    2.0881    0.1569 O   0  0  0  0  0  0  0  0  0  0  0  0
   -1.1494    1.7099   -0.6462 C   0  0  0  0  0  0  0  0  0  0  0  0
   -0.7758    0.3000   -0.3351 C   0  0  0  0  0  0  0  0  0  0  0  0
   -1.3421   -0.3563    0.8368 C   0  0  0  0  0  0  0  0  0  0  0  0
   -1.5969   -1.4387   -0.1900 C   0  0  0  0  0  0  0  0  0  0  0  0
   -1.0670   -0.6740   -1.2256 O   0  0  0  0  0  0  0  0  0  0  0  0
    1.3602   -1.7243    0.0150 H   0  0  0  0  0  0  0  0  0  0  0  0
    2.3713   -0.7198   -1.0816 H   0  0  0  0  0  0  0  0  0  0  0  0
    3.0677   -1.2637    0.4731 H   0  0  0  0  0  0  0  0  0  0  0  0
    2.4061    1.0647    0.7567 H   0  0  0  0  0  0  0  0  0  0  0  0
    1.1940    0.1160    1.6338 H   0  0  0  0  0  0  0  0  0  0  0  0
    0.9467    1.1074   -1.3266 H   0  0  0  0  0  0  0  0  0  0  0  0
   -0.8915    1.9719   -1.7101 H   0  0  0  0  0  0  0  0  0  0  0  0
   -2.1152    2.0606   -0.2900 H   0  0  0  0  0  0  0  0  0  0  0  0
   -2.3013    0.1388    1.1652 H   0  0  0  0  0  0  0  0  0  0  0  0
   -0.6930   -0.6525    1.6780 H   0  0  0  0  0  0  0  0  0  0  0  0
   -0.9818   -2.3375    0.0404 H   0  0  0  0  0  0  0  0  0  0  0  0
   -2.6661   -1.6983   -0.2912 H   0  0  0  0  0  0  0  0  0  0  0  0
  1  2  1  0
  2  3  1  0
  3  4  1  0
  4  5  1  0
  5  6  1  0
  6  7  1  0
  7  8  1  0
  8  9  1  0
  6  3  1  0
  9  6  1  0
  1 10  1  0
  1 11  1  0
  1 12  1  0
  2 13  1  0
  2 14  1  0
  3 15  1  0
  5 16  1  0
  5 17  1  0
  7 18  1  0
  7 19  1  0
  8 20  1  0
  8 21  1  0
M  END
