
     RDKit          3D

 21 21  0  0  0  0  0  0  0  0999 V2000
   -2.8421    0.8405    0.2044 C   0  0  0  0  0  0  0  0  0  0  0  0
   -1.7651   -0.0482   -0.3190 C   0  0  0  0  0  0  0  0  0  0  0  0
   -0.7398   -0.4397    0.7048 C   0  0  0  0  0  0  0  0  0  0  0  0
    0.0176    0.4998    1.3534 O   0  0  0  0  0  0  0  0  0  0  0  0
    0.7093   -0.2208    0.3984 C   0  0  0  0  0  0  0  0  0  0  0  0
    1.6431   -1.3270    0.8377 C   0  0  0  0  0  0  0  0  0  0  0  0
    1.1121    0.5656   -0.8099 C   0  0  0  0  0  0  0  0  0  0  0  0
    2.5814    0.6839   -0.9578 C   0  0  0  0  0  0  0  0  0  0  0  0
    3.3635    0.1963   -0.1794 O   0  0  0  0  0  0  0  0  0  0  0  0
   -3.8257    0.3301   -0.0077 H   0  0  0  0  0  0  0  0  0  0  0  0
   -2.8949    1.7947   -0.3670 H   0  0  0  0  0  0  0  0  0  0  0  0
   -2.7847    1.0544    1.2799 H   0  0  0  0  0  0  0  0  0  0  0  0
   -1.2690    0.4578   -1.1922 H   0  0  0  0  0  0  0  0  0  0  0  0
   -2.1685   -1.0081   -0.7500 H   0  0  0  0  0  0  0  0  0  0  0  0
   -1.0033   -1.3227    1.3268 H   0  0  0  0  0  0  0  0  0  0  0  0
    2.3832   -0.9928    1.5739 H   0  0  0  0  0  0  0  0  0  0  0  0
    2.0895   -1.7575   -0.0902 H   0  0  0  0  0  0  0  0  0  0  0  0
    1.0460   -2.1808    1.2733 H   0  0  0  0  0  0  0  0  0  0  0  0
    0.6752    0.0399   -1.6959 H   0  0  0  0  0  0  0  0  0  0  0  0
    0.7099    1.5958   -0.7713 H   0  0  0  0  0  0  0  0  0  0  0  0
    2.9623    1.2389   -1.8124 H   0  0  0  0  0  0  0  0  0  0  0  0
  1  2  1  0
  2  3  1  0
  3  4  1  0
  4  5  1  0
  5  6  1  0
  5  7  1  0
  7  8  1  0
  8  9  2  0
  5  3  1  0
  1 10  1  0
  1 11  1  0
  1 12  1  0
  2 13  1  0
  2 14  1  0
  3 15  1  0
  6 16  1  0
  6 17  1  0
  6 18  1  0
  7 19  1  0
  7 20  1  0
  8 21  1  0
M  END
