
     RDKit          3D

 27 27  0  0  0  0  0  0  0  0999 V2000
    1.5954   -1.3207    0.7950 C   0  0  0  0  0  0  0  0  0  0  0  0
    1.5110   -0.2779   -0.2443 C   0  0  0  0  0  0  0  0  0  0  0  0
    0.2863    0.5220   -0.3615 C   0  0  0  0  0  0  0  0  0  0  0  0
    0.4622    1.5259   -1.5152 C   0  0  0  0  0  0  0  0  0  0  0  0
    0.0983    1.3650    0.8798 C   0  0  0  0  0  0  0  0  0  0  0  0
   -0.7957    0.5102    1.7484 C   0  0  0  0  0  0  0  0  0  0  0  0
   -1.6219   -0.3619    0.8611 C   0  0  0  0  0  0  0  0  0  0  0  0
   -1.0115   -0.1452   -0.4928 C   0  0  0  0  0  0  0  0  0  0  0  0
   -1.0506   -1.3587   -1.3716 C   0  0  0  0  0  0  0  0  0  0  0  0
    1.9758   -0.8287    1.7419 H   0  0  0  0  0  0  0  0  0  0  0  0
    0.6682   -1.8173    1.0784 H   0  0  0  0  0  0  0  0  0  0  0  0
    2.4156   -2.0329    0.5319 H   0  0  0  0  0  0  0  0  0  0  0  0
    1.6920   -0.7841   -1.2410 H   0  0  0  0  0  0  0  0  0  0  0  0
    2.3937    0.3978   -0.1283 H   0  0  0  0  0  0  0  0  0  0  0  0
    1.0043    2.4283   -1.1129 H   0  0  0  0  0  0  0  0  0  0  0  0
   -0.4914    1.8452   -1.9263 H   0  0  0  0  0  0  0  0  0  0  0  0
    1.1246    1.0887   -2.2879 H   0  0  0  0  0  0  0  0  0  0  0  0
    1.0793    1.5397    1.3808 H   0  0  0  0  0  0  0  0  0  0  0  0
   -0.3982    2.3146    0.6009 H   0  0  0  0  0  0  0  0  0  0  0  0
   -0.1693   -0.0669    2.4794 H   0  0  0  0  0  0  0  0  0  0  0  0
   -1.4286    1.2481    2.3280 H   0  0  0  0  0  0  0  0  0  0  0  0
   -2.6828    0.0246    0.9271 H   0  0  0  0  0  0  0  0  0  0  0  0
   -1.6891   -1.4132    1.1695 H   0  0  0  0  0  0  0  0  0  0  0  0
   -1.6947    0.6025   -1.0063 H   0  0  0  0  0  0  0  0  0  0  0  0
   -0.3939   -1.1806   -2.2372 H   0  0  0  0  0  0  0  0  0  0  0  0
   -0.8047   -2.2991   -0.8245 H   0  0  0  0  0  0  0  0  0  0  0  0
   -2.0744   -1.5255   -1.7722 H   0  0  0  0  0  0  0  0  0  0  0  0
  1  2  1  0
  2  3  1  0
  3  4  1  0
  3  5  1  0
  5  6  1  0
  6  7  1  0
  7  8  1  0
  8  9  1  0
  8  3  1  0
  1 10  1  0
  1 11  1  0
  1 12  1  0
  2 13  1  0
  2 14  1  0
  4 15  1  0
  4 16  1  0
  4 17  1  0
  5 18  1  0
  5 19  1  0
  6 20  1  0
  6 21  1  0
  7 22  1  0
  7 23  1  0
  8 24  1  0
  9 25  1  0
  9 26  1  0
  9 27  1  0
M  END
