
     RDKit          3D

 23 23  0  0  0  0  0  0  0  0999 V2000
   -2.8706    0.3142   -0.1531 C   0  0  0  0  0  0  0  0  0  0  0  0
   -1.4779    0.5856   -0.6441 C   0  0  0  0  0  0  0  0  0  0  0  0
   -0.4490   -0.1384    0.1724 C   0  0  0  0  0  0  0  0  0  0  0  0
   -0.4359    0.2249    1.6459 C   0  0  0  0  0  0  0  0  0  0  0  0
    0.0837   -1.4522   -0.1818 C   0  0  0  0  0  0  0  0  0  0  0  0
    0.8976   -0.2899   -0.5290 C   0  0  0  0  0  0  0  0  0  0  0  0
    2.0531    0.1957    0.2759 C   0  0  0  0  0  0  0  0  0  0  0  0
    3.3549    0.0606   -0.3760 C   0  0  0  0  0  0  0  0  0  0  0  0
    4.3604    0.4309    0.2036 O   0  0  0  0  0  0  0  0  0  0  0  0
   -3.4331   -0.1503   -0.9990 H   0  0  0  0  0  0  0  0  0  0  0  0
   -3.3780    1.2242    0.2312 H   0  0  0  0  0  0  0  0  0  0  0  0
   -2.8948   -0.4383    0.6656 H   0  0  0  0  0  0  0  0  0  0  0  0
   -1.2920    1.6848   -0.4895 H   0  0  0  0  0  0  0  0  0  0  0  0
   -1.3560    0.3802   -1.7331 H   0  0  0  0  0  0  0  0  0  0  0  0
    0.0961   -0.5622    2.2411 H   0  0  0  0  0  0  0  0  0  0  0  0
    0.0272    1.2281    1.8053 H   0  0  0  0  0  0  0  0  0  0  0  0
   -1.4829    0.2742    1.9721 H   0  0  0  0  0  0  0  0  0  0  0  0
    0.3734   -2.1477    0.6570 H   0  0  0  0  0  0  0  0  0  0  0  0
   -0.4306   -1.9994   -0.9938 H   0  0  0  0  0  0  0  0  0  0  0  0
    0.9534   -0.0245   -1.6158 H   0  0  0  0  0  0  0  0  0  0  0  0
    1.8665    1.2890    0.4914 H   0  0  0  0  0  0  0  0  0  0  0  0
    2.0046   -0.3235    1.2759 H   0  0  0  0  0  0  0  0  0  0  0  0
    3.4297   -0.3660   -1.3694 H   0  0  0  0  0  0  0  0  0  0  0  0
  1  2  1  0
  2  3  1  0
  3  4  1  0
  3  5  1  0
  5  6  1  0
  6  7  1  0
  7  8  1  0
  8  9  2  0
  6  3  1  0
  1 10  1  0
  1 11  1  0
  1 12  1  0
  2 13  1  0
  2 14  1  0
  4 15  1  0
  4 16  1  0
  4 17  1  0
  5 18  1  0
  5 19  1  0
  6 20  1  0
  7 21  1  0
  7 22  1  0
  8 23  1  0
M  END
