
     RDKit          3D

 23 23  0  0  0  0  0  0  0  0999 V2000
   -3.2317    0.0053   -0.8958 C   0  0  0  0  0  0  0  0  0  0  0  0
   -2.0561   -0.7586   -0.3212 C   0  0  0  0  0  0  0  0  0  0  0  0
   -0.7607    0.0023   -0.4731 C   0  0  0  0  0  0  0  0  0  0  0  0
   -0.8357    1.2213    0.1861 O   0  0  0  0  0  0  0  0  0  0  0  0
   -0.3620    0.6508    1.3478 C   0  0  0  0  0  0  0  0  0  0  0  0
    0.3218   -0.4092    0.4847 C   0  0  0  0  0  0  0  0  0  0  0  0
    1.6940    0.0390    0.1194 C   0  0  0  0  0  0  0  0  0  0  0  0
    2.1441   -0.4279   -1.1000 O   0  0  0  0  0  0  0  0  0  0  0  0
    3.4420    0.0913   -1.2748 C   0  0  0  0  0  0  0  0  0  0  0  0
   -4.1857   -0.2680   -0.3967 H   0  0  0  0  0  0  0  0  0  0  0  0
   -3.2813   -0.1982   -2.0033 H   0  0  0  0  0  0  0  0  0  0  0  0
   -3.1097    1.1052   -0.8008 H   0  0  0  0  0  0  0  0  0  0  0  0
   -2.2794   -0.9471    0.7536 H   0  0  0  0  0  0  0  0  0  0  0  0
   -2.0128   -1.7399   -0.8513 H   0  0  0  0  0  0  0  0  0  0  0  0
   -0.4822    0.0469   -1.5401 H   0  0  0  0  0  0  0  0  0  0  0  0
   -1.1182    0.2363    2.0302 H   0  0  0  0  0  0  0  0  0  0  0  0
    0.3704    1.2770    1.9258 H   0  0  0  0  0  0  0  0  0  0  0  0
    0.2553   -1.4346    0.8875 H   0  0  0  0  0  0  0  0  0  0  0  0
    2.3803   -0.2793    0.9573 H   0  0  0  0  0  0  0  0  0  0  0  0
    1.7228    1.1488    0.0759 H   0  0  0  0  0  0  0  0  0  0  0  0
    3.4463    1.1978   -1.2722 H   0  0  0  0  0  0  0  0  0  0  0  0
    4.0188   -0.2572   -0.3787 H   0  0  0  0  0  0  0  0  0  0  0  0
    3.9197   -0.3022   -2.1925 H   0  0  0  0  0  0  0  0  0  0  0  0
  1  2  1  0
  2  3  1  0
  3  4  1  0
  4  5  1  0
  5  6  1  0
  6  7  1  0
  7  8  1  0
  8  9  1  0
  6  3  1  0
  1 10  1  0
  1 11  1  0
  1 12  1  0
  2 13  1  0
  2 14  1  0
  3 15  1  0
  5 16  1  0
  5 17  1  0
  6 18  1  0
  7 19  1  0
  7 20  1  0
  9 21  1  0
  9 22  1  0
  9 23  1  0
M  END
