
     RDKit          3D

 27 27  0  0  0  0  0  0  0  0999 V2000
    3.2781    0.3481    0.2680 C   0  0  0  0  0  0  0  0  0  0  0  0
    2.2417   -0.2235   -0.6301 C   0  0  0  0  0  0  0  0  0  0  0  0
    0.8724    0.3480   -0.4582 C   0  0  0  0  0  0  0  0  0  0  0  0
   -0.0389   -0.3618   -1.4600 C   0  0  0  0  0  0  0  0  0  0  0  0
   -1.2720    0.4871   -1.5071 C   0  0  0  0  0  0  0  0  0  0  0  0
   -1.9966    0.3348   -0.2003 C   0  0  0  0  0  0  0  0  0  0  0  0
   -2.7708   -0.9897   -0.2958 C   0  0  0  0  0  0  0  0  0  0  0  0
   -1.1639    0.3576    1.0104 C   0  0  0  0  0  0  0  0  0  0  0  0
    0.2802    0.1410    0.8919 C   0  0  0  0  0  0  0  0  0  0  0  0
    4.0038    0.9827   -0.2942 H   0  0  0  0  0  0  0  0  0  0  0  0
    2.8899    0.9321    1.1195 H   0  0  0  0  0  0  0  0  0  0  0  0
    3.9142   -0.4670    0.7216 H   0  0  0  0  0  0  0  0  0  0  0  0
    2.2437   -1.3285   -0.5234 H   0  0  0  0  0  0  0  0  0  0  0  0
    2.5481   -0.0298   -1.6899 H   0  0  0  0  0  0  0  0  0  0  0  0
    0.9037    1.4411   -0.6491 H   0  0  0  0  0  0  0  0  0  0  0  0
    0.4673   -0.4747   -2.4367 H   0  0  0  0  0  0  0  0  0  0  0  0
   -0.3041   -1.3539   -1.0844 H   0  0  0  0  0  0  0  0  0  0  0  0
   -0.9547    1.5480   -1.6579 H   0  0  0  0  0  0  0  0  0  0  0  0
   -1.9319    0.1349   -2.3287 H   0  0  0  0  0  0  0  0  0  0  0  0
   -2.7919    1.1175   -0.1968 H   0  0  0  0  0  0  0  0  0  0  0  0
   -3.4577   -0.9771    0.5895 H   0  0  0  0  0  0  0  0  0  0  0  0
   -3.3316   -0.9593   -1.2384 H   0  0  0  0  0  0  0  0  0  0  0  0
   -2.0867   -1.8379   -0.2044 H   0  0  0  0  0  0  0  0  0  0  0  0
   -1.3594    1.3335    1.5499 H   0  0  0  0  0  0  0  0  0  0  0  0
   -1.5791   -0.4080    1.7341 H   0  0  0  0  0  0  0  0  0  0  0  0
    0.5640   -0.9029    1.2229 H   0  0  0  0  0  0  0  0  0  0  0  0
    0.8322    0.8078    1.6046 H   0  0  0  0  0  0  0  0  0  0  0  0
  1  2  1  0
  2  3  1  0
  3  4  1  0
  4  5  1  0
  5  6  1  0
  6  7  1  0
  6  8  1  0
  8  9  1  0
  9  3  1  0
  1 10  1  0
  1 11  1  0
  1 12  1  0
  2 13  1  0
  2 14  1  0
  3 15  1  0
  4 16  1  0
  4 17  1  0
  5 18  1  0
  5 19  1  0
  6 20  1  0
  7 21  1  0
  7 22  1  0
  7 23  1  0
  8 24  1  0
  8 25  1  0
  9 26  1  0
  9 27  1  0
M  END
