
     RDKit          3D

 25 25  0  0  0  0  0  0  0  0999 V2000
    1.7110   -1.8520    0.5791 C   0  0  0  0  0  0  0  0  0  0  0  0
    0.3174   -1.2258    0.6790 C   0  0  0  0  0  0  0  0  0  0  0  0
    0.0030   -0.4121   -0.5120 C   0  0  0  0  0  0  0  0  0  0  0  0
    0.8338    0.7363   -0.8750 C   0  0  0  0  0  0  0  0  0  0  0  0
    1.9024    1.2115    0.0291 C   0  0  0  0  0  0  0  0  0  0  0  0
   -0.3014    1.5639   -0.7857 O   0  0  0  0  0  0  0  0  0  0  0  0
   -1.1354    0.5379   -0.3281 C   0  0  0  0  0  0  0  0  0  0  0  0
   -2.3395    0.2934   -1.2066 C   0  0  0  0  0  0  0  0  0  0  0  0
   -1.5560    0.8214    1.0849 C   0  0  0  0  0  0  0  0  0  0  0  0
    1.7388   -2.8204    1.1531 H   0  0  0  0  0  0  0  0  0  0  0  0
    1.9412   -2.1247   -0.4695 H   0  0  0  0  0  0  0  0  0  0  0  0
    2.4621   -1.1823    1.0376 H   0  0  0  0  0  0  0  0  0  0  0  0
   -0.3861   -2.1004    0.6998 H   0  0  0  0  0  0  0  0  0  0  0  0
    0.2364   -0.7369    1.6459 H   0  0  0  0  0  0  0  0  0  0  0  0
   -0.2111   -1.0788   -1.3972 H   0  0  0  0  0  0  0  0  0  0  0  0
    1.1766    0.7494   -1.9376 H   0  0  0  0  0  0  0  0  0  0  0  0
    2.8733    0.7573   -0.3159 H   0  0  0  0  0  0  0  0  0  0  0  0
    2.0459    2.3162   -0.1619 H   0  0  0  0  0  0  0  0  0  0  0  0
    1.7206    1.1054    1.0909 H   0  0  0  0  0  0  0  0  0  0  0  0
   -2.0807   -0.5066   -1.9352 H   0  0  0  0  0  0  0  0  0  0  0  0
   -3.2101   -0.0572   -0.6150 H   0  0  0  0  0  0  0  0  0  0  0  0
   -2.6524    1.2165   -1.7404 H   0  0  0  0  0  0  0  0  0  0  0  0
   -0.6900    1.0802    1.7104 H   0  0  0  0  0  0  0  0  0  0  0  0
   -2.2481    1.7118    1.0372 H   0  0  0  0  0  0  0  0  0  0  0  0
   -2.1517   -0.0041    1.5330 H   0  0  0  0  0  0  0  0  0  0  0  0
  1  2  1  0
  2  3  1  0
  3  4  1  0
  4  5  1  0
  4  6  1  0
  6  7  1  0
  7  8  1  0
  7  9  1  0
  7  3  1  0
  1 10  1  0
  1 11  1  0
  1 12  1  0
  2 13  1  0
  2 14  1  0
  3 15  1  0
  4 16  1  0
  5 17  1  0
  5 18  1  0
  5 19  1  0
  8 20  1  0
  8 21  1  0
  8 22  1  0
  9 23  1  0
  9 24  1  0
  9 25  1  0
M  END
