
     RDKit          3D

 22 23  0  0  0  0  0  0  0  0999 V2000
    2.5989    0.9099   -0.1419 C   0  0  0  0  0  0  0  0  0  0  0  0
    1.8026   -0.3750   -0.3537 C   0  0  0  0  0  0  0  0  0  0  0  0
    0.7109   -0.3597    0.7169 C   0  0  0  0  0  0  0  0  0  0  0  0
   -0.2448   -1.5715    0.7159 C   0  0  0  0  0  0  0  0  0  0  0  0
   -0.6496   -0.2546    0.2758 C   0  0  0  0  0  0  0  0  0  0  0  0
   -1.1127    0.0886   -1.0938 C   0  0  0  0  0  0  0  0  0  0  0  0
   -2.4741    0.3767   -0.4718 C   0  0  0  0  0  0  0  0  0  0  0  0
   -1.7269    0.5706    0.8569 C   0  0  0  0  0  0  0  0  0  0  0  0
    3.5531    0.9028   -0.6856 H   0  0  0  0  0  0  0  0  0  0  0  0
    1.9948    1.7714   -0.5322 H   0  0  0  0  0  0  0  0  0  0  0  0
    2.7195    1.0645    0.9530 H   0  0  0  0  0  0  0  0  0  0  0  0
    1.3886   -0.3383   -1.3711 H   0  0  0  0  0  0  0  0  0  0  0  0
    2.4747   -1.2394   -0.1936 H   0  0  0  0  0  0  0  0  0  0  0  0
    1.0768   -0.0472    1.7049 H   0  0  0  0  0  0  0  0  0  0  0  0
   -0.5657   -1.9210    1.7171 H   0  0  0  0  0  0  0  0  0  0  0  0
   -0.0744   -2.3394   -0.0844 H   0  0  0  0  0  0  0  0  0  0  0  0
   -1.0958   -0.8014   -1.7530 H   0  0  0  0  0  0  0  0  0  0  0  0
   -0.6378    0.9707   -1.5652 H   0  0  0  0  0  0  0  0  0  0  0  0
   -2.9764    1.2714   -0.8320 H   0  0  0  0  0  0  0  0  0  0  0  0
   -3.0514   -0.5523   -0.4179 H   0  0  0  0  0  0  0  0  0  0  0  0
   -1.4480    1.6596    0.9120 H   0  0  0  0  0  0  0  0  0  0  0  0
   -2.2624    0.2136    1.7376 H   0  0  0  0  0  0  0  0  0  0  0  0
  1  2  1  0
  2  3  1  0
  3  4  1  0
  4  5  1  0
  5  6  1  0
  6  7  1  0
  7  8  1  0
  5  3  1  0
  8  5  1  0
  1  9  1  0
  1 10  1  0
  1 11  1  0
  2 12  1  0
  2 13  1  0
  3 14  1  0
  4 15  1  0
  4 16  1  0
  6 17  1  0
  6 18  1  0
  7 19  1  0
  7 20  1  0
  8 21  1  0
  8 22  1  0
M  END
