
     RDKit          3D

 23 23  0  0  0  0  0  0  0  0999 V2000
   -2.2589    0.2118   -0.6294 C   0  0  0  0  0  0  0  0  0  0  0  0
   -1.4834    0.2329    0.6493 C   0  0  0  0  0  0  0  0  0  0  0  0
   -0.0146    0.0988    0.4905 C   0  0  0  0  0  0  0  0  0  0  0  0
    0.4872   -1.1559   -0.1695 C   0  0  0  0  0  0  0  0  0  0  0  0
    0.9175   -2.2570    0.7521 C   0  0  0  0  0  0  0  0  0  0  0  0
    1.5683   -0.3270   -0.7482 C   0  0  0  0  0  0  0  0  0  0  0  0
    2.6970   -0.5082   -1.1198 O   0  0  0  0  0  0  0  0  0  0  0  0
    0.6277    0.8126   -0.6585 C   0  0  0  0  0  0  0  0  0  0  0  0
    1.2410    2.1333   -0.2795 C   0  0  0  0  0  0  0  0  0  0  0  0
   -3.3337    0.4077   -0.3587 H   0  0  0  0  0  0  0  0  0  0  0  0
   -1.9791    0.9776   -1.3482 H   0  0  0  0  0  0  0  0  0  0  0  0
   -2.1695   -0.7868   -1.0874 H   0  0  0  0  0  0  0  0  0  0  0  0
   -1.7005    1.1594    1.1990 H   0  0  0  0  0  0  0  0  0  0  0  0
   -1.8440   -0.6115    1.2812 H   0  0  0  0  0  0  0  0  0  0  0  0
    0.5076    0.3714    1.4390 H   0  0  0  0  0  0  0  0  0  0  0  0
   -0.2558   -1.4787   -0.9462 H   0  0  0  0  0  0  0  0  0  0  0  0
    0.5177   -3.2120    0.3527 H   0  0  0  0  0  0  0  0  0  0  0  0
    0.4494   -2.0972    1.7303 H   0  0  0  0  0  0  0  0  0  0  0  0
    2.0063   -2.3556    0.8539 H   0  0  0  0  0  0  0  0  0  0  0  0
    0.0446    0.8911   -1.5898 H   0  0  0  0  0  0  0  0  0  0  0  0
    0.4273    2.7269    0.2220 H   0  0  0  0  0  0  0  0  0  0  0  0
    2.0634    2.0678    0.4278 H   0  0  0  0  0  0  0  0  0  0  0  0
    1.4848    2.6986   -1.2101 H   0  0  0  0  0  0  0  0  0  0  0  0
  1  2  1  0
  2  3  1  0
  3  4  1  0
  4  5  1  0
  4  6  1  0
  6  7  2  0
  6  8  1  0
  8  9  1  0
  8  3  1  0
  1 10  1  0
  1 11  1  0
  1 12  1  0
  2 13  1  0
  2 14  1  0
  3 15  1  0
  4 16  1  0
  5 17  1  0
  5 18  1  0
  5 19  1  0
  8 20  1  0
  9 21  1  0
  9 22  1  0
  9 23  1  0
M  END
