
     RDKit          3D

 25 25  0  0  0  0  0  0  0  0999 V2000
   -1.9489   -1.9309   -0.0076 C   0  0  0  0  0  0  0  0  0  0  0  0
   -1.7192   -0.4634    0.0381 C   0  0  0  0  0  0  0  0  0  0  0  0
   -0.4965   -0.0496    0.8026 C   0  0  0  0  0  0  0  0  0  0  0  0
   -0.2987    1.4701    0.8239 C   0  0  0  0  0  0  0  0  0  0  0  0
   -1.1484    2.3170   -0.0802 C   0  0  0  0  0  0  0  0  0  0  0  0
    0.6733    0.5469    0.1099 C   0  0  0  0  0  0  0  0  0  0  0  0
    2.0376    0.4872    0.7106 C   0  0  0  0  0  0  0  0  0  0  0  0
    2.4741   -0.8241    0.9123 O   0  0  0  0  0  0  0  0  0  0  0  0
    2.4914   -1.4408   -0.3411 C   0  0  0  0  0  0  0  0  0  0  0  0
   -1.7290   -2.4576    0.9360 H   0  0  0  0  0  0  0  0  0  0  0  0
   -1.4560   -2.4331   -0.8868 H   0  0  0  0  0  0  0  0  0  0  0  0
   -3.0521   -2.0863   -0.1922 H   0  0  0  0  0  0  0  0  0  0  0  0
   -1.7045   -0.0673   -0.9902 H   0  0  0  0  0  0  0  0  0  0  0  0
   -2.5996   -0.0032    0.5709 H   0  0  0  0  0  0  0  0  0  0  0  0
   -0.3859   -0.5157    1.8060 H   0  0  0  0  0  0  0  0  0  0  0  0
    0.0164    1.9378    1.7747 H   0  0  0  0  0  0  0  0  0  0  0  0
   -0.6673    2.4019   -1.0970 H   0  0  0  0  0  0  0  0  0  0  0  0
   -1.1979    3.3484    0.3058 H   0  0  0  0  0  0  0  0  0  0  0  0
   -2.1604    1.9194   -0.1989 H   0  0  0  0  0  0  0  0  0  0  0  0
    0.6500    0.5441   -1.0055 H   0  0  0  0  0  0  0  0  0  0  0  0
    2.0368    0.9597    1.7147 H   0  0  0  0  0  0  0  0  0  0  0  0
    2.7749    1.0696    0.1117 H   0  0  0  0  0  0  0  0  0  0  0  0
    2.8340   -2.4843   -0.2154 H   0  0  0  0  0  0  0  0  0  0  0  0
    1.4566   -1.4096   -0.7497 H   0  0  0  0  0  0  0  0  0  0  0  0
    3.1193   -0.8361   -1.0101 H   0  0  0  0  0  0  0  0  0  0  0  0
  1  2  1  0
  2  3  1  0
  3  4  1  0
  4  5  1  0
  4  6  1  0
  6  7  1  0
  7  8  1  0
  8  9  1  0
  6  3  1  0
  1 10  1  0
  1 11  1  0
  1 12  1  0
  2 13  1  0
  2 14  1  0
  3 15  1  0
  4 16  1  0
  5 17  1  0
  5 18  1  0
  5 19  1  0
  6 20  1  0
  7 21  1  0
  7 22  1  0
  9 23  1  0
  9 24  1  0
  9 25  1  0
M  END
