
     RDKit          3D

 23 24  0  0  0  0  0  0  0  0999 V2000
   -2.8950    0.2886   -1.0312 C   0  0  0  0  0  0  0  0  0  0  0  0
   -2.0681    0.1003    0.2285 C   0  0  0  0  0  0  0  0  0  0  0  0
   -0.6121    0.2741   -0.0123 C   0  0  0  0  0  0  0  0  0  0  0  0
    0.3366    0.1284    1.1173 C   0  0  0  0  0  0  0  0  0  0  0  0
    0.1181   -1.3372    1.0648 C   0  0  0  0  0  0  0  0  0  0  0  0
    0.1549   -0.9611   -0.3693 C   0  0  0  0  0  0  0  0  0  0  0  0
    1.3665   -0.1431    0.0268 C   0  0  0  0  0  0  0  0  0  0  0  0
    1.6680    0.9237   -0.7820 O   0  0  0  0  0  0  0  0  0  0  0  0
    3.0763    0.9689   -0.8914 C   0  0  0  0  0  0  0  0  0  0  0  0
   -3.9129   -0.0882   -0.7898 H   0  0  0  0  0  0  0  0  0  0  0  0
   -2.9954    1.3485   -1.3207 H   0  0  0  0  0  0  0  0  0  0  0  0
   -2.5151   -0.3524   -1.8657 H   0  0  0  0  0  0  0  0  0  0  0  0
   -2.2742   -0.9138    0.5742 H   0  0  0  0  0  0  0  0  0  0  0  0
   -2.4570    0.8731    0.9543 H   0  0  0  0  0  0  0  0  0  0  0  0
   -0.3746    1.1127   -0.7182 H   0  0  0  0  0  0  0  0  0  0  0  0
    0.4794    0.7262    1.9046 H   0  0  0  0  0  0  0  0  0  0  0  0
   -0.7624   -1.7888    1.4996 H   0  0  0  0  0  0  0  0  0  0  0  0
    1.0894   -1.8652    1.3213 H   0  0  0  0  0  0  0  0  0  0  0  0
    0.0668   -1.5298   -1.1830 H   0  0  0  0  0  0  0  0  0  0  0  0
    2.2121   -0.7365    0.4219 H   0  0  0  0  0  0  0  0  0  0  0  0
    3.4990    1.1018    0.1342 H   0  0  0  0  0  0  0  0  0  0  0  0
    3.3283    1.8349   -1.5009 H   0  0  0  0  0  0  0  0  0  0  0  0
    3.4715    0.0349   -1.3485 H   0  0  0  0  0  0  0  0  0  0  0  0
  1  2  1  0
  2  3  1  0
  3  4  1  0
  4  5  1  0
  5  6  1  0
  6  7  1  0
  7  8  1  0
  8  9  1  0
  6  3  1  0
  7  4  1  0
  1 10  1  0
  1 11  1  0
  1 12  1  0
  2 13  1  0
  2 14  1  0
  3 15  1  0
  4 16  1  0
  5 17  1  0
  5 18  1  0
  6 19  1  0
  7 20  1  0
  9 21  1  0
  9 22  1  0
  9 23  1  0
M  END
