
     RDKit          3D

 27 27  0  0  0  0  0  0  0  0999 V2000
    2.5546    0.9845   -0.2503 C   0  0  0  0  0  0  0  0  0  0  0  0
    1.1199    0.8833   -0.7914 C   0  0  0  0  0  0  0  0  0  0  0  0
    0.5019   -0.3379   -0.2115 C   0  0  0  0  0  0  0  0  0  0  0  0
    1.2688   -1.6148   -0.5872 C   0  0  0  0  0  0  0  0  0  0  0  0
    0.1624   -0.2238    1.2671 C   0  0  0  0  0  0  0  0  0  0  0  0
   -0.8854   -0.4596    0.2492 C   0  0  0  0  0  0  0  0  0  0  0  0
   -1.4160   -1.9066    0.2358 C   0  0  0  0  0  0  0  0  0  0  0  0
   -1.9610    0.5229   -0.0759 C   0  0  0  0  0  0  0  0  0  0  0  0
   -1.7705    1.9170    0.3606 C   0  0  0  0  0  0  0  0  0  0  0  0
    3.2178    0.2560   -0.7530 H   0  0  0  0  0  0  0  0  0  0  0  0
    2.4895    0.6779    0.8139 H   0  0  0  0  0  0  0  0  0  0  0  0
    2.9146    2.0168   -0.2846 H   0  0  0  0  0  0  0  0  0  0  0  0
    1.1752    0.7428   -1.9075 H   0  0  0  0  0  0  0  0  0  0  0  0
    0.6482    1.8360   -0.5297 H   0  0  0  0  0  0  0  0  0  0  0  0
    0.7631   -2.5041   -0.1187 H   0  0  0  0  0  0  0  0  0  0  0  0
    2.2931   -1.5572   -0.1651 H   0  0  0  0  0  0  0  0  0  0  0  0
    1.2746   -1.6731   -1.6848 H   0  0  0  0  0  0  0  0  0  0  0  0
    0.3166    0.7364    1.7738 H   0  0  0  0  0  0  0  0  0  0  0  0
    0.4979   -1.0793    1.9264 H   0  0  0  0  0  0  0  0  0  0  0  0
   -1.2160   -2.3894   -0.7405 H   0  0  0  0  0  0  0  0  0  0  0  0
   -0.9396   -2.5244    1.0044 H   0  0  0  0  0  0  0  0  0  0  0  0
   -2.4986   -1.9420    0.3971 H   0  0  0  0  0  0  0  0  0  0  0  0
   -2.9306    0.1210    0.3453 H   0  0  0  0  0  0  0  0  0  0  0  0
   -2.1674    0.5244   -1.1882 H   0  0  0  0  0  0  0  0  0  0  0  0
   -2.7536    2.2883    0.7806 H   0  0  0  0  0  0  0  0  0  0  0  0
   -1.6172    2.5971   -0.5209 H   0  0  0  0  0  0  0  0  0  0  0  0
   -1.0420    2.1076    1.1477 H   0  0  0  0  0  0  0  0  0  0  0  0
  1  2  1  0
  2  3  1  0
  3  4  1  0
  3  5  1  0
  5  6  1  0
  6  7  1  0
  6  8  1  0
  8  9  1  0
  6  3  1  0
  1 10  1  0
  1 11  1  0
  1 12  1  0
  2 13  1  0
  2 14  1  0
  4 15  1  0
  4 16  1  0
  4 17  1  0
  5 18  1  0
  5 19  1  0
  7 20  1  0
  7 21  1  0
  7 22  1  0
  8 23  1  0
  8 24  1  0
  9 25  1  0
  9 26  1  0
  9 27  1  0
M  END
