
     RDKit          3D

 19 21  0  0  0  0  0  0  0  0999 V2000
   -2.6675    0.2367    0.6968 C   0  0  0  0  0  0  0  0  0  0  0  0
   -1.6438    0.4352   -0.3598 C   0  0  0  0  0  0  0  0  0  0  0  0
   -0.3949   -0.3116   -0.1390 C   0  0  0  0  0  0  0  0  0  0  0  0
    0.6878   -0.1295   -1.2141 C   0  0  0  0  0  0  0  0  0  0  0  0
    1.6558   -0.0518   -0.0889 C   0  0  0  0  0  0  0  0  0  0  0  0
    2.9920   -0.2787    0.0062 C   0  0  0  0  0  0  0  0  0  0  0  0
    2.4485    1.0215    0.1563 O   0  0  0  0  0  0  0  0  0  0  0  0
    0.5325   -0.3329    0.8582 C   0  0  0  0  0  0  0  0  0  0  0  0
   -0.2920   -1.4448    0.6079 O   0  0  0  0  0  0  0  0  0  0  0  0
   -2.6220    1.0855    1.4163 H   0  0  0  0  0  0  0  0  0  0  0  0
   -2.5335   -0.7161    1.2706 H   0  0  0  0  0  0  0  0  0  0  0  0
   -3.6789    0.1813    0.2196 H   0  0  0  0  0  0  0  0  0  0  0  0
   -2.0716    0.1900   -1.3715 H   0  0  0  0  0  0  0  0  0  0  0  0
   -1.3960    1.5350   -0.4310 H   0  0  0  0  0  0  0  0  0  0  0  0
    0.5750    0.8120   -1.7547 H   0  0  0  0  0  0  0  0  0  0  0  0
    0.7234   -1.0495   -1.8269 H   0  0  0  0  0  0  0  0  0  0  0  0
    3.6507   -0.4154   -0.8761 H   0  0  0  0  0  0  0  0  0  0  0  0
    3.4684   -0.7298    0.9272 H   0  0  0  0  0  0  0  0  0  0  0  0
    0.5661   -0.0372    1.9028 H   0  0  0  0  0  0  0  0  0  0  0  0
  1  2  1  0
  2  3  1  0
  3  4  1  0
  4  5  1  0
  5  6  1  0
  6  7  1  0
  5  8  1  0
  8  9  1  0
  8  3  1  0
  9  3  1  0
  7  5  1  0
  1 10  1  0
  1 11  1  0
  1 12  1  0
  2 13  1  0
  2 14  1  0
  4 15  1  0
  4 16  1  0
  6 17  1  0
  6 18  1  0
  8 19  1  0
M  END
