
     RDKit          3D

 19 20  0  0  0  0  0  0  0  0999 V2000
   -2.3749   -0.3625   -0.6031 C   0  0  0  0  0  0  0  0  0  0  0  0
   -1.4652    0.3219    0.3404 C   0  0  0  0  0  0  0  0  0  0  0  0
   -0.0537    0.1905    0.0550 C   0  0  0  0  0  0  0  0  0  0  0  0
    0.9082    0.8800    1.0028 C   0  0  0  0  0  0  0  0  0  0  0  0
    1.7358    0.7828   -0.2586 C   0  0  0  0  0  0  0  0  0  0  0  0
    1.9946   -0.7271   -0.3631 C   0  0  0  0  0  0  0  0  0  0  0  0
    0.5754   -1.1142   -0.1178 C   0  0  0  0  0  0  0  0  0  0  0  0
    0.1306   -2.2169   -0.0836 O   0  0  0  0  0  0  0  0  0  0  0  0
    0.5328    0.9512   -0.9531 O   0  0  0  0  0  0  0  0  0  0  0  0
   -2.0205   -1.3254   -0.9964 H   0  0  0  0  0  0  0  0  0  0  0  0
   -2.6797    0.2577   -1.4849 H   0  0  0  0  0  0  0  0  0  0  0  0
   -3.3442   -0.5682   -0.0624 H   0  0  0  0  0  0  0  0  0  0  0  0
   -1.6904   -0.0143    1.3714 H   0  0  0  0  0  0  0  0  0  0  0  0
   -1.7351    1.4182    0.3338 H   0  0  0  0  0  0  0  0  0  0  0  0
    0.6322    1.9129    1.2819 H   0  0  0  0  0  0  0  0  0  0  0  0
    1.2964    0.2467    1.8179 H   0  0  0  0  0  0  0  0  0  0  0  0
    2.5404    1.4467   -0.4223 H   0  0  0  0  0  0  0  0  0  0  0  0
    2.6507   -0.9880    0.4860 H   0  0  0  0  0  0  0  0  0  0  0  0
    2.3665   -1.0176   -1.3438 H   0  0  0  0  0  0  0  0  0  0  0  0
  1  2  1  0
  2  3  1  0
  3  4  1  0
  4  5  1  0
  5  6  1  0
  6  7  1  0
  7  8  2  0
  5  9  1  0
  7  3  1  0
  9  3  1  0
  1 10  1  0
  1 11  1  0
  1 12  1  0
  2 13  1  0
  2 14  1  0
  4 15  1  0
  4 16  1  0
  5 17  1  0
  6 18  1  0
  6 19  1  0
M  END
