
     RDKit          3D

 23 24  0  0  0  0  0  0  0  0999 V2000
    2.6227   -0.0876   -0.1162 C   0  0  0  0  0  0  0  0  0  0  0  0
    1.3235   -0.7719    0.2511 C   0  0  0  0  0  0  0  0  0  0  0  0
    0.1434   -0.1356   -0.2537 C   0  0  0  0  0  0  0  0  0  0  0  0
   -0.0573    0.0372   -1.7202 C   0  0  0  0  0  0  0  0  0  0  0  0
   -1.2355    0.7115   -1.7593 C   0  0  0  0  0  0  0  0  0  0  0  0
   -1.5678    0.8755   -0.3361 C   0  0  0  0  0  0  0  0  0  0  0  0
   -0.2148    1.2709    0.2314 C   0  0  0  0  0  0  0  0  0  0  0  0
   -1.2238   -0.5117    0.1968 C   0  0  0  0  0  0  0  0  0  0  0  0
   -1.4602   -0.7324    1.6382 C   0  0  0  0  0  0  0  0  0  0  0  0
    2.6785    0.9507    0.2539 H   0  0  0  0  0  0  0  0  0  0  0  0
    2.7094   -0.0777   -1.2279 H   0  0  0  0  0  0  0  0  0  0  0  0
    3.4509   -0.7315    0.2435 H   0  0  0  0  0  0  0  0  0  0  0  0
    1.3047   -0.8933    1.3460 H   0  0  0  0  0  0  0  0  0  0  0  0
    1.4017   -1.8088   -0.1608 H   0  0  0  0  0  0  0  0  0  0  0  0
    0.5556   -0.2794   -2.5566 H   0  0  0  0  0  0  0  0  0  0  0  0
   -1.7731    1.0350   -2.6384 H   0  0  0  0  0  0  0  0  0  0  0  0
   -2.4389    1.3572   -0.0083 H   0  0  0  0  0  0  0  0  0  0  0  0
    0.3145    2.0645   -0.3075 H   0  0  0  0  0  0  0  0  0  0  0  0
   -0.1664    1.4237    1.3053 H   0  0  0  0  0  0  0  0  0  0  0  0
   -1.6526   -1.3038   -0.4259 H   0  0  0  0  0  0  0  0  0  0  0  0
   -0.7560   -0.2421    2.3245 H   0  0  0  0  0  0  0  0  0  0  0  0
   -1.4737   -1.8252    1.8347 H   0  0  0  0  0  0  0  0  0  0  0  0
   -2.4849   -0.3255    1.8853 H   0  0  0  0  0  0  0  0  0  0  0  0
  1  2  1  0
  2  3  1  0
  3  4  1  0
  4  5  2  0
  5  6  1  0
  6  7  1  0
  6  8  1  0
  8  9  1  0
  7  3  1  0
  8  3  1  0
  1 10  1  0
  1 11  1  0
  1 12  1  0
  2 13  1  0
  2 14  1  0
  4 15  1  0
  5 16  1  0
  6 17  1  0
  7 18  1  0
  7 19  1  0
  8 20  1  0
  9 21  1  0
  9 22  1  0
  9 23  1  0
M  END
