
     RDKit          3D

 21 21  0  0  0  0  0  0  0  0999 V2000
   -1.9176    1.3511   -0.3070 C   0  0  0  0  0  0  0  0  0  0  0  0
   -1.7378    0.1582    0.6135 C   0  0  0  0  0  0  0  0  0  0  0  0
   -0.3576   -0.4153    0.2493 C   0  0  0  0  0  0  0  0  0  0  0  0
    0.6348    0.4837    0.4379 O   0  0  0  0  0  0  0  0  0  0  0  0
    1.9021    0.1069    0.1562 C   0  0  0  0  0  0  0  0  0  0  0  0
    2.8421    1.2297    0.4286 C   0  0  0  0  0  0  0  0  0  0  0  0
    2.4179    2.2938    0.8449 O   0  0  0  0  0  0  0  0  0  0  0  0
   -0.3734   -1.1915   -1.0680 C   0  0  0  0  0  0  0  0  0  0  0  0
   -0.2255   -1.8702    0.2415 C   0  0  0  0  0  0  0  0  0  0  0  0
   -1.6205    2.2811    0.2237 H   0  0  0  0  0  0  0  0  0  0  0  0
   -2.9891    1.4312   -0.5358 H   0  0  0  0  0  0  0  0  0  0  0  0
   -1.3221    1.2712   -1.2273 H   0  0  0  0  0  0  0  0  0  0  0  0
   -2.5276   -0.5896    0.4362 H   0  0  0  0  0  0  0  0  0  0  0  0
   -1.7009    0.5179    1.6560 H   0  0  0  0  0  0  0  0  0  0  0  0
    2.1025   -0.2320   -0.8706 H   0  0  0  0  0  0  0  0  0  0  0  0
    2.2088   -0.7247    0.8276 H   0  0  0  0  0  0  0  0  0  0  0  0
    3.9197    1.1265    0.2636 H   0  0  0  0  0  0  0  0  0  0  0  0
   -1.3458   -1.3025   -1.6045 H   0  0  0  0  0  0  0  0  0  0  0  0
    0.4714   -1.0686   -1.7598 H   0  0  0  0  0  0  0  0  0  0  0  0
    0.7252   -2.4049    0.4080 H   0  0  0  0  0  0  0  0  0  0  0  0
   -1.1063   -2.4521    0.5863 H   0  0  0  0  0  0  0  0  0  0  0  0
  1  2  1  0
  2  3  1  0
  3  4  1  0
  4  5  1  0
  5  6  1  0
  6  7  2  0
  3  8  1  0
  8  9  1  0
  9  3  1  0
  1 10  1  0
  1 11  1  0
  1 12  1  0
  2 13  1  0
  2 14  1  0
  5 15  1  0
  5 16  1  0
  6 17  1  0
  8 18  1  0
  8 19  1  0
  9 20  1  0
  9 21  1  0
M  END
