
     RDKit          3D

 21 22  0  0  0  0  0  0  0  0999 V2000
   -2.5007   -0.1869   -0.6115 C   0  0  0  0  0  0  0  0  0  0  0  0
   -1.5772   -0.5921    0.5418 C   0  0  0  0  0  0  0  0  0  0  0  0
   -0.2957    0.1734    0.3439 C   0  0  0  0  0  0  0  0  0  0  0  0
    0.3590   -0.1616   -0.9941 C   0  0  0  0  0  0  0  0  0  0  0  0
    1.8121   -0.2424   -0.5163 C   0  0  0  0  0  0  0  0  0  0  0  0
    2.1201    1.0396    0.1735 C   0  0  0  0  0  0  0  0  0  0  0  0
    1.6495    0.8366    1.4900 O   0  0  0  0  0  0  0  0  0  0  0  0
    0.7840   -0.2401    1.3207 C   0  0  0  0  0  0  0  0  0  0  0  0
    1.6312   -1.1085    0.5893 O   0  0  0  0  0  0  0  0  0  0  0  0
   -1.8371   -0.2163   -1.5248 H   0  0  0  0  0  0  0  0  0  0  0  0
   -2.8363    0.8331   -0.3852 H   0  0  0  0  0  0  0  0  0  0  0  0
   -3.2890   -0.9417   -0.6617 H   0  0  0  0  0  0  0  0  0  0  0  0
   -2.0532   -0.1990    1.4617 H   0  0  0  0  0  0  0  0  0  0  0  0
   -1.4561   -1.6702    0.5068 H   0  0  0  0  0  0  0  0  0  0  0  0
   -0.4530    1.2706    0.3700 H   0  0  0  0  0  0  0  0  0  0  0  0
    0.0226   -1.1378   -1.3835 H   0  0  0  0  0  0  0  0  0  0  0  0
    0.2980    0.6578   -1.7093 H   0  0  0  0  0  0  0  0  0  0  0  0
    2.5004   -0.5971   -1.2470 H   0  0  0  0  0  0  0  0  0  0  0  0
    1.5166    1.9038   -0.2177 H   0  0  0  0  0  0  0  0  0  0  0  0
    3.1914    1.2570    0.2231 H   0  0  0  0  0  0  0  0  0  0  0  0
    0.4133   -0.6783    2.2304 H   0  0  0  0  0  0  0  0  0  0  0  0
  1  2  1  0
  2  3  1  0
  3  4  1  0
  4  5  1  0
  5  6  1  0
  6  7  1  0
  7  8  1  0
  8  9  1  0
  8  3  1  0
  9  5  1  0
  1 10  1  0
  1 11  1  0
  1 12  1  0
  2 13  1  0
  2 14  1  0
  3 15  1  0
  4 16  1  0
  4 17  1  0
  5 18  1  0
  6 19  1  0
  6 20  1  0
  8 21  1  0
M  END
