
     RDKit          3D

 21 22  0  0  0  0  0  0  0  0999 V2000
    2.7144    0.3877    0.3541 C   0  0  0  0  0  0  0  0  0  0  0  0
    1.8921   -0.6412   -0.3785 C   0  0  0  0  0  0  0  0  0  0  0  0
    0.4487   -0.3811   -0.0990 C   0  0  0  0  0  0  0  0  0  0  0  0
    0.0158    0.6050    0.6730 C   0  0  0  0  0  0  0  0  0  0  0  0
   -1.4495    0.5972    0.7512 C   0  0  0  0  0  0  0  0  0  0  0  0
   -2.1184    1.0743   -0.4975 C   0  0  0  0  0  0  0  0  0  0  0  0
   -2.8929   -0.0838   -0.4967 O   0  0  0  0  0  0  0  0  0  0  0  0
   -1.8706   -0.7381    0.1841 C   0  0  0  0  0  0  0  0  0  0  0  0
   -0.7135   -1.1782   -0.6409 C   0  0  0  0  0  0  0  0  0  0  0  0
    2.5999    0.2724    1.4321 H   0  0  0  0  0  0  0  0  0  0  0  0
    3.7657    0.2467    0.0604 H   0  0  0  0  0  0  0  0  0  0  0  0
    2.3311    1.4006    0.0629 H   0  0  0  0  0  0  0  0  0  0  0  0
    2.1018   -0.6347   -1.4640 H   0  0  0  0  0  0  0  0  0  0  0  0
    2.1959   -1.6433    0.0319 H   0  0  0  0  0  0  0  0  0  0  0  0
    0.6236    1.3573    1.2080 H   0  0  0  0  0  0  0  0  0  0  0  0
   -1.9103    0.8937    1.6928 H   0  0  0  0  0  0  0  0  0  0  0  0
   -1.4771    1.1074   -1.3900 H   0  0  0  0  0  0  0  0  0  0  0  0
   -2.6891    2.0038   -0.2959 H   0  0  0  0  0  0  0  0  0  0  0  0
   -2.2405   -1.4190    0.9580 H   0  0  0  0  0  0  0  0  0  0  0  0
   -0.8428   -0.9717   -1.7129 H   0  0  0  0  0  0  0  0  0  0  0  0
   -0.4844   -2.2550   -0.4329 H   0  0  0  0  0  0  0  0  0  0  0  0
  1  2  1  0
  2  3  1  0
  3  4  2  0
  4  5  1  0
  5  6  1  0
  6  7  1  0
  7  8  1  0
  8  9  1  0
  9  3  1  0
  8  5  1  0
  1 10  1  0
  1 11  1  0
  1 12  1  0
  2 13  1  0
  2 14  1  0
  4 15  1  0
  5 16  1  0
  6 17  1  0
  6 18  1  0
  8 19  1  0
  9 20  1  0
  9 21  1  0
M  END
