
     RDKit          3D

 22 22  0  0  0  0  0  0  0  0999 V2000
    2.4331    0.8125    0.0876 C   0  0  0  0  0  0  0  0  0  0  0  0
    1.7183   -0.4795    0.0068 C   0  0  0  0  0  0  0  0  0  0  0  0
    0.2503   -0.4490    0.0259 C   0  0  0  0  0  0  0  0  0  0  0  0
   -0.6151    0.5207    0.1065 C   0  0  0  0  0  0  0  0  0  0  0  0
   -0.3234    1.9693    0.2090 C   0  0  0  0  0  0  0  0  0  0  0  0
   -2.0394    0.0148    0.0820 C   0  0  0  0  0  0  0  0  0  0  0  0
   -1.9239   -1.4004   -0.4350 C   0  0  0  0  0  0  0  0  0  0  0  0
   -0.5280   -1.7511   -0.0592 C   0  0  0  0  0  0  0  0  0  0  0  0
    2.5745    1.1991    1.1187 H   0  0  0  0  0  0  0  0  0  0  0  0
    2.0728    1.5519   -0.6426 H   0  0  0  0  0  0  0  0  0  0  0  0
    3.4968    0.6089   -0.2670 H   0  0  0  0  0  0  0  0  0  0  0  0
    2.0819   -1.1067    0.8768 H   0  0  0  0  0  0  0  0  0  0  0  0
    2.1038   -1.0343   -0.8907 H   0  0  0  0  0  0  0  0  0  0  0  0
    0.4456    2.2157    0.9702 H   0  0  0  0  0  0  0  0  0  0  0  0
   -1.2351    2.5474    0.5620 H   0  0  0  0  0  0  0  0  0  0  0  0
   -0.1241    2.4376   -0.7868 H   0  0  0  0  0  0  0  0  0  0  0  0
   -2.6317    0.6067   -0.6419 H   0  0  0  0  0  0  0  0  0  0  0  0
   -2.4747   -0.0195    1.0929 H   0  0  0  0  0  0  0  0  0  0  0  0
   -2.6101   -2.0795    0.1151 H   0  0  0  0  0  0  0  0  0  0  0  0
   -2.1490   -1.4842   -1.5143 H   0  0  0  0  0  0  0  0  0  0  0  0
   -0.1047   -2.3774   -0.8920 H   0  0  0  0  0  0  0  0  0  0  0  0
   -0.4177   -2.3029    0.8759 H   0  0  0  0  0  0  0  0  0  0  0  0
  1  2  1  0
  2  3  1  0
  3  4  2  0
  4  5  1  0
  4  6  1  0
  6  7  1  0
  7  8  1  0
  8  3  1  0
  1  9  1  0
  1 10  1  0
  1 11  1  0
  2 12  1  0
  2 13  1  0
  5 14  1  0
  5 15  1  0
  5 16  1  0
  6 17  1  0
  6 18  1  0
  7 19  1  0
  7 20  1  0
  8 21  1  0
  8 22  1  0
M  END
