
     RDKit          3D

 21 22  0  0  0  0  0  0  0  0999 V2000
   -2.4756   -0.3507   -0.5538 C   0  0  0  0  0  0  0  0  0  0  0  0
   -1.6305    0.2642    0.5109 C   0  0  0  0  0  0  0  0  0  0  0  0
   -0.1794    0.2018    0.2679 C   0  0  0  0  0  0  0  0  0  0  0  0
    0.2550    0.8920   -0.9847 C   0  0  0  0  0  0  0  0  0  0  0  0
    1.5391    1.2198   -0.7777 C   0  0  0  0  0  0  0  0  0  0  0  0
    1.8471    0.7302    0.5800 C   0  0  0  0  0  0  0  0  0  0  0  0
    1.9275   -0.7790    0.5222 C   0  0  0  0  0  0  0  0  0  0  0  0
    0.4523   -1.1429    0.2924 C   0  0  0  0  0  0  0  0  0  0  0  0
    0.5895    0.8944    1.2123 O   0  0  0  0  0  0  0  0  0  0  0  0
   -3.5444   -0.0548   -0.3397 H   0  0  0  0  0  0  0  0  0  0  0  0
   -2.2539    0.0385   -1.5500 H   0  0  0  0  0  0  0  0  0  0  0  0
   -2.4647   -1.4495   -0.5231 H   0  0  0  0  0  0  0  0  0  0  0  0
   -1.8768   -0.1363    1.5130 H   0  0  0  0  0  0  0  0  0  0  0  0
   -1.9146    1.3550    0.5614 H   0  0  0  0  0  0  0  0  0  0  0  0
   -0.3636    1.0712   -1.8542 H   0  0  0  0  0  0  0  0  0  0  0  0
    2.1209    1.7358   -1.5295 H   0  0  0  0  0  0  0  0  0  0  0  0
    2.6562    1.2168    1.0926 H   0  0  0  0  0  0  0  0  0  0  0  0
    2.3220   -1.2129    1.4403 H   0  0  0  0  0  0  0  0  0  0  0  0
    2.5270   -1.0325   -0.3910 H   0  0  0  0  0  0  0  0  0  0  0  0
    0.3121   -1.6972   -0.6418 H   0  0  0  0  0  0  0  0  0  0  0  0
    0.1548   -1.7638    1.1527 H   0  0  0  0  0  0  0  0  0  0  0  0
  1  2  1  0
  2  3  1  0
  3  4  1  0
  4  5  2  0
  5  6  1  0
  6  7  1  0
  7  8  1  0
  6  9  1  0
  8  3  1  0
  9  3  1  0
  1 10  1  0
  1 11  1  0
  1 12  1  0
  2 13  1  0
  2 14  1  0
  4 15  1  0
  5 16  1  0
  6 17  1  0
  7 18  1  0
  7 19  1  0
  8 20  1  0
  8 21  1  0
M  END
