
     RDKit          3D

 23 23  0  0  0  0  0  0  0  0999 V2000
   -2.7084    0.6695   -0.2152 C   0  0  0  0  0  0  0  0  0  0  0  0
   -1.6576   -0.3666   -0.4984 C   0  0  0  0  0  0  0  0  0  0  0  0
   -0.3569   -0.0799    0.2172 C   0  0  0  0  0  0  0  0  0  0  0  0
   -0.6057   -0.0630    1.5823 O   0  0  0  0  0  0  0  0  0  0  0  0
    0.6018   -1.1814   -0.1018 C   0  0  0  0  0  0  0  0  0  0  0  0
    1.9642   -0.7457    0.4529 C   0  0  0  0  0  0  0  0  0  0  0  0
    2.4050    0.3988   -0.4293 C   0  0  0  0  0  0  0  0  0  0  0  0
    1.3748    1.0933   -0.9913 O   0  0  0  0  0  0  0  0  0  0  0  0
    0.2537    1.2285   -0.2096 C   0  0  0  0  0  0  0  0  0  0  0  0
   -2.6307    0.9810    0.8420 H   0  0  0  0  0  0  0  0  0  0  0  0
   -2.6342    1.5474   -0.8991 H   0  0  0  0  0  0  0  0  0  0  0  0
   -3.6965    0.2088   -0.4303 H   0  0  0  0  0  0  0  0  0  0  0  0
   -2.0373   -1.3317   -0.0712 H   0  0  0  0  0  0  0  0  0  0  0  0
   -1.5232   -0.5044   -1.5813 H   0  0  0  0  0  0  0  0  0  0  0  0
   -0.4684   -0.9597    1.9675 H   0  0  0  0  0  0  0  0  0  0  0  0
    0.3187   -2.1668    0.2661 H   0  0  0  0  0  0  0  0  0  0  0  0
    0.7588   -1.2348   -1.2148 H   0  0  0  0  0  0  0  0  0  0  0  0
    2.6765   -1.6079    0.3522 H   0  0  0  0  0  0  0  0  0  0  0  0
    1.8732   -0.4910    1.5056 H   0  0  0  0  0  0  0  0  0  0  0  0
    2.9796   -0.0801   -1.2780 H   0  0  0  0  0  0  0  0  0  0  0  0
    3.1559    1.0488    0.0794 H   0  0  0  0  0  0  0  0  0  0  0  0
   -0.5035    1.7888   -0.8138 H   0  0  0  0  0  0  0  0  0  0  0  0
    0.4602    1.8482    0.6859 H   0  0  0  0  0  0  0  0  0  0  0  0
  1  2  1  0
  2  3  1  0
  3  4  1  0
  3  5  1  0
  5  6  1  0
  6  7  1  0
  7  8  1  0
  8  9  1  0
  9  3  1  0
  1 10  1  0
  1 11  1  0
  1 12  1  0
  2 13  1  0
  2 14  1  0
  4 15  1  0
  5 16  1  0
  5 17  1  0
  6 18  1  0
  6 19  1  0
  7 20  1  0
  7 21  1  0
  9 22  1  0
  9 23  1  0
M  END
