
     RDKit          3D

 19 19  0  0  0  0  0  0  0  0999 V2000
    1.9114   -1.2073   -0.1276 C   0  0  0  0  0  0  0  0  0  0  0  0
    1.2420    0.0571   -0.4558 C   0  0  0  0  0  0  0  0  0  0  0  0
   -0.1819    0.2113   -0.0564 C   0  0  0  0  0  0  0  0  0  0  0  0
   -0.7074    1.5734   -0.4741 C   0  0  0  0  0  0  0  0  0  0  0  0
   -2.0371    1.7470   -0.1006 O   0  0  0  0  0  0  0  0  0  0  0  0
   -0.6831   -0.3304    1.1959 C   0  0  0  0  0  0  0  0  0  0  0  0
   -1.4309   -1.3752    0.4532 C   0  0  0  0  0  0  0  0  0  0  0  0
   -2.1454   -2.3873    0.6374 O   0  0  0  0  0  0  0  0  0  0  0  0
   -1.0072   -0.7590   -0.7149 O   0  0  0  0  0  0  0  0  0  0  0  0
    1.4230   -1.8517    0.6188 H   0  0  0  0  0  0  0  0  0  0  0  0
    2.0600   -1.8521   -1.0299 H   0  0  0  0  0  0  0  0  0  0  0  0
    2.9579   -1.0488    0.2714 H   0  0  0  0  0  0  0  0  0  0  0  0
    1.8566    0.8947   -0.0500 H   0  0  0  0  0  0  0  0  0  0  0  0
    1.2927    0.2072   -1.5729 H   0  0  0  0  0  0  0  0  0  0  0  0
   -0.0583    2.3960   -0.1391 H   0  0  0  0  0  0  0  0  0  0  0  0
   -0.6949    1.5795   -1.5856 H   0  0  0  0  0  0  0  0  0  0  0  0
   -2.3347    2.5962   -0.5220 H   0  0  0  0  0  0  0  0  0  0  0  0
   -1.4264    0.3360    1.7118 H   0  0  0  0  0  0  0  0  0  0  0  0
   -0.0364   -0.7868    1.9404 H   0  0  0  0  0  0  0  0  0  0  0  0
  1  2  1  0
  2  3  1  0
  3  4  1  0
  4  5  1  0
  3  6  1  0
  6  7  1  0
  7  8  2  0
  7  9  1  0
  9  3  1  0
  1 10  1  0
  1 11  1  0
  1 12  1  0
  2 13  1  0
  2 14  1  0
  4 15  1  0
  4 16  1  0
  5 17  1  0
  6 18  1  0
  6 19  1  0
M  END
