
     RDKit          3D

 21 22  0  0  0  0  0  0  0  0999 V2000
   -2.6382    0.6577    0.7758 C   0  0  0  0  0  0  0  0  0  0  0  0
   -1.2289    0.9045    0.2559 C   0  0  0  0  0  0  0  0  0  0  0  0
   -0.4567   -0.2193    0.0283 C   0  0  0  0  0  0  0  0  0  0  0  0
   -0.7209   -1.3463   -0.8930 C   0  0  0  0  0  0  0  0  0  0  0  0
    0.4947   -1.7017   -0.0938 C   0  0  0  0  0  0  0  0  0  0  0  0
   -0.1813   -1.2029    1.0056 O   0  0  0  0  0  0  0  0  0  0  0  0
    0.9759   -0.2986   -0.3221 C   0  0  0  0  0  0  0  0  0  0  0  0
    1.8517    0.1963    0.6379 O   0  0  0  0  0  0  0  0  0  0  0  0
    2.9410    0.8360    0.0049 C   0  0  0  0  0  0  0  0  0  0  0  0
   -2.9690    1.4579    1.4725 H   0  0  0  0  0  0  0  0  0  0  0  0
   -3.3110    0.5840   -0.0774 H   0  0  0  0  0  0  0  0  0  0  0  0
   -2.6132   -0.2988    1.3335 H   0  0  0  0  0  0  0  0  0  0  0  0
   -1.3528    1.5491   -0.6398 H   0  0  0  0  0  0  0  0  0  0  0  0
   -0.7616    1.5899    1.0251 H   0  0  0  0  0  0  0  0  0  0  0  0
   -1.6095   -1.9552   -0.7299 H   0  0  0  0  0  0  0  0  0  0  0  0
   -0.4508   -1.1130   -1.9374 H   0  0  0  0  0  0  0  0  0  0  0  0
    1.0394   -2.5486   -0.1497 H   0  0  0  0  0  0  0  0  0  0  0  0
    1.2561   -0.1223   -1.3691 H   0  0  0  0  0  0  0  0  0  0  0  0
    2.5996    1.6660   -0.6153 H   0  0  0  0  0  0  0  0  0  0  0  0
    3.5573    1.2526    0.8264 H   0  0  0  0  0  0  0  0  0  0  0  0
    3.5781    0.1126   -0.5385 H   0  0  0  0  0  0  0  0  0  0  0  0
  1  2  1  0
  2  3  1  0
  3  4  1  0
  4  5  1  0
  5  6  1  0
  5  7  1  0
  7  8  1  0
  8  9  1  0
  6  3  1  0
  7  3  1  0
  1 10  1  0
  1 11  1  0
  1 12  1  0
  2 13  1  0
  2 14  1  0
  4 15  1  0
  4 16  1  0
  5 17  1  0
  7 18  1  0
  9 19  1  0
  9 20  1  0
  9 21  1  0
M  END
