
     RDKit          3D

 25 26  0  0  0  0  0  0  0  0999 V2000
    2.5216   -1.3096   -0.0028 C   0  0  0  0  0  0  0  0  0  0  0  0
    2.3379    0.0347    0.6791 C   0  0  0  0  0  0  0  0  0  0  0  0
    0.9506    0.5608    0.5496 C   0  0  0  0  0  0  0  0  0  0  0  0
    0.3667    0.8230   -0.8245 C   0  0  0  0  0  0  0  0  0  0  0  0
   -0.4826    2.0505   -1.0323 C   0  0  0  0  0  0  0  0  0  0  0  0
   -0.0971   -0.3587   -0.1160 C   0  0  0  0  0  0  0  0  0  0  0  0
   -1.3396   -0.4692    0.6964 C   0  0  0  0  0  0  0  0  0  0  0  0
   -2.4125   -1.3790    0.0665 C   0  0  0  0  0  0  0  0  0  0  0  0
   -2.6305    0.1027    0.3481 C   0  0  0  0  0  0  0  0  0  0  0  0
    1.9110   -2.0978    0.4699 H   0  0  0  0  0  0  0  0  0  0  0  0
    2.2081   -1.2169   -1.0628 H   0  0  0  0  0  0  0  0  0  0  0  0
    3.5734   -1.6480    0.0689 H   0  0  0  0  0  0  0  0  0  0  0  0
    2.5167   -0.1576    1.7698 H   0  0  0  0  0  0  0  0  0  0  0  0
    3.0794    0.7673    0.3500 H   0  0  0  0  0  0  0  0  0  0  0  0
    0.5845    1.2856    1.3099 H   0  0  0  0  0  0  0  0  0  0  0  0
    1.1064    0.6665   -1.6375 H   0  0  0  0  0  0  0  0  0  0  0  0
    0.1697    2.9033   -1.3683 H   0  0  0  0  0  0  0  0  0  0  0  0
   -1.2011    1.8886   -1.8432 H   0  0  0  0  0  0  0  0  0  0  0  0
   -0.9496    2.4118   -0.0855 H   0  0  0  0  0  0  0  0  0  0  0  0
    0.2670   -1.3504   -0.4697 H   0  0  0  0  0  0  0  0  0  0  0  0
   -1.1462   -0.6720    1.7730 H   0  0  0  0  0  0  0  0  0  0  0  0
   -2.8868   -2.1277    0.7184 H   0  0  0  0  0  0  0  0  0  0  0  0
   -2.2639   -1.7152   -0.9648 H   0  0  0  0  0  0  0  0  0  0  0  0
   -3.3441    0.3221    1.1700 H   0  0  0  0  0  0  0  0  0  0  0  0
   -2.8389    0.6852   -0.5623 H   0  0  0  0  0  0  0  0  0  0  0  0
  1  2  1  0
  2  3  1  0
  3  4  1  0
  4  5  1  0
  4  6  1  0
  6  7  1  0
  7  8  1  0
  8  9  1  0
  6  3  1  0
  9  7  1  0
  1 10  1  0
  1 11  1  0
  1 12  1  0
  2 13  1  0
  2 14  1  0
  3 15  1  0
  4 16  1  0
  5 17  1  0
  5 18  1  0
  5 19  1  0
  6 20  1  0
  7 21  1  0
  8 22  1  0
  8 23  1  0
  9 24  1  0
  9 25  1  0
M  END
