
     RDKit          3D

 23 24  0  0  0  0  0  0  0  0999 V2000
    2.5261    0.4383   -0.4284 C   0  0  0  0  0  0  0  0  0  0  0  0
    1.9125   -0.8049    0.1164 C   0  0  0  0  0  0  0  0  0  0  0  0
    0.4106   -0.8039    0.0868 C   0  0  0  0  0  0  0  0  0  0  0  0
   -0.0691   -0.6703   -1.2156 O   0  0  0  0  0  0  0  0  0  0  0  0
   -1.4388   -0.5841   -1.2351 C   0  0  0  0  0  0  0  0  0  0  0  0
   -1.9380    0.3715   -0.1870 C   0  0  0  0  0  0  0  0  0  0  0  0
   -0.7940    1.3612    0.0767 C   0  0  0  0  0  0  0  0  0  0  0  0
   -0.2014    0.2462    0.9491 C   0  0  0  0  0  0  0  0  0  0  0  0
   -1.6552   -0.1752    1.2087 C   0  0  0  0  0  0  0  0  0  0  0  0
    2.0573    1.3739   -0.0937 H   0  0  0  0  0  0  0  0  0  0  0  0
    3.5956    0.4749   -0.0708 H   0  0  0  0  0  0  0  0  0  0  0  0
    2.5871    0.4707   -1.5368 H   0  0  0  0  0  0  0  0  0  0  0  0
    2.2737   -1.6682   -0.4798 H   0  0  0  0  0  0  0  0  0  0  0  0
    2.2182   -0.9198    1.1805 H   0  0  0  0  0  0  0  0  0  0  0  0
    0.0817   -1.8007    0.4821 H   0  0  0  0  0  0  0  0  0  0  0  0
   -1.9539   -1.5730   -1.2050 H   0  0  0  0  0  0  0  0  0  0  0  0
   -1.7318   -0.1348   -2.2292 H   0  0  0  0  0  0  0  0  0  0  0  0
   -2.9143    0.8201   -0.3350 H   0  0  0  0  0  0  0  0  0  0  0  0
   -1.0934    2.2383    0.6815 H   0  0  0  0  0  0  0  0  0  0  0  0
   -0.2516    1.5505   -0.8504 H   0  0  0  0  0  0  0  0  0  0  0  0
    0.3380    0.5892    1.8227 H   0  0  0  0  0  0  0  0  0  0  0  0
   -2.1690    0.4596    1.9543 H   0  0  0  0  0  0  0  0  0  0  0  0
   -1.7902   -1.2593    1.3079 H   0  0  0  0  0  0  0  0  0  0  0  0
  1  2  1  0
  2  3  1  0
  3  4  1  0
  4  5  1  0
  5  6  1  0
  6  7  1  0
  7  8  1  0
  8  9  1  0
  8  3  1  0
  9  6  1  0
  1 10  1  0
  1 11  1  0
  1 12  1  0
  2 13  1  0
  2 14  1  0
  3 15  1  0
  5 16  1  0
  5 17  1  0
  6 18  1  0
  7 19  1  0
  7 20  1  0
  8 21  1  0
  9 22  1  0
  9 23  1  0
M  END
