
     RDKit          3D

 21 22  0  0  0  0  0  0  0  0999 V2000
    2.8418    0.7460    0.6111 C   0  0  0  0  0  0  0  0  0  0  0  0
    1.6998    0.8459   -0.4009 C   0  0  0  0  0  0  0  0  0  0  0  0
    0.9057   -0.4322   -0.2999 C   0  0  0  0  0  0  0  0  0  0  0  0
    0.3840   -0.5530    1.0880 O   0  0  0  0  0  0  0  0  0  0  0  0
   -0.4985   -0.5013   -0.1309 C   0  0  0  0  0  0  0  0  0  0  0  0
   -1.1809   -1.8394   -0.2505 C   0  0  0  0  0  0  0  0  0  0  0  0
   -1.3900    0.7001   -0.0419 C   0  0  0  0  0  0  0  0  0  0  0  0
   -2.8363    0.5791   -0.1862 C   0  0  0  0  0  0  0  0  0  0  0  0
   -2.2701    0.7717    1.0768 O   0  0  0  0  0  0  0  0  0  0  0  0
    2.5187    1.3205    1.5030 H   0  0  0  0  0  0  0  0  0  0  0  0
    2.9999   -0.3052    0.9048 H   0  0  0  0  0  0  0  0  0  0  0  0
    3.7818    1.1574    0.1899 H   0  0  0  0  0  0  0  0  0  0  0  0
    2.1829    0.9461   -1.3878 H   0  0  0  0  0  0  0  0  0  0  0  0
    1.0945    1.7507   -0.2344 H   0  0  0  0  0  0  0  0  0  0  0  0
    1.4733   -1.3312   -0.6182 H   0  0  0  0  0  0  0  0  0  0  0  0
   -1.5871   -2.1392    0.7584 H   0  0  0  0  0  0  0  0  0  0  0  0
   -0.4196   -2.6393   -0.4803 H   0  0  0  0  0  0  0  0  0  0  0  0
   -1.9745   -1.8119   -1.0024 H   0  0  0  0  0  0  0  0  0  0  0  0
   -0.9427    1.6892   -0.3227 H   0  0  0  0  0  0  0  0  0  0  0  0
   -3.3379   -0.3937   -0.3568 H   0  0  0  0  0  0  0  0  0  0  0  0
   -3.4448    1.4397   -0.5724 H   0  0  0  0  0  0  0  0  0  0  0  0
  1  2  1  0
  2  3  1  0
  3  4  1  0
  4  5  1  0
  5  6  1  0
  5  7  1  0
  7  8  1  0
  8  9  1  0
  5  3  1  0
  9  7  1  0
  1 10  1  0
  1 11  1  0
  1 12  1  0
  2 13  1  0
  2 14  1  0
  3 15  1  0
  6 16  1  0
  6 17  1  0
  6 18  1  0
  7 19  1  0
  8 20  1  0
  8 21  1  0
M  END
