
     RDKit          3D

 25 26  0  0  0  0  0  0  0  0999 V2000
   -3.0686    0.9484    0.7376 C   0  0  0  0  0  0  0  0  0  0  0  0
   -2.3666   -0.3704    0.3697 C   0  0  0  0  0  0  0  0  0  0  0  0
   -0.9465   -0.1948    0.5826 C   0  0  0  0  0  0  0  0  0  0  0  0
    0.0222   -1.3080    0.3138 C   0  0  0  0  0  0  0  0  0  0  0  0
   -0.1465   -0.9890   -1.1377 C   0  0  0  0  0  0  0  0  0  0  0  0
   -0.0640    0.3529   -0.4948 C   0  0  0  0  0  0  0  0  0  0  0  0
    1.0306   -0.2077    0.3775 C   0  0  0  0  0  0  0  0  0  0  0  0
    2.3696   -0.3818   -0.1557 C   0  0  0  0  0  0  0  0  0  0  0  0
    3.1439    0.9263    0.0691 C   0  0  0  0  0  0  0  0  0  0  0  0
   -3.8334    1.2269    0.0077 H   0  0  0  0  0  0  0  0  0  0  0  0
   -2.3248    1.7866    0.7683 H   0  0  0  0  0  0  0  0  0  0  0  0
   -3.4777    0.8944    1.7785 H   0  0  0  0  0  0  0  0  0  0  0  0
   -2.7691   -1.1349    1.0983 H   0  0  0  0  0  0  0  0  0  0  0  0
   -2.7453   -0.6483   -0.6024 H   0  0  0  0  0  0  0  0  0  0  0  0
   -0.7202    0.3164    1.5472 H   0  0  0  0  0  0  0  0  0  0  0  0
    0.0556   -2.2072    0.7524 H   0  0  0  0  0  0  0  0  0  0  0  0
    0.6752   -1.2637   -1.8175 H   0  0  0  0  0  0  0  0  0  0  0  0
   -1.0962   -1.3001   -1.5858 H   0  0  0  0  0  0  0  0  0  0  0  0
   -0.0918    1.2591   -0.9163 H   0  0  0  0  0  0  0  0  0  0  0  0
    1.0178    0.2997    1.3575 H   0  0  0  0  0  0  0  0  0  0  0  0
    2.5088   -0.6663   -1.1875 H   0  0  0  0  0  0  0  0  0  0  0  0
    2.9111   -1.1566    0.4629 H   0  0  0  0  0  0  0  0  0  0  0  0
    3.1891    1.4772   -0.9065 H   0  0  0  0  0  0  0  0  0  0  0  0
    4.1305    0.7436    0.5092 H   0  0  0  0  0  0  0  0  0  0  0  0
    2.5962    1.5970    0.7660 H   0  0  0  0  0  0  0  0  0  0  0  0
  1  2  1  0
  2  3  1  0
  3  4  1  0
  4  5  1  0
  5  6  1  0
  6  7  1  0
  7  8  1  0
  8  9  1  0
  6  3  1  0
  7  4  1  0
  1 10  1  0
  1 11  1  0
  1 12  1  0
  2 13  1  0
  2 14  1  0
  3 15  1  0
  4 16  1  0
  5 17  1  0
  5 18  1  0
  6 19  1  0
  7 20  1  0
  8 21  1  0
  8 22  1  0
  9 23  1  0
  9 24  1  0
  9 25  1  0
M  END
