
     RDKit          3D

 23 24  0  0  0  0  0  0  0  0999 V2000
   -1.3881   -1.8682    0.0684 C   0  0  0  0  0  0  0  0  0  0  0  0
   -0.9049   -0.5288    0.5806 C   0  0  0  0  0  0  0  0  0  0  0  0
    0.0650    0.0537   -0.4755 C   0  0  0  0  0  0  0  0  0  0  0  0
    1.1845   -0.9101   -0.6205 C   0  0  0  0  0  0  0  0  0  0  0  0
    1.8364   -0.6832    0.7605 C   0  0  0  0  0  0  0  0  0  0  0  0
    1.2502    0.5172    1.2461 O   0  0  0  0  0  0  0  0  0  0  0  0
    1.0296    1.1823    0.0839 C   0  0  0  0  0  0  0  0  0  0  0  0
   -0.1032    1.4183   -0.7192 C   0  0  0  0  0  0  0  0  0  0  0  0
   -1.2466    2.1911   -0.0447 C   0  0  0  0  0  0  0  0  0  0  0  0
   -1.3737   -1.8269   -1.0284 H   0  0  0  0  0  0  0  0  0  0  0  0
   -2.4226   -2.0371    0.4558 H   0  0  0  0  0  0  0  0  0  0  0  0
   -0.7553   -2.7074    0.4236 H   0  0  0  0  0  0  0  0  0  0  0  0
   -0.2760   -0.6936    1.4798 H   0  0  0  0  0  0  0  0  0  0  0  0
   -1.7583    0.1232    0.7512 H   0  0  0  0  0  0  0  0  0  0  0  0
    1.8912   -0.6464   -1.4235 H   0  0  0  0  0  0  0  0  0  0  0  0
    0.8583   -1.9435   -0.7462 H   0  0  0  0  0  0  0  0  0  0  0  0
    2.8998   -0.5011    0.6117 H   0  0  0  0  0  0  0  0  0  0  0  0
    1.6029   -1.5183    1.4423 H   0  0  0  0  0  0  0  0  0  0  0  0
    2.0206    1.2884   -0.4573 H   0  0  0  0  0  0  0  0  0  0  0  0
    0.0157    1.7965   -1.7678 H   0  0  0  0  0  0  0  0  0  0  0  0
   -2.2187    1.9562   -0.4843 H   0  0  0  0  0  0  0  0  0  0  0  0
   -0.9948    3.2741   -0.2157 H   0  0  0  0  0  0  0  0  0  0  0  0
   -1.2120    2.0637    1.0584 H   0  0  0  0  0  0  0  0  0  0  0  0
  1  2  1  0
  2  3  1  0
  3  4  1  0
  4  5  1  0
  5  6  1  0
  6  7  1  0
  7  8  1  0
  8  9  1  0
  7  3  1  0
  8  3  1  0
  1 10  1  0
  1 11  1  0
  1 12  1  0
  2 13  1  0
  2 14  1  0
  4 15  1  0
  4 16  1  0
  5 17  1  0
  5 18  1  0
  7 19  1  0
  8 20  1  0
  9 21  1  0
  9 22  1  0
  9 23  1  0
M  END
