
     RDKit          3D

 19 20  0  0  0  0  0  0  0  0999 V2000
   -2.1194   -0.0268    0.5275 C   0  0  0  0  0  0  0  0  0  0  0  0
   -1.0100   -0.8485   -0.1085 C   0  0  0  0  0  0  0  0  0  0  0  0
    0.1854    0.0606   -0.2865 C   0  0  0  0  0  0  0  0  0  0  0  0
   -0.0851    1.2229   -1.1454 C   0  0  0  0  0  0  0  0  0  0  0  0
   -0.6515    1.1037   -2.2183 O   0  0  0  0  0  0  0  0  0  0  0  0
    0.8969    0.4371    0.9929 C   0  0  0  0  0  0  0  0  0  0  0  0
    2.1422   -0.2040    0.3577 C   0  0  0  0  0  0  0  0  0  0  0  0
    2.0060   -1.5680    0.2559 O   0  0  0  0  0  0  0  0  0  0  0  0
    1.4268   -0.7354   -0.6673 C   0  0  0  0  0  0  0  0  0  0  0  0
   -3.1161   -0.5346    0.3747 H   0  0  0  0  0  0  0  0  0  0  0  0
   -2.1298    0.9755    0.0584 H   0  0  0  0  0  0  0  0  0  0  0  0
   -1.9194    0.1329    1.6071 H   0  0  0  0  0  0  0  0  0  0  0  0
   -1.3388   -1.1373   -1.1320 H   0  0  0  0  0  0  0  0  0  0  0  0
   -0.7795   -1.7627    0.4308 H   0  0  0  0  0  0  0  0  0  0  0  0
    0.2049    2.2370   -0.8667 H   0  0  0  0  0  0  0  0  0  0  0  0
    0.5715   -0.1714    1.8787 H   0  0  0  0  0  0  0  0  0  0  0  0
    0.9941    1.5140    1.1822 H   0  0  0  0  0  0  0  0  0  0  0  0
    3.1059    0.2862    0.4702 H   0  0  0  0  0  0  0  0  0  0  0  0
    1.6160   -0.9812   -1.7113 H   0  0  0  0  0  0  0  0  0  0  0  0
  1  2  1  0
  2  3  1  0
  3  4  1  0
  4  5  2  0
  3  6  1  0
  6  7  1  0
  7  8  1  0
  8  9  1  0
  9  3  1  0
  9  7  1  0
  1 10  1  0
  1 11  1  0
  1 12  1  0
  2 13  1  0
  2 14  1  0
  4 15  1  0
  6 16  1  0
  6 17  1  0
  7 18  1  0
  9 19  1  0
M  END
