
     RDKit          3D

 19 19  0  0  0  0  0  0  0  0999 V2000
    2.2668   -0.6146   -0.1699 C   0  0  0  0  0  0  0  0  0  0  0  0
    1.3553    0.3618    0.5232 C   0  0  0  0  0  0  0  0  0  0  0  0
    0.1356    0.7026   -0.3409 C   0  0  0  0  0  0  0  0  0  0  0  0
   -0.6327    1.5987    0.3789 O   0  0  0  0  0  0  0  0  0  0  0  0
   -1.5956    0.9050    1.0633 C   0  0  0  0  0  0  0  0  0  0  0  0
   -1.9952   -0.1371    0.0582 C   0  0  0  0  0  0  0  0  0  0  0  0
   -3.1070   -0.5749   -0.1857 O   0  0  0  0  0  0  0  0  0  0  0  0
   -0.6838   -0.5197   -0.5862 C   0  0  0  0  0  0  0  0  0  0  0  0
   -0.9462   -0.7832   -1.9058 O   0  0  0  0  0  0  0  0  0  0  0  0
    3.3329   -0.4201    0.1101 H   0  0  0  0  0  0  0  0  0  0  0  0
    2.0292   -1.6292    0.1486 H   0  0  0  0  0  0  0  0  0  0  0  0
    2.2221   -0.4831   -1.2834 H   0  0  0  0  0  0  0  0  0  0  0  0
    0.9552   -0.0441    1.4816 H   0  0  0  0  0  0  0  0  0  0  0  0
    1.9194    1.2734    0.7741 H   0  0  0  0  0  0  0  0  0  0  0  0
    0.4649    1.2104   -1.2694 H   0  0  0  0  0  0  0  0  0  0  0  0
   -2.4404    1.5753    1.3105 H   0  0  0  0  0  0  0  0  0  0  0  0
   -1.2328    0.3564    1.9444 H   0  0  0  0  0  0  0  0  0  0  0  0
   -0.2668   -1.4291   -0.1230 H   0  0  0  0  0  0  0  0  0  0  0  0
   -1.7810   -1.3485   -1.9285 H   0  0  0  0  0  0  0  0  0  0  0  0
  1  2  1  0
  2  3  1  0
  3  4  1  0
  4  5  1  0
  5  6  1  0
  6  7  2  0
  6  8  1  0
  8  9  1  0
  8  3  1  0
  1 10  1  0
  1 11  1  0
  1 12  1  0
  2 13  1  0
  2 14  1  0
  3 15  1  0
  5 16  1  0
  5 17  1  0
  8 18  1  0
  9 19  1  0
M  END
