
     RDKit          3D

 23 23  0  0  0  0  0  0  0  0999 V2000
    2.0262   -1.1602   -0.3902 C   0  0  0  0  0  0  0  0  0  0  0  0
    1.6048    0.2600   -0.3706 C   0  0  0  0  0  0  0  0  0  0  0  0
    0.1585    0.4924   -0.0563 C   0  0  0  0  0  0  0  0  0  0  0  0
   -0.0521    2.0053   -0.0887 C   0  0  0  0  0  0  0  0  0  0  0  0
   -0.3059   -0.0194    1.2455 C   0  0  0  0  0  0  0  0  0  0  0  0
   -1.7041   -0.6080    1.0238 C   0  0  0  0  0  0  0  0  0  0  0  0
   -1.7959   -0.8973   -0.4485 C   0  0  0  0  0  0  0  0  0  0  0  0
   -0.7452   -0.0735   -1.0943 C   0  0  0  0  0  0  0  0  0  0  0  0
   -0.6655    0.0924   -2.2971 O   0  0  0  0  0  0  0  0  0  0  0  0
    2.5450   -1.4284    0.5764 H   0  0  0  0  0  0  0  0  0  0  0  0
    2.8081   -1.2845   -1.1699 H   0  0  0  0  0  0  0  0  0  0  0  0
    1.2225   -1.8837   -0.6295 H   0  0  0  0  0  0  0  0  0  0  0  0
    2.2729    0.8308    0.3053 H   0  0  0  0  0  0  0  0  0  0  0  0
    1.7807    0.7098   -1.3922 H   0  0  0  0  0  0  0  0  0  0  0  0
   -0.3290    2.3145   -1.1148 H   0  0  0  0  0  0  0  0  0  0  0  0
    0.8971    2.5132    0.1637 H   0  0  0  0  0  0  0  0  0  0  0  0
   -0.8783    2.3115    0.5789 H   0  0  0  0  0  0  0  0  0  0  0  0
   -0.4348    0.7600    2.0375 H   0  0  0  0  0  0  0  0  0  0  0  0
    0.2938   -0.8180    1.6931 H   0  0  0  0  0  0  0  0  0  0  0  0
   -2.4911    0.0864    1.3726 H   0  0  0  0  0  0  0  0  0  0  0  0
   -1.8272   -1.5704    1.5574 H   0  0  0  0  0  0  0  0  0  0  0  0
   -2.8076   -0.6751   -0.8252 H   0  0  0  0  0  0  0  0  0  0  0  0
   -1.5730   -1.9577   -0.6766 H   0  0  0  0  0  0  0  0  0  0  0  0
  1  2  1  0
  2  3  1  0
  3  4  1  0
  3  5  1  0
  5  6  1  0
  6  7  1  0
  7  8  1  0
  8  9  2  0
  8  3  1  0
  1 10  1  0
  1 11  1  0
  1 12  1  0
  2 13  1  0
  2 14  1  0
  4 15  1  0
  4 16  1  0
  4 17  1  0
  5 18  1  0
  5 19  1  0
  6 20  1  0
  6 21  1  0
  7 22  1  0
  7 23  1  0
M  END
