
     RDKit          3D

 21 21  0  0  0  0  0  0  0  0999 V2000
    1.9506   -0.3213    0.8971 C   0  0  0  0  0  0  0  0  0  0  0  0
    1.5592   -0.3121   -0.5368 C   0  0  0  0  0  0  0  0  0  0  0  0
    0.2019    0.2716   -0.8006 C   0  0  0  0  0  0  0  0  0  0  0  0
    0.0786    1.6781   -0.3627 C   0  0  0  0  0  0  0  0  0  0  0  0
    0.9459    2.5213   -0.2447 O   0  0  0  0  0  0  0  0  0  0  0  0
   -1.3958    1.8352   -0.0895 C   0  0  0  0  0  0  0  0  0  0  0  0
   -1.7897    0.4387    0.2421 C   0  0  0  0  0  0  0  0  0  0  0  0
   -0.8914   -0.4381   -0.1575 C   0  0  0  0  0  0  0  0  0  0  0  0
   -1.0875   -1.9096    0.0765 C   0  0  0  0  0  0  0  0  0  0  0  0
    1.2833   -0.9890    1.4888 H   0  0  0  0  0  0  0  0  0  0  0  0
    3.0121   -0.6379    0.9637 H   0  0  0  0  0  0  0  0  0  0  0  0
    1.8593    0.6819    1.3665 H   0  0  0  0  0  0  0  0  0  0  0  0
    1.5451   -1.3517   -0.9084 H   0  0  0  0  0  0  0  0  0  0  0  0
    2.3002    0.2527   -1.1345 H   0  0  0  0  0  0  0  0  0  0  0  0
    0.0593    0.2887   -1.9169 H   0  0  0  0  0  0  0  0  0  0  0  0
   -1.9199    2.1775   -0.9869 H   0  0  0  0  0  0  0  0  0  0  0  0
   -1.5768    2.4470    0.8124 H   0  0  0  0  0  0  0  0  0  0  0  0
   -2.7419    0.2283    0.7657 H   0  0  0  0  0  0  0  0  0  0  0  0
   -1.5658   -2.0592    1.0672 H   0  0  0  0  0  0  0  0  0  0  0  0
   -1.7345   -2.3730   -0.6752 H   0  0  0  0  0  0  0  0  0  0  0  0
   -0.0923   -2.4290    0.1339 H   0  0  0  0  0  0  0  0  0  0  0  0
  1  2  1  0
  2  3  1  0
  3  4  1  0
  4  5  2  0
  4  6  1  0
  6  7  1  0
  7  8  2  0
  8  9  1  0
  8  3  1  0
  1 10  1  0
  1 11  1  0
  1 12  1  0
  2 13  1  0
  2 14  1  0
  3 15  1  0
  6 16  1  0
  6 17  1  0
  7 18  1  0
  9 19  1  0
  9 20  1  0
  9 21  1  0
M  END
