
     RDKit          3D

 21 22  0  0  0  0  0  0  0  0999 V2000
   -2.6720   -1.0777    1.4046 C   0  0  0  0  0  0  0  0  0  0  0  0
   -1.7020   -1.2317    0.2756 C   0  0  0  0  0  0  0  0  0  0  0  0
   -0.3333   -0.7108    0.5957 C   0  0  0  0  0  0  0  0  0  0  0  0
   -0.3093    0.6767    0.9222 O   0  0  0  0  0  0  0  0  0  0  0  0
    1.0108    0.6295    0.5188 C   0  0  0  0  0  0  0  0  0  0  0  0
    1.5496    1.7687   -0.3062 C   0  0  0  0  0  0  0  0  0  0  0  0
    2.1207    1.0749   -1.5423 C   0  0  0  0  0  0  0  0  0  0  0  0
    1.1234   -0.0511   -1.6890 C   0  0  0  0  0  0  0  0  0  0  0  0
    0.4823   -0.2969   -0.5699 C   0  0  0  0  0  0  0  0  0  0  0  0
   -3.7006   -1.2137    1.0827 H   0  0  0  0  0  0  0  0  0  0  0  0
   -2.5871   -0.0877    1.8851 H   0  0  0  0  0  0  0  0  0  0  0  0
   -2.4456   -1.8414    2.1964 H   0  0  0  0  0  0  0  0  0  0  0  0
   -2.1266   -0.7966   -0.6444 H   0  0  0  0  0  0  0  0  0  0  0  0
   -1.5908   -2.3204    0.0790 H   0  0  0  0  0  0  0  0  0  0  0  0
    0.2346   -1.2586    1.3417 H   0  0  0  0  0  0  0  0  0  0  0  0
    1.7321    0.1563    1.1829 H   0  0  0  0  0  0  0  0  0  0  0  0
    0.7872    2.5270   -0.5720 H   0  0  0  0  0  0  0  0  0  0  0  0
    2.3972    2.2124    0.2521 H   0  0  0  0  0  0  0  0  0  0  0  0
    1.9709    1.7493   -2.4088 H   0  0  0  0  0  0  0  0  0  0  0  0
    3.1371    0.7193   -1.4020 H   0  0  0  0  0  0  0  0  0  0  0  0
    0.9214   -0.6275   -2.6023 H   0  0  0  0  0  0  0  0  0  0  0  0
  1  2  1  0
  2  3  1  0
  3  4  1  0
  4  5  1  0
  5  6  1  0
  6  7  1  0
  7  8  1  0
  8  9  2  0
  9  3  1  0
  9  5  1  0
  1 10  1  0
  1 11  1  0
  1 12  1  0
  2 13  1  0
  2 14  1  0
  3 15  1  0
  5 16  1  0
  6 17  1  0
  6 18  1  0
  7 19  1  0
  7 20  1  0
  8 21  1  0
M  END
