
     RDKit          3D

 23 24  0  0  0  0  0  0  0  0999 V2000
    1.7647    0.5989   -1.5599 C   0  0  0  0  0  0  0  0  0  0  0  0
    1.0115   -0.6402   -1.1216 C   0  0  0  0  0  0  0  0  0  0  0  0
    0.6909   -0.5327    0.3175 C   0  0  0  0  0  0  0  0  0  0  0  0
   -0.0381   -1.6810    0.9546 C   0  0  0  0  0  0  0  0  0  0  0  0
   -1.2732   -1.1671    0.3415 C   0  0  0  0  0  0  0  0  0  0  0  0
   -0.5593    0.0970    0.7758 C   0  0  0  0  0  0  0  0  0  0  0  0
   -1.0209    1.2532    0.7680 O   0  0  0  0  0  0  0  0  0  0  0  0
   -1.2876    2.0304   -0.2993 C   0  0  0  0  0  0  0  0  0  0  0  0
   -0.2987   -0.7032    2.0729 C   0  0  0  0  0  0  0  0  0  0  0  0
    2.8299    0.3419   -1.7656 H   0  0  0  0  0  0  0  0  0  0  0  0
    1.3295    1.0308   -2.4830 H   0  0  0  0  0  0  0  0  0  0  0  0
    1.7690    1.3335   -0.7384 H   0  0  0  0  0  0  0  0  0  0  0  0
    0.0838   -0.6899   -1.7327 H   0  0  0  0  0  0  0  0  0  0  0  0
    1.6499   -1.5230   -1.3730 H   0  0  0  0  0  0  0  0  0  0  0  0
    1.5520   -0.1950    0.9650 H   0  0  0  0  0  0  0  0  0  0  0  0
    0.2879   -2.6230    1.0572 H   0  0  0  0  0  0  0  0  0  0  0  0
   -1.4902   -1.3018   -0.7087 H   0  0  0  0  0  0  0  0  0  0  0  0
   -2.1521   -1.3363    1.0375 H   0  0  0  0  0  0  0  0  0  0  0  0
   -1.7105    3.0055    0.1033 H   0  0  0  0  0  0  0  0  0  0  0  0
   -0.4276    2.2742   -0.9216 H   0  0  0  0  0  0  0  0  0  0  0  0
   -2.1271    1.6507   -0.9490 H   0  0  0  0  0  0  0  0  0  0  0  0
   -1.1907   -0.8814    2.6705 H   0  0  0  0  0  0  0  0  0  0  0  0
    0.6070   -0.3416    2.5890 H   0  0  0  0  0  0  0  0  0  0  0  0
  1  2  1  0
  2  3  1  0
  3  4  1  0
  4  5  1  0
  5  6  1  0
  6  7  1  0
  7  8  1  0
  6  9  1  0
  6  3  1  0
  9  4  1  0
  1 10  1  0
  1 11  1  0
  1 12  1  0
  2 13  1  0
  2 14  1  0
  3 15  1  0
  4 16  1  0
  5 17  1  0
  5 18  1  0
  8 19  1  0
  8 20  1  0
  8 21  1  0
  9 22  1  0
  9 23  1  0
M  END
