
     RDKit          3D

 25 25  0  0  0  0  0  0  0  0999 V2000
    2.1950    1.3500   -0.0047 C   0  0  0  0  0  0  0  0  0  0  0  0
    1.6190    0.0847   -0.5748 C   0  0  0  0  0  0  0  0  0  0  0  0
    0.5644   -0.4461    0.3125 C   0  0  0  0  0  0  0  0  0  0  0  0
   -0.0321   -1.7531   -0.2413 C   0  0  0  0  0  0  0  0  0  0  0  0
   -1.1500   -1.9442    0.7526 C   0  0  0  0  0  0  0  0  0  0  0  0
   -1.7973   -0.5909    0.7918 C   0  0  0  0  0  0  0  0  0  0  0  0
   -0.6786    0.3791    0.4670 C   0  0  0  0  0  0  0  0  0  0  0  0
   -1.0956    1.1120   -0.7823 C   0  0  0  0  0  0  0  0  0  0  0  0
   -0.1809    1.9991   -1.2748 O   0  0  0  0  0  0  0  0  0  0  0  0
    3.1532    1.0858    0.5264 H   0  0  0  0  0  0  0  0  0  0  0  0
    2.5015    2.0955   -0.7620 H   0  0  0  0  0  0  0  0  0  0  0  0
    1.5614    1.7997    0.8114 H   0  0  0  0  0  0  0  0  0  0  0  0
    2.4360   -0.6659   -0.6163 H   0  0  0  0  0  0  0  0  0  0  0  0
    1.3089    0.2029   -1.6359 H   0  0  0  0  0  0  0  0  0  0  0  0
    0.9641   -0.6828    1.3150 H   0  0  0  0  0  0  0  0  0  0  0  0
   -0.4995   -1.5856   -1.2310 H   0  0  0  0  0  0  0  0  0  0  0  0
    0.7071   -2.5625   -0.2212 H   0  0  0  0  0  0  0  0  0  0  0  0
   -1.8470   -2.7512    0.4569 H   0  0  0  0  0  0  0  0  0  0  0  0
   -0.6574   -2.1824    1.7351 H   0  0  0  0  0  0  0  0  0  0  0  0
   -2.2367   -0.3870    1.7921 H   0  0  0  0  0  0  0  0  0  0  0  0
   -2.6011   -0.5872    0.0070 H   0  0  0  0  0  0  0  0  0  0  0  0
   -0.6170    1.0990    1.2966 H   0  0  0  0  0  0  0  0  0  0  0  0
   -2.0166    1.6762   -0.5231 H   0  0  0  0  0  0  0  0  0  0  0  0
   -1.4155    0.3769   -1.5662 H   0  0  0  0  0  0  0  0  0  0  0  0
   -0.1854    2.8781   -0.8307 H   0  0  0  0  0  0  0  0  0  0  0  0
  1  2  1  0
  2  3  1  0
  3  4  1  0
  4  5  1  0
  5  6  1  0
  6  7  1  0
  7  8  1  0
  8  9  1  0
  7  3  1  0
  1 10  1  0
  1 11  1  0
  1 12  1  0
  2 13  1  0
  2 14  1  0
  3 15  1  0
  4 16  1  0
  4 17  1  0
  5 18  1  0
  5 19  1  0
  6 20  1  0
  6 21  1  0
  7 22  1  0
  8 23  1  0
  8 24  1  0
  9 25  1  0
M  END
