
     RDKit          3D

 23 23  0  0  0  0  0  0  0  0999 V2000
    2.1547   -1.3427    0.5130 C   0  0  0  0  0  0  0  0  0  0  0  0
    1.8249   -0.3757   -0.6031 C   0  0  0  0  0  0  0  0  0  0  0  0
    0.6564    0.5083   -0.2157 C   0  0  0  0  0  0  0  0  0  0  0  0
    0.6990    1.8254   -0.1349 C   0  0  0  0  0  0  0  0  0  0  0  0
   -0.6107    2.3354    0.2651 C   0  0  0  0  0  0  0  0  0  0  0  0
   -1.3199    1.1618    0.8427 C   0  0  0  0  0  0  0  0  0  0  0  0
   -0.6777   -0.0252    0.1216 C   0  0  0  0  0  0  0  0  0  0  0  0
   -1.4371   -0.3890   -0.9555 O   0  0  0  0  0  0  0  0  0  0  0  0
   -1.8650   -1.6908   -0.8042 C   0  0  0  0  0  0  0  0  0  0  0  0
    1.9408   -2.3732    0.1608 H   0  0  0  0  0  0  0  0  0  0  0  0
    1.4349   -1.1541    1.3431 H   0  0  0  0  0  0  0  0  0  0  0  0
    3.1985   -1.2487    0.8428 H   0  0  0  0  0  0  0  0  0  0  0  0
    1.5496   -0.9361   -1.5320 H   0  0  0  0  0  0  0  0  0  0  0  0
    2.7148    0.2224   -0.8142 H   0  0  0  0  0  0  0  0  0  0  0  0
    1.6298    2.3966   -0.3534 H   0  0  0  0  0  0  0  0  0  0  0  0
   -1.1509    2.6058   -0.6907 H   0  0  0  0  0  0  0  0  0  0  0  0
   -0.5815    3.2193    0.9235 H   0  0  0  0  0  0  0  0  0  0  0  0
   -1.2739    1.0633    1.9265 H   0  0  0  0  0  0  0  0  0  0  0  0
   -2.4144    1.1994    0.5722 H   0  0  0  0  0  0  0  0  0  0  0  0
   -0.5926   -0.8670    0.8522 H   0  0  0  0  0  0  0  0  0  0  0  0
   -0.9643   -2.3454   -0.7327 H   0  0  0  0  0  0  0  0  0  0  0  0
   -2.4890   -1.9460   -1.6872 H   0  0  0  0  0  0  0  0  0  0  0  0
   -2.4267   -1.8439    0.1598 H   0  0  0  0  0  0  0  0  0  0  0  0
  1  2  1  0
  2  3  1  0
  3  4  2  0
  4  5  1  0
  5  6  1  0
  6  7  1  0
  7  8  1  0
  8  9  1  0
  7  3  1  0
  1 10  1  0
  1 11  1  0
  1 12  1  0
  2 13  1  0
  2 14  1  0
  4 15  1  0
  5 16  1  0
  5 17  1  0
  6 18  1  0
  6 19  1  0
  7 20  1  0
  9 21  1  0
  9 22  1  0
  9 23  1  0
M  END
