
     RDKit          3D

 18 18  0  0  0  0  0  0  0  0999 V2000
   -2.2579   -0.0917    0.6517 C   0  0  0  0  0  0  0  0  0  0  0  0
   -1.3520   -0.6270   -0.4169 C   0  0  0  0  0  0  0  0  0  0  0  0
   -0.2962    0.3825   -0.8234 C   0  0  0  0  0  0  0  0  0  0  0  0
    0.6212    0.8353    0.2568 C   0  0  0  0  0  0  0  0  0  0  0  0
    1.4244   -0.3848   -0.2143 C   0  0  0  0  0  0  0  0  0  0  0  0
    2.8553   -0.0324   -0.2113 C   0  0  0  0  0  0  0  0  0  0  0  0
    3.4921   -0.1182    0.8057 O   0  0  0  0  0  0  0  0  0  0  0  0
    0.7810   -0.2504   -1.4417 O   0  0  0  0  0  0  0  0  0  0  0  0
   -3.2792    0.1287    0.2603 H   0  0  0  0  0  0  0  0  0  0  0  0
   -1.8756    0.8174    1.1509 H   0  0  0  0  0  0  0  0  0  0  0  0
   -2.3698   -0.8972    1.4177 H   0  0  0  0  0  0  0  0  0  0  0  0
   -1.9810   -0.8205   -1.3203 H   0  0  0  0  0  0  0  0  0  0  0  0
   -0.8883   -1.6049   -0.1564 H   0  0  0  0  0  0  0  0  0  0  0  0
   -0.7535    1.2049   -1.4359 H   0  0  0  0  0  0  0  0  0  0  0  0
    1.1117    1.7819    0.0141 H   0  0  0  0  0  0  0  0  0  0  0  0
    0.2985    0.6755    1.2954 H   0  0  0  0  0  0  0  0  0  0  0  0
    1.1505   -1.2970    0.3550 H   0  0  0  0  0  0  0  0  0  0  0  0
    3.3188    0.2978   -1.1150 H   0  0  0  0  0  0  0  0  0  0  0  0
  1  2  1  0
  2  3  1  0
  3  4  1  0
  4  5  1  0
  5  6  1  0
  6  7  2  0
  5  8  1  0
  8  3  1  0
  1  9  1  0
  1 10  1  0
  1 11  1  0
  2 12  1  0
  2 13  1  0
  3 14  1  0
  4 15  1  0
  4 16  1  0
  5 17  1  0
  6 18  1  0
M  END
