
     RDKit          3D

 16 16  0  0  0  0  0  0  0  0999 V2000
   -2.2518    0.3874   -0.3710 C   0  0  0  0  0  0  0  0  0  0  0  0
   -1.2111   -0.6775   -0.2984 C   0  0  0  0  0  0  0  0  0  0  0  0
    0.0386   -0.2532    0.4196 C   0  0  0  0  0  0  0  0  0  0  0  0
    0.6598    0.8365   -0.1880 O   0  0  0  0  0  0  0  0  0  0  0  0
    1.9281    0.8246    0.3831 C   0  0  0  0  0  0  0  0  0  0  0  0
    2.2357   -0.6281    0.5395 C   0  0  0  0  0  0  0  0  0  0  0  0
    3.3227   -1.1228    0.8819 O   0  0  0  0  0  0  0  0  0  0  0  0
    1.0249   -1.2691    0.2120 O   0  0  0  0  0  0  0  0  0  0  0  0
   -3.0308    0.0346   -1.1021 H   0  0  0  0  0  0  0  0  0  0  0  0
   -2.7851    0.5370    0.5995 H   0  0  0  0  0  0  0  0  0  0  0  0
   -1.9021    1.3538   -0.7444 H   0  0  0  0  0  0  0  0  0  0  0  0
   -0.9495   -0.9836   -1.3249 H   0  0  0  0  0  0  0  0  0  0  0  0
   -1.6304   -1.5412    0.2548 H   0  0  0  0  0  0  0  0  0  0  0  0
   -0.0843   -0.1419    1.5002 H   0  0  0  0  0  0  0  0  0  0  0  0
    2.6813    1.3093   -0.2926 H   0  0  0  0  0  0  0  0  0  0  0  0
    1.9538    1.3342    1.3693 H   0  0  0  0  0  0  0  0  0  0  0  0
  1  2  1  0
  2  3  1  0
  3  4  1  0
  4  5  1  0
  5  6  1  0
  6  7  2  0
  6  8  1  0
  8  3  1  0
  1  9  1  0
  1 10  1  0
  1 11  1  0
  2 12  1  0
  2 13  1  0
  3 14  1  0
  5 15  1  0
  5 16  1  0
M  END
