
     RDKit          3D

 20 21  0  0  0  0  0  0  0  0999 V2000
    2.4603    0.8010    0.6830 C   0  0  0  0  0  0  0  0  0  0  0  0
    1.7027   -0.3100    0.0015 C   0  0  0  0  0  0  0  0  0  0  0  0
    0.3486    0.1963   -0.5286 C   0  0  0  0  0  0  0  0  0  0  0  0
   -0.5378   -0.6898   -1.2117 C   0  0  0  0  0  0  0  0  0  0  0  0
   -1.9268   -0.7521   -1.1933 O   0  0  0  0  0  0  0  0  0  0  0  0
   -1.6798   -1.3917    0.0546 C   0  0  0  0  0  0  0  0  0  0  0  0
   -0.8465   -0.1103    0.2263 C   0  0  0  0  0  0  0  0  0  0  0  0
   -1.8310    1.0744    0.2327 C   0  0  0  0  0  0  0  0  0  0  0  0
    3.4410    0.8890    0.1549 H   0  0  0  0  0  0  0  0  0  0  0  0
    1.8760    1.7378    0.6434 H   0  0  0  0  0  0  0  0  0  0  0  0
    2.6823    0.5488    1.7306 H   0  0  0  0  0  0  0  0  0  0  0  0
    1.4850   -1.1043    0.7419 H   0  0  0  0  0  0  0  0  0  0  0  0
    2.2766   -0.7772   -0.8252 H   0  0  0  0  0  0  0  0  0  0  0  0
    0.5242    1.2020   -1.0240 H   0  0  0  0  0  0  0  0  0  0  0  0
   -0.1735   -1.7645   -1.2220 H   0  0  0  0  0  0  0  0  0  0  0  0
   -1.1314   -2.3201    0.0209 H   0  0  0  0  0  0  0  0  0  0  0  0
   -2.5512   -1.3806    0.7259 H   0  0  0  0  0  0  0  0  0  0  0  0
   -2.0253    1.4499   -0.7704 H   0  0  0  0  0  0  0  0  0  0  0  0
   -1.3234    1.8587    0.8422 H   0  0  0  0  0  0  0  0  0  0  0  0
   -2.7702    0.8427    0.7174 H   0  0  0  0  0  0  0  0  0  0  0  0
  1  2  1  0
  2  3  1  0
  3  4  1  0
  4  5  1  0
  5  6  1  0
  6  7  1  0
  7  8  1  0
  7  3  1  0
  7  4  1  0
  1  9  1  0
  1 10  1  0
  1 11  1  0
  2 12  1  0
  2 13  1  0
  3 14  1  0
  4 15  1  0
  6 16  1  0
  6 17  1  0
  8 18  1  0
  8 19  1  0
  8 20  1  0
M  END
