
     RDKit          3D

 21 22  0  0  0  0  0  0  0  0999 V2000
    2.0798    0.9141    0.2408 C   0  0  0  0  0  0  0  0  0  0  0  0
    1.5635   -0.4550   -0.1993 C   0  0  0  0  0  0  0  0  0  0  0  0
    0.2398   -0.6344    0.1504 C   0  0  0  0  0  0  0  0  0  0  0  0
   -0.6007   -1.8461   -0.1143 C   0  0  0  0  0  0  0  0  0  0  0  0
   -1.4469   -0.8416    0.6026 C   0  0  0  0  0  0  0  0  0  0  0  0
   -0.3266   -0.5782    1.3889 O   0  0  0  0  0  0  0  0  0  0  0  0
   -0.9167    0.1891   -0.3386 C   0  0  0  0  0  0  0  0  0  0  0  0
   -1.0461    1.5670    0.2207 C   0  0  0  0  0  0  0  0  0  0  0  0
   -1.1890    0.0178   -1.6737 O   0  0  0  0  0  0  0  0  0  0  0  0
    1.5878    1.7387   -0.2742 H   0  0  0  0  0  0  0  0  0  0  0  0
    3.1736    0.8897    0.0701 H   0  0  0  0  0  0  0  0  0  0  0  0
    1.9217    1.0162    1.3209 H   0  0  0  0  0  0  0  0  0  0  0  0
    2.2518   -1.1923    0.2024 H   0  0  0  0  0  0  0  0  0  0  0  0
    1.7111   -0.4633   -1.3163 H   0  0  0  0  0  0  0  0  0  0  0  0
   -0.8478   -1.9772   -1.1773 H   0  0  0  0  0  0  0  0  0  0  0  0
   -0.3330   -2.7596    0.4206 H   0  0  0  0  0  0  0  0  0  0  0  0
   -2.3933   -0.9555    0.9283 H   0  0  0  0  0  0  0  0  0  0  0  0
   -0.8531    2.3744   -0.5160 H   0  0  0  0  0  0  0  0  0  0  0  0
   -2.0921    1.6532    0.6364 H   0  0  0  0  0  0  0  0  0  0  0  0
   -0.3836    1.6493    1.1090 H   0  0  0  0  0  0  0  0  0  0  0  0
   -2.1004   -0.3062   -1.8608 H   0  0  0  0  0  0  0  0  0  0  0  0
  1  2  1  0
  2  3  1  0
  3  4  1  0
  4  5  1  0
  5  6  1  0
  5  7  1  0
  7  8  1  0
  7  9  1  0
  6  3  1  0
  7  3  1  0
  1 10  1  0
  1 11  1  0
  1 12  1  0
  2 13  1  0
  2 14  1  0
  4 15  1  0
  4 16  1  0
  5 17  1  0
  8 18  1  0
  8 19  1  0
  8 20  1  0
  9 21  1  0
M  END
