
     RDKit          3D

 21 22  0  0  0  0  0  0  0  0999 V2000
    2.8558   -0.1360   -0.2422 C   0  0  0  0  0  0  0  0  0  0  0  0
    1.7834    0.3150    0.7154 C   0  0  0  0  0  0  0  0  0  0  0  0
    0.4084    0.0880    0.1766 C   0  0  0  0  0  0  0  0  0  0  0  0
    0.1054   -0.4391   -0.9884 C   0  0  0  0  0  0  0  0  0  0  0  0
   -1.3586   -0.5275   -1.2259 C   0  0  0  0  0  0  0  0  0  0  0  0
   -1.9298    0.1493   -0.0125 C   0  0  0  0  0  0  0  0  0  0  0  0
   -2.8568    1.1756   -0.1870 O   0  0  0  0  0  0  0  0  0  0  0  0
   -1.8291   -0.5734    1.2723 C   0  0  0  0  0  0  0  0  0  0  0  0
   -0.8139    0.4397    0.9116 C   0  0  0  0  0  0  0  0  0  0  0  0
    2.6114    0.1505   -1.2810 H   0  0  0  0  0  0  0  0  0  0  0  0
    3.8069    0.3634    0.1021 H   0  0  0  0  0  0  0  0  0  0  0  0
    3.0522   -1.2203   -0.1874 H   0  0  0  0  0  0  0  0  0  0  0  0
    1.9602    1.3707    0.9896 H   0  0  0  0  0  0  0  0  0  0  0  0
    1.9092   -0.2830    1.6428 H   0  0  0  0  0  0  0  0  0  0  0  0
    0.8519   -0.7829   -1.7202 H   0  0  0  0  0  0  0  0  0  0  0  0
   -1.7134   -1.5761   -1.3245 H   0  0  0  0  0  0  0  0  0  0  0  0
   -1.5726    0.0652   -2.1600 H   0  0  0  0  0  0  0  0  0  0  0  0
   -2.3580    2.0255   -0.0958 H   0  0  0  0  0  0  0  0  0  0  0  0
   -2.4878   -0.3302    2.1383 H   0  0  0  0  0  0  0  0  0  0  0  0
   -1.6225   -1.6665    1.1950 H   0  0  0  0  0  0  0  0  0  0  0  0
   -0.8023    1.3920    1.5068 H   0  0  0  0  0  0  0  0  0  0  0  0
  1  2  1  0
  2  3  1  0
  3  4  2  0
  4  5  1  0
  5  6  1  0
  6  7  1  0
  6  8  1  0
  8  9  1  0
  9  3  1  0
  9  6  1  0
  1 10  1  0
  1 11  1  0
  1 12  1  0
  2 13  1  0
  2 14  1  0
  4 15  1  0
  5 16  1  0
  5 17  1  0
  7 18  1  0
  8 19  1  0
  8 20  1  0
  9 21  1  0
M  END
