
     RDKit          3D

 23 24  0  0  0  0  0  0  0  0999 V2000
    2.8778    0.8384    0.0188 C   0  0  0  0  0  0  0  0  0  0  0  0
    1.8202    0.2433   -0.8924 C   0  0  0  0  0  0  0  0  0  0  0  0
    0.5866   -0.0811   -0.0871 C   0  0  0  0  0  0  0  0  0  0  0  0
    0.6785   -1.0410    1.0351 C   0  0  0  0  0  0  0  0  0  0  0  0
   -0.0946   -1.3533   -0.2575 C   0  0  0  0  0  0  0  0  0  0  0  0
   -1.5690   -1.0580   -0.1315 C   0  0  0  0  0  0  0  0  0  0  0  0
   -1.5516    0.3705    0.3824 C   0  0  0  0  0  0  0  0  0  0  0  0
   -2.7536    1.0966   -0.1621 C   0  0  0  0  0  0  0  0  0  0  0  0
   -0.3787    0.9183   -0.0992 O   0  0  0  0  0  0  0  0  0  0  0  0
    3.6913    0.1328    0.2205 H   0  0  0  0  0  0  0  0  0  0  0  0
    2.3998    1.1791    0.9635 H   0  0  0  0  0  0  0  0  0  0  0  0
    3.2619    1.7761   -0.4672 H   0  0  0  0  0  0  0  0  0  0  0  0
    1.5136    0.9479   -1.6894 H   0  0  0  0  0  0  0  0  0  0  0  0
    2.2527   -0.6915   -1.3076 H   0  0  0  0  0  0  0  0  0  0  0  0
    1.6679   -1.5210    1.1712 H   0  0  0  0  0  0  0  0  0  0  0  0
    0.1128   -0.9131    1.9632 H   0  0  0  0  0  0  0  0  0  0  0  0
    0.2715   -2.2215   -0.7917 H   0  0  0  0  0  0  0  0  0  0  0  0
   -2.0971   -1.1695   -1.0751 H   0  0  0  0  0  0  0  0  0  0  0  0
   -1.9544   -1.6952    0.6928 H   0  0  0  0  0  0  0  0  0  0  0  0
   -1.5158    0.4090    1.4880 H   0  0  0  0  0  0  0  0  0  0  0  0
   -3.6637    0.9324    0.4451 H   0  0  0  0  0  0  0  0  0  0  0  0
   -2.9721    0.7080   -1.1827 H   0  0  0  0  0  0  0  0  0  0  0  0
   -2.5838    2.1926   -0.2371 H   0  0  0  0  0  0  0  0  0  0  0  0
  1  2  1  0
  2  3  1  0
  3  4  1  0
  4  5  1  0
  5  6  1  0
  6  7  1  0
  7  8  1  0
  7  9  1  0
  5  3  1  0
  9  3  1  0
  1 10  1  0
  1 11  1  0
  1 12  1  0
  2 13  1  0
  2 14  1  0
  4 15  1  0
  4 16  1  0
  5 17  1  0
  6 18  1  0
  6 19  1  0
  7 20  1  0
  8 21  1  0
  8 22  1  0
  8 23  1  0
M  END
