
     RDKit          3D

 17 17  0  0  0  0  0  0  0  0999 V2000
   -1.6764   -0.1800    1.0449 C   0  0  0  0  0  0  0  0  0  0  0  0
   -1.3692   -0.1423   -0.4124 C   0  0  0  0  0  0  0  0  0  0  0  0
    0.0931    0.0011   -0.7300 C   0  0  0  0  0  0  0  0  0  0  0  0
    0.9305   -1.0645   -0.2216 C   0  0  0  0  0  0  0  0  0  0  0  0
    1.9060   -0.5846    0.5204 C   0  0  0  0  0  0  0  0  0  0  0  0
    1.8353    0.8677    0.5960 C   0  0  0  0  0  0  0  0  0  0  0  0
    2.6333    1.6276    1.2350 O   0  0  0  0  0  0  0  0  0  0  0  0
    0.6791    1.2417   -0.2014 C   0  0  0  0  0  0  0  0  0  0  0  0
    0.2842    2.4356   -0.3810 O   0  0  0  0  0  0  0  0  0  0  0  0
   -0.8890   -0.7286    1.6084 H   0  0  0  0  0  0  0  0  0  0  0  0
   -2.6251   -0.7757    1.1713 H   0  0  0  0  0  0  0  0  0  0  0  0
   -1.8060    0.8400    1.4970 H   0  0  0  0  0  0  0  0  0  0  0  0
   -1.8810    0.7544   -0.8683 H   0  0  0  0  0  0  0  0  0  0  0  0
   -1.7521   -1.0140   -0.9507 H   0  0  0  0  0  0  0  0  0  0  0  0
    0.1522    0.0714   -1.8545 H   0  0  0  0  0  0  0  0  0  0  0  0
    0.8119   -2.1453   -0.4007 H   0  0  0  0  0  0  0  0  0  0  0  0
    2.6731   -1.2046    1.0171 H   0  0  0  0  0  0  0  0  0  0  0  0
  1  2  1  0
  2  3  1  0
  3  4  1  0
  4  5  2  0
  5  6  1  0
  6  7  2  0
  6  8  1  0
  8  9  2  0
  8  3  1  0
  1 10  1  0
  1 11  1  0
  1 12  1  0
  2 13  1  0
  2 14  1  0
  3 15  1  0
  4 16  1  0
  5 17  1  0
M  END
