
     RDKit          3D

 21 22  0  0  0  0  0  0  0  0999 V2000
   -2.4052    0.5900    0.4179 C   0  0  0  0  0  0  0  0  0  0  0  0
   -1.1838   -0.2492    0.5808 C   0  0  0  0  0  0  0  0  0  0  0  0
   -0.4655   -0.5454   -0.6984 C   0  0  0  0  0  0  0  0  0  0  0  0
    0.7749   -1.4011   -0.5091 C   0  0  0  0  0  0  0  0  0  0  0  0
    1.4748   -0.9970    0.7406 C   0  0  0  0  0  0  0  0  0  0  0  0
    1.8643    0.2632    0.8073 C   0  0  0  0  0  0  0  0  0  0  0  0
    1.3283    1.1819   -0.2395 C   0  0  0  0  0  0  0  0  0  0  0  0
    0.5259    0.4038   -1.2304 C   0  0  0  0  0  0  0  0  0  0  0  0
    1.3125   -0.7095   -1.6108 O   0  0  0  0  0  0  0  0  0  0  0  0
   -3.3521    0.0572    0.6812 H   0  0  0  0  0  0  0  0  0  0  0  0
   -2.3630    1.4471    1.1543 H   0  0  0  0  0  0  0  0  0  0  0  0
   -2.5370    0.9903   -0.6083 H   0  0  0  0  0  0  0  0  0  0  0  0
   -1.5308   -1.2477    0.9852 H   0  0  0  0  0  0  0  0  0  0  0  0
   -0.5171    0.1504    1.3701 H   0  0  0  0  0  0  0  0  0  0  0  0
   -1.0725   -0.9793   -1.5046 H   0  0  0  0  0  0  0  0  0  0  0  0
    0.6339   -2.4757   -0.6530 H   0  0  0  0  0  0  0  0  0  0  0  0
    1.6284   -1.7239    1.5104 H   0  0  0  0  0  0  0  0  0  0  0  0
    2.5301    0.6417    1.5605 H   0  0  0  0  0  0  0  0  0  0  0  0
    0.8299    2.0589    0.1703 H   0  0  0  0  0  0  0  0  0  0  0  0
    2.2392    1.5628   -0.7898 H   0  0  0  0  0  0  0  0  0  0  0  0
    0.2849    0.9815   -2.1346 H   0  0  0  0  0  0  0  0  0  0  0  0
  1  2  1  0
  2  3  1  0
  3  4  1  0
  4  5  1  0
  5  6  2  0
  6  7  1  0
  7  8  1  0
  8  9  1  0
  8  3  1  0
  9  4  1  0
  1 10  1  0
  1 11  1  0
  1 12  1  0
  2 13  1  0
  2 14  1  0
  3 15  1  0
  4 16  1  0
  5 17  1  0
  6 18  1  0
  7 19  1  0
  7 20  1  0
  8 21  1  0
M  END
