
     RDKit          3D

 23 24  0  0  0  0  0  0  0  0999 V2000
    2.8388   -0.1458   -0.3828 C   0  0  0  0  0  0  0  0  0  0  0  0
    1.7964    0.8344    0.0461 C   0  0  0  0  0  0  0  0  0  0  0  0
    0.4740    0.2760   -0.0083 C   0  0  0  0  0  0  0  0  0  0  0  0
   -0.7077    1.0822    0.3760 C   0  0  0  0  0  0  0  0  0  0  0  0
   -1.7202    0.1864    0.2458 C   0  0  0  0  0  0  0  0  0  0  0  0
   -3.1586    0.4644    0.5007 C   0  0  0  0  0  0  0  0  0  0  0  0
   -1.0232   -1.0315   -0.1848 C   0  0  0  0  0  0  0  0  0  0  0  0
   -0.0201   -0.4693   -1.2048 C   0  0  0  0  0  0  0  0  0  0  0  0
    0.1884   -1.0157    0.7629 C   0  0  0  0  0  0  0  0  0  0  0  0
    3.0944    0.0555   -1.4624 H   0  0  0  0  0  0  0  0  0  0  0  0
    3.7620    0.0358    0.2195 H   0  0  0  0  0  0  0  0  0  0  0  0
    2.5818   -1.1924   -0.2714 H   0  0  0  0  0  0  0  0  0  0  0  0
    1.8755    1.7357   -0.5586 H   0  0  0  0  0  0  0  0  0  0  0  0
    2.0180    1.1542    1.1065 H   0  0  0  0  0  0  0  0  0  0  0  0
   -0.7688    2.1190    0.6839 H   0  0  0  0  0  0  0  0  0  0  0  0
   -3.4197    0.2810    1.5747 H   0  0  0  0  0  0  0  0  0  0  0  0
   -3.3414    1.5643    0.3427 H   0  0  0  0  0  0  0  0  0  0  0  0
   -3.8133   -0.0791   -0.1852 H   0  0  0  0  0  0  0  0  0  0  0  0
   -1.5022   -1.9359   -0.3837 H   0  0  0  0  0  0  0  0  0  0  0  0
    0.6125   -1.3185   -1.5455 H   0  0  0  0  0  0  0  0  0  0  0  0
   -0.4940    0.1258   -2.0062 H   0  0  0  0  0  0  0  0  0  0  0  0
   -0.0990   -0.8661    1.8140 H   0  0  0  0  0  0  0  0  0  0  0  0
    0.8262   -1.8603    0.5205 H   0  0  0  0  0  0  0  0  0  0  0  0
  1  2  1  0
  2  3  1  0
  3  4  1  0
  4  5  2  0
  5  6  1  0
  5  7  1  0
  7  8  1  0
  7  9  1  0
  8  3  1  0
  9  3  1  0
  1 10  1  0
  1 11  1  0
  1 12  1  0
  2 13  1  0
  2 14  1  0
  4 15  1  0
  6 16  1  0
  6 17  1  0
  6 18  1  0
  7 19  1  0
  8 20  1  0
  8 21  1  0
  9 22  1  0
  9 23  1  0
M  END
