
     RDKit          3D

 21 21  0  0  0  0  0  0  0  0999 V2000
    2.6423    0.0714    0.6873 C   0  0  0  0  0  0  0  0  0  0  0  0
    1.5458   -0.7814    0.1137 C   0  0  0  0  0  0  0  0  0  0  0  0
    0.5062    0.1418   -0.4953 C   0  0  0  0  0  0  0  0  0  0  0  0
   -0.0755    1.0660    0.5140 C   0  0  0  0  0  0  0  0  0  0  0  0
   -1.3777    1.1783    0.6702 C   0  0  0  0  0  0  0  0  0  0  0  0
   -2.3840    0.4147   -0.1230 C   0  0  0  0  0  0  0  0  0  0  0  0
   -1.8077   -0.9448   -0.4588 C   0  0  0  0  0  0  0  0  0  0  0  0
   -0.5060   -0.6950   -1.1520 C   0  0  0  0  0  0  0  0  0  0  0  0
   -0.2717   -1.1679   -2.2403 O   0  0  0  0  0  0  0  0  0  0  0  0
    3.5645   -0.5268    0.8919 H   0  0  0  0  0  0  0  0  0  0  0  0
    2.9407    0.8055   -0.1142 H   0  0  0  0  0  0  0  0  0  0  0  0
    2.3104    0.6413    1.5685 H   0  0  0  0  0  0  0  0  0  0  0  0
    1.9664   -1.3743   -0.7218 H   0  0  0  0  0  0  0  0  0  0  0  0
    1.0798   -1.4008    0.9002 H   0  0  0  0  0  0  0  0  0  0  0  0
    1.0666    0.7911   -1.2209 H   0  0  0  0  0  0  0  0  0  0  0  0
    0.5957    1.6550    1.1288 H   0  0  0  0  0  0  0  0  0  0  0  0
   -1.7409    1.8834    1.4381 H   0  0  0  0  0  0  0  0  0  0  0  0
   -2.6030    0.9179   -1.1006 H   0  0  0  0  0  0  0  0  0  0  0  0
   -3.3040    0.3191    0.4853 H   0  0  0  0  0  0  0  0  0  0  0  0
   -1.6442   -1.5694    0.4237 H   0  0  0  0  0  0  0  0  0  0  0  0
   -2.5037   -1.4254   -1.1949 H   0  0  0  0  0  0  0  0  0  0  0  0
  1  2  1  0
  2  3  1  0
  3  4  1  0
  4  5  2  0
  5  6  1  0
  6  7  1  0
  7  8  1  0
  8  9  2  0
  8  3  1  0
  1 10  1  0
  1 11  1  0
  1 12  1  0
  2 13  1  0
  2 14  1  0
  3 15  1  0
  4 16  1  0
  5 17  1  0
  6 18  1  0
  6 19  1  0
  7 20  1  0
  7 21  1  0
M  END
