
     RDKit          3D

 23 24  0  0  0  0  0  0  0  0999 V2000
    3.3096    0.0984   -0.3815 C   0  0  0  0  0  0  0  0  0  0  0  0
    2.1835    0.1757    0.5826 C   0  0  0  0  0  0  0  0  0  0  0  0
    0.8792   -0.3540    0.0341 C   0  0  0  0  0  0  0  0  0  0  0  0
    0.4212    0.3199   -1.1023 O   0  0  0  0  0  0  0  0  0  0  0  0
   -0.8680    0.0764   -0.6286 C   0  0  0  0  0  0  0  0  0  0  0  0
   -1.6230   -1.1155   -1.0915 C   0  0  0  0  0  0  0  0  0  0  0  0
   -1.3254    0.9832    0.4347 C   0  0  0  0  0  0  0  0  0  0  0  0
   -2.7283    0.8811    0.9859 C   0  0  0  0  0  0  0  0  0  0  0  0
   -0.3390   -0.0200    0.8187 C   0  0  0  0  0  0  0  0  0  0  0  0
    4.0924   -0.6504   -0.1041 H   0  0  0  0  0  0  0  0  0  0  0  0
    3.8344    1.0929   -0.3854 H   0  0  0  0  0  0  0  0  0  0  0  0
    3.0227   -0.1309   -1.4218 H   0  0  0  0  0  0  0  0  0  0  0  0
    2.4375   -0.4803    1.4580 H   0  0  0  0  0  0  0  0  0  0  0  0
    2.0068    1.1826    1.0067 H   0  0  0  0  0  0  0  0  0  0  0  0
    0.9601   -1.4363   -0.2018 H   0  0  0  0  0  0  0  0  0  0  0  0
   -2.6923   -0.9289   -1.3209 H   0  0  0  0  0  0  0  0  0  0  0  0
   -1.1287   -1.4809   -2.0371 H   0  0  0  0  0  0  0  0  0  0  0  0
   -1.5237   -1.9670   -0.3767 H   0  0  0  0  0  0  0  0  0  0  0  0
   -0.9936    2.0553    0.3290 H   0  0  0  0  0  0  0  0  0  0  0  0
   -3.2325   -0.0617    0.6672 H   0  0  0  0  0  0  0  0  0  0  0  0
   -2.6238    0.8567    2.1081 H   0  0  0  0  0  0  0  0  0  0  0  0
   -3.3393    1.7821    0.7767 H   0  0  0  0  0  0  0  0  0  0  0  0
   -0.7299   -0.8783    1.4329 H   0  0  0  0  0  0  0  0  0  0  0  0
  1  2  1  0
  2  3  1  0
  3  4  1  0
  4  5  1  0
  5  6  1  0
  5  7  1  0
  7  8  1  0
  7  9  1  0
  9  3  1  0
  9  5  1  0
  1 10  1  0
  1 11  1  0
  1 12  1  0
  2 13  1  0
  2 14  1  0
  3 15  1  0
  6 16  1  0
  6 17  1  0
  6 18  1  0
  7 19  1  0
  8 20  1  0
  8 21  1  0
  8 22  1  0
  9 23  1  0
M  END
