
     RDKit          3D

 21 21  0  0  0  0  0  0  0  0999 V2000
   -2.6353   -0.2924    0.1211 C   0  0  0  0  0  0  0  0  0  0  0  0
   -1.4860    0.6137    0.3667 C   0  0  0  0  0  0  0  0  0  0  0  0
   -0.1506   -0.0764    0.4250 C   0  0  0  0  0  0  0  0  0  0  0  0
    0.2132   -0.8008   -0.8217 C   0  0  0  0  0  0  0  0  0  0  0  0
    1.5765   -0.3053   -1.2256 C   0  0  0  0  0  0  0  0  0  0  0  0
    2.1153   -0.3937   -2.3001 O   0  0  0  0  0  0  0  0  0  0  0  0
    2.1500    0.3294   -0.0231 C   0  0  0  0  0  0  0  0  0  0  0  0
    2.6943   -0.6068    0.8288 O   0  0  0  0  0  0  0  0  0  0  0  0
    0.9082    0.9941    0.5837 C   0  0  0  0  0  0  0  0  0  0  0  0
   -3.3672    0.2186   -0.5678 H   0  0  0  0  0  0  0  0  0  0  0  0
   -2.3935   -1.2460   -0.3545 H   0  0  0  0  0  0  0  0  0  0  0  0
   -3.2231   -0.5170    1.0394 H   0  0  0  0  0  0  0  0  0  0  0  0
   -1.6381    1.0834    1.3811 H   0  0  0  0  0  0  0  0  0  0  0  0
   -1.4520    1.4701   -0.3401 H   0  0  0  0  0  0  0  0  0  0  0  0
   -0.0975   -0.7171    1.3430 H   0  0  0  0  0  0  0  0  0  0  0  0
   -0.4365   -0.5623   -1.6881 H   0  0  0  0  0  0  0  0  0  0  0  0
    0.2450   -1.8889   -0.5900 H   0  0  0  0  0  0  0  0  0  0  0  0
    2.8988    1.0995   -0.2891 H   0  0  0  0  0  0  0  0  0  0  0  0
    2.3976   -1.5179    0.5771 H   0  0  0  0  0  0  0  0  0  0  0  0
    0.6178    1.8268   -0.0893 H   0  0  0  0  0  0  0  0  0  0  0  0
    1.0632    1.2890    1.6236 H   0  0  0  0  0  0  0  0  0  0  0  0
  1  2  1  0
  2  3  1  0
  3  4  1  0
  4  5  1  0
  5  6  2  0
  5  7  1  0
  7  8  1  0
  7  9  1  0
  9  3  1  0
  1 10  1  0
  1 11  1  0
  1 12  1  0
  2 13  1  0
  2 14  1  0
  3 15  1  0
  4 16  1  0
  4 17  1  0
  7 18  1  0
  8 19  1  0
  9 20  1  0
  9 21  1  0
M  END
