
     RDKit          3D

 25 25  0  0  0  0  0  0  0  0999 V2000
    3.0330   -0.1652    0.6054 C   0  0  0  0  0  0  0  0  0  0  0  0
    1.9969   -0.5570   -0.4141 C   0  0  0  0  0  0  0  0  0  0  0  0
    0.9287    0.4811   -0.5777 C   0  0  0  0  0  0  0  0  0  0  0  0
   -0.1334    0.1144   -1.6012 C   0  0  0  0  0  0  0  0  0  0  0  0
   -0.4604    0.2391   -0.1256 C   0  0  0  0  0  0  0  0  0  0  0  0
   -0.8293   -1.0378    0.5933 C   0  0  0  0  0  0  0  0  0  0  0  0
   -2.2994   -1.0531    0.9518 C   0  0  0  0  0  0  0  0  0  0  0  0
   -1.3020    1.4289    0.2393 C   0  0  0  0  0  0  0  0  0  0  0  0
   -1.4028    2.2465   -0.8805 O   0  0  0  0  0  0  0  0  0  0  0  0
    3.0691   -0.8590    1.4750 H   0  0  0  0  0  0  0  0  0  0  0  0
    4.0534   -0.1971    0.1384 H   0  0  0  0  0  0  0  0  0  0  0  0
    2.8859    0.8516    1.0021 H   0  0  0  0  0  0  0  0  0  0  0  0
    2.4816   -0.7230   -1.4116 H   0  0  0  0  0  0  0  0  0  0  0  0
    1.5974   -1.5441   -0.1096 H   0  0  0  0  0  0  0  0  0  0  0  0
    1.2674    1.5151   -0.6126 H   0  0  0  0  0  0  0  0  0  0  0  0
   -0.1315   -0.9117   -2.0278 H   0  0  0  0  0  0  0  0  0  0  0  0
   -0.4642    0.8903   -2.2975 H   0  0  0  0  0  0  0  0  0  0  0  0
   -0.2618   -1.1774    1.5332 H   0  0  0  0  0  0  0  0  0  0  0  0
   -0.6549   -1.8869   -0.0967 H   0  0  0  0  0  0  0  0  0  0  0  0
   -2.9198   -0.7189    0.1112 H   0  0  0  0  0  0  0  0  0  0  0  0
   -2.5618   -2.1422    1.0975 H   0  0  0  0  0  0  0  0  0  0  0  0
   -2.5263   -0.4668    1.8651 H   0  0  0  0  0  0  0  0  0  0  0  0
   -2.2945    1.1451    0.6421 H   0  0  0  0  0  0  0  0  0  0  0  0
   -0.7374    2.0346    1.0016 H   0  0  0  0  0  0  0  0  0  0  0  0
   -2.3338    2.4936   -1.1011 H   0  0  0  0  0  0  0  0  0  0  0  0
  1  2  1  0
  2  3  1  0
  3  4  1  0
  4  5  1  0
  5  6  1  0
  6  7  1  0
  5  8  1  0
  8  9  1  0
  5  3  1  0
  1 10  1  0
  1 11  1  0
  1 12  1  0
  2 13  1  0
  2 14  1  0
  3 15  1  0
  4 16  1  0
  4 17  1  0
  6 18  1  0
  6 19  1  0
  7 20  1  0
  7 21  1  0
  7 22  1  0
  8 23  1  0
  8 24  1  0
  9 25  1  0
M  END
