
     RDKit          3D

 17 17  0  0  0  0  0  0  0  0999 V2000
   -2.5453    0.5022   -0.2735 C   0  0  0  0  0  0  0  0  0  0  0  0
   -1.4273   -0.5171   -0.0088 C   0  0  0  0  0  0  0  0  0  0  0  0
   -0.3315   -0.2441   -0.9751 C   0  0  0  0  0  0  0  0  0  0  0  0
    0.1661    1.1493   -0.7638 O   0  0  0  0  0  0  0  0  0  0  0  0
    1.0505   -0.0519   -0.7155 C   0  0  0  0  0  0  0  0  0  0  0  0
    1.6829   -0.1103    0.6041 C   0  0  0  0  0  0  0  0  0  0  0  0
    1.0408   -0.1079    1.6870 O   0  0  0  0  0  0  0  0  0  0  0  0
    3.1606   -0.1756    0.6592 C   0  0  0  0  0  0  0  0  0  0  0  0
    3.8587   -0.1812   -0.3860 O   0  0  0  0  0  0  0  0  0  0  0  0
   -2.2821    1.4782    0.1899 H   0  0  0  0  0  0  0  0  0  0  0  0
   -2.5858    0.6823   -1.3684 H   0  0  0  0  0  0  0  0  0  0  0  0
   -3.5231    0.1260    0.0313 H   0  0  0  0  0  0  0  0  0  0  0  0
   -1.1572   -0.4202    1.0584 H   0  0  0  0  0  0  0  0  0  0  0  0
   -1.8421   -1.5363   -0.2332 H   0  0  0  0  0  0  0  0  0  0  0  0
   -0.6673   -0.3174   -2.0397 H   0  0  0  0  0  0  0  0  0  0  0  0
    1.7397   -0.0562   -1.5912 H   0  0  0  0  0  0  0  0  0  0  0  0
    3.6624   -0.2197    1.6124 H   0  0  0  0  0  0  0  0  0  0  0  0
  1  2  1  0
  2  3  1  0
  3  4  1  0
  4  5  1  0
  5  6  1  0
  6  7  2  0
  6  8  1  0
  8  9  2  0
  5  3  1  0
  1 10  1  0
  1 11  1  0
  1 12  1  0
  2 13  1  0
  2 14  1  0
  3 15  1  0
  5 16  1  0
  8 17  1  0
M  END
