
     RDKit          3D

 21 22  0  0  0  0  0  0  0  0999 V2000
    2.4167    0.3490   -0.4181 C   0  0  0  0  0  0  0  0  0  0  0  0
    1.4581   -0.6238    0.1524 C   0  0  0  0  0  0  0  0  0  0  0  0
    0.1121   -0.0871    0.4748 C   0  0  0  0  0  0  0  0  0  0  0  0
   -0.9010   -1.0182    1.0533 C   0  0  0  0  0  0  0  0  0  0  0  0
   -1.9691   -0.2833    0.2787 C   0  0  0  0  0  0  0  0  0  0  0  0
   -2.7647   -1.0405   -0.5379 O   0  0  0  0  0  0  0  0  0  0  0  0
   -0.8573    0.4908   -0.4048 C   0  0  0  0  0  0  0  0  0  0  0  0
   -0.8118    0.5824   -1.7665 O   0  0  0  0  0  0  0  0  0  0  0  0
   -0.0629    1.3727    0.4882 C   0  0  0  0  0  0  0  0  0  0  0  0
    2.0178    1.0358   -1.1636 H   0  0  0  0  0  0  0  0  0  0  0  0
    2.9246    0.9865    0.3617 H   0  0  0  0  0  0  0  0  0  0  0  0
    3.2556   -0.2185   -0.9015 H   0  0  0  0  0  0  0  0  0  0  0  0
    1.3685   -1.5152   -0.5212 H   0  0  0  0  0  0  0  0  0  0  0  0
    1.8942   -1.0321    1.1049 H   0  0  0  0  0  0  0  0  0  0  0  0
   -0.7710   -2.0564    0.7177 H   0  0  0  0  0  0  0  0  0  0  0  0
   -1.0408   -0.9932    2.1508 H   0  0  0  0  0  0  0  0  0  0  0  0
   -2.5599    0.3637    0.9512 H   0  0  0  0  0  0  0  0  0  0  0  0
   -2.3653   -1.3443   -1.3696 H   0  0  0  0  0  0  0  0  0  0  0  0
   -1.4798    1.1936   -2.1150 H   0  0  0  0  0  0  0  0  0  0  0  0
    0.7637    1.9884    0.1330 H   0  0  0  0  0  0  0  0  0  0  0  0
   -0.6278    1.8498    1.3315 H   0  0  0  0  0  0  0  0  0  0  0  0
  1  2  1  0
  2  3  1  0
  3  4  1  0
  4  5  1  0
  5  6  1  0
  5  7  1  0
  7  8  1  0
  7  9  1  0
  7  3  1  0
  9  3  1  0
  1 10  1  0
  1 11  1  0
  1 12  1  0
  2 13  1  0
  2 14  1  0
  4 15  1  0
  4 16  1  0
  5 17  1  0
  6 18  1  0
  8 19  1  0
  9 20  1  0
  9 21  1  0
M  END
