
     RDKit          3D

 23 24  0  0  0  0  0  0  0  0999 V2000
    2.9244    0.5036   -0.3322 C   0  0  0  0  0  0  0  0  0  0  0  0
    1.9692    0.0814    0.7394 C   0  0  0  0  0  0  0  0  0  0  0  0
    0.6890   -0.4887    0.1981 C   0  0  0  0  0  0  0  0  0  0  0  0
   -0.2372   -0.8979    1.3257 C   0  0  0  0  0  0  0  0  0  0  0  0
   -1.5611   -1.0141    0.5606 C   0  0  0  0  0  0  0  0  0  0  0  0
   -1.4730    0.2299   -0.2999 C   0  0  0  0  0  0  0  0  0  0  0  0
   -2.7242    0.6101   -0.9955 C   0  0  0  0  0  0  0  0  0  0  0  0
   -0.9471    1.3755    0.4786 O   0  0  0  0  0  0  0  0  0  0  0  0
   -0.1674    0.5777   -0.4780 C   0  0  0  0  0  0  0  0  0  0  0  0
    3.8316    0.9240    0.1478 H   0  0  0  0  0  0  0  0  0  0  0  0
    2.5160    1.2965   -0.9912 H   0  0  0  0  0  0  0  0  0  0  0  0
    3.2215   -0.3906   -0.9221 H   0  0  0  0  0  0  0  0  0  0  0  0
    2.4588   -0.7214    1.3280 H   0  0  0  0  0  0  0  0  0  0  0  0
    1.7558    0.9127    1.4312 H   0  0  0  0  0  0  0  0  0  0  0  0
    0.8243   -1.3555   -0.4452 H   0  0  0  0  0  0  0  0  0  0  0  0
   -0.3548   -0.0546    2.0426 H   0  0  0  0  0  0  0  0  0  0  0  0
    0.0513   -1.8362    1.7997 H   0  0  0  0  0  0  0  0  0  0  0  0
   -1.4741   -1.9067   -0.0927 H   0  0  0  0  0  0  0  0  0  0  0  0
   -2.4249   -1.0284    1.2248 H   0  0  0  0  0  0  0  0  0  0  0  0
   -2.8889   -0.0159   -1.8985 H   0  0  0  0  0  0  0  0  0  0  0  0
   -3.5816    0.3998   -0.3201 H   0  0  0  0  0  0  0  0  0  0  0  0
   -2.6670    1.6489   -1.3237 H   0  0  0  0  0  0  0  0  0  0  0  0
    0.2595    1.1499   -1.3082 H   0  0  0  0  0  0  0  0  0  0  0  0
  1  2  1  0
  2  3  1  0
  3  4  1  0
  4  5  1  0
  5  6  1  0
  6  7  1  0
  6  8  1  0
  8  9  1  0
  9  3  1  0
  9  6  1  0
  1 10  1  0
  1 11  1  0
  1 12  1  0
  2 13  1  0
  2 14  1  0
  3 15  1  0
  4 16  1  0
  4 17  1  0
  5 18  1  0
  5 19  1  0
  7 20  1  0
  7 21  1  0
  7 22  1  0
  9 23  1  0
M  END
