
     RDKit          3D

 20 20  0  0  0  0  0  0  0  0999 V2000
   -2.4956    0.6645   -1.2472 C   0  0  0  0  0  0  0  0  0  0  0  0
   -1.9399   -0.6685   -0.7277 C   0  0  0  0  0  0  0  0  0  0  0  0
   -0.7190   -0.3135    0.0923 C   0  0  0  0  0  0  0  0  0  0  0  0
   -0.1081   -1.4468    0.6310 O   0  0  0  0  0  0  0  0  0  0  0  0
    1.1321   -0.8866    0.9977 C   0  0  0  0  0  0  0  0  0  0  0  0
    1.4761   -0.1717   -0.3102 C   0  0  0  0  0  0  0  0  0  0  0  0
    2.5018    0.8835   -0.0095 C   0  0  0  0  0  0  0  0  0  0  0  0
    0.2397    0.3451   -0.6631 O   0  0  0  0  0  0  0  0  0  0  0  0
   -3.3786    0.4979   -1.8726 H   0  0  0  0  0  0  0  0  0  0  0  0
   -2.7035    1.3133   -0.3534 H   0  0  0  0  0  0  0  0  0  0  0  0
   -1.6443    1.1180   -1.8220 H   0  0  0  0  0  0  0  0  0  0  0  0
   -2.6895   -1.1290   -0.0858 H   0  0  0  0  0  0  0  0  0  0  0  0
   -1.6505   -1.2678   -1.6136 H   0  0  0  0  0  0  0  0  0  0  0  0
   -0.9813    0.3410    0.9477 H   0  0  0  0  0  0  0  0  0  0  0  0
    1.8675   -1.6311    1.2796 H   0  0  0  0  0  0  0  0  0  0  0  0
    0.9695   -0.0819    1.7411 H   0  0  0  0  0  0  0  0  0  0  0  0
    1.8377   -0.9251   -1.0290 H   0  0  0  0  0  0  0  0  0  0  0  0
    3.4180    0.3645    0.3321 H   0  0  0  0  0  0  0  0  0  0  0  0
    2.7249    1.4932   -0.8991 H   0  0  0  0  0  0  0  0  0  0  0  0
    2.1428    1.5009    0.8358 H   0  0  0  0  0  0  0  0  0  0  0  0
  1  2  1  0
  2  3  1  0
  3  4  1  0
  4  5  1  0
  5  6  1  0
  6  7  1  0
  6  8  1  0
  8  3  1  0
  1  9  1  0
  1 10  1  0
  1 11  1  0
  2 12  1  0
  2 13  1  0
  3 14  1  0
  5 15  1  0
  5 16  1  0
  6 17  1  0
  7 18  1  0
  7 19  1  0
  7 20  1  0
M  END
