
     RDKit          3D

 21 22  0  0  0  0  0  0  0  0999 V2000
    2.2925    0.5706   -0.2204 C   0  0  0  0  0  0  0  0  0  0  0  0
    1.4296   -0.5200    0.3769 C   0  0  0  0  0  0  0  0  0  0  0  0
    0.0948   -0.4646   -0.3003 C   0  0  0  0  0  0  0  0  0  0  0  0
    0.1282   -0.6536   -1.6544 O   0  0  0  0  0  0  0  0  0  0  0  0
   -0.8836   -1.4891    0.2765 C   0  0  0  0  0  0  0  0  0  0  0  0
   -2.0562   -1.0388   -0.3467 O   0  0  0  0  0  0  0  0  0  0  0  0
   -2.1045    0.2957   -0.0354 C   0  0  0  0  0  0  0  0  0  0  0  0
   -1.6085    1.3324   -0.9725 C   0  0  0  0  0  0  0  0  0  0  0  0
   -0.6708    0.7990    0.0235 C   0  0  0  0  0  0  0  0  0  0  0  0
    2.8949    0.1310   -1.0494 H   0  0  0  0  0  0  0  0  0  0  0  0
    1.6533    1.3580   -0.6208 H   0  0  0  0  0  0  0  0  0  0  0  0
    2.9371    1.0321    0.5577 H   0  0  0  0  0  0  0  0  0  0  0  0
    1.9039   -1.5075    0.3004 H   0  0  0  0  0  0  0  0  0  0  0  0
    1.2537   -0.2497    1.4546 H   0  0  0  0  0  0  0  0  0  0  0  0
    0.8970   -1.1704   -1.9740 H   0  0  0  0  0  0  0  0  0  0  0  0
   -0.6211   -2.5115    0.0269 H   0  0  0  0  0  0  0  0  0  0  0  0
   -0.9293   -1.2805    1.3641 H   0  0  0  0  0  0  0  0  0  0  0  0
   -2.7974    0.5684    0.7627 H   0  0  0  0  0  0  0  0  0  0  0  0
   -1.9953    2.3568   -0.8107 H   0  0  0  0  0  0  0  0  0  0  0  0
   -1.3833    1.1097   -2.0301 H   0  0  0  0  0  0  0  0  0  0  0  0
   -0.4352    1.3321    0.9672 H   0  0  0  0  0  0  0  0  0  0  0  0
  1  2  1  0
  2  3  1  0
  3  4  1  0
  3  5  1  0
  5  6  1  0
  6  7  1  0
  7  8  1  0
  8  9  1  0
  9  3  1  0
  9  7  1  0
  1 10  1  0
  1 11  1  0
  1 12  1  0
  2 13  1  0
  2 14  1  0
  4 15  1  0
  5 16  1  0
  5 17  1  0
  7 18  1  0
  8 19  1  0
  8 20  1  0
  9 21  1  0
M  END
