
     RDKit          3D

 20 21  0  0  0  0  0  0  0  0999 V2000
    2.1954    0.1661   -0.2559 C   0  0  0  0  0  0  0  0  0  0  0  0
    1.2038   -0.3446    0.7922 C   0  0  0  0  0  0  0  0  0  0  0  0
   -0.0914   -0.2493    0.3582 C   0  0  0  0  0  0  0  0  0  0  0  0
   -1.3476   -0.6317    1.0609 C   0  0  0  0  0  0  0  0  0  0  0  0
   -1.8240   -0.1164   -0.2757 C   0  0  0  0  0  0  0  0  0  0  0  0
   -0.6853   -0.9111   -0.8580 C   0  0  0  0  0  0  0  0  0  0  0  0
   -0.8166    0.9864   -0.0911 C   0  0  0  0  0  0  0  0  0  0  0  0
   -0.3876    1.5395   -1.2771 O   0  0  0  0  0  0  0  0  0  0  0  0
    1.9802    1.2432   -0.4026 H   0  0  0  0  0  0  0  0  0  0  0  0
    3.2311   -0.0113    0.0398 H   0  0  0  0  0  0  0  0  0  0  0  0
    1.9944   -0.3654   -1.2047 H   0  0  0  0  0  0  0  0  0  0  0  0
    1.5178   -1.4053    0.9779 H   0  0  0  0  0  0  0  0  0  0  0  0
    1.4107    0.2360    1.7106 H   0  0  0  0  0  0  0  0  0  0  0  0
   -1.6960    0.0108    1.8709 H   0  0  0  0  0  0  0  0  0  0  0  0
   -1.4198   -1.7147    1.2123 H   0  0  0  0  0  0  0  0  0  0  0  0
   -2.7613   -0.0490   -0.6058 H   0  0  0  0  0  0  0  0  0  0  0  0
   -0.3037   -0.5945   -1.8304 H   0  0  0  0  0  0  0  0  0  0  0  0
   -0.7688   -2.0102   -0.6878 H   0  0  0  0  0  0  0  0  0  0  0  0
   -1.0609    1.6829    0.7214 H   0  0  0  0  0  0  0  0  0  0  0  0
   -0.3706    2.5385   -1.2550 H   0  0  0  0  0  0  0  0  0  0  0  0
  1  2  1  0
  2  3  1  0
  3  4  1  0
  4  5  1  0
  5  6  1  0
  5  7  1  0
  7  8  1  0
  6  3  1  0
  7  3  1  0
  1  9  1  0
  1 10  1  0
  1 11  1  0
  2 12  1  0
  2 13  1  0
  4 14  1  0
  4 15  1  0
  5 16  1  0
  6 17  1  0
  6 18  1  0
  7 19  1  0
  8 20  1  0
M  END
