
     RDKit          3D

 19 19  0  0  0  0  0  0  0  0999 V2000
   -2.4451    0.5745   -0.1091 C   0  0  0  0  0  0  0  0  0  0  0  0
   -1.5979   -0.6406    0.1653 C   0  0  0  0  0  0  0  0  0  0  0  0
   -0.1587   -0.3039    0.3061 C   0  0  0  0  0  0  0  0  0  0  0  0
    0.1801    0.9688    0.1774 C   0  0  0  0  0  0  0  0  0  0  0  0
    1.6000    1.2729    0.3200 C   0  0  0  0  0  0  0  0  0  0  0  0
    1.9675    2.4389    0.5176 O   0  0  0  0  0  0  0  0  0  0  0  0
    2.5048    0.0983    0.2087 C   0  0  0  0  0  0  0  0  0  0  0  0
    2.0574   -1.0130    0.8693 O   0  0  0  0  0  0  0  0  0  0  0  0
    0.7732   -1.3986    0.5753 C   0  0  0  0  0  0  0  0  0  0  0  0
   -3.4949    0.2196   -0.1983 H   0  0  0  0  0  0  0  0  0  0  0  0
   -2.3527    1.2708    0.7491 H   0  0  0  0  0  0  0  0  0  0  0  0
   -2.1420    1.0566   -1.0531 H   0  0  0  0  0  0  0  0  0  0  0  0
   -1.7375   -1.4167   -0.6149 H   0  0  0  0  0  0  0  0  0  0  0  0
   -1.9206   -1.1016    1.1267 H   0  0  0  0  0  0  0  0  0  0  0  0
   -0.5300    1.7640   -0.0224 H   0  0  0  0  0  0  0  0  0  0  0  0
    2.6553   -0.0997   -0.8821 H   0  0  0  0  0  0  0  0  0  0  0  0
    3.4717    0.4040    0.6938 H   0  0  0  0  0  0  0  0  0  0  0  0
    0.7842   -2.1508   -0.2458 H   0  0  0  0  0  0  0  0  0  0  0  0
    0.3851   -1.9437    1.4856 H   0  0  0  0  0  0  0  0  0  0  0  0
  1  2  1  0
  2  3  1  0
  3  4  2  0
  4  5  1  0
  5  6  2  0
  5  7  1  0
  7  8  1  0
  8  9  1  0
  9  3  1  0
  1 10  1  0
  1 11  1  0
  1 12  1  0
  2 13  1  0
  2 14  1  0
  4 15  1  0
  7 16  1  0
  7 17  1  0
  9 18  1  0
  9 19  1  0
M  END
