
     RDKit          3D

 17 17  0  0  0  0  0  0  0  0999 V2000
   -2.4370   -0.2674    0.0839 C   0  0  0  0  0  0  0  0  0  0  0  0
   -1.2545    0.5044   -0.5068 C   0  0  0  0  0  0  0  0  0  0  0  0
   -0.0981   -0.4492   -0.7729 C   0  0  0  0  0  0  0  0  0  0  0  0
    1.0096    0.1846   -1.3123 O   0  0  0  0  0  0  0  0  0  0  0  0
    1.4345    0.4226   -0.0170 C   0  0  0  0  0  0  0  0  0  0  0  0
    2.9081    0.4090    0.1737 C   0  0  0  0  0  0  0  0  0  0  0  0
    3.6767    0.2063   -0.7288 O   0  0  0  0  0  0  0  0  0  0  0  0
    0.7323   -0.8064    0.3939 C   0  0  0  0  0  0  0  0  0  0  0  0
    0.8680   -1.6231    1.2767 O   0  0  0  0  0  0  0  0  0  0  0  0
   -2.3804   -1.3137   -0.2614 H   0  0  0  0  0  0  0  0  0  0  0  0
   -2.3895   -0.2661    1.1923 H   0  0  0  0  0  0  0  0  0  0  0  0
   -3.3926    0.2306   -0.1840 H   0  0  0  0  0  0  0  0  0  0  0  0
   -1.5819    0.9456   -1.4708 H   0  0  0  0  0  0  0  0  0  0  0  0
   -0.9812    1.3006    0.2068 H   0  0  0  0  0  0  0  0  0  0  0  0
   -0.4136   -1.3731   -1.3138 H   0  0  0  0  0  0  0  0  0  0  0  0
    1.0000    1.3064    0.4898 H   0  0  0  0  0  0  0  0  0  0  0  0
    3.2994    0.5889    1.1646 H   0  0  0  0  0  0  0  0  0  0  0  0
  1  2  1  0
  2  3  1  0
  3  4  1  0
  4  5  1  0
  5  6  1  0
  6  7  2  0
  5  8  1  0
  8  9  2  0
  8  3  1  0
  1 10  1  0
  1 11  1  0
  1 12  1  0
  2 13  1  0
  2 14  1  0
  3 15  1  0
  5 16  1  0
  6 17  1  0
M  END
