
     RDKit          3D

 25 25  0  0  0  0  0  0  0  0999 V2000
    2.9329    0.9874   -0.1174 C   0  0  0  0  0  0  0  0  0  0  0  0
    2.4468   -0.4456   -0.0724 C   0  0  0  0  0  0  0  0  0  0  0  0
    0.9323   -0.4688   -0.0428 C   0  0  0  0  0  0  0  0  0  0  0  0
    0.1402    0.5904   -0.0541 C   0  0  0  0  0  0  0  0  0  0  0  0
   -1.3086    0.1991   -0.0186 C   0  0  0  0  0  0  0  0  0  0  0  0
   -2.0381    1.0997   -0.9595 C   0  0  0  0  0  0  0  0  0  0  0  0
   -1.8642    0.1691    1.3695 C   0  0  0  0  0  0  0  0  0  0  0  0
   -1.2204   -1.2219   -0.6157 C   0  0  0  0  0  0  0  0  0  0  0  0
    0.0719   -1.6674    0.0192 C   0  0  0  0  0  0  0  0  0  0  0  0
    2.3299    1.5207   -0.8639 H   0  0  0  0  0  0  0  0  0  0  0  0
    3.9843    0.9580   -0.4551 H   0  0  0  0  0  0  0  0  0  0  0  0
    2.8895    1.4239    0.8956 H   0  0  0  0  0  0  0  0  0  0  0  0
    2.8328   -0.9490   -0.9764 H   0  0  0  0  0  0  0  0  0  0  0  0
    2.8215   -0.9822    0.8013 H   0  0  0  0  0  0  0  0  0  0  0  0
    0.4466    1.6383   -0.0849 H   0  0  0  0  0  0  0  0  0  0  0  0
   -1.7079    0.8586   -1.9957 H   0  0  0  0  0  0  0  0  0  0  0  0
   -1.7006    2.1411   -0.7685 H   0  0  0  0  0  0  0  0  0  0  0  0
   -3.1410    1.0736   -0.8494 H   0  0  0  0  0  0  0  0  0  0  0  0
   -1.3389    0.9016    2.0480 H   0  0  0  0  0  0  0  0  0  0  0  0
   -1.7727   -0.8736    1.7513 H   0  0  0  0  0  0  0  0  0  0  0  0
   -2.9369    0.4980    1.3464 H   0  0  0  0  0  0  0  0  0  0  0  0
   -1.0795   -1.1783   -1.6978 H   0  0  0  0  0  0  0  0  0  0  0  0
   -2.0911   -1.8258   -0.3086 H   0  0  0  0  0  0  0  0  0  0  0  0
    0.5153   -2.5422   -0.4999 H   0  0  0  0  0  0  0  0  0  0  0  0
   -0.1444   -1.9048    1.0833 H   0  0  0  0  0  0  0  0  0  0  0  0
  1  2  1  0
  2  3  1  0
  3  4  2  0
  4  5  1  0
  5  6  1  0
  5  7  1  0
  5  8  1  0
  8  9  1  0
  9  3  1  0
  1 10  1  0
  1 11  1  0
  1 12  1  0
  2 13  1  0
  2 14  1  0
  4 15  1  0
  6 16  1  0
  6 17  1  0
  6 18  1  0
  7 19  1  0
  7 20  1  0
  7 21  1  0
  8 22  1  0
  8 23  1  0
  9 24  1  0
  9 25  1  0
M  END
