
     RDKit          3D

 21 23  0  0  0  0  0  0  0  0999 V2000
    2.4749   -0.9765   -0.0668 C   0  0  0  0  0  0  0  0  0  0  0  0
    1.6319    0.1742    0.3753 C   0  0  0  0  0  0  0  0  0  0  0  0
    0.2193   -0.2306    0.7180 C   0  0  0  0  0  0  0  0  0  0  0  0
   -0.5030   -0.8510   -0.4468 C   0  0  0  0  0  0  0  0  0  0  0  0
   -1.8971   -0.2383   -0.4738 C   0  0  0  0  0  0  0  0  0  0  0  0
   -1.8203    1.0014   -1.1196 O   0  0  0  0  0  0  0  0  0  0  0  0
   -1.4800    1.6209    0.0679 C   0  0  0  0  0  0  0  0  0  0  0  0
   -0.6341    0.9603    1.0871 C   0  0  0  0  0  0  0  0  0  0  0  0
   -1.9924    0.4818    0.8175 C   0  0  0  0  0  0  0  0  0  0  0  0
    2.4877   -1.1017   -1.1738 H   0  0  0  0  0  0  0  0  0  0  0  0
    2.1907   -1.9190    0.4514 H   0  0  0  0  0  0  0  0  0  0  0  0
    3.5266   -0.7726    0.2235 H   0  0  0  0  0  0  0  0  0  0  0  0
    2.0886    0.5861    1.3045 H   0  0  0  0  0  0  0  0  0  0  0  0
    1.6660    0.9626   -0.3740 H   0  0  0  0  0  0  0  0  0  0  0  0
    0.2171   -0.9601    1.5536 H   0  0  0  0  0  0  0  0  0  0  0  0
    0.0219   -0.5522   -1.3971 H   0  0  0  0  0  0  0  0  0  0  0  0
   -0.5143   -1.9424   -0.4383 H   0  0  0  0  0  0  0  0  0  0  0  0
   -2.7004   -0.8966   -0.7819 H   0  0  0  0  0  0  0  0  0  0  0  0
   -1.8273    2.6335    0.2420 H   0  0  0  0  0  0  0  0  0  0  0  0
   -0.3394    1.5676    1.9419 H   0  0  0  0  0  0  0  0  0  0  0  0
   -2.8164    0.4524    1.4923 H   0  0  0  0  0  0  0  0  0  0  0  0
  1  2  1  0
  2  3  1  0
  3  4  1  0
  4  5  1  0
  5  6  1  0
  6  7  1  0
  7  8  1  0
  8  9  1  0
  8  3  1  0
  9  5  1  0
  9  7  1  0
  1 10  1  0
  1 11  1  0
  1 12  1  0
  2 13  1  0
  2 14  1  0
  3 15  1  0
  4 16  1  0
  4 17  1  0
  5 18  1  0
  7 19  1  0
  8 20  1  0
  9 21  1  0
M  END
