
     RDKit          3D

 21 22  0  0  0  0  0  0  0  0999 V2000
   -2.8599   -0.4147    0.5454 C   0  0  0  0  0  0  0  0  0  0  0  0
   -1.6724    0.5061    0.7818 C   0  0  0  0  0  0  0  0  0  0  0  0
   -0.7543    0.5667   -0.4095 C   0  0  0  0  0  0  0  0  0  0  0  0
   -0.1519   -0.7448   -0.8194 C   0  0  0  0  0  0  0  0  0  0  0  0
    0.5513   -0.7849   -2.0155 O   0  0  0  0  0  0  0  0  0  0  0  0
    1.4475    0.1869   -1.5550 C   0  0  0  0  0  0  0  0  0  0  0  0
    0.6956    0.3582   -0.2909 C   0  0  0  0  0  0  0  0  0  0  0  0
    1.2627    0.1872    0.9459 O   0  0  0  0  0  0  0  0  0  0  0  0
    2.6193    0.0008    0.9416 C   0  0  0  0  0  0  0  0  0  0  0  0
   -3.2522   -0.3299   -0.4925 H   0  0  0  0  0  0  0  0  0  0  0  0
   -3.6644   -0.0544    1.2185 H   0  0  0  0  0  0  0  0  0  0  0  0
   -2.5810   -1.4691    0.7527 H   0  0  0  0  0  0  0  0  0  0  0  0
   -2.0868    1.5296    0.9264 H   0  0  0  0  0  0  0  0  0  0  0  0
   -1.1684    0.1971    1.6966 H   0  0  0  0  0  0  0  0  0  0  0  0
   -1.0924    1.1783   -1.2744 H   0  0  0  0  0  0  0  0  0  0  0  0
   -0.2444   -1.6327   -0.1955 H   0  0  0  0  0  0  0  0  0  0  0  0
    2.4586   -0.2076   -1.5227 H   0  0  0  0  0  0  0  0  0  0  0  0
    1.4364    1.1331   -2.1519 H   0  0  0  0  0  0  0  0  0  0  0  0
    2.9277   -0.9105    0.3540 H   0  0  0  0  0  0  0  0  0  0  0  0
    2.9467   -0.2032    1.9819 H   0  0  0  0  0  0  0  0  0  0  0  0
    3.1824    0.9076    0.5825 H   0  0  0  0  0  0  0  0  0  0  0  0
  1  2  1  0
  2  3  1  0
  3  4  1  0
  4  5  1  0
  5  6  1  0
  6  7  1  0
  7  8  1  0
  8  9  1  0
  7  3  1  0
  7  4  1  0
  1 10  1  0
  1 11  1  0
  1 12  1  0
  2 13  1  0
  2 14  1  0
  3 15  1  0
  4 16  1  0
  6 17  1  0
  6 18  1  0
  9 19  1  0
  9 20  1  0
  9 21  1  0
M  END
