
     RDKit          3D

 21 23  0  0  0  0  0  0  0  0999 V2000
    2.5462   -0.4539    0.0544 C   0  0  0  0  0  0  0  0  0  0  0  0
    1.4636    0.2927   -0.7202 C   0  0  0  0  0  0  0  0  0  0  0  0
    0.1496   -0.0426   -0.0456 C   0  0  0  0  0  0  0  0  0  0  0  0
   -0.2620   -1.4652    0.0094 C   0  0  0  0  0  0  0  0  0  0  0  0
   -1.0323   -0.4577   -0.8030 C   0  0  0  0  0  0  0  0  0  0  0  0
   -2.2546    0.1346   -0.1708 C   0  0  0  0  0  0  0  0  0  0  0  0
   -1.7501    1.2350    0.7243 C   0  0  0  0  0  0  0  0  0  0  0  0
   -0.8361    2.1605    0.2069 O   0  0  0  0  0  0  0  0  0  0  0  0
   -0.3646    0.9626    0.9448 C   0  0  0  0  0  0  0  0  0  0  0  0
    3.2915   -0.9092   -0.6469 H   0  0  0  0  0  0  0  0  0  0  0  0
    3.1119    0.2810    0.6921 H   0  0  0  0  0  0  0  0  0  0  0  0
    2.1219   -1.1929    0.7556 H   0  0  0  0  0  0  0  0  0  0  0  0
    1.4641   -0.0289   -1.8011 H   0  0  0  0  0  0  0  0  0  0  0  0
    1.6516    1.3808   -0.6443 H   0  0  0  0  0  0  0  0  0  0  0  0
   -0.7861   -1.8771    0.8888 H   0  0  0  0  0  0  0  0  0  0  0  0
    0.4116   -2.1737   -0.5197 H   0  0  0  0  0  0  0  0  0  0  0  0
   -1.0311   -0.5202   -1.9094 H   0  0  0  0  0  0  0  0  0  0  0  0
   -3.0166    0.4732   -0.8940 H   0  0  0  0  0  0  0  0  0  0  0  0
   -2.7043   -0.6470    0.5010 H   0  0  0  0  0  0  0  0  0  0  0  0
   -2.3727    1.6430    1.5236 H   0  0  0  0  0  0  0  0  0  0  0  0
    0.1985    1.2050    1.8543 H   0  0  0  0  0  0  0  0  0  0  0  0
  1  2  1  0
  2  3  1  0
  3  4  1  0
  4  5  1  0
  5  6  1  0
  6  7  1  0
  7  8  1  0
  8  9  1  0
  5  3  1  0
  9  7  1  0
  9  3  1  0
  1 10  1  0
  1 11  1  0
  1 12  1  0
  2 13  1  0
  2 14  1  0
  4 15  1  0
  4 16  1  0
  5 17  1  0
  6 18  1  0
  6 19  1  0
  7 20  1  0
  9 21  1  0
M  END
