
     RDKit          3D

 19 19  0  0  0  0  0  0  0  0999 V2000
   -1.3407    1.5213   -0.9755 C   0  0  0  0  0  0  0  0  0  0  0  0
   -1.5160    0.1079   -0.4352 C   0  0  0  0  0  0  0  0  0  0  0  0
   -0.1850   -0.5563   -0.2129 C   0  0  0  0  0  0  0  0  0  0  0  0
    0.7242    0.1017    0.7367 C   0  0  0  0  0  0  0  0  0  0  0  0
    1.4849    0.6593    1.5080 C   0  0  0  0  0  0  0  0  0  0  0  0
    2.3843    1.3158    2.3866 C   0  0  0  0  0  0  0  0  0  0  0  0
    2.8881    0.7021    3.3641 O   0  0  0  0  0  0  0  0  0  0  0  0
   -0.2475   -2.0692   -0.2035 C   0  0  0  0  0  0  0  0  0  0  0  0
    0.4418   -1.3642   -1.3118 C   0  0  0  0  0  0  0  0  0  0  0  0
   -0.6107    2.0688   -0.3149 H   0  0  0  0  0  0  0  0  0  0  0  0
   -0.8790    1.4653   -1.9746 H   0  0  0  0  0  0  0  0  0  0  0  0
   -2.2964    2.0777   -0.9589 H   0  0  0  0  0  0  0  0  0  0  0  0
   -2.1042    0.1505    0.5228 H   0  0  0  0  0  0  0  0  0  0  0  0
   -2.0690   -0.4929   -1.1882 H   0  0  0  0  0  0  0  0  0  0  0  0
    2.6873    2.3597    2.2757 H   0  0  0  0  0  0  0  0  0  0  0  0
   -1.2303   -2.5650   -0.4220 H   0  0  0  0  0  0  0  0  0  0  0  0
    0.3632   -2.6370    0.5092 H   0  0  0  0  0  0  0  0  0  0  0  0
    1.5524   -1.4319   -1.3203 H   0  0  0  0  0  0  0  0  0  0  0  0
   -0.0475   -1.4135   -2.3034 H   0  0  0  0  0  0  0  0  0  0  0  0
  1  2  1  0
  2  3  1  0
  3  4  1  0
  4  5  3  0
  5  6  1  0
  6  7  2  0
  3  8  1  0
  8  9  1  0
  9  3  1  0
  1 10  1  0
  1 11  1  0
  1 12  1  0
  2 13  1  0
  2 14  1  0
  6 15  1  0
  8 16  1  0
  8 17  1  0
  9 18  1  0
  9 19  1  0
M  END
