
     RDKit          3D

 27 27  0  0  0  0  0  0  0  0999 V2000
   -2.7408   -1.1945   -0.4240 C   0  0  0  0  0  0  0  0  0  0  0  0
   -1.9810    0.0385   -0.0860 C   0  0  0  0  0  0  0  0  0  0  0  0
   -0.4869   -0.0929   -0.2524 C   0  0  0  0  0  0  0  0  0  0  0  0
    0.1266   -1.1510    0.5920 C   0  0  0  0  0  0  0  0  0  0  0  0
    1.5687   -0.6913    0.7343 C   0  0  0  0  0  0  0  0  0  0  0  0
    2.4114   -1.1739   -0.4300 C   0  0  0  0  0  0  0  0  0  0  0  0
    1.5147    0.8148    0.7706 C   0  0  0  0  0  0  0  0  0  0  0  0
    0.1180    1.1823    0.3504 C   0  0  0  0  0  0  0  0  0  0  0  0
    0.0512    2.3129   -0.6132 C   0  0  0  0  0  0  0  0  0  0  0  0
   -2.1532   -1.9262   -1.0179 H   0  0  0  0  0  0  0  0  0  0  0  0
   -3.6324   -0.9404   -1.0306 H   0  0  0  0  0  0  0  0  0  0  0  0
   -3.1487   -1.6722    0.5114 H   0  0  0  0  0  0  0  0  0  0  0  0
   -2.2971    0.8598   -0.7897 H   0  0  0  0  0  0  0  0  0  0  0  0
   -2.2614    0.4037    0.9219 H   0  0  0  0  0  0  0  0  0  0  0  0
   -0.1927   -0.2085   -1.3048 H   0  0  0  0  0  0  0  0  0  0  0  0
    0.0420   -2.1663    0.2082 H   0  0  0  0  0  0  0  0  0  0  0  0
   -0.3211   -1.0685    1.6174 H   0  0  0  0  0  0  0  0  0  0  0  0
    2.0150   -1.1162    1.6546 H   0  0  0  0  0  0  0  0  0  0  0  0
    2.1181   -0.7107   -1.3826 H   0  0  0  0  0  0  0  0  0  0  0  0
    3.4539   -0.8916   -0.2145 H   0  0  0  0  0  0  0  0  0  0  0  0
    2.3471   -2.2833   -0.4518 H   0  0  0  0  0  0  0  0  0  0  0  0
    1.6748    1.1308    1.8251 H   0  0  0  0  0  0  0  0  0  0  0  0
    2.2870    1.2818    0.1276 H   0  0  0  0  0  0  0  0  0  0  0  0
   -0.4895    1.4178    1.2540 H   0  0  0  0  0  0  0  0  0  0  0  0
    0.9515    2.4322   -1.2473 H   0  0  0  0  0  0  0  0  0  0  0  0
   -0.1618    3.2473   -0.0288 H   0  0  0  0  0  0  0  0  0  0  0  0
   -0.8135    2.1655   -1.2939 H   0  0  0  0  0  0  0  0  0  0  0  0
  1  2  1  0
  2  3  1  0
  3  4  1  0
  4  5  1  0
  5  6  1  0
  5  7  1  0
  7  8  1  0
  8  9  1  0
  8  3  1  0
  1 10  1  0
  1 11  1  0
  1 12  1  0
  2 13  1  0
  2 14  1  0
  3 15  1  0
  4 16  1  0
  4 17  1  0
  5 18  1  0
  6 19  1  0
  6 20  1  0
  6 21  1  0
  7 22  1  0
  7 23  1  0
  8 24  1  0
  9 25  1  0
  9 26  1  0
  9 27  1  0
M  END
