
     RDKit          3D

 23 24  0  0  0  0  0  0  0  0999 V2000
    2.6284    0.4334   -1.0604 C   0  0  0  0  0  0  0  0  0  0  0  0
    1.8776   -0.4878   -0.1150 C   0  0  0  0  0  0  0  0  0  0  0  0
    0.5297   -0.2396   -0.1067 C   0  0  0  0  0  0  0  0  0  0  0  0
   -0.1829    1.0172    0.2562 C   0  0  0  0  0  0  0  0  0  0  0  0
   -1.2985    0.0529   -0.0603 C   0  0  0  0  0  0  0  0  0  0  0  0
   -2.6418    0.2731   -0.0495 C   0  0  0  0  0  0  0  0  0  0  0  0
   -0.4373   -0.3737   -1.2349 C   0  0  0  0  0  0  0  0  0  0  0  0
   -0.5059   -0.9594    0.7305 C   0  0  0  0  0  0  0  0  0  0  0  0
   -0.4298   -0.7564    2.0840 O   0  0  0  0  0  0  0  0  0  0  0  0
    2.6721   -0.0970   -2.0418 H   0  0  0  0  0  0  0  0  0  0  0  0
    3.6705    0.6277   -0.6960 H   0  0  0  0  0  0  0  0  0  0  0  0
    2.0848    1.3840   -1.1064 H   0  0  0  0  0  0  0  0  0  0  0  0
    2.1193   -1.5539   -0.3632 H   0  0  0  0  0  0  0  0  0  0  0  0
    2.3520   -0.3290    0.8888 H   0  0  0  0  0  0  0  0  0  0  0  0
   -0.0729    1.7894   -0.5322 H   0  0  0  0  0  0  0  0  0  0  0  0
   -0.1201    1.3588    1.2960 H   0  0  0  0  0  0  0  0  0  0  0  0
   -2.9620    1.3537   -0.0595 H   0  0  0  0  0  0  0  0  0  0  0  0
   -3.2042   -0.1710   -0.9249 H   0  0  0  0  0  0  0  0  0  0  0  0
   -3.1909   -0.1500    0.8443 H   0  0  0  0  0  0  0  0  0  0  0  0
   -0.3117    0.4510   -1.9762 H   0  0  0  0  0  0  0  0  0  0  0  0
   -0.6258   -1.3699   -1.6350 H   0  0  0  0  0  0  0  0  0  0  0  0
   -0.7160   -1.9834    0.3803 H   0  0  0  0  0  0  0  0  0  0  0  0
   -1.2345   -0.2702    2.3825 H   0  0  0  0  0  0  0  0  0  0  0  0
  1  2  1  0
  2  3  1  0
  3  4  1  0
  4  5  1  0
  5  6  1  0
  5  7  1  0
  5  8  1  0
  8  9  1  0
  7  3  1  0
  8  3  1  0
  1 10  1  0
  1 11  1  0
  1 12  1  0
  2 13  1  0
  2 14  1  0
  4 15  1  0
  4 16  1  0
  6 17  1  0
  6 18  1  0
  6 19  1  0
  7 20  1  0
  7 21  1  0
  8 22  1  0
  9 23  1  0
M  END
