
     RDKit          3D

 23 24  0  0  0  0  0  0  0  0999 V2000
   -2.6395    0.6805   -0.6075 C   0  0  0  0  0  0  0  0  0  0  0  0
   -2.2924   -0.4193    0.3658 C   0  0  0  0  0  0  0  0  0  0  0  0
   -0.8221   -0.4508    0.6993 C   0  0  0  0  0  0  0  0  0  0  0  0
    0.2062   -0.6541   -0.3164 C   0  0  0  0  0  0  0  0  0  0  0  0
    1.4682   -1.3935    0.0600 C   0  0  0  0  0  0  0  0  0  0  0  0
    2.6085   -0.4659   -0.1797 C   0  0  0  0  0  0  0  0  0  0  0  0
    2.5222    0.7409    0.3721 C   0  0  0  0  0  0  0  0  0  0  0  0
    1.2849    1.0147    1.1673 C   0  0  0  0  0  0  0  0  0  0  0  0
    0.0639    0.6795    0.3272 C   0  0  0  0  0  0  0  0  0  0  0  0
   -2.4237    1.6936   -0.1864 H   0  0  0  0  0  0  0  0  0  0  0  0
   -2.1668    0.5559   -1.5852 H   0  0  0  0  0  0  0  0  0  0  0  0
   -3.7366    0.6453   -0.7682 H   0  0  0  0  0  0  0  0  0  0  0  0
   -2.9086   -0.3096    1.2719 H   0  0  0  0  0  0  0  0  0  0  0  0
   -2.5396   -1.3795   -0.1332 H   0  0  0  0  0  0  0  0  0  0  0  0
   -0.6173   -0.8871    1.7112 H   0  0  0  0  0  0  0  0  0  0  0  0
    0.0028   -0.6684   -1.4034 H   0  0  0  0  0  0  0  0  0  0  0  0
    1.4215   -1.6964    1.1281 H   0  0  0  0  0  0  0  0  0  0  0  0
    1.5464   -2.2847   -0.5829 H   0  0  0  0  0  0  0  0  0  0  0  0
    3.4766   -0.7305   -0.7680 H   0  0  0  0  0  0  0  0  0  0  0  0
    3.3192    1.4568    0.2329 H   0  0  0  0  0  0  0  0  0  0  0  0
    1.2759    0.2717    2.0126 H   0  0  0  0  0  0  0  0  0  0  0  0
    1.2684    2.0518    1.5202 H   0  0  0  0  0  0  0  0  0  0  0  0
   -0.3182    1.5489   -0.2429 H   0  0  0  0  0  0  0  0  0  0  0  0
  1  2  1  0
  2  3  1  0
  3  4  1  0
  4  5  1  0
  5  6  1  0
  6  7  2  0
  7  8  1  0
  8  9  1  0
  9  3  1  0
  9  4  1  0
  1 10  1  0
  1 11  1  0
  1 12  1  0
  2 13  1  0
  2 14  1  0
  3 15  1  0
  4 16  1  0
  5 17  1  0
  5 18  1  0
  6 19  1  0
  7 20  1  0
  8 21  1  0
  8 22  1  0
  9 23  1  0
M  END
