
     RDKit          3D

 23 24  0  0  0  0  0  0  0  0999 V2000
   -3.1835   -0.3116    0.1503 C   0  0  0  0  0  0  0  0  0  0  0  0
   -1.8870   -0.9108   -0.3294 C   0  0  0  0  0  0  0  0  0  0  0  0
   -0.6964   -0.3271    0.3836 C   0  0  0  0  0  0  0  0  0  0  0  0
    0.6345   -0.8622   -0.0274 C   0  0  0  0  0  0  0  0  0  0  0  0
    1.1336    0.5354   -0.2158 C   0  0  0  0  0  0  0  0  0  0  0  0
    1.9982    0.8083   -1.2456 O   0  0  0  0  0  0  0  0  0  0  0  0
    3.1413    0.0019   -1.0235 C   0  0  0  0  0  0  0  0  0  0  0  0
    0.8279    1.6332    0.7104 C   0  0  0  0  0  0  0  0  0  0  0  0
   -0.2366    1.0228   -0.1288 C   0  0  0  0  0  0  0  0  0  0  0  0
   -3.9590   -1.1163    0.2601 H   0  0  0  0  0  0  0  0  0  0  0  0
   -3.5068    0.4459   -0.5950 H   0  0  0  0  0  0  0  0  0  0  0  0
   -3.0659    0.1431    1.1552 H   0  0  0  0  0  0  0  0  0  0  0  0
   -1.9180   -1.9960   -0.1188 H   0  0  0  0  0  0  0  0  0  0  0  0
   -1.7554   -0.7913   -1.4182 H   0  0  0  0  0  0  0  0  0  0  0  0
   -0.8024   -0.3051    1.4807 H   0  0  0  0  0  0  0  0  0  0  0  0
    1.1705   -1.5024    0.6808 H   0  0  0  0  0  0  0  0  0  0  0  0
    0.5368   -1.3664   -1.0333 H   0  0  0  0  0  0  0  0  0  0  0  0
    3.5960    0.2645   -0.0339 H   0  0  0  0  0  0  0  0  0  0  0  0
    2.8577   -1.0729   -0.9544 H   0  0  0  0  0  0  0  0  0  0  0  0
    3.8651    0.0850   -1.8429 H   0  0  0  0  0  0  0  0  0  0  0  0
    1.1293    2.6369    0.4203 H   0  0  0  0  0  0  0  0  0  0  0  0
    0.9033    1.4316    1.7952 H   0  0  0  0  0  0  0  0  0  0  0  0
   -0.7831    1.5535   -0.8949 H   0  0  0  0  0  0  0  0  0  0  0  0
  1  2  1  0
  2  3  1  0
  3  4  1  0
  4  5  1  0
  5  6  1  0
  6  7  1  0
  5  8  1  0
  8  9  1  0
  9  3  1  0
  9  5  1  0
  1 10  1  0
  1 11  1  0
  1 12  1  0
  2 13  1  0
  2 14  1  0
  3 15  1  0
  4 16  1  0
  4 17  1  0
  7 18  1  0
  7 19  1  0
  7 20  1  0
  8 21  1  0
  8 22  1  0
  9 23  1  0
M  END
