
     RDKit          3D

 19 19  0  0  0  0  0  0  0  0999 V2000
   -2.3940    0.0524   -0.2616 C   0  0  0  0  0  0  0  0  0  0  0  0
   -1.1672   -0.3330    0.5494 C   0  0  0  0  0  0  0  0  0  0  0  0
   -0.0632   -0.6032   -0.4664 C   0  0  0  0  0  0  0  0  0  0  0  0
    1.2240   -0.9978    0.1613 C   0  0  0  0  0  0  0  0  0  0  0  0
    2.0814    0.1234    0.6236 C   0  0  0  0  0  0  0  0  0  0  0  0
    1.9291    1.3160   -0.0868 O   0  0  0  0  0  0  0  0  0  0  0  0
    0.7649    1.6323   -0.7737 C   0  0  0  0  0  0  0  0  0  0  0  0
    0.4177    2.8476   -0.9346 O   0  0  0  0  0  0  0  0  0  0  0  0
    0.0254    0.5713   -1.2597 O   0  0  0  0  0  0  0  0  0  0  0  0
   -2.9556   -0.8631   -0.5759 H   0  0  0  0  0  0  0  0  0  0  0  0
   -3.0605    0.7428    0.3077 H   0  0  0  0  0  0  0  0  0  0  0  0
   -2.0337    0.6351   -1.1335 H   0  0  0  0  0  0  0  0  0  0  0  0
   -0.8864    0.6017    1.1106 H   0  0  0  0  0  0  0  0  0  0  0  0
   -1.3383   -1.1608    1.2292 H   0  0  0  0  0  0  0  0  0  0  0  0
   -0.4167   -1.4115   -1.1667 H   0  0  0  0  0  0  0  0  0  0  0  0
    1.7960   -1.6411   -0.5571 H   0  0  0  0  0  0  0  0  0  0  0  0
    0.9898   -1.6794    1.0239 H   0  0  0  0  0  0  0  0  0  0  0  0
    3.1580   -0.1864    0.5042 H   0  0  0  0  0  0  0  0  0  0  0  0
    1.9294    0.3537    1.7062 H   0  0  0  0  0  0  0  0  0  0  0  0
  1  2  1  0
  2  3  1  0
  3  4  1  0
  4  5  1  0
  5  6  1  0
  6  7  1  0
  7  8  2  0
  7  9  1  0
  9  3  1  0
  1 10  1  0
  1 11  1  0
  1 12  1  0
  2 13  1  0
  2 14  1  0
  3 15  1  0
  4 16  1  0
  4 17  1  0
  5 18  1  0
  5 19  1  0
M  END
