
     RDKit          3D

 17 17  0  0  0  0  0  0  0  0999 V2000
    2.3330   -0.0668    0.1732 C   0  0  0  0  0  0  0  0  0  0  0  0
    1.0757   -0.0540   -0.6670 C   0  0  0  0  0  0  0  0  0  0  0  0
   -0.1571    0.1960    0.1714 C   0  0  0  0  0  0  0  0  0  0  0  0
   -1.4481    0.2230   -0.5952 C   0  0  0  0  0  0  0  0  0  0  0  0
   -2.2781    1.2897   -0.2696 O   0  0  0  0  0  0  0  0  0  0  0  0
   -1.1703   -0.8729    0.3471 C   0  0  0  0  0  0  0  0  0  0  0  0
   -1.7861   -0.9904    1.5722 O   0  0  0  0  0  0  0  0  0  0  0  0
    3.1116    0.6084   -0.2463 H   0  0  0  0  0  0  0  0  0  0  0  0
    2.7083   -1.0825    0.2930 H   0  0  0  0  0  0  0  0  0  0  0  0
    2.0593    0.3041    1.1885 H   0  0  0  0  0  0  0  0  0  0  0  0
    1.2056    0.7239   -1.4456 H   0  0  0  0  0  0  0  0  0  0  0  0
    0.9325   -1.0483   -1.1535 H   0  0  0  0  0  0  0  0  0  0  0  0
    0.0194    0.9220    0.9911 H   0  0  0  0  0  0  0  0  0  0  0  0
   -1.4190    0.0156   -1.6851 H   0  0  0  0  0  0  0  0  0  0  0  0
   -1.6984    2.1007   -0.2668 H   0  0  0  0  0  0  0  0  0  0  0  0
   -0.9461   -1.8708   -0.1315 H   0  0  0  0  0  0  0  0  0  0  0  0
   -2.5423   -0.3977    1.7239 H   0  0  0  0  0  0  0  0  0  0  0  0
  1  2  1  0
  2  3  1  0
  3  4  1  0
  4  5  1  0
  4  6  1  0
  6  7  1  0
  6  3  1  0
  1  8  1  0
  1  9  1  0
  1 10  1  0
  2 11  1  0
  2 12  1  0
  3 13  1  0
  4 14  1  0
  5 15  1  0
  6 16  1  0
  7 17  1  0
M  END
