
     RDKit          3D

 18 19  0  0  0  0  0  0  0  0999 V2000
    1.8607   -0.1155    0.6311 C   0  0  0  0  0  0  0  0  0  0  0  0
    0.8789   -0.9517   -0.0977 C   0  0  0  0  0  0  0  0  0  0  0  0
   -0.4901   -0.3835   -0.2093 C   0  0  0  0  0  0  0  0  0  0  0  0
   -1.3821   -1.1676   -0.8843 O   0  0  0  0  0  0  0  0  0  0  0  0
   -0.5524    1.0576   -0.7485 C   0  0  0  0  0  0  0  0  0  0  0  0
   -1.8712    1.0111   -0.0128 C   0  0  0  0  0  0  0  0  0  0  0  0
   -2.0889    0.9448    1.2844 O   0  0  0  0  0  0  0  0  0  0  0  0
   -0.9569    0.3112    1.0419 C   0  0  0  0  0  0  0  0  0  0  0  0
    1.6903   -0.0213    1.7122 H   0  0  0  0  0  0  0  0  0  0  0  0
    1.9766    0.8842    0.1234 H   0  0  0  0  0  0  0  0  0  0  0  0
    2.8678   -0.5951    0.5176 H   0  0  0  0  0  0  0  0  0  0  0  0
    0.7991   -1.9301    0.4094 H   0  0  0  0  0  0  0  0  0  0  0  0
    1.3003   -1.1726   -1.1129 H   0  0  0  0  0  0  0  0  0  0  0  0
   -0.8953   -1.9126   -1.3561 H   0  0  0  0  0  0  0  0  0  0  0  0
   -0.6658    1.0583   -1.8259 H   0  0  0  0  0  0  0  0  0  0  0  0
    0.1770    1.7387   -0.3136 H   0  0  0  0  0  0  0  0  0  0  0  0
   -2.5666    0.3023   -0.5647 H   0  0  0  0  0  0  0  0  0  0  0  0
   -0.0814    0.9419    1.4058 H   0  0  0  0  0  0  0  0  0  0  0  0
  1  2  1  0
  2  3  1  0
  3  4  1  0
  3  5  1  0
  5  6  1  0
  6  7  1  0
  7  8  1  0
  8  3  1  0
  8  6  1  0
  1  9  1  0
  1 10  1  0
  1 11  1  0
  2 12  1  0
  2 13  1  0
  4 14  1  0
  5 15  1  0
  5 16  1  0
  6 17  1  0
  8 18  1  0
M  END
