
     RDKit          3D

 23 23  0  0  0  0  0  0  0  0999 V2000
   -2.8208    0.8898    0.8517 C   0  0  0  0  0  0  0  0  0  0  0  0
   -1.6159    0.9616   -0.0430 C   0  0  0  0  0  0  0  0  0  0  0  0
   -0.4567    0.1271    0.5234 C   0  0  0  0  0  0  0  0  0  0  0  0
    0.8048    0.1720   -0.3655 C   0  0  0  0  0  0  0  0  0  0  0  0
    2.0326    0.1856    0.2901 O   0  0  0  0  0  0  0  0  0  0  0  0
    2.9297    1.0202   -0.3331 C   0  0  0  0  0  0  0  0  0  0  0  0
   -0.0596   -1.0365   -0.2680 C   0  0  0  0  0  0  0  0  0  0  0  0
    0.6254   -2.2366    0.3911 C   0  0  0  0  0  0  0  0  0  0  0  0
   -0.8538   -1.4187   -1.3498 O   0  0  0  0  0  0  0  0  0  0  0  0
   -2.5391    0.7278    1.9264 H   0  0  0  0  0  0  0  0  0  0  0  0
   -3.4253    1.8246    0.8332 H   0  0  0  0  0  0  0  0  0  0  0  0
   -3.4604    0.0591    0.4847 H   0  0  0  0  0  0  0  0  0  0  0  0
   -1.8574    0.6125   -1.0696 H   0  0  0  0  0  0  0  0  0  0  0  0
   -1.3158    2.0311   -0.0957 H   0  0  0  0  0  0  0  0  0  0  0  0
   -0.3024    0.1243    1.6032 H   0  0  0  0  0  0  0  0  0  0  0  0
    0.7733    0.8249   -1.2554 H   0  0  0  0  0  0  0  0  0  0  0  0
    2.5136    2.0638   -0.3391 H   0  0  0  0  0  0  0  0  0  0  0  0
    3.8432    1.0828    0.3065 H   0  0  0  0  0  0  0  0  0  0  0  0
    3.1546    0.7620   -1.3748 H   0  0  0  0  0  0  0  0  0  0  0  0
   -0.1053   -3.0362    0.6238 H   0  0  0  0  0  0  0  0  0  0  0  0
    1.3165   -2.6422   -0.3812 H   0  0  0  0  0  0  0  0  0  0  0  0
    1.2427   -1.9330    1.2514 H   0  0  0  0  0  0  0  0  0  0  0  0
   -0.4239   -1.1659   -2.2106 H   0  0  0  0  0  0  0  0  0  0  0  0
  1  2  1  0
  2  3  1  0
  3  4  1  0
  4  5  1  0
  5  6  1  0
  4  7  1  0
  7  8  1  0
  7  9  1  0
  7  3  1  0
  1 10  1  0
  1 11  1  0
  1 12  1  0
  2 13  1  0
  2 14  1  0
  3 15  1  0
  4 16  1  0
  6 17  1  0
  6 18  1  0
  6 19  1  0
  8 20  1  0
  8 21  1  0
  8 22  1  0
  9 23  1  0
M  END
