
     RDKit          3D

 21 22  0  0  0  0  0  0  0  0999 V2000
   -2.6919    0.4483    0.1860 C   0  0  0  0  0  0  0  0  0  0  0  0
   -1.4189    0.9740   -0.3943 C   0  0  0  0  0  0  0  0  0  0  0  0
   -0.3902   -0.0941   -0.6333 C   0  0  0  0  0  0  0  0  0  0  0  0
   -0.6234   -1.1457   -1.4652 O   0  0  0  0  0  0  0  0  0  0  0  0
    0.0079   -2.1084   -0.6436 C   0  0  0  0  0  0  0  0  0  0  0  0
    0.0574   -1.0238    0.4131 C   0  0  0  0  0  0  0  0  0  0  0  0
    0.9096    0.1300    0.0489 C   0  0  0  0  0  0  0  0  0  0  0  0
    2.0313   -0.0449   -0.7570 O   0  0  0  0  0  0  0  0  0  0  0  0
    3.0331    0.8763   -0.3883 C   0  0  0  0  0  0  0  0  0  0  0  0
   -2.5009   -0.4091    0.8655 H   0  0  0  0  0  0  0  0  0  0  0  0
   -3.1973    1.2937    0.7216 H   0  0  0  0  0  0  0  0  0  0  0  0
   -3.3822    0.1373   -0.6191 H   0  0  0  0  0  0  0  0  0  0  0  0
   -1.6799    1.3811   -1.4177 H   0  0  0  0  0  0  0  0  0  0  0  0
   -0.9955    1.8431    0.1478 H   0  0  0  0  0  0  0  0  0  0  0  0
   -0.6090   -2.9737   -0.3899 H   0  0  0  0  0  0  0  0  0  0  0  0
    1.0043   -2.3419   -1.1021 H   0  0  0  0  0  0  0  0  0  0  0  0
   -0.4145   -1.1581    1.3759 H   0  0  0  0  0  0  0  0  0  0  0  0
    0.9866    0.9117    0.7955 H   0  0  0  0  0  0  0  0  0  0  0  0
    3.9191    0.7531   -1.0096 H   0  0  0  0  0  0  0  0  0  0  0  0
    2.6400    1.9104   -0.3749 H   0  0  0  0  0  0  0  0  0  0  0  0
    3.3144    0.6408    0.6640 H   0  0  0  0  0  0  0  0  0  0  0  0
  1  2  1  0
  2  3  1  0
  3  4  1  0
  4  5  1  0
  5  6  1  0
  6  7  1  0
  7  8  1  0
  8  9  1  0
  6  3  1  0
  7  3  1  0
  1 10  1  0
  1 11  1  0
  1 12  1  0
  2 13  1  0
  2 14  1  0
  5 15  1  0
  5 16  1  0
  6 17  1  0
  7 18  1  0
  9 19  1  0
  9 20  1  0
  9 21  1  0
M  END
