
     RDKit          3D

 23 24  0  0  0  0  0  0  0  0999 V2000
    2.8233   -0.7782    0.1153 C   0  0  0  0  0  0  0  0  0  0  0  0
    1.6013   -0.2524    0.8282 C   0  0  0  0  0  0  0  0  0  0  0  0
    0.4282   -0.1509   -0.0753 C   0  0  0  0  0  0  0  0  0  0  0  0
    0.2970   -0.4434   -1.3725 C   0  0  0  0  0  0  0  0  0  0  0  0
   -1.1114   -0.0935   -1.6485 C   0  0  0  0  0  0  0  0  0  0  0  0
   -1.2332    1.2367   -0.8888 C   0  0  0  0  0  0  0  0  0  0  0  0
   -0.9092    0.3224    0.3027 C   0  0  0  0  0  0  0  0  0  0  0  0
   -1.2429    0.7439    1.6238 C   0  0  0  0  0  0  0  0  0  0  0  0
   -1.7990   -0.6951   -0.4200 C   0  0  0  0  0  0  0  0  0  0  0  0
    2.4911   -1.3080   -0.7912 H   0  0  0  0  0  0  0  0  0  0  0  0
    3.5248    0.0225   -0.1903 H   0  0  0  0  0  0  0  0  0  0  0  0
    3.3893   -1.4393    0.8151 H   0  0  0  0  0  0  0  0  0  0  0  0
    1.8924    0.7570    1.2332 H   0  0  0  0  0  0  0  0  0  0  0  0
    1.3825   -0.8623    1.7407 H   0  0  0  0  0  0  0  0  0  0  0  0
    0.9955   -0.8371   -2.0965 H   0  0  0  0  0  0  0  0  0  0  0  0
   -1.5479   -0.1891   -2.5893 H   0  0  0  0  0  0  0  0  0  0  0  0
   -2.2317    1.6660   -0.8700 H   0  0  0  0  0  0  0  0  0  0  0  0
   -0.3921    1.9293   -1.0860 H   0  0  0  0  0  0  0  0  0  0  0  0
   -1.9418    1.6049    1.6255 H   0  0  0  0  0  0  0  0  0  0  0  0
   -1.7301   -0.0566    2.2149 H   0  0  0  0  0  0  0  0  0  0  0  0
   -0.3449    1.0631    2.1890 H   0  0  0  0  0  0  0  0  0  0  0  0
   -2.8683   -0.5030   -0.3444 H   0  0  0  0  0  0  0  0  0  0  0  0
   -1.4728   -1.7369   -0.3158 H   0  0  0  0  0  0  0  0  0  0  0  0
  1  2  1  0
  2  3  1  0
  3  4  2  0
  4  5  1  0
  5  6  1  0
  6  7  1  0
  7  8  1  0
  7  9  1  0
  7  3  1  0
  9  5  1  0
  1 10  1  0
  1 11  1  0
  1 12  1  0
  2 13  1  0
  2 14  1  0
  4 15  1  0
  5 16  1  0
  6 17  1  0
  6 18  1  0
  8 19  1  0
  8 20  1  0
  8 21  1  0
  9 22  1  0
  9 23  1  0
M  END
