
     RDKit          3D

 21 22  0  0  0  0  0  0  0  0999 V2000
   -3.2944   -0.1219   -0.1556 C   0  0  0  0  0  0  0  0  0  0  0  0
   -2.2074    0.4064    0.7051 C   0  0  0  0  0  0  0  0  0  0  0  0
   -0.9121   -0.3808    0.5710 C   0  0  0  0  0  0  0  0  0  0  0  0
    0.1713    0.1201    1.4078 O   0  0  0  0  0  0  0  0  0  0  0  0
    0.2195    0.2864    0.0027 C   0  0  0  0  0  0  0  0  0  0  0  0
    1.3131   -0.3573   -0.7730 C   0  0  0  0  0  0  0  0  0  0  0  0
    2.4041    0.6238   -1.2505 C   0  0  0  0  0  0  0  0  0  0  0  0
    2.6988   -0.4680   -0.2980 C   0  0  0  0  0  0  0  0  0  0  0  0
    3.0177   -0.1336    0.9923 O   0  0  0  0  0  0  0  0  0  0  0  0
   -4.2959    0.0586    0.2802 H   0  0  0  0  0  0  0  0  0  0  0  0
   -3.1751   -1.1930   -0.4125 H   0  0  0  0  0  0  0  0  0  0  0  0
   -3.2616    0.4238   -1.1346 H   0  0  0  0  0  0  0  0  0  0  0  0
   -1.9944    1.4798    0.5134 H   0  0  0  0  0  0  0  0  0  0  0  0
   -2.5350    0.3648    1.7795 H   0  0  0  0  0  0  0  0  0  0  0  0
   -1.0338   -1.4480    0.7255 H   0  0  0  0  0  0  0  0  0  0  0  0
    0.0785    1.3789   -0.2553 H   0  0  0  0  0  0  0  0  0  0  0  0
    0.9492   -1.0823   -1.5516 H   0  0  0  0  0  0  0  0  0  0  0  0
    2.6481    0.5659   -2.3239 H   0  0  0  0  0  0  0  0  0  0  0  0
    2.3849    1.6442   -0.8436 H   0  0  0  0  0  0  0  0  0  0  0  0
    3.2909   -1.3224   -0.7400 H   0  0  0  0  0  0  0  0  0  0  0  0
    3.5336   -0.8455    1.4256 H   0  0  0  0  0  0  0  0  0  0  0  0
  1  2  1  0
  2  3  1  0
  3  4  1  0
  4  5  1  0
  5  6  1  0
  6  7  1  0
  7  8  1  0
  8  9  1  0
  5  3  1  0
  8  6  1  0
  1 10  1  0
  1 11  1  0
  1 12  1  0
  2 13  1  0
  2 14  1  0
  3 15  1  0
  5 16  1  0
  6 17  1  0
  7 18  1  0
  7 19  1  0
  8 20  1  0
  9 21  1  0
M  END
