
     RDKit          3D

 17 18  0  0  0  0  0  0  0  0999 V2000
    2.1884   -0.4882    0.1766 C   0  0  0  0  0  0  0  0  0  0  0  0
    1.1735    0.5987   -0.0985 C   0  0  0  0  0  0  0  0  0  0  0  0
   -0.2199    0.1457    0.3178 C   0  0  0  0  0  0  0  0  0  0  0  0
   -0.3101   -0.1666    1.6808 O   0  0  0  0  0  0  0  0  0  0  0  0
   -1.3287    0.8966   -0.3123 C   0  0  0  0  0  0  0  0  0  0  0  0
   -2.6685    0.5322   -0.1296 O   0  0  0  0  0  0  0  0  0  0  0  0
   -2.4478   -0.8331   -0.2724 C   0  0  0  0  0  0  0  0  0  0  0  0
   -3.0783   -1.9190   -0.1398 O   0  0  0  0  0  0  0  0  0  0  0  0
   -1.0583   -0.5107   -0.6790 C   0  0  0  0  0  0  0  0  0  0  0  0
    1.9141   -1.0557    1.0924 H   0  0  0  0  0  0  0  0  0  0  0  0
    3.1832   -0.0134    0.2422 H   0  0  0  0  0  0  0  0  0  0  0  0
    2.2215   -1.2128   -0.6660 H   0  0  0  0  0  0  0  0  0  0  0  0
    1.1786    0.8633   -1.1881 H   0  0  0  0  0  0  0  0  0  0  0  0
    1.4073    1.5339    0.4430 H   0  0  0  0  0  0  0  0  0  0  0  0
   -0.3031    0.7029    2.1730 H   0  0  0  0  0  0  0  0  0  0  0  0
   -1.1283    1.7455   -0.9616 H   0  0  0  0  0  0  0  0  0  0  0  0
   -0.7236   -0.8193   -1.6785 H   0  0  0  0  0  0  0  0  0  0  0  0
  1  2  1  0
  2  3  1  0
  3  4  1  0
  3  5  1  0
  5  6  1  0
  6  7  1  0
  7  8  2  0
  7  9  1  0
  9  3  1  0
  9  5  1  0
  1 10  1  0
  1 11  1  0
  1 12  1  0
  2 13  1  0
  2 14  1  0
  4 15  1  0
  5 16  1  0
  9 17  1  0
M  END
