
     RDKit          3D

 23 24  0  0  0  0  0  0  0  0999 V2000
    2.5227    0.9008   -0.2312 C   0  0  0  0  0  0  0  0  0  0  0  0
    1.7746   -0.3507   -0.6425 C   0  0  0  0  0  0  0  0  0  0  0  0
    0.4578   -0.3408    0.0939 C   0  0  0  0  0  0  0  0  0  0  0  0
   -0.3902   -1.5594   -0.2403 C   0  0  0  0  0  0  0  0  0  0  0  0
   -1.4428   -1.5785    0.8003 C   0  0  0  0  0  0  0  0  0  0  0  0
   -1.9784   -0.4428    1.2024 C   0  0  0  0  0  0  0  0  0  0  0  0
   -1.5869    0.8752    0.6688 C   0  0  0  0  0  0  0  0  0  0  0  0
   -1.5706    1.0554   -0.8063 C   0  0  0  0  0  0  0  0  0  0  0  0
   -0.3106    0.9171   -0.0641 C   0  0  0  0  0  0  0  0  0  0  0  0
    2.1787    1.3248    0.7148 H   0  0  0  0  0  0  0  0  0  0  0  0
    3.6150    0.7073   -0.1292 H   0  0  0  0  0  0  0  0  0  0  0  0
    2.4375    1.6934   -1.0208 H   0  0  0  0  0  0  0  0  0  0  0  0
    1.6133   -0.4313   -1.7183 H   0  0  0  0  0  0  0  0  0  0  0  0
    2.3577   -1.2127   -0.2279 H   0  0  0  0  0  0  0  0  0  0  0  0
    0.7089   -0.4574    1.1865 H   0  0  0  0  0  0  0  0  0  0  0  0
    0.2531   -2.4711   -0.2159 H   0  0  0  0  0  0  0  0  0  0  0  0
   -0.7964   -1.5088   -1.2731 H   0  0  0  0  0  0  0  0  0  0  0  0
   -1.7730   -2.4968    1.2282 H   0  0  0  0  0  0  0  0  0  0  0  0
   -2.7469   -0.4926    1.9666 H   0  0  0  0  0  0  0  0  0  0  0  0
   -1.8189    1.7453    1.2956 H   0  0  0  0  0  0  0  0  0  0  0  0
   -1.8096    2.0538   -1.2235 H   0  0  0  0  0  0  0  0  0  0  0  0
   -2.0244    0.2336   -1.3819 H   0  0  0  0  0  0  0  0  0  0  0  0
    0.3294    1.8363    0.0177 H   0  0  0  0  0  0  0  0  0  0  0  0
  1  2  1  0
  2  3  1  0
  3  4  1  0
  4  5  1  0
  5  6  2  0
  6  7  1  0
  7  8  1  0
  8  9  1  0
  9  3  1  0
  9  7  1  0
  1 10  1  0
  1 11  1  0
  1 12  1  0
  2 13  1  0
  2 14  1  0
  3 15  1  0
  4 16  1  0
  4 17  1  0
  5 18  1  0
  6 19  1  0
  7 20  1  0
  8 21  1  0
  8 22  1  0
  9 23  1  0
M  END
