
     RDKit          3D

 25 25  0  0  0  0  0  0  0  0999 V2000
    3.0288   -0.6753    0.3428 C   0  0  0  0  0  0  0  0  0  0  0  0
    2.2189    0.3430   -0.3842 C   0  0  0  0  0  0  0  0  0  0  0  0
    0.7516    0.1513   -0.2588 C   0  0  0  0  0  0  0  0  0  0  0  0
    0.2861   -0.8663    0.4589 C   0  0  0  0  0  0  0  0  0  0  0  0
   -1.0130   -1.3803    0.8139 C   0  0  0  0  0  0  0  0  0  0  0  0
   -2.1861   -0.5136    0.6904 C   0  0  0  0  0  0  0  0  0  0  0  0
   -2.2576    0.3350   -0.5368 C   0  0  0  0  0  0  0  0  0  0  0  0
   -1.3357    1.5168   -0.3127 C   0  0  0  0  0  0  0  0  0  0  0  0
   -0.0327    1.1529   -0.9745 C   0  0  0  0  0  0  0  0  0  0  0  0
    4.1094   -0.4022    0.1586 H   0  0  0  0  0  0  0  0  0  0  0  0
    2.9280   -1.7027   -0.0430 H   0  0  0  0  0  0  0  0  0  0  0  0
    2.8897   -0.5940    1.4427 H   0  0  0  0  0  0  0  0  0  0  0  0
    2.4692    1.3390    0.0294 H   0  0  0  0  0  0  0  0  0  0  0  0
    2.4563    0.3188   -1.4632 H   0  0  0  0  0  0  0  0  0  0  0  0
    1.1280   -1.4456    0.8756 H   0  0  0  0  0  0  0  0  0  0  0  0
   -0.9700   -1.7462    1.8828 H   0  0  0  0  0  0  0  0  0  0  0  0
   -1.2004   -2.3258    0.2242 H   0  0  0  0  0  0  0  0  0  0  0  0
   -3.1100   -1.1236    0.7356 H   0  0  0  0  0  0  0  0  0  0  0  0
   -2.2431    0.1674    1.5863 H   0  0  0  0  0  0  0  0  0  0  0  0
   -3.3090    0.6451   -0.6873 H   0  0  0  0  0  0  0  0  0  0  0  0
   -1.9643   -0.2278   -1.4433 H   0  0  0  0  0  0  0  0  0  0  0  0
   -1.2124    1.7717    0.7498 H   0  0  0  0  0  0  0  0  0  0  0  0
   -1.7126    2.4332   -0.8173 H   0  0  0  0  0  0  0  0  0  0  0  0
    0.5550    2.0872   -1.0779 H   0  0  0  0  0  0  0  0  0  0  0  0
   -0.2740    0.7422   -1.9919 H   0  0  0  0  0  0  0  0  0  0  0  0
  1  2  1  0
  2  3  1  0
  3  4  2  0
  4  5  1  0
  5  6  1  0
  6  7  1  0
  7  8  1  0
  8  9  1  0
  9  3  1  0
  1 10  1  0
  1 11  1  0
  1 12  1  0
  2 13  1  0
  2 14  1  0
  4 15  1  0
  5 16  1  0
  5 17  1  0
  6 18  1  0
  6 19  1  0
  7 20  1  0
  7 21  1  0
  8 22  1  0
  8 23  1  0
  9 24  1  0
  9 25  1  0
M  END
