
     RDKit          3D

 23 23  0  0  0  0  0  0  0  0999 V2000
    3.3389    0.5622   -0.5416 C   0  0  0  0  0  0  0  0  0  0  0  0
    2.4288   -0.5143   -0.0148 C   0  0  0  0  0  0  0  0  0  0  0  0
    1.1570    0.1075    0.4918 C   0  0  0  0  0  0  0  0  0  0  0  0
    0.1696   -0.8991    1.0460 C   0  0  0  0  0  0  0  0  0  0  0  0
   -0.7508    0.1796    0.5125 C   0  0  0  0  0  0  0  0  0  0  0  0
   -2.0706   -0.3692    0.0577 C   0  0  0  0  0  0  0  0  0  0  0  0
   -2.9293    0.7854   -0.4614 C   0  0  0  0  0  0  0  0  0  0  0  0
   -4.1582    0.2749   -0.8850 O   0  0  0  0  0  0  0  0  0  0  0  0
    0.1984    0.3607   -0.5166 O   0  0  0  0  0  0  0  0  0  0  0  0
    3.4611    0.4294   -1.6460 H   0  0  0  0  0  0  0  0  0  0  0  0
    4.3794    0.4821   -0.1188 H   0  0  0  0  0  0  0  0  0  0  0  0
    2.9994    1.5840   -0.3023 H   0  0  0  0  0  0  0  0  0  0  0  0
    2.2751   -1.3110   -0.7365 H   0  0  0  0  0  0  0  0  0  0  0  0
    2.9406   -0.9654    0.8709 H   0  0  0  0  0  0  0  0  0  0  0  0
    1.2844    0.9392    1.1839 H   0  0  0  0  0  0  0  0  0  0  0  0
    0.1686   -1.0347    2.1275 H   0  0  0  0  0  0  0  0  0  0  0  0
    0.1457   -1.8117    0.4221 H   0  0  0  0  0  0  0  0  0  0  0  0
   -0.7743    1.0795    1.1251 H   0  0  0  0  0  0  0  0  0  0  0  0
   -2.5958   -0.7740    0.9469 H   0  0  0  0  0  0  0  0  0  0  0  0
   -2.0037   -1.1292   -0.7111 H   0  0  0  0  0  0  0  0  0  0  0  0
   -3.1237    1.5052    0.3638 H   0  0  0  0  0  0  0  0  0  0  0  0
   -2.4051    1.2387   -1.3170 H   0  0  0  0  0  0  0  0  0  0  0  0
   -4.1353   -0.7196   -0.8607 H   0  0  0  0  0  0  0  0  0  0  0  0
  1  2  1  0
  2  3  1  0
  3  4  1  0
  4  5  1  0
  5  6  1  0
  6  7  1  0
  7  8  1  0
  5  9  1  0
  9  3  1  0
  1 10  1  0
  1 11  1  0
  1 12  1  0
  2 13  1  0
  2 14  1  0
  3 15  1  0
  4 16  1  0
  4 17  1  0
  5 18  1  0
  6 19  1  0
  6 20  1  0
  7 21  1  0
  7 22  1  0
  8 23  1  0
M  END
