
     RDKit          3D

 23 24  0  0  0  0  0  0  0  0999 V2000
   -2.8028    0.6867   -0.4026 C   0  0  0  0  0  0  0  0  0  0  0  0
   -1.7900    0.1179    0.5842 C   0  0  0  0  0  0  0  0  0  0  0  0
   -0.5604   -0.3782   -0.0833 C   0  0  0  0  0  0  0  0  0  0  0  0
   -0.7876   -1.4125   -1.0153 O   0  0  0  0  0  0  0  0  0  0  0  0
    0.6416   -0.5928    0.7644 C   0  0  0  0  0  0  0  0  0  0  0  0
    0.8287    0.8854    0.7751 C   0  0  0  0  0  0  0  0  0  0  0  0
    0.4289    0.5996   -0.6330 C   0  0  0  0  0  0  0  0  0  0  0  0
    1.3925   -0.5464   -0.5533 C   0  0  0  0  0  0  0  0  0  0  0  0
    2.8322   -0.2560   -0.4822 C   0  0  0  0  0  0  0  0  0  0  0  0
   -3.8394    0.3710   -0.1626 H   0  0  0  0  0  0  0  0  0  0  0  0
   -2.8004    1.8076   -0.3749 H   0  0  0  0  0  0  0  0  0  0  0  0
   -2.5809    0.3126   -1.4193 H   0  0  0  0  0  0  0  0  0  0  0  0
   -2.3094   -0.8015    1.0060 H   0  0  0  0  0  0  0  0  0  0  0  0
   -1.6451    0.7498    1.4743 H   0  0  0  0  0  0  0  0  0  0  0  0
   -0.9924   -2.2108   -0.4642 H   0  0  0  0  0  0  0  0  0  0  0  0
    0.7866   -1.2516    1.4981 H   0  0  0  0  0  0  0  0  0  0  0  0
    1.8731    1.2447    0.9214 H   0  0  0  0  0  0  0  0  0  0  0  0
    0.1780    1.5120    1.3852 H   0  0  0  0  0  0  0  0  0  0  0  0
    0.3067    1.2422   -1.3908 H   0  0  0  0  0  0  0  0  0  0  0  0
    1.1065   -1.3551   -1.2369 H   0  0  0  0  0  0  0  0  0  0  0  0
    3.2229   -0.6254    0.5088 H   0  0  0  0  0  0  0  0  0  0  0  0
    3.3699   -0.8750   -1.2474 H   0  0  0  0  0  0  0  0  0  0  0  0
    3.1407    0.7759   -0.6426 H   0  0  0  0  0  0  0  0  0  0  0  0
  1  2  1  0
  2  3  1  0
  3  4  1  0
  3  5  1  0
  5  6  1  0
  6  7  1  0
  7  8  1  0
  8  9  1  0
  7  3  1  0
  8  5  1  0
  1 10  1  0
  1 11  1  0
  1 12  1  0
  2 13  1  0
  2 14  1  0
  4 15  1  0
  5 16  1  0
  6 17  1  0
  6 18  1  0
  7 19  1  0
  8 20  1  0
  9 21  1  0
  9 22  1  0
  9 23  1  0
M  END
