
     RDKit          3D

 21 21  0  0  0  0  0  0  0  0999 V2000
   -2.8380   -0.3105   -0.1164 C   0  0  0  0  0  0  0  0  0  0  0  0
   -1.7571    0.7115   -0.2105 C   0  0  0  0  0  0  0  0  0  0  0  0
   -0.4386    0.2242    0.3985 C   0  0  0  0  0  0  0  0  0  0  0  0
    0.5243    1.3564    0.2221 C   0  0  0  0  0  0  0  0  0  0  0  0
    1.7779    1.3841   -0.2004 C   0  0  0  0  0  0  0  0  0  0  0  0
    2.5420    0.2014   -0.6179 C   0  0  0  0  0  0  0  0  0  0  0  0
    2.2405   -1.0785   -0.4547 C   0  0  0  0  0  0  0  0  0  0  0  0
    0.9966   -1.5846    0.2229 C   0  0  0  0  0  0  0  0  0  0  0  0
   -0.0698   -0.9016   -0.2992 O   0  0  0  0  0  0  0  0  0  0  0  0
   -3.5300   -0.0661    0.7409 H   0  0  0  0  0  0  0  0  0  0  0  0
   -3.4800   -0.2695   -1.0185 H   0  0  0  0  0  0  0  0  0  0  0  0
   -2.4229   -1.3373   -0.0038 H   0  0  0  0  0  0  0  0  0  0  0  0
   -1.6093    0.9624   -1.2774 H   0  0  0  0  0  0  0  0  0  0  0  0
   -2.1011    1.6411    0.2999 H   0  0  0  0  0  0  0  0  0  0  0  0
   -0.5971    0.0734    1.4676 H   0  0  0  0  0  0  0  0  0  0  0  0
    0.1099    2.3186    0.4913 H   0  0  0  0  0  0  0  0  0  0  0  0
    2.2796    2.3372   -0.2438 H   0  0  0  0  0  0  0  0  0  0  0  0
    3.4724    0.3902   -1.1248 H   0  0  0  0  0  0  0  0  0  0  0  0
    2.9387   -1.8218   -0.8359 H   0  0  0  0  0  0  0  0  0  0  0  0
    1.0817   -1.5567    1.3174 H   0  0  0  0  0  0  0  0  0  0  0  0
    0.8804   -2.6737   -0.0479 H   0  0  0  0  0  0  0  0  0  0  0  0
  1  2  1  0
  2  3  1  0
  3  4  1  0
  4  5  2  0
  5  6  1  0
  6  7  2  0
  7  8  1  0
  8  9  1  0
  9  3  1  0
  1 10  1  0
  1 11  1  0
  1 12  1  0
  2 13  1  0
  2 14  1  0
  3 15  1  0
  4 16  1  0
  5 17  1  0
  6 18  1  0
  7 19  1  0
  8 20  1  0
  8 21  1  0
M  END
