
     RDKit          3D

 20 21  0  0  0  0  0  0  0  0999 V2000
    2.4077   -0.4454    0.2947 C   0  0  0  0  0  0  0  0  0  0  0  0
    1.2609    0.5767    0.3885 C   0  0  0  0  0  0  0  0  0  0  0  0
    0.1295    0.1881   -0.5161 C   0  0  0  0  0  0  0  0  0  0  0  0
   -1.0356    1.0961   -0.5258 C   0  0  0  0  0  0  0  0  0  0  0  0
   -1.3959    0.5732    0.8233 C   0  0  0  0  0  0  0  0  0  0  0  0
   -0.9469   -0.6466    0.1103 C   0  0  0  0  0  0  0  0  0  0  0  0
   -0.8931   -1.8336    0.4921 O   0  0  0  0  0  0  0  0  0  0  0  0
   -1.8118   -0.1066   -1.0313 C   0  0  0  0  0  0  0  0  0  0  0  0
    2.3348   -1.2074    1.0778 H   0  0  0  0  0  0  0  0  0  0  0  0
    2.4138   -0.8625   -0.7146 H   0  0  0  0  0  0  0  0  0  0  0  0
    3.3957    0.0697    0.4424 H   0  0  0  0  0  0  0  0  0  0  0  0
    1.7206    1.5409    0.0244 H   0  0  0  0  0  0  0  0  0  0  0  0
    1.0158    0.6214    1.4490 H   0  0  0  0  0  0  0  0  0  0  0  0
    0.4597   -0.1964   -1.5175 H   0  0  0  0  0  0  0  0  0  0  0  0
   -1.1171    2.0319   -0.8678 H   0  0  0  0  0  0  0  0  0  0  0  0
   -2.5189    0.5555    0.9034 H   0  0  0  0  0  0  0  0  0  0  0  0
   -0.8810    0.9337    1.7033 H   0  0  0  0  0  0  0  0  0  0  0  0
   -0.1142   -2.3755    0.2090 H   0  0  0  0  0  0  0  0  0  0  0  0
   -1.5651   -0.4677   -2.0246 H   0  0  0  0  0  0  0  0  0  0  0  0
   -2.8590   -0.0454   -0.7205 H   0  0  0  0  0  0  0  0  0  0  0  0
  1  2  1  0
  2  3  1  0
  3  4  1  0
  4  5  1  0
  5  6  1  0
  6  7  1  0
  6  8  1  0
  6  3  1  0
  8  4  1  0
  1  9  1  0
  1 10  1  0
  1 11  1  0
  2 12  1  0
  2 13  1  0
  3 14  1  0
  4 15  1  0
  5 16  1  0
  5 17  1  0
  7 18  1  0
  8 19  1  0
  8 20  1  0
M  END
