
     RDKit          3D

 18 21  0  0  0  0  0  0  0  0999 V2000
    2.2227    0.2691   -0.4109 C   0  0  0  0  0  0  0  0  0  0  0  0
    1.2400   -0.5388    0.4061 C   0  0  0  0  0  0  0  0  0  0  0  0
   -0.1048   -0.4046    0.2888 C   0  0  0  0  0  0  0  0  0  0  0  0
   -1.0896   -0.5999   -0.9168 C   0  0  0  0  0  0  0  0  0  0  0  0
   -1.0136    0.5496   -0.6695 C   0  0  0  0  0  0  0  0  0  0  0  0
   -2.1068    0.5342   -0.2584 C   0  0  0  0  0  0  0  0  0  0  0  0
   -1.0612    0.7072    0.9625 C   0  0  0  0  0  0  0  0  0  0  0  0
   -1.2254   -0.4248    0.6846 C   0  0  0  0  0  0  0  0  0  0  0  0
    1.9059    0.4657   -1.4287 H   0  0  0  0  0  0  0  0  0  0  0  0
    2.4668    1.2501    0.0682 H   0  0  0  0  0  0  0  0  0  0  0  0
    3.2100   -0.2636   -0.4824 H   0  0  0  0  0  0  0  0  0  0  0  0
    1.5208   -1.6050    0.2529 H   0  0  0  0  0  0  0  0  0  0  0  0
    1.5586   -0.3415    1.4768 H   0  0  0  0  0  0  0  0  0  0  0  0
   -1.5772   -1.5775   -0.9918 H   0  0  0  0  0  0  0  0  0  0  0  0
   -0.2183    1.2871   -0.6700 H   0  0  0  0  0  0  0  0  0  0  0  0
   -3.0746    0.1159    0.0141 H   0  0  0  0  0  0  0  0  0  0  0  0
   -0.6077    1.7107    0.9878 H   0  0  0  0  0  0  0  0  0  0  0  0
   -2.0454   -1.1338    0.6867 H   0  0  0  0  0  0  0  0  0  0  0  0
  1  2  1  0
  2  3  1  0
  3  4  1  0
  4  5  1  0
  5  6  1  0
  6  7  1  0
  7  8  1  0
  7  3  1  0
  8  3  1  0
  6  4  1  0
  8  5  1  0
  1  9  1  0
  1 10  1  0
  1 11  1  0
  2 12  1  0
  2 13  1  0
  4 14  1  0
  5 15  1  0
  6 16  1  0
  7 17  1  0
  8 18  1  0
M  END
