
     RDKit          3D

 23 24  0  0  0  0  0  0  0  0999 V2000
    2.5915   -0.0854   -0.4882 C   0  0  0  0  0  0  0  0  0  0  0  0
    1.6661   -0.6208    0.5740 C   0  0  0  0  0  0  0  0  0  0  0  0
    0.2553   -0.2288    0.3415 C   0  0  0  0  0  0  0  0  0  0  0  0
   -0.7470   -0.6980    1.3258 C   0  0  0  0  0  0  0  0  0  0  0  0
   -2.0246   -0.4595    1.0920 C   0  0  0  0  0  0  0  0  0  0  0  0
   -2.3258    0.5235    0.0126 C   0  0  0  0  0  0  0  0  0  0  0  0
   -1.1488    0.6949   -0.8819 C   0  0  0  0  0  0  0  0  0  0  0  0
   -0.3402   -0.6037   -1.0191 C   0  0  0  0  0  0  0  0  0  0  0  0
    0.0175    1.2120   -0.0630 C   0  0  0  0  0  0  0  0  0  0  0  0
    2.3277   -0.3713   -1.5112 H   0  0  0  0  0  0  0  0  0  0  0  0
    2.7497    1.0094   -0.3771 H   0  0  0  0  0  0  0  0  0  0  0  0
    3.6009   -0.5336   -0.2746 H   0  0  0  0  0  0  0  0  0  0  0  0
    1.8278   -1.6964    0.6923 H   0  0  0  0  0  0  0  0  0  0  0  0
    1.9822   -0.1335    1.5329 H   0  0  0  0  0  0  0  0  0  0  0  0
   -0.4410   -1.2186    2.2062 H   0  0  0  0  0  0  0  0  0  0  0  0
   -2.8402   -0.9499    1.6531 H   0  0  0  0  0  0  0  0  0  0  0  0
   -3.1897    0.1591   -0.6116 H   0  0  0  0  0  0  0  0  0  0  0  0
   -2.5631    1.5146    0.4596 H   0  0  0  0  0  0  0  0  0  0  0  0
   -1.3019    1.1771   -1.8461 H   0  0  0  0  0  0  0  0  0  0  0  0
    0.3380   -0.5690   -1.8653 H   0  0  0  0  0  0  0  0  0  0  0  0
   -1.0033   -1.4978   -0.9820 H   0  0  0  0  0  0  0  0  0  0  0  0
    0.8215    1.5773   -0.6952 H   0  0  0  0  0  0  0  0  0  0  0  0
   -0.2526    1.7985    0.8307 H   0  0  0  0  0  0  0  0  0  0  0  0
  1  2  1  0
  2  3  1  0
  3  4  1  0
  4  5  2  0
  5  6  1  0
  6  7  1  0
  7  8  1  0
  7  9  1  0
  8  3  1  0
  9  3  1  0
  1 10  1  0
  1 11  1  0
  1 12  1  0
  2 13  1  0
  2 14  1  0
  4 15  1  0
  5 16  1  0
  6 17  1  0
  6 18  1  0
  7 19  1  0
  8 20  1  0
  8 21  1  0
  9 22  1  0
  9 23  1  0
M  END
