
     RDKit          3D

 23 24  0  0  0  0  0  0  0  0999 V2000
   -2.0730   -1.1477    0.5152 C   0  0  0  0  0  0  0  0  0  0  0  0
   -1.3376   -0.6917   -0.7173 C   0  0  0  0  0  0  0  0  0  0  0  0
   -0.0052   -0.0386   -0.3148 C   0  0  0  0  0  0  0  0  0  0  0  0
    0.8454   -1.0248    0.4265 C   0  0  0  0  0  0  0  0  0  0  0  0
    2.1637   -0.7067    0.9403 C   0  0  0  0  0  0  0  0  0  0  0  0
    0.9253   -0.7691    1.8019 O   0  0  0  0  0  0  0  0  0  0  0  0
   -0.2901    1.2609    0.4037 C   0  0  0  0  0  0  0  0  0  0  0  0
    0.6711    1.9495   -0.5274 C   0  0  0  0  0  0  0  0  0  0  0  0
    0.6373    0.7318   -1.4109 C   0  0  0  0  0  0  0  0  0  0  0  0
   -3.0043   -0.5955    0.6942 H   0  0  0  0  0  0  0  0  0  0  0  0
   -2.2980   -2.2304    0.4730 H   0  0  0  0  0  0  0  0  0  0  0  0
   -1.4044   -1.0094    1.4052 H   0  0  0  0  0  0  0  0  0  0  0  0
   -1.1427   -1.5808   -1.3548 H   0  0  0  0  0  0  0  0  0  0  0  0
   -1.9392    0.0744   -1.2438 H   0  0  0  0  0  0  0  0  0  0  0  0
    0.6843   -2.0893    0.0964 H   0  0  0  0  0  0  0  0  0  0  0  0
    2.6163    0.2940    0.9731 H   0  0  0  0  0  0  0  0  0  0  0  0
    2.7863   -1.5673    1.2974 H   0  0  0  0  0  0  0  0  0  0  0  0
   -1.3144    1.6516    0.2437 H   0  0  0  0  0  0  0  0  0  0  0  0
    0.0284    1.2035    1.4648 H   0  0  0  0  0  0  0  0  0  0  0  0
    1.6453    2.2111   -0.0832 H   0  0  0  0  0  0  0  0  0  0  0  0
    0.2638    2.8369   -1.0542 H   0  0  0  0  0  0  0  0  0  0  0  0
   -0.0827    0.8584   -2.2655 H   0  0  0  0  0  0  0  0  0  0  0  0
    1.6246    0.3790   -1.7636 H   0  0  0  0  0  0  0  0  0  0  0  0
  1  2  1  0
  2  3  1  0
  3  4  1  0
  4  5  1  0
  5  6  1  0
  3  7  1  0
  7  8  1  0
  8  9  1  0
  9  3  1  0
  6  4  1  0
  1 10  1  0
  1 11  1  0
  1 12  1  0
  2 13  1  0
  2 14  1  0
  4 15  1  0
  5 16  1  0
  5 17  1  0
  7 18  1  0
  7 19  1  0
  8 20  1  0
  8 21  1  0
  9 22  1  0
  9 23  1  0
M  END
