
     RDKit          3D

 23 23  0  0  0  0  0  0  0  0999 V2000
    2.6597    0.5244    0.9294 C   0  0  0  0  0  0  0  0  0  0  0  0
    1.8810   -0.0008   -0.2257 C   0  0  0  0  0  0  0  0  0  0  0  0
    0.5294   -0.5577    0.1758 C   0  0  0  0  0  0  0  0  0  0  0  0
   -0.1847   -1.0642   -1.0528 C   0  0  0  0  0  0  0  0  0  0  0  0
   -1.6277   -1.0397   -0.6267 C   0  0  0  0  0  0  0  0  0  0  0  0
   -1.7937    0.1304    0.3084 C   0  0  0  0  0  0  0  0  0  0  0  0
   -2.3764    1.2629   -0.4582 C   0  0  0  0  0  0  0  0  0  0  0  0
   -3.5532    1.2802   -0.7221 O   0  0  0  0  0  0  0  0  0  0  0  0
   -0.3833    0.4766    0.7362 C   0  0  0  0  0  0  0  0  0  0  0  0
    2.0688    0.6054    1.8697 H   0  0  0  0  0  0  0  0  0  0  0  0
    3.1043    1.5349    0.7404 H   0  0  0  0  0  0  0  0  0  0  0  0
    3.5104   -0.1528    1.1521 H   0  0  0  0  0  0  0  0  0  0  0  0
    1.7467    0.7428   -1.0374 H   0  0  0  0  0  0  0  0  0  0  0  0
    2.4321   -0.8633   -0.6968 H   0  0  0  0  0  0  0  0  0  0  0  0
    0.6384   -1.4035    0.8758 H   0  0  0  0  0  0  0  0  0  0  0  0
    0.0322   -0.4012   -1.9049 H   0  0  0  0  0  0  0  0  0  0  0  0
    0.1361   -2.0983   -1.2957 H   0  0  0  0  0  0  0  0  0  0  0  0
   -2.3073   -0.8992   -1.5169 H   0  0  0  0  0  0  0  0  0  0  0  0
   -1.9033   -1.9953   -0.1667 H   0  0  0  0  0  0  0  0  0  0  0  0
   -2.4443   -0.1151    1.1648 H   0  0  0  0  0  0  0  0  0  0  0  0
   -1.7180    2.0869   -0.7823 H   0  0  0  0  0  0  0  0  0  0  0  0
   -0.3338    0.4403    1.8622 H   0  0  0  0  0  0  0  0  0  0  0  0
   -0.1136    1.5063    0.3734 H   0  0  0  0  0  0  0  0  0  0  0  0
  1  2  1  0
  2  3  1  0
  3  4  1  0
  4  5  1  0
  5  6  1  0
  6  7  1  0
  7  8  2  0
  6  9  1  0
  9  3  1  0
  1 10  1  0
  1 11  1  0
  1 12  1  0
  2 13  1  0
  2 14  1  0
  3 15  1  0
  4 16  1  0
  4 17  1  0
  5 18  1  0
  5 19  1  0
  6 20  1  0
  7 21  1  0
  9 22  1  0
  9 23  1  0
M  END
