
     RDKit          3D

 21 21  0  0  0  0  0  0  0  0999 V2000
    2.0733    0.8484    0.0473 C   0  0  0  0  0  0  0  0  0  0  0  0
    0.8641    0.5029   -0.7883 C   0  0  0  0  0  0  0  0  0  0  0  0
   -0.2132   -0.1007    0.0506 C   0  0  0  0  0  0  0  0  0  0  0  0
   -0.7565    0.7219    1.1648 C   0  0  0  0  0  0  0  0  0  0  0  0
   -1.2964    1.8939    0.6015 O   0  0  0  0  0  0  0  0  0  0  0  0
   -1.3510   -0.5833   -0.8521 C   0  0  0  0  0  0  0  0  0  0  0  0
   -0.5947   -1.8634   -0.9913 C   0  0  0  0  0  0  0  0  0  0  0  0
   -0.4680   -2.7809   -1.7817 O   0  0  0  0  0  0  0  0  0  0  0  0
    0.0116   -1.5660    0.3420 C   0  0  0  0  0  0  0  0  0  0  0  0
    2.3239    0.0290    0.7729 H   0  0  0  0  0  0  0  0  0  0  0  0
    2.9047    1.0548   -0.6423 H   0  0  0  0  0  0  0  0  0  0  0  0
    1.8050    1.7208    0.6742 H   0  0  0  0  0  0  0  0  0  0  0  0
    1.0940   -0.2056   -1.6086 H   0  0  0  0  0  0  0  0  0  0  0  0
    0.5275    1.4429   -1.2690 H   0  0  0  0  0  0  0  0  0  0  0  0
   -0.0102    1.0451    1.8981 H   0  0  0  0  0  0  0  0  0  0  0  0
   -1.6114    0.1721    1.6137 H   0  0  0  0  0  0  0  0  0  0  0  0
   -2.0070    2.2798    1.1341 H   0  0  0  0  0  0  0  0  0  0  0  0
   -2.2463   -0.7671   -0.2277 H   0  0  0  0  0  0  0  0  0  0  0  0
   -1.4805    0.0032   -1.7600 H   0  0  0  0  0  0  0  0  0  0  0  0
   -0.6175   -1.9649    1.1560 H   0  0  0  0  0  0  0  0  0  0  0  0
    1.0488   -1.8827    0.4658 H   0  0  0  0  0  0  0  0  0  0  0  0
  1  2  1  0
  2  3  1  0
  3  4  1  0
  4  5  1  0
  3  6  1  0
  6  7  1  0
  7  8  2  0
  7  9  1  0
  9  3  1  0
  1 10  1  0
  1 11  1  0
  1 12  1  0
  2 13  1  0
  2 14  1  0
  4 15  1  0
  4 16  1  0
  5 17  1  0
  6 18  1  0
  6 19  1  0
  9 20  1  0
  9 21  1  0
M  END
