
     RDKit          3D

 21 22  0  0  0  0  0  0  0  0999 V2000
    2.4436   -0.0653   -0.2570 C   0  0  0  0  0  0  0  0  0  0  0  0
    1.3438    0.4612    0.5662 C   0  0  0  0  0  0  0  0  0  0  0  0
   -0.0106   -0.0751    0.3203 C   0  0  0  0  0  0  0  0  0  0  0  0
   -1.0697    0.5093    1.1954 C   0  0  0  0  0  0  0  0  0  0  0  0
   -1.7715    1.0475   -0.0574 C   0  0  0  0  0  0  0  0  0  0  0  0
   -0.7799    0.2903   -0.8695 C   0  0  0  0  0  0  0  0  0  0  0  0
   -1.1869   -1.1615   -0.9977 C   0  0  0  0  0  0  0  0  0  0  0  0
   -0.1386   -1.5007   -0.0209 C   0  0  0  0  0  0  0  0  0  0  0  0
    0.3957   -2.5193    0.3491 O   0  0  0  0  0  0  0  0  0  0  0  0
    2.9190   -0.9925    0.1701 H   0  0  0  0  0  0  0  0  0  0  0  0
    2.2263   -0.2791   -1.3017 H   0  0  0  0  0  0  0  0  0  0  0  0
    3.2815    0.6928   -0.2573 H   0  0  0  0  0  0  0  0  0  0  0  0
    1.2857    1.5875    0.4903 H   0  0  0  0  0  0  0  0  0  0  0  0
    1.5890    0.2767    1.6435 H   0  0  0  0  0  0  0  0  0  0  0  0
   -0.6923    1.3538    1.7909 H   0  0  0  0  0  0  0  0  0  0  0  0
   -1.6826   -0.2186    1.7641 H   0  0  0  0  0  0  0  0  0  0  0  0
   -1.7070    2.1495   -0.1696 H   0  0  0  0  0  0  0  0  0  0  0  0
   -2.8179    0.6888   -0.0770 H   0  0  0  0  0  0  0  0  0  0  0  0
   -0.3274    0.7530   -1.7267 H   0  0  0  0  0  0  0  0  0  0  0  0
   -1.1052   -1.5986   -1.9998 H   0  0  0  0  0  0  0  0  0  0  0  0
   -2.1948   -1.3995   -0.5553 H   0  0  0  0  0  0  0  0  0  0  0  0
  1  2  1  0
  2  3  1  0
  3  4  1  0
  4  5  1  0
  5  6  1  0
  6  7  1  0
  7  8  1  0
  8  9  2  0
  6  3  1  0
  8  3  1  0
  1 10  1  0
  1 11  1  0
  1 12  1  0
  2 13  1  0
  2 14  1  0
  4 15  1  0
  4 16  1  0
  5 17  1  0
  5 18  1  0
  6 19  1  0
  7 20  1  0
  7 21  1  0
M  END
