
     RDKit          3D

 21 22  0  0  0  0  0  0  0  0999 V2000
   -2.0569   -0.4292    1.2488 C   0  0  0  0  0  0  0  0  0  0  0  0
   -1.6285    0.2336   -0.0211 C   0  0  0  0  0  0  0  0  0  0  0  0
   -0.5863   -0.5244   -0.7868 C   0  0  0  0  0  0  0  0  0  0  0  0
   -0.9384   -1.8017   -1.1969 O   0  0  0  0  0  0  0  0  0  0  0  0
    0.2109    0.3420   -1.7514 C   0  0  0  0  0  0  0  0  0  0  0  0
    0.8619   -0.2780   -0.5764 C   0  0  0  0  0  0  0  0  0  0  0  0
    1.3541    0.5580    0.5776 C   0  0  0  0  0  0  0  0  0  0  0  0
    2.8082    0.7327    0.6836 C   0  0  0  0  0  0  0  0  0  0  0  0
    1.9136    1.7898    0.3576 O   0  0  0  0  0  0  0  0  0  0  0  0
   -1.2231   -0.8145    1.8323 H   0  0  0  0  0  0  0  0  0  0  0  0
   -2.8214   -1.1935    0.9949 H   0  0  0  0  0  0  0  0  0  0  0  0
   -2.6026    0.3486    1.8578 H   0  0  0  0  0  0  0  0  0  0  0  0
   -1.3432    1.2641    0.1999 H   0  0  0  0  0  0  0  0  0  0  0  0
   -2.5385    0.2936   -0.6869 H   0  0  0  0  0  0  0  0  0  0  0  0
   -0.9375   -2.4142   -0.3988 H   0  0  0  0  0  0  0  0  0  0  0  0
    0.3651   -0.1106   -2.7693 H   0  0  0  0  0  0  0  0  0  0  0  0
    0.0170    1.4241   -1.7947 H   0  0  0  0  0  0  0  0  0  0  0  0
    1.5656   -1.1217   -0.8125 H   0  0  0  0  0  0  0  0  0  0  0  0
    0.8079    0.4277    1.5325 H   0  0  0  0  0  0  0  0  0  0  0  0
    3.4998    0.5367   -0.1670 H   0  0  0  0  0  0  0  0  0  0  0  0
    3.2723    0.7371    1.6766 H   0  0  0  0  0  0  0  0  0  0  0  0
  1  2  1  0
  2  3  1  0
  3  4  1  0
  3  5  1  0
  5  6  1  0
  6  7  1  0
  7  8  1  0
  8  9  1  0
  6  3  1  0
  9  7  1  0
  1 10  1  0
  1 11  1  0
  1 12  1  0
  2 13  1  0
  2 14  1  0
  4 15  1  0
  5 16  1  0
  5 17  1  0
  6 18  1  0
  7 19  1  0
  8 20  1  0
  8 21  1  0
M  END
