
     RDKit          3D

 25 25  0  0  0  0  0  0  0  0999 V2000
    3.1413    0.2968    0.4444 C   0  0  0  0  0  0  0  0  0  0  0  0
    2.0146    1.2112    0.0153 C   0  0  0  0  0  0  0  0  0  0  0  0
    0.6870    0.5856    0.2682 C   0  0  0  0  0  0  0  0  0  0  0  0
   -0.2816    1.0505    1.0444 C   0  0  0  0  0  0  0  0  0  0  0  0
   -1.4577    0.1111    1.0205 C   0  0  0  0  0  0  0  0  0  0  0  0
   -1.2580   -0.5138   -0.3567 C   0  0  0  0  0  0  0  0  0  0  0  0
   -2.0058   -1.7878   -0.5307 C   0  0  0  0  0  0  0  0  0  0  0  0
   -1.5595    0.5165   -1.4200 C   0  0  0  0  0  0  0  0  0  0  0  0
    0.2451   -0.6990   -0.3360 C   0  0  0  0  0  0  0  0  0  0  0  0
    4.0644    0.8693    0.6910 H   0  0  0  0  0  0  0  0  0  0  0  0
    3.4199   -0.3977   -0.3968 H   0  0  0  0  0  0  0  0  0  0  0  0
    2.8333   -0.3680    1.2818 H   0  0  0  0  0  0  0  0  0  0  0  0
    2.1443    1.3920   -1.0865 H   0  0  0  0  0  0  0  0  0  0  0  0
    2.1416    2.1689    0.5163 H   0  0  0  0  0  0  0  0  0  0  0  0
   -0.2627    1.9585    1.6185 H   0  0  0  0  0  0  0  0  0  0  0  0
   -2.4123    0.6342    1.1038 H   0  0  0  0  0  0  0  0  0  0  0  0
   -1.3408   -0.6547    1.7890 H   0  0  0  0  0  0  0  0  0  0  0  0
   -1.8918   -2.3972    0.3700 H   0  0  0  0  0  0  0  0  0  0  0  0
   -3.0513   -1.5830   -0.7459 H   0  0  0  0  0  0  0  0  0  0  0  0
   -1.5538   -2.3375   -1.3898 H   0  0  0  0  0  0  0  0  0  0  0  0
   -2.6360    0.5844   -1.5667 H   0  0  0  0  0  0  0  0  0  0  0  0
   -1.1320    1.4881   -1.0531 H   0  0  0  0  0  0  0  0  0  0  0  0
   -1.0159    0.2844   -2.3742 H   0  0  0  0  0  0  0  0  0  0  0  0
    0.6672   -0.8509   -1.3460 H   0  0  0  0  0  0  0  0  0  0  0  0
    0.5006   -1.5617    0.3424 H   0  0  0  0  0  0  0  0  0  0  0  0
  1  2  1  0
  2  3  1  0
  3  4  2  0
  4  5  1  0
  5  6  1  0
  6  7  1  0
  6  8  1  0
  6  9  1  0
  9  3  1  0
  1 10  1  0
  1 11  1  0
  1 12  1  0
  2 13  1  0
  2 14  1  0
  4 15  1  0
  5 16  1  0
  5 17  1  0
  7 18  1  0
  7 19  1  0
  7 20  1  0
  8 21  1  0
  8 22  1  0
  8 23  1  0
  9 24  1  0
  9 25  1  0
M  END
