
     RDKit          3D

 23 25  0  0  0  0  0  0  0  0999 V2000
    2.4030    0.8424   -0.0109 C   0  0  0  0  0  0  0  0  0  0  0  0
    1.6103   -0.2405   -0.6664 C   0  0  0  0  0  0  0  0  0  0  0  0
    0.4102   -0.5960    0.1813 C   0  0  0  0  0  0  0  0  0  0  0  0
   -0.4658   -1.6845   -0.3878 C   0  0  0  0  0  0  0  0  0  0  0  0
   -1.6353   -2.0889    0.4422 C   0  0  0  0  0  0  0  0  0  0  0  0
   -1.7217   -0.7720   -0.1867 C   0  0  0  0  0  0  0  0  0  0  0  0
   -0.7489    0.3144    0.1280 C   0  0  0  0  0  0  0  0  0  0  0  0
   -0.7769    1.6335   -0.4684 C   0  0  0  0  0  0  0  0  0  0  0  0
   -1.0041    1.4254    1.0223 C   0  0  0  0  0  0  0  0  0  0  0  0
    2.0124    1.0732    1.0224 H   0  0  0  0  0  0  0  0  0  0  0  0
    2.4317    1.7913   -0.5567 H   0  0  0  0  0  0  0  0  0  0  0  0
    3.4694    0.5220    0.1719 H   0  0  0  0  0  0  0  0  0  0  0  0
    1.3206   -0.0029   -1.7076 H   0  0  0  0  0  0  0  0  0  0  0  0
    2.2532   -1.1593   -0.7097 H   0  0  0  0  0  0  0  0  0  0  0  0
    0.7708   -0.8079    1.2297 H   0  0  0  0  0  0  0  0  0  0  0  0
   -0.3067   -2.0556   -1.4007 H   0  0  0  0  0  0  0  0  0  0  0  0
   -2.2799   -2.8938    0.0885 H   0  0  0  0  0  0  0  0  0  0  0  0
   -1.4967   -2.0909    1.5539 H   0  0  0  0  0  0  0  0  0  0  0  0
   -2.3715   -0.6668   -1.0737 H   0  0  0  0  0  0  0  0  0  0  0  0
   -1.7237    1.9132   -1.0180 H   0  0  0  0  0  0  0  0  0  0  0  0
    0.0819    2.2092   -0.8089 H   0  0  0  0  0  0  0  0  0  0  0  0
   -0.2139    1.7900    1.7256 H   0  0  0  0  0  0  0  0  0  0  0  0
   -2.0184    1.5446    1.4294 H   0  0  0  0  0  0  0  0  0  0  0  0
  1  2  1  0
  2  3  1  0
  3  4  1  0
  4  5  1  0
  5  6  1  0
  6  7  1  0
  7  8  1  0
  8  9  1  0
  7  3  1  0
  6  4  1  0
  9  7  1  0
  1 10  1  0
  1 11  1  0
  1 12  1  0
  2 13  1  0
  2 14  1  0
  3 15  1  0
  4 16  1  0
  5 17  1  0
  5 18  1  0
  6 19  1  0
  8 20  1  0
  8 21  1  0
  9 22  1  0
  9 23  1  0
M  END
