
     RDKit          3D

 25 25  0  0  0  0  0  0  0  0999 V2000
    2.7244    0.0177   -0.2769 C   0  0  0  0  0  0  0  0  0  0  0  0
    1.9583    0.0006    1.0260 C   0  0  0  0  0  0  0  0  0  0  0  0
    0.5056   -0.0649    0.6821 C   0  0  0  0  0  0  0  0  0  0  0  0
   -0.3325    0.9258    1.0721 C   0  0  0  0  0  0  0  0  0  0  0  0
   -1.7089    0.6176    0.6050 C   0  0  0  0  0  0  0  0  0  0  0  0
   -2.5306    1.8159    0.3099 C   0  0  0  0  0  0  0  0  0  0  0  0
   -1.3840   -0.2017   -0.6538 C   0  0  0  0  0  0  0  0  0  0  0  0
   -0.2737   -1.0720   -0.0415 C   0  0  0  0  0  0  0  0  0  0  0  0
    0.4335   -1.8813   -1.0555 C   0  0  0  0  0  0  0  0  0  0  0  0
    3.4211    0.9006   -0.3162 H   0  0  0  0  0  0  0  0  0  0  0  0
    2.0980    0.0959   -1.1694 H   0  0  0  0  0  0  0  0  0  0  0  0
    3.4018   -0.8588   -0.3515 H   0  0  0  0  0  0  0  0  0  0  0  0
    2.2153    0.9327    1.5701 H   0  0  0  0  0  0  0  0  0  0  0  0
    2.2591   -0.8775    1.6439 H   0  0  0  0  0  0  0  0  0  0  0  0
   -0.0935    1.8182    1.6334 H   0  0  0  0  0  0  0  0  0  0  0  0
   -2.2000   -0.0764    1.2935 H   0  0  0  0  0  0  0  0  0  0  0  0
   -2.2387    2.6247    1.0253 H   0  0  0  0  0  0  0  0  0  0  0  0
   -3.5902    1.5565    0.3764 H   0  0  0  0  0  0  0  0  0  0  0  0
   -2.3333    2.2054   -0.6964 H   0  0  0  0  0  0  0  0  0  0  0  0
   -0.9990    0.4438   -1.4484 H   0  0  0  0  0  0  0  0  0  0  0  0
   -2.1940   -0.8699   -0.9345 H   0  0  0  0  0  0  0  0  0  0  0  0
   -0.8338   -1.7031    0.7125 H   0  0  0  0  0  0  0  0  0  0  0  0
    1.4612   -2.1750   -0.7696 H   0  0  0  0  0  0  0  0  0  0  0  0
   -0.1794   -2.8261   -1.1918 H   0  0  0  0  0  0  0  0  0  0  0  0
    0.4133   -1.3486   -2.0426 H   0  0  0  0  0  0  0  0  0  0  0  0
  1  2  1  0
  2  3  1  0
  3  4  2  0
  4  5  1  0
  5  6  1  0
  5  7  1  0
  7  8  1  0
  8  9  1  0
  8  3  1  0
  1 10  1  0
  1 11  1  0
  1 12  1  0
  2 13  1  0
  2 14  1  0
  4 15  1  0
  5 16  1  0
  6 17  1  0
  6 18  1  0
  6 19  1  0
  7 20  1  0
  7 21  1  0
  8 22  1  0
  9 23  1  0
  9 24  1  0
  9 25  1  0
M  END
