
     RDKit          3D

 20 21  0  0  0  0  0  0  0  0999 V2000
    1.9697    0.8207   -0.2933 C   0  0  0  0  0  0  0  0  0  0  0  0
    1.4549   -0.5673   -0.2032 C   0  0  0  0  0  0  0  0  0  0  0  0
    0.0921   -0.7694    0.3202 C   0  0  0  0  0  0  0  0  0  0  0  0
   -0.3735   -2.1072    0.3991 O   0  0  0  0  0  0  0  0  0  0  0  0
   -1.4653   -1.9244   -0.4480 C   0  0  0  0  0  0  0  0  0  0  0  0
   -1.1117   -0.4734   -0.4833 C   0  0  0  0  0  0  0  0  0  0  0  0
   -0.8346    0.2105    0.8494 C   0  0  0  0  0  0  0  0  0  0  0  0
   -0.7738    1.6886    0.7294 C   0  0  0  0  0  0  0  0  0  0  0  0
    3.0872    0.8529   -0.4405 H   0  0  0  0  0  0  0  0  0  0  0  0
    1.7133    1.4565    0.5506 H   0  0  0  0  0  0  0  0  0  0  0  0
    1.5815    1.2703   -1.2424 H   0  0  0  0  0  0  0  0  0  0  0  0
    1.5630   -1.1244   -1.1719 H   0  0  0  0  0  0  0  0  0  0  0  0
    2.1544   -1.1240    0.4882 H   0  0  0  0  0  0  0  0  0  0  0  0
   -2.4372   -2.0857    0.0734 H   0  0  0  0  0  0  0  0  0  0  0  0
   -1.3678   -2.3760   -1.4438 H   0  0  0  0  0  0  0  0  0  0  0  0
   -1.1038    0.0952   -1.4089 H   0  0  0  0  0  0  0  0  0  0  0  0
   -1.5668   -0.1264    1.6316 H   0  0  0  0  0  0  0  0  0  0  0  0
   -1.8506    2.0545    0.7971 H   0  0  0  0  0  0  0  0  0  0  0  0
   -0.2805    2.2171    1.5700 H   0  0  0  0  0  0  0  0  0  0  0  0
   -0.4504    2.0121   -0.2738 H   0  0  0  0  0  0  0  0  0  0  0  0
  1  2  1  0
  2  3  1  0
  3  4  1  0
  4  5  1  0
  5  6  1  0
  6  7  1  0
  7  8  1  0
  6  3  1  0
  7  3  1  0
  1  9  1  0
  1 10  1  0
  1 11  1  0
  2 12  1  0
  2 13  1  0
  5 14  1  0
  5 15  1  0
  6 16  1  0
  7 17  1  0
  8 18  1  0
  8 19  1  0
  8 20  1  0
M  END
