
     RDKit          3D

 18 18  0  0  0  0  0  0  0  0999 V2000
    2.1438   -0.4400    0.5955 C   0  0  0  0  0  0  0  0  0  0  0  0
    0.8161   -0.9986    0.1544 C   0  0  0  0  0  0  0  0  0  0  0  0
   -0.1879    0.1429    0.0388 C   0  0  0  0  0  0  0  0  0  0  0  0
    0.2794    1.2154   -0.9189 C   0  0  0  0  0  0  0  0  0  0  0  0
    0.2867    2.4263   -0.6182 O   0  0  0  0  0  0  0  0  0  0  0  0
   -1.4872   -0.5461   -0.5132 C   0  0  0  0  0  0  0  0  0  0  0  0
   -1.4022    0.3252    0.7499 C   0  0  0  0  0  0  0  0  0  0  0  0
   -2.0772    1.5664    0.5986 O   0  0  0  0  0  0  0  0  0  0  0  0
    1.9729    0.2162    1.5008 H   0  0  0  0  0  0  0  0  0  0  0  0
    2.8200   -1.2832    0.8063 H   0  0  0  0  0  0  0  0  0  0  0  0
    2.5756    0.1925   -0.2258 H   0  0  0  0  0  0  0  0  0  0  0  0
    0.9183   -1.5338   -0.7946 H   0  0  0  0  0  0  0  0  0  0  0  0
    0.4828   -1.7740    0.9057 H   0  0  0  0  0  0  0  0  0  0  0  0
    0.6047    0.9584   -1.9060 H   0  0  0  0  0  0  0  0  0  0  0  0
   -1.8389   -0.0616   -1.4494 H   0  0  0  0  0  0  0  0  0  0  0  0
   -1.5349   -1.6294   -0.4546 H   0  0  0  0  0  0  0  0  0  0  0  0
   -1.7381   -0.2528    1.6809 H   0  0  0  0  0  0  0  0  0  0  0  0
   -2.6341    1.4764   -0.2349 H   0  0  0  0  0  0  0  0  0  0  0  0
  1  2  1  0
  2  3  1  0
  3  4  1  0
  4  5  2  0
  3  6  1  0
  6  7  1  0
  7  8  1  0
  7  3  1  0
  1  9  1  0
  1 10  1  0
  1 11  1  0
  2 12  1  0
  2 13  1  0
  4 14  1  0
  6 15  1  0
  6 16  1  0
  7 17  1  0
  8 18  1  0
M  END
