
     RDKit          3D

 25 26  0  0  0  0  0  0  0  0999 V2000
   -2.2887   -1.2105    0.4521 C   0  0  0  0  0  0  0  0  0  0  0  0
   -1.2767   -0.1585    0.9321 C   0  0  0  0  0  0  0  0  0  0  0  0
   -0.2962    0.0617    0.0055 C   0  0  0  0  0  0  0  0  0  0  0  0
   -0.3960    0.5429   -1.3914 C   0  0  0  0  0  0  0  0  0  0  0  0
    1.0870    0.3195   -1.2023 C   0  0  0  0  0  0  0  0  0  0  0  0
    0.9173    0.9408    0.1456 C   0  0  0  0  0  0  0  0  0  0  0  0
    0.6747    2.4054    0.2042 C   0  0  0  0  0  0  0  0  0  0  0  0
    0.6708   -0.9740   -0.5481 C   0  0  0  0  0  0  0  0  0  0  0  0
    1.6257   -1.5584    0.4371 C   0  0  0  0  0  0  0  0  0  0  0  0
   -3.2989   -0.9835    0.8369 H   0  0  0  0  0  0  0  0  0  0  0  0
   -2.0213   -2.2188    0.8411 H   0  0  0  0  0  0  0  0  0  0  0  0
   -2.3145   -1.2765   -0.6468 H   0  0  0  0  0  0  0  0  0  0  0  0
   -0.9179   -0.5454    1.9117 H   0  0  0  0  0  0  0  0  0  0  0  0
   -1.8753    0.7451    1.1772 H   0  0  0  0  0  0  0  0  0  0  0  0
   -0.7854   -0.2031   -2.1259 H   0  0  0  0  0  0  0  0  0  0  0  0
   -0.7102    1.5687   -1.5754 H   0  0  0  0  0  0  0  0  0  0  0  0
    1.8094    0.4560   -1.8776 H   0  0  0  0  0  0  0  0  0  0  0  0
    1.6260    0.6083    0.9354 H   0  0  0  0  0  0  0  0  0  0  0  0
    1.4904    2.8988    0.7757 H   0  0  0  0  0  0  0  0  0  0  0  0
    0.6410    2.9075   -0.7823 H   0  0  0  0  0  0  0  0  0  0  0  0
   -0.2590    2.6107    0.8051 H   0  0  0  0  0  0  0  0  0  0  0  0
    0.2504   -1.6713   -1.2793 H   0  0  0  0  0  0  0  0  0  0  0  0
    1.6549   -2.6602    0.2650 H   0  0  0  0  0  0  0  0  0  0  0  0
    2.6510   -1.1885    0.2127 H   0  0  0  0  0  0  0  0  0  0  0  0
    1.3413   -1.4167    1.4921 H   0  0  0  0  0  0  0  0  0  0  0  0
  1  2  1  0
  2  3  1  0
  3  4  1  0
  4  5  1  0
  5  6  1  0
  6  7  1  0
  5  8  1  0
  8  9  1  0
  6  3  1  0
  8  3  1  0
  1 10  1  0
  1 11  1  0
  1 12  1  0
  2 13  1  0
  2 14  1  0
  4 15  1  0
  4 16  1  0
  5 17  1  0
  6 18  1  0
  7 19  1  0
  7 20  1  0
  7 21  1  0
  8 22  1  0
  9 23  1  0
  9 24  1  0
  9 25  1  0
M  END
