
     RDKit          3D

 21 21  0  0  0  0  0  0  0  0999 V2000
    2.2122    0.3053    0.5773 C   0  0  0  0  0  0  0  0  0  0  0  0
    1.2367   -0.7502    0.2192 C   0  0  0  0  0  0  0  0  0  0  0  0
   -0.1821   -0.2988    0.1121 C   0  0  0  0  0  0  0  0  0  0  0  0
   -0.7365    0.2888    1.3919 C   0  0  0  0  0  0  0  0  0  0  0  0
   -1.0771   -1.3270   -0.5536 C   0  0  0  0  0  0  0  0  0  0  0  0
   -1.8074   -0.1836   -1.1434 C   0  0  0  0  0  0  0  0  0  0  0  0
   -2.9282    0.0321   -1.5244 O   0  0  0  0  0  0  0  0  0  0  0  0
   -0.5375    0.5757   -1.0536 C   0  0  0  0  0  0  0  0  0  0  0  0
   -0.6708    1.9169   -0.7198 O   0  0  0  0  0  0  0  0  0  0  0  0
    2.2941    0.4212    1.6908 H   0  0  0  0  0  0  0  0  0  0  0  0
    1.8740    1.2725    0.1568 H   0  0  0  0  0  0  0  0  0  0  0  0
    3.2290    0.1304    0.2065 H   0  0  0  0  0  0  0  0  0  0  0  0
    1.2908   -1.5889    0.9437 H   0  0  0  0  0  0  0  0  0  0  0  0
    1.5442   -1.1877   -0.7631 H   0  0  0  0  0  0  0  0  0  0  0  0
   -1.8187    0.1280    1.4865 H   0  0  0  0  0  0  0  0  0  0  0  0
   -0.1562   -0.1023    2.2501 H   0  0  0  0  0  0  0  0  0  0  0  0
   -0.5569    1.3861    1.3622 H   0  0  0  0  0  0  0  0  0  0  0  0
   -0.5092   -1.8626   -1.3351 H   0  0  0  0  0  0  0  0  0  0  0  0
   -1.6557   -1.9603    0.1432 H   0  0  0  0  0  0  0  0  0  0  0  0
    0.0563    0.4084   -1.9814 H   0  0  0  0  0  0  0  0  0  0  0  0
   -1.1013    2.3962   -1.4661 H   0  0  0  0  0  0  0  0  0  0  0  0
  1  2  1  0
  2  3  1  0
  3  4  1  0
  3  5  1  0
  5  6  1  0
  6  7  2  0
  6  8  1  0
  8  9  1  0
  8  3  1  0
  1 10  1  0
  1 11  1  0
  1 12  1  0
  2 13  1  0
  2 14  1  0
  4 15  1  0
  4 16  1  0
  4 17  1  0
  5 18  1  0
  5 19  1  0
  8 20  1  0
  9 21  1  0
M  END
