
     RDKit          3D

 22 22  0  0  0  0  0  0  0  0999 V2000
    2.7152    0.2454   -0.2729 C   0  0  0  0  0  0  0  0  0  0  0  0
    1.3147    0.7934   -0.3518 C   0  0  0  0  0  0  0  0  0  0  0  0
    0.2638   -0.2687   -0.4682 C   0  0  0  0  0  0  0  0  0  0  0  0
    0.3302   -1.1843    0.7532 C   0  0  0  0  0  0  0  0  0  0  0  0
   -0.3962   -0.1857    1.4329 O   0  0  0  0  0  0  0  0  0  0  0  0
   -1.0529    0.0341    0.1991 C   0  0  0  0  0  0  0  0  0  0  0  0
   -1.5691    1.4176    0.0811 C   0  0  0  0  0  0  0  0  0  0  0  0
   -2.0667   -1.0268   -0.0931 C   0  0  0  0  0  0  0  0  0  0  0  0
    2.7313   -0.7560   -0.7401 H   0  0  0  0  0  0  0  0  0  0  0  0
    2.9966    0.1247    0.7947 H   0  0  0  0  0  0  0  0  0  0  0  0
    3.4412    0.8720   -0.8203 H   0  0  0  0  0  0  0  0  0  0  0  0
    1.1203    1.3566    0.5825 H   0  0  0  0  0  0  0  0  0  0  0  0
    1.2970    1.4718   -1.2521 H   0  0  0  0  0  0  0  0  0  0  0  0
    0.2245   -0.8404   -1.4014 H   0  0  0  0  0  0  0  0  0  0  0  0
    1.3281   -1.3764    1.1437 H   0  0  0  0  0  0  0  0  0  0  0  0
   -0.3025   -2.0881    0.6444 H   0  0  0  0  0  0  0  0  0  0  0  0
   -1.7273    1.8204    1.1172 H   0  0  0  0  0  0  0  0  0  0  0  0
   -0.9735    2.0995   -0.5288 H   0  0  0  0  0  0  0  0  0  0  0  0
   -2.5946    1.4013   -0.3704 H   0  0  0  0  0  0  0  0  0  0  0  0
   -3.0146   -0.6029   -0.5190 H   0  0  0  0  0  0  0  0  0  0  0  0
   -1.7241   -1.7917   -0.8172 H   0  0  0  0  0  0  0  0  0  0  0  0
   -2.3412   -1.5159    0.8864 H   0  0  0  0  0  0  0  0  0  0  0  0
  1  2  1  0
  2  3  1  0
  3  4  1  0
  4  5  1  0
  5  6  1  0
  6  7  1  0
  6  8  1  0
  6  3  1  0
  1  9  1  0
  1 10  1  0
  1 11  1  0
  2 12  1  0
  2 13  1  0
  3 14  1  0
  4 15  1  0
  4 16  1  0
  7 17  1  0
  7 18  1  0
  7 19  1  0
  8 20  1  0
  8 21  1  0
  8 22  1  0
M  END
