
     RDKit          3D

 23 23  0  0  0  0  0  0  0  0999 V2000
    1.7860   -1.1069   -0.8301 C   0  0  0  0  0  0  0  0  0  0  0  0
    0.8322   -0.0558   -1.2705 C   0  0  0  0  0  0  0  0  0  0  0  0
   -0.1825    0.3851   -0.2749 C   0  0  0  0  0  0  0  0  0  0  0  0
   -1.1091   -0.6367    0.2386 C   0  0  0  0  0  0  0  0  0  0  0  0
   -0.5458   -1.8081    0.9524 C   0  0  0  0  0  0  0  0  0  0  0  0
    0.4698    1.2294    0.7954 C   0  0  0  0  0  0  0  0  0  0  0  0
   -0.1725    2.4539    0.7542 O   0  0  0  0  0  0  0  0  0  0  0  0
   -1.3444    2.2533    0.0313 C   0  0  0  0  0  0  0  0  0  0  0  0
   -0.9741    1.3489   -0.9481 O   0  0  0  0  0  0  0  0  0  0  0  0
    1.5894   -2.1101   -1.3081 H   0  0  0  0  0  0  0  0  0  0  0  0
    2.8458   -0.8863   -1.1624 H   0  0  0  0  0  0  0  0  0  0  0  0
    1.8435   -1.1634    0.2727 H   0  0  0  0  0  0  0  0  0  0  0  0
    1.4248    0.8663   -1.5494 H   0  0  0  0  0  0  0  0  0  0  0  0
    0.3439   -0.3641   -2.2186 H   0  0  0  0  0  0  0  0  0  0  0  0
   -1.8494   -0.1524    0.8991 H   0  0  0  0  0  0  0  0  0  0  0  0
   -1.6830   -1.0454   -0.6444 H   0  0  0  0  0  0  0  0  0  0  0  0
   -1.4273   -2.3309    1.4368 H   0  0  0  0  0  0  0  0  0  0  0  0
    0.0795   -1.5208    1.8447 H   0  0  0  0  0  0  0  0  0  0  0  0
   -0.0851   -2.5846    0.3297 H   0  0  0  0  0  0  0  0  0  0  0  0
    1.5198    1.3919    0.5318 H   0  0  0  0  0  0  0  0  0  0  0  0
    0.4006    0.7646    1.7996 H   0  0  0  0  0  0  0  0  0  0  0  0
   -2.0935    1.8610    0.7481 H   0  0  0  0  0  0  0  0  0  0  0  0
   -1.6687    3.2110   -0.4279 H   0  0  0  0  0  0  0  0  0  0  0  0
  1  2  1  0
  2  3  1  0
  3  4  1  0
  4  5  1  0
  3  6  1  0
  6  7  1  0
  7  8  1  0
  8  9  1  0
  9  3  1  0
  1 10  1  0
  1 11  1  0
  1 12  1  0
  2 13  1  0
  2 14  1  0
  4 15  1  0
  4 16  1  0
  5 17  1  0
  5 18  1  0
  5 19  1  0
  6 20  1  0
  6 21  1  0
  8 22  1  0
  8 23  1  0
M  END
