
     RDKit          3D

 25 25  0  0  0  0  0  0  0  0999 V2000
   -1.0847    1.3901    1.4671 C   0  0  0  0  0  0  0  0  0  0  0  0
   -1.1781    0.9978    0.0435 C   0  0  0  0  0  0  0  0  0  0  0  0
   -0.4080   -0.1888   -0.3903 C   0  0  0  0  0  0  0  0  0  0  0  0
    1.0744   -0.1828   -0.2346 C   0  0  0  0  0  0  0  0  0  0  0  0
    1.7657    0.9252   -0.9874 C   0  0  0  0  0  0  0  0  0  0  0  0
    1.5369   -0.1637    1.2058 C   0  0  0  0  0  0  0  0  0  0  0  0
   -1.0696   -1.5007   -0.0716 C   0  0  0  0  0  0  0  0  0  0  0  0
   -1.0648   -1.7839   -1.5742 C   0  0  0  0  0  0  0  0  0  0  0  0
   -0.7212   -0.4433   -1.7501 O   0  0  0  0  0  0  0  0  0  0  0  0
   -0.9096    0.5841    2.1836 H   0  0  0  0  0  0  0  0  0  0  0  0
   -0.3608    2.2059    1.6707 H   0  0  0  0  0  0  0  0  0  0  0  0
   -2.0759    1.8465    1.7659 H   0  0  0  0  0  0  0  0  0  0  0  0
   -2.2649    0.7668   -0.1679 H   0  0  0  0  0  0  0  0  0  0  0  0
   -0.9668    1.8913   -0.5792 H   0  0  0  0  0  0  0  0  0  0  0  0
    1.5118   -1.1358   -0.6633 H   0  0  0  0  0  0  0  0  0  0  0  0
    1.3844    1.0476   -2.0108 H   0  0  0  0  0  0  0  0  0  0  0  0
    2.8473    0.6889   -1.0780 H   0  0  0  0  0  0  0  0  0  0  0  0
    1.6914    1.8355   -0.3735 H   0  0  0  0  0  0  0  0  0  0  0  0
    0.9479   -0.8870    1.8195 H   0  0  0  0  0  0  0  0  0  0  0  0
    1.5996    0.8395    1.6401 H   0  0  0  0  0  0  0  0  0  0  0  0
    2.5833   -0.5760    1.2226 H   0  0  0  0  0  0  0  0  0  0  0  0
   -2.0939   -1.4296    0.3307 H   0  0  0  0  0  0  0  0  0  0  0  0
   -0.4634   -2.2521    0.4327 H   0  0  0  0  0  0  0  0  0  0  0  0
   -0.2402   -2.4388   -1.9061 H   0  0  0  0  0  0  0  0  0  0  0  0
   -2.0408   -2.0368   -1.9953 H   0  0  0  0  0  0  0  0  0  0  0  0
  1  2  1  0
  2  3  1  0
  3  4  1  0
  4  5  1  0
  4  6  1  0
  3  7  1  0
  7  8  1  0
  8  9  1  0
  9  3  1  0
  1 10  1  0
  1 11  1  0
  1 12  1  0
  2 13  1  0
  2 14  1  0
  4 15  1  0
  5 16  1  0
  5 17  1  0
  5 18  1  0
  6 19  1  0
  6 20  1  0
  6 21  1  0
  7 22  1  0
  7 23  1  0
  8 24  1  0
  8 25  1  0
M  END
