
     RDKit          3D

 23 24  0  0  0  0  0  0  0  0999 V2000
    2.6744   -0.6968    0.1264 C   0  0  0  0  0  0  0  0  0  0  0  0
    1.6310    0.2894    0.5916 C   0  0  0  0  0  0  0  0  0  0  0  0
    0.3372    0.0394   -0.1197 C   0  0  0  0  0  0  0  0  0  0  0  0
   -0.2164   -1.3438    0.1189 C   0  0  0  0  0  0  0  0  0  0  0  0
   -1.6054   -1.1886   -0.4766 C   0  0  0  0  0  0  0  0  0  0  0  0
   -1.7233   -0.3603    0.7707 C   0  0  0  0  0  0  0  0  0  0  0  0
   -0.8482   -1.3003    1.3644 O   0  0  0  0  0  0  0  0  0  0  0  0
   -0.7885    0.8126    0.5952 C   0  0  0  0  0  0  0  0  0  0  0  0
   -1.3345    1.9124   -0.2258 C   0  0  0  0  0  0  0  0  0  0  0  0
    2.2969   -1.3233   -0.7093 H   0  0  0  0  0  0  0  0  0  0  0  0
    3.0112   -1.3112    0.9907 H   0  0  0  0  0  0  0  0  0  0  0  0
    3.6015   -0.1662   -0.2365 H   0  0  0  0  0  0  0  0  0  0  0  0
    1.4649    0.2320    1.6681 H   0  0  0  0  0  0  0  0  0  0  0  0
    1.9744    1.3041    0.3086 H   0  0  0  0  0  0  0  0  0  0  0  0
    0.3482    0.2242   -1.1893 H   0  0  0  0  0  0  0  0  0  0  0  0
    0.3591   -2.1954   -0.1431 H   0  0  0  0  0  0  0  0  0  0  0  0
   -1.5860   -0.6156   -1.4258 H   0  0  0  0  0  0  0  0  0  0  0  0
   -2.2411   -2.0682   -0.4489 H   0  0  0  0  0  0  0  0  0  0  0  0
   -2.6708   -0.2124    1.2262 H   0  0  0  0  0  0  0  0  0  0  0  0
   -0.4095    1.1967    1.5593 H   0  0  0  0  0  0  0  0  0  0  0  0
   -1.7143    2.7198    0.4655 H   0  0  0  0  0  0  0  0  0  0  0  0
   -0.4777    2.4074   -0.7662 H   0  0  0  0  0  0  0  0  0  0  0  0
   -2.0832    1.6442   -0.9697 H   0  0  0  0  0  0  0  0  0  0  0  0
  1  2  1  0
  2  3  1  0
  3  4  1  0
  4  5  1  0
  5  6  1  0
  6  7  1  0
  6  8  1  0
  8  9  1  0
  8  3  1  0
  7  4  1  0
  1 10  1  0
  1 11  1  0
  1 12  1  0
  2 13  1  0
  2 14  1  0
  3 15  1  0
  4 16  1  0
  5 17  1  0
  5 18  1  0
  6 19  1  0
  8 20  1  0
  9 21  1  0
  9 22  1  0
  9 23  1  0
M  END
