
     RDKit          3D

 23 24  0  0  0  0  0  0  0  0999 V2000
    3.0132    0.5330    0.3988 C   0  0  0  0  0  0  0  0  0  0  0  0
    1.9727   -0.5614    0.6724 C   0  0  0  0  0  0  0  0  0  0  0  0
    0.9179   -0.4077   -0.3681 C   0  0  0  0  0  0  0  0  0  0  0  0
   -0.2265   -1.4402   -0.2465 C   0  0  0  0  0  0  0  0  0  0  0  0
   -0.8938   -0.3650   -1.1064 C   0  0  0  0  0  0  0  0  0  0  0  0
   -1.3700    0.9055   -0.6974 C   0  0  0  0  0  0  0  0  0  0  0  0
   -2.7876    0.9249   -0.1015 C   0  0  0  0  0  0  0  0  0  0  0  0
   -2.7885    0.0954    1.0259 O   0  0  0  0  0  0  0  0  0  0  0  0
   -0.2398    0.4990    0.0581 C   0  0  0  0  0  0  0  0  0  0  0  0
    3.7825    0.5619    1.1680 H   0  0  0  0  0  0  0  0  0  0  0  0
    2.4534    1.4963    0.3347 H   0  0  0  0  0  0  0  0  0  0  0  0
    3.4111    0.3192   -0.6247 H   0  0  0  0  0  0  0  0  0  0  0  0
    1.6286   -0.4460    1.6979 H   0  0  0  0  0  0  0  0  0  0  0  0
    2.4990   -1.5373    0.5755 H   0  0  0  0  0  0  0  0  0  0  0  0
    1.2266   -0.1749   -1.3800 H   0  0  0  0  0  0  0  0  0  0  0  0
   -0.6083   -1.5021    0.7691 H   0  0  0  0  0  0  0  0  0  0  0  0
   -0.0506   -2.3686   -0.7919 H   0  0  0  0  0  0  0  0  0  0  0  0
   -0.2925   -0.3396   -2.0723 H   0  0  0  0  0  0  0  0  0  0  0  0
   -1.2461    1.8084   -1.3674 H   0  0  0  0  0  0  0  0  0  0  0  0
   -2.9904    1.9721    0.1711 H   0  0  0  0  0  0  0  0  0  0  0  0
   -3.4763    0.5532   -0.8603 H   0  0  0  0  0  0  0  0  0  0  0  0
   -3.4109   -0.6659    0.8729 H   0  0  0  0  0  0  0  0  0  0  0  0
   -0.5240    0.1396    1.1007 H   0  0  0  0  0  0  0  0  0  0  0  0
  1  2  1  0
  2  3  1  0
  3  4  1  0
  4  5  1  0
  5  6  1  0
  6  7  1  0
  7  8  1  0
  6  9  1  0
  9  3  1  0
  9  5  1  0
  1 10  1  0
  1 11  1  0
  1 12  1  0
  2 13  1  0
  2 14  1  0
  3 15  1  0
  4 16  1  0
  4 17  1  0
  5 18  1  0
  6 19  1  0
  7 20  1  0
  7 21  1  0
  8 22  1  0
  9 23  1  0
M  END
