
     RDKit          3D

 27 27  0  0  0  0  0  0  0  0999 V2000
   -1.1292   -2.8426   -0.4451 C   0  0  0  0  0  0  0  0  0  0  0  0
   -0.5823   -1.7488    0.4770 C   0  0  0  0  0  0  0  0  0  0  0  0
    0.1847   -0.7140   -0.3169 C   0  0  0  0  0  0  0  0  0  0  0  0
    0.7653    0.4015    0.4709 C   0  0  0  0  0  0  0  0  0  0  0  0
    2.0353    1.0717    0.0854 C   0  0  0  0  0  0  0  0  0  0  0  0
    3.2278    0.1522    0.0374 C   0  0  0  0  0  0  0  0  0  0  0  0
   -0.3916    0.6459   -0.4871 C   0  0  0  0  0  0  0  0  0  0  0  0
   -1.7591    0.8899    0.1084 C   0  0  0  0  0  0  0  0  0  0  0  0
   -2.1734    2.3241   -0.1670 C   0  0  0  0  0  0  0  0  0  0  0  0
   -0.4461   -3.7047   -0.4195 H   0  0  0  0  0  0  0  0  0  0  0  0
   -1.1452   -2.4616   -1.5002 H   0  0  0  0  0  0  0  0  0  0  0  0
   -2.1349   -3.1305   -0.1008 H   0  0  0  0  0  0  0  0  0  0  0  0
    0.0859   -2.2189    1.2201 H   0  0  0  0  0  0  0  0  0  0  0  0
   -1.4228   -1.3000    1.0578 H   0  0  0  0  0  0  0  0  0  0  0  0
    0.7276   -1.1415   -1.1800 H   0  0  0  0  0  0  0  0  0  0  0  0
    0.5028    0.4604    1.5516 H   0  0  0  0  0  0  0  0  0  0  0  0
    2.2398    1.8839    0.8110 H   0  0  0  0  0  0  0  0  0  0  0  0
    1.9693    1.5573   -0.9168 H   0  0  0  0  0  0  0  0  0  0  0  0
    4.1174    0.7746   -0.1932 H   0  0  0  0  0  0  0  0  0  0  0  0
    3.1322   -0.6039   -0.7620 H   0  0  0  0  0  0  0  0  0  0  0  0
    3.4225   -0.3273    1.0277 H   0  0  0  0  0  0  0  0  0  0  0  0
   -0.2023    1.1583   -1.4397 H   0  0  0  0  0  0  0  0  0  0  0  0
   -1.7662    0.7106    1.2030 H   0  0  0  0  0  0  0  0  0  0  0  0
   -2.4687    0.2390   -0.4424 H   0  0  0  0  0  0  0  0  0  0  0  0
   -2.3350    2.4344   -1.2447 H   0  0  0  0  0  0  0  0  0  0  0  0
   -3.1147    2.5227    0.4110 H   0  0  0  0  0  0  0  0  0  0  0  0
   -1.3394    2.9671    0.1846 H   0  0  0  0  0  0  0  0  0  0  0  0
  1  2  1  0
  2  3  1  0
  3  4  1  0
  4  5  1  0
  5  6  1  0
  4  7  1  0
  7  8  1  0
  8  9  1  0
  7  3  1  0
  1 10  1  0
  1 11  1  0
  1 12  1  0
  2 13  1  0
  2 14  1  0
  3 15  1  0
  4 16  1  0
  5 17  1  0
  5 18  1  0
  6 19  1  0
  6 20  1  0
  6 21  1  0
  7 22  1  0
  8 23  1  0
  8 24  1  0
  9 25  1  0
  9 26  1  0
  9 27  1  0
M  END
