
     RDKit          3D

 25 25  0  0  0  0  0  0  0  0999 V2000
    2.2170    1.3675    0.1261 C   0  0  0  0  0  0  0  0  0  0  0  0
    1.8753   -0.0804    0.3630 C   0  0  0  0  0  0  0  0  0  0  0  0
    0.6048   -0.5288   -0.3019 C   0  0  0  0  0  0  0  0  0  0  0  0
    0.3874   -2.0171    0.0209 C   0  0  0  0  0  0  0  0  0  0  0  0
   -1.0815   -1.7048   -0.0144 C   0  0  0  0  0  0  0  0  0  0  0  0
   -1.8779   -2.3837    0.8821 O   0  0  0  0  0  0  0  0  0  0  0  0
   -0.6839   -0.2932    0.4505 C   0  0  0  0  0  0  0  0  0  0  0  0
   -1.6510    0.6825   -0.1222 C   0  0  0  0  0  0  0  0  0  0  0  0
   -1.0745    2.0734   -0.2549 C   0  0  0  0  0  0  0  0  0  0  0  0
    1.8265    1.7612   -0.8327 H   0  0  0  0  0  0  0  0  0  0  0  0
    1.8562    1.9622    1.0097 H   0  0  0  0  0  0  0  0  0  0  0  0
    3.3396    1.5037    0.1698 H   0  0  0  0  0  0  0  0  0  0  0  0
    2.7116   -0.6972   -0.0709 H   0  0  0  0  0  0  0  0  0  0  0  0
    1.8578   -0.2866    1.4382 H   0  0  0  0  0  0  0  0  0  0  0  0
    0.4947   -0.2644   -1.3485 H   0  0  0  0  0  0  0  0  0  0  0  0
    0.7768   -2.6520   -0.7879 H   0  0  0  0  0  0  0  0  0  0  0  0
    0.7572   -2.2280    1.0380 H   0  0  0  0  0  0  0  0  0  0  0  0
   -1.5063   -1.7164   -1.0286 H   0  0  0  0  0  0  0  0  0  0  0  0
   -2.7870   -2.4950    0.5161 H   0  0  0  0  0  0  0  0  0  0  0  0
   -0.5975   -0.3150    1.5512 H   0  0  0  0  0  0  0  0  0  0  0  0
   -2.0081    0.3134   -1.1069 H   0  0  0  0  0  0  0  0  0  0  0  0
   -2.5079    0.7475    0.5982 H   0  0  0  0  0  0  0  0  0  0  0  0
   -1.9487    2.7794   -0.3661 H   0  0  0  0  0  0  0  0  0  0  0  0
   -0.4822    2.2863    0.6339 H   0  0  0  0  0  0  0  0  0  0  0  0
   -0.4983    2.1854   -1.1757 H   0  0  0  0  0  0  0  0  0  0  0  0
  1  2  1  0
  2  3  1  0
  3  4  1  0
  4  5  1  0
  5  6  1  0
  5  7  1  0
  7  8  1  0
  8  9  1  0
  7  3  1  0
  1 10  1  0
  1 11  1  0
  1 12  1  0
  2 13  1  0
  2 14  1  0
  3 15  1  0
  4 16  1  0
  4 17  1  0
  5 18  1  0
  6 19  1  0
  7 20  1  0
  8 21  1  0
  8 22  1  0
  9 23  1  0
  9 24  1  0
  9 25  1  0
M  END
