
     RDKit          3D

 21 22  0  0  0  0  0  0  0  0999 V2000
    2.1047    0.2370    0.4441 C   0  0  0  0  0  0  0  0  0  0  0  0
    1.2793    0.3231   -0.7845 C   0  0  0  0  0  0  0  0  0  0  0  0
   -0.0626   -0.2188   -0.7828 C   0  0  0  0  0  0  0  0  0  0  0  0
   -0.2557   -1.6800   -0.4990 C   0  0  0  0  0  0  0  0  0  0  0  0
   -1.5834   -1.3680   -0.1229 O   0  0  0  0  0  0  0  0  0  0  0  0
   -1.1163   -0.0693    0.1253 C   0  0  0  0  0  0  0  0  0  0  0  0
   -1.0509    0.2308    1.5575 C   0  0  0  0  0  0  0  0  0  0  0  0
   -1.5996    0.9478   -0.8258 C   0  0  0  0  0  0  0  0  0  0  0  0
   -0.8497    0.2813   -1.8252 O   0  0  0  0  0  0  0  0  0  0  0  0
    2.6839   -0.7220    0.5037 H   0  0  0  0  0  0  0  0  0  0  0  0
    2.8745    1.0417    0.4930 H   0  0  0  0  0  0  0  0  0  0  0  0
    1.5463    0.3052    1.3925 H   0  0  0  0  0  0  0  0  0  0  0  0
    1.8641   -0.2029   -1.6015 H   0  0  0  0  0  0  0  0  0  0  0  0
    1.2642    1.3832   -1.1194 H   0  0  0  0  0  0  0  0  0  0  0  0
    0.3883   -1.9852    0.3500 H   0  0  0  0  0  0  0  0  0  0  0  0
   -0.2309   -2.3413   -1.3857 H   0  0  0  0  0  0  0  0  0  0  0  0
   -0.5650   -0.5521    2.1431 H   0  0  0  0  0  0  0  0  0  0  0  0
   -0.6504    1.2465    1.7244 H   0  0  0  0  0  0  0  0  0  0  0  0
   -2.1115    0.2718    1.9469 H   0  0  0  0  0  0  0  0  0  0  0  0
   -2.6836    0.9169   -1.1110 H   0  0  0  0  0  0  0  0  0  0  0  0
   -1.2459    1.9542   -0.6225 H   0  0  0  0  0  0  0  0  0  0  0  0
  1  2  1  0
  2  3  1  0
  3  4  1  0
  4  5  1  0
  5  6  1  0
  6  7  1  0
  6  8  1  0
  8  9  1  0
  6  3  1  0
  9  3  1  0
  1 10  1  0
  1 11  1  0
  1 12  1  0
  2 13  1  0
  2 14  1  0
  4 15  1  0
  4 16  1  0
  7 17  1  0
  7 18  1  0
  7 19  1  0
  8 20  1  0
  8 21  1  0
M  END
