
     RDKit          3D

 23 24  0  0  0  0  0  0  0  0999 V2000
    2.9289   -0.4903    0.1349 C   0  0  0  0  0  0  0  0  0  0  0  0
    1.8715    0.4839   -0.2460 C   0  0  0  0  0  0  0  0  0  0  0  0
    0.5175    0.1550    0.3206 C   0  0  0  0  0  0  0  0  0  0  0  0
   -0.0597   -1.1600   -0.0759 C   0  0  0  0  0  0  0  0  0  0  0  0
   -1.3944   -0.4332   -0.2222 C   0  0  0  0  0  0  0  0  0  0  0  0
   -2.4292   -0.5570    0.8316 C   0  0  0  0  0  0  0  0  0  0  0  0
   -1.4608    0.4921   -1.3513 C   0  0  0  0  0  0  0  0  0  0  0  0
   -0.6342    0.9196   -0.2114 C   0  0  0  0  0  0  0  0  0  0  0  0
   -1.1454    1.9253    0.5893 O   0  0  0  0  0  0  0  0  0  0  0  0
    3.1998   -0.4109    1.1923 H   0  0  0  0  0  0  0  0  0  0  0  0
    2.6495   -1.5491   -0.0508 H   0  0  0  0  0  0  0  0  0  0  0  0
    3.8308   -0.3001   -0.4838 H   0  0  0  0  0  0  0  0  0  0  0  0
    2.1795    1.4869    0.1074 H   0  0  0  0  0  0  0  0  0  0  0  0
    1.7604    0.5630   -1.3450 H   0  0  0  0  0  0  0  0  0  0  0  0
    0.5517    0.2213    1.4434 H   0  0  0  0  0  0  0  0  0  0  0  0
    0.2258   -1.5466   -1.0771 H   0  0  0  0  0  0  0  0  0  0  0  0
   -0.1160   -1.9232    0.7248 H   0  0  0  0  0  0  0  0  0  0  0  0
   -3.3477   -1.0498    0.4733 H   0  0  0  0  0  0  0  0  0  0  0  0
   -2.0262   -1.2180    1.6433 H   0  0  0  0  0  0  0  0  0  0  0  0
   -2.6603    0.4096    1.3407 H   0  0  0  0  0  0  0  0  0  0  0  0
   -0.9118    0.2049   -2.2770 H   0  0  0  0  0  0  0  0  0  0  0  0
   -2.3959    1.0151   -1.5311 H   0  0  0  0  0  0  0  0  0  0  0  0
   -1.1335    2.7616    0.0700 H   0  0  0  0  0  0  0  0  0  0  0  0
  1  2  1  0
  2  3  1  0
  3  4  1  0
  4  5  1  0
  5  6  1  0
  5  7  1  0
  7  8  1  0
  8  9  1  0
  8  3  1  0
  8  5  1  0
  1 10  1  0
  1 11  1  0
  1 12  1  0
  2 13  1  0
  2 14  1  0
  3 15  1  0
  4 16  1  0
  4 17  1  0
  6 18  1  0
  6 19  1  0
  6 20  1  0
  7 21  1  0
  7 22  1  0
  9 23  1  0
M  END
