
     RDKit          3D

 23 23  0  0  0  0  0  0  0  0999 V2000
   -2.4867   -1.2481   -0.3869 C   0  0  0  0  0  0  0  0  0  0  0  0
   -0.9888   -1.2091   -0.6852 C   0  0  0  0  0  0  0  0  0  0  0  0
   -0.4627    0.0787   -0.0354 C   0  0  0  0  0  0  0  0  0  0  0  0
   -1.0665    1.2033   -0.5369 O   0  0  0  0  0  0  0  0  0  0  0  0
   -0.6582    2.3938   -0.0125 C   0  0  0  0  0  0  0  0  0  0  0  0
   -0.0094    0.0273    1.3513 C   0  0  0  0  0  0  0  0  0  0  0  0
    1.0028    0.0703    0.2256 C   0  0  0  0  0  0  0  0  0  0  0  0
    1.7341   -1.1016    0.1106 O   0  0  0  0  0  0  0  0  0  0  0  0
    3.0294   -0.7734   -0.2719 C   0  0  0  0  0  0  0  0  0  0  0  0
   -2.8668   -0.2244   -0.1186 H   0  0  0  0  0  0  0  0  0  0  0  0
   -3.0364   -1.5575   -1.3001 H   0  0  0  0  0  0  0  0  0  0  0  0
   -2.7181   -1.8844    0.4853 H   0  0  0  0  0  0  0  0  0  0  0  0
   -0.8654   -1.1815   -1.7867 H   0  0  0  0  0  0  0  0  0  0  0  0
   -0.4835   -2.1014   -0.2916 H   0  0  0  0  0  0  0  0  0  0  0  0
   -1.2572    3.1952   -0.5384 H   0  0  0  0  0  0  0  0  0  0  0  0
   -0.8816    2.5374    1.0625 H   0  0  0  0  0  0  0  0  0  0  0  0
    0.3893    2.6661   -0.1790 H   0  0  0  0  0  0  0  0  0  0  0  0
   -0.1182   -0.9000    1.9550 H   0  0  0  0  0  0  0  0  0  0  0  0
   -0.0119    0.9373    1.9799 H   0  0  0  0  0  0  0  0  0  0  0  0
    1.5388    0.9974    0.0086 H   0  0  0  0  0  0  0  0  0  0  0  0
    3.0362   -0.2405   -1.2478 H   0  0  0  0  0  0  0  0  0  0  0  0
    3.4627   -0.0425    0.4652 H   0  0  0  0  0  0  0  0  0  0  0  0
    3.7180   -1.6426   -0.2529 H   0  0  0  0  0  0  0  0  0  0  0  0
  1  2  1  0
  2  3  1  0
  3  4  1  0
  4  5  1  0
  3  6  1  0
  6  7  1  0
  7  8  1  0
  8  9  1  0
  7  3  1  0
  1 10  1  0
  1 11  1  0
  1 12  1  0
  2 13  1  0
  2 14  1  0
  5 15  1  0
  5 16  1  0
  5 17  1  0
  6 18  1  0
  6 19  1  0
  7 20  1  0
  9 21  1  0
  9 22  1  0
  9 23  1  0
M  END
