
     RDKit          3D

 21 22  0  0  0  0  0  0  0  0999 V2000
    2.1708   -0.5655   -0.3135 C   0  0  0  0  0  0  0  0  0  0  0  0
    1.3254    0.6906   -0.2692 C   0  0  0  0  0  0  0  0  0  0  0  0
    0.0457    0.3885    0.4291 C   0  0  0  0  0  0  0  0  0  0  0  0
   -0.9490    1.4824    0.5915 C   0  0  0  0  0  0  0  0  0  0  0  0
   -0.9612    2.4736   -0.3779 O   0  0  0  0  0  0  0  0  0  0  0  0
   -1.9954    0.4424    0.2387 C   0  0  0  0  0  0  0  0  0  0  0  0
   -1.9698    0.0350   -1.0511 O   0  0  0  0  0  0  0  0  0  0  0  0
   -0.9002   -0.4526   -0.3495 C   0  0  0  0  0  0  0  0  0  0  0  0
   -0.9016   -1.9140   -0.0645 C   0  0  0  0  0  0  0  0  0  0  0  0
    3.2492   -0.3014   -0.3594 H   0  0  0  0  0  0  0  0  0  0  0  0
    2.0491   -1.1559    0.6240 H   0  0  0  0  0  0  0  0  0  0  0  0
    1.9623   -1.1585   -1.2232 H   0  0  0  0  0  0  0  0  0  0  0  0
    1.0962    0.9805   -1.3195 H   0  0  0  0  0  0  0  0  0  0  0  0
    1.9228    1.4891    0.1713 H   0  0  0  0  0  0  0  0  0  0  0  0
    0.2391   -0.0916    1.4226 H   0  0  0  0  0  0  0  0  0  0  0  0
   -1.0462    1.8614    1.6442 H   0  0  0  0  0  0  0  0  0  0  0  0
   -0.0788    2.6765   -0.7444 H   0  0  0  0  0  0  0  0  0  0  0  0
   -2.5728   -0.0432    1.0317 H   0  0  0  0  0  0  0  0  0  0  0  0
   -1.5323   -2.4202   -0.8348 H   0  0  0  0  0  0  0  0  0  0  0  0
    0.1219   -2.3169   -0.2093 H   0  0  0  0  0  0  0  0  0  0  0  0
   -1.2751   -2.1001    0.9631 H   0  0  0  0  0  0  0  0  0  0  0  0
  1  2  1  0
  2  3  1  0
  3  4  1  0
  4  5  1  0
  4  6  1  0
  6  7  1  0
  7  8  1  0
  8  9  1  0
  8  3  1  0
  8  6  1  0
  1 10  1  0
  1 11  1  0
  1 12  1  0
  2 13  1  0
  2 14  1  0
  3 15  1  0
  4 16  1  0
  5 17  1  0
  6 18  1  0
  9 19  1  0
  9 20  1  0
  9 21  1  0
M  END
