
     RDKit          3D

 25 26  0  0  0  0  0  0  0  0999 V2000
   -2.1536    1.2365   -0.7055 C   0  0  0  0  0  0  0  0  0  0  0  0
   -1.6797   -0.1700   -0.9242 C   0  0  0  0  0  0  0  0  0  0  0  0
   -0.5840   -0.4639    0.0757 C   0  0  0  0  0  0  0  0  0  0  0  0
    0.6047    0.4343   -0.0293 C   0  0  0  0  0  0  0  0  0  0  0  0
    1.7183    0.1678    0.9555 C   0  0  0  0  0  0  0  0  0  0  0  0
    2.6974    0.5304   -0.1706 C   0  0  0  0  0  0  0  0  0  0  0  0
    1.5828    0.1042   -1.1363 C   0  0  0  0  0  0  0  0  0  0  0  0
   -0.5302   -1.8119    0.6528 C   0  0  0  0  0  0  0  0  0  0  0  0
   -1.0708   -0.6845    1.4995 C   0  0  0  0  0  0  0  0  0  0  0  0
   -3.0986    1.4555   -1.2726 H   0  0  0  0  0  0  0  0  0  0  0  0
   -2.3093    1.4972    0.3534 H   0  0  0  0  0  0  0  0  0  0  0  0
   -1.3908    1.9269   -1.1269 H   0  0  0  0  0  0  0  0  0  0  0  0
   -1.3261   -0.2671   -1.9636 H   0  0  0  0  0  0  0  0  0  0  0  0
   -2.5545   -0.8402   -0.7018 H   0  0  0  0  0  0  0  0  0  0  0  0
    0.3168    1.5043   -0.0941 H   0  0  0  0  0  0  0  0  0  0  0  0
    1.7501    0.8763    1.8098 H   0  0  0  0  0  0  0  0  0  0  0  0
    1.8443   -0.8931    1.1912 H   0  0  0  0  0  0  0  0  0  0  0  0
    3.5965   -0.1010   -0.2097 H   0  0  0  0  0  0  0  0  0  0  0  0
    2.8672    1.6296   -0.1533 H   0  0  0  0  0  0  0  0  0  0  0  0
    1.6974   -0.9842   -1.3166 H   0  0  0  0  0  0  0  0  0  0  0  0
    1.5165    0.7064   -2.0426 H   0  0  0  0  0  0  0  0  0  0  0  0
   -1.3224   -2.5235    0.3270 H   0  0  0  0  0  0  0  0  0  0  0  0
    0.4018   -2.3142    0.9440 H   0  0  0  0  0  0  0  0  0  0  0  0
   -0.4168   -0.3946    2.3366 H   0  0  0  0  0  0  0  0  0  0  0  0
   -2.1571   -0.6209    1.7016 H   0  0  0  0  0  0  0  0  0  0  0  0
  1  2  1  0
  2  3  1  0
  3  4  1  0
  4  5  1  0
  5  6  1  0
  6  7  1  0
  3  8  1  0
  8  9  1  0
  9  3  1  0
  7  4  1  0
  1 10  1  0
  1 11  1  0
  1 12  1  0
  2 13  1  0
  2 14  1  0
  4 15  1  0
  5 16  1  0
  5 17  1  0
  6 18  1  0
  6 19  1  0
  7 20  1  0
  7 21  1  0
  8 22  1  0
  8 23  1  0
  9 24  1  0
  9 25  1  0
M  END
