
     RDKit          3D

 23 23  0  0  0  0  0  0  0  0999 V2000
    0.9531    2.0835    0.1589 C   0  0  0  0  0  0  0  0  0  0  0  0
    0.4784    0.8308    0.9099 C   0  0  0  0  0  0  0  0  0  0  0  0
    0.0256   -0.1424   -0.1178 C   0  0  0  0  0  0  0  0  0  0  0  0
    0.9871   -0.5073   -1.0068 O   0  0  0  0  0  0  0  0  0  0  0  0
    2.0489   -1.1118   -0.3550 C   0  0  0  0  0  0  0  0  0  0  0  0
   -0.6792   -1.3724    0.4237 C   0  0  0  0  0  0  0  0  0  0  0  0
   -1.9575   -0.5650    0.4042 C   0  0  0  0  0  0  0  0  0  0  0  0
   -1.3120    0.2736   -0.6934 C   0  0  0  0  0  0  0  0  0  0  0  0
   -1.5765   -0.2491   -1.9587 O   0  0  0  0  0  0  0  0  0  0  0  0
    1.4595    2.7609    0.8574 H   0  0  0  0  0  0  0  0  0  0  0  0
    1.6922    1.7967   -0.6235 H   0  0  0  0  0  0  0  0  0  0  0  0
    0.1104    2.5621   -0.3845 H   0  0  0  0  0  0  0  0  0  0  0  0
   -0.4080    1.1783    1.5109 H   0  0  0  0  0  0  0  0  0  0  0  0
    1.3042    0.5135    1.5507 H   0  0  0  0  0  0  0  0  0  0  0  0
    1.7288   -2.0324    0.2156 H   0  0  0  0  0  0  0  0  0  0  0  0
    2.5691   -0.4650    0.3627 H   0  0  0  0  0  0  0  0  0  0  0  0
    2.7979   -1.4200   -1.1441 H   0  0  0  0  0  0  0  0  0  0  0  0
   -0.3383   -1.7248    1.3937 H   0  0  0  0  0  0  0  0  0  0  0  0
   -0.7339   -2.1503   -0.3661 H   0  0  0  0  0  0  0  0  0  0  0  0
   -2.1729    0.0144    1.3174 H   0  0  0  0  0  0  0  0  0  0  0  0
   -2.8393   -1.1379    0.0653 H   0  0  0  0  0  0  0  0  0  0  0  0
   -1.5805    1.3343   -0.5533 H   0  0  0  0  0  0  0  0  0  0  0  0
   -2.5572   -0.4701   -1.9672 H   0  0  0  0  0  0  0  0  0  0  0  0
  1  2  1  0
  2  3  1  0
  3  4  1  0
  4  5  1  0
  3  6  1  0
  6  7  1  0
  7  8  1  0
  8  9  1  0
  8  3  1  0
  1 10  1  0
  1 11  1  0
  1 12  1  0
  2 13  1  0
  2 14  1  0
  5 15  1  0
  5 16  1  0
  5 17  1  0
  6 18  1  0
  6 19  1  0
  7 20  1  0
  7 21  1  0
  8 22  1  0
  9 23  1  0
M  END
