
     RDKit          3D

 23 24  0  0  0  0  0  0  0  0999 V2000
    2.5028    0.2952   -0.4547 C   0  0  0  0  0  0  0  0  0  0  0  0
    1.4201    0.9024    0.4150 C   0  0  0  0  0  0  0  0  0  0  0  0
    0.1804    0.0488    0.4425 C   0  0  0  0  0  0  0  0  0  0  0  0
   -0.9086    0.6104    1.2866 C   0  0  0  0  0  0  0  0  0  0  0  0
   -2.1322   -0.1439    0.7668 C   0  0  0  0  0  0  0  0  0  0  0  0
   -1.9355    0.0328   -0.7401 C   0  0  0  0  0  0  0  0  0  0  0  0
   -0.4555   -0.2296   -0.8910 C   0  0  0  0  0  0  0  0  0  0  0  0
   -0.2126   -1.6114   -0.7498 O   0  0  0  0  0  0  0  0  0  0  0  0
    0.4169   -1.4157    0.4857 C   0  0  0  0  0  0  0  0  0  0  0  0
    2.1109   -0.0268   -1.4413 H   0  0  0  0  0  0  0  0  0  0  0  0
    3.2450    1.1174   -0.6327 H   0  0  0  0  0  0  0  0  0  0  0  0
    3.0548   -0.5009    0.0745 H   0  0  0  0  0  0  0  0  0  0  0  0
    1.2109    1.9284    0.0587 H   0  0  0  0  0  0  0  0  0  0  0  0
    1.8255    0.9155    1.4515 H   0  0  0  0  0  0  0  0  0  0  0  0
   -1.0702    1.6765    0.9514 H   0  0  0  0  0  0  0  0  0  0  0  0
   -0.7769    0.5194    2.3600 H   0  0  0  0  0  0  0  0  0  0  0  0
   -2.0304   -1.2116    1.0045 H   0  0  0  0  0  0  0  0  0  0  0  0
   -3.0718    0.2789    1.1213 H   0  0  0  0  0  0  0  0  0  0  0  0
   -2.2164    1.0613   -1.0592 H   0  0  0  0  0  0  0  0  0  0  0  0
   -2.5443   -0.7495   -1.2214 H   0  0  0  0  0  0  0  0  0  0  0  0
    0.0202    0.2323   -1.7665 H   0  0  0  0  0  0  0  0  0  0  0  0
   -0.1029   -1.9732    1.2893 H   0  0  0  0  0  0  0  0  0  0  0  0
    1.4700   -1.7566    0.4082 H   0  0  0  0  0  0  0  0  0  0  0  0
  1  2  1  0
  2  3  1  0
  3  4  1  0
  4  5  1  0
  5  6  1  0
  6  7  1  0
  7  8  1  0
  8  9  1  0
  7  3  1  0
  9  3  1  0
  1 10  1  0
  1 11  1  0
  1 12  1  0
  2 13  1  0
  2 14  1  0
  4 15  1  0
  4 16  1  0
  5 17  1  0
  5 18  1  0
  6 19  1  0
  6 20  1  0
  7 21  1  0
  9 22  1  0
  9 23  1  0
M  END
