
     RDKit          3D

 21 22  0  0  0  0  0  0  0  0999 V2000
    2.5064   -0.2615    0.3988 C   0  0  0  0  0  0  0  0  0  0  0  0
    1.2920   -0.6205   -0.4706 C   0  0  0  0  0  0  0  0  0  0  0  0
    0.1655    0.1736   -0.0568 C   0  0  0  0  0  0  0  0  0  0  0  0
    0.2679    1.6738   -0.1368 C   0  0  0  0  0  0  0  0  0  0  0  0
   -0.9250    2.0127    0.4036 C   0  0  0  0  0  0  0  0  0  0  0  0
   -1.4792    0.6792    0.7321 C   0  0  0  0  0  0  0  0  0  0  0  0
   -0.3305    0.0321    1.2485 O   0  0  0  0  0  0  0  0  0  0  0  0
   -1.2201   -0.1107   -0.5287 C   0  0  0  0  0  0  0  0  0  0  0  0
   -1.6822   -1.5231   -0.3705 C   0  0  0  0  0  0  0  0  0  0  0  0
    2.2427   -0.3402    1.4667 H   0  0  0  0  0  0  0  0  0  0  0  0
    2.8469    0.7328    0.0838 H   0  0  0  0  0  0  0  0  0  0  0  0
    3.3137   -1.0009    0.1634 H   0  0  0  0  0  0  0  0  0  0  0  0
    1.5904   -0.3510   -1.5022 H   0  0  0  0  0  0  0  0  0  0  0  0
    1.0680   -1.6836   -0.4285 H   0  0  0  0  0  0  0  0  0  0  0  0
    1.0612    2.2965   -0.5148 H   0  0  0  0  0  0  0  0  0  0  0  0
   -1.3741    2.9802    0.5633 H   0  0  0  0  0  0  0  0  0  0  0  0
   -2.3906    0.5789    1.2489 H   0  0  0  0  0  0  0  0  0  0  0  0
   -1.5353    0.3895   -1.4711 H   0  0  0  0  0  0  0  0  0  0  0  0
   -2.7866   -1.5695   -0.1700 H   0  0  0  0  0  0  0  0  0  0  0  0
   -1.4153   -2.1737   -1.2337 H   0  0  0  0  0  0  0  0  0  0  0  0
   -1.2157   -1.9146    0.5747 H   0  0  0  0  0  0  0  0  0  0  0  0
  1  2  1  0
  2  3  1  0
  3  4  1  0
  4  5  2  0
  5  6  1  0
  6  7  1  0
  6  8  1  0
  8  9  1  0
  7  3  1  0
  8  3  1  0
  1 10  1  0
  1 11  1  0
  1 12  1  0
  2 13  1  0
  2 14  1  0
  4 15  1  0
  5 16  1  0
  6 17  1  0
  8 18  1  0
  9 19  1  0
  9 20  1  0
  9 21  1  0
M  END
