
     RDKit          3D

 23 24  0  0  0  0  0  0  0  0999 V2000
    2.5233   -0.5573   -0.1266 C   0  0  0  0  0  0  0  0  0  0  0  0
    1.3235    0.2697   -0.6015 C   0  0  0  0  0  0  0  0  0  0  0  0
    0.2600    0.2469    0.4292 C   0  0  0  0  0  0  0  0  0  0  0  0
   -1.0055    0.9809    0.2073 C   0  0  0  0  0  0  0  0  0  0  0  0
   -1.1841    2.3471    0.1221 C   0  0  0  0  0  0  0  0  0  0  0  0
   -1.4253   -0.0462   -0.7823 C   0  0  0  0  0  0  0  0  0  0  0  0
   -0.8226   -0.7666    0.3574 C   0  0  0  0  0  0  0  0  0  0  0  0
   -0.7350   -2.1228    0.5758 C   0  0  0  0  0  0  0  0  0  0  0  0
   -1.5447    0.1357    1.1742 O   0  0  0  0  0  0  0  0  0  0  0  0
    2.3815   -1.6330   -0.3246 H   0  0  0  0  0  0  0  0  0  0  0  0
    3.4448   -0.2008   -0.6735 H   0  0  0  0  0  0  0  0  0  0  0  0
    2.7180   -0.4272    0.9437 H   0  0  0  0  0  0  0  0  0  0  0  0
    0.9920   -0.2388   -1.5263 H   0  0  0  0  0  0  0  0  0  0  0  0
    1.7046    1.2827   -0.8396 H   0  0  0  0  0  0  0  0  0  0  0  0
    0.6888    0.3021    1.4582 H   0  0  0  0  0  0  0  0  0  0  0  0
   -0.2481    2.8968   -0.1888 H   0  0  0  0  0  0  0  0  0  0  0  0
   -1.5191    2.8382    1.0613 H   0  0  0  0  0  0  0  0  0  0  0  0
   -1.9427    2.6656   -0.6500 H   0  0  0  0  0  0  0  0  0  0  0  0
   -0.9692   -0.0740   -1.7671 H   0  0  0  0  0  0  0  0  0  0  0  0
   -2.5545   -0.1472   -0.7893 H   0  0  0  0  0  0  0  0  0  0  0  0
    0.3070   -2.5429    0.4706 H   0  0  0  0  0  0  0  0  0  0  0  0
   -1.3440   -2.7516   -0.1390 H   0  0  0  0  0  0  0  0  0  0  0  0
   -1.0488   -2.4572    1.6086 H   0  0  0  0  0  0  0  0  0  0  0  0
  1  2  1  0
  2  3  1  0
  3  4  1  0
  4  5  1  0
  4  6  1  0
  6  7  1  0
  7  8  1  0
  7  9  1  0
  7  3  1  0
  9  4  1  0
  1 10  1  0
  1 11  1  0
  1 12  1  0
  2 13  1  0
  2 14  1  0
  3 15  1  0
  5 16  1  0
  5 17  1  0
  5 18  1  0
  6 19  1  0
  6 20  1  0
  8 21  1  0
  8 22  1  0
  8 23  1  0
M  END
