
     RDKit          3D

 21 22  0  0  0  0  0  0  0  0999 V2000
    2.4489   -0.2013   -0.4341 C   0  0  0  0  0  0  0  0  0  0  0  0
    1.8121   -0.0193    0.9048 C   0  0  0  0  0  0  0  0  0  0  0  0
    0.3670    0.3459    0.8550 C   0  0  0  0  0  0  0  0  0  0  0  0
   -0.5067   -0.7036    0.1485 C   0  0  0  0  0  0  0  0  0  0  0  0
   -1.9072   -0.8857    0.6278 C   0  0  0  0  0  0  0  0  0  0  0  0
   -2.5539    0.4030    0.2985 C   0  0  0  0  0  0  0  0  0  0  0  0
   -1.6956    1.2520   -0.2593 C   0  0  0  0  0  0  0  0  0  0  0  0
   -0.3500    0.6606   -0.3865 C   0  0  0  0  0  0  0  0  0  0  0  0
    0.2777    0.8102   -1.6024 O   0  0  0  0  0  0  0  0  0  0  0  0
    2.5656    0.7263   -1.0145 H   0  0  0  0  0  0  0  0  0  0  0  0
    1.8662   -0.9432   -1.0534 H   0  0  0  0  0  0  0  0  0  0  0  0
    3.4469   -0.6676   -0.3006 H   0  0  0  0  0  0  0  0  0  0  0  0
    2.3643    0.7756    1.4490 H   0  0  0  0  0  0  0  0  0  0  0  0
    1.9930   -0.9566    1.4880 H   0  0  0  0  0  0  0  0  0  0  0  0
   -0.0723    0.7227    1.8015 H   0  0  0  0  0  0  0  0  0  0  0  0
    0.0043   -1.5109   -0.4106 H   0  0  0  0  0  0  0  0  0  0  0  0
   -1.9428   -1.1039    1.7247 H   0  0  0  0  0  0  0  0  0  0  0  0
   -2.3565   -1.7259    0.0922 H   0  0  0  0  0  0  0  0  0  0  0  0
   -3.6233    0.5783    0.5142 H   0  0  0  0  0  0  0  0  0  0  0  0
   -2.0006    2.2536   -0.5677 H   0  0  0  0  0  0  0  0  0  0  0  0
   -0.1372    0.1898   -2.2617 H   0  0  0  0  0  0  0  0  0  0  0  0
  1  2  1  0
  2  3  1  0
  3  4  1  0
  4  5  1  0
  5  6  1  0
  6  7  2  0
  7  8  1  0
  8  9  1  0
  8  3  1  0
  8  4  1  0
  1 10  1  0
  1 11  1  0
  1 12  1  0
  2 13  1  0
  2 14  1  0
  3 15  1  0
  4 16  1  0
  5 17  1  0
  5 18  1  0
  6 19  1  0
  7 20  1  0
  9 21  1  0
M  END
