
     RDKit          3D

 21 21  0  0  0  0  0  0  0  0999 V2000
    2.5384   -0.0164    1.0838 C   0  0  0  0  0  0  0  0  0  0  0  0
    1.7065   -0.7402    0.0129 C   0  0  0  0  0  0  0  0  0  0  0  0
    0.7477    0.2119   -0.6047 C   0  0  0  0  0  0  0  0  0  0  0  0
   -0.2006   -0.1589   -1.6695 C   0  0  0  0  0  0  0  0  0  0  0  0
   -0.6858    0.2016   -0.2787 C   0  0  0  0  0  0  0  0  0  0  0  0
   -1.3751   -0.9275    0.4082 C   0  0  0  0  0  0  0  0  0  0  0  0
   -1.2788    1.4662   -0.0669 O   0  0  0  0  0  0  0  0  0  0  0  0
   -2.5816    1.7126    0.2438 C   0  0  0  0  0  0  0  0  0  0  0  0
   -3.3649    0.7487    0.3625 O   0  0  0  0  0  0  0  0  0  0  0  0
    3.2124   -0.7007    1.5890 H   0  0  0  0  0  0  0  0  0  0  0  0
    3.1057    0.7652    0.5194 H   0  0  0  0  0  0  0  0  0  0  0  0
    1.8382    0.5299    1.7507 H   0  0  0  0  0  0  0  0  0  0  0  0
    2.4466   -1.1732   -0.6855 H   0  0  0  0  0  0  0  0  0  0  0  0
    1.1910   -1.5433    0.5624 H   0  0  0  0  0  0  0  0  0  0  0  0
    1.2217    1.2273   -0.7722 H   0  0  0  0  0  0  0  0  0  0  0  0
   -0.2443   -1.1958   -2.0184 H   0  0  0  0  0  0  0  0  0  0  0  0
   -0.5096    0.5785   -2.4352 H   0  0  0  0  0  0  0  0  0  0  0  0
   -2.2611   -1.2069   -0.2403 H   0  0  0  0  0  0  0  0  0  0  0  0
   -1.8187   -0.6622    1.3928 H   0  0  0  0  0  0  0  0  0  0  0  0
   -0.8020   -1.8712    0.4692 H   0  0  0  0  0  0  0  0  0  0  0  0
   -2.8859    2.7543    0.3767 H   0  0  0  0  0  0  0  0  0  0  0  0
  1  2  1  0
  2  3  1  0
  3  4  1  0
  4  5  1  0
  5  6  1  0
  5  7  1  0
  7  8  1  0
  8  9  2  0
  5  3  1  0
  1 10  1  0
  1 11  1  0
  1 12  1  0
  2 13  1  0
  2 14  1  0
  3 15  1  0
  4 16  1  0
  4 17  1  0
  6 18  1  0
  6 19  1  0
  6 20  1  0
  8 21  1  0
M  END
