
     RDKit          3D

 18 18  0  0  0  0  0  0  0  0999 V2000
    2.4086    0.1008    0.3769 C   0  0  0  0  0  0  0  0  0  0  0  0
    1.1805   -0.7791    0.2929 C   0  0  0  0  0  0  0  0  0  0  0  0
    0.1163    0.0402   -0.4376 C   0  0  0  0  0  0  0  0  0  0  0  0
   -1.1277   -0.8431   -0.5260 C   0  0  0  0  0  0  0  0  0  0  0  0
   -2.0957   -0.0459    0.2333 C   0  0  0  0  0  0  0  0  0  0  0  0
   -3.0390   -0.4304    0.8442 O   0  0  0  0  0  0  0  0  0  0  0  0
   -1.6297    1.3368    0.0641 C   0  0  0  0  0  0  0  0  0  0  0  0
   -0.2392    1.1602    0.2662 O   0  0  0  0  0  0  0  0  0  0  0  0
    3.0352   -0.2764    1.2187 H   0  0  0  0  0  0  0  0  0  0  0  0
    2.9475    0.0192   -0.5935 H   0  0  0  0  0  0  0  0  0  0  0  0
    2.0624    1.1323    0.5762 H   0  0  0  0  0  0  0  0  0  0  0  0
    1.3742   -1.6767   -0.3092 H   0  0  0  0  0  0  0  0  0  0  0  0
    0.7795   -1.0209    1.3063 H   0  0  0  0  0  0  0  0  0  0  0  0
    0.4746    0.3219   -1.4438 H   0  0  0  0  0  0  0  0  0  0  0  0
   -0.9502   -1.8509   -0.1173 H   0  0  0  0  0  0  0  0  0  0  0  0
   -1.4392   -0.9497   -1.5994 H   0  0  0  0  0  0  0  0  0  0  0  0
   -1.8124    1.7353   -0.9614 H   0  0  0  0  0  0  0  0  0  0  0  0
   -2.0457    2.0264    0.8093 H   0  0  0  0  0  0  0  0  0  0  0  0
  1  2  1  0
  2  3  1  0
  3  4  1  0
  4  5  1  0
  5  6  2  0
  5  7  1  0
  7  8  1  0
  8  3  1  0
  1  9  1  0
  1 10  1  0
  1 11  1  0
  2 12  1  0
  2 13  1  0
  3 14  1  0
  4 15  1  0
  4 16  1  0
  7 17  1  0
  7 18  1  0
M  END
