
     RDKit          3D

 23 23  0  0  0  0  0  0  0  0999 V2000
    2.9085    0.4235   -0.0934 C   0  0  0  0  0  0  0  0  0  0  0  0
    1.8856   -0.6583   -0.1095 C   0  0  0  0  0  0  0  0  0  0  0  0
    0.5010   -0.1708   -0.2460 C   0  0  0  0  0  0  0  0  0  0  0  0
    0.1784    1.1174   -0.3470 C   0  0  0  0  0  0  0  0  0  0  0  0
   -1.2518    1.5140   -0.4820 C   0  0  0  0  0  0  0  0  0  0  0  0
   -2.1856    0.6951    0.3511 C   0  0  0  0  0  0  0  0  0  0  0  0
   -1.6375   -0.6492    0.7626 C   0  0  0  0  0  0  0  0  0  0  0  0
   -0.6488   -1.1183   -0.2782 C   0  0  0  0  0  0  0  0  0  0  0  0
   -0.2541   -2.4201   -0.0188 O   0  0  0  0  0  0  0  0  0  0  0  0
    2.8048    1.1253   -0.9501 H   0  0  0  0  0  0  0  0  0  0  0  0
    2.9749    0.9652    0.8808 H   0  0  0  0  0  0  0  0  0  0  0  0
    3.9114   -0.0618   -0.2265 H   0  0  0  0  0  0  0  0  0  0  0  0
    2.1684   -1.3734   -0.9279 H   0  0  0  0  0  0  0  0  0  0  0  0
    1.9805   -1.2373    0.8328 H   0  0  0  0  0  0  0  0  0  0  0  0
    0.9851    1.8359   -0.3264 H   0  0  0  0  0  0  0  0  0  0  0  0
   -1.5879    1.4558   -1.5542 H   0  0  0  0  0  0  0  0  0  0  0  0
   -1.3211    2.6020   -0.2236 H   0  0  0  0  0  0  0  0  0  0  0  0
   -2.5276    1.2631    1.2659 H   0  0  0  0  0  0  0  0  0  0  0  0
   -3.1484    0.4787   -0.1962 H   0  0  0  0  0  0  0  0  0  0  0  0
   -2.4522   -1.3991    0.8390 H   0  0  0  0  0  0  0  0  0  0  0  0
   -1.1814   -0.5603    1.7687 H   0  0  0  0  0  0  0  0  0  0  0  0
   -1.1377   -1.0010   -1.2626 H   0  0  0  0  0  0  0  0  0  0  0  0
   -0.9646   -2.8262    0.5415 H   0  0  0  0  0  0  0  0  0  0  0  0
  1  2  1  0
  2  3  1  0
  3  4  2  0
  4  5  1  0
  5  6  1  0
  6  7  1  0
  7  8  1  0
  8  9  1  0
  8  3  1  0
  1 10  1  0
  1 11  1  0
  1 12  1  0
  2 13  1  0
  2 14  1  0
  4 15  1  0
  5 16  1  0
  5 17  1  0
  6 18  1  0
  6 19  1  0
  7 20  1  0
  7 21  1  0
  8 22  1  0
  9 23  1  0
M  END
