
     RDKit          3D

 22 22  0  0  0  0  0  0  0  0999 V2000
    2.4915   -0.2599   -0.3522 C   0  0  0  0  0  0  0  0  0  0  0  0
    1.2704   -0.8071    0.3567 C   0  0  0  0  0  0  0  0  0  0  0  0
    0.3569    0.3337    0.6514 C   0  0  0  0  0  0  0  0  0  0  0  0
   -0.2161    1.1916   -0.4070 C   0  0  0  0  0  0  0  0  0  0  0  0
    0.2739    0.9764   -1.6952 O   0  0  0  0  0  0  0  0  0  0  0  0
   -1.0665    0.1278    0.1640 C   0  0  0  0  0  0  0  0  0  0  0  0
   -1.3846   -1.0394   -0.7084 C   0  0  0  0  0  0  0  0  0  0  0  0
   -2.1010    0.4243    1.2241 C   0  0  0  0  0  0  0  0  0  0  0  0
    2.4336    0.8595   -0.4731 H   0  0  0  0  0  0  0  0  0  0  0  0
    2.6302   -0.7827   -1.2960 H   0  0  0  0  0  0  0  0  0  0  0  0
    3.4218   -0.4294    0.2492 H   0  0  0  0  0  0  0  0  0  0  0  0
    1.6118   -1.2433    1.3187 H   0  0  0  0  0  0  0  0  0  0  0  0
    0.8026   -1.5953   -0.2606 H   0  0  0  0  0  0  0  0  0  0  0  0
    0.5273    0.8347    1.6226 H   0  0  0  0  0  0  0  0  0  0  0  0
   -0.4175    2.2683   -0.2042 H   0  0  0  0  0  0  0  0  0  0  0  0
    0.7961    1.7572   -1.9806 H   0  0  0  0  0  0  0  0  0  0  0  0
   -2.4206   -0.9125   -1.0876 H   0  0  0  0  0  0  0  0  0  0  0  0
   -0.6965   -1.1539   -1.5716 H   0  0  0  0  0  0  0  0  0  0  0  0
   -1.3746   -1.9830   -0.1289 H   0  0  0  0  0  0  0  0  0  0  0  0
   -3.1303    0.2355    0.8824 H   0  0  0  0  0  0  0  0  0  0  0  0
   -1.9502    1.4511    1.6081 H   0  0  0  0  0  0  0  0  0  0  0  0
   -1.8584   -0.2535    2.0883 H   0  0  0  0  0  0  0  0  0  0  0  0
  1  2  1  0
  2  3  1  0
  3  4  1  0
  4  5  1  0
  4  6  1  0
  6  7  1  0
  6  8  1  0
  6  3  1  0
  1  9  1  0
  1 10  1  0
  1 11  1  0
  2 12  1  0
  2 13  1  0
  3 14  1  0
  4 15  1  0
  5 16  1  0
  7 17  1  0
  7 18  1  0
  7 19  1  0
  8 20  1  0
  8 21  1  0
  8 22  1  0
M  END
