
     RDKit          3D

 21 22  0  0  0  0  0  0  0  0999 V2000
    2.5706   -0.3053   -0.5144 C   0  0  0  0  0  0  0  0  0  0  0  0
    1.1826   -0.3267   -1.1621 C   0  0  0  0  0  0  0  0  0  0  0  0
    0.2215    0.0999   -0.0934 C   0  0  0  0  0  0  0  0  0  0  0  0
    0.3980    1.4471    0.5160 C   0  0  0  0  0  0  0  0  0  0  0  0
   -0.6828    1.7407    1.2298 C   0  0  0  0  0  0  0  0  0  0  0  0
   -1.6761    0.6145    1.1594 C   0  0  0  0  0  0  0  0  0  0  0  0
   -0.9841   -0.4040    0.2825 C   0  0  0  0  0  0  0  0  0  0  0  0
   -1.8333   -1.2947   -0.5982 C   0  0  0  0  0  0  0  0  0  0  0  0
    0.1365   -0.9894    0.9210 O   0  0  0  0  0  0  0  0  0  0  0  0
    3.3752   -0.2528   -1.2367 H   0  0  0  0  0  0  0  0  0  0  0  0
    2.6217   -1.2480    0.0841 H   0  0  0  0  0  0  0  0  0  0  0  0
    2.6571    0.5452    0.1970 H   0  0  0  0  0  0  0  0  0  0  0  0
    1.1319    0.2744   -2.0665 H   0  0  0  0  0  0  0  0  0  0  0  0
    0.9541   -1.3735   -1.4390 H   0  0  0  0  0  0  0  0  0  0  0  0
    1.2723    2.0746    0.3886 H   0  0  0  0  0  0  0  0  0  0  0  0
   -0.7983    2.6741    1.7754 H   0  0  0  0  0  0  0  0  0  0  0  0
   -1.7292    0.2168    2.2129 H   0  0  0  0  0  0  0  0  0  0  0  0
   -2.6482    0.9320    0.7875 H   0  0  0  0  0  0  0  0  0  0  0  0
   -2.8291   -0.7865   -0.7117 H   0  0  0  0  0  0  0  0  0  0  0  0
   -1.9403   -2.2841   -0.1125 H   0  0  0  0  0  0  0  0  0  0  0  0
   -1.4003   -1.3542   -1.6195 H   0  0  0  0  0  0  0  0  0  0  0  0
  1  2  1  0
  2  3  1  0
  3  4  1  0
  4  5  2  0
  5  6  1  0
  6  7  1  0
  7  8  1  0
  7  9  1  0
  7  3  1  0
  9  3  1  0
  1 10  1  0
  1 11  1  0
  1 12  1  0
  2 13  1  0
  2 14  1  0
  4 15  1  0
  5 16  1  0
  6 17  1  0
  6 18  1  0
  8 19  1  0
  8 20  1  0
  8 21  1  0
M  END
