
     RDKit          3D

 22 22  0  0  0  0  0  0  0  0999 V2000
    3.1186   -0.4247    0.1186 C   0  0  0  0  0  0  0  0  0  0  0  0
    1.9892    0.0338   -0.8000 C   0  0  0  0  0  0  0  0  0  0  0  0
    0.8345    0.4121    0.0970 C   0  0  0  0  0  0  0  0  0  0  0  0
   -0.3504    0.8877   -0.7445 C   0  0  0  0  0  0  0  0  0  0  0  0
   -1.2367    0.1777    0.2843 C   0  0  0  0  0  0  0  0  0  0  0  0
   -2.3250   -0.4415   -0.2724 O   0  0  0  0  0  0  0  0  0  0  0  0
   -3.5263   -0.0920    0.3525 C   0  0  0  0  0  0  0  0  0  0  0  0
   -0.0333   -0.7421    0.5304 C   0  0  0  0  0  0  0  0  0  0  0  0
    3.1043    0.1648    1.0632 H   0  0  0  0  0  0  0  0  0  0  0  0
    4.1052   -0.2910   -0.3450 H   0  0  0  0  0  0  0  0  0  0  0  0
    2.9311   -1.4817    0.4261 H   0  0  0  0  0  0  0  0  0  0  0  0
    2.3678    0.9103   -1.3638 H   0  0  0  0  0  0  0  0  0  0  0  0
    1.7193   -0.7309   -1.5329 H   0  0  0  0  0  0  0  0  0  0  0  0
    1.0747    1.0841    0.9241 H   0  0  0  0  0  0  0  0  0  0  0  0
   -0.3867    0.3482   -1.7129 H   0  0  0  0  0  0  0  0  0  0  0  0
   -0.4575    1.9677   -0.7807 H   0  0  0  0  0  0  0  0  0  0  0  0
   -1.4061    0.8584    1.1298 H   0  0  0  0  0  0  0  0  0  0  0  0
   -3.6804    0.9982    0.2705 H   0  0  0  0  0  0  0  0  0  0  0  0
   -4.3323   -0.6227   -0.2049 H   0  0  0  0  0  0  0  0  0  0  0  0
   -3.4843   -0.4146    1.4089 H   0  0  0  0  0  0  0  0  0  0  0  0
   -0.0057   -0.9791    1.6157 H   0  0  0  0  0  0  0  0  0  0  0  0
   -0.0197   -1.6227   -0.1416 H   0  0  0  0  0  0  0  0  0  0  0  0
  1  2  1  0
  2  3  1  0
  3  4  1  0
  4  5  1  0
  5  6  1  0
  6  7  1  0
  5  8  1  0
  8  3  1  0
  1  9  1  0
  1 10  1  0
  1 11  1  0
  2 12  1  0
  2 13  1  0
  3 14  1  0
  4 15  1  0
  4 16  1  0
  5 17  1  0
  7 18  1  0
  7 19  1  0
  7 20  1  0
  8 21  1  0
  8 22  1  0
M  END
