
     RDKit          3D

 23 23  0  0  0  0  0  0  0  0999 V2000
   -2.9991    0.4526    0.2406 C   0  0  0  0  0  0  0  0  0  0  0  0
   -2.0430   -0.5409   -0.3654 C   0  0  0  0  0  0  0  0  0  0  0  0
   -0.6288   -0.2202   -0.0886 C   0  0  0  0  0  0  0  0  0  0  0  0
   -0.3550    0.8580    0.6312 C   0  0  0  0  0  0  0  0  0  0  0  0
    0.9497    1.3682    1.0271 C   0  0  0  0  0  0  0  0  0  0  0  0
    2.1743    0.8962    0.8255 C   0  0  0  0  0  0  0  0  0  0  0  0
    2.5305   -0.3466    0.1006 C   0  0  0  0  0  0  0  0  0  0  0  0
    1.6261   -0.4797   -1.0917 C   0  0  0  0  0  0  0  0  0  0  0  0
    0.3491   -1.1832   -0.6742 C   0  0  0  0  0  0  0  0  0  0  0  0
   -2.9338    0.4448    1.3470 H   0  0  0  0  0  0  0  0  0  0  0  0
   -4.0330    0.1329   -0.0053 H   0  0  0  0  0  0  0  0  0  0  0  0
   -2.8853    1.4740   -0.1411 H   0  0  0  0  0  0  0  0  0  0  0  0
   -2.2582   -0.7210   -1.4367 H   0  0  0  0  0  0  0  0  0  0  0  0
   -2.2564   -1.5225    0.1510 H   0  0  0  0  0  0  0  0  0  0  0  0
   -1.1828    1.4486    0.9798 H   0  0  0  0  0  0  0  0  0  0  0  0
    0.9557    2.3012    1.5899 H   0  0  0  0  0  0  0  0  0  0  0  0
    3.0295    1.4303    1.2054 H   0  0  0  0  0  0  0  0  0  0  0  0
    2.3637   -1.2179    0.7766 H   0  0  0  0  0  0  0  0  0  0  0  0
    3.6010   -0.3577   -0.2036 H   0  0  0  0  0  0  0  0  0  0  0  0
    2.1102   -1.0883   -1.8826 H   0  0  0  0  0  0  0  0  0  0  0  0
    1.3224    0.5121   -1.4829 H   0  0  0  0  0  0  0  0  0  0  0  0
   -0.0478   -1.6782   -1.5874 H   0  0  0  0  0  0  0  0  0  0  0  0
    0.6109   -1.9628    0.0848 H   0  0  0  0  0  0  0  0  0  0  0  0
  1  2  1  0
  2  3  1  0
  3  4  2  0
  4  5  1  0
  5  6  2  0
  6  7  1  0
  7  8  1  0
  8  9  1  0
  9  3  1  0
  1 10  1  0
  1 11  1  0
  1 12  1  0
  2 13  1  0
  2 14  1  0
  4 15  1  0
  5 16  1  0
  6 17  1  0
  7 18  1  0
  7 19  1  0
  8 20  1  0
  8 21  1  0
  9 22  1  0
  9 23  1  0
M  END
