
     RDKit          3D

 19 19  0  0  0  0  0  0  0  0999 V2000
   -1.6638   -1.1200   -0.0855 C   0  0  0  0  0  0  0  0  0  0  0  0
   -0.9660   -0.1974   -1.0652 C   0  0  0  0  0  0  0  0  0  0  0  0
    0.1322    0.5019   -0.3344 C   0  0  0  0  0  0  0  0  0  0  0  0
   -0.2770    1.3406    0.8352 C   0  0  0  0  0  0  0  0  0  0  0  0
    1.0506    1.2252   -1.1530 O   0  0  0  0  0  0  0  0  0  0  0  0
    2.0401    0.8508   -0.2761 C   0  0  0  0  0  0  0  0  0  0  0  0
    3.0760    1.3860    0.1345 O   0  0  0  0  0  0  0  0  0  0  0  0
    1.3320   -0.4164   -0.0634 C   0  0  0  0  0  0  0  0  0  0  0  0
    1.3480   -0.9516    1.1924 O   0  0  0  0  0  0  0  0  0  0  0  0
   -2.6892   -1.3701   -0.3993 H   0  0  0  0  0  0  0  0  0  0  0  0
   -1.7364   -0.6417    0.9327 H   0  0  0  0  0  0  0  0  0  0  0  0
   -1.0244   -2.0147    0.0593 H   0  0  0  0  0  0  0  0  0  0  0  0
   -1.6783    0.5611   -1.4625 H   0  0  0  0  0  0  0  0  0  0  0  0
   -0.5271   -0.8155   -1.8652 H   0  0  0  0  0  0  0  0  0  0  0  0
   -1.3815    1.4608    0.8004 H   0  0  0  0  0  0  0  0  0  0  0  0
    0.0164    0.8629    1.8021 H   0  0  0  0  0  0  0  0  0  0  0  0
    0.1332    2.3911    0.7782 H   0  0  0  0  0  0  0  0  0  0  0  0
    1.4901   -1.0976   -0.9159 H   0  0  0  0  0  0  0  0  0  0  0  0
    1.3252   -1.9557    1.0857 H   0  0  0  0  0  0  0  0  0  0  0  0
  1  2  1  0
  2  3  1  0
  3  4  1  0
  3  5  1  0
  5  6  1  0
  6  7  2  0
  6  8  1  0
  8  9  1  0
  8  3  1  0
  1 10  1  0
  1 11  1  0
  1 12  1  0
  2 13  1  0
  2 14  1  0
  4 15  1  0
  4 16  1  0
  4 17  1  0
  8 18  1  0
  9 19  1  0
M  END
