
     RDKit          3D

 21 22  0  0  0  0  0  0  0  0999 V2000
    2.3052   -0.1187    0.4719 C   0  0  0  0  0  0  0  0  0  0  0  0
    1.3921    0.7055   -0.4460 C   0  0  0  0  0  0  0  0  0  0  0  0
    0.1684   -0.1130   -0.6331 C   0  0  0  0  0  0  0  0  0  0  0  0
   -0.6078   -0.4571    0.6125 C   0  0  0  0  0  0  0  0  0  0  0  0
   -0.9515    0.8932    1.1555 C   0  0  0  0  0  0  0  0  0  0  0  0
   -1.3298    1.5599   -0.0384 O   0  0  0  0  0  0  0  0  0  0  0  0
   -1.1063    0.6011   -0.9994 C   0  0  0  0  0  0  0  0  0  0  0  0
   -1.7658   -0.6462   -0.3790 C   0  0  0  0  0  0  0  0  0  0  0  0
   -1.5275   -1.7534   -1.1532 O   0  0  0  0  0  0  0  0  0  0  0  0
    2.4820   -1.0770   -0.0979 H   0  0  0  0  0  0  0  0  0  0  0  0
    1.7014   -0.3872    1.3541 H   0  0  0  0  0  0  0  0  0  0  0  0
    3.2336    0.4056    0.7056 H   0  0  0  0  0  0  0  0  0  0  0  0
    1.9283    0.8091   -1.3908 H   0  0  0  0  0  0  0  0  0  0  0  0
    1.2443    1.6983   -0.0184 H   0  0  0  0  0  0  0  0  0  0  0  0
    0.3372   -0.9769   -1.2827 H   0  0  0  0  0  0  0  0  0  0  0  0
   -0.3310   -1.2600    1.2236 H   0  0  0  0  0  0  0  0  0  0  0  0
   -0.1072    1.4248    1.6217 H   0  0  0  0  0  0  0  0  0  0  0  0
   -1.8419    0.8455    1.8340 H   0  0  0  0  0  0  0  0  0  0  0  0
   -1.3232    0.7940   -2.0251 H   0  0  0  0  0  0  0  0  0  0  0  0
   -2.7553   -0.4889    0.0253 H   0  0  0  0  0  0  0  0  0  0  0  0
   -1.1452   -2.4586   -0.5401 H   0  0  0  0  0  0  0  0  0  0  0  0
  1  2  1  0
  2  3  1  0
  3  4  1  0
  4  5  1  0
  5  6  1  0
  6  7  1  0
  7  8  1  0
  8  9  1  0
  7  3  1  0
  8  4  1  0
  1 10  1  0
  1 11  1  0
  1 12  1  0
  2 13  1  0
  2 14  1  0
  3 15  1  0
  4 16  1  0
  5 17  1  0
  5 18  1  0
  7 19  1  0
  8 20  1  0
  9 21  1  0
M  END
