
     RDKit          3D

 21 22  0  0  0  0  0  0  0  0999 V2000
    2.5795    0.6198    0.6146 C   0  0  0  0  0  0  0  0  0  0  0  0
    1.6438   -0.3824   -0.0271 C   0  0  0  0  0  0  0  0  0  0  0  0
    0.2419   -0.2114    0.4437 C   0  0  0  0  0  0  0  0  0  0  0  0
   -0.7575   -1.1806   -0.1520 C   0  0  0  0  0  0  0  0  0  0  0  0
   -0.7935   -0.2378   -1.3611 C   0  0  0  0  0  0  0  0  0  0  0  0
   -0.4798    0.8587   -0.3634 C   0  0  0  0  0  0  0  0  0  0  0  0
   -1.6759    1.2230    0.2482 O   0  0  0  0  0  0  0  0  0  0  0  0
   -2.5596    0.1669    0.3727 C   0  0  0  0  0  0  0  0  0  0  0  0
   -1.9732   -1.0694    0.5405 O   0  0  0  0  0  0  0  0  0  0  0  0
    3.1174    1.2310   -0.1281 H   0  0  0  0  0  0  0  0  0  0  0  0
    3.3484    0.1337    1.2564 H   0  0  0  0  0  0  0  0  0  0  0  0
    1.9834    1.2836    1.2661 H   0  0  0  0  0  0  0  0  0  0  0  0
    1.7915   -0.2920   -1.1148 H   0  0  0  0  0  0  0  0  0  0  0  0
    1.9544   -1.4373    0.2287 H   0  0  0  0  0  0  0  0  0  0  0  0
    0.1579   -0.0833    1.5411 H   0  0  0  0  0  0  0  0  0  0  0  0
   -0.4124   -2.1873   -0.3536 H   0  0  0  0  0  0  0  0  0  0  0  0
    0.0183   -0.4968   -2.0418 H   0  0  0  0  0  0  0  0  0  0  0  0
   -1.8064   -0.1792   -1.8052 H   0  0  0  0  0  0  0  0  0  0  0  0
    0.1222    1.6783   -0.7352 H   0  0  0  0  0  0  0  0  0  0  0  0
   -3.1892    0.4117    1.2804 H   0  0  0  0  0  0  0  0  0  0  0  0
   -3.3114    0.1508   -0.4702 H   0  0  0  0  0  0  0  0  0  0  0  0
  1  2  1  0
  2  3  1  0
  3  4  1  0
  4  5  1  0
  5  6  1  0
  6  7  1  0
  7  8  1  0
  8  9  1  0
  6  3  1  0
  9  4  1  0
  1 10  1  0
  1 11  1  0
  1 12  1  0
  2 13  1  0
  2 14  1  0
  3 15  1  0
  4 16  1  0
  5 17  1  0
  5 18  1  0
  6 19  1  0
  8 20  1  0
  8 21  1  0
M  END
