
     RDKit          3D

 21 22  0  0  0  0  0  0  0  0999 V2000
    2.2640   -0.1752   -0.4194 C   0  0  0  0  0  0  0  0  0  0  0  0
    0.9116   -0.0693   -1.1168 C   0  0  0  0  0  0  0  0  0  0  0  0
   -0.1393    0.2719   -0.0914 C   0  0  0  0  0  0  0  0  0  0  0  0
    0.0623    1.5559    0.6446 C   0  0  0  0  0  0  0  0  0  0  0  0
   -0.4997   -0.9308    0.7331 C   0  0  0  0  0  0  0  0  0  0  0  0
   -1.8103   -0.2632    0.9944 C   0  0  0  0  0  0  0  0  0  0  0  0
   -1.5560   -0.0323   -0.4716 C   0  0  0  0  0  0  0  0  0  0  0  0
   -1.1270   -1.4435   -0.5069 C   0  0  0  0  0  0  0  0  0  0  0  0
   -1.2700   -2.3969   -1.2092 O   0  0  0  0  0  0  0  0  0  0  0  0
    2.4945   -1.2183   -0.1315 H   0  0  0  0  0  0  0  0  0  0  0  0
    2.2089    0.4022    0.5436 H   0  0  0  0  0  0  0  0  0  0  0  0
    3.0802    0.1947   -1.0747 H   0  0  0  0  0  0  0  0  0  0  0  0
    0.6536   -0.9949   -1.6315 H   0  0  0  0  0  0  0  0  0  0  0  0
    1.0174    0.7652   -1.8624 H   0  0  0  0  0  0  0  0  0  0  0  0
    0.1911    1.3970    1.7385 H   0  0  0  0  0  0  0  0  0  0  0  0
   -0.8861    2.1565    0.5449 H   0  0  0  0  0  0  0  0  0  0  0  0
    0.8694    2.1795    0.2191 H   0  0  0  0  0  0  0  0  0  0  0  0
    0.0846   -1.4330    1.3701 H   0  0  0  0  0  0  0  0  0  0  0  0
   -2.5920   -1.0316    1.2059 H   0  0  0  0  0  0  0  0  0  0  0  0
   -1.8165    0.6150    1.6419 H   0  0  0  0  0  0  0  0  0  0  0  0
   -2.1405    0.4511   -1.1206 H   0  0  0  0  0  0  0  0  0  0  0  0
  1  2  1  0
  2  3  1  0
  3  4  1  0
  3  5  1  0
  5  6  1  0
  6  7  1  0
  7  8  1  0
  8  9  2  0
  7  3  1  0
  8  5  1  0
  1 10  1  0
  1 11  1  0
  1 12  1  0
  2 13  1  0
  2 14  1  0
  4 15  1  0
  4 16  1  0
  4 17  1  0
  5 18  1  0
  6 19  1  0
  6 20  1  0
  7 21  1  0
M  END
