
     RDKit          3D

 21 21  0  0  0  0  0  0  0  0999 V2000
    2.1440   -1.1668   -0.2496 C   0  0  0  0  0  0  0  0  0  0  0  0
    1.8399    0.2611    0.0627 C   0  0  0  0  0  0  0  0  0  0  0  0
    0.3924    0.6006   -0.3220 C   0  0  0  0  0  0  0  0  0  0  0  0
    0.2424    1.9645    0.0231 O   0  0  0  0  0  0  0  0  0  0  0  0
   -1.0378    2.0338    0.5378 C   0  0  0  0  0  0  0  0  0  0  0  0
   -1.0730    0.9249    1.3805 O   0  0  0  0  0  0  0  0  0  0  0  0
   -0.5883   -0.0946    0.5476 C   0  0  0  0  0  0  0  0  0  0  0  0
   -1.7666   -0.6789   -0.1669 C   0  0  0  0  0  0  0  0  0  0  0  0
   -1.4588   -1.7025   -1.0322 O   0  0  0  0  0  0  0  0  0  0  0  0
    1.2747   -1.6512   -0.7378 H   0  0  0  0  0  0  0  0  0  0  0  0
    2.4299   -1.6777    0.6938 H   0  0  0  0  0  0  0  0  0  0  0  0
    2.9754   -1.2319   -1.0016 H   0  0  0  0  0  0  0  0  0  0  0  0
    1.9468    0.4741    1.1541 H   0  0  0  0  0  0  0  0  0  0  0  0
    2.5535    0.9118   -0.4516 H   0  0  0  0  0  0  0  0  0  0  0  0
    0.2422    0.4902   -1.3973 H   0  0  0  0  0  0  0  0  0  0  0  0
   -1.7584    1.9673   -0.2960 H   0  0  0  0  0  0  0  0  0  0  0  0
   -1.2374    2.9239    1.1327 H   0  0  0  0  0  0  0  0  0  0  0  0
   -0.1565   -0.8887    1.1884 H   0  0  0  0  0  0  0  0  0  0  0  0
   -2.3849    0.0691   -0.7026 H   0  0  0  0  0  0  0  0  0  0  0  0
   -2.4378   -1.1103    0.6259 H   0  0  0  0  0  0  0  0  0  0  0  0
   -2.1418   -2.4186   -0.9890 H   0  0  0  0  0  0  0  0  0  0  0  0
  1  2  1  0
  2  3  1  0
  3  4  1  0
  4  5  1  0
  5  6  1  0
  6  7  1  0
  7  8  1  0
  8  9  1  0
  7  3  1  0
  1 10  1  0
  1 11  1  0
  1 12  1  0
  2 13  1  0
  2 14  1  0
  3 15  1  0
  5 16  1  0
  5 17  1  0
  7 18  1  0
  8 19  1  0
  8 20  1  0
  9 21  1  0
M  END
