
     RDKit          3D

 19 19  0  0  0  0  0  0  0  0999 V2000
    2.5947   -0.2552    0.2226 C   0  0  0  0  0  0  0  0  0  0  0  0
    1.4593    0.4761   -0.5102 C   0  0  0  0  0  0  0  0  0  0  0  0
    0.1974    0.0535    0.2106 C   0  0  0  0  0  0  0  0  0  0  0  0
    0.0539   -1.3531    0.1277 O   0  0  0  0  0  0  0  0  0  0  0  0
   -1.2925   -1.5880    0.3709 C   0  0  0  0  0  0  0  0  0  0  0  0
   -1.8206   -2.6298    0.8589 O   0  0  0  0  0  0  0  0  0  0  0  0
   -2.0873   -0.3983   -0.0346 C   0  0  0  0  0  0  0  0  0  0  0  0
   -1.0434    0.6514   -0.3702 C   0  0  0  0  0  0  0  0  0  0  0  0
   -1.3175    1.8279    0.3346 O   0  0  0  0  0  0  0  0  0  0  0  0
    2.4161   -1.3312    0.1611 H   0  0  0  0  0  0  0  0  0  0  0  0
    2.4991    0.0798    1.2896 H   0  0  0  0  0  0  0  0  0  0  0  0
    3.5274    0.0862   -0.2494 H   0  0  0  0  0  0  0  0  0  0  0  0
    1.4843    0.0969   -1.5408 H   0  0  0  0  0  0  0  0  0  0  0  0
    1.5999    1.5574   -0.4952 H   0  0  0  0  0  0  0  0  0  0  0  0
    0.2457    0.2975    1.2897 H   0  0  0  0  0  0  0  0  0  0  0  0
   -2.7091   -0.0300    0.8307 H   0  0  0  0  0  0  0  0  0  0  0  0
   -2.7305   -0.6110   -0.8983 H   0  0  0  0  0  0  0  0  0  0  0  0
   -0.9781    0.8289   -1.4697 H   0  0  0  0  0  0  0  0  0  0  0  0
   -2.0987    2.2408   -0.1280 H   0  0  0  0  0  0  0  0  0  0  0  0
  1  2  1  0
  2  3  1  0
  3  4  1  0
  4  5  1  0
  5  6  2  0
  5  7  1  0
  7  8  1  0
  8  9  1  0
  8  3  1  0
  1 10  1  0
  1 11  1  0
  1 12  1  0
  2 13  1  0
  2 14  1  0
  3 15  1  0
  7 16  1  0
  7 17  1  0
  8 18  1  0
  9 19  1  0
M  END
