
     RDKit          3D

 23 23  0  0  0  0  0  0  0  0999 V2000
    2.4066    0.2410    0.5162 C   0  0  0  0  0  0  0  0  0  0  0  0
    1.4467    0.1649   -0.6350 C   0  0  0  0  0  0  0  0  0  0  0  0
    0.0060    0.2750   -0.2261 C   0  0  0  0  0  0  0  0  0  0  0  0
   -0.3137    1.5482    0.4617 C   0  0  0  0  0  0  0  0  0  0  0  0
   -0.8783   -0.0606   -1.4350 C   0  0  0  0  0  0  0  0  0  0  0  0
   -0.7401   -1.4777   -1.0219 C   0  0  0  0  0  0  0  0  0  0  0  0
   -0.7559   -2.5542   -1.5652 O   0  0  0  0  0  0  0  0  0  0  0  0
   -0.5722   -0.9874    0.3664 C   0  0  0  0  0  0  0  0  0  0  0  0
   -1.9168   -0.7685    1.0074 C   0  0  0  0  0  0  0  0  0  0  0  0
    2.2251    1.1058    1.1817 H   0  0  0  0  0  0  0  0  0  0  0  0
    3.4278    0.4224    0.0687 H   0  0  0  0  0  0  0  0  0  0  0  0
    2.4888   -0.7195    1.0600 H   0  0  0  0  0  0  0  0  0  0  0  0
    1.6574    1.0238   -1.3148 H   0  0  0  0  0  0  0  0  0  0  0  0
    1.6625   -0.7724   -1.1882 H   0  0  0  0  0  0  0  0  0  0  0  0
   -0.2485    1.4808    1.5869 H   0  0  0  0  0  0  0  0  0  0  0  0
    0.4858    2.2969    0.1954 H   0  0  0  0  0  0  0  0  0  0  0  0
   -1.2687    2.0153    0.1540 H   0  0  0  0  0  0  0  0  0  0  0  0
   -1.9051    0.3512   -1.3495 H   0  0  0  0  0  0  0  0  0  0  0  0
   -0.4434    0.2150   -2.4020 H   0  0  0  0  0  0  0  0  0  0  0  0
    0.1025   -1.5703    1.0062 H   0  0  0  0  0  0  0  0  0  0  0  0
   -2.0679    0.2610    1.3713 H   0  0  0  0  0  0  0  0  0  0  0  0
   -2.7663   -1.0170    0.3055 H   0  0  0  0  0  0  0  0  0  0  0  0
   -2.0323   -1.4736    1.8564 H   0  0  0  0  0  0  0  0  0  0  0  0
  1  2  1  0
  2  3  1  0
  3  4  1  0
  3  5  1  0
  5  6  1  0
  6  7  2  0
  6  8  1  0
  8  9  1  0
  8  3  1  0
  1 10  1  0
  1 11  1  0
  1 12  1  0
  2 13  1  0
  2 14  1  0
  4 15  1  0
  4 16  1  0
  4 17  1  0
  5 18  1  0
  5 19  1  0
  8 20  1  0
  9 21  1  0
  9 22  1  0
  9 23  1  0
M  END
