
     RDKit          3D

 21 22  0  0  0  0  0  0  0  0999 V2000
    2.6575    0.6912    0.4193 C   0  0  0  0  0  0  0  0  0  0  0  0
    1.8305   -0.5712    0.2933 C   0  0  0  0  0  0  0  0  0  0  0  0
    0.3884   -0.3013    0.6026 C   0  0  0  0  0  0  0  0  0  0  0  0
   -0.3522    0.6835   -0.2229 C   0  0  0  0  0  0  0  0  0  0  0  0
   -1.7684    0.5900    0.2903 C   0  0  0  0  0  0  0  0  0  0  0  0
   -2.7069    1.0447   -0.6124 O   0  0  0  0  0  0  0  0  0  0  0  0
   -1.9464   -0.9197    0.4113 C   0  0  0  0  0  0  0  0  0  0  0  0
   -0.5796   -1.3982    0.8385 C   0  0  0  0  0  0  0  0  0  0  0  0
   -0.0330   -0.6613    1.8702 O   0  0  0  0  0  0  0  0  0  0  0  0
    3.7165    0.4021    0.5647 H   0  0  0  0  0  0  0  0  0  0  0  0
    2.5018    1.2503   -0.5462 H   0  0  0  0  0  0  0  0  0  0  0  0
    2.3624    1.3111    1.2759 H   0  0  0  0  0  0  0  0  0  0  0  0
    2.2180   -1.3265    1.0029 H   0  0  0  0  0  0  0  0  0  0  0  0
    1.9792   -0.9832   -0.7248 H   0  0  0  0  0  0  0  0  0  0  0  0
    0.0673    1.6894   -0.1728 H   0  0  0  0  0  0  0  0  0  0  0  0
   -0.3757    0.3185   -1.2794 H   0  0  0  0  0  0  0  0  0  0  0  0
   -1.8354    1.0745    1.2828 H   0  0  0  0  0  0  0  0  0  0  0  0
   -2.9559    1.9791   -0.4985 H   0  0  0  0  0  0  0  0  0  0  0  0
   -2.2889   -1.3547   -0.5328 H   0  0  0  0  0  0  0  0  0  0  0  0
   -2.6396   -1.1160    1.2533 H   0  0  0  0  0  0  0  0  0  0  0  0
   -0.2397   -2.4025    0.5997 H   0  0  0  0  0  0  0  0  0  0  0  0
  1  2  1  0
  2  3  1  0
  3  4  1  0
  4  5  1  0
  5  6  1  0
  5  7  1  0
  7  8  1  0
  8  9  1  0
  8  3  1  0
  9  3  1  0
  1 10  1  0
  1 11  1  0
  1 12  1  0
  2 13  1  0
  2 14  1  0
  4 15  1  0
  4 16  1  0
  5 17  1  0
  6 18  1  0
  7 19  1  0
  7 20  1  0
  8 21  1  0
M  END
