
     RDKit          3D

 19 20  0  0  0  0  0  0  0  0999 V2000
    2.1986   -0.5849    0.4142 C   0  0  0  0  0  0  0  0  0  0  0  0
    1.3378   -0.2168   -0.7539 C   0  0  0  0  0  0  0  0  0  0  0  0
   -0.1092   -0.0923   -0.4513 C   0  0  0  0  0  0  0  0  0  0  0  0
   -0.8250   -1.2651    0.0733 C   0  0  0  0  0  0  0  0  0  0  0  0
   -0.8357   -2.4577   -0.1536 O   0  0  0  0  0  0  0  0  0  0  0  0
   -1.5582   -0.4149    1.0204 C   0  0  0  0  0  0  0  0  0  0  0  0
   -0.6805    0.7430    0.6035 C   0  0  0  0  0  0  0  0  0  0  0  0
   -0.8185    1.1481   -0.8277 C   0  0  0  0  0  0  0  0  0  0  0  0
   -2.1327    1.1041   -1.3054 O   0  0  0  0  0  0  0  0  0  0  0  0
    1.7084   -0.3743    1.3864 H   0  0  0  0  0  0  0  0  0  0  0  0
    3.1042    0.0850    0.3874 H   0  0  0  0  0  0  0  0  0  0  0  0
    2.4881   -1.6580    0.4307 H   0  0  0  0  0  0  0  0  0  0  0  0
    1.6785    0.7094   -1.2629 H   0  0  0  0  0  0  0  0  0  0  0  0
    1.4629   -1.0293   -1.5267 H   0  0  0  0  0  0  0  0  0  0  0  0
   -2.6154   -0.2949    0.6975 H   0  0  0  0  0  0  0  0  0  0  0  0
   -1.5202   -0.6836    2.0830 H   0  0  0  0  0  0  0  0  0  0  0  0
   -0.1291    1.3197    1.3327 H   0  0  0  0  0  0  0  0  0  0  0  0
   -0.1916    1.9962   -1.1327 H   0  0  0  0  0  0  0  0  0  0  0  0
   -2.5626    1.9664   -1.0149 H   0  0  0  0  0  0  0  0  0  0  0  0
  1  2  1  0
  2  3  1  0
  3  4  1  0
  4  5  2  0
  4  6  1  0
  6  7  1  0
  7  8  1  0
  8  9  1  0
  7  3  1  0
  8  3  1  0
  1 10  1  0
  1 11  1  0
  1 12  1  0
  2 13  1  0
  2 14  1  0
  6 15  1  0
  6 16  1  0
  7 17  1  0
  8 18  1  0
  9 19  1  0
M  END
