
     RDKit          3D

 23 24  0  0  0  0  0  0  0  0999 V2000
    2.0600   -0.6733    1.0240 C   0  0  0  0  0  0  0  0  0  0  0  0
    1.6880    0.3385   -0.0295 C   0  0  0  0  0  0  0  0  0  0  0  0
    0.2638    0.1712   -0.5083 C   0  0  0  0  0  0  0  0  0  0  0  0
   -0.8097    0.3127    0.5487 C   0  0  0  0  0  0  0  0  0  0  0  0
   -0.8007    1.5734    1.1693 O   0  0  0  0  0  0  0  0  0  0  0  0
   -1.2419   -0.8208    1.3686 C   0  0  0  0  0  0  0  0  0  0  0  0
   -2.1786   -0.2328    0.3126 C   0  0  0  0  0  0  0  0  0  0  0  0
   -0.0331    0.9883   -1.7631 C   0  0  0  0  0  0  0  0  0  0  0  0
    0.0035   -0.5163   -1.7800 C   0  0  0  0  0  0  0  0  0  0  0  0
    1.5127   -0.4930    1.9757 H   0  0  0  0  0  0  0  0  0  0  0  0
    3.1437   -0.5202    1.2406 H   0  0  0  0  0  0  0  0  0  0  0  0
    1.8896   -1.7128    0.7239 H   0  0  0  0  0  0  0  0  0  0  0  0
    2.3946    0.2152   -0.8687 H   0  0  0  0  0  0  0  0  0  0  0  0
    1.8463    1.3437    0.3941 H   0  0  0  0  0  0  0  0  0  0  0  0
   -1.5215    2.1050    0.7525 H   0  0  0  0  0  0  0  0  0  0  0  0
   -0.8771   -1.8528    1.2348 H   0  0  0  0  0  0  0  0  0  0  0  0
   -1.5607   -0.6091    2.4233 H   0  0  0  0  0  0  0  0  0  0  0  0
   -2.4029   -0.9156   -0.5085 H   0  0  0  0  0  0  0  0  0  0  0  0
   -3.0625    0.3349    0.6737 H   0  0  0  0  0  0  0  0  0  0  0  0
   -0.9944    1.5089   -1.8520 H   0  0  0  0  0  0  0  0  0  0  0  0
    0.7930    1.4693   -2.2988 H   0  0  0  0  0  0  0  0  0  0  0  0
   -0.9815   -0.9888   -1.9697 H   0  0  0  0  0  0  0  0  0  0  0  0
    0.8697   -1.0257   -2.2630 H   0  0  0  0  0  0  0  0  0  0  0  0
  1  2  1  0
  2  3  1  0
  3  4  1  0
  4  5  1  0
  4  6  1  0
  6  7  1  0
  3  8  1  0
  8  9  1  0
  9  3  1  0
  7  4  1  0
  1 10  1  0
  1 11  1  0
  1 12  1  0
  2 13  1  0
  2 14  1  0
  5 15  1  0
  6 16  1  0
  6 17  1  0
  7 18  1  0
  7 19  1  0
  8 20  1  0
  8 21  1  0
  9 22  1  0
  9 23  1  0
M  END
