
     RDKit          3D

 18 18  0  0  0  0  0  0  0  0999 V2000
   -1.4532    0.8630    0.7066 C   0  0  0  0  0  0  0  0  0  0  0  0
   -1.6598   -0.0883   -0.4222 C   0  0  0  0  0  0  0  0  0  0  0  0
   -0.4258   -0.7886   -0.8846 C   0  0  0  0  0  0  0  0  0  0  0  0
    0.2394   -1.6309    0.2154 C   0  0  0  0  0  0  0  0  0  0  0  0
    0.9269   -0.4430   -0.4286 C   0  0  0  0  0  0  0  0  0  0  0  0
    1.1935    0.6841    0.3628 O   0  0  0  0  0  0  0  0  0  0  0  0
    2.3828    1.3942    0.3094 C   0  0  0  0  0  0  0  0  0  0  0  0
    3.2605    0.9941   -0.4969 O   0  0  0  0  0  0  0  0  0  0  0  0
   -0.8415    0.3872    1.4834 H   0  0  0  0  0  0  0  0  0  0  0  0
   -2.4467    1.1379    1.1140 H   0  0  0  0  0  0  0  0  0  0  0  0
   -0.9161    1.7543    0.3018 H   0  0  0  0  0  0  0  0  0  0  0  0
   -2.3686   -0.8826   -0.0681 H   0  0  0  0  0  0  0  0  0  0  0  0
   -2.1001    0.4830   -1.2839 H   0  0  0  0  0  0  0  0  0  0  0  0
   -0.5342   -1.2710   -1.8889 H   0  0  0  0  0  0  0  0  0  0  0  0
   -0.0848   -1.4926    1.2512 H   0  0  0  0  0  0  0  0  0  0  0  0
    0.5256   -2.6503   -0.1123 H   0  0  0  0  0  0  0  0  0  0  0  0
    1.7628   -0.7214   -1.1113 H   0  0  0  0  0  0  0  0  0  0  0  0
    2.5394    2.2708    0.9523 H   0  0  0  0  0  0  0  0  0  0  0  0
  1  2  1  0
  2  3  1  0
  3  4  1  0
  4  5  1  0
  5  6  1  0
  6  7  1  0
  7  8  2  0
  5  3  1  0
  1  9  1  0
  1 10  1  0
  1 11  1  0
  2 12  1  0
  2 13  1  0
  3 14  1  0
  4 15  1  0
  4 16  1  0
  5 17  1  0
  7 18  1  0
M  END
