
     RDKit          3D

 19 21  0  0  0  0  0  0  0  0999 V2000
    2.6540    0.3693   -0.2976 C   0  0  0  0  0  0  0  0  0  0  0  0
    1.1638    0.6238   -0.1889 C   0  0  0  0  0  0  0  0  0  0  0  0
    0.5185   -0.5719    0.4409 C   0  0  0  0  0  0  0  0  0  0  0  0
    0.8510   -1.5524   -0.4628 O   0  0  0  0  0  0  0  0  0  0  0  0
   -0.4169   -1.5709   -0.2597 C   0  0  0  0  0  0  0  0  0  0  0  0
   -1.5056   -0.5831   -0.3560 C   0  0  0  0  0  0  0  0  0  0  0  0
   -1.5807    0.7753    0.2138 C   0  0  0  0  0  0  0  0  0  0  0  0
   -2.7246    1.3005    0.8013 O   0  0  0  0  0  0  0  0  0  0  0  0
   -0.8275   -0.2014    0.9971 C   0  0  0  0  0  0  0  0  0  0  0  0
    2.8182   -0.2539   -1.2047 H   0  0  0  0  0  0  0  0  0  0  0  0
    2.9581   -0.2605    0.5709 H   0  0  0  0  0  0  0  0  0  0  0  0
    3.2391    1.3110   -0.3105 H   0  0  0  0  0  0  0  0  0  0  0  0
    0.7442    0.8688   -1.1895 H   0  0  0  0  0  0  0  0  0  0  0  0
    1.0479    1.4960    0.4986 H   0  0  0  0  0  0  0  0  0  0  0  0
   -0.6669   -2.3940    0.5000 H   0  0  0  0  0  0  0  0  0  0  0  0
   -2.5361   -1.0555   -0.2989 H   0  0  0  0  0  0  0  0  0  0  0  0
   -1.0225    1.5557   -0.3751 H   0  0  0  0  0  0  0  0  0  0  0  0
   -3.4941    0.8072    0.3820 H   0  0  0  0  0  0  0  0  0  0  0  0
   -1.2202   -0.6639    1.8997 H   0  0  0  0  0  0  0  0  0  0  0  0
  1  2  1  0
  2  3  1  0
  3  4  1  0
  4  5  1  0
  5  6  1  0
  6  7  1  0
  7  8  1  0
  7  9  1  0
  5  3  1  0
  9  6  1  0
  9  3  1  0
  1 10  1  0
  1 11  1  0
  1 12  1  0
  2 13  1  0
  2 14  1  0
  5 15  1  0
  6 16  1  0
  7 17  1  0
  8 18  1  0
  9 19  1  0
M  END
