
     RDKit          3D

 19 19  0  0  0  0  0  0  0  0999 V2000
    2.8854   -0.5676    0.4280 C   0  0  0  0  0  0  0  0  0  0  0  0
    1.6544   -0.3618   -0.4662 C   0  0  0  0  0  0  0  0  0  0  0  0
    0.9304    0.8270    0.0459 C   0  0  0  0  0  0  0  0  0  0  0  0
    0.5081    0.6108    1.4539 O   0  0  0  0  0  0  0  0  0  0  0  0
   -0.4386    0.9260    0.4449 C   0  0  0  0  0  0  0  0  0  0  0  0
   -1.4395   -0.1401    0.2716 C   0  0  0  0  0  0  0  0  0  0  0  0
   -1.0868   -1.2930    0.1824 O   0  0  0  0  0  0  0  0  0  0  0  0
   -2.8837    0.1735    0.2038 C   0  0  0  0  0  0  0  0  0  0  0  0
   -3.5893   -1.0126    0.0390 O   0  0  0  0  0  0  0  0  0  0  0  0
    3.5584    0.3157    0.2301 H   0  0  0  0  0  0  0  0  0  0  0  0
    2.5626   -0.4564    1.4841 H   0  0  0  0  0  0  0  0  0  0  0  0
    3.3889   -1.5165    0.2234 H   0  0  0  0  0  0  0  0  0  0  0  0
    1.0970   -1.2856   -0.5735 H   0  0  0  0  0  0  0  0  0  0  0  0
    2.0921   -0.0826   -1.4679 H   0  0  0  0  0  0  0  0  0  0  0  0
    1.5497    1.7525    0.0576 H   0  0  0  0  0  0  0  0  0  0  0  0
   -0.8544    1.9724    0.5283 H   0  0  0  0  0  0  0  0  0  0  0  0
   -3.0568    0.8742   -0.6588 H   0  0  0  0  0  0  0  0  0  0  0  0
   -3.2415    0.7042    1.1161 H   0  0  0  0  0  0  0  0  0  0  0  0
   -3.6362   -1.4402    0.9424 H   0  0  0  0  0  0  0  0  0  0  0  0
  1  2  1  0
  2  3  1  0
  3  4  1  0
  4  5  1  0
  5  6  1  0
  6  7  2  0
  6  8  1  0
  8  9  1  0
  5  3  1  0
  1 10  1  0
  1 11  1  0
  1 12  1  0
  2 13  1  0
  2 14  1  0
  3 15  1  0
  5 16  1  0
  8 17  1  0
  8 18  1  0
  9 19  1  0
M  END
