
     RDKit          3D

 17 17  0  0  0  0  0  0  0  0999 V2000
   -2.2811   -0.1112    0.1065 C   0  0  0  0  0  0  0  0  0  0  0  0
   -1.1986    0.2221   -0.9015 C   0  0  0  0  0  0  0  0  0  0  0  0
    0.0919    0.3383   -0.1677 C   0  0  0  0  0  0  0  0  0  0  0  0
    0.5202   -0.8611    0.5467 C   0  0  0  0  0  0  0  0  0  0  0  0
    1.8417   -0.7867    0.6531 C   0  0  0  0  0  0  0  0  0  0  0  0
    2.2153    0.5123   -0.0279 C   0  0  0  0  0  0  0  0  0  0  0  0
    1.1812    0.5990   -0.9952 O   0  0  0  0  0  0  0  0  0  0  0  0
   -3.2844    0.0519   -0.3445 H   0  0  0  0  0  0  0  0  0  0  0  0
   -2.1751   -1.1794    0.4127 H   0  0  0  0  0  0  0  0  0  0  0  0
   -2.0934    0.5332    0.9894 H   0  0  0  0  0  0  0  0  0  0  0  0
   -1.4528    1.2587   -1.2731 H   0  0  0  0  0  0  0  0  0  0  0  0
   -1.1895   -0.4184   -1.7742 H   0  0  0  0  0  0  0  0  0  0  0  0
    0.0555    1.1927    0.5572 H   0  0  0  0  0  0  0  0  0  0  0  0
   -0.0643   -1.7041    0.9500 H   0  0  0  0  0  0  0  0  0  0  0  0
    2.5416   -1.4763    1.1151 H   0  0  0  0  0  0  0  0  0  0  0  0
    3.1985    0.4627   -0.4837 H   0  0  0  0  0  0  0  0  0  0  0  0
    2.0934    1.3664    0.6372 H   0  0  0  0  0  0  0  0  0  0  0  0
  1  2  1  0
  2  3  1  0
  3  4  1  0
  4  5  2  0
  5  6  1  0
  6  7  1  0
  7  3  1  0
  1  8  1  0
  1  9  1  0
  1 10  1  0
  2 11  1  0
  2 12  1  0
  3 13  1  0
  4 14  1  0
  5 15  1  0
  6 16  1  0
  6 17  1  0
M  END
