
     RDKit          3D

 23 25  0  0  0  0  0  0  0  0999 V2000
    2.4770    0.1868   -0.6390 C   0  0  0  0  0  0  0  0  0  0  0  0
    1.4713   -0.7533   -0.0282 C   0  0  0  0  0  0  0  0  0  0  0  0
    0.1423   -0.1711    0.1885 C   0  0  0  0  0  0  0  0  0  0  0  0
    0.0620    1.0322    1.1072 C   0  0  0  0  0  0  0  0  0  0  0  0
   -1.4587    1.2620    1.0649 C   0  0  0  0  0  0  0  0  0  0  0  0
   -1.8381    0.2094    0.0823 C   0  0  0  0  0  0  0  0  0  0  0  0
   -0.7399    0.1722   -0.9659 C   0  0  0  0  0  0  0  0  0  0  0  0
   -1.0671   -1.2721   -1.0699 C   0  0  0  0  0  0  0  0  0  0  0  0
   -1.0432   -1.0254    0.4123 C   0  0  0  0  0  0  0  0  0  0  0  0
    2.1353    1.2419   -0.5622 H   0  0  0  0  0  0  0  0  0  0  0  0
    2.6111   -0.1371   -1.7030 H   0  0  0  0  0  0  0  0  0  0  0  0
    3.4766    0.0714   -0.1712 H   0  0  0  0  0  0  0  0  0  0  0  0
    1.8789   -1.0025    1.0005 H   0  0  0  0  0  0  0  0  0  0  0  0
    1.4477   -1.7262   -0.5446 H   0  0  0  0  0  0  0  0  0  0  0  0
    0.5963    1.8704    0.6212 H   0  0  0  0  0  0  0  0  0  0  0  0
    0.4189    0.8134    2.1103 H   0  0  0  0  0  0  0  0  0  0  0  0
   -1.6482    2.2834    0.7000 H   0  0  0  0  0  0  0  0  0  0  0  0
   -1.8481    1.0935    2.0834 H   0  0  0  0  0  0  0  0  0  0  0  0
   -2.8503    0.1066   -0.2452 H   0  0  0  0  0  0  0  0  0  0  0  0
   -0.5966    0.8503   -1.6851 H   0  0  0  0  0  0  0  0  0  0  0  0
   -0.2994   -1.8936   -1.5079 H   0  0  0  0  0  0  0  0  0  0  0  0
   -2.0973   -1.5267   -1.3875 H   0  0  0  0  0  0  0  0  0  0  0  0
   -1.2304   -1.6854    1.1389 H   0  0  0  0  0  0  0  0  0  0  0  0
  1  2  1  0
  2  3  1  0
  3  4  1  0
  4  5  1  0
  5  6  1  0
  6  7  1  0
  7  8  1  0
  8  9  1  0
  7  3  1  0
  9  3  1  0
  9  6  1  0
  1 10  1  0
  1 11  1  0
  1 12  1  0
  2 13  1  0
  2 14  1  0
  4 15  1  0
  4 16  1  0
  5 17  1  0
  5 18  1  0
  6 19  1  0
  7 20  1  0
  8 21  1  0
  8 22  1  0
  9 23  1  0
M  END
