
     RDKit          3D

 25 25  0  0  0  0  0  0  0  0999 V2000
    2.5848   -0.9760    0.7844 C   0  0  0  0  0  0  0  0  0  0  0  0
    2.0984   -0.1686   -0.4133 C   0  0  0  0  0  0  0  0  0  0  0  0
    0.6235   -0.0069   -0.3469 C   0  0  0  0  0  0  0  0  0  0  0  0
   -0.0264    1.1427   -0.2840 C   0  0  0  0  0  0  0  0  0  0  0  0
    0.6298    2.4982   -0.2687 C   0  0  0  0  0  0  0  0  0  0  0  0
   -1.4878    0.8714   -0.2346 C   0  0  0  0  0  0  0  0  0  0  0  0
   -1.5030   -0.5022    0.4019 C   0  0  0  0  0  0  0  0  0  0  0  0
   -2.8001   -1.2165    0.2221 C   0  0  0  0  0  0  0  0  0  0  0  0
   -0.3582   -1.1546   -0.3391 C   0  0  0  0  0  0  0  0  0  0  0  0
    2.3754   -2.0473    0.5291 H   0  0  0  0  0  0  0  0  0  0  0  0
    3.6666   -0.8078    0.8876 H   0  0  0  0  0  0  0  0  0  0  0  0
    1.9963   -0.6954    1.6708 H   0  0  0  0  0  0  0  0  0  0  0  0
    2.5875    0.8095   -0.4504 H   0  0  0  0  0  0  0  0  0  0  0  0
    2.3730   -0.7290   -1.3197 H   0  0  0  0  0  0  0  0  0  0  0  0
   -0.0630    3.1758    0.2435 H   0  0  0  0  0  0  0  0  0  0  0  0
    1.5764    2.4833    0.2896 H   0  0  0  0  0  0  0  0  0  0  0  0
    0.8761    2.8378   -1.2992 H   0  0  0  0  0  0  0  0  0  0  0  0
   -1.8440    0.8115   -1.2952 H   0  0  0  0  0  0  0  0  0  0  0  0
   -2.0494    1.6185    0.3517 H   0  0  0  0  0  0  0  0  0  0  0  0
   -1.2520   -0.4227    1.4554 H   0  0  0  0  0  0  0  0  0  0  0  0
   -2.7668   -2.1504    0.7974 H   0  0  0  0  0  0  0  0  0  0  0  0
   -3.5998   -0.5901    0.6630 H   0  0  0  0  0  0  0  0  0  0  0  0
   -3.0568   -1.4215   -0.8255 H   0  0  0  0  0  0  0  0  0  0  0  0
    0.0467   -2.0357    0.1700 H   0  0  0  0  0  0  0  0  0  0  0  0
   -0.6272   -1.3240   -1.3900 H   0  0  0  0  0  0  0  0  0  0  0  0
  1  2  1  0
  2  3  1  0
  3  4  2  0
  4  5  1  0
  4  6  1  0
  6  7  1  0
  7  8  1  0
  7  9  1  0
  9  3  1  0
  1 10  1  0
  1 11  1  0
  1 12  1  0
  2 13  1  0
  2 14  1  0
  5 15  1  0
  5 16  1  0
  5 17  1  0
  6 18  1  0
  6 19  1  0
  7 20  1  0
  8 21  1  0
  8 22  1  0
  8 23  1  0
  9 24  1  0
  9 25  1  0
M  END
