
     RDKit          3D

 23 24  0  0  0  0  0  0  0  0999 V2000
   -1.9875    1.6175    0.2081 C   0  0  0  0  0  0  0  0  0  0  0  0
   -1.2185    0.5786    1.0329 C   0  0  0  0  0  0  0  0  0  0  0  0
   -0.5270   -0.3184    0.0706 C   0  0  0  0  0  0  0  0  0  0  0  0
   -1.2936   -1.0933   -0.9044 C   0  0  0  0  0  0  0  0  0  0  0  0
   -0.5518   -1.7837    0.1492 C   0  0  0  0  0  0  0  0  0  0  0  0
    0.9538   -1.7985    0.1723 C   0  0  0  0  0  0  0  0  0  0  0  0
    0.9667   -0.2875   -0.0970 C   0  0  0  0  0  0  0  0  0  0  0  0
    1.6708    0.3345    0.9198 O   0  0  0  0  0  0  0  0  0  0  0  0
    2.6710    1.1045    0.3309 C   0  0  0  0  0  0  0  0  0  0  0  0
   -1.4708    1.7860   -0.7538 H   0  0  0  0  0  0  0  0  0  0  0  0
   -2.9867    1.1947   -0.0490 H   0  0  0  0  0  0  0  0  0  0  0  0
   -2.1088    2.5595    0.7342 H   0  0  0  0  0  0  0  0  0  0  0  0
   -1.9874   -0.0210    1.5730 H   0  0  0  0  0  0  0  0  0  0  0  0
   -0.5593    1.0532    1.7677 H   0  0  0  0  0  0  0  0  0  0  0  0
   -0.9297   -1.0389   -1.9634 H   0  0  0  0  0  0  0  0  0  0  0  0
   -2.3816   -1.0703   -0.8304 H   0  0  0  0  0  0  0  0  0  0  0  0
   -1.0829   -2.3474    0.9361 H   0  0  0  0  0  0  0  0  0  0  0  0
    1.3081   -2.0873    1.1782 H   0  0  0  0  0  0  0  0  0  0  0  0
    1.4417   -2.3671   -0.6408 H   0  0  0  0  0  0  0  0  0  0  0  0
    1.3348   -0.0479   -1.0996 H   0  0  0  0  0  0  0  0  0  0  0  0
    2.1520    1.8439   -0.3283 H   0  0  0  0  0  0  0  0  0  0  0  0
    3.2446    1.6953    1.0734 H   0  0  0  0  0  0  0  0  0  0  0  0
    3.3420    0.4936   -0.3183 H   0  0  0  0  0  0  0  0  0  0  0  0
  1  2  1  0
  2  3  1  0
  3  4  1  0
  4  5  1  0
  5  6  1  0
  6  7  1  0
  7  8  1  0
  8  9  1  0
  5  3  1  0
  7  3  1  0
  1 10  1  0
  1 11  1  0
  1 12  1  0
  2 13  1  0
  2 14  1  0
  4 15  1  0
  4 16  1  0
  5 17  1  0
  6 18  1  0
  6 19  1  0
  7 20  1  0
  9 21  1  0
  9 22  1  0
  9 23  1  0
M  END
