
     RDKit          3D

 23 23  0  0  0  0  0  0  0  0999 V2000
    3.0127   -0.0711    0.2053 C   0  0  0  0  0  0  0  0  0  0  0  0
    1.7601    0.4511   -0.4206 C   0  0  0  0  0  0  0  0  0  0  0  0
    0.5770   -0.4784   -0.1998 C   0  0  0  0  0  0  0  0  0  0  0  0
    0.2883   -0.6702    1.2639 C   0  0  0  0  0  0  0  0  0  0  0  0
   -1.0541   -0.0929    1.4388 C   0  0  0  0  0  0  0  0  0  0  0  0
   -1.4847    0.4226    2.4295 O   0  0  0  0  0  0  0  0  0  0  0  0
   -1.7532   -0.2774    0.1574 C   0  0  0  0  0  0  0  0  0  0  0  0
   -2.9780    0.5689   -0.0004 C   0  0  0  0  0  0  0  0  0  0  0  0
   -0.6478    0.1248   -0.8290 C   0  0  0  0  0  0  0  0  0  0  0  0
    3.0714   -1.1714    0.2451 H   0  0  0  0  0  0  0  0  0  0  0  0
    3.0621    0.3035    1.2658 H   0  0  0  0  0  0  0  0  0  0  0  0
    3.9056    0.3548   -0.3196 H   0  0  0  0  0  0  0  0  0  0  0  0
    1.8798    0.5646   -1.5183 H   0  0  0  0  0  0  0  0  0  0  0  0
    1.5202    1.4689   -0.0254 H   0  0  0  0  0  0  0  0  0  0  0  0
    0.8407   -1.4463   -0.6747 H   0  0  0  0  0  0  0  0  0  0  0  0
    1.0593   -0.2148    1.9164 H   0  0  0  0  0  0  0  0  0  0  0  0
    0.1895   -1.7765    1.4641 H   0  0  0  0  0  0  0  0  0  0  0  0
   -1.9760   -1.3652    0.0474 H   0  0  0  0  0  0  0  0  0  0  0  0
   -2.6733    1.5167   -0.4960 H   0  0  0  0  0  0  0  0  0  0  0  0
   -3.6470    0.0390   -0.7328 H   0  0  0  0  0  0  0  0  0  0  0  0
   -3.5272    0.7422    0.9411 H   0  0  0  0  0  0  0  0  0  0  0  0
   -0.5729    1.2271   -0.7486 H   0  0  0  0  0  0  0  0  0  0  0  0
   -0.8525   -0.2199   -1.8426 H   0  0  0  0  0  0  0  0  0  0  0  0
  1  2  1  0
  2  3  1  0
  3  4  1  0
  4  5  1  0
  5  6  2  0
  5  7  1  0
  7  8  1  0
  7  9  1  0
  9  3  1  0
  1 10  1  0
  1 11  1  0
  1 12  1  0
  2 13  1  0
  2 14  1  0
  3 15  1  0
  4 16  1  0
  4 17  1  0
  7 18  1  0
  8 19  1  0
  8 20  1  0
  8 21  1  0
  9 22  1  0
  9 23  1  0
M  END
