
     RDKit          3D

 23 24  0  0  0  0  0  0  0  0999 V2000
    2.8699   -0.5870   -0.7780 C   0  0  0  0  0  0  0  0  0  0  0  0
    1.8572    0.4328   -0.2911 C   0  0  0  0  0  0  0  0  0  0  0  0
    1.0071   -0.1248    0.8177 C   0  0  0  0  0  0  0  0  0  0  0  0
   -0.0332    0.7455    1.4057 C   0  0  0  0  0  0  0  0  0  0  0  0
   -0.3851   -0.5159    0.6333 C   0  0  0  0  0  0  0  0  0  0  0  0
   -1.1526   -0.2901   -0.6268 C   0  0  0  0  0  0  0  0  0  0  0  0
   -2.5951   -0.8069   -0.5671 C   0  0  0  0  0  0  0  0  0  0  0  0
   -3.0761    0.3944   -1.0750 O   0  0  0  0  0  0  0  0  0  0  0  0
   -1.9231    1.0119   -0.5650 C   0  0  0  0  0  0  0  0  0  0  0  0
    3.8299   -0.4927   -0.2338 H   0  0  0  0  0  0  0  0  0  0  0  0
    2.4379   -1.5909   -0.4947 H   0  0  0  0  0  0  0  0  0  0  0  0
    2.9684   -0.5815   -1.8695 H   0  0  0  0  0  0  0  0  0  0  0  0
    1.2863    0.8421   -1.1220 H   0  0  0  0  0  0  0  0  0  0  0  0
    2.4710    1.2609    0.1699 H   0  0  0  0  0  0  0  0  0  0  0  0
    1.6085   -0.7299    1.5561 H   0  0  0  0  0  0  0  0  0  0  0  0
   -0.2978    0.6930    2.4798 H   0  0  0  0  0  0  0  0  0  0  0  0
   -0.1439    1.7313    0.9574 H   0  0  0  0  0  0  0  0  0  0  0  0
   -0.7693   -1.3929    1.2264 H   0  0  0  0  0  0  0  0  0  0  0  0
   -0.6387   -0.4909   -1.5741 H   0  0  0  0  0  0  0  0  0  0  0  0
   -2.7821   -1.6724   -1.2163 H   0  0  0  0  0  0  0  0  0  0  0  0
   -2.8566   -1.0129    0.4893 H   0  0  0  0  0  0  0  0  0  0  0  0
   -1.6000    1.7924   -1.2811 H   0  0  0  0  0  0  0  0  0  0  0  0
   -2.0827    1.3846    0.4709 H   0  0  0  0  0  0  0  0  0  0  0  0
  1  2  1  0
  2  3  1  0
  3  4  1  0
  4  5  1  0
  5  6  1  0
  6  7  1  0
  7  8  1  0
  8  9  1  0
  5  3  1  0
  9  6  1  0
  1 10  1  0
  1 11  1  0
  1 12  1  0
  2 13  1  0
  2 14  1  0
  3 15  1  0
  4 16  1  0
  4 17  1  0
  5 18  1  0
  6 19  1  0
  7 20  1  0
  7 21  1  0
  9 22  1  0
  9 23  1  0
M  END
