
     RDKit          3D

 21 22  0  0  0  0  0  0  0  0999 V2000
   -3.1712   -0.2839   -0.2552 C   0  0  0  0  0  0  0  0  0  0  0  0
   -2.1491   -0.9243    0.6502 C   0  0  0  0  0  0  0  0  0  0  0  0
   -1.0066    0.0208    0.8367 C   0  0  0  0  0  0  0  0  0  0  0  0
   -0.0300   -0.5660    1.6894 O   0  0  0  0  0  0  0  0  0  0  0  0
    0.7512    0.4475    1.1324 C   0  0  0  0  0  0  0  0  0  0  0  0
    1.4242    0.4670   -0.1168 C   0  0  0  0  0  0  0  0  0  0  0  0
    2.6325   -0.2560   -0.1978 O   0  0  0  0  0  0  0  0  0  0  0  0
    3.5999    0.3843   -0.9321 C   0  0  0  0  0  0  0  0  0  0  0  0
    0.1254   -0.1591   -0.1873 C   0  0  0  0  0  0  0  0  0  0  0  0
   -3.1062    0.8106   -0.1543 H   0  0  0  0  0  0  0  0  0  0  0  0
   -3.0293   -0.6018   -1.3190 H   0  0  0  0  0  0  0  0  0  0  0  0
   -4.1948   -0.5837    0.0335 H   0  0  0  0  0  0  0  0  0  0  0  0
   -1.7407   -1.8625    0.2103 H   0  0  0  0  0  0  0  0  0  0  0  0
   -2.6075   -1.1412    1.6221 H   0  0  0  0  0  0  0  0  0  0  0  0
   -1.2862    1.0409    1.0616 H   0  0  0  0  0  0  0  0  0  0  0  0
    0.2868    1.4340    1.4466 H   0  0  0  0  0  0  0  0  0  0  0  0
    1.5203    1.4371   -0.6868 H   0  0  0  0  0  0  0  0  0  0  0  0
    3.8673    1.3747   -0.5105 H   0  0  0  0  0  0  0  0  0  0  0  0
    4.5176   -0.2336   -0.8692 H   0  0  0  0  0  0  0  0  0  0  0  0
    3.3580    0.4809   -2.0064 H   0  0  0  0  0  0  0  0  0  0  0  0
    0.2384   -1.2856   -0.2799 H   0  0  0  0  0  0  0  0  0  0  0  0
  1  2  1  0
  2  3  1  0
  3  4  1  0
  4  5  1  0
  5  6  1  0
  6  7  1  0
  7  8  1  0
  6  9  1  0
  9  3  1  0
  9  5  1  0
  1 10  1  0
  1 11  1  0
  1 12  1  0
  2 13  1  0
  2 14  1  0
  3 15  1  0
  5 16  1  0
  6 17  1  0
  8 18  1  0
  8 19  1  0
  8 20  1  0
  9 21  1  0
M  END
