
     RDKit          3D

 19 21  0  0  0  0  0  0  0  0999 V2000
   -2.4973   -0.0848    0.0678 C   0  0  0  0  0  0  0  0  0  0  0  0
   -1.1548   -0.3816    0.6522 C   0  0  0  0  0  0  0  0  0  0  0  0
   -0.0437   -0.4126   -0.3538 C   0  0  0  0  0  0  0  0  0  0  0  0
    0.0468    0.9616   -1.0416 C   0  0  0  0  0  0  0  0  0  0  0  0
    1.1739    1.1283   -1.8770 O   0  0  0  0  0  0  0  0  0  0  0  0
    1.2223    1.2373   -0.4262 C   0  0  0  0  0  0  0  0  0  0  0  0
    1.2913   -0.1165    0.2178 C   0  0  0  0  0  0  0  0  0  0  0  0
    2.4101   -0.8670    0.3884 C   0  0  0  0  0  0  0  0  0  0  0  0
    1.6210   -0.2921    1.5230 O   0  0  0  0  0  0  0  0  0  0  0  0
   -3.3089   -0.5807    0.6464 H   0  0  0  0  0  0  0  0  0  0  0  0
   -2.5427   -0.4922   -0.9638 H   0  0  0  0  0  0  0  0  0  0  0  0
   -2.7203    1.0057    0.0844 H   0  0  0  0  0  0  0  0  0  0  0  0
   -1.1774   -1.3786    1.1626 H   0  0  0  0  0  0  0  0  0  0  0  0
   -0.9576    0.3723    1.4477 H   0  0  0  0  0  0  0  0  0  0  0  0
   -0.1372   -1.2541   -1.0496 H   0  0  0  0  0  0  0  0  0  0  0  0
   -0.8627    1.4866   -1.3052 H   0  0  0  0  0  0  0  0  0  0  0  0
    1.7594    2.0953   -0.0577 H   0  0  0  0  0  0  0  0  0  0  0  0
    2.4439   -1.9892    0.4593 H   0  0  0  0  0  0  0  0  0  0  0  0
    3.4338   -0.4378    0.4253 H   0  0  0  0  0  0  0  0  0  0  0  0
  1  2  1  0
  2  3  1  0
  3  4  1  0
  4  5  1  0
  5  6  1  0
  6  7  1  0
  7  8  1  0
  8  9  1  0
  7  3  1  0
  6  4  1  0
  9  7  1  0
  1 10  1  0
  1 11  1  0
  1 12  1  0
  2 13  1  0
  2 14  1  0
  3 15  1  0
  4 16  1  0
  6 17  1  0
  8 18  1  0
  8 19  1  0
M  END
