
     RDKit          3D

 21 21  0  0  0  0  0  0  0  0999 V2000
    2.5200   -0.3393   -0.0662 C   0  0  0  0  0  0  0  0  0  0  0  0
    1.4852    0.7299    0.0400 C   0  0  0  0  0  0  0  0  0  0  0  0
    0.0931    0.2770   -0.2651 C   0  0  0  0  0  0  0  0  0  0  0  0
   -0.4760   -0.8055    0.5887 C   0  0  0  0  0  0  0  0  0  0  0  0
   -1.2823   -1.8526   -0.1720 C   0  0  0  0  0  0  0  0  0  0  0  0
   -1.3405    0.0785    1.2278 O   0  0  0  0  0  0  0  0  0  0  0  0
   -0.9394    1.1331    0.4234 C   0  0  0  0  0  0  0  0  0  0  0  0
   -1.9932    1.6542   -0.4942 C   0  0  0  0  0  0  0  0  0  0  0  0
   -3.1137    1.2236   -0.5632 O   0  0  0  0  0  0  0  0  0  0  0  0
    2.8994   -0.6734    0.9214 H   0  0  0  0  0  0  0  0  0  0  0  0
    2.1551   -1.2538   -0.5970 H   0  0  0  0  0  0  0  0  0  0  0  0
    3.4210    0.0818   -0.5983 H   0  0  0  0  0  0  0  0  0  0  0  0
    1.7068    1.5965   -0.6243 H   0  0  0  0  0  0  0  0  0  0  0  0
    1.4956    1.1591    1.0814 H   0  0  0  0  0  0  0  0  0  0  0  0
   -0.1254    0.2024   -1.3444 H   0  0  0  0  0  0  0  0  0  0  0  0
    0.2547   -1.2897    1.2402 H   0  0  0  0  0  0  0  0  0  0  0  0
   -2.2739   -1.4549   -0.4790 H   0  0  0  0  0  0  0  0  0  0  0  0
   -0.7418   -2.2303   -1.0580 H   0  0  0  0  0  0  0  0  0  0  0  0
   -1.4931   -2.6895    0.5411 H   0  0  0  0  0  0  0  0  0  0  0  0
   -0.5406    1.9727    1.0294 H   0  0  0  0  0  0  0  0  0  0  0  0
   -1.7110    2.4801   -1.1376 H   0  0  0  0  0  0  0  0  0  0  0  0
  1  2  1  0
  2  3  1  0
  3  4  1  0
  4  5  1  0
  4  6  1  0
  6  7  1  0
  7  8  1  0
  8  9  2  0
  7  3  1  0
  1 10  1  0
  1 11  1  0
  1 12  1  0
  2 13  1  0
  2 14  1  0
  3 15  1  0
  4 16  1  0
  5 17  1  0
  5 18  1  0
  5 19  1  0
  7 20  1  0
  8 21  1  0
M  END
