
     RDKit          3D

 17 17  0  0  0  0  0  0  0  0999 V2000
   -1.8856   -1.0791    0.3129 C   0  0  0  0  0  0  0  0  0  0  0  0
   -1.2998    0.1864    0.8896 C   0  0  0  0  0  0  0  0  0  0  0  0
   -0.2488    0.7793   -0.0302 C   0  0  0  0  0  0  0  0  0  0  0  0
    0.9250   -0.0483   -0.3350 C   0  0  0  0  0  0  0  0  0  0  0  0
    1.9028   -0.7374   -0.5807 C   0  0  0  0  0  0  0  0  0  0  0  0
    3.0842   -1.5455   -0.8586 C   0  0  0  0  0  0  0  0  0  0  0  0
    3.1879   -2.3046   -1.8385 O   0  0  0  0  0  0  0  0  0  0  0  0
   -0.0225    2.2471    0.0751 C   0  0  0  0  0  0  0  0  0  0  0  0
   -0.7126    1.5990   -1.0579 O   0  0  0  0  0  0  0  0  0  0  0  0
   -1.1690   -1.9242    0.3457 H   0  0  0  0  0  0  0  0  0  0  0  0
   -2.8609   -1.3488    0.7432 H   0  0  0  0  0  0  0  0  0  0  0  0
   -2.0770   -0.8672   -0.7633 H   0  0  0  0  0  0  0  0  0  0  0  0
   -2.1046    0.9669    0.9694 H   0  0  0  0  0  0  0  0  0  0  0  0
   -0.8342   -0.0432    1.8474 H   0  0  0  0  0  0  0  0  0  0  0  0
    3.8926   -1.4258   -0.1130 H   0  0  0  0  0  0  0  0  0  0  0  0
   -0.7439    2.9064    0.5996 H   0  0  0  0  0  0  0  0  0  0  0  0
    0.9664    2.6391   -0.2057 H   0  0  0  0  0  0  0  0  0  0  0  0
  1  2  1  0
  2  3  1  0
  3  4  1  0
  4  5  3  0
  5  6  1  0
  6  7  2  0
  3  8  1  0
  8  9  1  0
  9  3  1  0
  1 10  1  0
  1 11  1  0
  1 12  1  0
  2 13  1  0
  2 14  1  0
  6 15  1  0
  8 16  1  0
  8 17  1  0
M  END
