
     RDKit          3D

 21 22  0  0  0  0  0  0  0  0999 V2000
    2.2300    0.0422   -0.8901 C   0  0  0  0  0  0  0  0  0  0  0  0
    1.3326   -0.7582    0.0512 C   0  0  0  0  0  0  0  0  0  0  0  0
    0.4140    0.1690    0.8102 C   0  0  0  0  0  0  0  0  0  0  0  0
   -0.5100    0.9971   -0.0583 C   0  0  0  0  0  0  0  0  0  0  0  0
   -1.2300    0.0264   -0.9574 C   0  0  0  0  0  0  0  0  0  0  0  0
   -1.3691   -1.1035    0.0461 C   0  0  0  0  0  0  0  0  0  0  0  0
   -1.7839   -2.2153   -0.1983 O   0  0  0  0  0  0  0  0  0  0  0  0
   -0.8869   -0.4704    1.2752 C   0  0  0  0  0  0  0  0  0  0  0  0
   -1.4565    0.9524    1.1512 C   0  0  0  0  0  0  0  0  0  0  0  0
    1.6362    0.3841   -1.7715 H   0  0  0  0  0  0  0  0  0  0  0  0
    2.6877    0.8943   -0.3457 H   0  0  0  0  0  0  0  0  0  0  0  0
    3.0438   -0.6118   -1.2630 H   0  0  0  0  0  0  0  0  0  0  0  0
    2.0155   -1.2232    0.7907 H   0  0  0  0  0  0  0  0  0  0  0  0
    0.7731   -1.5077   -0.5382 H   0  0  0  0  0  0  0  0  0  0  0  0
    0.8659    0.7203    1.6256 H   0  0  0  0  0  0  0  0  0  0  0  0
   -0.2012    1.9376   -0.4122 H   0  0  0  0  0  0  0  0  0  0  0  0
   -0.6859   -0.2735   -1.8376 H   0  0  0  0  0  0  0  0  0  0  0  0
   -2.2494    0.4147   -1.1230 H   0  0  0  0  0  0  0  0  0  0  0  0
   -0.9267   -0.9425    2.2136 H   0  0  0  0  0  0  0  0  0  0  0  0
   -2.5199    0.9453    0.8399 H   0  0  0  0  0  0  0  0  0  0  0  0
   -1.1793    1.6227    1.9670 H   0  0  0  0  0  0  0  0  0  0  0  0
  1  2  1  0
  2  3  1  0
  3  4  1  0
  4  5  1  0
  5  6  1  0
  6  7  2  0
  6  8  1  0
  8  9  1  0
  8  3  1  0
  9  4  1  0
  1 10  1  0
  1 11  1  0
  1 12  1  0
  2 13  1  0
  2 14  1  0
  3 15  1  0
  4 16  1  0
  5 17  1  0
  5 18  1  0
  8 19  1  0
  9 20  1  0
  9 21  1  0
M  END
