
     RDKit          3D

 23 23  0  0  0  0  0  0  0  0999 V2000
    2.6904   -0.3809    0.8234 C   0  0  0  0  0  0  0  0  0  0  0  0
    1.8033    0.4455   -0.0484 C   0  0  0  0  0  0  0  0  0  0  0  0
    0.4420   -0.1804   -0.2782 C   0  0  0  0  0  0  0  0  0  0  0  0
    0.6028   -1.4283   -0.8965 O   0  0  0  0  0  0  0  0  0  0  0  0
   -0.2393    0.6965   -1.2733 C   0  0  0  0  0  0  0  0  0  0  0  0
   -1.5540    0.7976   -1.3898 C   0  0  0  0  0  0  0  0  0  0  0  0
   -2.3665   -0.0239   -0.4602 C   0  0  0  0  0  0  0  0  0  0  0  0
   -1.7651    0.0950    0.9181 C   0  0  0  0  0  0  0  0  0  0  0  0
   -0.3387   -0.3294    0.9878 C   0  0  0  0  0  0  0  0  0  0  0  0
    2.5921   -0.0193    1.8773 H   0  0  0  0  0  0  0  0  0  0  0  0
    3.7435   -0.1765    0.5385 H   0  0  0  0  0  0  0  0  0  0  0  0
    2.5276   -1.4606    0.7538 H   0  0  0  0  0  0  0  0  0  0  0  0
    2.2722    0.6087   -1.0414 H   0  0  0  0  0  0  0  0  0  0  0  0
    1.6858    1.4356    0.4117 H   0  0  0  0  0  0  0  0  0  0  0  0
   -0.1604   -1.6010   -1.4959 H   0  0  0  0  0  0  0  0  0  0  0  0
    0.3457    1.3103   -1.9700 H   0  0  0  0  0  0  0  0  0  0  0  0
   -2.0201    1.4599   -2.1408 H   0  0  0  0  0  0  0  0  0  0  0  0
   -2.4112   -1.0904   -0.7846 H   0  0  0  0  0  0  0  0  0  0  0  0
   -3.3994    0.3379   -0.4361 H   0  0  0  0  0  0  0  0  0  0  0  0
   -2.4107   -0.5079    1.5923 H   0  0  0  0  0  0  0  0  0  0  0  0
   -1.8957    1.1520    1.2336 H   0  0  0  0  0  0  0  0  0  0  0  0
   -0.2986   -1.3955    1.2898 H   0  0  0  0  0  0  0  0  0  0  0  0
    0.1544    0.2550    1.7890 H   0  0  0  0  0  0  0  0  0  0  0  0
  1  2  1  0
  2  3  1  0
  3  4  1  0
  3  5  1  0
  5  6  2  0
  6  7  1  0
  7  8  1  0
  8  9  1  0
  9  3  1  0
  1 10  1  0
  1 11  1  0
  1 12  1  0
  2 13  1  0
  2 14  1  0
  4 15  1  0
  5 16  1  0
  6 17  1  0
  7 18  1  0
  7 19  1  0
  8 20  1  0
  8 21  1  0
  9 22  1  0
  9 23  1  0
M  END
