
     RDKit          3D

 23 24  0  0  0  0  0  0  0  0999 V2000
    2.4640   -0.9615    0.0526 C   0  0  0  0  0  0  0  0  0  0  0  0
    1.9354    0.4233   -0.3509 C   0  0  0  0  0  0  0  0  0  0  0  0
    0.5029    0.4383   -0.1094 C   0  0  0  0  0  0  0  0  0  0  0  0
   -0.2744    1.7083   -0.4278 C   0  0  0  0  0  0  0  0  0  0  0  0
   -1.4380    0.7017   -0.4879 C   0  0  0  0  0  0  0  0  0  0  0  0
   -0.4000   -0.1770   -1.1927 C   0  0  0  0  0  0  0  0  0  0  0  0
   -1.4088    0.1868    0.9043 C   0  0  0  0  0  0  0  0  0  0  0  0
   -2.0517   -1.1416    1.1059 C   0  0  0  0  0  0  0  0  0  0  0  0
   -0.0117    0.0090    1.0833 O   0  0  0  0  0  0  0  0  0  0  0  0
    2.5705   -0.9436    1.1487 H   0  0  0  0  0  0  0  0  0  0  0  0
    3.4221   -1.1666   -0.4250 H   0  0  0  0  0  0  0  0  0  0  0  0
    1.6699   -1.7055   -0.1733 H   0  0  0  0  0  0  0  0  0  0  0  0
    2.2520    0.5835   -1.3954 H   0  0  0  0  0  0  0  0  0  0  0  0
    2.4396    1.1486    0.3188 H   0  0  0  0  0  0  0  0  0  0  0  0
    0.0288    2.0861   -1.4177 H   0  0  0  0  0  0  0  0  0  0  0  0
   -0.3476    2.4296    0.3843 H   0  0  0  0  0  0  0  0  0  0  0  0
   -2.3130    0.9741   -0.9957 H   0  0  0  0  0  0  0  0  0  0  0  0
   -0.1620    0.2591   -2.1610 H   0  0  0  0  0  0  0  0  0  0  0  0
   -0.5556   -1.2466   -1.1070 H   0  0  0  0  0  0  0  0  0  0  0  0
   -1.7216    0.9103    1.6777 H   0  0  0  0  0  0  0  0  0  0  0  0
   -1.4716   -1.6645    1.9211 H   0  0  0  0  0  0  0  0  0  0  0  0
   -3.1320   -1.0661    1.4155 H   0  0  0  0  0  0  0  0  0  0  0  0
   -1.9972   -1.7857    0.2318 H   0  0  0  0  0  0  0  0  0  0  0  0
  1  2  1  0
  2  3  1  0
  3  4  1  0
  4  5  1  0
  5  6  1  0
  5  7  1  0
  7  8  1  0
  7  9  1  0
  6  3  1  0
  9  3  1  0
  1 10  1  0
  1 11  1  0
  1 12  1  0
  2 13  1  0
  2 14  1  0
  4 15  1  0
  4 16  1  0
  5 17  1  0
  6 18  1  0
  6 19  1  0
  7 20  1  0
  8 21  1  0
  8 22  1  0
  8 23  1  0
M  END
