
     RDKit          3D

 21 21  0  0  0  0  0  0  0  0999 V2000
    1.8186    0.7945   -0.8301 C   0  0  0  0  0  0  0  0  0  0  0  0
    1.9219   -0.5593   -0.2608 C   0  0  0  0  0  0  0  0  0  0  0  0
    0.7462   -1.1730    0.3445 C   0  0  0  0  0  0  0  0  0  0  0  0
    0.1711   -0.3688    1.5471 C   0  0  0  0  0  0  0  0  0  0  0  0
   -0.6295   -0.7195    0.3399 C   0  0  0  0  0  0  0  0  0  0  0  0
   -1.1712    0.3954   -0.4940 C   0  0  0  0  0  0  0  0  0  0  0  0
   -2.6633    0.5626   -0.2089 C   0  0  0  0  0  0  0  0  0  0  0  0
    1.6429    1.5796   -0.0373 H   0  0  0  0  0  0  0  0  0  0  0  0
    2.8458    1.0669   -1.2238 H   0  0  0  0  0  0  0  0  0  0  0  0
    1.1499    0.8961   -1.6883 H   0  0  0  0  0  0  0  0  0  0  0  0
    2.3158   -1.2426   -1.0693 H   0  0  0  0  0  0  0  0  0  0  0  0
    2.7595   -0.5508    0.4984 H   0  0  0  0  0  0  0  0  0  0  0  0
    0.9233   -2.2588    0.6171 H   0  0  0  0  0  0  0  0  0  0  0  0
    0.0345   -0.8959    2.4929 H   0  0  0  0  0  0  0  0  0  0  0  0
    0.4804    0.6808    1.6386 H   0  0  0  0  0  0  0  0  0  0  0  0
   -1.4206   -1.5017    0.5494 H   0  0  0  0  0  0  0  0  0  0  0  0
   -1.1166    0.1243   -1.5771 H   0  0  0  0  0  0  0  0  0  0  0  0
   -0.7330    1.3837   -0.2849 H   0  0  0  0  0  0  0  0  0  0  0  0
   -3.0732   -0.4519   -0.0183 H   0  0  0  0  0  0  0  0  0  0  0  0
   -2.8044    1.2107    0.7037 H   0  0  0  0  0  0  0  0  0  0  0  0
   -3.1982    1.0275   -1.0390 H   0  0  0  0  0  0  0  0  0  0  0  0
  1  2  1  0
  2  3  1  0
  3  4  1  0
  4  5  1  0
  5  6  1  0
  6  7  1  0
  5  3  1  0
  1  8  1  0
  1  9  1  0
  1 10  1  0
  2 11  1  0
  2 12  1  0
  3 13  1  0
  4 14  1  0
  4 15  1  0
  5 16  1  0
  6 17  1  0
  6 18  1  0
  7 19  1  0
  7 20  1  0
  7 21  1  0
M  END
