
     RDKit          3D

 23 24  0  0  0  0  0  0  0  0999 V2000
    2.5973    0.5713   -0.5595 C   0  0  0  0  0  0  0  0  0  0  0  0
    1.9049    0.0316    0.6364 C   0  0  0  0  0  0  0  0  0  0  0  0
    0.5209   -0.4261    0.4444 C   0  0  0  0  0  0  0  0  0  0  0  0
    0.1806   -1.5123   -0.5078 C   0  0  0  0  0  0  0  0  0  0  0  0
   -0.3041   -0.1459   -0.7393 C   0  0  0  0  0  0  0  0  0  0  0  0
   -1.3699    0.4328    0.1282 C   0  0  0  0  0  0  0  0  0  0  0  0
   -2.7154   -0.2081    0.0893 C   0  0  0  0  0  0  0  0  0  0  0  0
   -1.4532    1.8112   -0.0518 O   0  0  0  0  0  0  0  0  0  0  0  0
   -0.5995    0.0077    1.3626 C   0  0  0  0  0  0  0  0  0  0  0  0
    3.3466    1.3418   -0.2094 H   0  0  0  0  0  0  0  0  0  0  0  0
    3.2377   -0.1952   -1.0848 H   0  0  0  0  0  0  0  0  0  0  0  0
    1.9485    1.1031   -1.2748 H   0  0  0  0  0  0  0  0  0  0  0  0
    1.9195    0.7721    1.4873 H   0  0  0  0  0  0  0  0  0  0  0  0
    2.5170   -0.8336    1.0283 H   0  0  0  0  0  0  0  0  0  0  0  0
   -0.4541   -2.3185   -0.0811 H   0  0  0  0  0  0  0  0  0  0  0  0
    1.0188   -1.8973   -1.1065 H   0  0  0  0  0  0  0  0  0  0  0  0
    0.0678    0.3964   -1.6281 H   0  0  0  0  0  0  0  0  0  0  0  0
   -3.0061   -0.6585    1.0790 H   0  0  0  0  0  0  0  0  0  0  0  0
   -2.8268   -1.0055   -0.6631 H   0  0  0  0  0  0  0  0  0  0  0  0
   -3.5123    0.5436   -0.1216 H   0  0  0  0  0  0  0  0  0  0  0  0
   -1.7050    2.2233    0.8079 H   0  0  0  0  0  0  0  0  0  0  0  0
   -0.2957    0.8423    2.0281 H   0  0  0  0  0  0  0  0  0  0  0  0
   -1.0177   -0.8761    1.8780 H   0  0  0  0  0  0  0  0  0  0  0  0
  1  2  1  0
  2  3  1  0
  3  4  1  0
  4  5  1  0
  5  6  1  0
  6  7  1  0
  6  8  1  0
  6  9  1  0
  5  3  1  0
  9  3  1  0
  1 10  1  0
  1 11  1  0
  1 12  1  0
  2 13  1  0
  2 14  1  0
  4 15  1  0
  4 16  1  0
  5 17  1  0
  7 18  1  0
  7 19  1  0
  7 20  1  0
  8 21  1  0
  9 22  1  0
  9 23  1  0
M  END
