
     RDKit          3D

 23 24  0  0  0  0  0  0  0  0999 V2000
   -2.6004    0.0102   -0.4339 C   0  0  0  0  0  0  0  0  0  0  0  0
   -1.6416   -0.6581    0.4960 C   0  0  0  0  0  0  0  0  0  0  0  0
   -0.2544   -0.7915   -0.0748 C   0  0  0  0  0  0  0  0  0  0  0  0
    0.5763   -1.4109    0.8237 O   0  0  0  0  0  0  0  0  0  0  0  0
    1.8256   -0.8829    0.7462 C   0  0  0  0  0  0  0  0  0  0  0  0
    2.5365   -0.8825   -0.5570 C   0  0  0  0  0  0  0  0  0  0  0  0
    1.8332    0.3460   -0.0596 C   0  0  0  0  0  0  0  0  0  0  0  0
    0.3712    0.5295   -0.4264 C   0  0  0  0  0  0  0  0  0  0  0  0
   -0.1572    1.6821    0.3599 C   0  0  0  0  0  0  0  0  0  0  0  0
   -2.1162    0.3898   -1.3708 H   0  0  0  0  0  0  0  0  0  0  0  0
   -3.1485    0.8477    0.0553 H   0  0  0  0  0  0  0  0  0  0  0  0
   -3.3960   -0.6976   -0.8058 H   0  0  0  0  0  0  0  0  0  0  0  0
   -1.6391   -0.1380    1.4875 H   0  0  0  0  0  0  0  0  0  0  0  0
   -2.0121   -1.6886    0.6821 H   0  0  0  0  0  0  0  0  0  0  0  0
   -0.3369   -1.4561   -0.9661 H   0  0  0  0  0  0  0  0  0  0  0  0
    2.4345   -0.8967    1.6698 H   0  0  0  0  0  0  0  0  0  0  0  0
    2.0551   -1.3394   -1.4633 H   0  0  0  0  0  0  0  0  0  0  0  0
    3.6431   -0.8368   -0.5337 H   0  0  0  0  0  0  0  0  0  0  0  0
    2.4480    1.2289    0.1728 H   0  0  0  0  0  0  0  0  0  0  0  0
    0.3049    0.6627   -1.5194 H   0  0  0  0  0  0  0  0  0  0  0  0
    0.6216    2.4979    0.3228 H   0  0  0  0  0  0  0  0  0  0  0  0
   -1.1053    2.1043   -0.0298 H   0  0  0  0  0  0  0  0  0  0  0  0
   -0.2422    1.3801    1.4243 H   0  0  0  0  0  0  0  0  0  0  0  0
  1  2  1  0
  2  3  1  0
  3  4  1  0
  4  5  1  0
  5  6  1  0
  6  7  1  0
  7  8  1  0
  8  9  1  0
  8  3  1  0
  7  5  1  0
  1 10  1  0
  1 11  1  0
  1 12  1  0
  2 13  1  0
  2 14  1  0
  3 15  1  0
  5 16  1  0
  6 17  1  0
  6 18  1  0
  7 19  1  0
  8 20  1  0
  9 21  1  0
  9 22  1  0
  9 23  1  0
M  END
