
     RDKit          3D

 23 23  0  0  0  0  0  0  0  0999 V2000
   -2.1676   -1.3440   -0.3464 C   0  0  0  0  0  0  0  0  0  0  0  0
   -1.6238   -0.5849    0.8299 C   0  0  0  0  0  0  0  0  0  0  0  0
   -0.5788    0.3897    0.2753 C   0  0  0  0  0  0  0  0  0  0  0  0
   -1.2019    1.3359   -0.7129 C   0  0  0  0  0  0  0  0  0  0  0  0
    0.1123    1.0375    1.2626 O   0  0  0  0  0  0  0  0  0  0  0  0
    1.4114    1.1711    0.7762 C   0  0  0  0  0  0  0  0  0  0  0  0
    1.5601    0.1918   -0.3468 C   0  0  0  0  0  0  0  0  0  0  0  0
    2.5805   -0.9013   -0.0290 C   0  0  0  0  0  0  0  0  0  0  0  0
    0.3312   -0.4138   -0.4255 O   0  0  0  0  0  0  0  0  0  0  0  0
   -2.0470   -2.4468   -0.1464 H   0  0  0  0  0  0  0  0  0  0  0  0
   -3.1938   -1.0640   -0.5876 H   0  0  0  0  0  0  0  0  0  0  0  0
   -1.5665   -1.1752   -1.2838 H   0  0  0  0  0  0  0  0  0  0  0  0
   -1.0910   -1.2622    1.5373 H   0  0  0  0  0  0  0  0  0  0  0  0
   -2.3993   -0.0624    1.4116 H   0  0  0  0  0  0  0  0  0  0  0  0
   -1.5939    2.2044   -0.1425 H   0  0  0  0  0  0  0  0  0  0  0  0
   -0.4307    1.7280   -1.4177 H   0  0  0  0  0  0  0  0  0  0  0  0
   -1.9724    0.8471   -1.3276 H   0  0  0  0  0  0  0  0  0  0  0  0
    2.1689    1.0034    1.5427 H   0  0  0  0  0  0  0  0  0  0  0  0
    1.5280    2.1904    0.3467 H   0  0  0  0  0  0  0  0  0  0  0  0
    1.7731    0.6705   -1.3221 H   0  0  0  0  0  0  0  0  0  0  0  0
    2.0613   -1.6749    0.6019 H   0  0  0  0  0  0  0  0  0  0  0  0
    3.4399   -0.4915    0.5089 H   0  0  0  0  0  0  0  0  0  0  0  0
    2.8999   -1.3488   -1.0049 H   0  0  0  0  0  0  0  0  0  0  0  0
  1  2  1  0
  2  3  1  0
  3  4  1  0
  3  5  1  0
  5  6  1  0
  6  7  1  0
  7  8  1  0
  7  9  1  0
  9  3  1  0
  1 10  1  0
  1 11  1  0
  1 12  1  0
  2 13  1  0
  2 14  1  0
  4 15  1  0
  4 16  1  0
  4 17  1  0
  6 18  1  0
  6 19  1  0
  7 20  1  0
  8 21  1  0
  8 22  1  0
  8 23  1  0
M  END
