
     RDKit          3D

 19 20  0  0  0  0  0  0  0  0999 V2000
   -2.4282    0.0525   -0.1931 C   0  0  0  0  0  0  0  0  0  0  0  0
   -1.2377   -0.7583   -0.6188 C   0  0  0  0  0  0  0  0  0  0  0  0
    0.0701   -0.1207   -0.3799 C   0  0  0  0  0  0  0  0  0  0  0  0
    0.3947    1.0987   -0.9674 O   0  0  0  0  0  0  0  0  0  0  0  0
    0.7624    1.6542    0.2533 C   0  0  0  0  0  0  0  0  0  0  0  0
    0.5676    0.3331    0.9174 C   0  0  0  0  0  0  0  0  0  0  0  0
    1.1304   -0.8827    0.2880 C   0  0  0  0  0  0  0  0  0  0  0  0
    2.5546   -0.7984   -0.1157 C   0  0  0  0  0  0  0  0  0  0  0  0
    3.0439    0.1608   -0.6606 O   0  0  0  0  0  0  0  0  0  0  0  0
   -2.3000    0.5379    0.7899 H   0  0  0  0  0  0  0  0  0  0  0  0
   -2.5879    0.8745   -0.9296 H   0  0  0  0  0  0  0  0  0  0  0  0
   -3.3227   -0.6062   -0.1043 H   0  0  0  0  0  0  0  0  0  0  0  0
   -1.2422   -1.7606   -0.1429 H   0  0  0  0  0  0  0  0  0  0  0  0
   -1.3407   -0.9509   -1.7189 H   0  0  0  0  0  0  0  0  0  0  0  0
    1.8381    1.9316    0.2374 H   0  0  0  0  0  0  0  0  0  0  0  0
    0.0885    2.4655    0.6098 H   0  0  0  0  0  0  0  0  0  0  0  0
    0.0108    0.2495    1.8653 H   0  0  0  0  0  0  0  0  0  0  0  0
    0.7933   -1.8389    0.7852 H   0  0  0  0  0  0  0  0  0  0  0  0
    3.2049   -1.6416    0.0850 H   0  0  0  0  0  0  0  0  0  0  0  0
  1  2  1  0
  2  3  1  0
  3  4  1  0
  4  5  1  0
  5  6  1  0
  6  7  1  0
  7  8  1  0
  8  9  2  0
  6  3  1  0
  7  3  1  0
  1 10  1  0
  1 11  1  0
  1 12  1  0
  2 13  1  0
  2 14  1  0
  5 15  1  0
  5 16  1  0
  6 17  1  0
  7 18  1  0
  8 19  1  0
M  END
