
     RDKit          3D

 23 23  0  0  0  0  0  0  0  0999 V2000
    2.7541    0.4067   -0.2823 C   0  0  0  0  0  0  0  0  0  0  0  0
    1.9159   -0.8470   -0.4112 C   0  0  0  0  0  0  0  0  0  0  0  0
    0.5025   -0.5101   -0.0334 C   0  0  0  0  0  0  0  0  0  0  0  0
   -0.0717   -1.1296    0.9711 C   0  0  0  0  0  0  0  0  0  0  0  0
   -1.4641   -0.8212    1.3697 C   0  0  0  0  0  0  0  0  0  0  0  0
   -2.2133   -0.3615    0.1586 C   0  0  0  0  0  0  0  0  0  0  0  0
   -1.5525    0.8403   -0.4385 C   0  0  0  0  0  0  0  0  0  0  0  0
   -1.6378    1.9431    0.3922 O   0  0  0  0  0  0  0  0  0  0  0  0
   -0.1467    0.5352   -0.8617 C   0  0  0  0  0  0  0  0  0  0  0  0
    3.7153    0.1913    0.2651 H   0  0  0  0  0  0  0  0  0  0  0  0
    3.0128    0.8332   -1.2728 H   0  0  0  0  0  0  0  0  0  0  0  0
    2.2147    1.1857    0.3253 H   0  0  0  0  0  0  0  0  0  0  0  0
    1.9382   -1.1405   -1.5016 H   0  0  0  0  0  0  0  0  0  0  0  0
    2.3085   -1.7006    0.1390 H   0  0  0  0  0  0  0  0  0  0  0  0
    0.4630   -1.8795    1.5283 H   0  0  0  0  0  0  0  0  0  0  0  0
   -1.3941    0.0362    2.1009 H   0  0  0  0  0  0  0  0  0  0  0  0
   -1.9760   -1.6676    1.8659 H   0  0  0  0  0  0  0  0  0  0  0  0
   -2.1680   -1.1755   -0.6170 H   0  0  0  0  0  0  0  0  0  0  0  0
   -3.2489   -0.1433    0.4581 H   0  0  0  0  0  0  0  0  0  0  0  0
   -2.1305    1.0923   -1.3754 H   0  0  0  0  0  0  0  0  0  0  0  0
   -1.1669    2.7050   -0.0130 H   0  0  0  0  0  0  0  0  0  0  0  0
    0.4852    1.4276   -0.8360 H   0  0  0  0  0  0  0  0  0  0  0  0
   -0.1400    0.1797   -1.9311 H   0  0  0  0  0  0  0  0  0  0  0  0
  1  2  1  0
  2  3  1  0
  3  4  2  0
  4  5  1  0
  5  6  1  0
  6  7  1  0
  7  8  1  0
  7  9  1  0
  9  3  1  0
  1 10  1  0
  1 11  1  0
  1 12  1  0
  2 13  1  0
  2 14  1  0
  4 15  1  0
  5 16  1  0
  5 17  1  0
  6 18  1  0
  6 19  1  0
  7 20  1  0
  8 21  1  0
  9 22  1  0
  9 23  1  0
M  END
