
     RDKit          3D

 19 19  0  0  0  0  0  0  0  0999 V2000
    2.3636   -0.5497    0.1578 C   0  0  0  0  0  0  0  0  0  0  0  0
    1.3333    0.2408   -0.5785 C   0  0  0  0  0  0  0  0  0  0  0  0
    0.0370    0.1976    0.1909 C   0  0  0  0  0  0  0  0  0  0  0  0
   -0.4717   -1.1820    0.3603 C   0  0  0  0  0  0  0  0  0  0  0  0
    0.1549   -2.2449    0.3615 O   0  0  0  0  0  0  0  0  0  0  0  0
   -1.9054   -1.0031    0.5289 C   0  0  0  0  0  0  0  0  0  0  0  0
   -2.2862    0.1431    0.0004 C   0  0  0  0  0  0  0  0  0  0  0  0
   -1.1086    0.8169   -0.5687 C   0  0  0  0  0  0  0  0  0  0  0  0
   -1.1565    2.1977   -0.4270 O   0  0  0  0  0  0  0  0  0  0  0  0
    2.3457   -1.6053   -0.1427 H   0  0  0  0  0  0  0  0  0  0  0  0
    2.1127   -0.5275    1.2571 H   0  0  0  0  0  0  0  0  0  0  0  0
    3.3786   -0.1360   -0.0070 H   0  0  0  0  0  0  0  0  0  0  0  0
    1.6606    1.3104   -0.5846 H   0  0  0  0  0  0  0  0  0  0  0  0
    1.1485   -0.0979   -1.6043 H   0  0  0  0  0  0  0  0  0  0  0  0
    0.1428    0.6456    1.2025 H   0  0  0  0  0  0  0  0  0  0  0  0
   -2.6154   -1.6769    1.0094 H   0  0  0  0  0  0  0  0  0  0  0  0
   -3.3088    0.5423   -0.0196 H   0  0  0  0  0  0  0  0  0  0  0  0
   -0.9401    0.5280   -1.6374 H   0  0  0  0  0  0  0  0  0  0  0  0
   -0.8848    2.4007    0.5009 H   0  0  0  0  0  0  0  0  0  0  0  0
  1  2  1  0
  2  3  1  0
  3  4  1  0
  4  5  2  0
  4  6  1  0
  6  7  2  0
  7  8  1  0
  8  9  1  0
  8  3  1  0
  1 10  1  0
  1 11  1  0
  1 12  1  0
  2 13  1  0
  2 14  1  0
  3 15  1  0
  6 16  1  0
  7 17  1  0
  8 18  1  0
  9 19  1  0
M  END
