
     RDKit          3D

 23 24  0  0  0  0  0  0  0  0999 V2000
    3.0281    0.1077   -0.1527 C   0  0  0  0  0  0  0  0  0  0  0  0
    1.8255   -0.7239   -0.5156 C   0  0  0  0  0  0  0  0  0  0  0  0
    0.6175   -0.3789    0.3552 C   0  0  0  0  0  0  0  0  0  0  0  0
   -0.4215   -1.2157   -0.0821 O   0  0  0  0  0  0  0  0  0  0  0  0
   -1.5342   -0.3911   -0.3581 C   0  0  0  0  0  0  0  0  0  0  0  0
   -2.8164   -1.1537   -0.1805 C   0  0  0  0  0  0  0  0  0  0  0  0
   -1.3155    0.6714    0.6582 C   0  0  0  0  0  0  0  0  0  0  0  0
   -0.6838    1.9195    0.6923 C   0  0  0  0  0  0  0  0  0  0  0  0
    0.1145    0.9690    0.0404 C   0  0  0  0  0  0  0  0  0  0  0  0
    2.7984    1.1362    0.1210 H   0  0  0  0  0  0  0  0  0  0  0  0
    3.5755   -0.4006    0.6866 H   0  0  0  0  0  0  0  0  0  0  0  0
    3.6945    0.1236   -1.0453 H   0  0  0  0  0  0  0  0  0  0  0  0
    2.1114   -1.7874   -0.4063 H   0  0  0  0  0  0  0  0  0  0  0  0
    1.6019   -0.5693   -1.5876 H   0  0  0  0  0  0  0  0  0  0  0  0
    0.8719   -0.5286    1.4013 H   0  0  0  0  0  0  0  0  0  0  0  0
   -1.4106   -0.0687   -1.4057 H   0  0  0  0  0  0  0  0  0  0  0  0
   -3.4392   -1.0109   -1.0995 H   0  0  0  0  0  0  0  0  0  0  0  0
   -2.5750   -2.2300   -0.1426 H   0  0  0  0  0  0  0  0  0  0  0  0
   -3.4300   -0.8089    0.6659 H   0  0  0  0  0  0  0  0  0  0  0  0
   -1.2997    0.1300    1.6609 H   0  0  0  0  0  0  0  0  0  0  0  0
   -0.2865    2.3497    1.6592 H   0  0  0  0  0  0  0  0  0  0  0  0
   -1.1602    2.7687    0.1247 H   0  0  0  0  0  0  0  0  0  0  0  0
    0.1334    1.0921   -1.0896 H   0  0  0  0  0  0  0  0  0  0  0  0
  1  2  1  0
  2  3  1  0
  3  4  1  0
  4  5  1  0
  5  6  1  0
  5  7  1  0
  7  8  1  0
  8  9  1  0
  9  3  1  0
  9  7  1  0
  1 10  1  0
  1 11  1  0
  1 12  1  0
  2 13  1  0
  2 14  1  0
  3 15  1  0
  5 16  1  0
  6 17  1  0
  6 18  1  0
  6 19  1  0
  7 20  1  0
  8 21  1  0
  8 22  1  0
  9 23  1  0
M  END
