
     RDKit          3D

 21 21  0  0  0  0  0  0  0  0999 V2000
    2.5306    0.6224    0.2736 C   0  0  0  0  0  0  0  0  0  0  0  0
    1.2989    0.5215   -0.5747 C   0  0  0  0  0  0  0  0  0  0  0  0
    0.2974   -0.4502   -0.0089 C   0  0  0  0  0  0  0  0  0  0  0  0
    0.8933   -1.8109    0.0850 C   0  0  0  0  0  0  0  0  0  0  0  0
    0.7447   -2.4249    1.1272 O   0  0  0  0  0  0  0  0  0  0  0  0
   -1.0130   -0.4353   -0.7405 C   0  0  0  0  0  0  0  0  0  0  0  0
   -1.2985    0.5957    0.3241 C   0  0  0  0  0  0  0  0  0  0  0  0
   -2.7325    0.4902    0.7763 C   0  0  0  0  0  0  0  0  0  0  0  0
   -0.3669   -0.0480    1.1319 O   0  0  0  0  0  0  0  0  0  0  0  0
    3.3829    1.0119   -0.3257 H   0  0  0  0  0  0  0  0  0  0  0  0
    2.3885    1.3224    1.1198 H   0  0  0  0  0  0  0  0  0  0  0  0
    2.7971   -0.3623    0.7417 H   0  0  0  0  0  0  0  0  0  0  0  0
    1.6179    0.1101   -1.5652 H   0  0  0  0  0  0  0  0  0  0  0  0
    0.8897    1.5243   -0.7430 H   0  0  0  0  0  0  0  0  0  0  0  0
    1.4456   -2.2675   -0.7268 H   0  0  0  0  0  0  0  0  0  0  0  0
   -1.0286   -0.0272   -1.7462 H   0  0  0  0  0  0  0  0  0  0  0  0
   -1.5780   -1.3524   -0.5360 H   0  0  0  0  0  0  0  0  0  0  0  0
   -0.9944    1.6199    0.0923 H   0  0  0  0  0  0  0  0  0  0  0  0
   -3.3664    0.6115   -0.1510 H   0  0  0  0  0  0  0  0  0  0  0  0
   -2.9599    1.2771    1.5100 H   0  0  0  0  0  0  0  0  0  0  0  0
   -2.9484   -0.5285    1.1682 H   0  0  0  0  0  0  0  0  0  0  0  0
  1  2  1  0
  2  3  1  0
  3  4  1  0
  4  5  2  0
  3  6  1  0
  6  7  1  0
  7  8  1  0
  7  9  1  0
  9  3  1  0
  1 10  1  0
  1 11  1  0
  1 12  1  0
  2 13  1  0
  2 14  1  0
  4 15  1  0
  6 16  1  0
  6 17  1  0
  7 18  1  0
  8 19  1  0
  8 20  1  0
  8 21  1  0
M  END
