
     RDKit          3D

 25 25  0  0  0  0  0  0  0  0999 V2000
    2.7171   -0.1467    0.4039 C   0  0  0  0  0  0  0  0  0  0  0  0
    1.4732   -0.9909    0.1575 C   0  0  0  0  0  0  0  0  0  0  0  0
    0.2907   -0.0718    0.2498 C   0  0  0  0  0  0  0  0  0  0  0  0
    0.3545    1.0431   -0.7756 C   0  0  0  0  0  0  0  0  0  0  0  0
   -0.8012    1.9517   -0.5106 C   0  0  0  0  0  0  0  0  0  0  0  0
   -2.0868    1.2829   -0.2197 C   0  0  0  0  0  0  0  0  0  0  0  0
   -2.0115    0.0895    0.4594 O   0  0  0  0  0  0  0  0  0  0  0  0
   -1.0223   -0.7575   -0.0051 C   0  0  0  0  0  0  0  0  0  0  0  0
   -1.1277   -2.1072    0.6136 C   0  0  0  0  0  0  0  0  0  0  0  0
    2.4176    0.6161    1.1772 H   0  0  0  0  0  0  0  0  0  0  0  0
    3.0241    0.3986   -0.5121 H   0  0  0  0  0  0  0  0  0  0  0  0
    3.4901   -0.7754    0.8384 H   0  0  0  0  0  0  0  0  0  0  0  0
    1.4779   -1.7904    0.8936 H   0  0  0  0  0  0  0  0  0  0  0  0
    1.5315   -1.4569   -0.8468 H   0  0  0  0  0  0  0  0  0  0  0  0
    0.2507    0.4209    1.2432 H   0  0  0  0  0  0  0  0  0  0  0  0
    0.2961    0.6133   -1.7906 H   0  0  0  0  0  0  0  0  0  0  0  0
    1.2978    1.6007   -0.6033 H   0  0  0  0  0  0  0  0  0  0  0  0
   -0.9336    2.5957   -1.4271 H   0  0  0  0  0  0  0  0  0  0  0  0
   -0.4744    2.6829    0.2838 H   0  0  0  0  0  0  0  0  0  0  0  0
   -2.6686    1.1177   -1.1615 H   0  0  0  0  0  0  0  0  0  0  0  0
   -2.7123    1.9741    0.4080 H   0  0  0  0  0  0  0  0  0  0  0  0
   -1.1889   -0.8810   -1.1123 H   0  0  0  0  0  0  0  0  0  0  0  0
   -2.2096   -2.3459    0.7355 H   0  0  0  0  0  0  0  0  0  0  0  0
   -0.7429   -2.8741   -0.1071 H   0  0  0  0  0  0  0  0  0  0  0  0
   -0.6415   -2.1896    1.6079 H   0  0  0  0  0  0  0  0  0  0  0  0
  1  2  1  0
  2  3  1  0
  3  4  1  0
  4  5  1  0
  5  6  1  0
  6  7  1  0
  7  8  1  0
  8  9  1  0
  8  3  1  0
  1 10  1  0
  1 11  1  0
  1 12  1  0
  2 13  1  0
  2 14  1  0
  3 15  1  0
  4 16  1  0
  4 17  1  0
  5 18  1  0
  5 19  1  0
  6 20  1  0
  6 21  1  0
  8 22  1  0
  9 23  1  0
  9 24  1  0
  9 25  1  0
M  END
