
     RDKit          3D

 23 24  0  0  0  0  0  0  0  0999 V2000
    2.3814    0.2606   -0.8348 C   0  0  0  0  0  0  0  0  0  0  0  0
    1.9126    0.5684    0.5515 C   0  0  0  0  0  0  0  0  0  0  0  0
    0.4811    0.2580    0.8078 C   0  0  0  0  0  0  0  0  0  0  0  0
    0.0662   -1.1810    0.6265 C   0  0  0  0  0  0  0  0  0  0  0  0
   -0.4797   -0.7895   -0.7273 C   0  0  0  0  0  0  0  0  0  0  0  0
   -1.9068   -1.0218   -0.9550 C   0  0  0  0  0  0  0  0  0  0  0  0
   -2.6832   -0.0979   -0.4265 C   0  0  0  0  0  0  0  0  0  0  0  0
   -1.8599    0.9132    0.2497 C   0  0  0  0  0  0  0  0  0  0  0  0
   -0.4755    0.6486   -0.2854 C   0  0  0  0  0  0  0  0  0  0  0  0
    3.4079    0.7166   -0.9379 H   0  0  0  0  0  0  0  0  0  0  0  0
    2.5439   -0.8303   -0.9127 H   0  0  0  0  0  0  0  0  0  0  0  0
    1.7783    0.6910   -1.6330 H   0  0  0  0  0  0  0  0  0  0  0  0
    2.0876    1.6319    0.7483 H   0  0  0  0  0  0  0  0  0  0  0  0
    2.5518   -0.0009    1.2581 H   0  0  0  0  0  0  0  0  0  0  0  0
    0.1717    0.6115    1.8024 H   0  0  0  0  0  0  0  0  0  0  0  0
    0.9272   -1.8689    0.4886 H   0  0  0  0  0  0  0  0  0  0  0  0
   -0.7211   -1.5438    1.3191 H   0  0  0  0  0  0  0  0  0  0  0  0
    0.1277   -1.0507   -1.5917 H   0  0  0  0  0  0  0  0  0  0  0  0
   -2.3303   -1.8816   -1.5136 H   0  0  0  0  0  0  0  0  0  0  0  0
   -3.7976   -0.0630   -0.4701 H   0  0  0  0  0  0  0  0  0  0  0  0
   -1.8887    0.7298    1.3627 H   0  0  0  0  0  0  0  0  0  0  0  0
   -2.1670    1.9556    0.0455 H   0  0  0  0  0  0  0  0  0  0  0  0
   -0.1276    1.3443   -1.0381 H   0  0  0  0  0  0  0  0  0  0  0  0
  1  2  1  0
  2  3  1  0
  3  4  1  0
  4  5  1  0
  5  6  1  0
  6  7  2  0
  7  8  1  0
  8  9  1  0
  9  3  1  0
  9  5  1  0
  1 10  1  0
  1 11  1  0
  1 12  1  0
  2 13  1  0
  2 14  1  0
  3 15  1  0
  4 16  1  0
  4 17  1  0
  5 18  1  0
  6 19  1  0
  7 20  1  0
  8 21  1  0
  8 22  1  0
  9 23  1  0
M  END
