
     RDKit          3D

 23 23  0  0  0  0  0  0  0  0999 V2000
   -2.6363    1.0689   -0.0141 C   0  0  0  0  0  0  0  0  0  0  0  0
   -2.2094   -0.0458    0.9457 C   0  0  0  0  0  0  0  0  0  0  0  0
   -0.8297   -0.5422    0.6112 C   0  0  0  0  0  0  0  0  0  0  0  0
   -0.6962   -1.1112   -0.7849 C   0  0  0  0  0  0  0  0  0  0  0  0
    0.1164   -2.2367   -0.8813 O   0  0  0  0  0  0  0  0  0  0  0  0
   -0.0407    0.2082   -0.3965 C   0  0  0  0  0  0  0  0  0  0  0  0
    1.4525    0.1747   -0.3964 C   0  0  0  0  0  0  0  0  0  0  0  0
    2.0094    0.6561    0.7845 O   0  0  0  0  0  0  0  0  0  0  0  0
    3.3981    0.5756    0.6665 C   0  0  0  0  0  0  0  0  0  0  0  0
   -3.7297    1.2102    0.1453 H   0  0  0  0  0  0  0  0  0  0  0  0
   -2.0455    1.9651    0.2613 H   0  0  0  0  0  0  0  0  0  0  0  0
   -2.4956    0.7529   -1.0587 H   0  0  0  0  0  0  0  0  0  0  0  0
   -2.2905    0.3402    1.9779 H   0  0  0  0  0  0  0  0  0  0  0  0
   -2.9144   -0.8835    0.7746 H   0  0  0  0  0  0  0  0  0  0  0  0
   -0.3222   -1.0693    1.4463 H   0  0  0  0  0  0  0  0  0  0  0  0
   -1.5765   -1.0891   -1.4579 H   0  0  0  0  0  0  0  0  0  0  0  0
    0.2327   -2.7027   -0.0174 H   0  0  0  0  0  0  0  0  0  0  0  0
   -0.4877    1.1524   -0.8103 H   0  0  0  0  0  0  0  0  0  0  0  0
    1.8211    0.8108   -1.2276 H   0  0  0  0  0  0  0  0  0  0  0  0
    1.8483   -0.8598   -0.5546 H   0  0  0  0  0  0  0  0  0  0  0  0
    3.7532    1.1950   -0.2045 H   0  0  0  0  0  0  0  0  0  0  0  0
    3.7308   -0.4688    0.4389 H   0  0  0  0  0  0  0  0  0  0  0  0
    3.9121    0.8988    1.5947 H   0  0  0  0  0  0  0  0  0  0  0  0
  1  2  1  0
  2  3  1  0
  3  4  1  0
  4  5  1  0
  4  6  1  0
  6  7  1  0
  7  8  1  0
  8  9  1  0
  6  3  1  0
  1 10  1  0
  1 11  1  0
  1 12  1  0
  2 13  1  0
  2 14  1  0
  3 15  1  0
  4 16  1  0
  5 17  1  0
  6 18  1  0
  7 19  1  0
  7 20  1  0
  9 21  1  0
  9 22  1  0
  9 23  1  0
M  END
