
     RDKit          3D

 23 23  0  0  0  0  0  0  0  0999 V2000
   -2.8201    0.5345   -0.4188 C   0  0  0  0  0  0  0  0  0  0  0  0
   -1.7462    0.2578    0.6166 C   0  0  0  0  0  0  0  0  0  0  0  0
   -0.3682    0.4646    0.0798 C   0  0  0  0  0  0  0  0  0  0  0  0
    0.0185   -0.3919   -1.0946 C   0  0  0  0  0  0  0  0  0  0  0  0
    1.3464   -0.6451   -0.4106 C   0  0  0  0  0  0  0  0  0  0  0  0
    2.3939    0.4035   -0.6535 C   0  0  0  0  0  0  0  0  0  0  0  0
    3.5411    0.0130    0.0451 O   0  0  0  0  0  0  0  0  0  0  0  0
    0.6376   -0.3221    0.9117 C   0  0  0  0  0  0  0  0  0  0  0  0
    0.1579   -1.4797    1.4651 O   0  0  0  0  0  0  0  0  0  0  0  0
   -2.8213    1.6020   -0.7258 H   0  0  0  0  0  0  0  0  0  0  0  0
   -3.7940    0.3240    0.0658 H   0  0  0  0  0  0  0  0  0  0  0  0
   -2.7455   -0.1128   -1.2954 H   0  0  0  0  0  0  0  0  0  0  0  0
   -1.9046    0.9986    1.4314 H   0  0  0  0  0  0  0  0  0  0  0  0
   -1.9158   -0.7498    1.0092 H   0  0  0  0  0  0  0  0  0  0  0  0
   -0.0805    1.5028   -0.0640 H   0  0  0  0  0  0  0  0  0  0  0  0
    0.1482    0.1491   -2.0543 H   0  0  0  0  0  0  0  0  0  0  0  0
   -0.5447   -1.3412   -1.1850 H   0  0  0  0  0  0  0  0  0  0  0  0
    1.6820   -1.6893   -0.5014 H   0  0  0  0  0  0  0  0  0  0  0  0
    2.0252    1.3687   -0.2506 H   0  0  0  0  0  0  0  0  0  0  0  0
    2.6922    0.4807   -1.7164 H   0  0  0  0  0  0  0  0  0  0  0  0
    3.3304   -0.3885    0.9206 H   0  0  0  0  0  0  0  0  0  0  0  0
    1.1802    0.3622    1.5665 H   0  0  0  0  0  0  0  0  0  0  0  0
   -0.4125   -1.3411    2.2584 H   0  0  0  0  0  0  0  0  0  0  0  0
  1  2  1  0
  2  3  1  0
  3  4  1  0
  4  5  1  0
  5  6  1  0
  6  7  1  0
  5  8  1  0
  8  9  1  0
  8  3  1  0
  1 10  1  0
  1 11  1  0
  1 12  1  0
  2 13  1  0
  2 14  1  0
  3 15  1  0
  4 16  1  0
  4 17  1  0
  5 18  1  0
  6 19  1  0
  6 20  1  0
  7 21  1  0
  8 22  1  0
  9 23  1  0
M  END
