
     RDKit          3D

 25 26  0  0  0  0  0  0  0  0999 V2000
    2.8521   -0.0359    0.3380 C   0  0  0  0  0  0  0  0  0  0  0  0
    1.5618    0.4641   -0.2787 C   0  0  0  0  0  0  0  0  0  0  0  0
    0.3542    0.1818    0.5439 C   0  0  0  0  0  0  0  0  0  0  0  0
    0.1793   -1.3123    0.7423 C   0  0  0  0  0  0  0  0  0  0  0  0
   -1.1091   -1.5137   -0.0123 C   0  0  0  0  0  0  0  0  0  0  0  0
   -1.0196   -0.5856   -1.2211 C   0  0  0  0  0  0  0  0  0  0  0  0
   -0.9182    0.4887   -0.1673 C   0  0  0  0  0  0  0  0  0  0  0  0
   -1.3036    1.8418   -0.4755 C   0  0  0  0  0  0  0  0  0  0  0  0
   -1.9577   -0.3971    0.5682 C   0  0  0  0  0  0  0  0  0  0  0  0
    3.1268    0.6521    1.1779 H   0  0  0  0  0  0  0  0  0  0  0  0
    2.7894   -1.0674    0.6967 H   0  0  0  0  0  0  0  0  0  0  0  0
    3.6295    0.0013   -0.4445 H   0  0  0  0  0  0  0  0  0  0  0  0
    1.5449    0.0459   -1.3000 H   0  0  0  0  0  0  0  0  0  0  0  0
    1.6983    1.5794   -0.4070 H   0  0  0  0  0  0  0  0  0  0  0  0
    0.3941    0.7091    1.5359 H   0  0  0  0  0  0  0  0  0  0  0  0
    0.9987   -1.9271    0.3935 H   0  0  0  0  0  0  0  0  0  0  0  0
   -0.0660   -1.4700    1.8230 H   0  0  0  0  0  0  0  0  0  0  0  0
   -1.5237   -2.4769   -0.1345 H   0  0  0  0  0  0  0  0  0  0  0  0
   -0.1767   -0.7234   -1.8797 H   0  0  0  0  0  0  0  0  0  0  0  0
   -2.0294   -0.5935   -1.7066 H   0  0  0  0  0  0  0  0  0  0  0  0
   -0.5774    2.5747   -0.0412 H   0  0  0  0  0  0  0  0  0  0  0  0
   -2.2833    2.0996    0.0238 H   0  0  0  0  0  0  0  0  0  0  0  0
   -1.3530    2.1122   -1.5707 H   0  0  0  0  0  0  0  0  0  0  0  0
   -2.9467   -0.3005    0.1318 H   0  0  0  0  0  0  0  0  0  0  0  0
   -1.8646   -0.3474    1.6640 H   0  0  0  0  0  0  0  0  0  0  0  0
  1  2  1  0
  2  3  1  0
  3  4  1  0
  4  5  1  0
  5  6  1  0
  6  7  1  0
  7  8  1  0
  7  9  1  0
  7  3  1  0
  9  5  1  0
  1 10  1  0
  1 11  1  0
  1 12  1  0
  2 13  1  0
  2 14  1  0
  3 15  1  0
  4 16  1  0
  4 17  1  0
  5 18  1  0
  6 19  1  0
  6 20  1  0
  8 21  1  0
  8 22  1  0
  8 23  1  0
  9 24  1  0
  9 25  1  0
M  END
