
     RDKit          3D

 18 18  0  0  0  0  0  0  0  0999 V2000
   -2.1874    0.0832    0.3276 C   0  0  0  0  0  0  0  0  0  0  0  0
   -1.0763   -0.5767   -0.4757 C   0  0  0  0  0  0  0  0  0  0  0  0
    0.1653    0.2322   -0.2729 C   0  0  0  0  0  0  0  0  0  0  0  0
    0.0217    1.5332   -0.6931 O   0  0  0  0  0  0  0  0  0  0  0  0
    0.8400    0.0512    1.0791 C   0  0  0  0  0  0  0  0  0  0  0  0
    2.1298    0.0595    0.3499 C   0  0  0  0  0  0  0  0  0  0  0  0
    3.2734    0.3684    0.5761 O   0  0  0  0  0  0  0  0  0  0  0  0
    1.3914   -0.4910   -0.8117 C   0  0  0  0  0  0  0  0  0  0  0  0
   -3.0367   -0.6202    0.4160 H   0  0  0  0  0  0  0  0  0  0  0  0
   -2.5662    0.9638   -0.2413 H   0  0  0  0  0  0  0  0  0  0  0  0
   -1.8400    0.3821    1.3300 H   0  0  0  0  0  0  0  0  0  0  0  0
   -0.8810   -1.6047   -0.1072 H   0  0  0  0  0  0  0  0  0  0  0  0
   -1.3460   -0.5554   -1.5407 H   0  0  0  0  0  0  0  0  0  0  0  0
    0.8681    2.0401   -0.7336 H   0  0  0  0  0  0  0  0  0  0  0  0
    0.6030   -0.9709    1.4609 H   0  0  0  0  0  0  0  0  0  0  0  0
    0.6742    0.8770    1.7874 H   0  0  0  0  0  0  0  0  0  0  0  0
    1.2408   -1.5874   -0.6533 H   0  0  0  0  0  0  0  0  0  0  0  0
    1.7261   -0.1846   -1.7975 H   0  0  0  0  0  0  0  0  0  0  0  0
  1  2  1  0
  2  3  1  0
  3  4  1  0
  3  5  1  0
  5  6  1  0
  6  7  2  0
  6  8  1  0
  8  3  1  0
  1  9  1  0
  1 10  1  0
  1 11  1  0
  2 12  1  0
  2 13  1  0
  4 14  1  0
  5 15  1  0
  5 16  1  0
  8 17  1  0
  8 18  1  0
M  END
