
     RDKit          3D

 24 24  0  0  0  0  0  0  0  0999 V2000
    2.1621   -0.2663    0.9860 C   0  0  0  0  0  0  0  0  0  0  0  0
    0.9763   -0.8619    0.2287 C   0  0  0  0  0  0  0  0  0  0  0  0
    0.2467    0.1895   -0.5525 C   0  0  0  0  0  0  0  0  0  0  0  0
    1.1279    0.8836   -1.5935 C   0  0  0  0  0  0  0  0  0  0  0  0
   -0.8694    0.9601   -0.0206 C   0  0  0  0  0  0  0  0  0  0  0  0
   -1.2122    0.8988    1.4424 C   0  0  0  0  0  0  0  0  0  0  0  0
   -1.1526   -0.1777   -0.9302 C   0  0  0  0  0  0  0  0  0  0  0  0
   -1.8462   -1.3513   -0.3419 C   0  0  0  0  0  0  0  0  0  0  0  0
    3.0327   -0.2279    0.2813 H   0  0  0  0  0  0  0  0  0  0  0  0
    2.3856   -0.9176    1.8606 H   0  0  0  0  0  0  0  0  0  0  0  0
    1.9522    0.7761    1.2797 H   0  0  0  0  0  0  0  0  0  0  0  0
    0.3450   -1.3969    0.9505 H   0  0  0  0  0  0  0  0  0  0  0  0
    1.4090   -1.5810   -0.5035 H   0  0  0  0  0  0  0  0  0  0  0  0
    1.6109    1.7865   -1.1240 H   0  0  0  0  0  0  0  0  0  0  0  0
    0.4870    1.3099   -2.4186 H   0  0  0  0  0  0  0  0  0  0  0  0
    1.8766    0.1961   -2.0229 H   0  0  0  0  0  0  0  0  0  0  0  0
   -1.0577    1.9741   -0.4616 H   0  0  0  0  0  0  0  0  0  0  0  0
   -1.0344   -0.0648    1.9088 H   0  0  0  0  0  0  0  0  0  0  0  0
   -0.5760    1.6707    1.9498 H   0  0  0  0  0  0  0  0  0  0  0  0
   -2.2717    1.1840    1.6493 H   0  0  0  0  0  0  0  0  0  0  0  0
   -1.3973    0.0448   -2.0005 H   0  0  0  0  0  0  0  0  0  0  0  0
   -2.6194   -1.7550   -1.0574 H   0  0  0  0  0  0  0  0  0  0  0  0
   -2.3825   -1.0597    0.6029 H   0  0  0  0  0  0  0  0  0  0  0  0
   -1.1925   -2.2140   -0.1127 H   0  0  0  0  0  0  0  0  0  0  0  0
  1  2  1  0
  2  3  1  0
  3  4  1  0
  3  5  1  0
  5  6  1  0
  5  7  1  0
  7  8  1  0
  7  3  1  0
  1  9  1  0
  1 10  1  0
  1 11  1  0
  2 12  1  0
  2 13  1  0
  4 14  1  0
  4 15  1  0
  4 16  1  0
  5 17  1  0
  6 18  1  0
  6 19  1  0
  6 20  1  0
  7 21  1  0
  8 22  1  0
  8 23  1  0
  8 24  1  0
M  END
