
     RDKit          3D

 21 22  0  0  0  0  0  0  0  0999 V2000
    2.5892   -0.1635   -0.2788 C   0  0  0  0  0  0  0  0  0  0  0  0
    1.4168    0.2229    0.6387 C   0  0  0  0  0  0  0  0  0  0  0  0
    0.1503   -0.3952    0.1425 C   0  0  0  0  0  0  0  0  0  0  0  0
    0.2927   -1.7814    0.1333 O   0  0  0  0  0  0  0  0  0  0  0  0
   -0.5530    0.2176   -0.9962 C   0  0  0  0  0  0  0  0  0  0  0  0
   -1.0388    1.2778   -0.0635 C   0  0  0  0  0  0  0  0  0  0  0  0
   -1.1322    0.0278    0.7486 C   0  0  0  0  0  0  0  0  0  0  0  0
   -1.7771   -0.5389   -0.5036 C   0  0  0  0  0  0  0  0  0  0  0  0
   -2.9915    0.0588   -0.7286 O   0  0  0  0  0  0  0  0  0  0  0  0
    3.5074    0.0890    0.3294 H   0  0  0  0  0  0  0  0  0  0  0  0
    2.5524   -1.2295   -0.5393 H   0  0  0  0  0  0  0  0  0  0  0  0
    2.5986    0.5142   -1.1534 H   0  0  0  0  0  0  0  0  0  0  0  0
    1.3912    1.3159    0.6986 H   0  0  0  0  0  0  0  0  0  0  0  0
    1.5991   -0.2434    1.6552 H   0  0  0  0  0  0  0  0  0  0  0  0
    0.4257   -2.1483   -0.7718 H   0  0  0  0  0  0  0  0  0  0  0  0
   -0.2813    0.3169   -1.9544 H   0  0  0  0  0  0  0  0  0  0  0  0
   -0.3664    2.0488    0.2865 H   0  0  0  0  0  0  0  0  0  0  0  0
   -2.0410    1.6941   -0.3880 H   0  0  0  0  0  0  0  0  0  0  0  0
   -1.4717   -0.0807    1.6797 H   0  0  0  0  0  0  0  0  0  0  0  0
   -1.7607   -1.6181   -0.6169 H   0  0  0  0  0  0  0  0  0  0  0  0
   -3.1097    0.4153   -1.6366 H   0  0  0  0  0  0  0  0  0  0  0  0
  1  2  1  0
  2  3  1  0
  3  4  1  0
  3  5  1  0
  5  6  1  0
  6  7  1  0
  7  8  1  0
  8  9  1  0
  7  3  1  0
  8  5  1  0
  1 10  1  0
  1 11  1  0
  1 12  1  0
  2 13  1  0
  2 14  1  0
  4 15  1  0
  5 16  1  0
  6 17  1  0
  6 18  1  0
  7 19  1  0
  8 20  1  0
  9 21  1  0
M  END
