
     RDKit          3D

 20 21  0  0  0  0  0  0  0  0999 V2000
   -2.3942   -0.6925    0.1885 C   0  0  0  0  0  0  0  0  0  0  0  0
   -1.0380   -0.7701    0.8676 C   0  0  0  0  0  0  0  0  0  0  0  0
   -0.1556    0.2817    0.2420 C   0  0  0  0  0  0  0  0  0  0  0  0
    0.1411    0.2456   -1.2170 C   0  0  0  0  0  0  0  0  0  0  0  0
    1.5879   -0.0911   -0.8709 C   0  0  0  0  0  0  0  0  0  0  0  0
    2.5108    0.7815   -1.4728 O   0  0  0  0  0  0  0  0  0  0  0  0
    1.3490    0.1672    0.5831 C   0  0  0  0  0  0  0  0  0  0  0  0
    0.5208    1.3003    1.0554 C   0  0  0  0  0  0  0  0  0  0  0  0
   -2.7488   -1.7172   -0.1059 H   0  0  0  0  0  0  0  0  0  0  0  0
   -3.1490   -0.2131    0.8760 H   0  0  0  0  0  0  0  0  0  0  0  0
   -2.3315   -0.1064   -0.7559 H   0  0  0  0  0  0  0  0  0  0  0  0
   -1.1847   -0.5341    1.9417 H   0  0  0  0  0  0  0  0  0  0  0  0
   -0.5791   -1.7717    0.7698 H   0  0  0  0  0  0  0  0  0  0  0  0
   -0.3731   -0.5238   -1.8223 H   0  0  0  0  0  0  0  0  0  0  0  0
    0.1002    1.2725   -1.6531 H   0  0  0  0  0  0  0  0  0  0  0  0
    1.7855   -1.1696   -1.0732 H   0  0  0  0  0  0  0  0  0  0  0  0
    3.3947    0.4987   -1.1476 H   0  0  0  0  0  0  0  0  0  0  0  0
    1.6462   -0.6059    1.2974 H   0  0  0  0  0  0  0  0  0  0  0  0
    0.6042    2.3149    0.5729 H   0  0  0  0  0  0  0  0  0  0  0  0
    0.3137    1.3330    2.1275 H   0  0  0  0  0  0  0  0  0  0  0  0
  1  2  1  0
  2  3  1  0
  3  4  1  0
  4  5  1  0
  5  6  1  0
  5  7  1  0
  7  8  1  0
  7  3  1  0
  8  3  1  0
  1  9  1  0
  1 10  1  0
  1 11  1  0
  2 12  1  0
  2 13  1  0
  4 14  1  0
  4 15  1  0
  5 16  1  0
  6 17  1  0
  7 18  1  0
  8 19  1  0
  8 20  1  0
M  END
