
     RDKit          3D

 17 17  0  0  0  0  0  0  0  0999 V2000
   -1.7999   -0.9902    0.0505 C   0  0  0  0  0  0  0  0  0  0  0  0
   -1.1729    0.3395    0.4136 C   0  0  0  0  0  0  0  0  0  0  0  0
    0.2365    0.4557   -0.1248 C   0  0  0  0  0  0  0  0  0  0  0  0
    0.8156    1.7579    0.2453 C   0  0  0  0  0  0  0  0  0  0  0  0
    1.4203    2.4302   -0.5479 O   0  0  0  0  0  0  0  0  0  0  0  0
    1.1587   -0.6657    0.2762 C   0  0  0  0  0  0  0  0  0  0  0  0
    1.6882   -0.4358   -1.1121 C   0  0  0  0  0  0  0  0  0  0  0  0
    2.8063   -0.6228   -1.6427 O   0  0  0  0  0  0  0  0  0  0  0  0
    0.4199    0.0357   -1.4358 O   0  0  0  0  0  0  0  0  0  0  0  0
   -2.8647   -0.9514    0.3305 H   0  0  0  0  0  0  0  0  0  0  0  0
   -1.2921   -1.8306    0.5656 H   0  0  0  0  0  0  0  0  0  0  0  0
   -1.7904   -1.1281   -1.0677 H   0  0  0  0  0  0  0  0  0  0  0  0
   -1.7656    1.1392   -0.0748 H   0  0  0  0  0  0  0  0  0  0  0  0
   -1.1952    0.4393    1.5073 H   0  0  0  0  0  0  0  0  0  0  0  0
    0.6895    2.1053    1.2474 H   0  0  0  0  0  0  0  0  0  0  0  0
    0.7272   -1.6662    0.3253 H   0  0  0  0  0  0  0  0  0  0  0  0
    1.9187   -0.4120    1.0441 H   0  0  0  0  0  0  0  0  0  0  0  0
  1  2  1  0
  2  3  1  0
  3  4  1  0
  4  5  2  0
  3  6  1  0
  6  7  1  0
  7  8  2  0
  7  9  1  0
  9  3  1  0
  1 10  1  0
  1 11  1  0
  1 12  1  0
  2 13  1  0
  2 14  1  0
  4 15  1  0
  6 16  1  0
  6 17  1  0
M  END
