
     RDKit          3D

 23 24  0  0  0  0  0  0  0  0999 V2000
    2.8960   -0.4223    0.3390 C   0  0  0  0  0  0  0  0  0  0  0  0
    2.0504    0.6407   -0.2895 C   0  0  0  0  0  0  0  0  0  0  0  0
    0.6805    0.6788    0.3485 C   0  0  0  0  0  0  0  0  0  0  0  0
    0.0009   -0.6616    0.1633 C   0  0  0  0  0  0  0  0  0  0  0  0
   -1.3317   -0.2276   -0.3167 C   0  0  0  0  0  0  0  0  0  0  0  0
   -2.3732   -0.0519    0.7847 C   0  0  0  0  0  0  0  0  0  0  0  0
   -2.5376   -0.9918   -0.3531 C   0  0  0  0  0  0  0  0  0  0  0  0
   -1.0136    1.0114   -1.0764 C   0  0  0  0  0  0  0  0  0  0  0  0
   -0.0827    1.6389   -0.2354 O   0  0  0  0  0  0  0  0  0  0  0  0
    3.2934   -1.1190   -0.4263 H   0  0  0  0  0  0  0  0  0  0  0  0
    2.3274   -1.0328    1.0973 H   0  0  0  0  0  0  0  0  0  0  0  0
    3.7175    0.0716    0.9111 H   0  0  0  0  0  0  0  0  0  0  0  0
    1.8806    0.4285   -1.3748 H   0  0  0  0  0  0  0  0  0  0  0  0
    2.4801    1.6736   -0.1488 H   0  0  0  0  0  0  0  0  0  0  0  0
    0.7570    0.8318    1.4567 H   0  0  0  0  0  0  0  0  0  0  0  0
    0.4888   -1.2478   -0.6621 H   0  0  0  0  0  0  0  0  0  0  0  0
   -0.0504   -1.2446    1.1026 H   0  0  0  0  0  0  0  0  0  0  0  0
   -2.9266    0.9178    0.8220 H   0  0  0  0  0  0  0  0  0  0  0  0
   -2.1330   -0.4818    1.7935 H   0  0  0  0  0  0  0  0  0  0  0  0
   -2.4949   -2.0773   -0.1151 H   0  0  0  0  0  0  0  0  0  0  0  0
   -3.3254   -0.7544   -1.0903 H   0  0  0  0  0  0  0  0  0  0  0  0
   -1.8709    1.6541   -1.2963 H   0  0  0  0  0  0  0  0  0  0  0  0
   -0.4326    0.7656   -2.0131 H   0  0  0  0  0  0  0  0  0  0  0  0
  1  2  1  0
  2  3  1  0
  3  4  1  0
  4  5  1  0
  5  6  1  0
  6  7  1  0
  5  8  1  0
  8  9  1  0
  9  3  1  0
  7  5  1  0
  1 10  1  0
  1 11  1  0
  1 12  1  0
  2 13  1  0
  2 14  1  0
  3 15  1  0
  4 16  1  0
  4 17  1  0
  6 18  1  0
  6 19  1  0
  7 20  1  0
  7 21  1  0
  8 22  1  0
  8 23  1  0
M  END
