
     RDKit          3D

 19 21  0  0  0  0  0  0  0  0999 V2000
    2.3746    0.3584   -0.0057 C   0  0  0  0  0  0  0  0  0  0  0  0
    1.4003   -0.7521   -0.2442 C   0  0  0  0  0  0  0  0  0  0  0  0
    0.0014   -0.4505    0.0310 C   0  0  0  0  0  0  0  0  0  0  0  0
   -0.4112   -0.0473    1.3793 C   0  0  0  0  0  0  0  0  0  0  0  0
   -1.5993    0.5582    1.3114 C   0  0  0  0  0  0  0  0  0  0  0  0
   -2.0458    0.5905   -0.1083 C   0  0  0  0  0  0  0  0  0  0  0  0
   -1.7741   -0.6199   -0.9029 C   0  0  0  0  0  0  0  0  0  0  0  0
   -0.8453   -1.4996   -0.4016 O   0  0  0  0  0  0  0  0  0  0  0  0
   -0.7756    0.4524   -0.8432 C   0  0  0  0  0  0  0  0  0  0  0  0
    3.3236   -0.0599    0.3893 H   0  0  0  0  0  0  0  0  0  0  0  0
    2.0158    1.1055    0.7282 H   0  0  0  0  0  0  0  0  0  0  0  0
    2.6497    0.8478   -0.9809 H   0  0  0  0  0  0  0  0  0  0  0  0
    1.5432   -1.0979   -1.2899 H   0  0  0  0  0  0  0  0  0  0  0  0
    1.7121   -1.6374    0.3856 H   0  0  0  0  0  0  0  0  0  0  0  0
    0.1183   -0.1870    2.3354 H   0  0  0  0  0  0  0  0  0  0  0  0
   -2.1541    0.9638    2.1567 H   0  0  0  0  0  0  0  0  0  0  0  0
   -2.8693    1.2228   -0.4147 H   0  0  0  0  0  0  0  0  0  0  0  0
   -2.2497   -0.8015   -1.8854 H   0  0  0  0  0  0  0  0  0  0  0  0
   -0.4145    1.0536   -1.6403 H   0  0  0  0  0  0  0  0  0  0  0  0
  1  2  1  0
  2  3  1  0
  3  4  1  0
  4  5  2  0
  5  6  1  0
  6  7  1  0
  7  8  1  0
  7  9  1  0
  8  3  1  0
  9  3  1  0
  9  6  1  0
  1 10  1  0
  1 11  1  0
  1 12  1  0
  2 13  1  0
  2 14  1  0
  4 15  1  0
  5 16  1  0
  6 17  1  0
  7 18  1  0
  9 19  1  0
M  END
