
     RDKit          3D

 24 24  0  0  0  0  0  0  0  0999 V2000
    2.7311    0.5056    0.1330 C   0  0  0  0  0  0  0  0  0  0  0  0
    2.0858   -0.8368    0.0116 C   0  0  0  0  0  0  0  0  0  0  0  0
    0.6059   -0.8334   -0.0462 C   0  0  0  0  0  0  0  0  0  0  0  0
   -0.1783   -0.2728    1.0751 C   0  0  0  0  0  0  0  0  0  0  0  0
   -1.2166    0.1505    0.0246 C   0  0  0  0  0  0  0  0  0  0  0  0
   -2.1853   -0.9241   -0.3523 C   0  0  0  0  0  0  0  0  0  0  0  0
   -1.9019    1.4396    0.3123 C   0  0  0  0  0  0  0  0  0  0  0  0
   -0.0151    0.2506   -0.9263 C   0  0  0  0  0  0  0  0  0  0  0  0
    2.1569    1.2397    0.7180 H   0  0  0  0  0  0  0  0  0  0  0  0
    3.7301    0.4326    0.6294 H   0  0  0  0  0  0  0  0  0  0  0  0
    2.9391    0.9015   -0.8863 H   0  0  0  0  0  0  0  0  0  0  0  0
    2.4671   -1.3626   -0.8900 H   0  0  0  0  0  0  0  0  0  0  0  0
    2.4166   -1.4467    0.8797 H   0  0  0  0  0  0  0  0  0  0  0  0
    0.2206   -1.8345   -0.3312 H   0  0  0  0  0  0  0  0  0  0  0  0
   -0.6393   -1.0241    1.7417 H   0  0  0  0  0  0  0  0  0  0  0  0
    0.1789    0.6472    1.5586 H   0  0  0  0  0  0  0  0  0  0  0  0
   -3.0240   -0.4448   -0.8971 H   0  0  0  0  0  0  0  0  0  0  0  0
   -1.7456   -1.7064   -1.0012 H   0  0  0  0  0  0  0  0  0  0  0  0
   -2.5671   -1.3763    0.5905 H   0  0  0  0  0  0  0  0  0  0  0  0
   -1.5452    2.2930   -0.2916 H   0  0  0  0  0  0  0  0  0  0  0  0
   -1.7945    1.6691    1.4006 H   0  0  0  0  0  0  0  0  0  0  0  0
   -3.0150    1.3944    0.1391 H   0  0  0  0  0  0  0  0  0  0  0  0
   -0.2150   -0.0763   -1.9456 H   0  0  0  0  0  0  0  0  0  0  0  0
    0.5107    1.2151   -0.8019 H   0  0  0  0  0  0  0  0  0  0  0  0
  1  2  1  0
  2  3  1  0
  3  4  1  0
  4  5  1  0
  5  6  1  0
  5  7  1  0
  5  8  1  0
  8  3  1  0
  1  9  1  0
  1 10  1  0
  1 11  1  0
  2 12  1  0
  2 13  1  0
  3 14  1  0
  4 15  1  0
  4 16  1  0
  6 17  1  0
  6 18  1  0
  6 19  1  0
  7 20  1  0
  7 21  1  0
  7 22  1  0
  8 23  1  0
  8 24  1  0
M  END
