
     RDKit          3D

 25 25  0  0  0  0  0  0  0  0999 V2000
    2.8245   -0.3164    0.0789 C   0  0  0  0  0  0  0  0  0  0  0  0
    1.4689   -0.9192   -0.2913 C   0  0  0  0  0  0  0  0  0  0  0  0
    0.4218   -0.0749    0.3847 C   0  0  0  0  0  0  0  0  0  0  0  0
    0.4747    1.3637   -0.0632 C   0  0  0  0  0  0  0  0  0  0  0  0
   -0.8756    1.8949    0.2925 C   0  0  0  0  0  0  0  0  0  0  0  0
   -1.7585    0.7099    0.6222 C   0  0  0  0  0  0  0  0  0  0  0  0
   -0.9781   -0.4524    0.0037 C   0  0  0  0  0  0  0  0  0  0  0  0
   -1.4326   -1.7589    0.5833 C   0  0  0  0  0  0  0  0  0  0  0  0
   -1.2106   -0.3978   -1.3603 O   0  0  0  0  0  0  0  0  0  0  0  0
    2.8289    0.6981   -0.3848 H   0  0  0  0  0  0  0  0  0  0  0  0
    2.9339   -0.2915    1.1745 H   0  0  0  0  0  0  0  0  0  0  0  0
    3.6121   -0.9265   -0.3843 H   0  0  0  0  0  0  0  0  0  0  0  0
    1.4718   -1.9598    0.0445 H   0  0  0  0  0  0  0  0  0  0  0  0
    1.3703   -0.8316   -1.3874 H   0  0  0  0  0  0  0  0  0  0  0  0
    0.5031   -0.1057    1.4750 H   0  0  0  0  0  0  0  0  0  0  0  0
    1.3066    1.9277    0.3988 H   0  0  0  0  0  0  0  0  0  0  0  0
    0.5623    1.3428   -1.1785 H   0  0  0  0  0  0  0  0  0  0  0  0
   -1.2976    2.4701   -0.5800 H   0  0  0  0  0  0  0  0  0  0  0  0
   -0.8627    2.6114    1.1509 H   0  0  0  0  0  0  0  0  0  0  0  0
   -2.7572    0.8132    0.2029 H   0  0  0  0  0  0  0  0  0  0  0  0
   -1.7540    0.6148    1.7458 H   0  0  0  0  0  0  0  0  0  0  0  0
   -1.1660   -1.7890    1.6561 H   0  0  0  0  0  0  0  0  0  0  0  0
   -2.5439   -1.7837    0.5235 H   0  0  0  0  0  0  0  0  0  0  0  0
   -0.9725   -2.5791    0.0324 H   0  0  0  0  0  0  0  0  0  0  0  0
   -2.1697   -0.2598   -1.5625 H   0  0  0  0  0  0  0  0  0  0  0  0
  1  2  1  0
  2  3  1  0
  3  4  1  0
  4  5  1  0
  5  6  1  0
  6  7  1  0
  7  8  1  0
  7  9  1  0
  7  3  1  0
  1 10  1  0
  1 11  1  0
  1 12  1  0
  2 13  1  0
  2 14  1  0
  3 15  1  0
  4 16  1  0
  4 17  1  0
  5 18  1  0
  5 19  1  0
  6 20  1  0
  6 21  1  0
  8 22  1  0
  8 23  1  0
  8 24  1  0
  9 25  1  0
M  END
