
     RDKit          3D

 21 22  0  0  0  0  0  0  0  0999 V2000
   -2.3098    1.2014    0.3306 C   0  0  0  0  0  0  0  0  0  0  0  0
   -1.7345   -0.1848    0.4429 C   0  0  0  0  0  0  0  0  0  0  0  0
   -0.3765   -0.2742   -0.0574 C   0  0  0  0  0  0  0  0  0  0  0  0
    0.6915    0.5890    0.6007 C   0  0  0  0  0  0  0  0  0  0  0  0
    1.8905    0.0418   -0.2037 C   0  0  0  0  0  0  0  0  0  0  0  0
    2.6178    1.0363   -0.7796 O   0  0  0  0  0  0  0  0  0  0  0  0
    1.0842   -0.7889   -1.1718 C   0  0  0  0  0  0  0  0  0  0  0  0
    0.2667   -1.6333   -0.1844 C   0  0  0  0  0  0  0  0  0  0  0  0
   -0.1018   -0.0835   -1.3935 O   0  0  0  0  0  0  0  0  0  0  0  0
   -3.1396    1.2356   -0.4110 H   0  0  0  0  0  0  0  0  0  0  0  0
   -2.6949    1.5369    1.3080 H   0  0  0  0  0  0  0  0  0  0  0  0
   -1.4808    1.8766    0.0251 H   0  0  0  0  0  0  0  0  0  0  0  0
   -2.4163   -0.8853   -0.0805 H   0  0  0  0  0  0  0  0  0  0  0  0
   -1.7406   -0.4933    1.5246 H   0  0  0  0  0  0  0  0  0  0  0  0
    0.8028    0.3987    1.6666 H   0  0  0  0  0  0  0  0  0  0  0  0
    0.5320    1.6507    0.3319 H   0  0  0  0  0  0  0  0  0  0  0  0
    2.4290   -0.6388    0.4545 H   0  0  0  0  0  0  0  0  0  0  0  0
    3.5536    1.0269   -0.4066 H   0  0  0  0  0  0  0  0  0  0  0  0
    1.5604   -1.2899   -1.9779 H   0  0  0  0  0  0  0  0  0  0  0  0
   -0.3557   -2.3825   -0.6579 H   0  0  0  0  0  0  0  0  0  0  0  0
    0.9220   -1.9395    0.6396 H   0  0  0  0  0  0  0  0  0  0  0  0
  1  2  1  0
  2  3  1  0
  3  4  1  0
  4  5  1  0
  5  6  1  0
  5  7  1  0
  7  8  1  0
  7  9  1  0
  8  3  1  0
  9  3  1  0
  1 10  1  0
  1 11  1  0
  1 12  1  0
  2 13  1  0
  2 14  1  0
  4 15  1  0
  4 16  1  0
  5 17  1  0
  6 18  1  0
  7 19  1  0
  8 20  1  0
  8 21  1  0
M  END
