
     RDKit          3D

 21 21  0  0  0  0  0  0  0  0999 V2000
    2.4730   -0.4427    0.0117 C   0  0  0  0  0  0  0  0  0  0  0  0
    1.3983    0.1226   -0.8732 C   0  0  0  0  0  0  0  0  0  0  0  0
    0.0324   -0.1404   -0.3339 C   0  0  0  0  0  0  0  0  0  0  0  0
   -0.8859    0.7462    0.0093 C   0  0  0  0  0  0  0  0  0  0  0  0
   -0.6931    2.2186   -0.0944 C   0  0  0  0  0  0  0  0  0  0  0  0
   -2.0759    0.0715    0.5015 C   0  0  0  0  0  0  0  0  0  0  0  0
   -3.2156    0.5586    0.5495 O   0  0  0  0  0  0  0  0  0  0  0  0
   -1.6040   -1.2719    0.9082 C   0  0  0  0  0  0  0  0  0  0  0  0
   -0.5133   -1.4904   -0.1107 C   0  0  0  0  0  0  0  0  0  0  0  0
    2.9572    0.3831    0.5825 H   0  0  0  0  0  0  0  0  0  0  0  0
    3.2658   -0.8621   -0.6447 H   0  0  0  0  0  0  0  0  0  0  0  0
    2.1146   -1.2288    0.6884 H   0  0  0  0  0  0  0  0  0  0  0  0
    1.4269   -0.3242   -1.8979 H   0  0  0  0  0  0  0  0  0  0  0  0
    1.5338    1.2134   -0.9674 H   0  0  0  0  0  0  0  0  0  0  0  0
    0.2626    2.4539    0.4130 H   0  0  0  0  0  0  0  0  0  0  0  0
   -0.6076    2.5648   -1.1281 H   0  0  0  0  0  0  0  0  0  0  0  0
   -1.5187    2.7659    0.4044 H   0  0  0  0  0  0  0  0  0  0  0  0
   -1.1645   -1.1977    1.9296 H   0  0  0  0  0  0  0  0  0  0  0  0
   -2.3915   -2.0478    0.8484 H   0  0  0  0  0  0  0  0  0  0  0  0
   -1.0439   -1.8779   -1.0322 H   0  0  0  0  0  0  0  0  0  0  0  0
    0.2495   -2.2144    0.2359 H   0  0  0  0  0  0  0  0  0  0  0  0
  1  2  1  0
  2  3  1  0
  3  4  2  0
  4  5  1  0
  4  6  1  0
  6  7  2  0
  6  8  1  0
  8  9  1  0
  9  3  1  0
  1 10  1  0
  1 11  1  0
  1 12  1  0
  2 13  1  0
  2 14  1  0
  5 15  1  0
  5 16  1  0
  5 17  1  0
  8 18  1  0
  8 19  1  0
  9 20  1  0
  9 21  1  0
M  END
