
     RDKit          3D

 23 23  0  0  0  0  0  0  0  0999 V2000
   -2.0986    1.0789    0.8181 C   0  0  0  0  0  0  0  0  0  0  0  0
   -1.6398    0.9174   -0.6289 C   0  0  0  0  0  0  0  0  0  0  0  0
   -0.8128   -0.3552   -0.6712 C   0  0  0  0  0  0  0  0  0  0  0  0
   -1.4964   -1.4819   -0.2938 O   0  0  0  0  0  0  0  0  0  0  0  0
    0.3248   -0.4842   -1.6047 C   0  0  0  0  0  0  0  0  0  0  0  0
    0.6166   -0.2947   -0.1359 C   0  0  0  0  0  0  0  0  0  0  0  0
    1.1609   -1.5251    0.5574 C   0  0  0  0  0  0  0  0  0  0  0  0
    0.9832    0.9385    0.3406 O   0  0  0  0  0  0  0  0  0  0  0  0
    2.2875    0.9257    0.8099 C   0  0  0  0  0  0  0  0  0  0  0  0
   -2.9473    0.3686    0.9405 H   0  0  0  0  0  0  0  0  0  0  0  0
   -1.3122    0.7881    1.5253 H   0  0  0  0  0  0  0  0  0  0  0  0
   -2.4598    2.1193    0.9733 H   0  0  0  0  0  0  0  0  0  0  0  0
   -1.0635    1.8048   -0.9573 H   0  0  0  0  0  0  0  0  0  0  0  0
   -2.5099    0.7854   -1.2721 H   0  0  0  0  0  0  0  0  0  0  0  0
   -1.8830   -1.9007   -1.1017 H   0  0  0  0  0  0  0  0  0  0  0  0
    0.6827    0.3556   -2.2313 H   0  0  0  0  0  0  0  0  0  0  0  0
    0.5060   -1.4713   -2.0750 H   0  0  0  0  0  0  0  0  0  0  0  0
    2.2011   -1.6532    0.2406 H   0  0  0  0  0  0  0  0  0  0  0  0
    0.5300   -2.4252    0.3444 H   0  0  0  0  0  0  0  0  0  0  0  0
    1.1172   -1.3636    1.6419 H   0  0  0  0  0  0  0  0  0  0  0  0
    2.4906    1.9750    1.1757 H   0  0  0  0  0  0  0  0  0  0  0  0
    2.9369    0.6643   -0.0487 H   0  0  0  0  0  0  0  0  0  0  0  0
    2.3861    0.2334    1.6528 H   0  0  0  0  0  0  0  0  0  0  0  0
  1  2  1  0
  2  3  1  0
  3  4  1  0
  3  5  1  0
  5  6  1  0
  6  7  1  0
  6  8  1  0
  8  9  1  0
  6  3  1  0
  1 10  1  0
  1 11  1  0
  1 12  1  0
  2 13  1  0
  2 14  1  0
  4 15  1  0
  5 16  1  0
  5 17  1  0
  7 18  1  0
  7 19  1  0
  7 20  1  0
  9 21  1  0
  9 22  1  0
  9 23  1  0
M  END
