
     RDKit          3D

 21 22  0  0  0  0  0  0  0  0999 V2000
   -3.1628   -0.2240    0.7371 C   0  0  0  0  0  0  0  0  0  0  0  0
   -2.1819   -0.0793   -0.4145 C   0  0  0  0  0  0  0  0  0  0  0  0
   -0.7964   -0.2548    0.1562 C   0  0  0  0  0  0  0  0  0  0  0  0
    0.3228   -0.1507   -0.8049 C   0  0  0  0  0  0  0  0  0  0  0  0
    1.5875   -0.5950   -0.5089 O   0  0  0  0  0  0  0  0  0  0  0  0
    2.1748    0.3266    0.3467 C   0  0  0  0  0  0  0  0  0  0  0  0
    3.2734   -0.3760    1.1323 C   0  0  0  0  0  0  0  0  0  0  0  0
    1.1537    0.7792    1.1659 O   0  0  0  0  0  0  0  0  0  0  0  0
    0.0949    0.9035    0.2690 C   0  0  0  0  0  0  0  0  0  0  0  0
   -2.8195   -0.9753    1.4797 H   0  0  0  0  0  0  0  0  0  0  0  0
   -3.2956    0.7638    1.2557 H   0  0  0  0  0  0  0  0  0  0  0  0
   -4.1169   -0.6079    0.3221 H   0  0  0  0  0  0  0  0  0  0  0  0
   -2.2486    0.9083   -0.8827 H   0  0  0  0  0  0  0  0  0  0  0  0
   -2.4273   -0.8776   -1.1538 H   0  0  0  0  0  0  0  0  0  0  0  0
   -0.7591   -1.0153    0.9814 H   0  0  0  0  0  0  0  0  0  0  0  0
    0.0964    0.1113   -1.8637 H   0  0  0  0  0  0  0  0  0  0  0  0
    2.5725    1.2150   -0.1913 H   0  0  0  0  0  0  0  0  0  0  0  0
    2.8118   -0.9398    1.9704 H   0  0  0  0  0  0  0  0  0  0  0  0
    4.0595    0.3303    1.4608 H   0  0  0  0  0  0  0  0  0  0  0  0
    3.7807   -1.1363    0.4839 H   0  0  0  0  0  0  0  0  0  0  0  0
   -0.1199    1.8940   -0.1396 H   0  0  0  0  0  0  0  0  0  0  0  0
  1  2  1  0
  2  3  1  0
  3  4  1  0
  4  5  1  0
  5  6  1  0
  6  7  1  0
  6  8  1  0
  8  9  1  0
  9  3  1  0
  9  4  1  0
  1 10  1  0
  1 11  1  0
  1 12  1  0
  2 13  1  0
  2 14  1  0
  3 15  1  0
  4 16  1  0
  6 17  1  0
  7 18  1  0
  7 19  1  0
  7 20  1  0
  9 21  1  0
M  END
