
     RDKit          3D

 25 25  0  0  0  0  0  0  0  0999 V2000
   -2.7546   -0.5297   -0.4925 C   0  0  0  0  0  0  0  0  0  0  0  0
   -1.5372    0.0617   -1.1603 C   0  0  0  0  0  0  0  0  0  0  0  0
   -0.4765    0.2557   -0.1019 C   0  0  0  0  0  0  0  0  0  0  0  0
   -0.9641    1.1782    0.9666 C   0  0  0  0  0  0  0  0  0  0  0  0
    0.8140    0.7017   -0.6776 C   0  0  0  0  0  0  0  0  0  0  0  0
    1.8181    0.1167   -0.0387 C   0  0  0  0  0  0  0  0  0  0  0  0
    3.2579    0.3186   -0.3361 C   0  0  0  0  0  0  0  0  0  0  0  0
    1.2955   -0.7732    1.0215 C   0  0  0  0  0  0  0  0  0  0  0  0
   -0.0881   -1.1103    0.4688 C   0  0  0  0  0  0  0  0  0  0  0  0
   -3.6929   -0.0140   -0.8361 H   0  0  0  0  0  0  0  0  0  0  0  0
   -2.8515   -1.6201   -0.7342 H   0  0  0  0  0  0  0  0  0  0  0  0
   -2.7418   -0.4478    0.5943 H   0  0  0  0  0  0  0  0  0  0  0  0
   -1.7490    1.0318   -1.6444 H   0  0  0  0  0  0  0  0  0  0  0  0
   -1.1276   -0.6537   -1.9024 H   0  0  0  0  0  0  0  0  0  0  0  0
   -0.1386    1.8302    1.2989 H   0  0  0  0  0  0  0  0  0  0  0  0
   -1.3640    0.6479    1.8540 H   0  0  0  0  0  0  0  0  0  0  0  0
   -1.7952    1.8121    0.5513 H   0  0  0  0  0  0  0  0  0  0  0  0
    0.9391    1.3990   -1.4960 H   0  0  0  0  0  0  0  0  0  0  0  0
    3.8519    0.5879    0.5476 H   0  0  0  0  0  0  0  0  0  0  0  0
    3.4071    1.0605   -1.1531 H   0  0  0  0  0  0  0  0  0  0  0  0
    3.6705   -0.6642   -0.7052 H   0  0  0  0  0  0  0  0  0  0  0  0
    1.1235   -0.2313    1.9698 H   0  0  0  0  0  0  0  0  0  0  0  0
    1.8481   -1.7082    1.1381 H   0  0  0  0  0  0  0  0  0  0  0  0
    0.0385   -1.8046   -0.3730 H   0  0  0  0  0  0  0  0  0  0  0  0
   -0.7831   -1.4448    1.2406 H   0  0  0  0  0  0  0  0  0  0  0  0
  1  2  1  0
  2  3  1  0
  3  4  1  0
  3  5  1  0
  5  6  2  0
  6  7  1  0
  6  8  1  0
  8  9  1  0
  9  3  1  0
  1 10  1  0
  1 11  1  0
  1 12  1  0
  2 13  1  0
  2 14  1  0
  4 15  1  0
  4 16  1  0
  4 17  1  0
  5 18  1  0
  7 19  1  0
  7 20  1  0
  7 21  1  0
  8 22  1  0
  8 23  1  0
  9 24  1  0
  9 25  1  0
M  END
