
     RDKit          3D

 25 26  0  0  0  0  0  0  0  0999 V2000
    2.9206   -0.2333   -0.2071 C   0  0  0  0  0  0  0  0  0  0  0  0
    1.7938   -0.5583    0.7001 C   0  0  0  0  0  0  0  0  0  0  0  0
    0.5365    0.0002    0.2872 C   0  0  0  0  0  0  0  0  0  0  0  0
    0.2925    1.4449    0.1286 C   0  0  0  0  0  0  0  0  0  0  0  0
   -1.2013    1.4102   -0.2722 C   0  0  0  0  0  0  0  0  0  0  0  0
   -1.4288   -0.0690   -0.1943 C   0  0  0  0  0  0  0  0  0  0  0  0
   -2.7263   -0.6475   -0.4399 C   0  0  0  0  0  0  0  0  0  0  0  0
   -0.6943   -0.4253    1.1053 C   0  0  0  0  0  0  0  0  0  0  0  0
   -0.2039   -0.6227   -0.8941 C   0  0  0  0  0  0  0  0  0  0  0  0
    3.3019   -1.1218   -0.7853 H   0  0  0  0  0  0  0  0  0  0  0  0
    2.7049    0.5548   -0.9543 H   0  0  0  0  0  0  0  0  0  0  0  0
    3.7770    0.1086    0.4124 H   0  0  0  0  0  0  0  0  0  0  0  0
    1.7040   -1.6852    0.7237 H   0  0  0  0  0  0  0  0  0  0  0  0
    2.0007   -0.2976    1.7784 H   0  0  0  0  0  0  0  0  0  0  0  0
    0.8876    1.9451   -0.6572 H   0  0  0  0  0  0  0  0  0  0  0  0
    0.3403    2.0059    1.0719 H   0  0  0  0  0  0  0  0  0  0  0  0
   -1.8145    1.9965    0.4117 H   0  0  0  0  0  0  0  0  0  0  0  0
   -1.2569    1.7356   -1.3234 H   0  0  0  0  0  0  0  0  0  0  0  0
   -2.7754   -1.1246   -1.4374 H   0  0  0  0  0  0  0  0  0  0  0  0
   -2.9121   -1.4833    0.2967 H   0  0  0  0  0  0  0  0  0  0  0  0
   -3.5373    0.0820   -0.2605 H   0  0  0  0  0  0  0  0  0  0  0  0
   -0.9688    0.2880    1.8883 H   0  0  0  0  0  0  0  0  0  0  0  0
   -0.6911   -1.4872    1.3488 H   0  0  0  0  0  0  0  0  0  0  0  0
   -0.1129   -1.7192   -0.9001 H   0  0  0  0  0  0  0  0  0  0  0  0
    0.0639   -0.0968   -1.8275 H   0  0  0  0  0  0  0  0  0  0  0  0
  1  2  1  0
  2  3  1  0
  3  4  1  0
  4  5  1  0
  5  6  1  0
  6  7  1  0
  6  8  1  0
  6  9  1  0
  8  3  1  0
  9  3  1  0
  1 10  1  0
  1 11  1  0
  1 12  1  0
  2 13  1  0
  2 14  1  0
  4 15  1  0
  4 16  1  0
  5 17  1  0
  5 18  1  0
  7 19  1  0
  7 20  1  0
  7 21  1  0
  8 22  1  0
  8 23  1  0
  9 24  1  0
  9 25  1  0
M  END
