
     RDKit          3D

 27 27  0  0  0  0  0  0  0  0999 V2000
    2.3482   -1.0241    0.2514 C   0  0  0  0  0  0  0  0  0  0  0  0
    1.4663    0.1454    0.5474 C   0  0  0  0  0  0  0  0  0  0  0  0
    0.1115    0.0696   -0.0678 C   0  0  0  0  0  0  0  0  0  0  0  0
   -0.6989    1.3053    0.2963 C   0  0  0  0  0  0  0  0  0  0  0  0
   -0.0367    2.5666   -0.1896 C   0  0  0  0  0  0  0  0  0  0  0  0
    0.0774   -0.2552   -1.5462 C   0  0  0  0  0  0  0  0  0  0  0  0
   -1.2427   -0.9814   -1.2542 C   0  0  0  0  0  0  0  0  0  0  0  0
   -0.6802   -1.1739    0.1549 C   0  0  0  0  0  0  0  0  0  0  0  0
   -1.7289   -1.1170    1.2373 C   0  0  0  0  0  0  0  0  0  0  0  0
    2.7142   -1.0317   -0.8040 H   0  0  0  0  0  0  0  0  0  0  0  0
    1.9169   -1.9910    0.5257 H   0  0  0  0  0  0  0  0  0  0  0  0
    3.2681   -0.9052    0.8921 H   0  0  0  0  0  0  0  0  0  0  0  0
    1.9608    1.0643    0.1963 H   0  0  0  0  0  0  0  0  0  0  0  0
    1.3414    0.2059    1.6476 H   0  0  0  0  0  0  0  0  0  0  0  0
   -0.6990    1.3454    1.4203 H   0  0  0  0  0  0  0  0  0  0  0  0
   -1.7466    1.2125   -0.0099 H   0  0  0  0  0  0  0  0  0  0  0  0
    0.3695    3.1853    0.6454 H   0  0  0  0  0  0  0  0  0  0  0  0
   -0.7984    3.2310   -0.6923 H   0  0  0  0  0  0  0  0  0  0  0  0
    0.8043    2.3684   -0.8682 H   0  0  0  0  0  0  0  0  0  0  0  0
   -0.0839    0.6121   -2.2146 H   0  0  0  0  0  0  0  0  0  0  0  0
    0.8730   -0.9486   -1.8114 H   0  0  0  0  0  0  0  0  0  0  0  0
   -2.1231   -0.3178   -1.3051 H   0  0  0  0  0  0  0  0  0  0  0  0
   -1.3607   -1.9375   -1.7593 H   0  0  0  0  0  0  0  0  0  0  0  0
   -0.0938   -2.1175    0.2059 H   0  0  0  0  0  0  0  0  0  0  0  0
   -2.6315   -0.5570    0.9390 H   0  0  0  0  0  0  0  0  0  0  0  0
   -1.2616   -0.7727    2.1662 H   0  0  0  0  0  0  0  0  0  0  0  0
   -2.0657   -2.1812    1.3966 H   0  0  0  0  0  0  0  0  0  0  0  0
  1  2  1  0
  2  3  1  0
  3  4  1  0
  4  5  1  0
  3  6  1  0
  6  7  1  0
  7  8  1  0
  8  9  1  0
  8  3  1  0
  1 10  1  0
  1 11  1  0
  1 12  1  0
  2 13  1  0
  2 14  1  0
  4 15  1  0
  4 16  1  0
  5 17  1  0
  5 18  1  0
  5 19  1  0
  6 20  1  0
  6 21  1  0
  7 22  1  0
  7 23  1  0
  8 24  1  0
  9 25  1  0
  9 26  1  0
  9 27  1  0
M  END
