
     RDKit          3D

 17 17  0  0  0  0  0  0  0  0999 V2000
    2.3295    0.2858   -0.5705 C   0  0  0  0  0  0  0  0  0  0  0  0
    1.3117   -0.7082   -0.1031 C   0  0  0  0  0  0  0  0  0  0  0  0
    0.0115   -0.0668    0.2918 C   0  0  0  0  0  0  0  0  0  0  0  0
   -0.8635   -1.0972    0.7123 O   0  0  0  0  0  0  0  0  0  0  0  0
   -2.1454   -0.5812    0.5939 C   0  0  0  0  0  0  0  0  0  0  0  0
   -3.1577   -0.9063    1.2302 O   0  0  0  0  0  0  0  0  0  0  0  0
   -2.1521    0.4855   -0.4666 C   0  0  0  0  0  0  0  0  0  0  0  0
   -0.7241    0.5000   -0.8597 C   0  0  0  0  0  0  0  0  0  0  0  0
   -0.2408    0.8847   -1.8885 O   0  0  0  0  0  0  0  0  0  0  0  0
    2.0683    0.7251   -1.5538 H   0  0  0  0  0  0  0  0  0  0  0  0
    3.2892   -0.2695   -0.7267 H   0  0  0  0  0  0  0  0  0  0  0  0
    2.5556    1.0720    0.1686 H   0  0  0  0  0  0  0  0  0  0  0  0
    1.7121   -1.2338    0.7833 H   0  0  0  0  0  0  0  0  0  0  0  0
    1.1083   -1.4048   -0.9309 H   0  0  0  0  0  0  0  0  0  0  0  0
    0.1168    0.6641    1.1168 H   0  0  0  0  0  0  0  0  0  0  0  0
   -2.3975    1.4451   -0.0083 H   0  0  0  0  0  0  0  0  0  0  0  0
   -2.8217    0.2054   -1.3033 H   0  0  0  0  0  0  0  0  0  0  0  0
  1  2  1  0
  2  3  1  0
  3  4  1  0
  4  5  1  0
  5  6  2  0
  5  7  1  0
  7  8  1  0
  8  9  2  0
  8  3  1  0
  1 10  1  0
  1 11  1  0
  1 12  1  0
  2 13  1  0
  2 14  1  0
  3 15  1  0
  7 16  1  0
  7 17  1  0
M  END
