
     RDKit          3D

 23 24  0  0  0  0  0  0  0  0999 V2000
    2.8006   -0.2540    0.2599 C   0  0  0  0  0  0  0  0  0  0  0  0
    1.6196    0.6344    0.5624 C   0  0  0  0  0  0  0  0  0  0  0  0
    0.5048    0.4327   -0.4216 C   0  0  0  0  0  0  0  0  0  0  0  0
   -0.1496   -0.8772   -0.5957 C   0  0  0  0  0  0  0  0  0  0  0  0
   -1.2965   -0.8970   -1.5894 C   0  0  0  0  0  0  0  0  0  0  0  0
   -2.0537    0.0182   -0.6753 C   0  0  0  0  0  0  0  0  0  0  0  0
   -2.4681    1.2257   -1.2737 O   0  0  0  0  0  0  0  0  0  0  0  0
   -0.8461    0.2280    0.2096 C   0  0  0  0  0  0  0  0  0  0  0  0
   -0.9719    0.0613    1.6926 C   0  0  0  0  0  0  0  0  0  0  0  0
    2.4688   -1.2588   -0.0678 H   0  0  0  0  0  0  0  0  0  0  0  0
    3.4096    0.2495   -0.5122 H   0  0  0  0  0  0  0  0  0  0  0  0
    3.4322   -0.3349    1.1680 H   0  0  0  0  0  0  0  0  0  0  0  0
    1.9694    1.6896    0.4555 H   0  0  0  0  0  0  0  0  0  0  0  0
    1.2804    0.5398    1.6153 H   0  0  0  0  0  0  0  0  0  0  0  0
    0.5456    1.0676   -1.3400 H   0  0  0  0  0  0  0  0  0  0  0  0
    0.0916   -1.7656   -0.0109 H   0  0  0  0  0  0  0  0  0  0  0  0
   -1.0071   -0.3860   -2.5253 H   0  0  0  0  0  0  0  0  0  0  0  0
   -1.7364   -1.8848   -1.7861 H   0  0  0  0  0  0  0  0  0  0  0  0
   -2.8478   -0.4964   -0.0967 H   0  0  0  0  0  0  0  0  0  0  0  0
   -1.7123    1.8612   -1.2581 H   0  0  0  0  0  0  0  0  0  0  0  0
   -0.6180    0.9998    2.2048 H   0  0  0  0  0  0  0  0  0  0  0  0
   -2.0433   -0.0554    1.9361 H   0  0  0  0  0  0  0  0  0  0  0  0
   -0.3719   -0.7978    2.0487 H   0  0  0  0  0  0  0  0  0  0  0  0
  1  2  1  0
  2  3  1  0
  3  4  1  0
  4  5  1  0
  5  6  1  0
  6  7  1  0
  6  8  1  0
  8  9  1  0
  8  3  1  0
  8  4  1  0
  1 10  1  0
  1 11  1  0
  1 12  1  0
  2 13  1  0
  2 14  1  0
  3 15  1  0
  4 16  1  0
  5 17  1  0
  5 18  1  0
  6 19  1  0
  7 20  1  0
  9 21  1  0
  9 22  1  0
  9 23  1  0
M  END
