
     RDKit          3D

 25 26  0  0  0  0  0  0  0  0999 V2000
   -1.2089   -2.2633    0.4124 C   0  0  0  0  0  0  0  0  0  0  0  0
   -1.2326   -1.0904   -0.5160 C   0  0  0  0  0  0  0  0  0  0  0  0
   -0.1117   -0.1000   -0.2307 C   0  0  0  0  0  0  0  0  0  0  0  0
    1.2190   -0.7589   -0.3787 C   0  0  0  0  0  0  0  0  0  0  0  0
    2.3939    0.1250   -0.1192 C   0  0  0  0  0  0  0  0  0  0  0  0
   -0.2684    1.0803   -1.1644 C   0  0  0  0  0  0  0  0  0  0  0  0
   -0.9410    1.8048   -0.0196 C   0  0  0  0  0  0  0  0  0  0  0  0
   -0.0452    2.1382    1.1153 C   0  0  0  0  0  0  0  0  0  0  0  0
   -0.3708    0.7288    0.9651 C   0  0  0  0  0  0  0  0  0  0  0  0
   -0.5349   -3.0742    0.1062 H   0  0  0  0  0  0  0  0  0  0  0  0
   -2.2418   -2.7071    0.4108 H   0  0  0  0  0  0  0  0  0  0  0  0
   -1.0391   -1.9355    1.4686 H   0  0  0  0  0  0  0  0  0  0  0  0
   -1.2059   -1.4584   -1.5450 H   0  0  0  0  0  0  0  0  0  0  0  0
   -2.2065   -0.5560   -0.3432 H   0  0  0  0  0  0  0  0  0  0  0  0
    1.3349   -1.6638    0.2566 H   0  0  0  0  0  0  0  0  0  0  0  0
    1.2666   -1.1530   -1.4355 H   0  0  0  0  0  0  0  0  0  0  0  0
    3.2893   -0.5522   -0.0191 H   0  0  0  0  0  0  0  0  0  0  0  0
    2.2415    0.5803    0.8983 H   0  0  0  0  0  0  0  0  0  0  0  0
    2.5883    0.8808   -0.8964 H   0  0  0  0  0  0  0  0  0  0  0  0
    0.7176    1.5401   -1.3551 H   0  0  0  0  0  0  0  0  0  0  0  0
   -0.9020    0.8998   -2.0513 H   0  0  0  0  0  0  0  0  0  0  0  0
   -2.0171    1.9581   -0.0038 H   0  0  0  0  0  0  0  0  0  0  0  0
   -0.5328    2.6934    1.9432 H   0  0  0  0  0  0  0  0  0  0  0  0
    0.9306    2.5860    0.8240 H   0  0  0  0  0  0  0  0  0  0  0  0
   -1.1231    0.2973    1.6778 H   0  0  0  0  0  0  0  0  0  0  0  0
  1  2  1  0
  2  3  1  0
  3  4  1  0
  4  5  1  0
  3  6  1  0
  6  7  1  0
  7  8  1  0
  8  9  1  0
  9  3  1  0
  9  7  1  0
  1 10  1  0
  1 11  1  0
  1 12  1  0
  2 13  1  0
  2 14  1  0
  4 15  1  0
  4 16  1  0
  5 17  1  0
  5 18  1  0
  5 19  1  0
  6 20  1  0
  6 21  1  0
  7 22  1  0
  8 23  1  0
  8 24  1  0
  9 25  1  0
M  END
