
     RDKit          3D

 21 21  0  0  0  0  0  0  0  0999 V2000
   -2.9299    0.8187   -0.7888 C   0  0  0  0  0  0  0  0  0  0  0  0
   -2.3409   -0.1254    0.2125 C   0  0  0  0  0  0  0  0  0  0  0  0
   -1.0073   -0.6977   -0.2783 C   0  0  0  0  0  0  0  0  0  0  0  0
   -0.3551   -1.6651    0.6929 C   0  0  0  0  0  0  0  0  0  0  0  0
    0.2010   -0.2926    0.4699 C   0  0  0  0  0  0  0  0  0  0  0  0
    1.4784   -0.2728   -0.1475 O   0  0  0  0  0  0  0  0  0  0  0  0
    2.4754    0.5695    0.3116 C   0  0  0  0  0  0  0  0  0  0  0  0
    3.8259    0.6494   -0.2742 C   0  0  0  0  0  0  0  0  0  0  0  0
    2.1885    1.3066    1.2943 O   0  0  0  0  0  0  0  0  0  0  0  0
   -3.9795    1.0239   -0.4681 H   0  0  0  0  0  0  0  0  0  0  0  0
   -2.3798    1.7786   -0.8382 H   0  0  0  0  0  0  0  0  0  0  0  0
   -2.9057    0.3356   -1.7935 H   0  0  0  0  0  0  0  0  0  0  0  0
   -2.1919    0.4018    1.1828 H   0  0  0  0  0  0  0  0  0  0  0  0
   -3.0538   -0.9508    0.4093 H   0  0  0  0  0  0  0  0  0  0  0  0
   -0.8883   -0.8698   -1.3519 H   0  0  0  0  0  0  0  0  0  0  0  0
    0.1136   -2.5442    0.2157 H   0  0  0  0  0  0  0  0  0  0  0  0
   -0.8791   -1.8947    1.6437 H   0  0  0  0  0  0  0  0  0  0  0  0
    0.0417    0.4027    1.3411 H   0  0  0  0  0  0  0  0  0  0  0  0
    4.5307    0.9671    0.5345 H   0  0  0  0  0  0  0  0  0  0  0  0
    3.8532    1.3888   -1.1235 H   0  0  0  0  0  0  0  0  0  0  0  0
    4.2027   -0.3299   -0.6278 H   0  0  0  0  0  0  0  0  0  0  0  0
  1  2  1  0
  2  3  1  0
  3  4  1  0
  4  5  1  0
  5  6  1  0
  6  7  1  0
  7  8  1  0
  7  9  2  0
  5  3  1  0
  1 10  1  0
  1 11  1  0
  1 12  1  0
  2 13  1  0
  2 14  1  0
  3 15  1  0
  4 16  1  0
  4 17  1  0
  5 18  1  0
  8 19  1  0
  8 20  1  0
  8 21  1  0
M  END
