
     RDKit          3D

 23 23  0  0  0  0  0  0  0  0999 V2000
   -1.4692   -1.2767   -1.0971 C   0  0  0  0  0  0  0  0  0  0  0  0
   -1.3841    0.1383   -0.6533 C   0  0  0  0  0  0  0  0  0  0  0  0
   -0.2657    0.4998    0.2550 C   0  0  0  0  0  0  0  0  0  0  0  0
   -0.2937    1.9965    0.6372 C   0  0  0  0  0  0  0  0  0  0  0  0
    0.2942   -0.4697    1.2024 C   0  0  0  0  0  0  0  0  0  0  0  0
    0.5378    0.0368    2.4908 O   0  0  0  0  0  0  0  0  0  0  0  0
    1.1330   -0.0125    0.0757 C   0  0  0  0  0  0  0  0  0  0  0  0
    1.4776   -0.8898   -1.0787 C   0  0  0  0  0  0  0  0  0  0  0  0
    2.2093    0.8179    0.4783 O   0  0  0  0  0  0  0  0  0  0  0  0
   -1.1885   -2.0427   -0.3822 H   0  0  0  0  0  0  0  0  0  0  0  0
   -0.9550   -1.4719   -2.0606 H   0  0  0  0  0  0  0  0  0  0  0  0
   -2.5595   -1.4847   -1.3325 H   0  0  0  0  0  0  0  0  0  0  0  0
   -1.4667    0.7965   -1.5437 H   0  0  0  0  0  0  0  0  0  0  0  0
   -2.3374    0.3526   -0.0791 H   0  0  0  0  0  0  0  0  0  0  0  0
    0.3957    2.1956    1.4597 H   0  0  0  0  0  0  0  0  0  0  0  0
   -1.3374    2.2964    0.8191 H   0  0  0  0  0  0  0  0  0  0  0  0
    0.0702    2.5291   -0.2648 H   0  0  0  0  0  0  0  0  0  0  0  0
   -0.1791   -1.4667    1.2526 H   0  0  0  0  0  0  0  0  0  0  0  0
   -0.2864    0.4778    2.8569 H   0  0  0  0  0  0  0  0  0  0  0  0
    1.1904   -0.4206   -2.0632 H   0  0  0  0  0  0  0  0  0  0  0  0
    2.5986   -0.9914   -1.1743 H   0  0  0  0  0  0  0  0  0  0  0  0
    1.1276   -1.9371   -0.9838 H   0  0  0  0  0  0  0  0  0  0  0  0
    2.6882    0.3265    1.1856 H   0  0  0  0  0  0  0  0  0  0  0  0
  1  2  1  0
  2  3  1  0
  3  4  1  0
  3  5  1  0
  5  6  1  0
  5  7  1  0
  7  8  1  0
  7  9  1  0
  7  3  1  0
  1 10  1  0
  1 11  1  0
  1 12  1  0
  2 13  1  0
  2 14  1  0
  4 15  1  0
  4 16  1  0
  4 17  1  0
  5 18  1  0
  6 19  1  0
  8 20  1  0
  8 21  1  0
  8 22  1  0
  9 23  1  0
M  END
