
     RDKit          3D

 21 22  0  0  0  0  0  0  0  0999 V2000
   -2.2958   -0.6948    0.1592 C   0  0  0  0  0  0  0  0  0  0  0  0
   -1.4575    0.5662    0.2421 C   0  0  0  0  0  0  0  0  0  0  0  0
   -0.0710    0.2417    0.0753 C   0  0  0  0  0  0  0  0  0  0  0  0
    0.6315   -0.6975    1.0228 C   0  0  0  0  0  0  0  0  0  0  0  0
    1.9866   -0.6550    0.3736 C   0  0  0  0  0  0  0  0  0  0  0  0
    3.0064   -1.2331    0.6141 O   0  0  0  0  0  0  0  0  0  0  0  0
    1.7831    0.3308   -0.7142 C   0  0  0  0  0  0  0  0  0  0  0  0
    0.4648   -0.1484   -1.2895 C   0  0  0  0  0  0  0  0  0  0  0  0
    0.9522    1.3856   -0.0051 C   0  0  0  0  0  0  0  0  0  0  0  0
   -3.1085   -0.6301   -0.5668 H   0  0  0  0  0  0  0  0  0  0  0  0
   -1.6662   -1.5768   -0.1224 H   0  0  0  0  0  0  0  0  0  0  0  0
   -2.7702   -0.9416    1.1461 H   0  0  0  0  0  0  0  0  0  0  0  0
   -1.8079    1.2145   -0.6118 H   0  0  0  0  0  0  0  0  0  0  0  0
   -1.6762    1.1132    1.1627 H   0  0  0  0  0  0  0  0  0  0  0  0
    0.7517   -0.2073    2.0068 H   0  0  0  0  0  0  0  0  0  0  0  0
    0.2074   -1.6975    1.0536 H   0  0  0  0  0  0  0  0  0  0  0  0
    2.5677    0.6168   -1.3507 H   0  0  0  0  0  0  0  0  0  0  0  0
    0.4321   -1.2501   -1.4145 H   0  0  0  0  0  0  0  0  0  0  0  0
    0.0709    0.4263   -2.1290 H   0  0  0  0  0  0  0  0  0  0  0  0
    0.6301    2.2315   -0.6315 H   0  0  0  0  0  0  0  0  0  0  0  0
    1.3690    1.6056    0.9791 H   0  0  0  0  0  0  0  0  0  0  0  0
  1  2  1  0
  2  3  1  0
  3  4  1  0
  4  5  1  0
  5  6  2  0
  5  7  1  0
  7  8  1  0
  7  9  1  0
  8  3  1  0
  9  3  1  0
  1 10  1  0
  1 11  1  0
  1 12  1  0
  2 13  1  0
  2 14  1  0
  4 15  1  0
  4 16  1  0
  7 17  1  0
  8 18  1  0
  8 19  1  0
  9 20  1  0
  9 21  1  0
M  END
