
     RDKit          3D

 23 24  0  0  0  0  0  0  0  0999 V2000
    2.8447    0.6423   -0.1747 C   0  0  0  0  0  0  0  0  0  0  0  0
    2.1037   -0.6582   -0.1983 C   0  0  0  0  0  0  0  0  0  0  0  0
    0.6505   -0.4564    0.0878 C   0  0  0  0  0  0  0  0  0  0  0  0
   -0.2798   -1.6240    0.1142 C   0  0  0  0  0  0  0  0  0  0  0  0
   -1.6086   -0.9340    0.4417 C   0  0  0  0  0  0  0  0  0  0  0  0
   -1.5878    0.1972   -0.5489 C   0  0  0  0  0  0  0  0  0  0  0  0
   -2.4361    1.3662   -0.1003 C   0  0  0  0  0  0  0  0  0  0  0  0
   -0.1349    0.6422   -0.4806 C   0  0  0  0  0  0  0  0  0  0  0  0
    0.3452    0.6863    0.8311 O   0  0  0  0  0  0  0  0  0  0  0  0
    3.5583    0.6676   -1.0464 H   0  0  0  0  0  0  0  0  0  0  0  0
    3.4163    0.7827    0.7644 H   0  0  0  0  0  0  0  0  0  0  0  0
    2.1978    1.5293   -0.3054 H   0  0  0  0  0  0  0  0  0  0  0  0
    2.2928   -1.2338   -1.1258 H   0  0  0  0  0  0  0  0  0  0  0  0
    2.5143   -1.2968    0.6342 H   0  0  0  0  0  0  0  0  0  0  0  0
   -0.4367   -2.0521   -0.9184 H   0  0  0  0  0  0  0  0  0  0  0  0
   -0.0378   -2.3934    0.8469 H   0  0  0  0  0  0  0  0  0  0  0  0
   -1.5228   -0.5221    1.4480 H   0  0  0  0  0  0  0  0  0  0  0  0
   -2.4664   -1.6203    0.3077 H   0  0  0  0  0  0  0  0  0  0  0  0
   -1.7889   -0.1095   -1.5771 H   0  0  0  0  0  0  0  0  0  0  0  0
   -3.5029    1.1020   -0.0376 H   0  0  0  0  0  0  0  0  0  0  0  0
   -2.3472    2.1433   -0.8888 H   0  0  0  0  0  0  0  0  0  0  0  0
   -2.0263    1.7908    0.8267 H   0  0  0  0  0  0  0  0  0  0  0  0
    0.2527    1.3505   -1.2222 H   0  0  0  0  0  0  0  0  0  0  0  0
  1  2  1  0
  2  3  1  0
  3  4  1  0
  4  5  1  0
  5  6  1  0
  6  7  1  0
  6  8  1  0
  8  9  1  0
  8  3  1  0
  9  3  1  0
  1 10  1  0
  1 11  1  0
  1 12  1  0
  2 13  1  0
  2 14  1  0
  4 15  1  0
  4 16  1  0
  5 17  1  0
  5 18  1  0
  6 19  1  0
  7 20  1  0
  7 21  1  0
  7 22  1  0
  8 23  1  0
M  END
