
     RDKit          3D

 21 22  0  0  0  0  0  0  0  0999 V2000
    2.2774    0.5944    0.0155 C   0  0  0  0  0  0  0  0  0  0  0  0
    1.1856    0.0727    0.9148 C   0  0  0  0  0  0  0  0  0  0  0  0
   -0.0481   -0.2794    0.2741 C   0  0  0  0  0  0  0  0  0  0  0  0
   -0.1455   -1.3161   -0.7788 C   0  0  0  0  0  0  0  0  0  0  0  0
   -1.5426   -1.2711   -1.0376 O   0  0  0  0  0  0  0  0  0  0  0  0
   -1.9833   -0.2533   -0.2236 C   0  0  0  0  0  0  0  0  0  0  0  0
   -1.2792   -0.5695    1.1069 C   0  0  0  0  0  0  0  0  0  0  0  0
   -0.9034    0.8344   -0.3535 C   0  0  0  0  0  0  0  0  0  0  0  0
   -0.6156    1.0704   -1.6776 O   0  0  0  0  0  0  0  0  0  0  0  0
    3.3010    0.3231    0.3944 H   0  0  0  0  0  0  0  0  0  0  0  0
    2.2631    1.7147   -0.0579 H   0  0  0  0  0  0  0  0  0  0  0  0
    2.1950    0.1841   -1.0220 H   0  0  0  0  0  0  0  0  0  0  0  0
    1.0309    0.8405    1.7203 H   0  0  0  0  0  0  0  0  0  0  0  0
    1.6049   -0.8073    1.4455 H   0  0  0  0  0  0  0  0  0  0  0  0
    0.3318   -1.0507   -1.7426 H   0  0  0  0  0  0  0  0  0  0  0  0
    0.1436   -2.3350   -0.4537 H   0  0  0  0  0  0  0  0  0  0  0  0
   -2.9930    0.0490   -0.1923 H   0  0  0  0  0  0  0  0  0  0  0  0
   -1.3463   -1.6297    1.4014 H   0  0  0  0  0  0  0  0  0  0  0  0
   -1.4764    0.1743    1.8931 H   0  0  0  0  0  0  0  0  0  0  0  0
   -1.0494    1.6888    0.3050 H   0  0  0  0  0  0  0  0  0  0  0  0
   -0.9505    1.9658   -1.9314 H   0  0  0  0  0  0  0  0  0  0  0  0
  1  2  1  0
  2  3  1  0
  3  4  1  0
  4  5  1  0
  5  6  1  0
  6  7  1  0
  6  8  1  0
  8  9  1  0
  7  3  1  0
  8  3  1  0
  1 10  1  0
  1 11  1  0
  1 12  1  0
  2 13  1  0
  2 14  1  0
  4 15  1  0
  4 16  1  0
  6 17  1  0
  7 18  1  0
  7 19  1  0
  8 20  1  0
  9 21  1  0
M  END
