
     RDKit          3D

 17 18  0  0  0  0  0  0  0  0999 V2000
   -2.3792    0.3843   -0.0885 C   0  0  0  0  0  0  0  0  0  0  0  0
   -1.3995   -0.7098    0.2429 C   0  0  0  0  0  0  0  0  0  0  0  0
    0.0006   -0.2839    0.0895 C   0  0  0  0  0  0  0  0  0  0  0  0
    0.8496   -0.8840   -0.7618 C   0  0  0  0  0  0  0  0  0  0  0  0
    2.1751   -0.2240   -0.6800 C   0  0  0  0  0  0  0  0  0  0  0  0
    2.8147   -0.4712    0.5656 O   0  0  0  0  0  0  0  0  0  0  0  0
    2.1029    0.7459    0.3347 C   0  0  0  0  0  0  0  0  0  0  0  0
    0.7025    0.7945    0.7774 C   0  0  0  0  0  0  0  0  0  0  0  0
    0.1661    1.5874    1.5855 O   0  0  0  0  0  0  0  0  0  0  0  0
   -1.9553    1.1470   -0.7595 H   0  0  0  0  0  0  0  0  0  0  0  0
   -2.7873    0.8371    0.8434 H   0  0  0  0  0  0  0  0  0  0  0  0
   -3.2537   -0.0561   -0.6180 H   0  0  0  0  0  0  0  0  0  0  0  0
   -1.6225   -1.5995   -0.3757 H   0  0  0  0  0  0  0  0  0  0  0  0
   -1.5696   -1.0158    1.3145 H   0  0  0  0  0  0  0  0  0  0  0  0
    0.6148   -1.7215   -1.4130 H   0  0  0  0  0  0  0  0  0  0  0  0
    2.8082   -0.1509   -1.5790 H   0  0  0  0  0  0  0  0  0  0  0  0
    2.7326    1.6203    0.5220 H   0  0  0  0  0  0  0  0  0  0  0  0
  1  2  1  0
  2  3  1  0
  3  4  2  0
  4  5  1  0
  5  6  1  0
  6  7  1  0
  7  8  1  0
  8  9  2  0
  8  3  1  0
  7  5  1  0
  1 10  1  0
  1 11  1  0
  1 12  1  0
  2 13  1  0
  2 14  1  0
  4 15  1  0
  5 16  1  0
  7 17  1  0
M  END
