
     RDKit          3D

 25 26  0  0  0  0  0  0  0  0999 V2000
   -2.2699    1.1390    0.4877 C   0  0  0  0  0  0  0  0  0  0  0  0
   -1.8069   -0.2705    0.6302 C   0  0  0  0  0  0  0  0  0  0  0  0
   -0.7798   -0.6799   -0.3675 C   0  0  0  0  0  0  0  0  0  0  0  0
   -0.2677   -2.0912   -0.2815 C   0  0  0  0  0  0  0  0  0  0  0  0
    1.1244   -1.5324   -0.1296 C   0  0  0  0  0  0  0  0  0  0  0  0
    0.5930   -0.1673   -0.3893 C   0  0  0  0  0  0  0  0  0  0  0  0
    1.0402    0.9963    0.4588 C   0  0  0  0  0  0  0  0  0  0  0  0
    2.5075    1.2224    0.1592 C   0  0  0  0  0  0  0  0  0  0  0  0
   -0.3600    0.1103   -1.5084 C   0  0  0  0  0  0  0  0  0  0  0  0
   -3.3618    1.2057    0.7695 H   0  0  0  0  0  0  0  0  0  0  0  0
   -1.7521    1.7451    1.2740 H   0  0  0  0  0  0  0  0  0  0  0  0
   -2.1935    1.5605   -0.5134 H   0  0  0  0  0  0  0  0  0  0  0  0
   -2.6893   -0.9599    0.5151 H   0  0  0  0  0  0  0  0  0  0  0  0
   -1.4297   -0.4719    1.6659 H   0  0  0  0  0  0  0  0  0  0  0  0
   -0.6472   -2.6619    0.5861 H   0  0  0  0  0  0  0  0  0  0  0  0
   -0.4422   -2.5972   -1.2722 H   0  0  0  0  0  0  0  0  0  0  0  0
    1.4888   -1.6949    0.8923 H   0  0  0  0  0  0  0  0  0  0  0  0
    1.8698   -1.9173   -0.8526 H   0  0  0  0  0  0  0  0  0  0  0  0
    0.9844    0.7095    1.5358 H   0  0  0  0  0  0  0  0  0  0  0  0
    0.4192    1.8938    0.2636 H   0  0  0  0  0  0  0  0  0  0  0  0
    3.0613    1.6066    1.0430 H   0  0  0  0  0  0  0  0  0  0  0  0
    2.6409    1.8959   -0.7294 H   0  0  0  0  0  0  0  0  0  0  0  0
    2.9721    0.2366   -0.0851 H   0  0  0  0  0  0  0  0  0  0  0  0
   -0.5730    1.1644   -1.6856 H   0  0  0  0  0  0  0  0  0  0  0  0
   -0.1285   -0.4420   -2.4664 H   0  0  0  0  0  0  0  0  0  0  0  0
  1  2  1  0
  2  3  1  0
  3  4  1  0
  4  5  1  0
  5  6  1  0
  6  7  1  0
  7  8  1  0
  6  9  1  0
  6  3  1  0
  9  3  1  0
  1 10  1  0
  1 11  1  0
  1 12  1  0
  2 13  1  0
  2 14  1  0
  4 15  1  0
  4 16  1  0
  5 17  1  0
  5 18  1  0
  7 19  1  0
  7 20  1  0
  8 21  1  0
  8 22  1  0
  8 23  1  0
  9 24  1  0
  9 25  1  0
M  END
