
     RDKit          3D

 24 24  0  0  0  0  0  0  0  0999 V2000
    2.7978    0.6660    0.1424 C   0  0  0  0  0  0  0  0  0  0  0  0
    1.8959   -0.4701   -0.2639 C   0  0  0  0  0  0  0  0  0  0  0  0
    0.4429   -0.1974    0.0446 C   0  0  0  0  0  0  0  0  0  0  0  0
   -0.3321   -1.4219   -0.4183 C   0  0  0  0  0  0  0  0  0  0  0  0
   -1.7968   -1.1775   -0.2992 C   0  0  0  0  0  0  0  0  0  0  0  0
   -2.1076    0.0630    0.4742 C   0  0  0  0  0  0  0  0  0  0  0  0
   -1.4756    1.2951   -0.1037 C   0  0  0  0  0  0  0  0  0  0  0  0
   -0.0928    0.9936   -0.6820 C   0  0  0  0  0  0  0  0  0  0  0  0
    3.8491    0.2766    0.0519 H   0  0  0  0  0  0  0  0  0  0  0  0
    2.6794    1.5365   -0.5313 H   0  0  0  0  0  0  0  0  0  0  0  0
    2.6075    0.9271    1.1834 H   0  0  0  0  0  0  0  0  0  0  0  0
    2.1877   -1.3454    0.3876 H   0  0  0  0  0  0  0  0  0  0  0  0
    2.0295   -0.7220   -1.3367 H   0  0  0  0  0  0  0  0  0  0  0  0
    0.3224   -0.0246    1.1250 H   0  0  0  0  0  0  0  0  0  0  0  0
    0.0049   -2.3391    0.1352 H   0  0  0  0  0  0  0  0  0  0  0  0
   -0.0834   -1.5383   -1.5114 H   0  0  0  0  0  0  0  0  0  0  0  0
   -2.2913   -2.0326    0.1911 H   0  0  0  0  0  0  0  0  0  0  0  0
   -2.2828   -1.0845   -1.3066 H   0  0  0  0  0  0  0  0  0  0  0  0
   -1.8489   -0.0988    1.5496 H   0  0  0  0  0  0  0  0  0  0  0  0
   -3.2167    0.2087    0.4525 H   0  0  0  0  0  0  0  0  0  0  0  0
   -1.4165    2.0642    0.6918 H   0  0  0  0  0  0  0  0  0  0  0  0
   -2.1621    1.6904   -0.8800 H   0  0  0  0  0  0  0  0  0  0  0  0
    0.5190    1.9079   -0.4751 H   0  0  0  0  0  0  0  0  0  0  0  0
   -0.2297    0.8232   -1.7709 H   0  0  0  0  0  0  0  0  0  0  0  0
  1  2  1  0
  2  3  1  0
  3  4  1  0
  4  5  1  0
  5  6  1  0
  6  7  1  0
  7  8  1  0
  8  3  1  0
  1  9  1  0
  1 10  1  0
  1 11  1  0
  2 12  1  0
  2 13  1  0
  3 14  1  0
  4 15  1  0
  4 16  1  0
  5 17  1  0
  5 18  1  0
  6 19  1  0
  6 20  1  0
  7 21  1  0
  7 22  1  0
  8 23  1  0
  8 24  1  0
M  END
