
     RDKit          3D

 25 25  0  0  0  0  0  0  0  0999 V2000
   -2.5264    0.3858   -0.8315 C   0  0  0  0  0  0  0  0  0  0  0  0
   -1.8837    0.2266    0.5040 C   0  0  0  0  0  0  0  0  0  0  0  0
   -0.4947   -0.3456    0.4097 C   0  0  0  0  0  0  0  0  0  0  0  0
   -0.4951   -1.7283   -0.2464 C   0  0  0  0  0  0  0  0  0  0  0  0
    0.0437   -0.4225    1.7950 O   0  0  0  0  0  0  0  0  0  0  0  0
    0.7030    0.3077    0.8155 C   0  0  0  0  0  0  0  0  0  0  0  0
    0.7245    1.8301    0.9249 C   0  0  0  0  0  0  0  0  0  0  0  0
    2.0191   -0.2787    0.4019 C   0  0  0  0  0  0  0  0  0  0  0  0
    2.1601   -0.3476   -1.1054 C   0  0  0  0  0  0  0  0  0  0  0  0
   -3.2729    1.2293   -0.8187 H   0  0  0  0  0  0  0  0  0  0  0  0
   -1.7539    0.6882   -1.5721 H   0  0  0  0  0  0  0  0  0  0  0  0
   -3.0376   -0.5314   -1.1976 H   0  0  0  0  0  0  0  0  0  0  0  0
   -1.9349    1.1483    1.1154 H   0  0  0  0  0  0  0  0  0  0  0  0
   -2.4948   -0.5363    1.0704 H   0  0  0  0  0  0  0  0  0  0  0  0
   -1.0405   -2.4587    0.3887 H   0  0  0  0  0  0  0  0  0  0  0  0
    0.5015   -2.1202   -0.4160 H   0  0  0  0  0  0  0  0  0  0  0  0
   -1.0266   -1.6477   -1.1989 H   0  0  0  0  0  0  0  0  0  0  0  0
   -0.0283    2.2305    0.2168 H   0  0  0  0  0  0  0  0  0  0  0  0
    1.7100    2.2542    0.6907 H   0  0  0  0  0  0  0  0  0  0  0  0
    0.4422    2.1021    1.9484 H   0  0  0  0  0  0  0  0  0  0  0  0
    2.8212    0.3924    0.7704 H   0  0  0  0  0  0  0  0  0  0  0  0
    2.2197   -1.2663    0.8689 H   0  0  0  0  0  0  0  0  0  0  0  0
    2.9348    0.3807   -1.4810 H   0  0  0  0  0  0  0  0  0  0  0  0
    2.5214   -1.3428   -1.4520 H   0  0  0  0  0  0  0  0  0  0  0  0
    1.1882   -0.1499   -1.6011 H   0  0  0  0  0  0  0  0  0  0  0  0
  1  2  1  0
  2  3  1  0
  3  4  1  0
  3  5  1  0
  5  6  1  0
  6  7  1  0
  6  8  1  0
  8  9  1  0
  6  3  1  0
  1 10  1  0
  1 11  1  0
  1 12  1  0
  2 13  1  0
  2 14  1  0
  4 15  1  0
  4 16  1  0
  4 17  1  0
  7 18  1  0
  7 19  1  0
  7 20  1  0
  8 21  1  0
  8 22  1  0
  9 23  1  0
  9 24  1  0
  9 25  1  0
M  END
