
     RDKit          3D

 19 20  0  0  0  0  0  0  0  0999 V2000
   -2.0114   -0.1347    0.9013 C   0  0  0  0  0  0  0  0  0  0  0  0
   -1.0178    0.7168    0.1461 C   0  0  0  0  0  0  0  0  0  0  0  0
   -0.2166   -0.0512   -0.8456 C   0  0  0  0  0  0  0  0  0  0  0  0
    0.7863    0.7019   -1.6360 C   0  0  0  0  0  0  0  0  0  0  0  0
    1.2308   -0.3074   -0.6729 C   0  0  0  0  0  0  0  0  0  0  0  0
    1.9546    0.0839    0.5931 C   0  0  0  0  0  0  0  0  0  0  0  0
    1.1208   -1.6497   -1.0276 O   0  0  0  0  0  0  0  0  0  0  0  0
   -0.2726   -1.5076   -0.9400 C   0  0  0  0  0  0  0  0  0  0  0  0
   -1.1651   -2.3935   -0.9494 O   0  0  0  0  0  0  0  0  0  0  0  0
   -2.4933   -0.8040    0.1312 H   0  0  0  0  0  0  0  0  0  0  0  0
   -2.8440    0.4582    1.3223 H   0  0  0  0  0  0  0  0  0  0  0  0
   -1.5066   -0.7072    1.6893 H   0  0  0  0  0  0  0  0  0  0  0  0
   -1.6386    1.4596   -0.4368 H   0  0  0  0  0  0  0  0  0  0  0  0
   -0.3963    1.3344    0.8210 H   0  0  0  0  0  0  0  0  0  0  0  0
    0.9382    1.7675   -1.3684 H   0  0  0  0  0  0  0  0  0  0  0  0
    0.9146    0.5200   -2.7256 H   0  0  0  0  0  0  0  0  0  0  0  0
    3.0288    0.2572    0.2885 H   0  0  0  0  0  0  0  0  0  0  0  0
    1.9788   -0.7668    1.2955 H   0  0  0  0  0  0  0  0  0  0  0  0
    1.6094    1.0225    1.0227 H   0  0  0  0  0  0  0  0  0  0  0  0
  1  2  1  0
  2  3  1  0
  3  4  1  0
  4  5  1  0
  5  6  1  0
  5  7  1  0
  7  8  1  0
  8  9  2  0
  5  3  1  0
  8  3  1  0
  1 10  1  0
  1 11  1  0
  1 12  1  0
  2 13  1  0
  2 14  1  0
  4 15  1  0
  4 16  1  0
  6 17  1  0
  6 18  1  0
  6 19  1  0
M  END
