
     RDKit          3D

 23 24  0  0  0  0  0  0  0  0999 V2000
    2.4177    0.6317   -0.3982 C   0  0  0  0  0  0  0  0  0  0  0  0
    1.4140   -0.3585   -0.9027 C   0  0  0  0  0  0  0  0  0  0  0  0
    0.1960   -0.4765   -0.0443 C   0  0  0  0  0  0  0  0  0  0  0  0
    0.4595   -0.9177    1.4017 C   0  0  0  0  0  0  0  0  0  0  0  0
   -1.0360   -0.9560   -0.7179 C   0  0  0  0  0  0  0  0  0  0  0  0
   -2.3796   -0.8768   -0.0502 C   0  0  0  0  0  0  0  0  0  0  0  0
   -2.0110    0.2436    0.6844 O   0  0  0  0  0  0  0  0  0  0  0  0
   -0.9548    0.4316   -0.1957 C   0  0  0  0  0  0  0  0  0  0  0  0
   -0.9416    1.6150   -1.1078 C   0  0  0  0  0  0  0  0  0  0  0  0
    2.3945    0.7266    0.7190 H   0  0  0  0  0  0  0  0  0  0  0  0
    3.4700    0.3506   -0.6942 H   0  0  0  0  0  0  0  0  0  0  0  0
    2.2666    1.6565   -0.7980 H   0  0  0  0  0  0  0  0  0  0  0  0
    1.9368   -1.3213   -1.0693 H   0  0  0  0  0  0  0  0  0  0  0  0
    1.0932   -0.0089   -1.9215 H   0  0  0  0  0  0  0  0  0  0  0  0
    0.6366    0.0056    1.9923 H   0  0  0  0  0  0  0  0  0  0  0  0
    1.3079   -1.6051    1.4690 H   0  0  0  0  0  0  0  0  0  0  0  0
   -0.4502   -1.3862    1.8401 H   0  0  0  0  0  0  0  0  0  0  0  0
   -1.0421   -1.0683   -1.8079 H   0  0  0  0  0  0  0  0  0  0  0  0
   -2.6584   -1.7625    0.5575 H   0  0  0  0  0  0  0  0  0  0  0  0
   -3.2134   -0.6377   -0.7416 H   0  0  0  0  0  0  0  0  0  0  0  0
   -0.2547    2.3932   -0.7154 H   0  0  0  0  0  0  0  0  0  0  0  0
   -1.9714    2.0469   -1.1102 H   0  0  0  0  0  0  0  0  0  0  0  0
   -0.6796    1.2740   -2.1234 H   0  0  0  0  0  0  0  0  0  0  0  0
  1  2  1  0
  2  3  1  0
  3  4  1  0
  3  5  1  0
  5  6  1  0
  6  7  1  0
  7  8  1  0
  8  9  1  0
  8  3  1  0
  8  5  1  0
  1 10  1  0
  1 11  1  0
  1 12  1  0
  2 13  1  0
  2 14  1  0
  4 15  1  0
  4 16  1  0
  4 17  1  0
  5 18  1  0
  6 19  1  0
  6 20  1  0
  9 21  1  0
  9 22  1  0
  9 23  1  0
M  END
