
     RDKit          3D

 22 22  0  0  0  0  0  0  0  0999 V2000
   -2.5762   -0.6190   -0.1725 C   0  0  0  0  0  0  0  0  0  0  0  0
   -1.5945    0.3888    0.4392 C   0  0  0  0  0  0  0  0  0  0  0  0
   -0.2225   -0.2237    0.3035 C   0  0  0  0  0  0  0  0  0  0  0  0
    0.1679   -0.4971   -1.1456 C   0  0  0  0  0  0  0  0  0  0  0  0
    0.8809    0.4995   -0.3539 C   0  0  0  0  0  0  0  0  0  0  0  0
    0.6761    1.9734   -0.7280 C   0  0  0  0  0  0  0  0  0  0  0  0
    2.1673    0.2383    0.1063 O   0  0  0  0  0  0  0  0  0  0  0  0
    2.5314   -1.0985   -0.0319 C   0  0  0  0  0  0  0  0  0  0  0  0
   -2.6293   -1.4717    0.5476 H   0  0  0  0  0  0  0  0  0  0  0  0
   -2.1198   -1.0234   -1.0949 H   0  0  0  0  0  0  0  0  0  0  0  0
   -3.5559   -0.1370   -0.3325 H   0  0  0  0  0  0  0  0  0  0  0  0
   -1.8675    0.6461    1.4603 H   0  0  0  0  0  0  0  0  0  0  0  0
   -1.6503    1.2860   -0.2427 H   0  0  0  0  0  0  0  0  0  0  0  0
   -0.0159   -0.9982    1.0687 H   0  0  0  0  0  0  0  0  0  0  0  0
   -0.4881   -0.1122   -1.9557 H   0  0  0  0  0  0  0  0  0  0  0  0
    0.4799   -1.5330   -1.3181 H   0  0  0  0  0  0  0  0  0  0  0  0
    1.6309    2.3497   -1.1475 H   0  0  0  0  0  0  0  0  0  0  0  0
    0.4103    2.5736    0.1835 H   0  0  0  0  0  0  0  0  0  0  0  0
   -0.1232    2.0271   -1.4897 H   0  0  0  0  0  0  0  0  0  0  0  0
    2.4919   -1.3697   -1.0952 H   0  0  0  0  0  0  0  0  0  0  0  0
    3.5657   -1.2109    0.3477 H   0  0  0  0  0  0  0  0  0  0  0  0
    1.8410   -1.6883    0.5995 H   0  0  0  0  0  0  0  0  0  0  0  0
  1  2  1  0
  2  3  1  0
  3  4  1  0
  4  5  1  0
  5  6  1  0
  5  7  1  0
  7  8  1  0
  5  3  1  0
  1  9  1  0
  1 10  1  0
  1 11  1  0
  2 12  1  0
  2 13  1  0
  3 14  1  0
  4 15  1  0
  4 16  1  0
  6 17  1  0
  6 18  1  0
  6 19  1  0
  8 20  1  0
  8 21  1  0
  8 22  1  0
M  END
