
     RDKit          3D

 23 23  0  0  0  0  0  0  0  0999 V2000
   -2.5916    0.2914    0.9799 C   0  0  0  0  0  0  0  0  0  0  0  0
   -1.9757   -0.7774    0.1094 C   0  0  0  0  0  0  0  0  0  0  0  0
   -0.5928   -0.4557   -0.2980 C   0  0  0  0  0  0  0  0  0  0  0  0
    0.3302   -1.3316    0.0883 C   0  0  0  0  0  0  0  0  0  0  0  0
    1.7967   -1.2345   -0.1965 C   0  0  0  0  0  0  0  0  0  0  0  0
    2.3027   -0.0165    0.5142 C   0  0  0  0  0  0  0  0  0  0  0  0
    1.9008    1.2343   -0.1269 C   0  0  0  0  0  0  0  0  0  0  0  0
    0.7868    1.5464   -0.7710 C   0  0  0  0  0  0  0  0  0  0  0  0
   -0.4189    0.7831   -1.0728 C   0  0  0  0  0  0  0  0  0  0  0  0
   -1.8232    0.6047    1.7081 H   0  0  0  0  0  0  0  0  0  0  0  0
   -2.9815    1.1437    0.3881 H   0  0  0  0  0  0  0  0  0  0  0  0
   -3.4771   -0.1707    1.4698 H   0  0  0  0  0  0  0  0  0  0  0  0
   -2.0098   -1.7234    0.6420 H   0  0  0  0  0  0  0  0  0  0  0  0
   -2.6444   -0.8623   -0.7967 H   0  0  0  0  0  0  0  0  0  0  0  0
   -0.0175   -2.1939    0.6623 H   0  0  0  0  0  0  0  0  0  0  0  0
    2.0073   -1.1121   -1.2715 H   0  0  0  0  0  0  0  0  0  0  0  0
    2.2689   -2.1510    0.1494 H   0  0  0  0  0  0  0  0  0  0  0  0
    2.0055    0.0128    1.5876 H   0  0  0  0  0  0  0  0  0  0  0  0
    3.4287   -0.1159    0.5409 H   0  0  0  0  0  0  0  0  0  0  0  0
    2.6535    2.0264   -0.0517 H   0  0  0  0  0  0  0  0  0  0  0  0
    0.7772    2.5650   -1.1412 H   0  0  0  0  0  0  0  0  0  0  0  0
   -1.3173    1.4392   -0.9566 H   0  0  0  0  0  0  0  0  0  0  0  0
   -0.4084    0.4984   -2.1572 H   0  0  0  0  0  0  0  0  0  0  0  0
  1  2  1  0
  2  3  1  0
  3  4  2  0
  4  5  1  0
  5  6  1  0
  6  7  1  0
  7  8  2  0
  8  9  1  0
  9  3  1  0
  1 10  1  0
  1 11  1  0
  1 12  1  0
  2 13  1  0
  2 14  1  0
  4 15  1  0
  5 16  1  0
  5 17  1  0
  6 18  1  0
  6 19  1  0
  7 20  1  0
  8 21  1  0
  9 22  1  0
  9 23  1  0
M  END
