
     RDKit          3D

 23 24  0  0  0  0  0  0  0  0999 V2000
    2.3976   -1.1678    0.5279 C   0  0  0  0  0  0  0  0  0  0  0  0
    2.0059    0.2613    0.1916 C   0  0  0  0  0  0  0  0  0  0  0  0
    0.7426    0.1646   -0.6635 C   0  0  0  0  0  0  0  0  0  0  0  0
    0.2042    1.5454   -1.0973 C   0  0  0  0  0  0  0  0  0  0  0  0
   -0.5280    0.6179   -0.2325 C   0  0  0  0  0  0  0  0  0  0  0  0
   -1.0221    0.9064    1.1138 C   0  0  0  0  0  0  0  0  0  0  0  0
   -2.3249    0.9940    0.5669 O   0  0  0  0  0  0  0  0  0  0  0  0
   -1.8700    0.1083   -0.4417 C   0  0  0  0  0  0  0  0  0  0  0  0
   -2.1872   -1.3125   -0.0738 C   0  0  0  0  0  0  0  0  0  0  0  0
    1.6758   -1.6126    1.2088 H   0  0  0  0  0  0  0  0  0  0  0  0
    2.3285   -1.7324   -0.4417 H   0  0  0  0  0  0  0  0  0  0  0  0
    3.4502   -1.2442    0.8546 H   0  0  0  0  0  0  0  0  0  0  0  0
    1.8329    0.8566    1.1047 H   0  0  0  0  0  0  0  0  0  0  0  0
    2.8556    0.6871   -0.3801 H   0  0  0  0  0  0  0  0  0  0  0  0
    0.8927   -0.5282   -1.5192 H   0  0  0  0  0  0  0  0  0  0  0  0
    0.6333    2.4354   -0.5961 H   0  0  0  0  0  0  0  0  0  0  0  0
   -0.1595    1.6412   -2.1388 H   0  0  0  0  0  0  0  0  0  0  0  0
   -0.6472    1.8996    1.4872 H   0  0  0  0  0  0  0  0  0  0  0  0
   -1.0239    0.1214    1.8763 H   0  0  0  0  0  0  0  0  0  0  0  0
   -2.3488    0.3601   -1.4189 H   0  0  0  0  0  0  0  0  0  0  0  0
   -3.2689   -1.4839   -0.2971 H   0  0  0  0  0  0  0  0  0  0  0  0
   -2.0877   -1.5080    1.0237 H   0  0  0  0  0  0  0  0  0  0  0  0
   -1.5510   -2.0098   -0.6548 H   0  0  0  0  0  0  0  0  0  0  0  0
  1  2  1  0
  2  3  1  0
  3  4  1  0
  4  5  1  0
  5  6  1  0
  6  7  1  0
  7  8  1  0
  8  9  1  0
  5  3  1  0
  8  5  1  0
  1 10  1  0
  1 11  1  0
  1 12  1  0
  2 13  1  0
  2 14  1  0
  3 15  1  0
  4 16  1  0
  4 17  1  0
  6 18  1  0
  6 19  1  0
  8 20  1  0
  9 21  1  0
  9 22  1  0
  9 23  1  0
M  END
