
     RDKit          3D

 21 21  0  0  0  0  0  0  0  0999 V2000
   -1.8635    0.6704   -1.7255 C   0  0  0  0  0  0  0  0  0  0  0  0
   -0.9575    0.9013   -0.6100 C   0  0  0  0  0  0  0  0  0  0  0  0
   -0.0889   -0.3422   -0.1363 C   0  0  0  0  0  0  0  0  0  0  0  0
    0.6988   -0.0693    0.8427 C   0  0  0  0  0  0  0  0  0  0  0  0
    1.5366    0.2115    1.9159 C   0  0  0  0  0  0  0  0  0  0  0  0
    2.4059    0.4918    3.0509 C   0  0  0  0  0  0  0  0  0  0  0  0
    1.8656    1.6106    3.7621 O   0  0  0  0  0  0  0  0  0  0  0  0
    0.1559   -1.4152   -1.2013 C   0  0  0  0  0  0  0  0  0  0  0  0
   -0.9163   -1.6241   -0.1526 C   0  0  0  0  0  0  0  0  0  0  0  0
   -1.9432   -0.3058   -2.1627 H   0  0  0  0  0  0  0  0  0  0  0  0
   -1.5454    1.3471   -2.6037 H   0  0  0  0  0  0  0  0  0  0  0  0
   -2.9279    1.0143   -1.5217 H   0  0  0  0  0  0  0  0  0  0  0  0
   -0.3254    1.7924   -0.6968 H   0  0  0  0  0  0  0  0  0  0  0  0
   -1.5424    1.0869    0.3586 H   0  0  0  0  0  0  0  0  0  0  0  0
    3.4178    0.8503    2.6516 H   0  0  0  0  0  0  0  0  0  0  0  0
    2.5201   -0.3590    3.7037 H   0  0  0  0  0  0  0  0  0  0  0  0
    1.3946    1.3294    4.5892 H   0  0  0  0  0  0  0  0  0  0  0  0
    1.0308   -2.0612   -1.1578 H   0  0  0  0  0  0  0  0  0  0  0  0
   -0.1935   -1.2120   -2.2571 H   0  0  0  0  0  0  0  0  0  0  0  0
   -0.7686   -2.3224    0.6926 H   0  0  0  0  0  0  0  0  0  0  0  0
   -1.9536   -1.5949   -0.5413 H   0  0  0  0  0  0  0  0  0  0  0  0
  1  2  1  0
  2  3  1  0
  3  4  1  0
  4  5  3  0
  5  6  1  0
  6  7  1  0
  3  8  1  0
  8  9  1  0
  9  3  1  0
  1 10  1  0
  1 11  1  0
  1 12  1  0
  2 13  1  0
  2 14  1  0
  6 15  1  0
  6 16  1  0
  7 17  1  0
  8 18  1  0
  8 19  1  0
  9 20  1  0
  9 21  1  0
M  END
