
     RDKit          3D

 19 19  0  0  0  0  0  0  0  0999 V2000
    2.4038   -0.3555    0.0022 C   0  0  0  0  0  0  0  0  0  0  0  0
    1.3498    0.7084    0.0716 C   0  0  0  0  0  0  0  0  0  0  0  0
    0.0171    0.2432   -0.4525 C   0  0  0  0  0  0  0  0  0  0  0  0
   -0.4283   -0.9185    0.3742 C   0  0  0  0  0  0  0  0  0  0  0  0
   -1.5708   -0.6249    1.1473 O   0  0  0  0  0  0  0  0  0  0  0  0
   -2.5777   -0.2829    0.2544 C   0  0  0  0  0  0  0  0  0  0  0  0
   -2.3001    1.0743   -0.1331 O   0  0  0  0  0  0  0  0  0  0  0  0
   -0.9705    1.3518   -0.4545 C   0  0  0  0  0  0  0  0  0  0  0  0
   -0.6756    2.5404   -0.7322 O   0  0  0  0  0  0  0  0  0  0  0  0
    2.9523   -0.3978    0.9403 H   0  0  0  0  0  0  0  0  0  0  0  0
    3.1037   -0.1892   -0.8376 H   0  0  0  0  0  0  0  0  0  0  0  0
    1.9398   -1.3526   -0.1615 H   0  0  0  0  0  0  0  0  0  0  0  0
    1.7169    1.5925   -0.4815 H   0  0  0  0  0  0  0  0  0  0  0  0
    1.2448    1.0211    1.1288 H   0  0  0  0  0  0  0  0  0  0  0  0
    0.1877   -0.0846   -1.5182 H   0  0  0  0  0  0  0  0  0  0  0  0
    0.3497   -1.2350    1.1045 H   0  0  0  0  0  0  0  0  0  0  0  0
   -0.6965   -1.7753   -0.2804 H   0  0  0  0  0  0  0  0  0  0  0  0
   -2.4668   -0.9194   -0.6445 H   0  0  0  0  0  0  0  0  0  0  0  0
   -3.5795   -0.3959    0.6727 H   0  0  0  0  0  0  0  0  0  0  0  0
  1  2  1  0
  2  3  1  0
  3  4  1  0
  4  5  1  0
  5  6  1  0
  6  7  1  0
  7  8  1  0
  8  9  2  0
  8  3  1  0
  1 10  1  0
  1 11  1  0
  1 12  1  0
  2 13  1  0
  2 14  1  0
  3 15  1  0
  4 16  1  0
  4 17  1  0
  6 18  1  0
  6 19  1  0
M  END
