
     RDKit          3D

 25 25  0  0  0  0  0  0  0  0999 V2000
    2.1260    0.7159   -0.2470 C   0  0  0  0  0  0  0  0  0  0  0  0
    1.1552   -0.3511   -0.6030 C   0  0  0  0  0  0  0  0  0  0  0  0
   -0.0178   -0.4942    0.3295 C   0  0  0  0  0  0  0  0  0  0  0  0
    0.3565   -0.8084    1.7277 C   0  0  0  0  0  0  0  0  0  0  0  0
   -0.7939   -1.7161   -0.2085 C   0  0  0  0  0  0  0  0  0  0  0  0
   -1.3877   -1.0867   -1.4250 C   0  0  0  0  0  0  0  0  0  0  0  0
   -1.5584    0.2329   -1.2342 C   0  0  0  0  0  0  0  0  0  0  0  0
   -1.0750    0.5413    0.1456 C   0  0  0  0  0  0  0  0  0  0  0  0
   -0.6426    1.9547    0.3106 C   0  0  0  0  0  0  0  0  0  0  0  0
    2.1737    1.4531   -1.0746 H   0  0  0  0  0  0  0  0  0  0  0  0
    3.1642    0.3113   -0.1423 H   0  0  0  0  0  0  0  0  0  0  0  0
    1.8814    1.2868    0.6692 H   0  0  0  0  0  0  0  0  0  0  0  0
    1.7134   -1.3114   -0.7182 H   0  0  0  0  0  0  0  0  0  0  0  0
    0.7165   -0.1537   -1.6176 H   0  0  0  0  0  0  0  0  0  0  0  0
    0.8342   -1.8255    1.7518 H   0  0  0  0  0  0  0  0  0  0  0  0
    0.9705   -0.0441    2.2242 H   0  0  0  0  0  0  0  0  0  0  0  0
   -0.5729   -0.9087    2.3240 H   0  0  0  0  0  0  0  0  0  0  0  0
   -0.1060   -2.5251   -0.4311 H   0  0  0  0  0  0  0  0  0  0  0  0
   -1.6106   -1.9834    0.4833 H   0  0  0  0  0  0  0  0  0  0  0  0
   -1.6522   -1.5769   -2.3325 H   0  0  0  0  0  0  0  0  0  0  0  0
   -1.9583    0.9685   -1.9054 H   0  0  0  0  0  0  0  0  0  0  0  0
   -1.9125    0.2960    0.8347 H   0  0  0  0  0  0  0  0  0  0  0  0
    0.0329    2.3288   -0.4496 H   0  0  0  0  0  0  0  0  0  0  0  0
   -0.2672    2.1035    1.3398 H   0  0  0  0  0  0  0  0  0  0  0  0
   -1.5695    2.5925    0.2485 H   0  0  0  0  0  0  0  0  0  0  0  0
  1  2  1  0
  2  3  1  0
  3  4  1  0
  3  5  1  0
  5  6  1  0
  6  7  2  0
  7  8  1  0
  8  9  1  0
  8  3  1  0
  1 10  1  0
  1 11  1  0
  1 12  1  0
  2 13  1  0
  2 14  1  0
  4 15  1  0
  4 16  1  0
  4 17  1  0
  5 18  1  0
  5 19  1  0
  6 20  1  0
  7 21  1  0
  8 22  1  0
  9 23  1  0
  9 24  1  0
  9 25  1  0
M  END
