
     RDKit          3D

 19 20  0  0  0  0  0  0  0  0999 V2000
   -2.0756    0.9173   -0.3337 C   0  0  0  0  0  0  0  0  0  0  0  0
   -1.9003   -0.3237    0.4898 C   0  0  0  0  0  0  0  0  0  0  0  0
   -0.5204   -0.8284    0.5890 C   0  0  0  0  0  0  0  0  0  0  0  0
    0.3089   -1.2479   -0.5428 C   0  0  0  0  0  0  0  0  0  0  0  0
    1.6717   -1.4458   -0.3414 O   0  0  0  0  0  0  0  0  0  0  0  0
    1.9299   -0.2875    0.3392 C   0  0  0  0  0  0  0  0  0  0  0  0
    2.8848    0.6502   -0.2371 C   0  0  0  0  0  0  0  0  0  0  0  0
    3.4315    0.4049   -1.2898 O   0  0  0  0  0  0  0  0  0  0  0  0
    0.5124    0.1221    0.0642 C   0  0  0  0  0  0  0  0  0  0  0  0
   -1.6323    0.8878   -1.3234 H   0  0  0  0  0  0  0  0  0  0  0  0
   -1.6977    1.8194    0.1879 H   0  0  0  0  0  0  0  0  0  0  0  0
   -3.1809    1.0774   -0.4439 H   0  0  0  0  0  0  0  0  0  0  0  0
   -2.5937   -1.1316    0.1781 H   0  0  0  0  0  0  0  0  0  0  0  0
   -2.2399   -0.0484    1.5327 H   0  0  0  0  0  0  0  0  0  0  0  0
   -0.2684   -1.3400    1.5619 H   0  0  0  0  0  0  0  0  0  0  0  0
   -0.0749   -1.3509   -1.5660 H   0  0  0  0  0  0  0  0  0  0  0  0
    2.0585   -0.4110    1.4545 H   0  0  0  0  0  0  0  0  0  0  0  0
    3.1226    1.5749    0.2584 H   0  0  0  0  0  0  0  0  0  0  0  0
    0.2638    0.9612   -0.5776 H   0  0  0  0  0  0  0  0  0  0  0  0
  1  2  1  0
  2  3  1  0
  3  4  1  0
  4  5  1  0
  5  6  1  0
  6  7  1  0
  7  8  2  0
  6  9  1  0
  9  3  1  0
  9  4  1  0
  1 10  1  0
  1 11  1  0
  1 12  1  0
  2 13  1  0
  2 14  1  0
  3 15  1  0
  4 16  1  0
  6 17  1  0
  7 18  1  0
  9 19  1  0
M  END
