
     RDKit          3D

 21 22  0  0  0  0  0  0  0  0999 V2000
    2.5027   -0.5058    0.1784 C   0  0  0  0  0  0  0  0  0  0  0  0
    1.4022   -0.3182   -0.8584 C   0  0  0  0  0  0  0  0  0  0  0  0
    0.3806    0.5924   -0.2489 C   0  0  0  0  0  0  0  0  0  0  0  0
   -0.7713    0.8744   -1.1531 C   0  0  0  0  0  0  0  0  0  0  0  0
   -0.7147    1.3155   -2.2628 O   0  0  0  0  0  0  0  0  0  0  0  0
   -1.9158    0.4805   -0.3412 C   0  0  0  0  0  0  0  0  0  0  0  0
   -1.4389   -0.8925    0.1554 C   0  0  0  0  0  0  0  0  0  0  0  0
   -0.3862   -0.0553    0.8721 C   0  0  0  0  0  0  0  0  0  0  0  0
   -1.5196    0.9665    1.0580 C   0  0  0  0  0  0  0  0  0  0  0  0
    2.7425    0.5018    0.6193 H   0  0  0  0  0  0  0  0  0  0  0  0
    3.4380   -0.8813   -0.2622 H   0  0  0  0  0  0  0  0  0  0  0  0
    2.1103   -1.1457    0.9953 H   0  0  0  0  0  0  0  0  0  0  0  0
    1.7779    0.0190   -1.8273 H   0  0  0  0  0  0  0  0  0  0  0  0
    0.9411   -1.3204   -1.0308 H   0  0  0  0  0  0  0  0  0  0  0  0
    0.8190    1.5712    0.0184 H   0  0  0  0  0  0  0  0  0  0  0  0
   -2.9119    0.5842   -0.6500 H   0  0  0  0  0  0  0  0  0  0  0  0
   -1.0668   -1.4537   -0.7217 H   0  0  0  0  0  0  0  0  0  0  0  0
   -2.1433   -1.4069    0.8133 H   0  0  0  0  0  0  0  0  0  0  0  0
    0.0931   -0.4356    1.7246 H   0  0  0  0  0  0  0  0  0  0  0  0
   -2.2413    0.6981    1.8409 H   0  0  0  0  0  0  0  0  0  0  0  0
   -1.0976    1.9809    1.0808 H   0  0  0  0  0  0  0  0  0  0  0  0
  1  2  1  0
  2  3  1  0
  3  4  1  0
  4  5  2  0
  4  6  1  0
  6  7  1  0
  7  8  1  0
  8  9  1  0
  8  3  1  0
  9  6  1  0
  1 10  1  0
  1 11  1  0
  1 12  1  0
  2 13  1  0
  2 14  1  0
  3 15  1  0
  6 16  1  0
  7 17  1  0
  7 18  1  0
  8 19  1  0
  9 20  1  0
  9 21  1  0
M  END
