
     RDKit          3D

 23 23  0  0  0  0  0  0  0  0999 V2000
    2.1933   -1.1461   -0.3402 C   0  0  0  0  0  0  0  0  0  0  0  0
    1.4864    0.1556   -0.6484 C   0  0  0  0  0  0  0  0  0  0  0  0
    0.4900    0.5261    0.4173 C   0  0  0  0  0  0  0  0  0  0  0  0
   -0.1797    1.8438    0.0386 C   0  0  0  0  0  0  0  0  0  0  0  0
   -1.2199    0.9994   -0.6722 C   0  0  0  0  0  0  0  0  0  0  0  0
   -0.8567   -0.0921    0.3282 C   0  0  0  0  0  0  0  0  0  0  0  0
   -1.0181   -1.4405   -0.2326 C   0  0  0  0  0  0  0  0  0  0  0  0
   -1.6187    0.1421    1.6036 C   0  0  0  0  0  0  0  0  0  0  0  0
   -2.8371    0.2002    1.4902 O   0  0  0  0  0  0  0  0  0  0  0  0
    2.1776   -1.8586   -1.1711 H   0  0  0  0  0  0  0  0  0  0  0  0
    3.2753   -0.9774   -0.0680 H   0  0  0  0  0  0  0  0  0  0  0  0
    1.7600   -1.6570    0.5522 H   0  0  0  0  0  0  0  0  0  0  0  0
    2.2815    0.9425   -0.7065 H   0  0  0  0  0  0  0  0  0  0  0  0
    1.0319    0.1054   -1.6428 H   0  0  0  0  0  0  0  0  0  0  0  0
    0.9377    0.6411    1.4211 H   0  0  0  0  0  0  0  0  0  0  0  0
   -0.6585    2.3514    0.9178 H   0  0  0  0  0  0  0  0  0  0  0  0
    0.4079    2.4916   -0.6092 H   0  0  0  0  0  0  0  0  0  0  0  0
   -0.9186    0.7035   -1.7013 H   0  0  0  0  0  0  0  0  0  0  0  0
   -2.2548    1.3014   -0.5325 H   0  0  0  0  0  0  0  0  0  0  0  0
   -1.1693   -2.1651    0.6216 H   0  0  0  0  0  0  0  0  0  0  0  0
   -2.0009   -1.4773   -0.7880 H   0  0  0  0  0  0  0  0  0  0  0  0
   -0.1971   -1.8396   -0.8247 H   0  0  0  0  0  0  0  0  0  0  0  0
   -1.1124    0.2495    2.5469 H   0  0  0  0  0  0  0  0  0  0  0  0
  1  2  1  0
  2  3  1  0
  3  4  1  0
  4  5  1  0
  5  6  1  0
  6  7  1  0
  6  8  1  0
  8  9  2  0
  6  3  1  0
  1 10  1  0
  1 11  1  0
  1 12  1  0
  2 13  1  0
  2 14  1  0
  3 15  1  0
  4 16  1  0
  4 17  1  0
  5 18  1  0
  5 19  1  0
  7 20  1  0
  7 21  1  0
  7 22  1  0
  8 23  1  0
M  END
