
     RDKit          3D

 25 26  0  0  0  0  0  0  0  0999 V2000
    2.8502    0.2824   -0.0900 C   0  0  0  0  0  0  0  0  0  0  0  0
    1.6686   -0.4808    0.4977 C   0  0  0  0  0  0  0  0  0  0  0  0
    0.4166    0.3290    0.4367 C   0  0  0  0  0  0  0  0  0  0  0  0
   -0.8052   -0.3392    0.9947 C   0  0  0  0  0  0  0  0  0  0  0  0
   -0.7832   -1.6770    0.2885 C   0  0  0  0  0  0  0  0  0  0  0  0
   -0.5090   -1.1851   -1.1455 C   0  0  0  0  0  0  0  0  0  0  0  0
   -0.3494    0.2752   -0.8665 C   0  0  0  0  0  0  0  0  0  0  0  0
   -1.5946    0.4927    0.0132 C   0  0  0  0  0  0  0  0  0  0  0  0
   -1.8812    1.8892    0.3888 C   0  0  0  0  0  0  0  0  0  0  0  0
    2.8974    1.2882    0.3701 H   0  0  0  0  0  0  0  0  0  0  0  0
    2.7739    0.3471   -1.1894 H   0  0  0  0  0  0  0  0  0  0  0  0
    3.7957   -0.2422    0.1769 H   0  0  0  0  0  0  0  0  0  0  0  0
    1.6313   -1.4350   -0.0635 H   0  0  0  0  0  0  0  0  0  0  0  0
    1.9533   -0.7545    1.5361 H   0  0  0  0  0  0  0  0  0  0  0  0
    0.6036    1.3622    0.7792 H   0  0  0  0  0  0  0  0  0  0  0  0
   -1.0261   -0.2912    2.0268 H   0  0  0  0  0  0  0  0  0  0  0  0
   -1.7804   -2.1150    0.3905 H   0  0  0  0  0  0  0  0  0  0  0  0
   -0.0287   -2.3692    0.6490 H   0  0  0  0  0  0  0  0  0  0  0  0
   -1.4690   -1.3454   -1.7010 H   0  0  0  0  0  0  0  0  0  0  0  0
    0.3314   -1.6808   -1.6098 H   0  0  0  0  0  0  0  0  0  0  0  0
   -0.1554    0.9745   -1.6292 H   0  0  0  0  0  0  0  0  0  0  0  0
   -2.4796   -0.0726   -0.3425 H   0  0  0  0  0  0  0  0  0  0  0  0
   -1.0257    2.5836    0.3074 H   0  0  0  0  0  0  0  0  0  0  0  0
   -2.7000    2.2691   -0.2776 H   0  0  0  0  0  0  0  0  0  0  0  0
   -2.3347    1.8948    1.4154 H   0  0  0  0  0  0  0  0  0  0  0  0
  1  2  1  0
  2  3  1  0
  3  4  1  0
  4  5  1  0
  5  6  1  0
  6  7  1  0
  7  8  1  0
  8  9  1  0
  7  3  1  0
  8  4  1  0
  1 10  1  0
  1 11  1  0
  1 12  1  0
  2 13  1  0
  2 14  1  0
  3 15  1  0
  4 16  1  0
  5 17  1  0
  5 18  1  0
  6 19  1  0
  6 20  1  0
  7 21  1  0
  8 22  1  0
  9 23  1  0
  9 24  1  0
  9 25  1  0
M  END
