
     RDKit          3D

 19 20  0  0  0  0  0  0  0  0999 V2000
    2.5823    0.6376   -0.5784 C   0  0  0  0  0  0  0  0  0  0  0  0
    1.8726   -0.6321   -0.1686 C   0  0  0  0  0  0  0  0  0  0  0  0
    0.4148   -0.3358    0.1152 C   0  0  0  0  0  0  0  0  0  0  0  0
   -0.2146    0.8454    0.0354 C   0  0  0  0  0  0  0  0  0  0  0  0
   -1.5770    0.6770    0.4049 C   0  0  0  0  0  0  0  0  0  0  0  0
   -2.8174    0.2226   -0.0395 C   0  0  0  0  0  0  0  0  0  0  0  0
   -1.7858   -0.7179   -0.2469 C   0  0  0  0  0  0  0  0  0  0  0  0
   -0.6566   -1.2696    0.4607 C   0  0  0  0  0  0  0  0  0  0  0  0
   -0.5556   -2.2594    1.1791 O   0  0  0  0  0  0  0  0  0  0  0  0
    3.6331    0.3985   -0.7486 H   0  0  0  0  0  0  0  0  0  0  0  0
    2.0657    1.0434   -1.4750 H   0  0  0  0  0  0  0  0  0  0  0  0
    2.5003    1.4211    0.2066 H   0  0  0  0  0  0  0  0  0  0  0  0
    2.2904   -0.8976    0.8455 H   0  0  0  0  0  0  0  0  0  0  0  0
    2.0393   -1.4023   -0.9082 H   0  0  0  0  0  0  0  0  0  0  0  0
    0.2821    1.7798   -0.2734 H   0  0  0  0  0  0  0  0  0  0  0  0
   -1.5614    0.6551    1.5735 H   0  0  0  0  0  0  0  0  0  0  0  0
   -3.6406   -0.0982    0.6593 H   0  0  0  0  0  0  0  0  0  0  0  0
   -3.2936    0.7610   -0.8942 H   0  0  0  0  0  0  0  0  0  0  0  0
   -1.5779   -0.8286   -1.3616 H   0  0  0  0  0  0  0  0  0  0  0  0
  1  2  1  0
  2  3  1  0
  3  4  2  0
  4  5  1  0
  5  6  1  0
  6  7  1  0
  7  8  1  0
  8  9  2  0
  8  3  1  0
  7  5  1  0
  1 10  1  0
  1 11  1  0
  1 12  1  0
  2 13  1  0
  2 14  1  0
  4 15  1  0
  5 16  1  0
  6 17  1  0
  6 18  1  0
  7 19  1  0
M  END
