
     RDKit          3D

 20 20  0  0  0  0  0  0  0  0999 V2000
   -2.3850   -0.0529    0.3816 C   0  0  0  0  0  0  0  0  0  0  0  0
   -1.0255    0.5200    0.6918 C   0  0  0  0  0  0  0  0  0  0  0  0
   -0.2283    0.5480   -0.5920 C   0  0  0  0  0  0  0  0  0  0  0  0
    1.1606    1.1122   -0.3753 C   0  0  0  0  0  0  0  0  0  0  0  0
    1.8405    0.0157    0.3898 C   0  0  0  0  0  0  0  0  0  0  0  0
    1.2427   -1.2746   -0.1519 C   0  0  0  0  0  0  0  0  0  0  0  0
    0.0762   -0.8560   -0.9764 C   0  0  0  0  0  0  0  0  0  0  0  0
   -0.4960   -1.5439   -1.7947 O   0  0  0  0  0  0  0  0  0  0  0  0
   -2.6640   -0.8298    1.1063 H   0  0  0  0  0  0  0  0  0  0  0  0
   -2.4701   -0.4202   -0.6570 H   0  0  0  0  0  0  0  0  0  0  0  0
   -3.1393    0.7720    0.5022 H   0  0  0  0  0  0  0  0  0  0  0  0
   -1.0576    1.4851    1.2070 H   0  0  0  0  0  0  0  0  0  0  0  0
   -0.5118   -0.2001    1.3936 H   0  0  0  0  0  0  0  0  0  0  0  0
   -0.7677    1.1058   -1.3789 H   0  0  0  0  0  0  0  0  0  0  0  0
    1.1711    2.0872    0.1067 H   0  0  0  0  0  0  0  0  0  0  0  0
    1.6384    1.1331   -1.3949 H   0  0  0  0  0  0  0  0  0  0  0  0
    1.7642    0.0923    1.4711 H   0  0  0  0  0  0  0  0  0  0  0  0
    2.9354    0.0551    0.1313 H   0  0  0  0  0  0  0  0  0  0  0  0
    0.9174   -1.9450    0.6841 H   0  0  0  0  0  0  0  0  0  0  0  0
    1.9989   -1.8039   -0.7446 H   0  0  0  0  0  0  0  0  0  0  0  0
  1  2  1  0
  2  3  1  0
  3  4  1  0
  4  5  1  0
  5  6  1  0
  6  7  1  0
  7  8  2  0
  7  3  1  0
  1  9  1  0
  1 10  1  0
  1 11  1  0
  2 12  1  0
  2 13  1  0
  3 14  1  0
  4 15  1  0
  4 16  1  0
  5 17  1  0
  5 18  1  0
  6 19  1  0
  6 20  1  0
M  END
