
     RDKit          3D

 23 25  0  0  0  0  0  0  0  0999 V2000
   -2.5393   -0.8927    0.6932 C   0  0  0  0  0  0  0  0  0  0  0  0
   -1.7120   -0.7077   -0.5773 C   0  0  0  0  0  0  0  0  0  0  0  0
   -0.5342    0.1793   -0.1754 C   0  0  0  0  0  0  0  0  0  0  0  0
   -0.9605    1.5170    0.3512 C   0  0  0  0  0  0  0  0  0  0  0  0
    0.6485    0.0979   -1.0462 C   0  0  0  0  0  0  0  0  0  0  0  0
    1.9737    0.6648   -0.6970 C   0  0  0  0  0  0  0  0  0  0  0  0
    3.0536   -0.3090   -0.2837 C   0  0  0  0  0  0  0  0  0  0  0  0
    1.9368    0.0916    0.6539 C   0  0  0  0  0  0  0  0  0  0  0  0
    0.6207   -0.5462    0.3602 C   0  0  0  0  0  0  0  0  0  0  0  0
   -3.4300   -0.2210    0.6702 H   0  0  0  0  0  0  0  0  0  0  0  0
   -1.9524   -0.6568    1.6022 H   0  0  0  0  0  0  0  0  0  0  0  0
   -2.9258   -1.9274    0.7859 H   0  0  0  0  0  0  0  0  0  0  0  0
   -2.2884   -0.1710   -1.3373 H   0  0  0  0  0  0  0  0  0  0  0  0
   -1.3209   -1.6648   -0.9478 H   0  0  0  0  0  0  0  0  0  0  0  0
   -0.3778    2.3603   -0.1085 H   0  0  0  0  0  0  0  0  0  0  0  0
   -0.8517    1.6028    1.4561 H   0  0  0  0  0  0  0  0  0  0  0  0
   -2.0225    1.7442    0.1285 H   0  0  0  0  0  0  0  0  0  0  0  0
    0.6153   -0.5554   -1.9151 H   0  0  0  0  0  0  0  0  0  0  0  0
    2.2611    1.6956   -0.8947 H   0  0  0  0  0  0  0  0  0  0  0  0
    4.0373    0.0759    0.0093 H   0  0  0  0  0  0  0  0  0  0  0  0
    2.9887   -1.3675   -0.6138 H   0  0  0  0  0  0  0  0  0  0  0  0
    2.1360    0.6400    1.5684 H   0  0  0  0  0  0  0  0  0  0  0  0
    0.6435   -1.6496    0.3177 H   0  0  0  0  0  0  0  0  0  0  0  0
  1  2  1  0
  2  3  1  0
  3  4  1  0
  3  5  1  0
  5  6  1  0
  6  7  1  0
  7  8  1  0
  8  9  1  0
  9  3  1  0
  9  5  1  0
  8  6  1  0
  1 10  1  0
  1 11  1  0
  1 12  1  0
  2 13  1  0
  2 14  1  0
  4 15  1  0
  4 16  1  0
  4 17  1  0
  5 18  1  0
  6 19  1  0
  7 20  1  0
  7 21  1  0
  8 22  1  0
  9 23  1  0
M  END
