
     RDKit          3D

 21 22  0  0  0  0  0  0  0  0999 V2000
    2.4102   -0.1555   -0.9121 C   0  0  0  0  0  0  0  0  0  0  0  0
    1.9205   -0.6025    0.4265 C   0  0  0  0  0  0  0  0  0  0  0  0
    0.4495   -0.3338    0.6487 C   0  0  0  0  0  0  0  0  0  0  0  0
    0.1215    1.1085    0.5577 C   0  0  0  0  0  0  0  0  0  0  0  0
   -1.1619    1.4376    0.4183 C   0  0  0  0  0  0  0  0  0  0  0  0
   -2.0338    0.2745    0.3784 C   0  0  0  0  0  0  0  0  0  0  0  0
   -2.6976   -0.4175   -0.6469 C   0  0  0  0  0  0  0  0  0  0  0  0
   -1.2816   -0.5202   -0.7575 C   0  0  0  0  0  0  0  0  0  0  0  0
   -0.3391   -1.1927   -0.0925 O   0  0  0  0  0  0  0  0  0  0  0  0
    1.6023   -0.0970   -1.6726 H   0  0  0  0  0  0  0  0  0  0  0  0
    2.9660    0.8177   -0.8254 H   0  0  0  0  0  0  0  0  0  0  0  0
    3.2038   -0.8908   -1.2314 H   0  0  0  0  0  0  0  0  0  0  0  0
    2.0699   -1.6921    0.5963 H   0  0  0  0  0  0  0  0  0  0  0  0
    2.5129   -0.0967    1.2309 H   0  0  0  0  0  0  0  0  0  0  0  0
    0.2712   -0.5937    1.7386 H   0  0  0  0  0  0  0  0  0  0  0  0
    0.9083    1.8859    0.6020 H   0  0  0  0  0  0  0  0  0  0  0  0
   -1.5232    2.4389    0.3432 H   0  0  0  0  0  0  0  0  0  0  0  0
   -2.0286   -0.2289    1.3974 H   0  0  0  0  0  0  0  0  0  0  0  0
   -3.2581   -1.3623   -0.3878 H   0  0  0  0  0  0  0  0  0  0  0  0
   -3.2743    0.1382   -1.4126 H   0  0  0  0  0  0  0  0  0  0  0  0
   -0.8378    0.0826   -1.5958 H   0  0  0  0  0  0  0  0  0  0  0  0
  1  2  1  0
  2  3  1  0
  3  4  1  0
  4  5  2  0
  5  6  1  0
  6  7  1  0
  7  8  1  0
  8  9  1  0
  9  3  1  0
  8  6  1  0
  1 10  1  0
  1 11  1  0
  1 12  1  0
  2 13  1  0
  2 14  1  0
  3 15  1  0
  4 16  1  0
  5 17  1  0
  6 18  1  0
  7 19  1  0
  7 20  1  0
  8 21  1  0
M  END
