
     RDKit          3D

 21 21  0  0  0  0  0  0  0  0999 V2000
    2.4852   -0.4377   -0.2128 C   0  0  0  0  0  0  0  0  0  0  0  0
    1.0894   -0.4064   -0.8406 C   0  0  0  0  0  0  0  0  0  0  0  0
    0.1534   -0.0389    0.2685 C   0  0  0  0  0  0  0  0  0  0  0  0
    0.4629    1.3046    0.8851 C   0  0  0  0  0  0  0  0  0  0  0  0
   -0.7478    1.5147    1.6354 O   0  0  0  0  0  0  0  0  0  0  0  0
   -1.7937    0.8647    1.0058 C   0  0  0  0  0  0  0  0  0  0  0  0
   -2.9776    0.8142    1.3862 O   0  0  0  0  0  0  0  0  0  0  0  0
   -1.2595    0.2280   -0.2175 C   0  0  0  0  0  0  0  0  0  0  0  0
   -1.9719   -1.0373   -0.5927 C   0  0  0  0  0  0  0  0  0  0  0  0
    3.1891   -1.0359   -0.8103 H   0  0  0  0  0  0  0  0  0  0  0  0
    2.4220   -0.9222    0.7982 H   0  0  0  0  0  0  0  0  0  0  0  0
    2.8436    0.5998   -0.0632 H   0  0  0  0  0  0  0  0  0  0  0  0
    1.0958    0.3691   -1.6137 H   0  0  0  0  0  0  0  0  0  0  0  0
    0.8437   -1.3888   -1.2817 H   0  0  0  0  0  0  0  0  0  0  0  0
    0.0794   -0.8010    1.0550 H   0  0  0  0  0  0  0  0  0  0  0  0
    1.3475    1.2892    1.5401 H   0  0  0  0  0  0  0  0  0  0  0  0
    0.4739    2.0802    0.1124 H   0  0  0  0  0  0  0  0  0  0  0  0
   -1.2816    0.9985   -1.0175 H   0  0  0  0  0  0  0  0  0  0  0  0
   -2.8621   -1.1675    0.0630 H   0  0  0  0  0  0  0  0  0  0  0  0
   -1.2701   -1.8960   -0.4597 H   0  0  0  0  0  0  0  0  0  0  0  0
   -2.3217   -0.9313   -1.6401 H   0  0  0  0  0  0  0  0  0  0  0  0
  1  2  1  0
  2  3  1  0
  3  4  1  0
  4  5  1  0
  5  6  1  0
  6  7  2  0
  6  8  1  0
  8  9  1  0
  8  3  1  0
  1 10  1  0
  1 11  1  0
  1 12  1  0
  2 13  1  0
  2 14  1  0
  3 15  1  0
  4 16  1  0
  4 17  1  0
  8 18  1  0
  9 19  1  0
  9 20  1  0
  9 21  1  0
M  END
