
     RDKit          3D

 23 24  0  0  0  0  0  0  0  0999 V2000
    2.7131    0.8074    0.1800 C   0  0  0  0  0  0  0  0  0  0  0  0
    1.3463    0.9406    0.7453 C   0  0  0  0  0  0  0  0  0  0  0  0
    0.3486   -0.0393    0.1279 C   0  0  0  0  0  0  0  0  0  0  0  0
   -1.0280    0.1288    0.7297 C   0  0  0  0  0  0  0  0  0  0  0  0
   -2.0995   -0.7576    0.2253 C   0  0  0  0  0  0  0  0  0  0  0  0
   -2.8621    0.5441    0.0680 C   0  0  0  0  0  0  0  0  0  0  0  0
   -1.6589    1.2250    0.1333 O   0  0  0  0  0  0  0  0  0  0  0  0
    0.8160   -1.4579   -0.1326 C   0  0  0  0  0  0  0  0  0  0  0  0
    0.5367   -0.5403   -1.2364 C   0  0  0  0  0  0  0  0  0  0  0  0
    3.4621    0.7755    0.9836 H   0  0  0  0  0  0  0  0  0  0  0  0
    2.8611   -0.0760   -0.4709 H   0  0  0  0  0  0  0  0  0  0  0  0
    2.9069    1.7119   -0.4612 H   0  0  0  0  0  0  0  0  0  0  0  0
    1.3749    0.7182    1.8336 H   0  0  0  0  0  0  0  0  0  0  0  0
    0.9034    1.9567    0.6065 H   0  0  0  0  0  0  0  0  0  0  0  0
   -1.0473    0.2048    1.8287 H   0  0  0  0  0  0  0  0  0  0  0  0
   -2.6344   -1.3803    0.9913 H   0  0  0  0  0  0  0  0  0  0  0  0
   -1.9641   -1.2853   -0.7138 H   0  0  0  0  0  0  0  0  0  0  0  0
   -3.5068    0.8103    0.9461 H   0  0  0  0  0  0  0  0  0  0  0  0
   -3.3914    0.5929   -0.9101 H   0  0  0  0  0  0  0  0  0  0  0  0
    1.8271   -1.6908    0.2303 H   0  0  0  0  0  0  0  0  0  0  0  0
    0.0970   -2.2909    0.0285 H   0  0  0  0  0  0  0  0  0  0  0  0
   -0.3722   -0.7441   -1.8685 H   0  0  0  0  0  0  0  0  0  0  0  0
    1.3714   -0.1534   -1.8635 H   0  0  0  0  0  0  0  0  0  0  0  0
  1  2  1  0
  2  3  1  0
  3  4  1  0
  4  5  1  0
  5  6  1  0
  6  7  1  0
  3  8  1  0
  8  9  1  0
  9  3  1  0
  7  4  1  0
  1 10  1  0
  1 11  1  0
  1 12  1  0
  2 13  1  0
  2 14  1  0
  4 15  1  0
  5 16  1  0
  5 17  1  0
  6 18  1  0
  6 19  1  0
  8 20  1  0
  8 21  1  0
  9 22  1  0
  9 23  1  0
M  END
