
     RDKit          3D

 21 23  0  0  0  0  0  0  0  0999 V2000
   -2.3925   -0.0302    0.1556 C   0  0  0  0  0  0  0  0  0  0  0  0
   -1.3985    0.2673    1.2178 C   0  0  0  0  0  0  0  0  0  0  0  0
    0.0308    0.4086    0.6620 C   0  0  0  0  0  0  0  0  0  0  0  0
   -0.0111    1.5225   -0.3034 C   0  0  0  0  0  0  0  0  0  0  0  0
    0.3178    0.2328   -0.8453 C   0  0  0  0  0  0  0  0  0  0  0  0
    1.6775   -0.3146   -0.3820 C   0  0  0  0  0  0  0  0  0  0  0  0
    2.5302    0.7189   -0.0372 O   0  0  0  0  0  0  0  0  0  0  0  0
    1.9542   -1.4193    0.5182 C   0  0  0  0  0  0  0  0  0  0  0  0
    0.6391   -0.9348    0.5793 C   0  0  0  0  0  0  0  0  0  0  0  0
   -3.3350   -0.3419    0.6511 H   0  0  0  0  0  0  0  0  0  0  0  0
   -2.1095   -0.8682   -0.5127 H   0  0  0  0  0  0  0  0  0  0  0  0
   -2.6284    0.9058   -0.3961 H   0  0  0  0  0  0  0  0  0  0  0  0
   -1.6946    1.2489    1.6807 H   0  0  0  0  0  0  0  0  0  0  0  0
   -1.3662   -0.4467    2.0622 H   0  0  0  0  0  0  0  0  0  0  0  0
    0.8528    2.2480   -0.1841 H   0  0  0  0  0  0  0  0  0  0  0  0
   -0.8887    2.0333   -0.6892 H   0  0  0  0  0  0  0  0  0  0  0  0
   -0.3372   -0.4256   -1.4177 H   0  0  0  0  0  0  0  0  0  0  0  0
    3.4051    0.5309   -0.4690 H   0  0  0  0  0  0  0  0  0  0  0  0
    2.2696   -2.3621   -0.0110 H   0  0  0  0  0  0  0  0  0  0  0  0
    2.5444   -1.3598    1.4821 H   0  0  0  0  0  0  0  0  0  0  0  0
   -0.0599   -1.6138   -0.0332 H   0  0  0  0  0  0  0  0  0  0  0  0
  1  2  1  0
  2  3  1  0
  3  4  1  0
  4  5  1  0
  5  6  1  0
  6  7  1  0
  6  8  1  0
  8  9  1  0
  5  3  1  0
  9  6  1  0
  9  3  1  0
  1 10  1  0
  1 11  1  0
  1 12  1  0
  2 13  1  0
  2 14  1  0
  4 15  1  0
  4 16  1  0
  5 17  1  0
  7 18  1  0
  8 19  1  0
  8 20  1  0
  9 21  1  0
M  END
