
     RDKit          3D

 23 23  0  0  0  0  0  0  0  0999 V2000
   -3.1625    0.0053   -0.4936 C   0  0  0  0  0  0  0  0  0  0  0  0
   -2.1822   -0.1106    0.6435 C   0  0  0  0  0  0  0  0  0  0  0  0
   -0.7778    0.1033    0.1674 C   0  0  0  0  0  0  0  0  0  0  0  0
    0.1665   -0.0249    1.3532 C   0  0  0  0  0  0  0  0  0  0  0  0
    1.2673    0.7633    1.0341 O   0  0  0  0  0  0  0  0  0  0  0  0
    1.6306    0.4898   -0.2600 C   0  0  0  0  0  0  0  0  0  0  0  0
    3.1312    0.3692   -0.3175 C   0  0  0  0  0  0  0  0  0  0  0  0
    1.0378   -0.7610   -0.8230 C   0  0  0  0  0  0  0  0  0  0  0  0
   -0.3548   -0.7787   -0.7872 O   0  0  0  0  0  0  0  0  0  0  0  0
   -3.4196    1.0775   -0.6775 H   0  0  0  0  0  0  0  0  0  0  0  0
   -4.0796   -0.5579   -0.2497 H   0  0  0  0  0  0  0  0  0  0  0  0
   -2.6863   -0.4532   -1.3895 H   0  0  0  0  0  0  0  0  0  0  0  0
   -2.4139    0.7167    1.3597 H   0  0  0  0  0  0  0  0  0  0  0  0
   -2.2831   -1.0786    1.1585 H   0  0  0  0  0  0  0  0  0  0  0  0
   -0.7272    1.1358   -0.2648 H   0  0  0  0  0  0  0  0  0  0  0  0
    0.5357   -1.0623    1.4778 H   0  0  0  0  0  0  0  0  0  0  0  0
   -0.3190    0.2698    2.2950 H   0  0  0  0  0  0  0  0  0  0  0  0
    1.2903    1.3420   -0.8973 H   0  0  0  0  0  0  0  0  0  0  0  0
    3.4447   -0.6651   -0.5443 H   0  0  0  0  0  0  0  0  0  0  0  0
    3.6041    0.6672    0.6640 H   0  0  0  0  0  0  0  0  0  0  0  0
    3.5171    1.0181   -1.1223 H   0  0  0  0  0  0  0  0  0  0  0  0
    1.3081   -0.7776   -1.9200 H   0  0  0  0  0  0  0  0  0  0  0  0
    1.4727   -1.6881   -0.4064 H   0  0  0  0  0  0  0  0  0  0  0  0
  1  2  1  0
  2  3  1  0
  3  4  1  0
  4  5  1  0
  5  6  1  0
  6  7  1  0
  6  8  1  0
  8  9  1  0
  9  3  1  0
  1 10  1  0
  1 11  1  0
  1 12  1  0
  2 13  1  0
  2 14  1  0
  3 15  1  0
  4 16  1  0
  4 17  1  0
  6 18  1  0
  7 19  1  0
  7 20  1  0
  7 21  1  0
  8 22  1  0
  8 23  1  0
M  END
