
     RDKit          3D

 19 19  0  0  0  0  0  0  0  0999 V2000
   -2.5230    0.4672   -0.1263 C   0  0  0  0  0  0  0  0  0  0  0  0
   -1.6321   -0.4237    0.6595 C   0  0  0  0  0  0  0  0  0  0  0  0
   -0.2090   -0.3583    0.2466 C   0  0  0  0  0  0  0  0  0  0  0  0
    0.2092    0.4077   -0.7118 C   0  0  0  0  0  0  0  0  0  0  0  0
    1.6275    0.4498   -1.1016 C   0  0  0  0  0  0  0  0  0  0  0  0
    2.4758    0.1633    0.1101 C   0  0  0  0  0  0  0  0  0  0  0  0
    2.0793   -1.1048    0.6218 O   0  0  0  0  0  0  0  0  0  0  0  0
    0.7344   -1.2014    1.0077 C   0  0  0  0  0  0  0  0  0  0  0  0
    0.3915   -1.9622    1.9384 O   0  0  0  0  0  0  0  0  0  0  0  0
   -2.1790    1.5137   -0.1940 H   0  0  0  0  0  0  0  0  0  0  0  0
   -3.5105    0.5074    0.3990 H   0  0  0  0  0  0  0  0  0  0  0  0
   -2.7337    0.0873   -1.1607 H   0  0  0  0  0  0  0  0  0  0  0  0
   -1.7628   -0.2047    1.7430 H   0  0  0  0  0  0  0  0  0  0  0  0
   -1.9566   -1.4813    0.4775 H   0  0  0  0  0  0  0  0  0  0  0  0
   -0.4958    1.0317   -1.2400 H   0  0  0  0  0  0  0  0  0  0  0  0
    1.7665   -0.3977   -1.8236 H   0  0  0  0  0  0  0  0  0  0  0  0
    1.9042    1.4181   -1.5836 H   0  0  0  0  0  0  0  0  0  0  0  0
    2.2501    0.9176    0.8721 H   0  0  0  0  0  0  0  0  0  0  0  0
    3.5640    0.1703   -0.1342 H   0  0  0  0  0  0  0  0  0  0  0  0
  1  2  1  0
  2  3  1  0
  3  4  2  0
  4  5  1  0
  5  6  1  0
  6  7  1  0
  7  8  1  0
  8  9  2  0
  8  3  1  0
  1 10  1  0
  1 11  1  0
  1 12  1  0
  2 13  1  0
  2 14  1  0
  4 15  1  0
  5 16  1  0
  5 17  1  0
  6 18  1  0
  6 19  1  0
M  END
