
     RDKit          3D

 27 27  0  0  0  0  0  0  0  0999 V2000
    3.2132   -0.0006   -0.1282 C   0  0  0  0  0  0  0  0  0  0  0  0
    1.9388    0.5675    0.4589 C   0  0  0  0  0  0  0  0  0  0  0  0
    0.7860   -0.3914    0.2810 C   0  0  0  0  0  0  0  0  0  0  0  0
    0.4963   -0.7049   -1.1457 C   0  0  0  0  0  0  0  0  0  0  0  0
   -0.9923   -0.9902   -1.2113 C   0  0  0  0  0  0  0  0  0  0  0  0
   -1.5343   -0.7452    0.1680 C   0  0  0  0  0  0  0  0  0  0  0  0
   -2.8591   -0.0577    0.1001 C   0  0  0  0  0  0  0  0  0  0  0  0
   -0.4784    0.0688    0.8944 C   0  0  0  0  0  0  0  0  0  0  0  0
   -0.7634    1.5312    0.7527 C   0  0  0  0  0  0  0  0  0  0  0  0
    3.8607    0.8537   -0.4180 H   0  0  0  0  0  0  0  0  0  0  0  0
    3.0237   -0.7013   -0.9628 H   0  0  0  0  0  0  0  0  0  0  0  0
    3.7599   -0.5614    0.6777 H   0  0  0  0  0  0  0  0  0  0  0  0
    2.1426    0.7759    1.5267 H   0  0  0  0  0  0  0  0  0  0  0  0
    1.6732    1.4990   -0.1125 H   0  0  0  0  0  0  0  0  0  0  0  0
    1.0973   -1.3467    0.7922 H   0  0  0  0  0  0  0  0  0  0  0  0
    0.7843    0.1380   -1.8135 H   0  0  0  0  0  0  0  0  0  0  0  0
    1.0602   -1.5896   -1.5283 H   0  0  0  0  0  0  0  0  0  0  0  0
   -1.1448   -2.0590   -1.4963 H   0  0  0  0  0  0  0  0  0  0  0  0
   -1.4810   -0.3551   -1.9787 H   0  0  0  0  0  0  0  0  0  0  0  0
   -1.7031   -1.7292    0.6946 H   0  0  0  0  0  0  0  0  0  0  0  0
   -3.1254    0.4612    1.0599 H   0  0  0  0  0  0  0  0  0  0  0  0
   -3.6472   -0.8286   -0.0647 H   0  0  0  0  0  0  0  0  0  0  0  0
   -2.9228    0.6550   -0.7542 H   0  0  0  0  0  0  0  0  0  0  0  0
   -0.5132   -0.2547    1.9544 H   0  0  0  0  0  0  0  0  0  0  0  0
   -1.1978    1.8017   -0.2285 H   0  0  0  0  0  0  0  0  0  0  0  0
    0.0816    2.1859    0.9619 H   0  0  0  0  0  0  0  0  0  0  0  0
   -1.5550    1.7779    1.5203 H   0  0  0  0  0  0  0  0  0  0  0  0
  1  2  1  0
  2  3  1  0
  3  4  1  0
  4  5  1  0
  5  6  1  0
  6  7  1  0
  6  8  1  0
  8  9  1  0
  8  3  1  0
  1 10  1  0
  1 11  1  0
  1 12  1  0
  2 13  1  0
  2 14  1  0
  3 15  1  0
  4 16  1  0
  4 17  1  0
  5 18  1  0
  5 19  1  0
  6 20  1  0
  7 21  1  0
  7 22  1  0
  7 23  1  0
  8 24  1  0
  9 25  1  0
  9 26  1  0
  9 27  1  0
M  END
