
     RDKit          3D

 21 22  0  0  0  0  0  0  0  0999 V2000
    2.0480    1.0564    0.2839 C   0  0  0  0  0  0  0  0  0  0  0  0
    1.6969   -0.3589   -0.0148 C   0  0  0  0  0  0  0  0  0  0  0  0
    0.1876   -0.6081   -0.0037 C   0  0  0  0  0  0  0  0  0  0  0  0
   -0.5539   -0.3446    1.2272 C   0  0  0  0  0  0  0  0  0  0  0  0
   -1.6226    0.4268    1.1830 C   0  0  0  0  0  0  0  0  0  0  0  0
   -2.0143    0.9874   -0.1227 C   0  0  0  0  0  0  0  0  0  0  0  0
   -1.7667    0.1847   -1.1976 O   0  0  0  0  0  0  0  0  0  0  0  0
   -0.5172   -0.3700   -1.2583 C   0  0  0  0  0  0  0  0  0  0  0  0
   -0.3005   -1.8049   -0.7930 C   0  0  0  0  0  0  0  0  0  0  0  0
    2.3834    1.6000   -0.6379 H   0  0  0  0  0  0  0  0  0  0  0  0
    1.1443    1.5952    0.6311 H   0  0  0  0  0  0  0  0  0  0  0  0
    2.8692    1.0965    1.0396 H   0  0  0  0  0  0  0  0  0  0  0  0
    2.0339   -0.5934   -1.0478 H   0  0  0  0  0  0  0  0  0  0  0  0
    2.2081   -1.0702    0.6863 H   0  0  0  0  0  0  0  0  0  0  0  0
   -0.2672   -0.7546    2.1821 H   0  0  0  0  0  0  0  0  0  0  0  0
   -2.1934    0.6460    2.0544 H   0  0  0  0  0  0  0  0  0  0  0  0
   -3.1252    1.1805   -0.0999 H   0  0  0  0  0  0  0  0  0  0  0  0
   -1.5285    1.9999   -0.2029 H   0  0  0  0  0  0  0  0  0  0  0  0
    0.0828   -0.0683   -2.1447 H   0  0  0  0  0  0  0  0  0  0  0  0
   -1.1816   -2.3728   -0.4202 H   0  0  0  0  0  0  0  0  0  0  0  0
    0.4167   -2.4275   -1.3441 H   0  0  0  0  0  0  0  0  0  0  0  0
  1  2  1  0
  2  3  1  0
  3  4  1  0
  4  5  2  0
  5  6  1  0
  6  7  1  0
  7  8  1  0
  8  9  1  0
  8  3  1  0
  9  3  1  0
  1 10  1  0
  1 11  1  0
  1 12  1  0
  2 13  1  0
  2 14  1  0
  4 15  1  0
  5 16  1  0
  6 17  1  0
  6 18  1  0
  8 19  1  0
  9 20  1  0
  9 21  1  0
M  END
