
     RDKit          3D

 23 24  0  0  0  0  0  0  0  0999 V2000
   -2.6827    0.3873    0.5791 C   0  0  0  0  0  0  0  0  0  0  0  0
   -1.4793    0.6605   -0.3416 C   0  0  0  0  0  0  0  0  0  0  0  0
   -0.7432   -0.6295   -0.5197 C   0  0  0  0  0  0  0  0  0  0  0  0
    0.4321   -0.4798   -1.4222 C   0  0  0  0  0  0  0  0  0  0  0  0
    1.0795    0.0543   -0.1588 C   0  0  0  0  0  0  0  0  0  0  0  0
    2.4716   -0.1317   -0.3073 O   0  0  0  0  0  0  0  0  0  0  0  0
    3.1703    1.0480   -0.0448 C   0  0  0  0  0  0  0  0  0  0  0  0
    0.3737   -1.0803    0.4611 C   0  0  0  0  0  0  0  0  0  0  0  0
   -0.9706   -1.5164    0.5850 C   0  0  0  0  0  0  0  0  0  0  0  0
   -3.5465    1.0560    0.2941 H   0  0  0  0  0  0  0  0  0  0  0  0
   -3.0713   -0.6348    0.4630 H   0  0  0  0  0  0  0  0  0  0  0  0
   -2.4440    0.5518    1.6356 H   0  0  0  0  0  0  0  0  0  0  0  0
   -1.9479    1.0238   -1.2816 H   0  0  0  0  0  0  0  0  0  0  0  0
   -0.9395    1.4666    0.1862 H   0  0  0  0  0  0  0  0  0  0  0  0
    0.2847    0.2571   -2.2108 H   0  0  0  0  0  0  0  0  0  0  0  0
    0.9370   -1.4091   -1.7468 H   0  0  0  0  0  0  0  0  0  0  0  0
    0.8902    1.0784    0.1257 H   0  0  0  0  0  0  0  0  0  0  0  0
    2.9328    1.3299    1.0023 H   0  0  0  0  0  0  0  0  0  0  0  0
    2.8884    1.8605   -0.7693 H   0  0  0  0  0  0  0  0  0  0  0  0
    4.2360    0.8591   -0.1805 H   0  0  0  0  0  0  0  0  0  0  0  0
    0.9820   -2.0067    0.1347 H   0  0  0  0  0  0  0  0  0  0  0  0
   -1.4662   -1.2199    1.5551 H   0  0  0  0  0  0  0  0  0  0  0  0
   -1.3873   -2.5250    0.2901 H   0  0  0  0  0  0  0  0  0  0  0  0
  1  2  1  0
  2  3  1  0
  3  4  1  0
  4  5  1  0
  5  6  1  0
  6  7  1  0
  5  8  1  0
  8  9  1  0
  8  3  1  0
  9  3  1  0
  1 10  1  0
  1 11  1  0
  1 12  1  0
  2 13  1  0
  2 14  1  0
  4 15  1  0
  4 16  1  0
  5 17  1  0
  7 18  1  0
  7 19  1  0
  7 20  1  0
  8 21  1  0
  9 22  1  0
  9 23  1  0
M  END
