
     RDKit          3D

 17 18  0  0  0  0  0  0  0  0999 V2000
   -2.0831    0.3788   -0.3155 C   0  0  0  0  0  0  0  0  0  0  0  0
   -1.3495   -0.7315    0.3693 C   0  0  0  0  0  0  0  0  0  0  0  0
    0.1018   -0.5022    0.5674 C   0  0  0  0  0  0  0  0  0  0  0  0
    1.0510   -0.2768   -0.5393 C   0  0  0  0  0  0  0  0  0  0  0  0
    2.4746    0.0447   -0.1140 C   0  0  0  0  0  0  0  0  0  0  0  0
    2.0022    1.0723    0.7197 O   0  0  0  0  0  0  0  0  0  0  0  0
    0.6911    0.8331    0.3762 C   0  0  0  0  0  0  0  0  0  0  0  0
   -3.1867    0.2013   -0.1523 H   0  0  0  0  0  0  0  0  0  0  0  0
   -1.8802    1.3762    0.0731 H   0  0  0  0  0  0  0  0  0  0  0  0
   -1.9620    0.3290   -1.4362 H   0  0  0  0  0  0  0  0  0  0  0  0
   -1.8282   -0.9881    1.3366 H   0  0  0  0  0  0  0  0  0  0  0  0
   -1.4650   -1.6448   -0.2758 H   0  0  0  0  0  0  0  0  0  0  0  0
    0.5316   -1.1307    1.4006 H   0  0  0  0  0  0  0  0  0  0  0  0
    0.7810   -0.2887   -1.5929 H   0  0  0  0  0  0  0  0  0  0  0  0
    2.9072   -0.7654    0.5060 H   0  0  0  0  0  0  0  0  0  0  0  0
    3.0821    0.3845   -0.9646 H   0  0  0  0  0  0  0  0  0  0  0  0
    0.1321    1.7083    0.0416 H   0  0  0  0  0  0  0  0  0  0  0  0
  1  2  1  0
  2  3  1  0
  3  4  1  0
  4  5  1  0
  5  6  1  0
  6  7  1  0
  7  3  1  0
  7  4  1  0
  1  8  1  0
  1  9  1  0
  1 10  1  0
  2 11  1  0
  2 12  1  0
  3 13  1  0
  4 14  1  0
  5 15  1  0
  5 16  1  0
  7 17  1  0
M  END
