
     RDKit          3D

 27 27  0  0  0  0  0  0  0  0999 V2000
   -2.1857   -1.3280    0.2642 C   0  0  0  0  0  0  0  0  0  0  0  0
   -1.8342   -0.5276   -0.9318 C   0  0  0  0  0  0  0  0  0  0  0  0
   -0.7631    0.4780   -0.8064 C   0  0  0  0  0  0  0  0  0  0  0  0
   -0.9989    1.5511    0.2089 C   0  0  0  0  0  0  0  0  0  0  0  0
    0.3886    1.9395    0.7090 C   0  0  0  0  0  0  0  0  0  0  0  0
    1.3550    1.3156   -0.2745 C   0  0  0  0  0  0  0  0  0  0  0  0
    0.6254    0.0018   -0.6169 C   0  0  0  0  0  0  0  0  0  0  0  0
    0.8830   -1.0235    0.4127 C   0  0  0  0  0  0  0  0  0  0  0  0
    2.3848   -1.3565    0.4216 C   0  0  0  0  0  0  0  0  0  0  0  0
   -1.6539   -1.0590    1.1969 H   0  0  0  0  0  0  0  0  0  0  0  0
   -3.2743   -1.3240    0.5053 H   0  0  0  0  0  0  0  0  0  0  0  0
   -1.9565   -2.3948    0.0649 H   0  0  0  0  0  0  0  0  0  0  0  0
   -1.6351   -1.2351   -1.7893 H   0  0  0  0  0  0  0  0  0  0  0  0
   -2.7954   -0.0282   -1.2693 H   0  0  0  0  0  0  0  0  0  0  0  0
   -0.7461    1.0439   -1.7996 H   0  0  0  0  0  0  0  0  0  0  0  0
   -1.4490    2.4740   -0.2040 H   0  0  0  0  0  0  0  0  0  0  0  0
   -1.5756    1.2232    1.0909 H   0  0  0  0  0  0  0  0  0  0  0  0
    0.5928    1.4863    1.7193 H   0  0  0  0  0  0  0  0  0  0  0  0
    0.5081    3.0383    0.7696 H   0  0  0  0  0  0  0  0  0  0  0  0
    2.3086    1.0413    0.2058 H   0  0  0  0  0  0  0  0  0  0  0  0
    1.4881    1.9113   -1.1884 H   0  0  0  0  0  0  0  0  0  0  0  0
    1.0656   -0.3131   -1.5942 H   0  0  0  0  0  0  0  0  0  0  0  0
    0.6766   -0.6447    1.4412 H   0  0  0  0  0  0  0  0  0  0  0  0
    0.3747   -1.9707    0.3014 H   0  0  0  0  0  0  0  0  0  0  0  0
    2.9150   -0.6918    1.1339 H   0  0  0  0  0  0  0  0  0  0  0  0
    2.5561   -2.4270    0.6407 H   0  0  0  0  0  0  0  0  0  0  0  0
    2.7455   -1.1802   -0.6118 H   0  0  0  0  0  0  0  0  0  0  0  0
  1  2  1  0
  2  3  1  0
  3  4  1  0
  4  5  1  0
  5  6  1  0
  6  7  1  0
  7  8  1  0
  8  9  1  0
  7  3  1  0
  1 10  1  0
  1 11  1  0
  1 12  1  0
  2 13  1  0
  2 14  1  0
  3 15  1  0
  4 16  1  0
  4 17  1  0
  5 18  1  0
  5 19  1  0
  6 20  1  0
  6 21  1  0
  7 22  1  0
  8 23  1  0
  8 24  1  0
  9 25  1  0
  9 26  1  0
  9 27  1  0
M  END
