
     RDKit          3D

 21 22  0  0  0  0  0  0  0  0999 V2000
   -3.0825    0.4104   -0.2717 C   0  0  0  0  0  0  0  0  0  0  0  0
   -1.8192    1.0335    0.2005 C   0  0  0  0  0  0  0  0  0  0  0  0
   -0.6715    0.1341    0.2789 C   0  0  0  0  0  0  0  0  0  0  0  0
   -0.5208   -1.1799    0.0032 C   0  0  0  0  0  0  0  0  0  0  0  0
    0.9431   -1.3505    0.3373 C   0  0  0  0  0  0  0  0  0  0  0  0
    0.9872   -0.6229    1.5508 O   0  0  0  0  0  0  0  0  0  0  0  0
    0.7078    0.4860    0.7159 C   0  0  0  0  0  0  0  0  0  0  0  0
    1.6388   -0.1688   -0.2715 C   0  0  0  0  0  0  0  0  0  0  0  0
    3.0640   -0.0734    0.1533 C   0  0  0  0  0  0  0  0  0  0  0  0
   -2.9267   -0.4285   -0.9747 H   0  0  0  0  0  0  0  0  0  0  0  0
   -3.7241    0.0135    0.5481 H   0  0  0  0  0  0  0  0  0  0  0  0
   -3.7334    1.1436   -0.8282 H   0  0  0  0  0  0  0  0  0  0  0  0
   -2.0436    1.5523    1.1744 H   0  0  0  0  0  0  0  0  0  0  0  0
   -1.5579    1.8556   -0.5164 H   0  0  0  0  0  0  0  0  0  0  0  0
   -1.2267   -1.9065   -0.3515 H   0  0  0  0  0  0  0  0  0  0  0  0
    1.3610   -2.3136    0.3078 H   0  0  0  0  0  0  0  0  0  0  0  0
    0.9141    1.4527    1.0855 H   0  0  0  0  0  0  0  0  0  0  0  0
    1.4143    0.0144   -1.3396 H   0  0  0  0  0  0  0  0  0  0  0  0
    3.1122    0.1479    1.2320 H   0  0  0  0  0  0  0  0  0  0  0  0
    3.5137    0.8054   -0.3707 H   0  0  0  0  0  0  0  0  0  0  0  0
    3.6502   -1.0053   -0.0675 H   0  0  0  0  0  0  0  0  0  0  0  0
  1  2  1  0
  2  3  1  0
  3  4  2  0
  4  5  1  0
  5  6  1  0
  6  7  1  0
  7  8  1  0
  8  9  1  0
  7  3  1  0
  8  5  1  0
  1 10  1  0
  1 11  1  0
  1 12  1  0
  2 13  1  0
  2 14  1  0
  4 15  1  0
  5 16  1  0
  7 17  1  0
  8 18  1  0
  9 19  1  0
  9 20  1  0
  9 21  1  0
M  END
