
     RDKit          3D

 23 23  0  0  0  0  0  0  0  0999 V2000
   -2.3334    0.8242    0.0561 C   0  0  0  0  0  0  0  0  0  0  0  0
   -1.2311    0.3856   -0.8575 C   0  0  0  0  0  0  0  0  0  0  0  0
   -0.1689   -0.4385   -0.2295 C   0  0  0  0  0  0  0  0  0  0  0  0
   -0.7261   -1.7176    0.3561 C   0  0  0  0  0  0  0  0  0  0  0  0
    0.7749   -0.8543   -1.3017 C   0  0  0  0  0  0  0  0  0  0  0  0
    1.8809   -0.1423   -1.2758 C   0  0  0  0  0  0  0  0  0  0  0  0
    1.7988    0.8374   -0.1754 C   0  0  0  0  0  0  0  0  0  0  0  0
    3.0312    0.9302    0.4526 O   0  0  0  0  0  0  0  0  0  0  0  0
    0.7329    0.2650    0.7270 C   0  0  0  0  0  0  0  0  0  0  0  0
   -2.0804    1.6460    0.7238 H   0  0  0  0  0  0  0  0  0  0  0  0
   -2.7898   -0.0211    0.6045 H   0  0  0  0  0  0  0  0  0  0  0  0
   -3.1553    1.2214   -0.6098 H   0  0  0  0  0  0  0  0  0  0  0  0
   -1.7016   -0.2249   -1.6623 H   0  0  0  0  0  0  0  0  0  0  0  0
   -0.8159    1.2782   -1.3685 H   0  0  0  0  0  0  0  0  0  0  0  0
   -1.2815   -1.5642    1.2910 H   0  0  0  0  0  0  0  0  0  0  0  0
   -1.3181   -2.2221   -0.4392 H   0  0  0  0  0  0  0  0  0  0  0  0
    0.1582   -2.3790    0.5459 H   0  0  0  0  0  0  0  0  0  0  0  0
    0.5849   -1.6612   -2.0383 H   0  0  0  0  0  0  0  0  0  0  0  0
    2.7504   -0.2407   -1.9581 H   0  0  0  0  0  0  0  0  0  0  0  0
    1.4234    1.8194   -0.5265 H   0  0  0  0  0  0  0  0  0  0  0  0
    3.0278    1.6479    1.1233 H   0  0  0  0  0  0  0  0  0  0  0  0
    1.1464   -0.4667    1.4640 H   0  0  0  0  0  0  0  0  0  0  0  0
    0.2923    1.0773    1.2914 H   0  0  0  0  0  0  0  0  0  0  0  0
  1  2  1  0
  2  3  1  0
  3  4  1  0
  3  5  1  0
  5  6  2  0
  6  7  1  0
  7  8  1  0
  7  9  1  0
  9  3  1  0
  1 10  1  0
  1 11  1  0
  1 12  1  0
  2 13  1  0
  2 14  1  0
  4 15  1  0
  4 16  1  0
  4 17  1  0
  5 18  1  0
  6 19  1  0
  7 20  1  0
  8 21  1  0
  9 22  1  0
  9 23  1  0
M  END
