
     RDKit          3D

 25 25  0  0  0  0  0  0  0  0999 V2000
    0.8825    2.2446    0.0302 C   0  0  0  0  0  0  0  0  0  0  0  0
   -0.0376    1.3533   -0.7210 C   0  0  0  0  0  0  0  0  0  0  0  0
   -0.1040   -0.0665   -0.2943 C   0  0  0  0  0  0  0  0  0  0  0  0
    1.1555   -0.8504   -0.3647 C   0  0  0  0  0  0  0  0  0  0  0  0
    2.3002   -0.3782    0.4496 C   0  0  0  0  0  0  0  0  0  0  0  0
   -1.1008   -0.7520   -1.2427 C   0  0  0  0  0  0  0  0  0  0  0  0
   -1.9321   -1.5193   -0.2673 C   0  0  0  0  0  0  0  0  0  0  0  0
   -1.9426   -0.5579    0.9167 C   0  0  0  0  0  0  0  0  0  0  0  0
   -0.6297   -0.1792    0.9806 O   0  0  0  0  0  0  0  0  0  0  0  0
    0.4025    3.2559    0.2249 H   0  0  0  0  0  0  0  0  0  0  0  0
    1.7649    2.5193   -0.6193 H   0  0  0  0  0  0  0  0  0  0  0  0
    1.2091    1.9070    1.0123 H   0  0  0  0  0  0  0  0  0  0  0  0
    0.1225    1.4375   -1.8294 H   0  0  0  0  0  0  0  0  0  0  0  0
   -1.0811    1.7695   -0.5867 H   0  0  0  0  0  0  0  0  0  0  0  0
    0.9091   -1.8968   -0.0147 H   0  0  0  0  0  0  0  0  0  0  0  0
    1.5065   -0.9540   -1.4151 H   0  0  0  0  0  0  0  0  0  0  0  0
    3.0739   -1.2100    0.4264 H   0  0  0  0  0  0  0  0  0  0  0  0
    2.8163    0.4725   -0.0247 H   0  0  0  0  0  0  0  0  0  0  0  0
    2.0779   -0.2405    1.5268 H   0  0  0  0  0  0  0  0  0  0  0  0
   -1.6786   -0.0150   -1.8342 H   0  0  0  0  0  0  0  0  0  0  0  0
   -0.5674   -1.3872   -1.9791 H   0  0  0  0  0  0  0  0  0  0  0  0
   -1.3367   -2.3974    0.0659 H   0  0  0  0  0  0  0  0  0  0  0  0
   -2.9294   -1.7867   -0.6097 H   0  0  0  0  0  0  0  0  0  0  0  0
   -2.2808   -1.0793    1.8206 H   0  0  0  0  0  0  0  0  0  0  0  0
   -2.6003    0.3108    0.7325 H   0  0  0  0  0  0  0  0  0  0  0  0
  1  2  1  0
  2  3  1  0
  3  4  1  0
  4  5  1  0
  3  6  1  0
  6  7  1  0
  7  8  1  0
  8  9  1  0
  9  3  1  0
  1 10  1  0
  1 11  1  0
  1 12  1  0
  2 13  1  0
  2 14  1  0
  4 15  1  0
  4 16  1  0
  5 17  1  0
  5 18  1  0
  5 19  1  0
  6 20  1  0
  6 21  1  0
  7 22  1  0
  7 23  1  0
  8 24  1  0
  8 25  1  0
M  END
