
     RDKit          3D

 23 24  0  0  0  0  0  0  0  0999 V2000
   -1.6842    1.5101   -0.5866 C   0  0  0  0  0  0  0  0  0  0  0  0
   -1.5965    0.1018   -0.1511 C   0  0  0  0  0  0  0  0  0  0  0  0
   -0.2567   -0.3968   -0.1007 C   0  0  0  0  0  0  0  0  0  0  0  0
   -0.0381   -1.8539    0.3388 C   0  0  0  0  0  0  0  0  0  0  0  0
    1.2781   -1.6532   -0.3913 C   0  0  0  0  0  0  0  0  0  0  0  0
    1.8870   -0.5531    0.3845 C   0  0  0  0  0  0  0  0  0  0  0  0
    0.8320    0.2791    0.5920 C   0  0  0  0  0  0  0  0  0  0  0  0
    0.9294    1.5410    1.3645 C   0  0  0  0  0  0  0  0  0  0  0  0
    0.4247   -0.8589   -1.3930 C   0  0  0  0  0  0  0  0  0  0  0  0
   -1.5757    1.6570   -1.6890 H   0  0  0  0  0  0  0  0  0  0  0  0
   -1.0162    2.2198   -0.1073 H   0  0  0  0  0  0  0  0  0  0  0  0
   -2.7322    1.8710   -0.3658 H   0  0  0  0  0  0  0  0  0  0  0  0
   -2.1983   -0.5136   -0.8818 H   0  0  0  0  0  0  0  0  0  0  0  0
   -2.1188   -0.0247    0.8166 H   0  0  0  0  0  0  0  0  0  0  0  0
   -0.7308   -2.5254   -0.1905 H   0  0  0  0  0  0  0  0  0  0  0  0
    0.0487   -1.9858    1.4286 H   0  0  0  0  0  0  0  0  0  0  0  0
    1.8295   -2.4736   -0.7333 H   0  0  0  0  0  0  0  0  0  0  0  0
    2.9129   -0.4326    0.7097 H   0  0  0  0  0  0  0  0  0  0  0  0
    1.2192    2.4133    0.7394 H   0  0  0  0  0  0  0  0  0  0  0  0
    1.7736    1.4392    2.1093 H   0  0  0  0  0  0  0  0  0  0  0  0
    0.0336    1.7367    1.9933 H   0  0  0  0  0  0  0  0  0  0  0  0
   -0.1989   -1.4717   -2.0472 H   0  0  0  0  0  0  0  0  0  0  0  0
    0.9776   -0.0256   -1.8390 H   0  0  0  0  0  0  0  0  0  0  0  0
  1  2  1  0
  2  3  1  0
  3  4  1  0
  4  5  1  0
  5  6  1  0
  6  7  2  0
  7  8  1  0
  5  9  1  0
  7  3  1  0
  9  3  1  0
  1 10  1  0
  1 11  1  0
  1 12  1  0
  2 13  1  0
  2 14  1  0
  4 15  1  0
  4 16  1  0
  5 17  1  0
  6 18  1  0
  8 19  1  0
  8 20  1  0
  8 21  1  0
  9 22  1  0
  9 23  1  0
M  END
