
     RDKit          3D

 25 26  0  0  0  0  0  0  0  0999 V2000
    2.6772   -1.0034   -0.1361 C   0  0  0  0  0  0  0  0  0  0  0  0
    2.0110    0.2187    0.4675 C   0  0  0  0  0  0  0  0  0  0  0  0
    0.5529   -0.0105    0.6946 C   0  0  0  0  0  0  0  0  0  0  0  0
   -0.2497   -0.3281   -0.5111 C   0  0  0  0  0  0  0  0  0  0  0  0
   -1.7225   -0.6637   -0.3567 C   0  0  0  0  0  0  0  0  0  0  0  0
   -2.0129   -1.7823    0.6032 C   0  0  0  0  0  0  0  0  0  0  0  0
   -1.8920    0.6928    0.3097 C   0  0  0  0  0  0  0  0  0  0  0  0
   -0.4263    0.9659    0.1412 C   0  0  0  0  0  0  0  0  0  0  0  0
    0.0506    2.2599   -0.4017 C   0  0  0  0  0  0  0  0  0  0  0  0
    1.9354   -1.8162   -0.3198 H   0  0  0  0  0  0  0  0  0  0  0  0
    3.1467   -0.7931   -1.1153 H   0  0  0  0  0  0  0  0  0  0  0  0
    3.4798   -1.3444    0.5697 H   0  0  0  0  0  0  0  0  0  0  0  0
    2.1748    1.0500   -0.2520 H   0  0  0  0  0  0  0  0  0  0  0  0
    2.5375    0.5371    1.4050 H   0  0  0  0  0  0  0  0  0  0  0  0
    0.2954   -0.4027    1.6956 H   0  0  0  0  0  0  0  0  0  0  0  0
    0.2450   -0.4846   -1.4684 H   0  0  0  0  0  0  0  0  0  0  0  0
   -2.1850   -0.7520   -1.3572 H   0  0  0  0  0  0  0  0  0  0  0  0
   -2.9523   -2.2717    0.2642 H   0  0  0  0  0  0  0  0  0  0  0  0
   -2.2016   -1.3956    1.6231 H   0  0  0  0  0  0  0  0  0  0  0  0
   -1.2219   -2.5695    0.5953 H   0  0  0  0  0  0  0  0  0  0  0  0
   -2.5346    1.3358   -0.3253 H   0  0  0  0  0  0  0  0  0  0  0  0
   -2.1803    0.6399    1.3661 H   0  0  0  0  0  0  0  0  0  0  0  0
    0.9375    2.6197    0.1565 H   0  0  0  0  0  0  0  0  0  0  0  0
   -0.7484    3.0310   -0.2038 H   0  0  0  0  0  0  0  0  0  0  0  0
    0.2839    2.2668   -1.4712 H   0  0  0  0  0  0  0  0  0  0  0  0
  1  2  1  0
  2  3  1  0
  3  4  1  0
  4  5  1  0
  5  6  1  0
  5  7  1  0
  7  8  1  0
  8  9  1  0
  8  3  1  0
  8  4  1  0
  1 10  1  0
  1 11  1  0
  1 12  1  0
  2 13  1  0
  2 14  1  0
  3 15  1  0
  4 16  1  0
  5 17  1  0
  6 18  1  0
  6 19  1  0
  6 20  1  0
  7 21  1  0
  7 22  1  0
  9 23  1  0
  9 24  1  0
  9 25  1  0
M  END
