
     RDKit          3D

 23 24  0  0  0  0  0  0  0  0999 V2000
   -3.1028   -0.1690    0.1553 C   0  0  0  0  0  0  0  0  0  0  0  0
   -2.0666    0.6145    0.9315 C   0  0  0  0  0  0  0  0  0  0  0  0
   -0.6855    0.0624    0.7808 C   0  0  0  0  0  0  0  0  0  0  0  0
   -0.0684   -0.0161   -0.5476 C   0  0  0  0  0  0  0  0  0  0  0  0
    0.9449   -1.1189   -0.7500 C   0  0  0  0  0  0  0  0  0  0  0  0
    2.2117   -0.6376   -0.1026 C   0  0  0  0  0  0  0  0  0  0  0  0
    3.1208   -0.3531   -1.1265 O   0  0  0  0  0  0  0  0  0  0  0  0
    1.8617    0.5758    0.7118 C   0  0  0  0  0  0  0  0  0  0  0  0
    0.4548    0.9489    0.4154 C   0  0  0  0  0  0  0  0  0  0  0  0
   -3.0285   -1.2357    0.3556 H   0  0  0  0  0  0  0  0  0  0  0  0
   -4.0997    0.2154    0.4789 H   0  0  0  0  0  0  0  0  0  0  0  0
   -3.0469    0.0152   -0.9352 H   0  0  0  0  0  0  0  0  0  0  0  0
   -2.1022    1.6818    0.6531 H   0  0  0  0  0  0  0  0  0  0  0  0
   -2.3966    0.5690    2.0048 H   0  0  0  0  0  0  0  0  0  0  0  0
   -0.4274   -0.7156    1.5333 H   0  0  0  0  0  0  0  0  0  0  0  0
   -0.5219    0.3663   -1.4625 H   0  0  0  0  0  0  0  0  0  0  0  0
    0.5308   -2.0112   -0.2090 H   0  0  0  0  0  0  0  0  0  0  0  0
    1.0751   -1.3774   -1.8286 H   0  0  0  0  0  0  0  0  0  0  0  0
    2.6051   -1.4513    0.5461 H   0  0  0  0  0  0  0  0  0  0  0  0
    3.9169    0.1203   -0.8053 H   0  0  0  0  0  0  0  0  0  0  0  0
    2.5167    1.4120    0.3271 H   0  0  0  0  0  0  0  0  0  0  0  0
    2.1053    0.4793    1.7842 H   0  0  0  0  0  0  0  0  0  0  0  0
    0.2027    2.0251    0.3611 H   0  0  0  0  0  0  0  0  0  0  0  0
  1  2  1  0
  2  3  1  0
  3  4  1  0
  4  5  1  0
  5  6  1  0
  6  7  1  0
  6  8  1  0
  8  9  1  0
  9  3  1  0
  9  4  1  0
  1 10  1  0
  1 11  1  0
  1 12  1  0
  2 13  1  0
  2 14  1  0
  3 15  1  0
  4 16  1  0
  5 17  1  0
  5 18  1  0
  6 19  1  0
  7 20  1  0
  8 21  1  0
  8 22  1  0
  9 23  1  0
M  END
