
     RDKit          3D

 23 24  0  0  0  0  0  0  0  0999 V2000
    2.5872   -0.0471    0.9788 C   0  0  0  0  0  0  0  0  0  0  0  0
    1.3545    0.7141    0.6015 C   0  0  0  0  0  0  0  0  0  0  0  0
    0.6819    0.1674   -0.6463 C   0  0  0  0  0  0  0  0  0  0  0  0
    1.4533    0.1764   -1.7884 O   0  0  0  0  0  0  0  0  0  0  0  0
   -0.0750   -1.1262   -0.4179 C   0  0  0  0  0  0  0  0  0  0  0  0
   -1.2965   -0.3301   -0.2353 C   0  0  0  0  0  0  0  0  0  0  0  0
   -2.1886   -0.3710    0.9046 C   0  0  0  0  0  0  0  0  0  0  0  0
   -2.6621   -0.7617   -0.4813 C   0  0  0  0  0  0  0  0  0  0  0  0
   -0.6637    0.8817   -0.8000 C   0  0  0  0  0  0  0  0  0  0  0  0
    3.5047    0.6038    0.9462 H   0  0  0  0  0  0  0  0  0  0  0  0
    2.4696   -0.3824    2.0257 H   0  0  0  0  0  0  0  0  0  0  0  0
    2.7844   -0.9110    0.3280 H   0  0  0  0  0  0  0  0  0  0  0  0
    0.5609    0.6752    1.4036 H   0  0  0  0  0  0  0  0  0  0  0  0
    1.6391    1.7732    0.4360 H   0  0  0  0  0  0  0  0  0  0  0  0
    2.2248    0.7926   -1.6126 H   0  0  0  0  0  0  0  0  0  0  0  0
    0.2925   -1.7263    0.4437 H   0  0  0  0  0  0  0  0  0  0  0  0
   -0.0143   -1.7717   -1.3322 H   0  0  0  0  0  0  0  0  0  0  0  0
   -2.1104   -1.1800    1.6615 H   0  0  0  0  0  0  0  0  0  0  0  0
   -2.5229    0.6027    1.3304 H   0  0  0  0  0  0  0  0  0  0  0  0
   -3.3379   -0.0183   -0.9823 H   0  0  0  0  0  0  0  0  0  0  0  0
   -2.9451   -1.7953   -0.7001 H   0  0  0  0  0  0  0  0  0  0  0  0
   -0.7982    1.7687   -0.1872 H   0  0  0  0  0  0  0  0  0  0  0  0
   -0.9380    1.0143   -1.8763 H   0  0  0  0  0  0  0  0  0  0  0  0
  1  2  1  0
  2  3  1  0
  3  4  1  0
  3  5  1  0
  5  6  1  0
  6  7  1  0
  7  8  1  0
  6  9  1  0
  9  3  1  0
  8  6  1  0
  1 10  1  0
  1 11  1  0
  1 12  1  0
  2 13  1  0
  2 14  1  0
  4 15  1  0
  5 16  1  0
  5 17  1  0
  7 18  1  0
  7 19  1  0
  8 20  1  0
  8 21  1  0
  9 22  1  0
  9 23  1  0
M  END
