
     RDKit          3D

 20 21  0  0  0  0  0  0  0  0999 V2000
    2.4592    0.4434    0.2516 C   0  0  0  0  0  0  0  0  0  0  0  0
    1.0730    0.7805   -0.1564 C   0  0  0  0  0  0  0  0  0  0  0  0
   -0.0039    0.0716    0.6075 C   0  0  0  0  0  0  0  0  0  0  0  0
   -0.0193   -1.4097    0.5506 C   0  0  0  0  0  0  0  0  0  0  0  0
   -1.0759   -1.2989   -0.5601 C   0  0  0  0  0  0  0  0  0  0  0  0
   -1.2995    0.0860   -0.1210 C   0  0  0  0  0  0  0  0  0  0  0  0
   -2.0743    1.1035   -0.5831 C   0  0  0  0  0  0  0  0  0  0  0  0
   -2.4670    0.3212    0.6181 O   0  0  0  0  0  0  0  0  0  0  0  0
    2.8683   -0.4022   -0.3748 H   0  0  0  0  0  0  0  0  0  0  0  0
    2.5728    0.2354    1.3345 H   0  0  0  0  0  0  0  0  0  0  0  0
    3.1184    1.3080    0.0157 H   0  0  0  0  0  0  0  0  0  0  0  0
    0.9365    1.8778   -0.1200 H   0  0  0  0  0  0  0  0  0  0  0  0
    0.9611    0.5002   -1.2403 H   0  0  0  0  0  0  0  0  0  0  0  0
   -0.0994    0.4978    1.6375 H   0  0  0  0  0  0  0  0  0  0  0  0
   -0.4965   -1.8336    1.4799 H   0  0  0  0  0  0  0  0  0  0  0  0
    0.8899   -1.9335    0.2513 H   0  0  0  0  0  0  0  0  0  0  0  0
   -0.6173   -1.4663   -1.5555 H   0  0  0  0  0  0  0  0  0  0  0  0
   -1.9129   -2.0021   -0.4021 H   0  0  0  0  0  0  0  0  0  0  0  0
   -2.8452    0.9694   -1.3675 H   0  0  0  0  0  0  0  0  0  0  0  0
   -1.9679    2.1514   -0.2659 H   0  0  0  0  0  0  0  0  0  0  0  0
  1  2  1  0
  2  3  1  0
  3  4  1  0
  4  5  1  0
  5  6  1  0
  6  7  1  0
  7  8  1  0
  6  3  1  0
  8  6  1  0
  1  9  1  0
  1 10  1  0
  1 11  1  0
  2 12  1  0
  2 13  1  0
  3 14  1  0
  4 15  1  0
  4 16  1  0
  5 17  1  0
  5 18  1  0
  7 19  1  0
  7 20  1  0
M  END
