
     RDKit          3D

 23 23  0  0  0  0  0  0  0  0999 V2000
    2.8979    0.3960   -0.0928 C   0  0  0  0  0  0  0  0  0  0  0  0
    1.9491   -0.7143   -0.4449 C   0  0  0  0  0  0  0  0  0  0  0  0
    0.7017   -0.5118    0.4504 C   0  0  0  0  0  0  0  0  0  0  0  0
    0.0383    0.7262    0.2702 C   0  0  0  0  0  0  0  0  0  0  0  0
   -1.0252    1.6543   -0.0193 C   0  0  0  0  0  0  0  0  0  0  0  0
   -2.2601    0.8522   -0.4686 C   0  0  0  0  0  0  0  0  0  0  0  0
   -2.3296   -0.4702   -0.2333 C   0  0  0  0  0  0  0  0  0  0  0  0
   -1.4612   -1.4555    0.3991 C   0  0  0  0  0  0  0  0  0  0  0  0
   -0.1438   -1.6178    0.0932 O   0  0  0  0  0  0  0  0  0  0  0  0
    2.4480    1.3406   -0.5015 H   0  0  0  0  0  0  0  0  0  0  0  0
    3.9054    0.2756   -0.5143 H   0  0  0  0  0  0  0  0  0  0  0  0
    2.8952    0.5090    1.0193 H   0  0  0  0  0  0  0  0  0  0  0  0
    1.5705   -0.6365   -1.4976 H   0  0  0  0  0  0  0  0  0  0  0  0
    2.2947   -1.7171   -0.2192 H   0  0  0  0  0  0  0  0  0  0  0  0
    1.1524   -0.6785    1.4572 H   0  0  0  0  0  0  0  0  0  0  0  0
   -0.0791    0.3882   -0.8241 H   0  0  0  0  0  0  0  0  0  0  0  0
   -0.7037    0.3109    1.0514 H   0  0  0  0  0  0  0  0  0  0  0  0
   -0.8025    2.3993   -0.8402 H   0  0  0  0  0  0  0  0  0  0  0  0
   -1.3033    2.3503    0.8056 H   0  0  0  0  0  0  0  0  0  0  0  0
   -3.0163    1.3910   -0.9538 H   0  0  0  0  0  0  0  0  0  0  0  0
   -3.2759   -0.8441   -0.6232 H   0  0  0  0  0  0  0  0  0  0  0  0
   -1.8930   -2.4811    0.1551 H   0  0  0  0  0  0  0  0  0  0  0  0
   -1.5596   -1.4665    1.5313 H   0  0  0  0  0  0  0  0  0  0  0  0
  1  2  1  0
  2  3  1  0
  3  4  1  0
  4  5  1  0
  5  6  1  0
  6  7  2  0
  7  8  1  0
  8  9  1  0
  9  3  1  0
  1 10  1  0
  1 11  1  0
  1 12  1  0
  2 13  1  0
  2 14  1  0
  3 15  1  0
  4 16  1  0
  4 17  1  0
  5 18  1  0
  5 19  1  0
  6 20  1  0
  7 21  1  0
  8 22  1  0
  8 23  1  0
M  END
