
     RDKit          3D

 25 26  0  0  0  0  0  0  0  0999 V2000
    2.8559    0.2004   -0.2338 C   0  0  0  0  0  0  0  0  0  0  0  0
    1.5629   -0.5249   -0.5029 C   0  0  0  0  0  0  0  0  0  0  0  0
    0.4525   -0.0651    0.4055 C   0  0  0  0  0  0  0  0  0  0  0  0
    0.2421    1.4092    0.1741 C   0  0  0  0  0  0  0  0  0  0  0  0
   -1.2190    1.6613    0.3994 C   0  0  0  0  0  0  0  0  0  0  0  0
   -1.9320    0.3508    0.2691 C   0  0  0  0  0  0  0  0  0  0  0  0
   -1.8256   -0.7114    1.2844 C   0  0  0  0  0  0  0  0  0  0  0  0
   -0.8518   -0.7072    0.1475 C   0  0  0  0  0  0  0  0  0  0  0  0
   -1.0478   -1.6348   -1.0232 C   0  0  0  0  0  0  0  0  0  0  0  0
    2.8241    0.8142    0.6807 H   0  0  0  0  0  0  0  0  0  0  0  0
    3.7094   -0.5088   -0.1195 H   0  0  0  0  0  0  0  0  0  0  0  0
    3.1366    0.8709   -1.0772 H   0  0  0  0  0  0  0  0  0  0  0  0
    1.3120   -0.3854   -1.5603 H   0  0  0  0  0  0  0  0  0  0  0  0
    1.7388   -1.6214   -0.3417 H   0  0  0  0  0  0  0  0  0  0  0  0
    0.7566   -0.2055    1.4610 H   0  0  0  0  0  0  0  0  0  0  0  0
    0.5700    1.6607   -0.8478 H   0  0  0  0  0  0  0  0  0  0  0  0
    0.8123    2.0058    0.9035 H   0  0  0  0  0  0  0  0  0  0  0  0
   -1.4496    2.2141    1.3182 H   0  0  0  0  0  0  0  0  0  0  0  0
   -1.5642    2.3135   -0.4553 H   0  0  0  0  0  0  0  0  0  0  0  0
   -2.8138    0.2986   -0.4117 H   0  0  0  0  0  0  0  0  0  0  0  0
   -2.6238   -1.4743    1.3221 H   0  0  0  0  0  0  0  0  0  0  0  0
   -1.4238   -0.4761    2.3076 H   0  0  0  0  0  0  0  0  0  0  0  0
   -2.0960   -1.8370   -1.2154 H   0  0  0  0  0  0  0  0  0  0  0  0
   -0.4716   -2.5638   -0.9597 H   0  0  0  0  0  0  0  0  0  0  0  0
   -0.6541   -1.0836   -1.9248 H   0  0  0  0  0  0  0  0  0  0  0  0
  1  2  1  0
  2  3  1  0
  3  4  1  0
  4  5  1  0
  5  6  1  0
  6  7  1  0
  7  8  1  0
  8  9  1  0
  8  3  1  0
  8  6  1  0
  1 10  1  0
  1 11  1  0
  1 12  1  0
  2 13  1  0
  2 14  1  0
  3 15  1  0
  4 16  1  0
  4 17  1  0
  5 18  1  0
  5 19  1  0
  6 20  1  0
  7 21  1  0
  7 22  1  0
  9 23  1  0
  9 24  1  0
  9 25  1  0
M  END
