
     RDKit          3D

 19 20  0  0  0  0  0  0  0  0999 V2000
    2.3491    0.0033   -0.6019 C   0  0  0  0  0  0  0  0  0  0  0  0
    0.9820    0.6498   -0.5882 C   0  0  0  0  0  0  0  0  0  0  0  0
    0.2322    0.1530    0.5926 C   0  0  0  0  0  0  0  0  0  0  0  0
   -0.0123   -1.3185    0.6841 C   0  0  0  0  0  0  0  0  0  0  0  0
   -1.0874   -0.9894    1.5001 O   0  0  0  0  0  0  0  0  0  0  0  0
   -1.2362   -0.0775    0.4246 C   0  0  0  0  0  0  0  0  0  0  0  0
   -2.2331    0.8616    0.3237 C   0  0  0  0  0  0  0  0  0  0  0  0
   -0.9214   -1.1986   -0.4276 C   0  0  0  0  0  0  0  0  0  0  0  0
   -1.2131   -1.7354   -1.4433 O   0  0  0  0  0  0  0  0  0  0  0  0
    2.2909   -1.0883   -0.8054 H   0  0  0  0  0  0  0  0  0  0  0  0
    3.0295    0.4325   -1.3481 H   0  0  0  0  0  0  0  0  0  0  0  0
    2.7824    0.0895    0.4364 H   0  0  0  0  0  0  0  0  0  0  0  0
    0.4855    0.3634   -1.5418 H   0  0  0  0  0  0  0  0  0  0  0  0
    1.1140    1.7321   -0.5116 H   0  0  0  0  0  0  0  0  0  0  0  0
    0.5103    0.6124    1.5438 H   0  0  0  0  0  0  0  0  0  0  0  0
    0.6744   -2.0337    0.8807 H   0  0  0  0  0  0  0  0  0  0  0  0
   -2.6735    0.9727   -0.7123 H   0  0  0  0  0  0  0  0  0  0  0  0
   -1.9321    1.9091    0.6261 H   0  0  0  0  0  0  0  0  0  0  0  0
   -3.1413    0.6620    0.9680 H   0  0  0  0  0  0  0  0  0  0  0  0
  1  2  1  0
  2  3  1  0
  3  4  1  0
  4  5  1  0
  5  6  1  0
  6  7  1  0
  6  8  1  0
  8  9  2  0
  6  3  1  0
  8  4  1  0
  1 10  1  0
  1 11  1  0
  1 12  1  0
  2 13  1  0
  2 14  1  0
  3 15  1  0
  4 16  1  0
  7 17  1  0
  7 18  1  0
  7 19  1  0
M  END
