
     RDKit          3D

 23 24  0  0  0  0  0  0  0  0999 V2000
    2.3276   -0.3834   -0.1429 C   0  0  0  0  0  0  0  0  0  0  0  0
    0.9644   -0.8500    0.1051 C   0  0  0  0  0  0  0  0  0  0  0  0
   -0.1250    0.1921    0.2266 C   0  0  0  0  0  0  0  0  0  0  0  0
   -1.4079   -0.5372    0.4747 C   0  0  0  0  0  0  0  0  0  0  0  0
   -1.6990   -1.4809   -0.6935 C   0  0  0  0  0  0  0  0  0  0  0  0
    0.1989    1.3347    1.1670 C   0  0  0  0  0  0  0  0  0  0  0  0
   -0.6977    2.1171    0.2778 C   0  0  0  0  0  0  0  0  0  0  0  0
   -0.6687    2.3854   -1.0145 O   0  0  0  0  0  0  0  0  0  0  0  0
   -0.0556    1.2344   -0.8041 C   0  0  0  0  0  0  0  0  0  0  0  0
    2.5731   -0.5799   -1.2309 H   0  0  0  0  0  0  0  0  0  0  0  0
    3.1023   -1.0009    0.4009 H   0  0  0  0  0  0  0  0  0  0  0  0
    2.5851    0.6513    0.0341 H   0  0  0  0  0  0  0  0  0  0  0  0
    0.9383   -1.4346    1.0625 H   0  0  0  0  0  0  0  0  0  0  0  0
    0.6085   -1.5703   -0.6812 H   0  0  0  0  0  0  0  0  0  0  0  0
   -2.2789    0.0556    0.7272 H   0  0  0  0  0  0  0  0  0  0  0  0
   -1.2858   -1.2455    1.3529 H   0  0  0  0  0  0  0  0  0  0  0  0
   -2.8007   -1.5898   -0.7318 H   0  0  0  0  0  0  0  0  0  0  0  0
   -1.2255   -2.4499   -0.5454 H   0  0  0  0  0  0  0  0  0  0  0  0
   -1.3949   -1.0343   -1.6574 H   0  0  0  0  0  0  0  0  0  0  0  0
    1.2496    1.6220    1.2111 H   0  0  0  0  0  0  0  0  0  0  0  0
   -0.1919    1.1604    2.1672 H   0  0  0  0  0  0  0  0  0  0  0  0
   -1.7617    1.9630    0.5537 H   0  0  0  0  0  0  0  0  0  0  0  0
    1.0454    1.4407   -1.0341 H   0  0  0  0  0  0  0  0  0  0  0  0
  1  2  1  0
  2  3  1  0
  3  4  1  0
  4  5  1  0
  3  6  1  0
  6  7  1  0
  7  8  1  0
  8  9  1  0
  9  3  1  0
  9  7  1  0
  1 10  1  0
  1 11  1  0
  1 12  1  0
  2 13  1  0
  2 14  1  0
  4 15  1  0
  4 16  1  0
  5 17  1  0
  5 18  1  0
  5 19  1  0
  6 20  1  0
  6 21  1  0
  7 22  1  0
  9 23  1  0
M  END
