
     RDKit          3D

 21 22  0  0  0  0  0  0  0  0999 V2000
    2.4435   -0.2085    0.2143 C   0  0  0  0  0  0  0  0  0  0  0  0
    1.3494    0.7220   -0.2115 C   0  0  0  0  0  0  0  0  0  0  0  0
   -0.0127    0.0776   -0.2306 C   0  0  0  0  0  0  0  0  0  0  0  0
   -0.2827   -1.0924   -1.0966 C   0  0  0  0  0  0  0  0  0  0  0  0
   -0.3159   -1.1860    0.4210 C   0  0  0  0  0  0  0  0  0  0  0  0
   -1.6969   -1.0802    0.9405 C   0  0  0  0  0  0  0  0  0  0  0  0
   -2.1190    0.1557    0.8223 C   0  0  0  0  0  0  0  0  0  0  0  0
   -1.1033    0.9983    0.2297 C   0  0  0  0  0  0  0  0  0  0  0  0
   -1.5703    1.8105   -0.8070 O   0  0  0  0  0  0  0  0  0  0  0  0
    2.3595   -0.5355    1.2589 H   0  0  0  0  0  0  0  0  0  0  0  0
    2.5408   -1.0773   -0.4903 H   0  0  0  0  0  0  0  0  0  0  0  0
    3.4009    0.3447    0.1241 H   0  0  0  0  0  0  0  0  0  0  0  0
    1.5634    1.0559   -1.2491 H   0  0  0  0  0  0  0  0  0  0  0  0
    1.3761    1.6182    0.4247 H   0  0  0  0  0  0  0  0  0  0  0  0
   -1.2089   -1.1578   -1.6805 H   0  0  0  0  0  0  0  0  0  0  0  0
    0.6007   -1.5735   -1.5408 H   0  0  0  0  0  0  0  0  0  0  0  0
    0.4264   -1.8218    0.9282 H   0  0  0  0  0  0  0  0  0  0  0  0
   -2.2661   -1.9190    1.3578 H   0  0  0  0  0  0  0  0  0  0  0  0
   -3.1349    0.5222    1.1368 H   0  0  0  0  0  0  0  0  0  0  0  0
   -0.6484    1.6430    1.0425 H   0  0  0  0  0  0  0  0  0  0  0  0
   -1.7018    2.7040   -0.4347 H   0  0  0  0  0  0  0  0  0  0  0  0
  1  2  1  0
  2  3  1  0
  3  4  1  0
  4  5  1  0
  5  6  1  0
  6  7  2  0
  7  8  1  0
  8  9  1  0
  5  3  1  0
  8  3  1  0
  1 10  1  0
  1 11  1  0
  1 12  1  0
  2 13  1  0
  2 14  1  0
  4 15  1  0
  4 16  1  0
  5 17  1  0
  6 18  1  0
  7 19  1  0
  8 20  1  0
  9 21  1  0
M  END
