
     RDKit          3D

 23 23  0  0  0  0  0  0  0  0999 V2000
   -2.6515   -0.0807    0.6021 C   0  0  0  0  0  0  0  0  0  0  0  0
   -1.7804   -0.7644   -0.4329 C   0  0  0  0  0  0  0  0  0  0  0  0
   -0.3227   -0.6490   -0.0969 C   0  0  0  0  0  0  0  0  0  0  0  0
    0.4402   -1.2936   -1.0785 O   0  0  0  0  0  0  0  0  0  0  0  0
    1.4695   -0.3864   -0.7231 C   0  0  0  0  0  0  0  0  0  0  0  0
    2.1840   -0.9142    0.4792 C   0  0  0  0  0  0  0  0  0  0  0  0
    0.3677    0.6130   -0.4905 C   0  0  0  0  0  0  0  0  0  0  0  0
    0.6662    1.6079    0.5617 C   0  0  0  0  0  0  0  0  0  0  0  0
   -0.0100    1.1943   -1.6823 O   0  0  0  0  0  0  0  0  0  0  0  0
   -3.2013   -0.8109    1.2396 H   0  0  0  0  0  0  0  0  0  0  0  0
   -3.4216    0.5334    0.1033 H   0  0  0  0  0  0  0  0  0  0  0  0
   -2.0481    0.5332    1.3030 H   0  0  0  0  0  0  0  0  0  0  0  0
   -2.0259   -1.8627   -0.3718 H   0  0  0  0  0  0  0  0  0  0  0  0
   -2.0291   -0.4533   -1.4490 H   0  0  0  0  0  0  0  0  0  0  0  0
   -0.1141   -0.9274    0.9362 H   0  0  0  0  0  0  0  0  0  0  0  0
    2.0949   -0.1273   -1.5784 H   0  0  0  0  0  0  0  0  0  0  0  0
    2.0031   -0.3304    1.3994 H   0  0  0  0  0  0  0  0  0  0  0  0
    3.3036   -0.9295    0.3533 H   0  0  0  0  0  0  0  0  0  0  0  0
    1.9141   -1.9660    0.7194 H   0  0  0  0  0  0  0  0  0  0  0  0
    0.6953    1.2342    1.5834 H   0  0  0  0  0  0  0  0  0  0  0  0
   -0.0303    2.4723    0.5374 H   0  0  0  0  0  0  0  0  0  0  0  0
    1.6807    2.0542    0.3451 H   0  0  0  0  0  0  0  0  0  0  0  0
    0.8160    1.2534   -2.2597 H   0  0  0  0  0  0  0  0  0  0  0  0
  1  2  1  0
  2  3  1  0
  3  4  1  0
  4  5  1  0
  5  6  1  0
  5  7  1  0
  7  8  1  0
  7  9  1  0
  7  3  1  0
  1 10  1  0
  1 11  1  0
  1 12  1  0
  2 13  1  0
  2 14  1  0
  3 15  1  0
  5 16  1  0
  6 17  1  0
  6 18  1  0
  6 19  1  0
  8 20  1  0
  8 21  1  0
  8 22  1  0
  9 23  1  0
M  END
