
     RDKit          3D

 25 25  0  0  0  0  0  0  0  0999 V2000
    1.5066    1.5880    0.8544 C   0  0  0  0  0  0  0  0  0  0  0  0
    1.4631    0.3683    0.0464 C   0  0  0  0  0  0  0  0  0  0  0  0
    0.2119   -0.3785   -0.1007 C   0  0  0  0  0  0  0  0  0  0  0  0
    0.4523   -1.6110   -0.9960 C   0  0  0  0  0  0  0  0  0  0  0  0
    0.8908   -1.2583   -2.2448 O   0  0  0  0  0  0  0  0  0  0  0  0
   -0.9196   -0.4850    0.7820 C   0  0  0  0  0  0  0  0  0  0  0  0
   -0.9653    0.0177    2.1994 C   0  0  0  0  0  0  0  0  0  0  0  0
   -0.9996    0.4557   -0.3648 C   0  0  0  0  0  0  0  0  0  0  0  0
   -1.7767    0.1562   -1.6052 C   0  0  0  0  0  0  0  0  0  0  0  0
    1.7069    1.3467    1.9422 H   0  0  0  0  0  0  0  0  0  0  0  0
    0.6994    2.3068    0.7325 H   0  0  0  0  0  0  0  0  0  0  0  0
    2.4456    2.1568    0.5627 H   0  0  0  0  0  0  0  0  0  0  0  0
    1.8301    0.6168   -0.9957 H   0  0  0  0  0  0  0  0  0  0  0  0
    2.2568   -0.3367    0.4331 H   0  0  0  0  0  0  0  0  0  0  0  0
   -0.3872   -2.3017   -0.9697 H   0  0  0  0  0  0  0  0  0  0  0  0
    1.2924   -2.1434   -0.4565 H   0  0  0  0  0  0  0  0  0  0  0  0
    1.8700   -1.3511   -2.3115 H   0  0  0  0  0  0  0  0  0  0  0  0
   -1.6004   -1.3595    0.6765 H   0  0  0  0  0  0  0  0  0  0  0  0
   -2.0075   -0.0346    2.5950 H   0  0  0  0  0  0  0  0  0  0  0  0
   -0.6438    1.0581    2.3199 H   0  0  0  0  0  0  0  0  0  0  0  0
   -0.3554   -0.6544    2.8369 H   0  0  0  0  0  0  0  0  0  0  0  0
   -0.9952    1.5125   -0.0590 H   0  0  0  0  0  0  0  0  0  0  0  0
   -1.6925    1.0398   -2.2760 H   0  0  0  0  0  0  0  0  0  0  0  0
   -1.4171   -0.6999   -2.1803 H   0  0  0  0  0  0  0  0  0  0  0  0
   -2.8656   -0.0093   -1.4206 H   0  0  0  0  0  0  0  0  0  0  0  0
  1  2  1  0
  2  3  1  0
  3  4  1  0
  4  5  1  0
  3  6  1  0
  6  7  1  0
  6  8  1  0
  8  9  1  0
  8  3  1  0
  1 10  1  0
  1 11  1  0
  1 12  1  0
  2 13  1  0
  2 14  1  0
  4 15  1  0
  4 16  1  0
  5 17  1  0
  6 18  1  0
  7 19  1  0
  7 20  1  0
  7 21  1  0
  8 22  1  0
  9 23  1  0
  9 24  1  0
  9 25  1  0
M  END
