
     RDKit          3D

 20 21  0  0  0  0  0  0  0  0999 V2000
    2.7776   -0.0409    0.2846 C   0  0  0  0  0  0  0  0  0  0  0  0
    1.5895    0.1878   -0.6092 C   0  0  0  0  0  0  0  0  0  0  0  0
    0.2870    0.1401    0.1317 C   0  0  0  0  0  0  0  0  0  0  0  0
    0.0432   -1.0595    0.7580 O   0  0  0  0  0  0  0  0  0  0  0  0
   -1.3191   -1.0303    1.0522 C   0  0  0  0  0  0  0  0  0  0  0  0
   -2.0237   -0.4530   -0.1364 C   0  0  0  0  0  0  0  0  0  0  0  0
   -2.0295    1.0330   -0.3765 C   0  0  0  0  0  0  0  0  0  0  0  0
   -0.8469    0.2608   -0.8494 C   0  0  0  0  0  0  0  0  0  0  0  0
    2.9096    0.9034    0.8901 H   0  0  0  0  0  0  0  0  0  0  0  0
    3.6769   -0.1236   -0.3370 H   0  0  0  0  0  0  0  0  0  0  0  0
    2.5890   -0.8743    0.9591 H   0  0  0  0  0  0  0  0  0  0  0  0
    1.6895    1.2086   -1.0377 H   0  0  0  0  0  0  0  0  0  0  0  0
    1.6404   -0.5137   -1.4628 H   0  0  0  0  0  0  0  0  0  0  0  0
    0.2759    0.9964    0.8415 H   0  0  0  0  0  0  0  0  0  0  0  0
   -1.6622   -2.0919    1.1509 H   0  0  0  0  0  0  0  0  0  0  0  0
   -1.5489   -0.5347    2.0018 H   0  0  0  0  0  0  0  0  0  0  0  0
   -2.6757   -1.0884   -0.7551 H   0  0  0  0  0  0  0  0  0  0  0  0
   -1.8672    1.7097    0.4876 H   0  0  0  0  0  0  0  0  0  0  0  0
   -2.7913    1.3952   -1.0918 H   0  0  0  0  0  0  0  0  0  0  0  0
   -0.7141   -0.0248   -1.9018 H   0  0  0  0  0  0  0  0  0  0  0  0
  1  2  1  0
  2  3  1  0
  3  4  1  0
  4  5  1  0
  5  6  1  0
  6  7  1  0
  7  8  1  0
  8  3  1  0
  8  6  1  0
  1  9  1  0
  1 10  1  0
  1 11  1  0
  2 12  1  0
  2 13  1  0
  3 14  1  0
  5 15  1  0
  5 16  1  0
  6 17  1  0
  7 18  1  0
  7 19  1  0
  8 20  1  0
M  END
