
     RDKit          3D

 20 21  0  0  0  0  0  0  0  0999 V2000
    2.1351    0.7420    0.5600 C   0  0  0  0  0  0  0  0  0  0  0  0
    1.2886   -0.5249    0.3867 C   0  0  0  0  0  0  0  0  0  0  0  0
    0.3155   -0.3071   -0.7118 C   0  0  0  0  0  0  0  0  0  0  0  0
   -0.6283   -1.3638   -1.1124 C   0  0  0  0  0  0  0  0  0  0  0  0
   -1.3604   -1.2052    0.1591 C   0  0  0  0  0  0  0  0  0  0  0  0
   -1.0359    0.1587   -0.3134 C   0  0  0  0  0  0  0  0  0  0  0  0
   -1.4208    1.3711    0.2044 C   0  0  0  0  0  0  0  0  0  0  0  0
   -1.4322   -0.3260   -1.5953 O   0  0  0  0  0  0  0  0  0  0  0  0
    2.3006    0.9695    1.6170 H   0  0  0  0  0  0  0  0  0  0  0  0
    3.1389    0.5771    0.0777 H   0  0  0  0  0  0  0  0  0  0  0  0
    1.6503    1.5890    0.0540 H   0  0  0  0  0  0  0  0  0  0  0  0
    1.9928   -1.3579    0.1990 H   0  0  0  0  0  0  0  0  0  0  0  0
    0.8243   -0.6983    1.3740 H   0  0  0  0  0  0  0  0  0  0  0  0
    0.7265    0.2598   -1.5900 H   0  0  0  0  0  0  0  0  0  0  0  0
   -0.4362   -2.2190   -1.6224 H   0  0  0  0  0  0  0  0  0  0  0  0
   -0.8829   -1.5888    1.0653 H   0  0  0  0  0  0  0  0  0  0  0  0
   -2.4726   -1.4279    0.1103 H   0  0  0  0  0  0  0  0  0  0  0  0
   -0.6669    2.1963    0.0991 H   0  0  0  0  0  0  0  0  0  0  0  0
   -2.3532    1.8077   -0.2660 H   0  0  0  0  0  0  0  0  0  0  0  0
   -1.6834    1.3476    1.3049 H   0  0  0  0  0  0  0  0  0  0  0  0
  1  2  1  0
  2  3  1  0
  3  4  1  0
  4  5  1  0
  5  6  1  0
  6  7  1  0
  6  8  1  0
  6  3  1  0
  8  4  1  0
  1  9  1  0
  1 10  1  0
  1 11  1  0
  2 12  1  0
  2 13  1  0
  3 14  1  0
  4 15  1  0
  5 16  1  0
  5 17  1  0
  7 18  1  0
  7 19  1  0
  7 20  1  0
M  END
