
     RDKit          3D

 27 27  0  0  0  0  0  0  0  0999 V2000
   -2.8553    1.0594   -0.4511 C   0  0  0  0  0  0  0  0  0  0  0  0
   -2.2015   -0.1770    0.1157 C   0  0  0  0  0  0  0  0  0  0  0  0
   -0.8422    0.1208    0.7079 C   0  0  0  0  0  0  0  0  0  0  0  0
    0.1350    0.6868   -0.2847 C   0  0  0  0  0  0  0  0  0  0  0  0
    1.1314   -0.3407    0.1324 C   0  0  0  0  0  0  0  0  0  0  0  0
    2.2223    0.2633    1.0006 C   0  0  0  0  0  0  0  0  0  0  0  0
    2.9110    1.3282    0.1934 C   0  0  0  0  0  0  0  0  0  0  0  0
    0.0498   -1.0518    0.9163 C   0  0  0  0  0  0  0  0  0  0  0  0
   -0.3404   -2.3219    0.1991 C   0  0  0  0  0  0  0  0  0  0  0  0
   -3.8958    0.7871   -0.7256 H   0  0  0  0  0  0  0  0  0  0  0  0
   -2.3685    1.4077   -1.3928 H   0  0  0  0  0  0  0  0  0  0  0  0
   -2.9390    1.8753    0.2965 H   0  0  0  0  0  0  0  0  0  0  0  0
   -2.8669   -0.5826    0.8909 H   0  0  0  0  0  0  0  0  0  0  0  0
   -2.0434   -0.8769   -0.7364 H   0  0  0  0  0  0  0  0  0  0  0  0
   -0.9088    0.7719    1.6223 H   0  0  0  0  0  0  0  0  0  0  0  0
   -0.2666    0.5916   -1.3136 H   0  0  0  0  0  0  0  0  0  0  0  0
    0.4553    1.7330   -0.1129 H   0  0  0  0  0  0  0  0  0  0  0  0
    1.5897   -0.9408   -0.6810 H   0  0  0  0  0  0  0  0  0  0  0  0
    1.7961    0.6423    1.9503 H   0  0  0  0  0  0  0  0  0  0  0  0
    2.9164   -0.5488    1.2625 H   0  0  0  0  0  0  0  0  0  0  0  0
    2.6782    1.2665   -0.8924 H   0  0  0  0  0  0  0  0  0  0  0  0
    4.0128    1.2053    0.2875 H   0  0  0  0  0  0  0  0  0  0  0  0
    2.6146    2.3481    0.5391 H   0  0  0  0  0  0  0  0  0  0  0  0
    0.3695   -1.1939    1.9729 H   0  0  0  0  0  0  0  0  0  0  0  0
   -0.0939   -2.3030   -0.8821 H   0  0  0  0  0  0  0  0  0  0  0  0
    0.1686   -3.2098    0.6278 H   0  0  0  0  0  0  0  0  0  0  0  0
   -1.4282   -2.5401    0.2673 H   0  0  0  0  0  0  0  0  0  0  0  0
  1  2  1  0
  2  3  1  0
  3  4  1  0
  4  5  1  0
  5  6  1  0
  6  7  1  0
  5  8  1  0
  8  9  1  0
  8  3  1  0
  1 10  1  0
  1 11  1  0
  1 12  1  0
  2 13  1  0
  2 14  1  0
  3 15  1  0
  4 16  1  0
  4 17  1  0
  5 18  1  0
  6 19  1  0
  6 20  1  0
  7 21  1  0
  7 22  1  0
  7 23  1  0
  8 24  1  0
  9 25  1  0
  9 26  1  0
  9 27  1  0
M  END
