
     RDKit          3D

 19 21  0  0  0  0  0  0  0  0999 V2000
   -2.5289    0.2210    0.4865 C   0  0  0  0  0  0  0  0  0  0  0  0
   -1.1235   -0.3444    0.6964 C   0  0  0  0  0  0  0  0  0  0  0  0
   -0.2630    0.0063   -0.4337 C   0  0  0  0  0  0  0  0  0  0  0  0
   -0.5762   -0.3957   -1.6671 O   0  0  0  0  0  0  0  0  0  0  0  0
    0.5577   -1.0339   -1.1916 C   0  0  0  0  0  0  0  0  0  0  0  0
    1.4230   -0.7632   -0.0461 C   0  0  0  0  0  0  0  0  0  0  0  0
    2.2879    0.2992    0.3177 C   0  0  0  0  0  0  0  0  0  0  0  0
    1.0448    0.7383   -0.2809 C   0  0  0  0  0  0  0  0  0  0  0  0
    1.3743    1.3659   -1.4812 O   0  0  0  0  0  0  0  0  0  0  0  0
   -3.1968   -0.1878    1.2824 H   0  0  0  0  0  0  0  0  0  0  0  0
   -2.5201    1.3262    0.6554 H   0  0  0  0  0  0  0  0  0  0  0  0
   -2.9146    0.0097   -0.5201 H   0  0  0  0  0  0  0  0  0  0  0  0
   -0.7440    0.1458    1.6206 H   0  0  0  0  0  0  0  0  0  0  0  0
   -1.2499   -1.4099    0.9211 H   0  0  0  0  0  0  0  0  0  0  0  0
    0.2384   -2.1261   -1.2198 H   0  0  0  0  0  0  0  0  0  0  0  0
    0.9148   -1.1573    0.9046 H   0  0  0  0  0  0  0  0  0  0  0  0
    2.4424    0.6998    1.3645 H   0  0  0  0  0  0  0  0  0  0  0  0
    3.3048    0.2794   -0.1788 H   0  0  0  0  0  0  0  0  0  0  0  0
    1.5290    2.3267   -1.2300 H   0  0  0  0  0  0  0  0  0  0  0  0
  1  2  1  0
  2  3  1  0
  3  4  1  0
  4  5  1  0
  5  6  1  0
  6  7  1  0
  7  8  1  0
  8  9  1  0
  5  3  1  0
  8  6  1  0
  8  3  1  0
  1 10  1  0
  1 11  1  0
  1 12  1  0
  2 13  1  0
  2 14  1  0
  5 15  1  0
  6 16  1  0
  7 17  1  0
  7 18  1  0
  9 19  1  0
M  END
