
     RDKit          3D

 23 25  0  0  0  0  0  0  0  0999 V2000
    2.7201   -0.2890   -0.3746 C   0  0  0  0  0  0  0  0  0  0  0  0
    1.3872   -0.0778   -1.0136 C   0  0  0  0  0  0  0  0  0  0  0  0
    0.2898    0.2104   -0.0228 C   0  0  0  0  0  0  0  0  0  0  0  0
   -0.0157   -0.8045    1.0175 C   0  0  0  0  0  0  0  0  0  0  0  0
   -0.9867   -0.5211   -0.0284 C   0  0  0  0  0  0  0  0  0  0  0  0
   -1.3741   -1.4785   -1.1043 C   0  0  0  0  0  0  0  0  0  0  0  0
   -1.8022    0.7278    0.0802 C   0  0  0  0  0  0  0  0  0  0  0  0
   -1.4193    1.8378    0.9630 C   0  0  0  0  0  0  0  0  0  0  0  0
   -0.4566    1.5067   -0.0888 C   0  0  0  0  0  0  0  0  0  0  0  0
    2.7685    0.0522    0.6865 H   0  0  0  0  0  0  0  0  0  0  0  0
    3.0216   -1.3624   -0.4813 H   0  0  0  0  0  0  0  0  0  0  0  0
    3.5388    0.2845   -0.8935 H   0  0  0  0  0  0  0  0  0  0  0  0
    1.4897    0.8181   -1.6943 H   0  0  0  0  0  0  0  0  0  0  0  0
    1.1631   -0.9235   -1.6797 H   0  0  0  0  0  0  0  0  0  0  0  0
   -0.1533   -0.3986    2.0411 H   0  0  0  0  0  0  0  0  0  0  0  0
    0.5635   -1.7419    0.9423 H   0  0  0  0  0  0  0  0  0  0  0  0
   -0.5553   -2.0178   -1.5744 H   0  0  0  0  0  0  0  0  0  0  0  0
   -2.1153   -2.2165   -0.6990 H   0  0  0  0  0  0  0  0  0  0  0  0
   -1.9255   -0.9195   -1.8918 H   0  0  0  0  0  0  0  0  0  0  0  0
   -2.5671    0.8959   -0.6806 H   0  0  0  0  0  0  0  0  0  0  0  0
   -2.0110    2.7683    0.8614 H   0  0  0  0  0  0  0  0  0  0  0  0
   -1.1658    1.5994    2.0131 H   0  0  0  0  0  0  0  0  0  0  0  0
   -0.3945    2.0499   -1.0430 H   0  0  0  0  0  0  0  0  0  0  0  0
  1  2  1  0
  2  3  1  0
  3  4  1  0
  4  5  1  0
  5  6  1  0
  5  7  1  0
  7  8  1  0
  8  9  1  0
  5  3  1  0
  9  7  1  0
  9  3  1  0
  1 10  1  0
  1 11  1  0
  1 12  1  0
  2 13  1  0
  2 14  1  0
  4 15  1  0
  4 16  1  0
  6 17  1  0
  6 18  1  0
  6 19  1  0
  7 20  1  0
  8 21  1  0
  8 22  1  0
  9 23  1  0
M  END
