
     RDKit          3D

 19 20  0  0  0  0  0  0  0  0999 V2000
    2.2025   -0.2392    0.2700 C   0  0  0  0  0  0  0  0  0  0  0  0
    1.1134    0.1392   -0.6568 C   0  0  0  0  0  0  0  0  0  0  0  0
   -0.2531    0.1992   -0.1209 C   0  0  0  0  0  0  0  0  0  0  0  0
   -0.5536    1.1359    0.9908 C   0  0  0  0  0  0  0  0  0  0  0  0
   -1.0794    0.0480    1.7151 O   0  0  0  0  0  0  0  0  0  0  0  0
   -0.8385   -0.8432    0.6903 C   0  0  0  0  0  0  0  0  0  0  0  0
   -1.9648   -0.9801   -0.2847 C   0  0  0  0  0  0  0  0  0  0  0  0
   -2.9724   -1.6552   -0.4035 O   0  0  0  0  0  0  0  0  0  0  0  0
   -1.3506    0.1055   -1.1313 C   0  0  0  0  0  0  0  0  0  0  0  0
    2.6704    0.6546    0.7658 H   0  0  0  0  0  0  0  0  0  0  0  0
    1.9123   -0.9127    1.0955 H   0  0  0  0  0  0  0  0  0  0  0  0
    3.0500   -0.7490   -0.2530 H   0  0  0  0  0  0  0  0  0  0  0  0
    1.3702    1.1545   -1.0827 H   0  0  0  0  0  0  0  0  0  0  0  0
    1.1324   -0.5427   -1.5333 H   0  0  0  0  0  0  0  0  0  0  0  0
   -1.3504    1.8853    0.7760 H   0  0  0  0  0  0  0  0  0  0  0  0
    0.3068    1.6357    1.4747 H   0  0  0  0  0  0  0  0  0  0  0  0
   -0.3128   -1.7644    0.9303 H   0  0  0  0  0  0  0  0  0  0  0  0
   -1.0803   -0.2751   -2.1265 H   0  0  0  0  0  0  0  0  0  0  0  0
   -2.0020    1.0036   -1.1158 H   0  0  0  0  0  0  0  0  0  0  0  0
  1  2  1  0
  2  3  1  0
  3  4  1  0
  4  5  1  0
  5  6  1  0
  6  7  1  0
  7  8  2  0
  7  9  1  0
  6  3  1  0
  9  3  1  0
  1 10  1  0
  1 11  1  0
  1 12  1  0
  2 13  1  0
  2 14  1  0
  4 15  1  0
  4 16  1  0
  6 17  1  0
  9 18  1  0
  9 19  1  0
M  END
