
     RDKit          3D

 21 22  0  0  0  0  0  0  0  0999 V2000
    2.7262    0.7142   -0.3470 C   0  0  0  0  0  0  0  0  0  0  0  0
    1.3419    0.7022    0.3125 C   0  0  0  0  0  0  0  0  0  0  0  0
    0.4467   -0.1153   -0.5509 C   0  0  0  0  0  0  0  0  0  0  0  0
   -0.9707   -0.2777   -0.1147 C   0  0  0  0  0  0  0  0  0  0  0  0
   -1.9060    0.2832   -0.9524 O   0  0  0  0  0  0  0  0  0  0  0  0
   -2.8398    0.9896   -0.1773 C   0  0  0  0  0  0  0  0  0  0  0  0
   -0.7913   -1.7752   -0.2404 C   0  0  0  0  0  0  0  0  0  0  0  0
   -0.1344   -2.3361   -1.2919 O   0  0  0  0  0  0  0  0  0  0  0  0
    0.5829   -1.6293   -0.3657 C   0  0  0  0  0  0  0  0  0  0  0  0
    3.2638    1.6279   -0.0498 H   0  0  0  0  0  0  0  0  0  0  0  0
    3.3008   -0.1831   -0.0441 H   0  0  0  0  0  0  0  0  0  0  0  0
    2.5356    0.7237   -1.4564 H   0  0  0  0  0  0  0  0  0  0  0  0
    0.9901    1.7503    0.2845 H   0  0  0  0  0  0  0  0  0  0  0  0
    1.3773    0.2688    1.3149 H   0  0  0  0  0  0  0  0  0  0  0  0
    0.5432    0.1704   -1.6167 H   0  0  0  0  0  0  0  0  0  0  0  0
   -1.1535   -0.0539    0.9778 H   0  0  0  0  0  0  0  0  0  0  0  0
   -3.3595    0.3247    0.5441 H   0  0  0  0  0  0  0  0  0  0  0  0
   -3.6198    1.4516   -0.8159 H   0  0  0  0  0  0  0  0  0  0  0  0
   -2.3528    1.8479    0.3577 H   0  0  0  0  0  0  0  0  0  0  0  0
   -1.4111   -2.4511    0.3566 H   0  0  0  0  0  0  0  0  0  0  0  0
    1.4302   -2.0328    0.1757 H   0  0  0  0  0  0  0  0  0  0  0  0
  1  2  1  0
  2  3  1  0
  3  4  1  0
  4  5  1  0
  5  6  1  0
  4  7  1  0
  7  8  1  0
  8  9  1  0
  9  3  1  0
  9  7  1  0
  1 10  1  0
  1 11  1  0
  1 12  1  0
  2 13  1  0
  2 14  1  0
  3 15  1  0
  4 16  1  0
  6 17  1  0
  6 18  1  0
  6 19  1  0
  7 20  1  0
  9 21  1  0
M  END
