
     RDKit          3D

 23 24  0  0  0  0  0  0  0  0999 V2000
    2.5657   -0.5647    0.3254 C   0  0  0  0  0  0  0  0  0  0  0  0
    1.4524   -0.0422   -0.5801 C   0  0  0  0  0  0  0  0  0  0  0  0
    0.2435    0.1420    0.2480 C   0  0  0  0  0  0  0  0  0  0  0  0
    0.3178    1.0390    1.3326 O   0  0  0  0  0  0  0  0  0  0  0  0
   -0.6741    1.1191    0.3859 C   0  0  0  0  0  0  0  0  0  0  0  0
   -0.8953    2.4388   -0.2370 C   0  0  0  0  0  0  0  0  0  0  0  0
   -1.8264    0.1091    0.4700 C   0  0  0  0  0  0  0  0  0  0  0  0
   -0.7377   -0.9729    0.4861 C   0  0  0  0  0  0  0  0  0  0  0  0
   -0.8612   -1.9759   -0.6240 C   0  0  0  0  0  0  0  0  0  0  0  0
    2.0746   -1.2150    1.0910 H   0  0  0  0  0  0  0  0  0  0  0  0
    3.0225    0.3189    0.8391 H   0  0  0  0  0  0  0  0  0  0  0  0
    3.3349   -1.1072   -0.2478 H   0  0  0  0  0  0  0  0  0  0  0  0
    1.8063    0.9313   -0.9801 H   0  0  0  0  0  0  0  0  0  0  0  0
    1.2358   -0.7687   -1.3870 H   0  0  0  0  0  0  0  0  0  0  0  0
   -0.6037    3.2321    0.5113 H   0  0  0  0  0  0  0  0  0  0  0  0
   -0.3266    2.6499   -1.1406 H   0  0  0  0  0  0  0  0  0  0  0  0
   -2.0011    2.6114   -0.3866 H   0  0  0  0  0  0  0  0  0  0  0  0
   -2.4357    0.0682   -0.4311 H   0  0  0  0  0  0  0  0  0  0  0  0
   -2.3353    0.2419    1.4287 H   0  0  0  0  0  0  0  0  0  0  0  0
   -0.6515   -1.4551    1.4586 H   0  0  0  0  0  0  0  0  0  0  0  0
   -1.6623   -2.6967   -0.3182 H   0  0  0  0  0  0  0  0  0  0  0  0
   -1.1195   -1.5396   -1.5993 H   0  0  0  0  0  0  0  0  0  0  0  0
    0.0768   -2.5638   -0.6452 H   0  0  0  0  0  0  0  0  0  0  0  0
  1  2  1  0
  2  3  1  0
  3  4  1  0
  4  5  1  0
  5  6  1  0
  5  7  1  0
  7  8  1  0
  8  9  1  0
  5  3  1  0
  8  3  1  0
  1 10  1  0
  1 11  1  0
  1 12  1  0
  2 13  1  0
  2 14  1  0
  6 15  1  0
  6 16  1  0
  6 17  1  0
  7 18  1  0
  7 19  1  0
  8 20  1  0
  9 21  1  0
  9 22  1  0
  9 23  1  0
M  END
