
     RDKit          3D

 20 20  0  0  0  0  0  0  0  0999 V2000
   -2.4498   -0.6939   -0.2115 C   0  0  0  0  0  0  0  0  0  0  0  0
   -1.4660    0.4558   -0.2309 C   0  0  0  0  0  0  0  0  0  0  0  0
   -0.1796    0.0665    0.4591 C   0  0  0  0  0  0  0  0  0  0  0  0
    0.7788    1.2197    0.4276 C   0  0  0  0  0  0  0  0  0  0  0  0
    2.1837    0.6100    0.3796 C   0  0  0  0  0  0  0  0  0  0  0  0
    1.9360   -0.8302    0.2304 C   0  0  0  0  0  0  0  0  0  0  0  0
    2.6750   -1.7295    0.5094 O   0  0  0  0  0  0  0  0  0  0  0  0
    0.5839   -0.9808   -0.3374 C   0  0  0  0  0  0  0  0  0  0  0  0
   -3.4498   -0.2877   -0.4976 H   0  0  0  0  0  0  0  0  0  0  0  0
   -2.4814   -1.1099    0.7946 H   0  0  0  0  0  0  0  0  0  0  0  0
   -2.1596   -1.3906   -1.0062 H   0  0  0  0  0  0  0  0  0  0  0  0
   -1.2166    0.7436   -1.2556 H   0  0  0  0  0  0  0  0  0  0  0  0
   -1.8694    1.3290    0.3307 H   0  0  0  0  0  0  0  0  0  0  0  0
   -0.3550   -0.3358    1.4648 H   0  0  0  0  0  0  0  0  0  0  0  0
    0.6739    1.8946    1.3050 H   0  0  0  0  0  0  0  0  0  0  0  0
    0.6042    1.8411   -0.4682 H   0  0  0  0  0  0  0  0  0  0  0  0
    2.7463    0.8740    1.2965 H   0  0  0  0  0  0  0  0  0  0  0  0
    2.7230    1.0675   -0.4710 H   0  0  0  0  0  0  0  0  0  0  0  0
    0.1545   -1.9935   -0.1616 H   0  0  0  0  0  0  0  0  0  0  0  0
    0.5678   -0.7498   -1.4238 H   0  0  0  0  0  0  0  0  0  0  0  0
  1  2  1  0
  2  3  1  0
  3  4  1  0
  4  5  1  0
  5  6  1  0
  6  7  2  0
  6  8  1  0
  8  3  1  0
  1  9  1  0
  1 10  1  0
  1 11  1  0
  2 12  1  0
  2 13  1  0
  3 14  1  0
  4 15  1  0
  4 16  1  0
  5 17  1  0
  5 18  1  0
  8 19  1  0
  8 20  1  0
M  END
