
     RDKit          3D

 23 24  0  0  0  0  0  0  0  0999 V2000
    2.9316    0.8940    0.1740 C   0  0  0  0  0  0  0  0  0  0  0  0
    1.8539    0.1133    0.9060 C   0  0  0  0  0  0  0  0  0  0  0  0
    0.9066   -0.5413   -0.0665 C   0  0  0  0  0  0  0  0  0  0  0  0
    0.1766    0.4435   -0.9826 C   0  0  0  0  0  0  0  0  0  0  0  0
   -0.5256   -0.3851    0.0556 C   0  0  0  0  0  0  0  0  0  0  0  0
   -1.5366   -1.3718   -0.4279 C   0  0  0  0  0  0  0  0  0  0  0  0
   -2.8109   -0.5796   -0.2506 C   0  0  0  0  0  0  0  0  0  0  0  0
   -2.6230    0.3542    0.6673 C   0  0  0  0  0  0  0  0  0  0  0  0
   -1.2339    0.2855    1.1884 C   0  0  0  0  0  0  0  0  0  0  0  0
    2.5044    1.4908   -0.6463 H   0  0  0  0  0  0  0  0  0  0  0  0
    3.5099    1.4846    0.9021 H   0  0  0  0  0  0  0  0  0  0  0  0
    3.5844    0.1231   -0.3138 H   0  0  0  0  0  0  0  0  0  0  0  0
    1.3065    0.8356    1.5660 H   0  0  0  0  0  0  0  0  0  0  0  0
    2.3332   -0.6178    1.5864 H   0  0  0  0  0  0  0  0  0  0  0  0
    1.3153   -1.4567   -0.5429 H   0  0  0  0  0  0  0  0  0  0  0  0
    0.2304    1.5298   -0.7061 H   0  0  0  0  0  0  0  0  0  0  0  0
    0.1333    0.1842   -2.0429 H   0  0  0  0  0  0  0  0  0  0  0  0
   -1.3739   -1.6414   -1.4881 H   0  0  0  0  0  0  0  0  0  0  0  0
   -1.5551   -2.3003    0.1714 H   0  0  0  0  0  0  0  0  0  0  0  0
   -3.7039   -0.7967   -0.8204 H   0  0  0  0  0  0  0  0  0  0  0  0
   -3.3597    1.0648    0.9968 H   0  0  0  0  0  0  0  0  0  0  0  0
   -1.2434   -0.3922    2.0763 H   0  0  0  0  0  0  0  0  0  0  0  0
   -0.8202    1.2794    1.4452 H   0  0  0  0  0  0  0  0  0  0  0  0
  1  2  1  0
  2  3  1  0
  3  4  1  0
  4  5  1  0
  5  6  1  0
  6  7  1  0
  7  8  2  0
  8  9  1  0
  5  3  1  0
  9  5  1  0
  1 10  1  0
  1 11  1  0
  1 12  1  0
  2 13  1  0
  2 14  1  0
  3 15  1  0
  4 16  1  0
  4 17  1  0
  6 18  1  0
  6 19  1  0
  7 20  1  0
  8 21  1  0
  9 22  1  0
  9 23  1  0
M  END
