
     RDKit          3D

 20 20  0  0  0  0  0  0  0  0999 V2000
    2.0180    0.8028    0.3676 C   0  0  0  0  0  0  0  0  0  0  0  0
    1.2974   -0.5056    0.3976 C   0  0  0  0  0  0  0  0  0  0  0  0
    0.2883   -0.6734   -0.6914 C   0  0  0  0  0  0  0  0  0  0  0  0
   -0.3233   -1.9389   -0.5608 O   0  0  0  0  0  0  0  0  0  0  0  0
   -1.2912   -1.3482    0.2580 C   0  0  0  0  0  0  0  0  0  0  0  0
   -1.0419   -0.0580   -0.5152 C   0  0  0  0  0  0  0  0  0  0  0  0
   -1.1764    1.1313    0.3592 C   0  0  0  0  0  0  0  0  0  0  0  0
   -1.7750   -0.0164   -1.6695 O   0  0  0  0  0  0  0  0  0  0  0  0
    1.7773    1.4307   -0.5147 H   0  0  0  0  0  0  0  0  0  0  0  0
    1.8264    1.3877    1.3091 H   0  0  0  0  0  0  0  0  0  0  0  0
    3.1398    0.6680    0.3623 H   0  0  0  0  0  0  0  0  0  0  0  0
    2.0711   -1.3153    0.2430 H   0  0  0  0  0  0  0  0  0  0  0  0
    0.8973   -0.6836    1.4110 H   0  0  0  0  0  0  0  0  0  0  0  0
    0.7717   -0.5902   -1.6822 H   0  0  0  0  0  0  0  0  0  0  0  0
   -2.3130   -1.6958    0.1072 H   0  0  0  0  0  0  0  0  0  0  0  0
   -1.0426   -1.3084    1.3215 H   0  0  0  0  0  0  0  0  0  0  0  0
   -1.0091    2.0459   -0.2777 H   0  0  0  0  0  0  0  0  0  0  0  0
   -0.5567    1.1021    1.2504 H   0  0  0  0  0  0  0  0  0  0  0  0
   -2.2620    1.2118    0.6594 H   0  0  0  0  0  0  0  0  0  0  0  0
   -1.2960    0.3533   -2.4489 H   0  0  0  0  0  0  0  0  0  0  0  0
  1  2  1  0
  2  3  1  0
  3  4  1  0
  4  5  1  0
  5  6  1  0
  6  7  1  0
  6  8  1  0
  6  3  1  0
  1  9  1  0
  1 10  1  0
  1 11  1  0
  2 12  1  0
  2 13  1  0
  3 14  1  0
  5 15  1  0
  5 16  1  0
  7 17  1  0
  7 18  1  0
  7 19  1  0
  8 20  1  0
M  END
