
     RDKit          3D

 17 18  0  0  0  0  0  0  0  0999 V2000
   -2.2014   -0.7405   -0.2659 C   0  0  0  0  0  0  0  0  0  0  0  0
   -1.2825   -0.0610    0.7500 C   0  0  0  0  0  0  0  0  0  0  0  0
    0.0223    0.2771    0.0857 C   0  0  0  0  0  0  0  0  0  0  0  0
    0.8297   -0.8254   -0.4847 C   0  0  0  0  0  0  0  0  0  0  0  0
    2.0957   -0.4544   -0.5552 C   0  0  0  0  0  0  0  0  0  0  0  0
    2.2531    0.9027   -0.0495 C   0  0  0  0  0  0  0  0  0  0  0  0
    3.3354    1.5292   -0.0868 O   0  0  0  0  0  0  0  0  0  0  0  0
    0.9200    1.2930    0.4657 C   0  0  0  0  0  0  0  0  0  0  0  0
   -0.0072    1.4986   -0.6294 O   0  0  0  0  0  0  0  0  0  0  0  0
   -1.6052   -1.1427   -1.1185 H   0  0  0  0  0  0  0  0  0  0  0  0
   -2.9034    0.0498   -0.6325 H   0  0  0  0  0  0  0  0  0  0  0  0
   -2.7827   -1.5161    0.2535 H   0  0  0  0  0  0  0  0  0  0  0  0
   -1.0931   -0.8031    1.5672 H   0  0  0  0  0  0  0  0  0  0  0  0
   -1.7537    0.8466    1.1360 H   0  0  0  0  0  0  0  0  0  0  0  0
    0.4377   -1.7818   -0.7931 H   0  0  0  0  0  0  0  0  0  0  0  0
    2.8920   -1.0878   -0.9396 H   0  0  0  0  0  0  0  0  0  0  0  0
    0.8432    2.0157    1.2969 H   0  0  0  0  0  0  0  0  0  0  0  0
  1  2  1  0
  2  3  1  0
  3  4  1  0
  4  5  2  0
  5  6  1  0
  6  7  2  0
  6  8  1  0
  8  9  1  0
  8  3  1  0
  9  3  1  0
  1 10  1  0
  1 11  1  0
  1 12  1  0
  2 13  1  0
  2 14  1  0
  4 15  1  0
  5 16  1  0
  8 17  1  0
M  END
