
     RDKit          3D

 20 20  0  0  0  0  0  0  0  0999 V2000
    2.5470    0.5467    0.1078 C   0  0  0  0  0  0  0  0  0  0  0  0
    1.4274   -0.3064    0.6765 C   0  0  0  0  0  0  0  0  0  0  0  0
    0.3545   -0.4151   -0.3535 C   0  0  0  0  0  0  0  0  0  0  0  0
   -0.3443    0.7884   -0.8801 C   0  0  0  0  0  0  0  0  0  0  0  0
    0.2097    1.9900   -0.5023 O   0  0  0  0  0  0  0  0  0  0  0  0
   -1.0498   -0.0202    0.1184 C   0  0  0  0  0  0  0  0  0  0  0  0
   -2.0823   -1.0384   -0.2110 C   0  0  0  0  0  0  0  0  0  0  0  0
   -3.3540   -0.7175    0.1974 O   0  0  0  0  0  0  0  0  0  0  0  0
    2.6097    0.3004   -0.9794 H   0  0  0  0  0  0  0  0  0  0  0  0
    3.4767    0.2532    0.6477 H   0  0  0  0  0  0  0  0  0  0  0  0
    2.3909    1.6179    0.2512 H   0  0  0  0  0  0  0  0  0  0  0  0
    1.0393    0.1180    1.6249 H   0  0  0  0  0  0  0  0  0  0  0  0
    1.8304   -1.3203    0.8629 H   0  0  0  0  0  0  0  0  0  0  0  0
    0.4589   -1.2589   -1.0565 H   0  0  0  0  0  0  0  0  0  0  0  0
   -0.7285    0.7623   -1.9253 H   0  0  0  0  0  0  0  0  0  0  0  0
   -0.3670    2.5322    0.0819 H   0  0  0  0  0  0  0  0  0  0  0  0
   -1.1352    0.4127    1.1401 H   0  0  0  0  0  0  0  0  0  0  0  0
   -1.8008   -1.9850    0.3407 H   0  0  0  0  0  0  0  0  0  0  0  0
   -2.0142   -1.2653   -1.2954 H   0  0  0  0  0  0  0  0  0  0  0  0
   -3.4683   -0.9947    1.1542 H   0  0  0  0  0  0  0  0  0  0  0  0
  1  2  1  0
  2  3  1  0
  3  4  1  0
  4  5  1  0
  4  6  1  0
  6  7  1  0
  7  8  1  0
  6  3  1  0
  1  9  1  0
  1 10  1  0
  1 11  1  0
  2 12  1  0
  2 13  1  0
  3 14  1  0
  4 15  1  0
  5 16  1  0
  6 17  1  0
  7 18  1  0
  7 19  1  0
  8 20  1  0
M  END
