
     RDKit          3D

 19 20  0  0  0  0  0  0  0  0999 V2000
    2.1616    0.0616    0.1271 C   0  0  0  0  0  0  0  0  0  0  0  0
    0.9988    0.9982    0.1018 C   0  0  0  0  0  0  0  0  0  0  0  0
   -0.3304    0.3501    0.0275 C   0  0  0  0  0  0  0  0  0  0  0  0
   -1.4276    1.3125    0.0058 C   0  0  0  0  0  0  0  0  0  0  0  0
   -1.3958    2.2449   -0.7714 O   0  0  0  0  0  0  0  0  0  0  0  0
   -0.3986   -0.7975   -0.9152 C   0  0  0  0  0  0  0  0  0  0  0  0
   -1.6266   -1.2440   -0.1845 C   0  0  0  0  0  0  0  0  0  0  0  0
   -0.5784   -0.8678    0.8310 C   0  0  0  0  0  0  0  0  0  0  0  0
    0.3200   -1.5357    0.0139 O   0  0  0  0  0  0  0  0  0  0  0  0
    2.2779   -0.5451   -0.7914 H   0  0  0  0  0  0  0  0  0  0  0  0
    2.1569   -0.5344    1.0562 H   0  0  0  0  0  0  0  0  0  0  0  0
    3.0892    0.6933    0.1810 H   0  0  0  0  0  0  0  0  0  0  0  0
    1.1129    1.6491   -0.8137 H   0  0  0  0  0  0  0  0  0  0  0  0
    1.1086    1.6969    0.9589 H   0  0  0  0  0  0  0  0  0  0  0  0
   -2.2703    1.2080    0.6723 H   0  0  0  0  0  0  0  0  0  0  0  0
   -0.2587   -0.7907   -1.9150 H   0  0  0  0  0  0  0  0  0  0  0  0
   -2.5085   -0.6080   -0.2328 H   0  0  0  0  0  0  0  0  0  0  0  0
   -1.7637   -2.3327   -0.2828 H   0  0  0  0  0  0  0  0  0  0  0  0
   -0.6675   -0.9587    1.8310 H   0  0  0  0  0  0  0  0  0  0  0  0
  1  2  1  0
  2  3  1  0
  3  4  1  0
  4  5  2  0
  3  6  1  0
  6  7  1  0
  7  8  1  0
  8  9  1  0
  8  3  1  0
  9  6  1  0
  1 10  1  0
  1 11  1  0
  1 12  1  0
  2 13  1  0
  2 14  1  0
  4 15  1  0
  6 16  1  0
  7 17  1  0
  7 18  1  0
  8 19  1  0
M  END
