
     RDKit          3D

 19 19  0  0  0  0  0  0  0  0999 V2000
   -2.0512    0.6368    0.3865 C   0  0  0  0  0  0  0  0  0  0  0  0
   -1.2364    0.5154   -0.9086 C   0  0  0  0  0  0  0  0  0  0  0  0
   -0.2189   -0.5871   -0.6422 C   0  0  0  0  0  0  0  0  0  0  0  0
    0.6336   -0.8785   -1.6727 O   0  0  0  0  0  0  0  0  0  0  0  0
    1.7207   -0.3687   -1.0002 C   0  0  0  0  0  0  0  0  0  0  0  0
    0.9159   -0.0726    0.2428 C   0  0  0  0  0  0  0  0  0  0  0  0
    0.8508    1.2753    0.4769 O   0  0  0  0  0  0  0  0  0  0  0  0
    1.1767   -0.9407    1.3976 C   0  0  0  0  0  0  0  0  0  0  0  0
    1.2405   -2.1434    1.2222 O   0  0  0  0  0  0  0  0  0  0  0  0
   -2.6966    1.5279    0.3737 H   0  0  0  0  0  0  0  0  0  0  0  0
   -1.3098    0.6314    1.2097 H   0  0  0  0  0  0  0  0  0  0  0  0
   -2.6191   -0.3196    0.4624 H   0  0  0  0  0  0  0  0  0  0  0  0
   -0.7370    1.4983   -1.0252 H   0  0  0  0  0  0  0  0  0  0  0  0
   -1.8665    0.3151   -1.7768 H   0  0  0  0  0  0  0  0  0  0  0  0
   -0.6643   -1.5117   -0.2239 H   0  0  0  0  0  0  0  0  0  0  0  0
    2.0965    0.5357   -1.5258 H   0  0  0  0  0  0  0  0  0  0  0  0
    2.5473   -1.0949   -0.8110 H   0  0  0  0  0  0  0  0  0  0  0  0
    0.9052    1.5376    1.4279 H   0  0  0  0  0  0  0  0  0  0  0  0
    1.3127   -0.5563    2.3868 H   0  0  0  0  0  0  0  0  0  0  0  0
  1  2  1  0
  2  3  1  0
  3  4  1  0
  4  5  1  0
  5  6  1  0
  6  7  1  0
  6  8  1  0
  8  9  2  0
  6  3  1  0
  1 10  1  0
  1 11  1  0
  1 12  1  0
  2 13  1  0
  2 14  1  0
  3 15  1  0
  5 16  1  0
  5 17  1  0
  7 18  1  0
  8 19  1  0
M  END
