
     RDKit          3D

 21 22  0  0  0  0  0  0  0  0999 V2000
   -1.7489   -1.2765   -0.1400 C   0  0  0  0  0  0  0  0  0  0  0  0
   -0.7824   -0.7756    0.9133 C   0  0  0  0  0  0  0  0  0  0  0  0
    0.0469    0.2993    0.2683 C   0  0  0  0  0  0  0  0  0  0  0  0
    0.8379   -0.1830   -0.9308 C   0  0  0  0  0  0  0  0  0  0  0  0
    1.8082   -1.2727   -0.6473 C   0  0  0  0  0  0  0  0  0  0  0  0
    0.6592   -1.4843   -1.3792 O   0  0  0  0  0  0  0  0  0  0  0  0
   -0.7256    1.6257    0.1101 C   0  0  0  0  0  0  0  0  0  0  0  0
    0.4772    1.5070    0.9568 C   0  0  0  0  0  0  0  0  0  0  0  0
    1.6228    2.1454    0.4308 O   0  0  0  0  0  0  0  0  0  0  0  0
   -1.6680   -2.3810   -0.2800 H   0  0  0  0  0  0  0  0  0  0  0  0
   -1.5778   -0.8222   -1.1318 H   0  0  0  0  0  0  0  0  0  0  0  0
   -2.7754   -1.0392    0.2077 H   0  0  0  0  0  0  0  0  0  0  0  0
   -1.2806   -0.4556    1.8365 H   0  0  0  0  0  0  0  0  0  0  0  0
   -0.1035   -1.6136    1.1875 H   0  0  0  0  0  0  0  0  0  0  0  0
    1.0946    0.6169   -1.6401 H   0  0  0  0  0  0  0  0  0  0  0  0
    1.8679   -1.6785    0.3760 H   0  0  0  0  0  0  0  0  0  0  0  0
    2.7833   -1.1783   -1.1736 H   0  0  0  0  0  0  0  0  0  0  0  0
   -1.6790    1.7413    0.6162 H   0  0  0  0  0  0  0  0  0  0  0  0
   -0.6937    2.0299   -0.9175 H   0  0  0  0  0  0  0  0  0  0  0  0
    0.3796    1.6750    2.0492 H   0  0  0  0  0  0  0  0  0  0  0  0
    1.4573    2.5199   -0.4627 H   0  0  0  0  0  0  0  0  0  0  0  0
  1  2  1  0
  2  3  1  0
  3  4  1  0
  4  5  1  0
  5  6  1  0
  3  7  1  0
  7  8  1  0
  8  9  1  0
  8  3  1  0
  6  4  1  0
  1 10  1  0
  1 11  1  0
  1 12  1  0
  2 13  1  0
  2 14  1  0
  4 15  1  0
  5 16  1  0
  5 17  1  0
  7 18  1  0
  7 19  1  0
  8 20  1  0
  9 21  1  0
M  END
