
     RDKit          3D

 21 21  0  0  0  0  0  0  0  0999 V2000
    2.6118   -0.6984   -0.2902 C   0  0  0  0  0  0  0  0  0  0  0  0
    1.6920    0.4796   -0.0746 C   0  0  0  0  0  0  0  0  0  0  0  0
    0.2723    0.0642   -0.0080 C   0  0  0  0  0  0  0  0  0  0  0  0
   -0.1409   -1.1844   -0.1232 C   0  0  0  0  0  0  0  0  0  0  0  0
   -1.5752   -1.4572   -0.0381 C   0  0  0  0  0  0  0  0  0  0  0  0
   -2.4184   -0.5043   -0.4541 O   0  0  0  0  0  0  0  0  0  0  0  0
   -2.0902    0.8000   -0.3235 C   0  0  0  0  0  0  0  0  0  0  0  0
   -0.7375    1.1198    0.2015 C   0  0  0  0  0  0  0  0  0  0  0  0
   -0.7896    1.3343    1.6006 O   0  0  0  0  0  0  0  0  0  0  0  0
    2.4508   -1.0570   -1.3365 H   0  0  0  0  0  0  0  0  0  0  0  0
    2.4217   -1.4995    0.4288 H   0  0  0  0  0  0  0  0  0  0  0  0
    3.6672   -0.3794   -0.1980 H   0  0  0  0  0  0  0  0  0  0  0  0
    1.9449    0.9540    0.9142 H   0  0  0  0  0  0  0  0  0  0  0  0
    1.8142    1.2515   -0.8566 H   0  0  0  0  0  0  0  0  0  0  0  0
    0.5781   -2.0038   -0.2802 H   0  0  0  0  0  0  0  0  0  0  0  0
   -1.8412   -1.7394    1.0216 H   0  0  0  0  0  0  0  0  0  0  0  0
   -1.7684   -2.3859   -0.6547 H   0  0  0  0  0  0  0  0  0  0  0  0
   -2.8524    1.3004    0.3188 H   0  0  0  0  0  0  0  0  0  0  0  0
   -2.1974    1.2689   -1.3267 H   0  0  0  0  0  0  0  0  0  0  0  0
   -0.3592    2.0372   -0.2966 H   0  0  0  0  0  0  0  0  0  0  0  0
   -0.6825    2.2995    1.7755 H   0  0  0  0  0  0  0  0  0  0  0  0
  1  2  1  0
  2  3  1  0
  3  4  2  0
  4  5  1  0
  5  6  1  0
  6  7  1  0
  7  8  1  0
  8  9  1  0
  8  3  1  0
  1 10  1  0
  1 11  1  0
  1 12  1  0
  2 13  1  0
  2 14  1  0
  4 15  1  0
  5 16  1  0
  5 17  1  0
  7 18  1  0
  7 19  1  0
  8 20  1  0
  9 21  1  0
M  END
