
     RDKit          3D

 27 27  0  0  0  0  0  0  0  0999 V2000
   -1.4417    1.9844   -0.6535 C   0  0  0  0  0  0  0  0  0  0  0  0
   -0.9088    1.1704    0.4922 C   0  0  0  0  0  0  0  0  0  0  0  0
   -0.0814   -0.0054    0.0106 C   0  0  0  0  0  0  0  0  0  0  0  0
   -0.7427   -1.0343   -0.8715 C   0  0  0  0  0  0  0  0  0  0  0  0
   -1.9094   -1.7130   -0.2403 C   0  0  0  0  0  0  0  0  0  0  0  0
    0.9569   -0.4608    0.9517 C   0  0  0  0  0  0  0  0  0  0  0  0
    1.2855    0.2772    2.2111 C   0  0  0  0  0  0  0  0  0  0  0  0
    1.3491    0.2766   -0.3178 C   0  0  0  0  0  0  0  0  0  0  0  0
    2.1022   -0.5740   -1.2953 C   0  0  0  0  0  0  0  0  0  0  0  0
   -2.5278    2.1813   -0.5599 H   0  0  0  0  0  0  0  0  0  0  0  0
   -1.2860    1.4929   -1.6277 H   0  0  0  0  0  0  0  0  0  0  0  0
   -0.9434    2.9774   -0.7199 H   0  0  0  0  0  0  0  0  0  0  0  0
   -1.7768    0.8533    1.1019 H   0  0  0  0  0  0  0  0  0  0  0  0
   -0.3021    1.8478    1.1262 H   0  0  0  0  0  0  0  0  0  0  0  0
   -1.1305   -0.5335   -1.8073 H   0  0  0  0  0  0  0  0  0  0  0  0
   -0.0264   -1.7923   -1.2267 H   0  0  0  0  0  0  0  0  0  0  0  0
   -1.8023   -1.8888    0.8473 H   0  0  0  0  0  0  0  0  0  0  0  0
   -2.0186   -2.7135   -0.7107 H   0  0  0  0  0  0  0  0  0  0  0  0
   -2.8678   -1.1668   -0.4807 H   0  0  0  0  0  0  0  0  0  0  0  0
    1.1147   -1.5545    1.0053 H   0  0  0  0  0  0  0  0  0  0  0  0
    1.4387    1.3629    2.0740 H   0  0  0  0  0  0  0  0  0  0  0  0
    0.5528    0.1212    3.0269 H   0  0  0  0  0  0  0  0  0  0  0  0
    2.2820   -0.1211    2.5647 H   0  0  0  0  0  0  0  0  0  0  0  0
    1.7008    1.3136   -0.2435 H   0  0  0  0  0  0  0  0  0  0  0  0
    1.6997   -0.4204   -2.3315 H   0  0  0  0  0  0  0  0  0  0  0  0
    3.1591   -0.2334   -1.2966 H   0  0  0  0  0  0  0  0  0  0  0  0
    2.1243   -1.6471   -1.0291 H   0  0  0  0  0  0  0  0  0  0  0  0
  1  2  1  0
  2  3  1  0
  3  4  1  0
  4  5  1  0
  3  6  1  0
  6  7  1  0
  6  8  1  0
  8  9  1  0
  8  3  1  0
  1 10  1  0
  1 11  1  0
  1 12  1  0
  2 13  1  0
  2 14  1  0
  4 15  1  0
  4 16  1  0
  5 17  1  0
  5 18  1  0
  5 19  1  0
  6 20  1  0
  7 21  1  0
  7 22  1  0
  7 23  1  0
  8 24  1  0
  9 25  1  0
  9 26  1  0
  9 27  1  0
M  END
