
     RDKit          3D

 21 22  0  0  0  0  0  0  0  0999 V2000
   -2.8711    0.3566   -0.6837 C   0  0  0  0  0  0  0  0  0  0  0  0
   -1.7660   -0.3208    0.0551 C   0  0  0  0  0  0  0  0  0  0  0  0
   -0.3944    0.0218   -0.4576 C   0  0  0  0  0  0  0  0  0  0  0  0
   -0.0341    1.3500   -0.4141 O   0  0  0  0  0  0  0  0  0  0  0  0
    1.2261    1.0313    0.0950 C   0  0  0  0  0  0  0  0  0  0  0  0
    2.2114    0.5845   -0.9468 C   0  0  0  0  0  0  0  0  0  0  0  0
    1.9831   -0.7649   -1.1833 O   0  0  0  0  0  0  0  0  0  0  0  0
    1.6198   -1.3109    0.0652 C   0  0  0  0  0  0  0  0  0  0  0  0
    0.6505   -0.2738    0.5690 C   0  0  0  0  0  0  0  0  0  0  0  0
   -3.5865    0.8360    0.0166 H   0  0  0  0  0  0  0  0  0  0  0  0
   -3.4640   -0.4260   -1.2339 H   0  0  0  0  0  0  0  0  0  0  0  0
   -2.5317    1.1604   -1.3708 H   0  0  0  0  0  0  0  0  0  0  0  0
   -1.8471   -1.4274    0.0737 H   0  0  0  0  0  0  0  0  0  0  0  0
   -1.7925    0.0082    1.1292 H   0  0  0  0  0  0  0  0  0  0  0  0
   -0.1609   -0.3913   -1.4734 H   0  0  0  0  0  0  0  0  0  0  0  0
    1.5747    1.7321    0.8513 H   0  0  0  0  0  0  0  0  0  0  0  0
    2.0896    1.2105   -1.8287 H   0  0  0  0  0  0  0  0  0  0  0  0
    3.2487    0.6828   -0.5939 H   0  0  0  0  0  0  0  0  0  0  0  0
    2.4852   -1.4694    0.7203 H   0  0  0  0  0  0  0  0  0  0  0  0
    1.0231   -2.2481   -0.0921 H   0  0  0  0  0  0  0  0  0  0  0  0
    0.3361   -0.3417    1.6047 H   0  0  0  0  0  0  0  0  0  0  0  0
  1  2  1  0
  2  3  1  0
  3  4  1  0
  4  5  1  0
  5  6  1  0
  6  7  1  0
  7  8  1  0
  8  9  1  0
  9  3  1  0
  9  5  1  0
  1 10  1  0
  1 11  1  0
  1 12  1  0
  2 13  1  0
  2 14  1  0
  3 15  1  0
  5 16  1  0
  6 17  1  0
  6 18  1  0
  8 19  1  0
  8 20  1  0
  9 21  1  0
M  END
