
     RDKit          3D

 27 27  0  0  0  0  0  0  0  0999 V2000
    3.1640   -0.4802   -0.5408 C   0  0  0  0  0  0  0  0  0  0  0  0
    2.1136   -0.3148    0.5376 C   0  0  0  0  0  0  0  0  0  0  0  0
    1.0126    0.6317    0.1117 C   0  0  0  0  0  0  0  0  0  0  0  0
    0.2500    0.1923   -1.1426 C   0  0  0  0  0  0  0  0  0  0  0  0
   -0.3785    0.1293    0.1839 C   0  0  0  0  0  0  0  0  0  0  0  0
   -0.5963   -1.2481    0.7668 C   0  0  0  0  0  0  0  0  0  0  0  0
   -2.0835   -1.6129    0.7693 C   0  0  0  0  0  0  0  0  0  0  0  0
   -1.5349    1.0658    0.4102 C   0  0  0  0  0  0  0  0  0  0  0  0
   -1.6599    2.1149   -0.6674 C   0  0  0  0  0  0  0  0  0  0  0  0
    3.0397    0.2174   -1.3791 H   0  0  0  0  0  0  0  0  0  0  0  0
    3.1220   -1.5127   -1.0000 H   0  0  0  0  0  0  0  0  0  0  0  0
    4.1951   -0.3957   -0.1397 H   0  0  0  0  0  0  0  0  0  0  0  0
    2.6561    0.0875    1.4330 H   0  0  0  0  0  0  0  0  0  0  0  0
    1.7138   -1.3261    0.7508 H   0  0  0  0  0  0  0  0  0  0  0  0
    1.2411    1.7086    0.1313 H   0  0  0  0  0  0  0  0  0  0  0  0
    0.0050    0.9668   -1.8951 H   0  0  0  0  0  0  0  0  0  0  0  0
    0.5954   -0.7589   -1.6387 H   0  0  0  0  0  0  0  0  0  0  0  0
   -0.1050   -1.9751    0.1249 H   0  0  0  0  0  0  0  0  0  0  0  0
   -0.2794   -1.3119    1.8266 H   0  0  0  0  0  0  0  0  0  0  0  0
   -2.5386   -1.4799   -0.2131 H   0  0  0  0  0  0  0  0  0  0  0  0
   -2.0915   -2.7280    0.9572 H   0  0  0  0  0  0  0  0  0  0  0  0
   -2.6220   -1.1478    1.6097 H   0  0  0  0  0  0  0  0  0  0  0  0
   -2.4632    0.4673    0.3790 H   0  0  0  0  0  0  0  0  0  0  0  0
   -1.4495    1.5295    1.3851 H   0  0  0  0  0  0  0  0  0  0  0  0
   -0.8288    2.8204   -0.7021 H   0  0  0  0  0  0  0  0  0  0  0  0
   -1.9018    1.6506   -1.6545 H   0  0  0  0  0  0  0  0  0  0  0  0
   -2.5752    2.7100   -0.4039 H   0  0  0  0  0  0  0  0  0  0  0  0
  1  2  1  0
  2  3  1  0
  3  4  1  0
  4  5  1  0
  5  6  1  0
  6  7  1  0
  5  8  1  0
  8  9  1  0
  5  3  1  0
  1 10  1  0
  1 11  1  0
  1 12  1  0
  2 13  1  0
  2 14  1  0
  3 15  1  0
  4 16  1  0
  4 17  1  0
  6 18  1  0
  6 19  1  0
  7 20  1  0
  7 21  1  0
  7 22  1  0
  8 23  1  0
  8 24  1  0
  9 25  1  0
  9 26  1  0
  9 27  1  0
M  END
