
     RDKit          3D

 23 25  0  0  0  0  0  0  0  0999 V2000
    2.7912   -0.4337   -0.6932 C   0  0  0  0  0  0  0  0  0  0  0  0
    1.9000   -0.4954    0.5472 C   0  0  0  0  0  0  0  0  0  0  0  0
    0.8162    0.4912    0.3870 C   0  0  0  0  0  0  0  0  0  0  0  0
   -0.1095    0.3495   -0.7808 C   0  0  0  0  0  0  0  0  0  0  0  0
   -0.7454   -0.7887   -0.0561 C   0  0  0  0  0  0  0  0  0  0  0  0
   -2.2326   -0.7510   -0.3341 C   0  0  0  0  0  0  0  0  0  0  0  0
   -2.4295    0.7763   -0.3601 C   0  0  0  0  0  0  0  0  0  0  0  0
   -1.0548    1.2124    0.0207 C   0  0  0  0  0  0  0  0  0  0  0  0
   -0.5098    0.2273    1.0218 C   0  0  0  0  0  0  0  0  0  0  0  0
    3.1959    0.5894   -0.7605 H   0  0  0  0  0  0  0  0  0  0  0  0
    2.2460   -0.6765   -1.6085 H   0  0  0  0  0  0  0  0  0  0  0  0
    3.5870   -1.1976   -0.5598 H   0  0  0  0  0  0  0  0  0  0  0  0
    1.6269   -1.5329    0.7121 H   0  0  0  0  0  0  0  0  0  0  0  0
    2.5680   -0.1522    1.3882 H   0  0  0  0  0  0  0  0  0  0  0  0
    1.1843    1.5284    0.5865 H   0  0  0  0  0  0  0  0  0  0  0  0
    0.1001    0.4372   -1.7532 H   0  0  0  0  0  0  0  0  0  0  0  0
   -0.2634   -1.7412   -0.0088 H   0  0  0  0  0  0  0  0  0  0  0  0
   -2.5144   -1.2149   -1.2794 H   0  0  0  0  0  0  0  0  0  0  0  0
   -2.7439   -1.1780    0.5566 H   0  0  0  0  0  0  0  0  0  0  0  0
   -2.6329    1.0552   -1.4293 H   0  0  0  0  0  0  0  0  0  0  0  0
   -3.2114    1.0834    0.3282 H   0  0  0  0  0  0  0  0  0  0  0  0
   -0.8289    2.2501    0.1379 H   0  0  0  0  0  0  0  0  0  0  0  0
   -0.7391    0.1618    1.9916 H   0  0  0  0  0  0  0  0  0  0  0  0
  1  2  1  0
  2  3  1  0
  3  4  1  0
  4  5  1  0
  5  6  1  0
  6  7  1  0
  7  8  1  0
  8  9  1  0
  9  3  1  0
  8  4  1  0
  9  5  1  0
  1 10  1  0
  1 11  1  0
  1 12  1  0
  2 13  1  0
  2 14  1  0
  3 15  1  0
  4 16  1  0
  5 17  1  0
  6 18  1  0
  6 19  1  0
  7 20  1  0
  7 21  1  0
  8 22  1  0
  9 23  1  0
M  END
