
     RDKit          3D

 19 19  0  0  0  0  0  0  0  0999 V2000
   -1.9669    0.6662    0.1522 C   0  0  0  0  0  0  0  0  0  0  0  0
   -1.4109   -0.6995   -0.1288 C   0  0  0  0  0  0  0  0  0  0  0  0
    0.1126   -0.7201   -0.1134 C   0  0  0  0  0  0  0  0  0  0  0  0
    0.6705   -0.3018    1.1957 C   0  0  0  0  0  0  0  0  0  0  0  0
    1.6223    0.7420    1.1417 O   0  0  0  0  0  0  0  0  0  0  0  0
    2.4832    0.7926    0.0660 C   0  0  0  0  0  0  0  0  0  0  0  0
    3.5988    1.3374    0.2101 O   0  0  0  0  0  0  0  0  0  0  0  0
    2.0521    0.2299   -1.1200 O   0  0  0  0  0  0  0  0  0  0  0  0
    0.6461    0.0004   -1.3130 C   0  0  0  0  0  0  0  0  0  0  0  0
   -1.5552    1.4377   -0.4997 H   0  0  0  0  0  0  0  0  0  0  0  0
   -1.8509    0.9419    1.2346 H   0  0  0  0  0  0  0  0  0  0  0  0
   -3.0553    0.6227   -0.0249 H   0  0  0  0  0  0  0  0  0  0  0  0
   -1.7356   -1.3947    0.6744 H   0  0  0  0  0  0  0  0  0  0  0  0
   -1.7377   -1.0012   -1.1350 H   0  0  0  0  0  0  0  0  0  0  0  0
    0.3805   -1.8088   -0.2587 H   0  0  0  0  0  0  0  0  0  0  0  0
    1.1890   -1.1472    1.7364 H   0  0  0  0  0  0  0  0  0  0  0  0
   -0.1501    0.0240    1.9003 H   0  0  0  0  0  0  0  0  0  0  0  0
    0.5611   -0.6748   -2.2053 H   0  0  0  0  0  0  0  0  0  0  0  0
    0.1465    0.9534   -1.5126 H   0  0  0  0  0  0  0  0  0  0  0  0
  1  2  1  0
  2  3  1  0
  3  4  1  0
  4  5  1  0
  5  6  1  0
  6  7  2  0
  6  8  1  0
  8  9  1  0
  9  3  1  0
  1 10  1  0
  1 11  1  0
  1 12  1  0
  2 13  1  0
  2 14  1  0
  3 15  1  0
  4 16  1  0
  4 17  1  0
  9 18  1  0
  9 19  1  0
M  END
