
     RDKit          3D

 21 21  0  0  0  0  0  0  0  0999 V2000
   -2.1640    1.1862   -0.7431 C   0  0  0  0  0  0  0  0  0  0  0  0
   -1.7973   -0.0006    0.0884 C   0  0  0  0  0  0  0  0  0  0  0  0
   -0.4817   -0.6304   -0.3172 C   0  0  0  0  0  0  0  0  0  0  0  0
   -0.2006   -1.7947    0.5580 C   0  0  0  0  0  0  0  0  0  0  0  0
   -0.4009   -2.9839    0.5232 O   0  0  0  0  0  0  0  0  0  0  0  0
    0.4414   -0.8533    1.5062 C   0  0  0  0  0  0  0  0  0  0  0  0
    0.7430    0.0222    0.2998 C   0  0  0  0  0  0  0  0  0  0  0  0
    1.8805   -0.4735   -0.3449 O   0  0  0  0  0  0  0  0  0  0  0  0
    2.7548    0.5334   -0.6674 C   0  0  0  0  0  0  0  0  0  0  0  0
   -1.3373    1.3629   -1.4672 H   0  0  0  0  0  0  0  0  0  0  0  0
   -3.1260    1.0439   -1.3083 H   0  0  0  0  0  0  0  0  0  0  0  0
   -2.3383    2.0957   -0.1091 H   0  0  0  0  0  0  0  0  0  0  0  0
   -1.8483    0.1886    1.1776 H   0  0  0  0  0  0  0  0  0  0  0  0
   -2.5796   -0.7904   -0.1097 H   0  0  0  0  0  0  0  0  0  0  0  0
   -0.4205   -0.7936   -1.3909 H   0  0  0  0  0  0  0  0  0  0  0  0
   -0.2237   -0.4036    2.2598 H   0  0  0  0  0  0  0  0  0  0  0  0
    1.3674   -1.2083    1.9898 H   0  0  0  0  0  0  0  0  0  0  0  0
    0.6956    1.0921    0.4574 H   0  0  0  0  0  0  0  0  0  0  0  0
    3.6330    0.0581   -1.1766 H   0  0  0  0  0  0  0  0  0  0  0  0
    2.2396    1.2720   -1.2980 H   0  0  0  0  0  0  0  0  0  0  0  0
    3.1629    1.0771    0.2069 H   0  0  0  0  0  0  0  0  0  0  0  0
  1  2  1  0
  2  3  1  0
  3  4  1  0
  4  5  2  0
  4  6  1  0
  6  7  1  0
  7  8  1  0
  8  9  1  0
  7  3  1  0
  1 10  1  0
  1 11  1  0
  1 12  1  0
  2 13  1  0
  2 14  1  0
  3 15  1  0
  6 16  1  0
  6 17  1  0
  7 18  1  0
  9 19  1  0
  9 20  1  0
  9 21  1  0
M  END
