
     RDKit          3D

 23 23  0  0  0  0  0  0  0  0999 V2000
    2.5534   -0.3982    0.7762 C   0  0  0  0  0  0  0  0  0  0  0  0
    1.7391    0.0445   -0.4106 C   0  0  0  0  0  0  0  0  0  0  0  0
    0.2891   -0.0884   -0.2063 C   0  0  0  0  0  0  0  0  0  0  0  0
   -0.6137    0.8862   -0.2442 C   0  0  0  0  0  0  0  0  0  0  0  0
   -0.3485    2.3291   -0.5030 C   0  0  0  0  0  0  0  0  0  0  0  0
   -1.9763    0.3462    0.0125 C   0  0  0  0  0  0  0  0  0  0  0  0
   -1.8023   -1.1022   -0.4528 C   0  0  0  0  0  0  0  0  0  0  0  0
   -0.3960   -1.3794    0.0820 C   0  0  0  0  0  0  0  0  0  0  0  0
   -0.4745   -1.6340    1.4367 O   0  0  0  0  0  0  0  0  0  0  0  0
    2.4512    0.2406    1.6500 H   0  0  0  0  0  0  0  0  0  0  0  0
    3.6250   -0.4350    0.4249 H   0  0  0  0  0  0  0  0  0  0  0  0
    2.3178   -1.4495    1.0684 H   0  0  0  0  0  0  0  0  0  0  0  0
    2.0497    1.0830   -0.6477 H   0  0  0  0  0  0  0  0  0  0  0  0
    2.1062   -0.5696   -1.2840 H   0  0  0  0  0  0  0  0  0  0  0  0
    0.7138    2.5977   -0.3345 H   0  0  0  0  0  0  0  0  0  0  0  0
   -1.0512    2.9229    0.0836 H   0  0  0  0  0  0  0  0  0  0  0  0
   -0.5808    2.4982   -1.5879 H   0  0  0  0  0  0  0  0  0  0  0  0
   -2.2518    0.3896    1.0799 H   0  0  0  0  0  0  0  0  0  0  0  0
   -2.7454    0.8000   -0.6199 H   0  0  0  0  0  0  0  0  0  0  0  0
   -2.5526   -1.7707   -0.0306 H   0  0  0  0  0  0  0  0  0  0  0  0
   -1.7565   -1.0811   -1.5539 H   0  0  0  0  0  0  0  0  0  0  0  0
    0.0744   -2.2360   -0.4342 H   0  0  0  0  0  0  0  0  0  0  0  0
   -1.3700   -1.9939    1.6953 H   0  0  0  0  0  0  0  0  0  0  0  0
  1  2  1  0
  2  3  1  0
  3  4  2  0
  4  5  1  0
  4  6  1  0
  6  7  1  0
  7  8  1  0
  8  9  1  0
  8  3  1  0
  1 10  1  0
  1 11  1  0
  1 12  1  0
  2 13  1  0
  2 14  1  0
  5 15  1  0
  5 16  1  0
  5 17  1  0
  6 18  1  0
  6 19  1  0
  7 20  1  0
  7 21  1  0
  8 22  1  0
  9 23  1  0
M  END
