
     RDKit          3D

 21 21  0  0  0  0  0  0  0  0999 V2000
    2.4474    0.4245    0.0681 C   0  0  0  0  0  0  0  0  0  0  0  0
    1.3298   -0.5291    0.3612 C   0  0  0  0  0  0  0  0  0  0  0  0
    0.0922   -0.2630   -0.4574 C   0  0  0  0  0  0  0  0  0  0  0  0
    0.4019   -0.3772   -1.7959 O   0  0  0  0  0  0  0  0  0  0  0  0
   -0.5411    1.0575   -0.1719 C   0  0  0  0  0  0  0  0  0  0  0  0
   -2.0142    0.7744    0.0270 C   0  0  0  0  0  0  0  0  0  0  0  0
   -1.9782   -0.5612    0.7371 C   0  0  0  0  0  0  0  0  0  0  0  0
   -0.9296   -1.2826   -0.0304 C   0  0  0  0  0  0  0  0  0  0  0  0
   -0.8564   -2.4557   -0.2932 O   0  0  0  0  0  0  0  0  0  0  0  0
    2.2022    1.1780   -0.7047 H   0  0  0  0  0  0  0  0  0  0  0  0
    2.7549    0.9723    0.9989 H   0  0  0  0  0  0  0  0  0  0  0  0
    3.3620   -0.1030   -0.2796 H   0  0  0  0  0  0  0  0  0  0  0  0
    1.1081   -0.5088    1.4551 H   0  0  0  0  0  0  0  0  0  0  0  0
    1.6742   -1.5600    0.1363 H   0  0  0  0  0  0  0  0  0  0  0  0
    1.2637   -0.8332   -1.9015 H   0  0  0  0  0  0  0  0  0  0  0  0
   -0.4684    1.7258   -1.0529 H   0  0  0  0  0  0  0  0  0  0  0  0
   -0.1566    1.5462    0.7546 H   0  0  0  0  0  0  0  0  0  0  0  0
   -2.5638    0.7076   -0.9497 H   0  0  0  0  0  0  0  0  0  0  0  0
   -2.5283    1.5017    0.6477 H   0  0  0  0  0  0  0  0  0  0  0  0
   -1.6610   -0.3437    1.7870 H   0  0  0  0  0  0  0  0  0  0  0  0
   -2.9388   -1.0705    0.6645 H   0  0  0  0  0  0  0  0  0  0  0  0
  1  2  1  0
  2  3  1  0
  3  4  1  0
  3  5  1  0
  5  6  1  0
  6  7  1  0
  7  8  1  0
  8  9  2  0
  8  3  1  0
  1 10  1  0
  1 11  1  0
  1 12  1  0
  2 13  1  0
  2 14  1  0
  4 15  1  0
  5 16  1  0
  5 17  1  0
  6 18  1  0
  6 19  1  0
  7 20  1  0
  7 21  1  0
M  END
