
     RDKit          3D

 18 19  0  0  0  0  0  0  0  0999 V2000
    2.0447    0.5218    0.0776 C   0  0  0  0  0  0  0  0  0  0  0  0
    1.1285   -0.5056   -0.5007 C   0  0  0  0  0  0  0  0  0  0  0  0
   -0.0968   -0.7558    0.3884 C   0  0  0  0  0  0  0  0  0  0  0  0
   -0.9380    0.5023    0.5980 C   0  0  0  0  0  0  0  0  0  0  0  0
   -0.2590    1.6870    0.5050 O   0  0  0  0  0  0  0  0  0  0  0  0
   -1.8191    0.1020   -0.5268 C   0  0  0  0  0  0  0  0  0  0  0  0
   -1.3637   -0.5196   -1.6518 O   0  0  0  0  0  0  0  0  0  0  0  0
   -1.2156   -1.2490   -0.5011 C   0  0  0  0  0  0  0  0  0  0  0  0
    3.1064    0.2310   -0.1768 H   0  0  0  0  0  0  0  0  0  0  0  0
    1.9412    0.5262    1.1725 H   0  0  0  0  0  0  0  0  0  0  0  0
    1.9079    1.5179   -0.3873 H   0  0  0  0  0  0  0  0  0  0  0  0
    1.6243   -1.4948   -0.6052 H   0  0  0  0  0  0  0  0  0  0  0  0
    0.7777   -0.1359   -1.4833 H   0  0  0  0  0  0  0  0  0  0  0  0
    0.0978   -1.3448    1.2844 H   0  0  0  0  0  0  0  0  0  0  0  0
   -1.4480    0.4250    1.6003 H   0  0  0  0  0  0  0  0  0  0  0  0
   -0.8128    2.3808    0.9790 H   0  0  0  0  0  0  0  0  0  0  0  0
   -2.9128    0.2637   -0.4901 H   0  0  0  0  0  0  0  0  0  0  0  0
   -1.7629   -2.1524   -0.2822 H   0  0  0  0  0  0  0  0  0  0  0  0
  1  2  1  0
  2  3  1  0
  3  4  1  0
  4  5  1  0
  4  6  1  0
  6  7  1  0
  7  8  1  0
  8  3  1  0
  8  6  1  0
  1  9  1  0
  1 10  1  0
  1 11  1  0
  2 12  1  0
  2 13  1  0
  3 14  1  0
  4 15  1  0
  5 16  1  0
  6 17  1  0
  8 18  1  0
M  END
