
     RDKit          3D

 21 21  0  0  0  0  0  0  0  0999 V2000
    2.3896    0.7426    0.6471 C   0  0  0  0  0  0  0  0  0  0  0  0
    1.5292    0.6982   -0.5953 C   0  0  0  0  0  0  0  0  0  0  0  0
    0.3305   -0.1450   -0.3902 C   0  0  0  0  0  0  0  0  0  0  0  0
    0.0461   -1.2218   -1.1050 C   0  0  0  0  0  0  0  0  0  0  0  0
   -1.2289   -1.8438   -0.6474 C   0  0  0  0  0  0  0  0  0  0  0  0
   -1.5658   -1.1417    0.6212 C   0  0  0  0  0  0  0  0  0  0  0  0
   -2.3633   -1.5006    1.4668 O   0  0  0  0  0  0  0  0  0  0  0  0
   -0.7274    0.0834    0.6377 C   0  0  0  0  0  0  0  0  0  0  0  0
   -1.5524    1.3168    0.3269 C   0  0  0  0  0  0  0  0  0  0  0  0
    2.5573   -0.3080    0.9549 H   0  0  0  0  0  0  0  0  0  0  0  0
    3.3832    1.1677    0.3926 H   0  0  0  0  0  0  0  0  0  0  0  0
    1.9391    1.2926    1.4760 H   0  0  0  0  0  0  0  0  0  0  0  0
    2.1485    0.2277   -1.3818 H   0  0  0  0  0  0  0  0  0  0  0  0
    1.2557    1.7118   -0.9511 H   0  0  0  0  0  0  0  0  0  0  0  0
    0.6219   -1.6522   -1.9309 H   0  0  0  0  0  0  0  0  0  0  0  0
   -1.1302   -2.9279   -0.5253 H   0  0  0  0  0  0  0  0  0  0  0  0
   -2.0650   -1.5976   -1.3654 H   0  0  0  0  0  0  0  0  0  0  0  0
   -0.2588    0.1921    1.6292 H   0  0  0  0  0  0  0  0  0  0  0  0
   -2.4312    1.0764   -0.3033 H   0  0  0  0  0  0  0  0  0  0  0  0
   -0.9248    2.0535   -0.2109 H   0  0  0  0  0  0  0  0  0  0  0  0
   -1.9535    1.7759    1.2541 H   0  0  0  0  0  0  0  0  0  0  0  0
  1  2  1  0
  2  3  1  0
  3  4  2  0
  4  5  1  0
  5  6  1  0
  6  7  2  0
  6  8  1  0
  8  9  1  0
  8  3  1  0
  1 10  1  0
  1 11  1  0
  1 12  1  0
  2 13  1  0
  2 14  1  0
  4 15  1  0
  5 16  1  0
  5 17  1  0
  8 18  1  0
  9 19  1  0
  9 20  1  0
  9 21  1  0
M  END
