
     RDKit          3D

 21 21  0  0  0  0  0  0  0  0999 V2000
   -2.6857   -0.2586    1.1569 C   0  0  0  0  0  0  0  0  0  0  0  0
   -1.9606   -0.2577   -0.1873 C   0  0  0  0  0  0  0  0  0  0  0  0
   -0.7710    0.6654   -0.0269 C   0  0  0  0  0  0  0  0  0  0  0  0
    0.0988    0.8269   -1.2276 C   0  0  0  0  0  0  0  0  0  0  0  0
    0.7369   -0.4130   -0.6565 C   0  0  0  0  0  0  0  0  0  0  0  0
    2.2199   -0.4163   -0.6337 C   0  0  0  0  0  0  0  0  0  0  0  0
    3.0126   -0.0769    0.5888 C   0  0  0  0  0  0  0  0  0  0  0  0
    2.8908   -0.7007   -1.6276 O   0  0  0  0  0  0  0  0  0  0  0  0
    0.2633   -0.0545    0.6050 O   0  0  0  0  0  0  0  0  0  0  0  0
   -3.2844    0.6626    1.2878 H   0  0  0  0  0  0  0  0  0  0  0  0
   -1.9611   -0.3140    1.9935 H   0  0  0  0  0  0  0  0  0  0  0  0
   -3.3222   -1.1479    1.2141 H   0  0  0  0  0  0  0  0  0  0  0  0
   -1.6478   -1.3004   -0.3646 H   0  0  0  0  0  0  0  0  0  0  0  0
   -2.6447    0.0538   -0.9736 H   0  0  0  0  0  0  0  0  0  0  0  0
   -0.9673    1.5740    0.5667 H   0  0  0  0  0  0  0  0  0  0  0  0
    0.7140    1.7482   -1.1745 H   0  0  0  0  0  0  0  0  0  0  0  0
   -0.4113    0.6749   -2.2153 H   0  0  0  0  0  0  0  0  0  0  0  0
    0.2656   -1.3191   -1.0875 H   0  0  0  0  0  0  0  0  0  0  0  0
    2.2646    0.0668    1.4197 H   0  0  0  0  0  0  0  0  0  0  0  0
    3.6817   -0.9049    0.8786 H   0  0  0  0  0  0  0  0  0  0  0  0
    3.5080    0.8914    0.4639 H   0  0  0  0  0  0  0  0  0  0  0  0
  1  2  1  0
  2  3  1  0
  3  4  1  0
  4  5  1  0
  5  6  1  0
  6  7  1  0
  6  8  2  0
  5  9  1  0
  9  3  1  0
  1 10  1  0
  1 11  1  0
  1 12  1  0
  2 13  1  0
  2 14  1  0
  3 15  1  0
  4 16  1  0
  4 17  1  0
  5 18  1  0
  7 19  1  0
  7 20  1  0
  7 21  1  0
M  END
