
     RDKit          3D

 21 22  0  0  0  0  0  0  0  0999 V2000
   -2.1229    0.9922    0.4864 C   0  0  0  0  0  0  0  0  0  0  0  0
   -1.8806   -0.2844   -0.2207 C   0  0  0  0  0  0  0  0  0  0  0  0
   -0.4893   -0.6312   -0.5307 C   0  0  0  0  0  0  0  0  0  0  0  0
    0.2119    0.2338   -1.3267 O   0  0  0  0  0  0  0  0  0  0  0  0
    1.5393    0.2732   -0.8839 C   0  0  0  0  0  0  0  0  0  0  0  0
    1.5504    1.0952    0.3757 C   0  0  0  0  0  0  0  0  0  0  0  0
    0.7756    0.3693    1.2540 O   0  0  0  0  0  0  0  0  0  0  0  0
    0.4224   -0.8303    0.6529 C   0  0  0  0  0  0  0  0  0  0  0  0
    1.6852   -1.1011   -0.2014 C   0  0  0  0  0  0  0  0  0  0  0  0
   -1.2641    1.4611    0.9666 H   0  0  0  0  0  0  0  0  0  0  0  0
   -2.6280    1.7130   -0.2228 H   0  0  0  0  0  0  0  0  0  0  0  0
   -2.9021    0.8429    1.2919 H   0  0  0  0  0  0  0  0  0  0  0  0
   -2.3077   -1.1318    0.3932 H   0  0  0  0  0  0  0  0  0  0  0  0
   -2.4676   -0.3231   -1.1701 H   0  0  0  0  0  0  0  0  0  0  0  0
   -0.4946   -1.6240   -1.0725 H   0  0  0  0  0  0  0  0  0  0  0  0
    2.2772    0.4830   -1.6123 H   0  0  0  0  0  0  0  0  0  0  0  0
    1.2228    2.1325    0.2274 H   0  0  0  0  0  0  0  0  0  0  0  0
    2.6070    1.0451    0.7724 H   0  0  0  0  0  0  0  0  0  0  0  0
    0.1809   -1.6357    1.3079 H   0  0  0  0  0  0  0  0  0  0  0  0
    1.5101   -1.9200   -0.8994 H   0  0  0  0  0  0  0  0  0  0  0  0
    2.5739   -1.1598    0.4121 H   0  0  0  0  0  0  0  0  0  0  0  0
  1  2  1  0
  2  3  1  0
  3  4  1  0
  4  5  1  0
  5  6  1  0
  6  7  1  0
  7  8  1  0
  8  9  1  0
  8  3  1  0
  9  5  1  0
  1 10  1  0
  1 11  1  0
  1 12  1  0
  2 13  1  0
  2 14  1  0
  3 15  1  0
  5 16  1  0
  6 17  1  0
  6 18  1  0
  8 19  1  0
  9 20  1  0
  9 21  1  0
M  END
