
     RDKit          3D

 19 20  0  0  0  0  0  0  0  0999 V2000
    2.8212    0.0329   -0.0452 C   0  0  0  0  0  0  0  0  0  0  0  0
    1.4700   -0.4212   -0.5926 C   0  0  0  0  0  0  0  0  0  0  0  0
    0.3984   -0.3715    0.4711 C   0  0  0  0  0  0  0  0  0  0  0  0
    0.1814    0.8946    1.0146 O   0  0  0  0  0  0  0  0  0  0  0  0
   -1.1282    1.0541    0.6403 C   0  0  0  0  0  0  0  0  0  0  0  0
   -2.0921   -0.0621    0.7942 C   0  0  0  0  0  0  0  0  0  0  0  0
   -3.3442    0.0361    0.2424 O   0  0  0  0  0  0  0  0  0  0  0  0
   -0.9704   -0.2710   -0.1547 C   0  0  0  0  0  0  0  0  0  0  0  0
   -1.1097   -0.1294   -1.5110 O   0  0  0  0  0  0  0  0  0  0  0  0
    3.2719    0.6781   -0.8289 H   0  0  0  0  0  0  0  0  0  0  0  0
    3.4872   -0.8270    0.1449 H   0  0  0  0  0  0  0  0  0  0  0  0
    2.6777    0.6589    0.8748 H   0  0  0  0  0  0  0  0  0  0  0  0
    1.1324    0.2195   -1.4304 H   0  0  0  0  0  0  0  0  0  0  0  0
    1.5127   -1.4687   -0.9588 H   0  0  0  0  0  0  0  0  0  0  0  0
    0.4332   -1.1459    1.2391 H   0  0  0  0  0  0  0  0  0  0  0  0
   -1.4685    1.9320    0.0735 H   0  0  0  0  0  0  0  0  0  0  0  0
   -1.9965   -0.6260    1.7651 H   0  0  0  0  0  0  0  0  0  0  0  0
   -3.6763   -0.8824    0.0391 H   0  0  0  0  0  0  0  0  0  0  0  0
   -1.6001    0.6988   -1.7774 H   0  0  0  0  0  0  0  0  0  0  0  0
  1  2  1  0
  2  3  1  0
  3  4  1  0
  4  5  1  0
  5  6  1  0
  6  7  1  0
  6  8  1  0
  8  9  1  0
  8  3  1  0
  8  5  1  0
  1 10  1  0
  1 11  1  0
  1 12  1  0
  2 13  1  0
  2 14  1  0
  3 15  1  0
  5 16  1  0
  6 17  1  0
  7 18  1  0
  9 19  1  0
M  END
