
     RDKit          3D

 25 25  0  0  0  0  0  0  0  0999 V2000
   -2.7908    0.7832   -0.2605 C   0  0  0  0  0  0  0  0  0  0  0  0
   -1.3312    0.6768   -0.6989 C   0  0  0  0  0  0  0  0  0  0  0  0
   -0.5807   -0.0131    0.3796 C   0  0  0  0  0  0  0  0  0  0  0  0
   -1.1363   -1.4210    0.6397 C   0  0  0  0  0  0  0  0  0  0  0  0
    0.3100   -1.7910    0.9925 C   0  0  0  0  0  0  0  0  0  0  0  0
    0.7006   -0.6934   -0.0087 C   0  0  0  0  0  0  0  0  0  0  0  0
    1.9609   -0.0283    0.4454 C   0  0  0  0  0  0  0  0  0  0  0  0
    2.0898    1.3836   -0.1109 C   0  0  0  0  0  0  0  0  0  0  0  0
    2.0909    1.2391   -1.5122 O   0  0  0  0  0  0  0  0  0  0  0  0
   -3.4038    1.2957   -1.0181 H   0  0  0  0  0  0  0  0  0  0  0  0
   -3.2285   -0.2383   -0.1405 H   0  0  0  0  0  0  0  0  0  0  0  0
   -2.8132    1.2574    0.7333 H   0  0  0  0  0  0  0  0  0  0  0  0
   -1.2186    0.2321   -1.6859 H   0  0  0  0  0  0  0  0  0  0  0  0
   -0.9514    1.7329   -0.7608 H   0  0  0  0  0  0  0  0  0  0  0  0
   -0.4719    0.5798    1.2982 H   0  0  0  0  0  0  0  0  0  0  0  0
   -1.4080   -1.9179   -0.3008 H   0  0  0  0  0  0  0  0  0  0  0  0
   -1.8373   -1.4629    1.4691 H   0  0  0  0  0  0  0  0  0  0  0  0
    0.5728   -2.8058    0.6826 H   0  0  0  0  0  0  0  0  0  0  0  0
    0.5993   -1.5092    2.0248 H   0  0  0  0  0  0  0  0  0  0  0  0
    0.7661   -1.0664   -1.0372 H   0  0  0  0  0  0  0  0  0  0  0  0
    2.1199   -0.0645    1.5288 H   0  0  0  0  0  0  0  0  0  0  0  0
    2.8129   -0.6012   -0.0112 H   0  0  0  0  0  0  0  0  0  0  0  0
    1.2390    1.9967    0.1877 H   0  0  0  0  0  0  0  0  0  0  0  0
    3.0600    1.7937    0.2535 H   0  0  0  0  0  0  0  0  0  0  0  0
    2.8493    0.6421   -1.7466 H   0  0  0  0  0  0  0  0  0  0  0  0
  1  2  1  0
  2  3  1  0
  3  4  1  0
  4  5  1  0
  5  6  1  0
  6  7  1  0
  7  8  1  0
  8  9  1  0
  6  3  1  0
  1 10  1  0
  1 11  1  0
  1 12  1  0
  2 13  1  0
  2 14  1  0
  3 15  1  0
  4 16  1  0
  4 17  1  0
  5 18  1  0
  5 19  1  0
  6 20  1  0
  7 21  1  0
  7 22  1  0
  8 23  1  0
  8 24  1  0
  9 25  1  0
M  END
