
     RDKit          3D

 25 25  0  0  0  0  0  0  0  0999 V2000
    3.2369   -0.3554   -0.3154 C   0  0  0  0  0  0  0  0  0  0  0  0
    1.9861   -0.6307    0.4451 C   0  0  0  0  0  0  0  0  0  0  0  0
    0.8522    0.3103    0.1157 C   0  0  0  0  0  0  0  0  0  0  0  0
    0.4427    0.2788   -1.3142 C   0  0  0  0  0  0  0  0  0  0  0  0
   -0.9185    0.2987   -1.3985 O   0  0  0  0  0  0  0  0  0  0  0  0
   -1.4684    0.1583   -0.1569 C   0  0  0  0  0  0  0  0  0  0  0  0
   -2.1296    1.4774    0.2482 C   0  0  0  0  0  0  0  0  0  0  0  0
   -2.6106   -0.8647   -0.2024 C   0  0  0  0  0  0  0  0  0  0  0  0
   -0.3991   -0.2408    0.8113 C   0  0  0  0  0  0  0  0  0  0  0  0
    4.1043   -0.5661    0.3568 H   0  0  0  0  0  0  0  0  0  0  0  0
    3.3275    0.6777   -0.6917 H   0  0  0  0  0  0  0  0  0  0  0  0
    3.3328   -1.1028   -1.1545 H   0  0  0  0  0  0  0  0  0  0  0  0
    1.6818   -1.6821    0.2883 H   0  0  0  0  0  0  0  0  0  0  0  0
    2.1892   -0.4946    1.5453 H   0  0  0  0  0  0  0  0  0  0  0  0
    1.0204    1.3176    0.5309 H   0  0  0  0  0  0  0  0  0  0  0  0
    0.8166   -0.6886   -1.7486 H   0  0  0  0  0  0  0  0  0  0  0  0
    0.9010    1.1301   -1.8705 H   0  0  0  0  0  0  0  0  0  0  0  0
   -1.3908    2.2834    0.3703 H   0  0  0  0  0  0  0  0  0  0  0  0
   -2.7073    1.3033    1.1688 H   0  0  0  0  0  0  0  0  0  0  0  0
   -2.7803    1.7646   -0.6025 H   0  0  0  0  0  0  0  0  0  0  0  0
   -3.2558   -0.5310   -1.0542 H   0  0  0  0  0  0  0  0  0  0  0  0
   -2.1784   -1.8591   -0.3497 H   0  0  0  0  0  0  0  0  0  0  0  0
   -3.2313   -0.7652    0.7094 H   0  0  0  0  0  0  0  0  0  0  0  0
   -0.5186    0.1372    1.8213 H   0  0  0  0  0  0  0  0  0  0  0  0
   -0.3028   -1.3565    0.7489 H   0  0  0  0  0  0  0  0  0  0  0  0
  1  2  1  0
  2  3  1  0
  3  4  1  0
  4  5  1  0
  5  6  1  0
  6  7  1  0
  6  8  1  0
  6  9  1  0
  9  3  1  0
  1 10  1  0
  1 11  1  0
  1 12  1  0
  2 13  1  0
  2 14  1  0
  3 15  1  0
  4 16  1  0
  4 17  1  0
  7 18  1  0
  7 19  1  0
  7 20  1  0
  8 21  1  0
  8 22  1  0
  8 23  1  0
  9 24  1  0
  9 25  1  0
M  END
