
     RDKit          3D

 23 23  0  0  0  0  0  0  0  0999 V2000
    2.6852    0.2115   -0.0478 C   0  0  0  0  0  0  0  0  0  0  0  0
    1.5238   -0.6073   -0.4984 C   0  0  0  0  0  0  0  0  0  0  0  0
    0.2905   -0.4050    0.3555 C   0  0  0  0  0  0  0  0  0  0  0  0
   -0.1758    1.0183    0.3497 C   0  0  0  0  0  0  0  0  0  0  0  0
    0.0997    1.6032   -0.9063 O   0  0  0  0  0  0  0  0  0  0  0  0
   -1.6829    0.9670    0.5058 C   0  0  0  0  0  0  0  0  0  0  0  0
   -2.0366   -0.2471   -0.3081 C   0  0  0  0  0  0  0  0  0  0  0  0
   -0.8619   -1.1799   -0.2057 C   0  0  0  0  0  0  0  0  0  0  0  0
   -0.5657   -1.6421   -1.4887 O   0  0  0  0  0  0  0  0  0  0  0  0
    3.2247    0.6278   -0.9259 H   0  0  0  0  0  0  0  0  0  0  0  0
    3.4269   -0.3799    0.5271 H   0  0  0  0  0  0  0  0  0  0  0  0
    2.3946    1.0831    0.5777 H   0  0  0  0  0  0  0  0  0  0  0  0
    1.8140   -1.6836   -0.4082 H   0  0  0  0  0  0  0  0  0  0  0  0
    1.3169   -0.4309   -1.5715 H   0  0  0  0  0  0  0  0  0  0  0  0
    0.4510   -0.7264    1.3956 H   0  0  0  0  0  0  0  0  0  0  0  0
    0.2356    1.5963    1.1752 H   0  0  0  0  0  0  0  0  0  0  0  0
   -0.4583    2.4381   -0.9159 H   0  0  0  0  0  0  0  0  0  0  0  0
   -1.9482    0.8544    1.5807 H   0  0  0  0  0  0  0  0  0  0  0  0
   -2.0795    1.8915    0.0521 H   0  0  0  0  0  0  0  0  0  0  0  0
   -2.9778   -0.6810    0.0928 H   0  0  0  0  0  0  0  0  0  0  0  0
   -2.2504    0.0672   -1.3485 H   0  0  0  0  0  0  0  0  0  0  0  0
   -1.1709   -2.0287    0.4412 H   0  0  0  0  0  0  0  0  0  0  0  0
   -1.2552   -2.3464   -1.6915 H   0  0  0  0  0  0  0  0  0  0  0  0
  1  2  1  0
  2  3  1  0
  3  4  1  0
  4  5  1  0
  4  6  1  0
  6  7  1  0
  7  8  1  0
  8  9  1  0
  8  3  1  0
  1 10  1  0
  1 11  1  0
  1 12  1  0
  2 13  1  0
  2 14  1  0
  3 15  1  0
  4 16  1  0
  5 17  1  0
  6 18  1  0
  6 19  1  0
  7 20  1  0
  7 21  1  0
  8 22  1  0
  9 23  1  0
M  END
