
     RDKit          3D

 18 18  0  0  0  0  0  0  0  0999 V2000
    2.2273    0.2987    0.0496 C   0  0  0  0  0  0  0  0  0  0  0  0
    0.8920    0.6001   -0.5372 C   0  0  0  0  0  0  0  0  0  0  0  0
   -0.1282   -0.4749   -0.2884 C   0  0  0  0  0  0  0  0  0  0  0  0
   -0.4009   -0.7426    1.1385 C   0  0  0  0  0  0  0  0  0  0  0  0
   -1.3323    0.2816    1.4781 O   0  0  0  0  0  0  0  0  0  0  0  0
   -2.1623    0.4494    0.3759 C   0  0  0  0  0  0  0  0  0  0  0  0
   -3.3046    0.9752    0.3037 O   0  0  0  0  0  0  0  0  0  0  0  0
   -1.4873   -0.1160   -0.8302 C   0  0  0  0  0  0  0  0  0  0  0  0
    2.8081    1.2524    0.1886 H   0  0  0  0  0  0  0  0  0  0  0  0
    2.8735   -0.3127   -0.6437 H   0  0  0  0  0  0  0  0  0  0  0  0
    2.2221   -0.2017    1.0163 H   0  0  0  0  0  0  0  0  0  0  0  0
    0.5595    1.5863   -0.1251 H   0  0  0  0  0  0  0  0  0  0  0  0
    1.0264    0.7711   -1.6252 H   0  0  0  0  0  0  0  0  0  0  0  0
    0.2251   -1.4101   -0.7675 H   0  0  0  0  0  0  0  0  0  0  0  0
    0.4420   -0.8039    1.8071 H   0  0  0  0  0  0  0  0  0  0  0  0
   -0.9864   -1.6951    1.2081 H   0  0  0  0  0  0  0  0  0  0  0  0
   -1.4563    0.6006   -1.6649 H   0  0  0  0  0  0  0  0  0  0  0  0
   -2.0178   -1.0582   -1.0837 H   0  0  0  0  0  0  0  0  0  0  0  0
  1  2  1  0
  2  3  1  0
  3  4  1  0
  4  5  1  0
  5  6  1  0
  6  7  2  0
  6  8  1  0
  8  3  1  0
  1  9  1  0
  1 10  1  0
  1 11  1  0
  2 12  1  0
  2 13  1  0
  3 14  1  0
  4 15  1  0
  4 16  1  0
  8 17  1  0
  8 18  1  0
M  END
