
     RDKit          3D

 23 24  0  0  0  0  0  0  0  0999 V2000
    2.8801    0.0195    0.0801 C   0  0  0  0  0  0  0  0  0  0  0  0
    1.5435    0.1661   -0.6391 C   0  0  0  0  0  0  0  0  0  0  0  0
    0.3997    0.1210    0.3260 C   0  0  0  0  0  0  0  0  0  0  0  0
    0.3395    1.1446    1.3925 C   0  0  0  0  0  0  0  0  0  0  0  0
   -0.6655    1.1664    0.2806 C   0  0  0  0  0  0  0  0  0  0  0  0
   -1.7451    0.1259    0.3754 C   0  0  0  0  0  0  0  0  0  0  0  0
   -2.6760    0.0296   -0.7914 C   0  0  0  0  0  0  0  0  0  0  0  0
   -0.6456   -0.9346    0.2530 C   0  0  0  0  0  0  0  0  0  0  0  0
   -0.6266   -1.5811   -0.9835 O   0  0  0  0  0  0  0  0  0  0  0  0
    3.6182    0.6342   -0.4706 H   0  0  0  0  0  0  0  0  0  0  0  0
    3.2039   -1.0437   -0.0376 H   0  0  0  0  0  0  0  0  0  0  0  0
    2.8098    0.2602    1.1482 H   0  0  0  0  0  0  0  0  0  0  0  0
    1.5269    1.1988   -1.0985 H   0  0  0  0  0  0  0  0  0  0  0  0
    1.4537   -0.5467   -1.4684 H   0  0  0  0  0  0  0  0  0  0  0  0
    0.0110    0.7585    2.3831 H   0  0  0  0  0  0  0  0  0  0  0  0
    1.0585    1.9725    1.3892 H   0  0  0  0  0  0  0  0  0  0  0  0
   -0.6387    1.8984   -0.5184 H   0  0  0  0  0  0  0  0  0  0  0  0
   -2.2204    0.1697    1.3749 H   0  0  0  0  0  0  0  0  0  0  0  0
   -2.6419    0.8894   -1.4750 H   0  0  0  0  0  0  0  0  0  0  0  0
   -2.4926   -0.8875   -1.4159 H   0  0  0  0  0  0  0  0  0  0  0  0
   -3.7084   -0.1000   -0.3800 H   0  0  0  0  0  0  0  0  0  0  0  0
   -0.7188   -1.6144    1.1241 H   0  0  0  0  0  0  0  0  0  0  0  0
   -0.0652   -2.3982   -0.8490 H   0  0  0  0  0  0  0  0  0  0  0  0
  1  2  1  0
  2  3  1  0
  3  4  1  0
  4  5  1  0
  5  6  1  0
  6  7  1  0
  6  8  1  0
  8  9  1  0
  5  3  1  0
  8  3  1  0
  1 10  1  0
  1 11  1  0
  1 12  1  0
  2 13  1  0
  2 14  1  0
  4 15  1  0
  4 16  1  0
  5 17  1  0
  6 18  1  0
  7 19  1  0
  7 20  1  0
  7 21  1  0
  8 22  1  0
  9 23  1  0
M  END
