
     RDKit          3D

 21 22  0  0  0  0  0  0  0  0999 V2000
    2.2173    0.3417   -0.6731 C   0  0  0  0  0  0  0  0  0  0  0  0
    1.3944   -0.8370   -1.0966 C   0  0  0  0  0  0  0  0  0  0  0  0
    0.2241   -1.1043   -0.2073 C   0  0  0  0  0  0  0  0  0  0  0  0
    0.5948   -1.3616    1.0903 O   0  0  0  0  0  0  0  0  0  0  0  0
   -0.3851   -0.4964    1.5662 C   0  0  0  0  0  0  0  0  0  0  0  0
   -0.2472    0.9575    1.2958 C   0  0  0  0  0  0  0  0  0  0  0  0
   -0.6232    0.0654    0.1740 C   0  0  0  0  0  0  0  0  0  0  0  0
   -2.0701    0.1102   -0.2834 C   0  0  0  0  0  0  0  0  0  0  0  0
   -2.6480    1.2834    0.1899 O   0  0  0  0  0  0  0  0  0  0  0  0
    3.1043    0.3773   -1.3654 H   0  0  0  0  0  0  0  0  0  0  0  0
    1.7001    1.3055   -0.8034 H   0  0  0  0  0  0  0  0  0  0  0  0
    2.6229    0.1678    0.3268 H   0  0  0  0  0  0  0  0  0  0  0  0
    1.1307   -0.7521   -2.1648 H   0  0  0  0  0  0  0  0  0  0  0  0
    2.0674   -1.7394   -1.0298 H   0  0  0  0  0  0  0  0  0  0  0  0
   -0.4105   -1.9068   -0.6466 H   0  0  0  0  0  0  0  0  0  0  0  0
   -1.2348   -0.8812    2.1497 H   0  0  0  0  0  0  0  0  0  0  0  0
    0.7631    1.3687    1.4152 H   0  0  0  0  0  0  0  0  0  0  0  0
   -1.0407    1.6059    1.6999 H   0  0  0  0  0  0  0  0  0  0  0  0
   -2.0618    0.1905   -1.3966 H   0  0  0  0  0  0  0  0  0  0  0  0
   -2.6499   -0.7681    0.0688 H   0  0  0  0  0  0  0  0  0  0  0  0
   -2.4477    2.0729   -0.3682 H   0  0  0  0  0  0  0  0  0  0  0  0
  1  2  1  0
  2  3  1  0
  3  4  1  0
  4  5  1  0
  5  6  1  0
  6  7  1  0
  7  8  1  0
  8  9  1  0
  7  3  1  0
  7  5  1  0
  1 10  1  0
  1 11  1  0
  1 12  1  0
  2 13  1  0
  2 14  1  0
  3 15  1  0
  5 16  1  0
  6 17  1  0
  6 18  1  0
  8 19  1  0
  8 20  1  0
  9 21  1  0
M  END
