
     RDKit          3D

 20 21  0  0  0  0  0  0  0  0999 V2000
    2.5796    0.4118    0.3754 C   0  0  0  0  0  0  0  0  0  0  0  0
    1.3070   -0.1636    0.8994 C   0  0  0  0  0  0  0  0  0  0  0  0
    0.1029    0.2408    0.1281 C   0  0  0  0  0  0  0  0  0  0  0  0
   -0.2806    1.5472   -0.0157 O   0  0  0  0  0  0  0  0  0  0  0  0
   -0.0590    0.7417   -1.1297 C   0  0  0  0  0  0  0  0  0  0  0  0
   -1.0884   -0.3077   -1.4910 C   0  0  0  0  0  0  0  0  0  0  0  0
   -1.0250   -0.7594   -0.0245 C   0  0  0  0  0  0  0  0  0  0  0  0
   -2.2445   -0.2609    0.7153 C   0  0  0  0  0  0  0  0  0  0  0  0
    2.3714    1.4157   -0.0486 H   0  0  0  0  0  0  0  0  0  0  0  0
    3.0673   -0.2460   -0.3672 H   0  0  0  0  0  0  0  0  0  0  0  0
    3.2884    0.5515    1.2297 H   0  0  0  0  0  0  0  0  0  0  0  0
    1.1742    0.1029    1.9879 H   0  0  0  0  0  0  0  0  0  0  0  0
    1.3720   -1.2780    0.8745 H   0  0  0  0  0  0  0  0  0  0  0  0
    0.5879    1.1791   -1.8872 H   0  0  0  0  0  0  0  0  0  0  0  0
   -0.6781   -1.0588   -2.1848 H   0  0  0  0  0  0  0  0  0  0  0  0
   -2.0695    0.0677   -1.8039 H   0  0  0  0  0  0  0  0  0  0  0  0
   -0.7699   -1.8068    0.0902 H   0  0  0  0  0  0  0  0  0  0  0  0
   -3.1652   -0.5433    0.1628 H   0  0  0  0  0  0  0  0  0  0  0  0
   -2.2510   -0.6861    1.7517 H   0  0  0  0  0  0  0  0  0  0  0  0
   -2.2197    0.8520    0.7377 H   0  0  0  0  0  0  0  0  0  0  0  0
  1  2  1  0
  2  3  1  0
  3  4  1  0
  4  5  1  0
  5  6  1  0
  6  7  1  0
  7  8  1  0
  5  3  1  0
  7  3  1  0
  1  9  1  0
  1 10  1  0
  1 11  1  0
  2 12  1  0
  2 13  1  0
  5 14  1  0
  6 15  1  0
  6 16  1  0
  7 17  1  0
  8 18  1  0
  8 19  1  0
  8 20  1  0
M  END
