
     RDKit          3D

 19 21  0  0  0  0  0  0  0  0999 V2000
    2.0426   -0.7803   -0.5926 C   0  0  0  0  0  0  0  0  0  0  0  0
    1.3169    0.5325   -0.3746 C   0  0  0  0  0  0  0  0  0  0  0  0
    0.1418    0.4332    0.3501 C   0  0  0  0  0  0  0  0  0  0  0  0
   -0.7674    1.5874    0.7045 C   0  0  0  0  0  0  0  0  0  0  0  0
   -1.3044    0.3290    1.3553 C   0  0  0  0  0  0  0  0  0  0  0  0
    0.0407    0.0909    1.6999 O   0  0  0  0  0  0  0  0  0  0  0  0
   -1.0387   -0.3691    0.1186 C   0  0  0  0  0  0  0  0  0  0  0  0
   -1.4677   -1.4045   -0.5895 C   0  0  0  0  0  0  0  0  0  0  0  0
   -1.7889   -0.0125   -1.0592 O   0  0  0  0  0  0  0  0  0  0  0  0
    2.6554   -0.9639    0.3225 H   0  0  0  0  0  0  0  0  0  0  0  0
    1.3542   -1.6411   -0.6739 H   0  0  0  0  0  0  0  0  0  0  0  0
    2.7402   -0.7319   -1.4600 H   0  0  0  0  0  0  0  0  0  0  0  0
    2.0761    1.2280    0.0940 H   0  0  0  0  0  0  0  0  0  0  0  0
    1.1562    0.9639   -1.3893 H   0  0  0  0  0  0  0  0  0  0  0  0
   -1.3957    1.9591   -0.1146 H   0  0  0  0  0  0  0  0  0  0  0  0
   -0.3469    2.3367    1.3864 H   0  0  0  0  0  0  0  0  0  0  0  0
   -2.0708    0.3008    2.0127 H   0  0  0  0  0  0  0  0  0  0  0  0
   -2.4301   -1.9544   -0.3759 H   0  0  0  0  0  0  0  0  0  0  0  0
   -0.9134   -1.9039   -1.4145 H   0  0  0  0  0  0  0  0  0  0  0  0
  1  2  1  0
  2  3  1  0
  3  4  1  0
  4  5  1  0
  5  6  1  0
  5  7  1  0
  7  8  1  0
  8  9  1  0
  6  3  1  0
  9  7  1  0
  7  3  1  0
  1 10  1  0
  1 11  1  0
  1 12  1  0
  2 13  1  0
  2 14  1  0
  4 15  1  0
  4 16  1  0
  5 17  1  0
  8 18  1  0
  8 19  1  0
M  END
