
     RDKit          3D

 21 21  0  0  0  0  0  0  0  0999 V2000
   -1.1235    1.6619    0.2462 C   0  0  0  0  0  0  0  0  0  0  0  0
   -1.3740    0.3075   -0.3378 C   0  0  0  0  0  0  0  0  0  0  0  0
   -0.6704   -0.7725    0.4268 C   0  0  0  0  0  0  0  0  0  0  0  0
   -0.8932   -2.1608   -0.1227 C   0  0  0  0  0  0  0  0  0  0  0  0
    0.2971   -2.0866   -0.8745 O   0  0  0  0  0  0  0  0  0  0  0  0
    0.7401   -1.0919    0.0157 C   0  0  0  0  0  0  0  0  0  0  0  0
    1.5303   -0.0220   -0.6002 C   0  0  0  0  0  0  0  0  0  0  0  0
    2.0805    1.0979    0.2031 C   0  0  0  0  0  0  0  0  0  0  0  0
    1.7483   -0.0389   -1.7936 O   0  0  0  0  0  0  0  0  0  0  0  0
   -0.5292    2.2694   -0.4753 H   0  0  0  0  0  0  0  0  0  0  0  0
   -2.0768    2.2497    0.3815 H   0  0  0  0  0  0  0  0  0  0  0  0
   -0.5822    1.6503    1.2078 H   0  0  0  0  0  0  0  0  0  0  0  0
   -2.4788    0.1079   -0.2459 H   0  0  0  0  0  0  0  0  0  0  0  0
   -1.1295    0.2995   -1.4145 H   0  0  0  0  0  0  0  0  0  0  0  0
   -0.8906   -0.7416    1.4938 H   0  0  0  0  0  0  0  0  0  0  0  0
   -0.9270   -2.9683    0.6165 H   0  0  0  0  0  0  0  0  0  0  0  0
   -1.7664   -2.2297   -0.8037 H   0  0  0  0  0  0  0  0  0  0  0  0
    1.2613   -1.6206    0.8642 H   0  0  0  0  0  0  0  0  0  0  0  0
    1.8478    2.0949   -0.2175 H   0  0  0  0  0  0  0  0  0  0  0  0
    3.2030    0.9644    0.1617 H   0  0  0  0  0  0  0  0  0  0  0  0
    1.7331    1.0294    1.2682 H   0  0  0  0  0  0  0  0  0  0  0  0
  1  2  1  0
  2  3  1  0
  3  4  1  0
  4  5  1  0
  5  6  1  0
  6  7  1  0
  7  8  1  0
  7  9  2  0
  6  3  1  0
  1 10  1  0
  1 11  1  0
  1 12  1  0
  2 13  1  0
  2 14  1  0
  3 15  1  0
  4 16  1  0
  4 17  1  0
  6 18  1  0
  8 19  1  0
  8 20  1  0
  8 21  1  0
M  END
