
     RDKit          3D

 25 26  0  0  0  0  0  0  0  0999 V2000
   -3.1682   -0.4062    0.2714 C   0  0  0  0  0  0  0  0  0  0  0  0
   -2.1716    0.6778   -0.0273 C   0  0  0  0  0  0  0  0  0  0  0  0
   -0.8719    0.2648    0.0146 C   0  0  0  0  0  0  0  0  0  0  0  0
   -0.2234   -0.8033   -0.8252 C   0  0  0  0  0  0  0  0  0  0  0  0
    0.9250   -0.2228   -0.0277 C   0  0  0  0  0  0  0  0  0  0  0  0
    2.2291   -0.6094   -0.0422 C   0  0  0  0  0  0  0  0  0  0  0  0
    3.0887    0.2329    0.9138 C   0  0  0  0  0  0  0  0  0  0  0  0
    0.3414    1.1105   -0.3794 C   0  0  0  0  0  0  0  0  0  0  0  0
   -0.0379   -0.2180    1.1313 C   0  0  0  0  0  0  0  0  0  0  0  0
   -3.3090   -1.0970   -0.6042 H   0  0  0  0  0  0  0  0  0  0  0  0
   -4.1761    0.0500    0.4348 H   0  0  0  0  0  0  0  0  0  0  0  0
   -2.9394   -0.9709    1.1914 H   0  0  0  0  0  0  0  0  0  0  0  0
   -2.3910    1.5138    0.6764 H   0  0  0  0  0  0  0  0  0  0  0  0
   -2.4602    1.0926   -1.0376 H   0  0  0  0  0  0  0  0  0  0  0  0
   -0.5296   -1.8190   -0.5222 H   0  0  0  0  0  0  0  0  0  0  0  0
   -0.1785   -0.6007   -1.9091 H   0  0  0  0  0  0  0  0  0  0  0  0
    2.4355   -1.6600    0.2501 H   0  0  0  0  0  0  0  0  0  0  0  0
    2.7323   -0.4881   -1.0357 H   0  0  0  0  0  0  0  0  0  0  0  0
    3.3068    1.1756    0.3732 H   0  0  0  0  0  0  0  0  0  0  0  0
    2.4844    0.5180    1.8240 H   0  0  0  0  0  0  0  0  0  0  0  0
    3.9854   -0.3126    1.2252 H   0  0  0  0  0  0  0  0  0  0  0  0
    0.3676    1.4097   -1.4360 H   0  0  0  0  0  0  0  0  0  0  0  0
    0.6021    1.8895    0.3594 H   0  0  0  0  0  0  0  0  0  0  0  0
    0.2759    0.4950    1.9027 H   0  0  0  0  0  0  0  0  0  0  0  0
   -0.3174   -1.2221    1.4897 H   0  0  0  0  0  0  0  0  0  0  0  0
  1  2  1  0
  2  3  1  0
  3  4  1  0
  4  5  1  0
  5  6  1  0
  6  7  1  0
  5  8  1  0
  5  9  1  0
  8  3  1  0
  9  3  1  0
  1 10  1  0
  1 11  1  0
  1 12  1  0
  2 13  1  0
  2 14  1  0
  4 15  1  0
  4 16  1  0
  6 17  1  0
  6 18  1  0
  7 19  1  0
  7 20  1  0
  7 21  1  0
  8 22  1  0
  8 23  1  0
  9 24  1  0
  9 25  1  0
M  END
