
     RDKit          3D

 21 21  0  0  0  0  0  0  0  0999 V2000
    2.5876   -0.3030    0.4007 C   0  0  0  0  0  0  0  0  0  0  0  0
    1.4604    0.6052    0.0181 C   0  0  0  0  0  0  0  0  0  0  0  0
    0.1381    0.2150    0.6146 C   0  0  0  0  0  0  0  0  0  0  0  0
   -0.3228   -1.1439    0.2250 C   0  0  0  0  0  0  0  0  0  0  0  0
   -1.8198   -1.2517    0.0387 C   0  0  0  0  0  0  0  0  0  0  0  0
   -2.5399   -0.3473    0.8342 O   0  0  0  0  0  0  0  0  0  0  0  0
   -2.2161    1.0046    0.6901 C   0  0  0  0  0  0  0  0  0  0  0  0
   -2.9933    1.9384    0.9350 O   0  0  0  0  0  0  0  0  0  0  0  0
   -0.8496    1.3122    0.2124 C   0  0  0  0  0  0  0  0  0  0  0  0
    2.3867   -0.9348    1.2771 H   0  0  0  0  0  0  0  0  0  0  0  0
    2.8765   -0.8990   -0.4928 H   0  0  0  0  0  0  0  0  0  0  0  0
    3.5168    0.2834    0.6613 H   0  0  0  0  0  0  0  0  0  0  0  0
    1.7071    1.6278    0.3724 H   0  0  0  0  0  0  0  0  0  0  0  0
    1.3226    0.6927   -1.0893 H   0  0  0  0  0  0  0  0  0  0  0  0
    0.1776    0.2561    1.7298 H   0  0  0  0  0  0  0  0  0  0  0  0
    0.1282   -1.5087   -0.7440 H   0  0  0  0  0  0  0  0  0  0  0  0
   -0.0617   -1.8902    1.0167 H   0  0  0  0  0  0  0  0  0  0  0  0
   -2.0664   -1.0071   -1.0326 H   0  0  0  0  0  0  0  0  0  0  0  0
   -2.1663   -2.2906    0.2334 H   0  0  0  0  0  0  0  0  0  0  0  0
   -0.7788    1.3851   -0.8909 H   0  0  0  0  0  0  0  0  0  0  0  0
   -0.4871    2.2554    0.6436 H   0  0  0  0  0  0  0  0  0  0  0  0
  1  2  1  0
  2  3  1  0
  3  4  1  0
  4  5  1  0
  5  6  1  0
  6  7  1  0
  7  8  2  0
  7  9  1  0
  9  3  1  0
  1 10  1  0
  1 11  1  0
  1 12  1  0
  2 13  1  0
  2 14  1  0
  3 15  1  0
  4 16  1  0
  4 17  1  0
  5 18  1  0
  5 19  1  0
  9 20  1  0
  9 21  1  0
M  END
