
     RDKit          3D

 18 18  0  0  0  0  0  0  0  0999 V2000
    2.4111    0.5142   -0.3599 C   0  0  0  0  0  0  0  0  0  0  0  0
    1.3746   -0.5772   -0.0753 C   0  0  0  0  0  0  0  0  0  0  0  0
    0.0248    0.0334   -0.4060 C   0  0  0  0  0  0  0  0  0  0  0  0
   -0.1847    1.1698    0.4134 O   0  0  0  0  0  0  0  0  0  0  0  0
   -0.7110    0.3212    1.3784 C   0  0  0  0  0  0  0  0  0  0  0  0
   -0.8091    0.2758    2.6319 O   0  0  0  0  0  0  0  0  0  0  0  0
   -1.1456   -0.5783    0.2801 C   0  0  0  0  0  0  0  0  0  0  0  0
   -2.4426   -0.0788   -0.3364 C   0  0  0  0  0  0  0  0  0  0  0  0
    2.0946    1.0921   -1.2762 H   0  0  0  0  0  0  0  0  0  0  0  0
    3.4099    0.0755   -0.5721 H   0  0  0  0  0  0  0  0  0  0  0  0
    2.4387    1.2639    0.4608 H   0  0  0  0  0  0  0  0  0  0  0  0
    1.5973   -1.4720   -0.6552 H   0  0  0  0  0  0  0  0  0  0  0  0
    1.4388   -0.8256    1.0036 H   0  0  0  0  0  0  0  0  0  0  0  0
   -0.0780    0.2237   -1.4907 H   0  0  0  0  0  0  0  0  0  0  0  0
   -1.1117   -1.6459    0.4959 H   0  0  0  0  0  0  0  0  0  0  0  0
   -2.8191   -0.7886   -1.1014 H   0  0  0  0  0  0  0  0  0  0  0  0
   -2.2704    0.8985   -0.8346 H   0  0  0  0  0  0  0  0  0  0  0  0
   -3.2177    0.0983    0.4439 H   0  0  0  0  0  0  0  0  0  0  0  0
  1  2  1  0
  2  3  1  0
  3  4  1  0
  4  5  1  0
  5  6  2  0
  5  7  1  0
  7  8  1  0
  7  3  1  0
  1  9  1  0
  1 10  1  0
  1 11  1  0
  2 12  1  0
  2 13  1  0
  3 14  1  0
  7 15  1  0
  8 16  1  0
  8 17  1  0
  8 18  1  0
M  END
