
     RDKit          3D

 23 24  0  0  0  0  0  0  0  0999 V2000
    2.8345   -0.2880    0.1773 C   0  0  0  0  0  0  0  0  0  0  0  0
    1.7813    0.3531   -0.6951 C   0  0  0  0  0  0  0  0  0  0  0  0
    0.4715    0.4462    0.0473 C   0  0  0  0  0  0  0  0  0  0  0  0
    0.0146   -0.9275    0.4336 C   0  0  0  0  0  0  0  0  0  0  0  0
   -1.4691   -0.9880    0.2125 C   0  0  0  0  0  0  0  0  0  0  0  0
   -2.1851   -1.2111    1.3880 O   0  0  0  0  0  0  0  0  0  0  0  0
   -1.8856    0.2541   -0.4958 C   0  0  0  0  0  0  0  0  0  0  0  0
   -1.7871    1.5863    0.0915 C   0  0  0  0  0  0  0  0  0  0  0  0
   -0.6397    1.0063   -0.7541 C   0  0  0  0  0  0  0  0  0  0  0  0
    2.5778   -1.3632    0.3883 H   0  0  0  0  0  0  0  0  0  0  0  0
    3.8462   -0.1681   -0.2030 H   0  0  0  0  0  0  0  0  0  0  0  0
    2.7821    0.2302    1.1640 H   0  0  0  0  0  0  0  0  0  0  0  0
    1.6345   -0.3020   -1.5832 H   0  0  0  0  0  0  0  0  0  0  0  0
    2.1602    1.3237   -1.0342 H   0  0  0  0  0  0  0  0  0  0  0  0
    0.6255    1.0397    0.9564 H   0  0  0  0  0  0  0  0  0  0  0  0
    0.2543   -1.1221    1.5112 H   0  0  0  0  0  0  0  0  0  0  0  0
    0.5672   -1.6745   -0.1751 H   0  0  0  0  0  0  0  0  0  0  0  0
   -1.6627   -1.8758   -0.4397 H   0  0  0  0  0  0  0  0  0  0  0  0
   -2.8261   -1.9727    1.3042 H   0  0  0  0  0  0  0  0  0  0  0  0
   -2.6418    0.0995   -1.3144 H   0  0  0  0  0  0  0  0  0  0  0  0
   -2.3578    2.3965   -0.3786 H   0  0  0  0  0  0  0  0  0  0  0  0
   -1.5863    1.7638    1.1691 H   0  0  0  0  0  0  0  0  0  0  0  0
   -0.5084    1.3936   -1.7702 H   0  0  0  0  0  0  0  0  0  0  0  0
  1  2  1  0
  2  3  1  0
  3  4  1  0
  4  5  1  0
  5  6  1  0
  5  7  1  0
  7  8  1  0
  8  9  1  0
  9  3  1  0
  9  7  1  0
  1 10  1  0
  1 11  1  0
  1 12  1  0
  2 13  1  0
  2 14  1  0
  3 15  1  0
  4 16  1  0
  4 17  1  0
  5 18  1  0
  6 19  1  0
  7 20  1  0
  8 21  1  0
  8 22  1  0
  9 23  1  0
M  END
