
     RDKit          3D

 21 22  0  0  0  0  0  0  0  0999 V2000
    2.3772    0.3695    0.5648 C   0  0  0  0  0  0  0  0  0  0  0  0
    1.4607   -0.6209   -0.1697 C   0  0  0  0  0  0  0  0  0  0  0  0
    0.2636    0.1377   -0.5994 C   0  0  0  0  0  0  0  0  0  0  0  0
   -0.8216   -0.5430   -1.3448 C   0  0  0  0  0  0  0  0  0  0  0  0
   -1.6809    0.6357   -0.9099 C   0  0  0  0  0  0  0  0  0  0  0  0
   -0.9048    0.2281    0.3394 C   0  0  0  0  0  0  0  0  0  0  0  0
   -0.9662    0.8079    1.5497 C   0  0  0  0  0  0  0  0  0  0  0  0
   -1.6149    0.3657    2.5132 O   0  0  0  0  0  0  0  0  0  0  0  0
   -1.2566   -1.1544   -0.0514 C   0  0  0  0  0  0  0  0  0  0  0  0
    2.9773   -0.2217    1.2655 H   0  0  0  0  0  0  0  0  0  0  0  0
    1.7675    1.0977    1.0948 H   0  0  0  0  0  0  0  0  0  0  0  0
    3.0803    0.8072   -0.1789 H   0  0  0  0  0  0  0  0  0  0  0  0
    1.2139   -1.4224    0.5355 H   0  0  0  0  0  0  0  0  0  0  0  0
    1.9937   -1.0761   -1.0277 H   0  0  0  0  0  0  0  0  0  0  0  0
    0.4994    1.1209   -1.1093 H   0  0  0  0  0  0  0  0  0  0  0  0
   -0.8190   -0.9496   -2.2561 H   0  0  0  0  0  0  0  0  0  0  0  0
   -1.3080    1.5476   -1.3842 H   0  0  0  0  0  0  0  0  0  0  0  0
   -2.7524    0.4559   -0.8799 H   0  0  0  0  0  0  0  0  0  0  0  0
   -0.4359    1.7435    1.7960 H   0  0  0  0  0  0  0  0  0  0  0  0
   -0.7051   -2.0024    0.3448 H   0  0  0  0  0  0  0  0  0  0  0  0
   -2.3680   -1.3269   -0.0926 H   0  0  0  0  0  0  0  0  0  0  0  0
  1  2  1  0
  2  3  1  0
  3  4  1  0
  4  5  1  0
  5  6  1  0
  6  7  1  0
  7  8  2  0
  6  9  1  0
  6  3  1  0
  9  4  1  0
  1 10  1  0
  1 11  1  0
  1 12  1  0
  2 13  1  0
  2 14  1  0
  3 15  1  0
  4 16  1  0
  5 17  1  0
  5 18  1  0
  7 19  1  0
  9 20  1  0
  9 21  1  0
M  END
