
     RDKit          3D

 25 26  0  0  0  0  0  0  0  0999 V2000
    2.6293    0.9025   -0.5608 C   0  0  0  0  0  0  0  0  0  0  0  0
    1.4727    0.0171   -0.9118 C   0  0  0  0  0  0  0  0  0  0  0  0
    0.7309   -0.4773    0.3002 C   0  0  0  0  0  0  0  0  0  0  0  0
    1.5704   -1.2911    1.2628 C   0  0  0  0  0  0  0  0  0  0  0  0
   -0.0837    0.6225    1.0000 C   0  0  0  0  0  0  0  0  0  0  0  0
   -0.7078   -0.6266    0.3582 C   0  0  0  0  0  0  0  0  0  0  0  0
   -1.6638   -0.2982   -0.7337 C   0  0  0  0  0  0  0  0  0  0  0  0
   -3.1072   -0.4897   -0.5652 C   0  0  0  0  0  0  0  0  0  0  0  0
   -2.5547    0.9084   -0.4111 C   0  0  0  0  0  0  0  0  0  0  0  0
    3.1272    0.6333    0.3912 H   0  0  0  0  0  0  0  0  0  0  0  0
    3.4385    0.8696   -1.3377 H   0  0  0  0  0  0  0  0  0  0  0  0
    2.3475    1.9717   -0.4788 H   0  0  0  0  0  0  0  0  0  0  0  0
    1.8726   -0.8216   -1.5246 H   0  0  0  0  0  0  0  0  0  0  0  0
    0.8031    0.5905   -1.5853 H   0  0  0  0  0  0  0  0  0  0  0  0
    0.9029   -1.6271    2.1106 H   0  0  0  0  0  0  0  0  0  0  0  0
    2.3475   -0.6628    1.7604 H   0  0  0  0  0  0  0  0  0  0  0  0
    1.9685   -2.2052    0.8181 H   0  0  0  0  0  0  0  0  0  0  0  0
   -0.0565    0.6800    2.0950 H   0  0  0  0  0  0  0  0  0  0  0  0
   -0.1942    1.5858    0.4981 H   0  0  0  0  0  0  0  0  0  0  0  0
   -1.1124   -1.3649    1.1040 H   0  0  0  0  0  0  0  0  0  0  0  0
   -1.2827   -0.3046   -1.7730 H   0  0  0  0  0  0  0  0  0  0  0  0
   -3.4305   -1.0253    0.3495 H   0  0  0  0  0  0  0  0  0  0  0  0
   -3.7842   -0.5950   -1.4272 H   0  0  0  0  0  0  0  0  0  0  0  0
   -2.7267    1.6475   -1.2369 H   0  0  0  0  0  0  0  0  0  0  0  0
   -2.5066    1.3605    0.5757 H   0  0  0  0  0  0  0  0  0  0  0  0
  1  2  1  0
  2  3  1  0
  3  4  1  0
  3  5  1  0
  5  6  1  0
  6  7  1  0
  7  8  1  0
  8  9  1  0
  6  3  1  0
  9  7  1  0
  1 10  1  0
  1 11  1  0
  1 12  1  0
  2 13  1  0
  2 14  1  0
  4 15  1  0
  4 16  1  0
  4 17  1  0
  5 18  1  0
  5 19  1  0
  6 20  1  0
  7 21  1  0
  8 22  1  0
  8 23  1  0
  9 24  1  0
  9 25  1  0
M  END
