
     RDKit          3D

 19 21  0  0  0  0  0  0  0  0999 V2000
   -2.5475   -0.0265    0.5614 C   0  0  0  0  0  0  0  0  0  0  0  0
   -1.6708   -0.3343   -0.6112 C   0  0  0  0  0  0  0  0  0  0  0  0
   -0.3302    0.3191   -0.4010 C   0  0  0  0  0  0  0  0  0  0  0  0
    0.4004   -0.1366    0.8342 C   0  0  0  0  0  0  0  0  0  0  0  0
    0.4947   -1.3774    0.2025 O   0  0  0  0  0  0  0  0  0  0  0  0
    0.8467   -0.5118   -0.8264 C   0  0  0  0  0  0  0  0  0  0  0  0
    1.6471    0.2283    0.1660 C   0  0  0  0  0  0  0  0  0  0  0  0
    2.9453    0.3152    0.4674 C   0  0  0  0  0  0  0  0  0  0  0  0
    2.1237    1.4897   -0.0030 O   0  0  0  0  0  0  0  0  0  0  0  0
   -2.8390   -0.9514    1.0970 H   0  0  0  0  0  0  0  0  0  0  0  0
   -3.4806    0.4772    0.1738 H   0  0  0  0  0  0  0  0  0  0  0  0
   -2.0918    0.7268    1.2464 H   0  0  0  0  0  0  0  0  0  0  0  0
   -2.1015   -0.0371   -1.5865 H   0  0  0  0  0  0  0  0  0  0  0  0
   -1.4704   -1.4388   -0.7057 H   0  0  0  0  0  0  0  0  0  0  0  0
   -0.2523    1.3873   -0.5829 H   0  0  0  0  0  0  0  0  0  0  0  0
    0.0954    0.0117    1.7858 H   0  0  0  0  0  0  0  0  0  0  0  0
    1.0813   -0.7741   -1.7721 H   0  0  0  0  0  0  0  0  0  0  0  0
    3.7825    0.1228   -0.2676 H   0  0  0  0  0  0  0  0  0  0  0  0
    3.3669    0.5100    1.4827 H   0  0  0  0  0  0  0  0  0  0  0  0
  1  2  1  0
  2  3  1  0
  3  4  1  0
  4  5  1  0
  5  6  1  0
  6  7  1  0
  7  8  1  0
  8  9  1  0
  6  3  1  0
  9  7  1  0
  7  4  1  0
  1 10  1  0
  1 11  1  0
  1 12  1  0
  2 13  1  0
  2 14  1  0
  3 15  1  0
  4 16  1  0
  6 17  1  0
  8 18  1  0
  8 19  1  0
M  END
