
     RDKit          3D

 21 23  0  0  0  0  0  0  0  0999 V2000
    2.4079   -0.0769    0.5004 C   0  0  0  0  0  0  0  0  0  0  0  0
    1.4916    0.3245   -0.6539 C   0  0  0  0  0  0  0  0  0  0  0  0
    0.1032    0.1409   -0.2583 C   0  0  0  0  0  0  0  0  0  0  0  0
   -0.3692   -1.2218    0.1346 C   0  0  0  0  0  0  0  0  0  0  0  0
   -1.8758   -0.9449    0.2920 C   0  0  0  0  0  0  0  0  0  0  0  0
   -1.8819    0.5381    0.0817 C   0  0  0  0  0  0  0  0  0  0  0  0
   -0.9828    0.7993   -1.0607 C   0  0  0  0  0  0  0  0  0  0  0  0
   -0.6265    1.9829   -0.4256 O   0  0  0  0  0  0  0  0  0  0  0  0
   -0.5919    1.0867    0.6307 C   0  0  0  0  0  0  0  0  0  0  0  0
    3.4462   -0.0529    0.0667 H   0  0  0  0  0  0  0  0  0  0  0  0
    2.1997   -1.1222    0.7513 H   0  0  0  0  0  0  0  0  0  0  0  0
    2.3337    0.6099    1.3524 H   0  0  0  0  0  0  0  0  0  0  0  0
    1.6709    1.3585   -0.9746 H   0  0  0  0  0  0  0  0  0  0  0  0
    1.7386   -0.3679   -1.4909 H   0  0  0  0  0  0  0  0  0  0  0  0
    0.0491   -1.4970    1.1173 H   0  0  0  0  0  0  0  0  0  0  0  0
   -0.1667   -1.9396   -0.6589 H   0  0  0  0  0  0  0  0  0  0  0  0
   -2.1978   -1.1985    1.3083 H   0  0  0  0  0  0  0  0  0  0  0  0
   -2.3987   -1.4977   -0.4873 H   0  0  0  0  0  0  0  0  0  0  0  0
   -2.7847    1.0928    0.2214 H   0  0  0  0  0  0  0  0  0  0  0  0
   -1.1536    0.6786   -2.0466 H   0  0  0  0  0  0  0  0  0  0  0  0
   -0.4112    1.3072    1.6003 H   0  0  0  0  0  0  0  0  0  0  0  0
  1  2  1  0
  2  3  1  0
  3  4  1  0
  4  5  1  0
  5  6  1  0
  6  7  1  0
  7  8  1  0
  8  9  1  0
  7  3  1  0
  9  3  1  0
  9  6  1  0
  1 10  1  0
  1 11  1  0
  1 12  1  0
  2 13  1  0
  2 14  1  0
  4 15  1  0
  4 16  1  0
  5 17  1  0
  5 18  1  0
  6 19  1  0
  7 20  1  0
  9 21  1  0
M  END
