
     RDKit          3D

 23 24  0  0  0  0  0  0  0  0999 V2000
    2.7498   -0.7198   -0.3704 C   0  0  0  0  0  0  0  0  0  0  0  0
    1.7420    0.0884    0.3940 C   0  0  0  0  0  0  0  0  0  0  0  0
    0.4606    0.2817   -0.3901 C   0  0  0  0  0  0  0  0  0  0  0  0
   -0.5806    1.1076    0.3805 C   0  0  0  0  0  0  0  0  0  0  0  0
   -1.4343    2.0653   -0.4154 C   0  0  0  0  0  0  0  0  0  0  0  0
   -0.7393   -0.3049    0.1202 C   0  0  0  0  0  0  0  0  0  0  0  0
   -0.8943   -1.3773    1.1086 C   0  0  0  0  0  0  0  0  0  0  0  0
   -2.1989   -1.5866    0.6042 O   0  0  0  0  0  0  0  0  0  0  0  0
   -1.8252   -0.9633   -0.6073 C   0  0  0  0  0  0  0  0  0  0  0  0
    2.4426   -1.7893   -0.4655 H   0  0  0  0  0  0  0  0  0  0  0  0
    3.6878   -0.7253    0.2430 H   0  0  0  0  0  0  0  0  0  0  0  0
    2.9736   -0.3072   -1.3726 H   0  0  0  0  0  0  0  0  0  0  0  0
    1.5576   -0.4352    1.3526 H   0  0  0  0  0  0  0  0  0  0  0  0
    2.1831    1.0822    0.6048 H   0  0  0  0  0  0  0  0  0  0  0  0
    0.5825    0.5589   -1.4529 H   0  0  0  0  0  0  0  0  0  0  0  0
   -0.3544    1.4429    1.3905 H   0  0  0  0  0  0  0  0  0  0  0  0
   -2.4520    2.0768    0.0294 H   0  0  0  0  0  0  0  0  0  0  0  0
   -1.5521    1.7616   -1.4721 H   0  0  0  0  0  0  0  0  0  0  0  0
   -1.0425    3.1051   -0.3634 H   0  0  0  0  0  0  0  0  0  0  0  0
   -0.3217   -2.3314    0.9148 H   0  0  0  0  0  0  0  0  0  0  0  0
   -0.8586   -1.0658    2.1640 H   0  0  0  0  0  0  0  0  0  0  0  0
   -1.5463   -1.7080   -1.3956 H   0  0  0  0  0  0  0  0  0  0  0  0
   -2.5795   -0.2564   -1.0012 H   0  0  0  0  0  0  0  0  0  0  0  0
  1  2  1  0
  2  3  1  0
  3  4  1  0
  4  5  1  0
  4  6  1  0
  6  7  1  0
  7  8  1  0
  8  9  1  0
  6  3  1  0
  9  6  1  0
  1 10  1  0
  1 11  1  0
  1 12  1  0
  2 13  1  0
  2 14  1  0
  3 15  1  0
  4 16  1  0
  5 17  1  0
  5 18  1  0
  5 19  1  0
  7 20  1  0
  7 21  1  0
  9 22  1  0
  9 23  1  0
M  END
