
     RDKit          3D

 23 23  0  0  0  0  0  0  0  0999 V2000
   -2.8773   -0.4756   -0.9191 C   0  0  0  0  0  0  0  0  0  0  0  0
   -2.2011    0.1343    0.2713 C   0  0  0  0  0  0  0  0  0  0  0  0
   -0.8215   -0.4366    0.4974 C   0  0  0  0  0  0  0  0  0  0  0  0
   -0.1476    0.1860    1.7018 C   0  0  0  0  0  0  0  0  0  0  0  0
    1.1602   -0.1719    1.5230 O   0  0  0  0  0  0  0  0  0  0  0  0
    1.4731   -0.1030    0.1771 C   0  0  0  0  0  0  0  0  0  0  0  0
    2.2722    0.9870   -0.1023 O   0  0  0  0  0  0  0  0  0  0  0  0
    3.4548    0.5647   -0.6879 C   0  0  0  0  0  0  0  0  0  0  0  0
    0.1488   -0.0315   -0.5877 C   0  0  0  0  0  0  0  0  0  0  0  0
   -3.9803   -0.4817   -0.7026 H   0  0  0  0  0  0  0  0  0  0  0  0
   -2.6642    0.1150   -1.8427 H   0  0  0  0  0  0  0  0  0  0  0  0
   -2.6062   -1.5565   -1.0535 H   0  0  0  0  0  0  0  0  0  0  0  0
   -2.7974   -0.1146    1.1826 H   0  0  0  0  0  0  0  0  0  0  0  0
   -2.1879    1.2285    0.1490 H   0  0  0  0  0  0  0  0  0  0  0  0
   -0.8625   -1.5127    0.6619 H   0  0  0  0  0  0  0  0  0  0  0  0
   -0.5834   -0.2068    2.6168 H   0  0  0  0  0  0  0  0  0  0  0  0
   -0.3026    1.3032    1.6465 H   0  0  0  0  0  0  0  0  0  0  0  0
    2.0040   -1.0206   -0.1476 H   0  0  0  0  0  0  0  0  0  0  0  0
    3.2882    0.0142   -1.6417 H   0  0  0  0  0  0  0  0  0  0  0  0
    4.1468    1.3981   -0.9035 H   0  0  0  0  0  0  0  0  0  0  0  0
    4.0037   -0.1307    0.0068 H   0  0  0  0  0  0  0  0  0  0  0  0
    0.1408   -0.7017   -1.4533 H   0  0  0  0  0  0  0  0  0  0  0  0
   -0.0607    1.0130   -0.8694 H   0  0  0  0  0  0  0  0  0  0  0  0
  1  2  1  0
  2  3  1  0
  3  4  1  0
  4  5  1  0
  5  6  1  0
  6  7  1  0
  7  8  1  0
  6  9  1  0
  9  3  1  0
  1 10  1  0
  1 11  1  0
  1 12  1  0
  2 13  1  0
  2 14  1  0
  3 15  1  0
  4 16  1  0
  4 17  1  0
  6 18  1  0
  8 19  1  0
  8 20  1  0
  8 21  1  0
  9 22  1  0
  9 23  1  0
M  END
