
     RDKit          3D

 23 23  0  0  0  0  0  0  0  0999 V2000
    2.5812    0.6410   -0.6010 C   0  0  0  0  0  0  0  0  0  0  0  0
    1.7798   -0.5811   -0.2207 C   0  0  0  0  0  0  0  0  0  0  0  0
    0.6412   -0.1840    0.6939 C   0  0  0  0  0  0  0  0  0  0  0  0
   -0.1813   -1.3889    1.0929 C   0  0  0  0  0  0  0  0  0  0  0  0
   -1.4561   -0.7952    1.2544 O   0  0  0  0  0  0  0  0  0  0  0  0
   -1.6073   -0.1908    0.0199 C   0  0  0  0  0  0  0  0  0  0  0  0
   -2.8228    0.6980   -0.0571 C   0  0  0  0  0  0  0  0  0  0  0  0
   -0.3605    0.6680   -0.0669 C   0  0  0  0  0  0  0  0  0  0  0  0
   -0.0209    0.8020   -1.4095 O   0  0  0  0  0  0  0  0  0  0  0  0
    1.9923    1.5743   -0.5057 H   0  0  0  0  0  0  0  0  0  0  0  0
    3.4726    0.6889    0.0854 H   0  0  0  0  0  0  0  0  0  0  0  0
    3.0089    0.5248   -1.6296 H   0  0  0  0  0  0  0  0  0  0  0  0
    2.4224   -1.3350    0.2356 H   0  0  0  0  0  0  0  0  0  0  0  0
    1.3280   -0.9753   -1.1606 H   0  0  0  0  0  0  0  0  0  0  0  0
    0.9924    0.2976    1.6190 H   0  0  0  0  0  0  0  0  0  0  0  0
   -0.2984   -2.0982    0.2462 H   0  0  0  0  0  0  0  0  0  0  0  0
    0.1580   -1.8648    2.0204 H   0  0  0  0  0  0  0  0  0  0  0  0
   -1.5651   -0.9533   -0.7600 H   0  0  0  0  0  0  0  0  0  0  0  0
   -3.7597    0.1478   -0.1130 H   0  0  0  0  0  0  0  0  0  0  0  0
   -2.7256    1.2688   -1.0257 H   0  0  0  0  0  0  0  0  0  0  0  0
   -2.7780    1.4357    0.7492 H   0  0  0  0  0  0  0  0  0  0  0  0
   -0.4634    1.6302    0.4500 H   0  0  0  0  0  0  0  0  0  0  0  0
   -0.3378   -0.0103   -1.8754 H   0  0  0  0  0  0  0  0  0  0  0  0
  1  2  1  0
  2  3  1  0
  3  4  1  0
  4  5  1  0
  5  6  1  0
  6  7  1  0
  6  8  1  0
  8  9  1  0
  8  3  1  0
  1 10  1  0
  1 11  1  0
  1 12  1  0
  2 13  1  0
  2 14  1  0
  3 15  1  0
  4 16  1  0
  4 17  1  0
  6 18  1  0
  7 19  1  0
  7 20  1  0
  7 21  1  0
  8 22  1  0
  9 23  1  0
M  END
