
     RDKit          3D

 25 25  0  0  0  0  0  0  0  0999 V2000
    2.1503    0.8311   -1.3179 C   0  0  0  0  0  0  0  0  0  0  0  0
    1.8532    0.3264    0.0793 C   0  0  0  0  0  0  0  0  0  0  0  0
    0.9649   -0.8669    0.0275 C   0  0  0  0  0  0  0  0  0  0  0  0
    1.5249   -1.9478   -0.6905 O   0  0  0  0  0  0  0  0  0  0  0  0
    0.3665   -1.2281    1.4062 C   0  0  0  0  0  0  0  0  0  0  0  0
   -0.4763   -0.8412    0.2193 C   0  0  0  0  0  0  0  0  0  0  0  0
   -1.2997    0.4043    0.2762 C   0  0  0  0  0  0  0  0  0  0  0  0
   -2.7622    0.0808    0.4860 C   0  0  0  0  0  0  0  0  0  0  0  0
   -1.1961    1.1675   -1.0269 C   0  0  0  0  0  0  0  0  0  0  0  0
    3.2309    1.1174   -1.4189 H   0  0  0  0  0  0  0  0  0  0  0  0
    1.8998    0.0132   -2.0209 H   0  0  0  0  0  0  0  0  0  0  0  0
    1.5915    1.7749   -1.5421 H   0  0  0  0  0  0  0  0  0  0  0  0
    2.8476   -0.0217    0.4882 H   0  0  0  0  0  0  0  0  0  0  0  0
    1.5008    1.1270    0.7460 H   0  0  0  0  0  0  0  0  0  0  0  0
    1.9370   -2.5504   -0.0158 H   0  0  0  0  0  0  0  0  0  0  0  0
    0.3977   -0.4619    2.1959 H   0  0  0  0  0  0  0  0  0  0  0  0
    0.4764   -2.2763    1.6901 H   0  0  0  0  0  0  0  0  0  0  0  0
   -1.0431   -1.7217   -0.2043 H   0  0  0  0  0  0  0  0  0  0  0  0
   -0.9313    1.0692    1.0805 H   0  0  0  0  0  0  0  0  0  0  0  0
   -3.3970    0.4166   -0.3585 H   0  0  0  0  0  0  0  0  0  0  0  0
   -2.8964   -1.0302    0.5453 H   0  0  0  0  0  0  0  0  0  0  0  0
   -3.1570    0.5163    1.4340 H   0  0  0  0  0  0  0  0  0  0  0  0
   -2.1999    1.4147   -1.4528 H   0  0  0  0  0  0  0  0  0  0  0  0
   -0.6874    2.1434   -0.8865 H   0  0  0  0  0  0  0  0  0  0  0  0
   -0.6950    0.5436   -1.8136 H   0  0  0  0  0  0  0  0  0  0  0  0
  1  2  1  0
  2  3  1  0
  3  4  1  0
  3  5  1  0
  5  6  1  0
  6  7  1  0
  7  8  1  0
  7  9  1  0
  6  3  1  0
  1 10  1  0
  1 11  1  0
  1 12  1  0
  2 13  1  0
  2 14  1  0
  4 15  1  0
  5 16  1  0
  5 17  1  0
  6 18  1  0
  7 19  1  0
  8 20  1  0
  8 21  1  0
  8 22  1  0
  9 23  1  0
  9 24  1  0
  9 25  1  0
M  END
