
     RDKit          3D

 25 26  0  0  0  0  0  0  0  0999 V2000
    2.6935   -0.0988   -0.6834 C   0  0  0  0  0  0  0  0  0  0  0  0
    1.6036   -1.0269   -0.1822 C   0  0  0  0  0  0  0  0  0  0  0  0
    0.6965   -0.2202    0.6834 C   0  0  0  0  0  0  0  0  0  0  0  0
   -0.4528   -0.9885    1.2717 C   0  0  0  0  0  0  0  0  0  0  0  0
   -1.5875   -0.0104    1.2615 C   0  0  0  0  0  0  0  0  0  0  0  0
   -2.2150   -0.0650   -0.1252 C   0  0  0  0  0  0  0  0  0  0  0  0
   -1.0590    0.4133   -0.9848 C   0  0  0  0  0  0  0  0  0  0  0  0
    0.0110    0.9073   -0.0271 C   0  0  0  0  0  0  0  0  0  0  0  0
   -0.8963    1.3604    1.1366 C   0  0  0  0  0  0  0  0  0  0  0  0
    2.2318    0.7325   -1.2406 H   0  0  0  0  0  0  0  0  0  0  0  0
    3.2557    0.2676    0.2222 H   0  0  0  0  0  0  0  0  0  0  0  0
    3.3482   -0.7025   -1.3527 H   0  0  0  0  0  0  0  0  0  0  0  0
    1.1129   -1.5130   -1.0311 H   0  0  0  0  0  0  0  0  0  0  0  0
    2.0833   -1.7992    0.4291 H   0  0  0  0  0  0  0  0  0  0  0  0
    1.3051    0.2171    1.5019 H   0  0  0  0  0  0  0  0  0  0  0  0
   -0.6994   -1.9041    0.7035 H   0  0  0  0  0  0  0  0  0  0  0  0
   -0.2328   -1.3425    2.3185 H   0  0  0  0  0  0  0  0  0  0  0  0
   -2.2811   -0.0669    2.0716 H   0  0  0  0  0  0  0  0  0  0  0  0
   -2.5304   -1.0942   -0.3894 H   0  0  0  0  0  0  0  0  0  0  0  0
   -3.0538    0.6653   -0.1551 H   0  0  0  0  0  0  0  0  0  0  0  0
   -1.3528    1.2835   -1.6120 H   0  0  0  0  0  0  0  0  0  0  0  0
   -0.7080   -0.4266   -1.6105 H   0  0  0  0  0  0  0  0  0  0  0  0
    0.6361    1.6909   -0.4058 H   0  0  0  0  0  0  0  0  0  0  0  0
   -0.3112    1.5948    2.0249 H   0  0  0  0  0  0  0  0  0  0  0  0
   -1.5974    2.1261    0.8096 H   0  0  0  0  0  0  0  0  0  0  0  0
  1  2  1  0
  2  3  1  0
  3  4  1  0
  4  5  1  0
  5  6  1  0
  6  7  1  0
  7  8  1  0
  8  9  1  0
  8  3  1  0
  9  5  1  0
  1 10  1  0
  1 11  1  0
  1 12  1  0
  2 13  1  0
  2 14  1  0
  3 15  1  0
  4 16  1  0
  4 17  1  0
  5 18  1  0
  6 19  1  0
  6 20  1  0
  7 21  1  0
  7 22  1  0
  8 23  1  0
  9 24  1  0
  9 25  1  0
M  END
