
     RDKit          3D

 19 19  0  0  0  0  0  0  0  0999 V2000
   -2.3805   -0.6329   -0.2967 C   0  0  0  0  0  0  0  0  0  0  0  0
   -1.6076    0.5651    0.1962 C   0  0  0  0  0  0  0  0  0  0  0  0
   -0.1724    0.1319    0.3801 C   0  0  0  0  0  0  0  0  0  0  0  0
    0.4394   -0.3532   -0.8769 C   0  0  0  0  0  0  0  0  0  0  0  0
    1.7539   -0.4786   -0.9251 C   0  0  0  0  0  0  0  0  0  0  0  0
    2.5964   -0.1334    0.2753 C   0  0  0  0  0  0  0  0  0  0  0  0
    2.0523    1.0931    0.7799 O   0  0  0  0  0  0  0  0  0  0  0  0
    0.6820    1.2232    0.9024 C   0  0  0  0  0  0  0  0  0  0  0  0
    0.1115    2.2065    1.4278 O   0  0  0  0  0  0  0  0  0  0  0  0
   -3.4381   -0.6125    0.0442 H   0  0  0  0  0  0  0  0  0  0  0  0
   -1.9181   -1.5341    0.1366 H   0  0  0  0  0  0  0  0  0  0  0  0
   -2.3334   -0.6611   -1.3980 H   0  0  0  0  0  0  0  0  0  0  0  0
   -1.9696    0.8426    1.2270 H   0  0  0  0  0  0  0  0  0  0  0  0
   -1.6943    1.4119   -0.4990 H   0  0  0  0  0  0  0  0  0  0  0  0
   -0.1563   -0.6807    1.1459 H   0  0  0  0  0  0  0  0  0  0  0  0
   -0.1850   -0.5927   -1.7195 H   0  0  0  0  0  0  0  0  0  0  0  0
    2.1998   -0.8337   -1.8458 H   0  0  0  0  0  0  0  0  0  0  0  0
    2.3754   -0.9089    1.0363 H   0  0  0  0  0  0  0  0  0  0  0  0
    3.6446   -0.0523    0.0095 H   0  0  0  0  0  0  0  0  0  0  0  0
  1  2  1  0
  2  3  1  0
  3  4  1  0
  4  5  2  0
  5  6  1  0
  6  7  1  0
  7  8  1  0
  8  9  2  0
  8  3  1  0
  1 10  1  0
  1 11  1  0
  1 12  1  0
  2 13  1  0
  2 14  1  0
  3 15  1  0
  4 16  1  0
  5 17  1  0
  6 18  1  0
  6 19  1  0
M  END
