
     RDKit          3D

 21 22  0  0  0  0  0  0  0  0999 V2000
    2.6428    0.2161    0.0771 C   0  0  0  0  0  0  0  0  0  0  0  0
    1.6742   -0.1049   -1.0272 C   0  0  0  0  0  0  0  0  0  0  0  0
    0.3062   -0.3240   -0.5185 C   0  0  0  0  0  0  0  0  0  0  0  0
   -0.3527   -1.4828   -0.6884 C   0  0  0  0  0  0  0  0  0  0  0  0
   -1.6919   -1.4212   -0.0816 C   0  0  0  0  0  0  0  0  0  0  0  0
   -1.7484   -0.0708    0.5625 C   0  0  0  0  0  0  0  0  0  0  0  0
   -1.8131    1.0901   -0.4071 C   0  0  0  0  0  0  0  0  0  0  0  0
   -0.5089    0.6457    0.2179 C   0  0  0  0  0  0  0  0  0  0  0  0
    0.0677    1.5817    1.0570 O   0  0  0  0  0  0  0  0  0  0  0  0
    3.3753    0.9712   -0.3314 H   0  0  0  0  0  0  0  0  0  0  0  0
    2.1765    0.5710    0.9999 H   0  0  0  0  0  0  0  0  0  0  0  0
    3.2313   -0.7005    0.3395 H   0  0  0  0  0  0  0  0  0  0  0  0
    1.6082    0.7323   -1.7743 H   0  0  0  0  0  0  0  0  0  0  0  0
    2.0757   -0.9671   -1.5880 H   0  0  0  0  0  0  0  0  0  0  0  0
    0.0288   -2.3681   -1.2029 H   0  0  0  0  0  0  0  0  0  0  0  0
   -2.4843   -1.5408   -0.8673 H   0  0  0  0  0  0  0  0  0  0  0  0
   -1.8714   -2.2165    0.6757 H   0  0  0  0  0  0  0  0  0  0  0  0
   -2.2176    0.0282    1.5534 H   0  0  0  0  0  0  0  0  0  0  0  0
   -1.8743    0.8855   -1.4925 H   0  0  0  0  0  0  0  0  0  0  0  0
   -2.3098    1.9919   -0.0079 H   0  0  0  0  0  0  0  0  0  0  0  0
   -0.3147    2.4831    0.8978 H   0  0  0  0  0  0  0  0  0  0  0  0
  1  2  1  0
  2  3  1  0
  3  4  2  0
  4  5  1  0
  5  6  1  0
  6  7  1  0
  7  8  1  0
  8  9  1  0
  8  3  1  0
  8  6  1  0
  1 10  1  0
  1 11  1  0
  1 12  1  0
  2 13  1  0
  2 14  1  0
  4 15  1  0
  5 16  1  0
  5 17  1  0
  6 18  1  0
  7 19  1  0
  7 20  1  0
  9 21  1  0
M  END
