
     RDKit          3D

 16 16  0  0  0  0  0  0  0  0999 V2000
   -2.1432   -0.5137    0.2635 C   0  0  0  0  0  0  0  0  0  0  0  0
   -0.7160   -0.9115    0.0522 C   0  0  0  0  0  0  0  0  0  0  0  0
    0.0468    0.3178   -0.3927 C   0  0  0  0  0  0  0  0  0  0  0  0
   -0.0360    1.3265    0.6058 O   0  0  0  0  0  0  0  0  0  0  0  0
    1.3056    1.6302    0.4443 C   0  0  0  0  0  0  0  0  0  0  0  0
    1.9714    2.6614    0.7090 O   0  0  0  0  0  0  0  0  0  0  0  0
    1.5250    0.2878   -0.1275 C   0  0  0  0  0  0  0  0  0  0  0  0
    1.8723   -0.6413    0.8443 O   0  0  0  0  0  0  0  0  0  0  0  0
   -2.8094   -1.0128   -0.4925 H   0  0  0  0  0  0  0  0  0  0  0  0
   -2.3147    0.5797    0.1358 H   0  0  0  0  0  0  0  0  0  0  0  0
   -2.5104   -0.7462    1.2955 H   0  0  0  0  0  0  0  0  0  0  0  0
   -0.6076   -1.7269   -0.7035 H   0  0  0  0  0  0  0  0  0  0  0  0
   -0.2255   -1.2667    0.9938 H   0  0  0  0  0  0  0  0  0  0  0  0
   -0.2803    0.6772   -1.3649 H   0  0  0  0  0  0  0  0  0  0  0  0
    2.1101    0.2664   -1.0573 H   0  0  0  0  0  0  0  0  0  0  0  0
    2.8120   -0.9278    0.6903 H   0  0  0  0  0  0  0  0  0  0  0  0
  1  2  1  0
  2  3  1  0
  3  4  1  0
  4  5  1  0
  5  6  2  0
  5  7  1  0
  7  8  1  0
  7  3  1  0
  1  9  1  0
  1 10  1  0
  1 11  1  0
  2 12  1  0
  2 13  1  0
  3 14  1  0
  7 15  1  0
  8 16  1  0
M  END
