
     RDKit          3D

 21 22  0  0  0  0  0  0  0  0999 V2000
   -2.4990    0.6332    0.1315 C   0  0  0  0  0  0  0  0  0  0  0  0
   -1.7954   -0.5906    0.6662 C   0  0  0  0  0  0  0  0  0  0  0  0
   -0.3005   -0.3563    0.6474 C   0  0  0  0  0  0  0  0  0  0  0  0
    0.4671   -1.3973    1.1110 O   0  0  0  0  0  0  0  0  0  0  0  0
    1.4036   -1.1159    0.1124 C   0  0  0  0  0  0  0  0  0  0  0  0
    2.2324    0.1277    0.3627 C   0  0  0  0  0  0  0  0  0  0  0  0
    1.8331    1.0778   -0.7217 C   0  0  0  0  0  0  0  0  0  0  0  0
    0.7346    0.6803   -1.3353 C   0  0  0  0  0  0  0  0  0  0  0  0
    0.2876   -0.5755   -0.7239 C   0  0  0  0  0  0  0  0  0  0  0  0
   -3.3660    0.8794    0.7611 H   0  0  0  0  0  0  0  0  0  0  0  0
   -2.7402    0.5193   -0.9366 H   0  0  0  0  0  0  0  0  0  0  0  0
   -1.7880    1.5060    0.1886 H   0  0  0  0  0  0  0  0  0  0  0  0
   -2.0323   -1.4881    0.0301 H   0  0  0  0  0  0  0  0  0  0  0  0
   -2.1035   -0.8438    1.7045 H   0  0  0  0  0  0  0  0  0  0  0  0
   -0.0232    0.6076    1.0892 H   0  0  0  0  0  0  0  0  0  0  0  0
    1.9518   -1.9817   -0.2712 H   0  0  0  0  0  0  0  0  0  0  0  0
    1.9959    0.5122    1.3691 H   0  0  0  0  0  0  0  0  0  0  0  0
    3.3278   -0.0723    0.2323 H   0  0  0  0  0  0  0  0  0  0  0  0
    2.4115    1.9738   -0.9390 H   0  0  0  0  0  0  0  0  0  0  0  0
    0.2501    1.1900   -2.1452 H   0  0  0  0  0  0  0  0  0  0  0  0
   -0.2473   -1.2858   -1.3686 H   0  0  0  0  0  0  0  0  0  0  0  0
  1  2  1  0
  2  3  1  0
  3  4  1  0
  4  5  1  0
  5  6  1  0
  6  7  1  0
  7  8  2  0
  8  9  1  0
  9  3  1  0
  9  5  1  0
  1 10  1  0
  1 11  1  0
  1 12  1  0
  2 13  1  0
  2 14  1  0
  3 15  1  0
  5 16  1  0
  6 17  1  0
  6 18  1  0
  7 19  1  0
  8 20  1  0
  9 21  1  0
M  END
