
     RDKit          3D

 21 21  0  0  0  0  0  0  0  0999 V2000
    3.0362   -0.0470   -0.2381 C   0  0  0  0  0  0  0  0  0  0  0  0
    2.0062    0.4539    0.7127 C   0  0  0  0  0  0  0  0  0  0  0  0
    0.6157    0.0871    0.3316 C   0  0  0  0  0  0  0  0  0  0  0  0
    0.1836   -0.5985   -0.6989 C   0  0  0  0  0  0  0  0  0  0  0  0
   -1.2648   -0.7176   -0.6742 C   0  0  0  0  0  0  0  0  0  0  0  0
   -2.0347   -0.9620   -1.6209 O   0  0  0  0  0  0  0  0  0  0  0  0
   -1.6197   -0.4805    0.7441 C   0  0  0  0  0  0  0  0  0  0  0  0
   -2.9870    0.1475    0.8924 C   0  0  0  0  0  0  0  0  0  0  0  0
   -0.5449    0.5011    1.1440 C   0  0  0  0  0  0  0  0  0  0  0  0
    3.5127   -0.9898    0.1648 H   0  0  0  0  0  0  0  0  0  0  0  0
    3.8996    0.6817   -0.2795 H   0  0  0  0  0  0  0  0  0  0  0  0
    2.7042   -0.1673   -1.2740 H   0  0  0  0  0  0  0  0  0  0  0  0
    2.1981    0.0609    1.7246 H   0  0  0  0  0  0  0  0  0  0  0  0
    2.0512    1.5655    0.7723 H   0  0  0  0  0  0  0  0  0  0  0  0
    0.8525   -1.0050   -1.4482 H   0  0  0  0  0  0  0  0  0  0  0  0
   -1.5018   -1.3839    1.3700 H   0  0  0  0  0  0  0  0  0  0  0  0
   -3.0615    0.6284    1.8748 H   0  0  0  0  0  0  0  0  0  0  0  0
   -3.0885    0.8909    0.0738 H   0  0  0  0  0  0  0  0  0  0  0  0
   -3.7525   -0.6456    0.8405 H   0  0  0  0  0  0  0  0  0  0  0  0
   -0.8641    1.4935    0.7762 H   0  0  0  0  0  0  0  0  0  0  0  0
   -0.3405    0.4867    2.2295 H   0  0  0  0  0  0  0  0  0  0  0  0
  1  2  1  0
  2  3  1  0
  3  4  2  0
  4  5  1  0
  5  6  2  0
  5  7  1  0
  7  8  1  0
  7  9  1  0
  9  3  1  0
  1 10  1  0
  1 11  1  0
  1 12  1  0
  2 13  1  0
  2 14  1  0
  4 15  1  0
  7 16  1  0
  8 17  1  0
  8 18  1  0
  8 19  1  0
  9 20  1  0
  9 21  1  0
M  END
