
     RDKit          3D

 21 23  0  0  0  0  0  0  0  0999 V2000
   -2.6235   -0.1153    0.9471 C   0  0  0  0  0  0  0  0  0  0  0  0
   -1.5613   -0.8145    0.1291 C   0  0  0  0  0  0  0  0  0  0  0  0
   -0.7069    0.1845   -0.6513 C   0  0  0  0  0  0  0  0  0  0  0  0
   -0.1112    1.0142    0.2766 O   0  0  0  0  0  0  0  0  0  0  0  0
    1.0221    0.4173    0.7773 C   0  0  0  0  0  0  0  0  0  0  0  0
    2.2219    0.9396   -0.0302 C   0  0  0  0  0  0  0  0  0  0  0  0
    1.8351   -0.0258   -1.1067 C   0  0  0  0  0  0  0  0  0  0  0  0
    0.4801   -0.6106   -1.2090 C   0  0  0  0  0  0  0  0  0  0  0  0
    1.1972   -0.8641    0.0268 C   0  0  0  0  0  0  0  0  0  0  0  0
   -2.9363    0.8095    0.4191 H   0  0  0  0  0  0  0  0  0  0  0  0
   -2.1916    0.2151    1.9222 H   0  0  0  0  0  0  0  0  0  0  0  0
   -3.4769   -0.7989    1.0822 H   0  0  0  0  0  0  0  0  0  0  0  0
   -2.0336   -1.5120   -0.6118 H   0  0  0  0  0  0  0  0  0  0  0  0
   -0.9390   -1.4526    0.7802 H   0  0  0  0  0  0  0  0  0  0  0  0
   -1.2653    0.6875   -1.4310 H   0  0  0  0  0  0  0  0  0  0  0  0
    1.1653    0.4047    1.8546 H   0  0  0  0  0  0  0  0  0  0  0  0
    3.1944    0.7452    0.4414 H   0  0  0  0  0  0  0  0  0  0  0  0
    2.0771    1.9919   -0.3298 H   0  0  0  0  0  0  0  0  0  0  0  0
    2.6350   -0.5041   -1.6643 H   0  0  0  0  0  0  0  0  0  0  0  0
    0.3172   -1.3400   -1.9929 H   0  0  0  0  0  0  0  0  0  0  0  0
    1.7002   -1.7247    0.3707 H   0  0  0  0  0  0  0  0  0  0  0  0
  1  2  1  0
  2  3  1  0
  3  4  1  0
  4  5  1  0
  5  6  1  0
  6  7  1  0
  7  8  1  0
  8  9  1  0
  8  3  1  0
  9  5  1  0
  9  7  1  0
  1 10  1  0
  1 11  1  0
  1 12  1  0
  2 13  1  0
  2 14  1  0
  3 15  1  0
  5 16  1  0
  6 17  1  0
  6 18  1  0
  7 19  1  0
  8 20  1  0
  9 21  1  0
M  END
