
     RDKit          3D

 21 23  0  0  0  0  0  0  0  0999 V2000
    2.5911   -0.4389   -0.0632 C   0  0  0  0  0  0  0  0  0  0  0  0
    1.6549    0.6767   -0.4307 C   0  0  0  0  0  0  0  0  0  0  0  0
    0.2721    0.4967    0.1292 C   0  0  0  0  0  0  0  0  0  0  0  0
    0.2384    0.4329    1.4914 O   0  0  0  0  0  0  0  0  0  0  0  0
   -0.0261   -0.7816    0.9384 C   0  0  0  0  0  0  0  0  0  0  0  0
   -1.5369   -1.0286    0.7481 C   0  0  0  0  0  0  0  0  0  0  0  0
   -1.9632    0.3311    0.3536 C   0  0  0  0  0  0  0  0  0  0  0  0
   -2.1384    1.0101   -0.8611 C   0  0  0  0  0  0  0  0  0  0  0  0
   -0.8655    0.4204   -0.7870 C   0  0  0  0  0  0  0  0  0  0  0  0
    2.8511   -0.3903    1.0164 H   0  0  0  0  0  0  0  0  0  0  0  0
    3.5405   -0.2564   -0.6310 H   0  0  0  0  0  0  0  0  0  0  0  0
    2.2373   -1.4305   -0.3806 H   0  0  0  0  0  0  0  0  0  0  0  0
    2.0689    1.6103    0.0172 H   0  0  0  0  0  0  0  0  0  0  0  0
    1.6819    0.8222   -1.5216 H   0  0  0  0  0  0  0  0  0  0  0  0
    0.6577   -1.6094    0.8986 H   0  0  0  0  0  0  0  0  0  0  0  0
   -1.9390   -1.3277    1.7362 H   0  0  0  0  0  0  0  0  0  0  0  0
   -1.7121   -1.7973   -0.0237 H   0  0  0  0  0  0  0  0  0  0  0  0
   -1.7612    1.0099    1.2470 H   0  0  0  0  0  0  0  0  0  0  0  0
   -2.9080    0.6310   -1.5802 H   0  0  0  0  0  0  0  0  0  0  0  0
   -2.1874    2.1390   -0.8774 H   0  0  0  0  0  0  0  0  0  0  0  0
   -0.7561   -0.5193   -1.4195 H   0  0  0  0  0  0  0  0  0  0  0  0
  1  2  1  0
  2  3  1  0
  3  4  1  0
  4  5  1  0
  5  6  1  0
  6  7  1  0
  7  8  1  0
  8  9  1  0
  5  3  1  0
  9  7  1  0
  9  3  1  0
  1 10  1  0
  1 11  1  0
  1 12  1  0
  2 13  1  0
  2 14  1  0
  5 15  1  0
  6 16  1  0
  6 17  1  0
  7 18  1  0
  8 19  1  0
  8 20  1  0
  9 21  1  0
M  END
