
     RDKit          3D

 19 20  0  0  0  0  0  0  0  0999 V2000
    2.4840    0.0966   -0.3703 C   0  0  0  0  0  0  0  0  0  0  0  0
    1.1234   -0.4299   -0.8051 C   0  0  0  0  0  0  0  0  0  0  0  0
    0.1710   -0.2169    0.3371 C   0  0  0  0  0  0  0  0  0  0  0  0
    0.0461    1.2210    0.7012 C   0  0  0  0  0  0  0  0  0  0  0  0
    0.8205    2.1152    0.9892 O   0  0  0  0  0  0  0  0  0  0  0  0
   -1.4342    1.1586    0.5781 C   0  0  0  0  0  0  0  0  0  0  0  0
   -1.2760   -0.2424    0.0390 C   0  0  0  0  0  0  0  0  0  0  0  0
   -2.2091   -1.2354    0.0701 C   0  0  0  0  0  0  0  0  0  0  0  0
   -1.7970   -0.6043   -1.1676 O   0  0  0  0  0  0  0  0  0  0  0  0
    3.2558   -0.7150   -0.3685 H   0  0  0  0  0  0  0  0  0  0  0  0
    2.8406    0.9173   -1.0246 H   0  0  0  0  0  0  0  0  0  0  0  0
    2.4690    0.4901    0.6652 H   0  0  0  0  0  0  0  0  0  0  0  0
    0.8379    0.1369   -1.7066 H   0  0  0  0  0  0  0  0  0  0  0  0
    1.2575   -1.4799   -1.0788 H   0  0  0  0  0  0  0  0  0  0  0  0
    0.4380   -0.8479    1.2029 H   0  0  0  0  0  0  0  0  0  0  0  0
   -1.8938    1.8871   -0.0954 H   0  0  0  0  0  0  0  0  0  0  0  0
   -1.9033    1.1599    1.5963 H   0  0  0  0  0  0  0  0  0  0  0  0
   -1.9493   -2.3297    0.0976 H   0  0  0  0  0  0  0  0  0  0  0  0
   -3.2810   -1.0812    0.3400 H   0  0  0  0  0  0  0  0  0  0  0  0
  1  2  1  0
  2  3  1  0
  3  4  1  0
  4  5  2  0
  4  6  1  0
  6  7  1  0
  7  8  1  0
  8  9  1  0
  7  3  1  0
  9  7  1  0
  1 10  1  0
  1 11  1  0
  1 12  1  0
  2 13  1  0
  2 14  1  0
  3 15  1  0
  6 16  1  0
  6 17  1  0
  8 18  1  0
  8 19  1  0
M  END
