
     RDKit          3D

 25 26  0  0  0  0  0  0  0  0999 V2000
    3.0224    0.0560    0.2557 C   0  0  0  0  0  0  0  0  0  0  0  0
    1.8375   -0.8483    0.1398 C   0  0  0  0  0  0  0  0  0  0  0  0
    0.5548   -0.2262    0.6348 C   0  0  0  0  0  0  0  0  0  0  0  0
   -0.5401   -1.2587    0.4514 C   0  0  0  0  0  0  0  0  0  0  0  0
   -1.8892   -0.6264    0.2694 C   0  0  0  0  0  0  0  0  0  0  0  0
   -1.9618    0.7270    0.9934 C   0  0  0  0  0  0  0  0  0  0  0  0
   -1.2449    1.2907   -0.2287 C   0  0  0  0  0  0  0  0  0  0  0  0
    0.2236    0.9589   -0.2194 C   0  0  0  0  0  0  0  0  0  0  0  0
   -1.9450    0.1812   -1.0250 C   0  0  0  0  0  0  0  0  0  0  0  0
    3.0547    0.5316    1.2600 H   0  0  0  0  0  0  0  0  0  0  0  0
    3.9375   -0.5977    0.1698 H   0  0  0  0  0  0  0  0  0  0  0  0
    3.0419    0.8011   -0.5680 H   0  0  0  0  0  0  0  0  0  0  0  0
    1.6863   -1.0752   -0.9397 H   0  0  0  0  0  0  0  0  0  0  0  0
    2.0649   -1.7874    0.6857 H   0  0  0  0  0  0  0  0  0  0  0  0
    0.6888    0.0316    1.7042 H   0  0  0  0  0  0  0  0  0  0  0  0
   -0.5752   -1.8476    1.3905 H   0  0  0  0  0  0  0  0  0  0  0  0
   -0.2649   -1.9414   -0.3560 H   0  0  0  0  0  0  0  0  0  0  0  0
   -2.7304   -1.2905    0.4495 H   0  0  0  0  0  0  0  0  0  0  0  0
   -3.0140    1.0544    0.9912 H   0  0  0  0  0  0  0  0  0  0  0  0
   -1.4107    0.7770    1.9303 H   0  0  0  0  0  0  0  0  0  0  0  0
   -1.5029    2.3023   -0.5120 H   0  0  0  0  0  0  0  0  0  0  0  0
    0.8433    1.8510    0.0318 H   0  0  0  0  0  0  0  0  0  0  0  0
    0.4917    0.6873   -1.2744 H   0  0  0  0  0  0  0  0  0  0  0  0
   -1.3682   -0.2228   -1.8560 H   0  0  0  0  0  0  0  0  0  0  0  0
   -3.0000    0.4720   -1.2447 H   0  0  0  0  0  0  0  0  0  0  0  0
  1  2  1  0
  2  3  1  0
  3  4  1  0
  4  5  1  0
  5  6  1  0
  6  7  1  0
  7  8  1  0
  7  9  1  0
  8  3  1  0
  9  5  1  0
  1 10  1  0
  1 11  1  0
  1 12  1  0
  2 13  1  0
  2 14  1  0
  3 15  1  0
  4 16  1  0
  4 17  1  0
  5 18  1  0
  6 19  1  0
  6 20  1  0
  7 21  1  0
  8 22  1  0
  8 23  1  0
  9 24  1  0
  9 25  1  0
M  END
