
     RDKit          3D

 18 18  0  0  0  0  0  0  0  0999 V2000
   -2.1878    0.0038    0.2209 C   0  0  0  0  0  0  0  0  0  0  0  0
   -1.4090   -0.4298   -0.9678 C   0  0  0  0  0  0  0  0  0  0  0  0
    0.0442   -0.0712   -0.9174 C   0  0  0  0  0  0  0  0  0  0  0  0
    0.7494   -0.6912    0.2730 C   0  0  0  0  0  0  0  0  0  0  0  0
    2.0862    0.0565    0.2018 C   0  0  0  0  0  0  0  0  0  0  0  0
    1.6141    1.3894   -0.2828 C   0  0  0  0  0  0  0  0  0  0  0  0
    2.3511    2.4124   -0.2749 O   0  0  0  0  0  0  0  0  0  0  0  0
    0.2874    1.2887   -0.7168 O   0  0  0  0  0  0  0  0  0  0  0  0
   -1.7418   -0.3697    1.1637 H   0  0  0  0  0  0  0  0  0  0  0  0
   -2.2754    1.1287    0.2676 H   0  0  0  0  0  0  0  0  0  0  0  0
   -3.2317   -0.3549    0.0987 H   0  0  0  0  0  0  0  0  0  0  0  0
   -1.5317   -1.5253   -1.0858 H   0  0  0  0  0  0  0  0  0  0  0  0
   -1.8339    0.0284   -1.8824 H   0  0  0  0  0  0  0  0  0  0  0  0
    0.6025   -0.3859   -1.8192 H   0  0  0  0  0  0  0  0  0  0  0  0
    0.8893   -1.7781    0.1667 H   0  0  0  0  0  0  0  0  0  0  0  0
    0.2967   -0.3955    1.2334 H   0  0  0  0  0  0  0  0  0  0  0  0
    2.5483    0.1434    1.2028 H   0  0  0  0  0  0  0  0  0  0  0  0
    2.7422   -0.4496   -0.5051 H   0  0  0  0  0  0  0  0  0  0  0  0
  1  2  1  0
  2  3  1  0
  3  4  1  0
  4  5  1  0
  5  6  1  0
  6  7  2  0
  6  8  1  0
  8  3  1  0
  1  9  1  0
  1 10  1  0
  1 11  1  0
  2 12  1  0
  2 13  1  0
  3 14  1  0
  4 15  1  0
  4 16  1  0
  5 17  1  0
  5 18  1  0
M  END
