
     RDKit          3D

 23 24  0  0  0  0  0  0  0  0999 V2000
    2.6232    0.1218   -0.3554 C   0  0  0  0  0  0  0  0  0  0  0  0
    1.2875    0.8200   -0.3198 C   0  0  0  0  0  0  0  0  0  0  0  0
    0.1828   -0.0754    0.1649 C   0  0  0  0  0  0  0  0  0  0  0  0
   -1.1894    0.5517    0.2295 C   0  0  0  0  0  0  0  0  0  0  0  0
   -2.3510   -0.2836    0.7066 C   0  0  0  0  0  0  0  0  0  0  0  0
   -1.5614    1.5043   -0.8952 C   0  0  0  0  0  0  0  0  0  0  0  0
   -1.2154    1.9191    0.3722 O   0  0  0  0  0  0  0  0  0  0  0  0
    0.5275   -1.1470    1.1285 C   0  0  0  0  0  0  0  0  0  0  0  0
    0.1723   -1.5171   -0.2694 C   0  0  0  0  0  0  0  0  0  0  0  0
    2.6518   -0.7137   -1.0532 H   0  0  0  0  0  0  0  0  0  0  0  0
    3.0005   -0.1329    0.6672 H   0  0  0  0  0  0  0  0  0  0  0  0
    3.3547    0.8843   -0.7560 H   0  0  0  0  0  0  0  0  0  0  0  0
    1.3913    1.6908    0.3494 H   0  0  0  0  0  0  0  0  0  0  0  0
    1.1114    1.2231   -1.3420 H   0  0  0  0  0  0  0  0  0  0  0  0
   -2.5707   -1.0221   -0.1071 H   0  0  0  0  0  0  0  0  0  0  0  0
   -2.1555   -0.7985    1.6516 H   0  0  0  0  0  0  0  0  0  0  0  0
   -3.2364    0.3898    0.7468 H   0  0  0  0  0  0  0  0  0  0  0  0
   -2.6327    1.6542   -1.1384 H   0  0  0  0  0  0  0  0  0  0  0  0
   -0.8640    1.5520   -1.7295 H   0  0  0  0  0  0  0  0  0  0  0  0
    1.5615   -1.3643    1.4228 H   0  0  0  0  0  0  0  0  0  0  0  0
   -0.2087   -1.3945    1.9258 H   0  0  0  0  0  0  0  0  0  0  0  0
    0.9432   -1.8251   -1.0032 H   0  0  0  0  0  0  0  0  0  0  0  0
   -0.8223   -2.0370   -0.3960 H   0  0  0  0  0  0  0  0  0  0  0  0
  1  2  1  0
  2  3  1  0
  3  4  1  0
  4  5  1  0
  4  6  1  0
  6  7  1  0
  3  8  1  0
  8  9  1  0
  9  3  1  0
  7  4  1  0
  1 10  1  0
  1 11  1  0
  1 12  1  0
  2 13  1  0
  2 14  1  0
  5 15  1  0
  5 16  1  0
  5 17  1  0
  6 18  1  0
  6 19  1  0
  8 20  1  0
  8 21  1  0
  9 22  1  0
  9 23  1  0
M  END
