
     RDKit          3D

 22 22  0  0  0  0  0  0  0  0999 V2000
    2.2336    0.2335   -0.3262 C   0  0  0  0  0  0  0  0  0  0  0  0
    1.2610    0.2392    0.8462 C   0  0  0  0  0  0  0  0  0  0  0  0
   -0.0645   -0.2233    0.3284 C   0  0  0  0  0  0  0  0  0  0  0  0
   -0.0572   -1.5931   -0.2592 C   0  0  0  0  0  0  0  0  0  0  0  0
   -1.2370   -0.0480    1.2710 C   0  0  0  0  0  0  0  0  0  0  0  0
   -2.0502    0.3730    0.0385 C   0  0  0  0  0  0  0  0  0  0  0  0
   -0.7116    0.8416   -0.5456 C   0  0  0  0  0  0  0  0  0  0  0  0
   -0.5771    0.6674   -1.8970 O   0  0  0  0  0  0  0  0  0  0  0  0
    1.6819    0.3310   -1.2848 H   0  0  0  0  0  0  0  0  0  0  0  0
    2.7491   -0.7638   -0.3556 H   0  0  0  0  0  0  0  0  0  0  0  0
    2.9511    1.0672   -0.2792 H   0  0  0  0  0  0  0  0  0  0  0  0
    1.6737   -0.3857    1.6486 H   0  0  0  0  0  0  0  0  0  0  0  0
    1.2013    1.2988    1.1810 H   0  0  0  0  0  0  0  0  0  0  0  0
   -0.9944   -2.1529   -0.0285 H   0  0  0  0  0  0  0  0  0  0  0  0
    0.8396   -2.1342    0.1559 H   0  0  0  0  0  0  0  0  0  0  0  0
    0.0108   -1.5969   -1.3799 H   0  0  0  0  0  0  0  0  0  0  0  0
   -1.1690    0.8013    1.9637 H   0  0  0  0  0  0  0  0  0  0  0  0
   -1.6415   -0.9923    1.6873 H   0  0  0  0  0  0  0  0  0  0  0  0
   -2.4601   -0.5275   -0.4606 H   0  0  0  0  0  0  0  0  0  0  0  0
   -2.7748    1.1738    0.2216 H   0  0  0  0  0  0  0  0  0  0  0  0
   -0.5067    1.8606   -0.1568 H   0  0  0  0  0  0  0  0  0  0  0  0
   -0.3580    1.5304   -2.3686 H   0  0  0  0  0  0  0  0  0  0  0  0
  1  2  1  0
  2  3  1  0
  3  4  1  0
  3  5  1  0
  5  6  1  0
  6  7  1  0
  7  8  1  0
  7  3  1  0
  1  9  1  0
  1 10  1  0
  1 11  1  0
  2 12  1  0
  2 13  1  0
  4 14  1  0
  4 15  1  0
  4 16  1  0
  5 17  1  0
  5 18  1  0
  6 19  1  0
  6 20  1  0
  7 21  1  0
  8 22  1  0
M  END
