
     RDKit          3D

 21 22  0  0  0  0  0  0  0  0999 V2000
    2.4022    0.8035    0.4100 C   0  0  0  0  0  0  0  0  0  0  0  0
    1.4581   -0.3594    0.7320 C   0  0  0  0  0  0  0  0  0  0  0  0
    0.3805   -0.3609   -0.2775 C   0  0  0  0  0  0  0  0  0  0  0  0
   -0.5030    0.8174   -0.4273 C   0  0  0  0  0  0  0  0  0  0  0  0
   -1.1906    0.3799    0.8354 C   0  0  0  0  0  0  0  0  0  0  0  0
   -0.9720   -0.9007    0.0969 C   0  0  0  0  0  0  0  0  0  0  0  0
   -1.2806   -2.0690    0.4215 O   0  0  0  0  0  0  0  0  0  0  0  0
   -1.4575   -0.1307   -1.1168 C   0  0  0  0  0  0  0  0  0  0  0  0
   -2.7833    0.2219   -1.1032 O   0  0  0  0  0  0  0  0  0  0  0  0
    1.7752    1.7010    0.2635 H   0  0  0  0  0  0  0  0  0  0  0  0
    3.1015    1.0044    1.2363 H   0  0  0  0  0  0  0  0  0  0  0  0
    2.9533    0.5170   -0.5089 H   0  0  0  0  0  0  0  0  0  0  0  0
    1.1561   -0.2705    1.7703 H   0  0  0  0  0  0  0  0  0  0  0  0
    2.0626   -1.3009    0.5807 H   0  0  0  0  0  0  0  0  0  0  0  0
    0.6519   -0.7728   -1.2853 H   0  0  0  0  0  0  0  0  0  0  0  0
   -0.2861    1.7501   -0.7098 H   0  0  0  0  0  0  0  0  0  0  0  0
   -2.2547    0.7590    0.8084 H   0  0  0  0  0  0  0  0  0  0  0  0
   -0.6928    0.5431    1.7844 H   0  0  0  0  0  0  0  0  0  0  0  0
   -0.5621   -2.7362    0.4205 H   0  0  0  0  0  0  0  0  0  0  0  0
   -1.0258   -0.4515   -2.0813 H   0  0  0  0  0  0  0  0  0  0  0  0
   -2.9331    0.8554   -1.8498 H   0  0  0  0  0  0  0  0  0  0  0  0
  1  2  1  0
  2  3  1  0
  3  4  1  0
  4  5  1  0
  5  6  1  0
  6  7  1  0
  6  8  1  0
  8  9  1  0
  6  3  1  0
  8  4  1  0
  1 10  1  0
  1 11  1  0
  1 12  1  0
  2 13  1  0
  2 14  1  0
  3 15  1  0
  4 16  1  0
  5 17  1  0
  5 18  1  0
  7 19  1  0
  8 20  1  0
  9 21  1  0
M  END
