
     RDKit          3D

 21 22  0  0  0  0  0  0  0  0999 V2000
    2.3359   -0.9023    0.1168 C   0  0  0  0  0  0  0  0  0  0  0  0
    1.2863   -0.2657   -0.7550 C   0  0  0  0  0  0  0  0  0  0  0  0
    0.3214    0.5375    0.0845 C   0  0  0  0  0  0  0  0  0  0  0  0
    0.9979    1.5543    0.7795 O   0  0  0  0  0  0  0  0  0  0  0  0
   -0.8528    1.1048   -0.6359 C   0  0  0  0  0  0  0  0  0  0  0  0
   -0.9725    0.7445   -1.9723 O   0  0  0  0  0  0  0  0  0  0  0  0
   -1.7726    0.3861    0.3117 C   0  0  0  0  0  0  0  0  0  0  0  0
   -1.6824   -1.0910    0.4107 C   0  0  0  0  0  0  0  0  0  0  0  0
   -0.5815   -0.2636    0.9539 C   0  0  0  0  0  0  0  0  0  0  0  0
    3.3386   -0.9169   -0.3536 H   0  0  0  0  0  0  0  0  0  0  0  0
    2.0642   -1.9568    0.3927 H   0  0  0  0  0  0  0  0  0  0  0  0
    2.4688   -0.3674    1.0904 H   0  0  0  0  0  0  0  0  0  0  0  0
    1.7606    0.3109   -1.5452 H   0  0  0  0  0  0  0  0  0  0  0  0
    0.6841   -1.0714   -1.2434 H   0  0  0  0  0  0  0  0  0  0  0  0
    0.3950    1.9840    1.4406 H   0  0  0  0  0  0  0  0  0  0  0  0
   -1.0063    2.2013   -0.5400 H   0  0  0  0  0  0  0  0  0  0  0  0
   -1.9161    0.4829   -2.1103 H   0  0  0  0  0  0  0  0  0  0  0  0
   -2.5064    0.9409    0.9086 H   0  0  0  0  0  0  0  0  0  0  0  0
   -2.3432   -1.5582    1.1592 H   0  0  0  0  0  0  0  0  0  0  0  0
   -1.5970   -1.6484   -0.5298 H   0  0  0  0  0  0  0  0  0  0  0  0
   -0.4220   -0.2055    2.0372 H   0  0  0  0  0  0  0  0  0  0  0  0
  1  2  1  0
  2  3  1  0
  3  4  1  0
  3  5  1  0
  5  6  1  0
  5  7  1  0
  7  8  1  0
  8  9  1  0
  9  3  1  0
  9  7  1  0
  1 10  1  0
  1 11  1  0
  1 12  1  0
  2 13  1  0
  2 14  1  0
  4 15  1  0
  5 16  1  0
  6 17  1  0
  7 18  1  0
  8 19  1  0
  8 20  1  0
  9 21  1  0
M  END
