
     RDKit          3D

 21 22  0  0  0  0  0  0  0  0999 V2000
   -2.1451    0.8378    0.3815 C   0  0  0  0  0  0  0  0  0  0  0  0
   -1.1867    0.5237   -0.7145 C   0  0  0  0  0  0  0  0  0  0  0  0
   -0.2586   -0.6218   -0.4094 C   0  0  0  0  0  0  0  0  0  0  0  0
    0.6538   -0.4863    0.7925 C   0  0  0  0  0  0  0  0  0  0  0  0
    1.5727    0.6672    0.7023 C   0  0  0  0  0  0  0  0  0  0  0  0
    2.5574    0.9007   -0.3061 C   0  0  0  0  0  0  0  0  0  0  0  0
    2.9835    0.2178    0.8422 O   0  0  0  0  0  0  0  0  0  0  0  0
   -0.7627   -2.0303   -0.6431 C   0  0  0  0  0  0  0  0  0  0  0  0
    0.1430   -1.3965   -1.4870 O   0  0  0  0  0  0  0  0  0  0  0  0
   -3.1763    0.9467   -0.0446 H   0  0  0  0  0  0  0  0  0  0  0  0
   -2.2153    0.0302    1.1517 H   0  0  0  0  0  0  0  0  0  0  0  0
   -1.9211    1.8256    0.8482 H   0  0  0  0  0  0  0  0  0  0  0  0
   -0.5714    1.4494   -0.9183 H   0  0  0  0  0  0  0  0  0  0  0  0
   -1.7438    0.2469   -1.6403 H   0  0  0  0  0  0  0  0  0  0  0  0
   -0.0071   -0.3752    1.7033 H   0  0  0  0  0  0  0  0  0  0  0  0
    1.1727   -1.4512    0.9703 H   0  0  0  0  0  0  0  0  0  0  0  0
    1.4288    1.4622    1.4801 H   0  0  0  0  0  0  0  0  0  0  0  0
    3.0136    1.9095   -0.3762 H   0  0  0  0  0  0  0  0  0  0  0  0
    2.5844    0.3609   -1.2749 H   0  0  0  0  0  0  0  0  0  0  0  0
   -1.8215   -2.1582   -0.9937 H   0  0  0  0  0  0  0  0  0  0  0  0
   -0.3004   -2.8591   -0.0636 H   0  0  0  0  0  0  0  0  0  0  0  0
  1  2  1  0
  2  3  1  0
  3  4  1  0
  4  5  1  0
  5  6  1  0
  6  7  1  0
  3  8  1  0
  8  9  1  0
  9  3  1  0
  7  5  1  0
  1 10  1  0
  1 11  1  0
  1 12  1  0
  2 13  1  0
  2 14  1  0
  4 15  1  0
  4 16  1  0
  5 17  1  0
  6 18  1  0
  6 19  1  0
  8 20  1  0
  8 21  1  0
M  END
