
     RDKit          3D

 18 18  0  0  0  0  0  0  0  0999 V2000
    2.6652    0.4683   -0.1197 C   0  0  0  0  0  0  0  0  0  0  0  0
    1.1999    0.7030   -0.0196 C   0  0  0  0  0  0  0  0  0  0  0  0
    0.3246   -0.4264   -0.4163 C   0  0  0  0  0  0  0  0  0  0  0  0
    0.3319   -1.6554    0.1905 O   0  0  0  0  0  0  0  0  0  0  0  0
   -0.6458   -0.8431    0.6973 C   0  0  0  0  0  0  0  0  0  0  0  0
   -2.0707   -0.8965    0.2290 C   0  0  0  0  0  0  0  0  0  0  0  0
   -2.4114    0.4611   -0.2475 C   0  0  0  0  0  0  0  0  0  0  0  0
   -2.0017    0.8366   -1.3125 O   0  0  0  0  0  0  0  0  0  0  0  0
    2.9281   -0.2430   -0.9444 H   0  0  0  0  0  0  0  0  0  0  0  0
    3.0571    0.1013    0.8728 H   0  0  0  0  0  0  0  0  0  0  0  0
    3.1608    1.4586   -0.3109 H   0  0  0  0  0  0  0  0  0  0  0  0
    0.9363    1.5748   -0.6732 H   0  0  0  0  0  0  0  0  0  0  0  0
    0.9961    1.0900    1.0196 H   0  0  0  0  0  0  0  0  0  0  0  0
   -0.0323   -0.4556   -1.4617 H   0  0  0  0  0  0  0  0  0  0  0  0
   -0.5200   -0.4326    1.7028 H   0  0  0  0  0  0  0  0  0  0  0  0
   -2.7669   -1.1992    1.0423 H   0  0  0  0  0  0  0  0  0  0  0  0
   -2.1322   -1.6420   -0.6085 H   0  0  0  0  0  0  0  0  0  0  0  0
   -3.0191    1.1001    0.3601 H   0  0  0  0  0  0  0  0  0  0  0  0
  1  2  1  0
  2  3  1  0
  3  4  1  0
  4  5  1  0
  5  6  1  0
  6  7  1  0
  7  8  2  0
  5  3  1  0
  1  9  1  0
  1 10  1  0
  1 11  1  0
  2 12  1  0
  2 13  1  0
  3 14  1  0
  5 15  1  0
  6 16  1  0
  6 17  1  0
  7 18  1  0
M  END
