
     RDKit          3D

 23 24  0  0  0  0  0  0  0  0999 V2000
   -3.3555    0.3768   -0.3220 C   0  0  0  0  0  0  0  0  0  0  0  0
   -2.2047   -0.5708   -0.5942 C   0  0  0  0  0  0  0  0  0  0  0  0
   -1.0903   -0.2944    0.3917 C   0  0  0  0  0  0  0  0  0  0  0  0
   -0.4680    1.0352    0.4283 C   0  0  0  0  0  0  0  0  0  0  0  0
    0.3230   -0.1443   -0.1145 C   0  0  0  0  0  0  0  0  0  0  0  0
    1.3613   -0.7949    0.7549 C   0  0  0  0  0  0  0  0  0  0  0  0
    2.7566   -0.6479    0.2572 C   0  0  0  0  0  0  0  0  0  0  0  0
    3.4329    0.5974    0.0481 C   0  0  0  0  0  0  0  0  0  0  0  0
    3.6448   -0.0259    1.3004 O   0  0  0  0  0  0  0  0  0  0  0  0
   -3.9552    0.0314    0.5652 H   0  0  0  0  0  0  0  0  0  0  0  0
   -4.0457    0.3796   -1.2008 H   0  0  0  0  0  0  0  0  0  0  0  0
   -3.0049    1.4204   -0.1804 H   0  0  0  0  0  0  0  0  0  0  0  0
   -2.5914   -1.6013   -0.4849 H   0  0  0  0  0  0  0  0  0  0  0  0
   -1.8377   -0.3586   -1.6077 H   0  0  0  0  0  0  0  0  0  0  0  0
   -1.2609   -0.7719    1.3894 H   0  0  0  0  0  0  0  0  0  0  0  0
   -0.0963    1.5122    1.3520 H   0  0  0  0  0  0  0  0  0  0  0  0
   -0.8540    1.7716   -0.3161 H   0  0  0  0  0  0  0  0  0  0  0  0
    0.4132   -0.2048   -1.2213 H   0  0  0  0  0  0  0  0  0  0  0  0
    1.0785   -1.8775    0.8333 H   0  0  0  0  0  0  0  0  0  0  0  0
    1.2133   -0.3968    1.7972 H   0  0  0  0  0  0  0  0  0  0  0  0
    3.2778   -1.5940   -0.0311 H   0  0  0  0  0  0  0  0  0  0  0  0
    4.3483    0.5873   -0.5957 H   0  0  0  0  0  0  0  0  0  0  0  0
    2.9147    1.5712    0.0428 H   0  0  0  0  0  0  0  0  0  0  0  0
  1  2  1  0
  2  3  1  0
  3  4  1  0
  4  5  1  0
  5  6  1  0
  6  7  1  0
  7  8  1  0
  8  9  1  0
  5  3  1  0
  9  7  1  0
  1 10  1  0
  1 11  1  0
  1 12  1  0
  2 13  1  0
  2 14  1  0
  3 15  1  0
  4 16  1  0
  4 17  1  0
  5 18  1  0
  6 19  1  0
  6 20  1  0
  7 21  1  0
  8 22  1  0
  8 23  1  0
M  END
