
     RDKit          3D

 24 24  0  0  0  0  0  0  0  0999 V2000
    2.9315    0.4867   -0.1526 C   0  0  0  0  0  0  0  0  0  0  0  0
    1.8277   -0.1118    0.6850 C   0  0  0  0  0  0  0  0  0  0  0  0
    0.4836    0.4698    0.2951 C   0  0  0  0  0  0  0  0  0  0  0  0
    0.1004    0.2228   -1.1760 C   0  0  0  0  0  0  0  0  0  0  0  0
   -0.6468   -0.3986   -0.0596 C   0  0  0  0  0  0  0  0  0  0  0  0
   -0.3708   -1.8908    0.1815 C   0  0  0  0  0  0  0  0  0  0  0  0
   -2.0698   -0.0394    0.2391 C   0  0  0  0  0  0  0  0  0  0  0  0
   -2.5394    1.2261   -0.3971 C   0  0  0  0  0  0  0  0  0  0  0  0
    3.1750   -0.2412   -0.9572 H   0  0  0  0  0  0  0  0  0  0  0  0
    2.5724    1.4662   -0.5791 H   0  0  0  0  0  0  0  0  0  0  0  0
    3.8493    0.6617    0.4456 H   0  0  0  0  0  0  0  0  0  0  0  0
    2.0000    0.0754    1.7653 H   0  0  0  0  0  0  0  0  0  0  0  0
    1.8358   -1.2330    0.5719 H   0  0  0  0  0  0  0  0  0  0  0  0
    0.3584    1.5188    0.6236 H   0  0  0  0  0  0  0  0  0  0  0  0
   -0.2691    1.0773   -1.7477 H   0  0  0  0  0  0  0  0  0  0  0  0
    0.7772   -0.4380   -1.7692 H   0  0  0  0  0  0  0  0  0  0  0  0
    0.4033   -2.2436   -0.5311 H   0  0  0  0  0  0  0  0  0  0  0  0
    0.0028   -1.9901    1.2191 H   0  0  0  0  0  0  0  0  0  0  0  0
   -1.3014   -2.4861    0.1228 H   0  0  0  0  0  0  0  0  0  0  0  0
   -2.2333    0.0452    1.3306 H   0  0  0  0  0  0  0  0  0  0  0  0
   -2.7109   -0.8681   -0.1367 H   0  0  0  0  0  0  0  0  0  0  0  0
   -3.6688    1.2138   -0.3683 H   0  0  0  0  0  0  0  0  0  0  0  0
   -2.2405    2.1200    0.1684 H   0  0  0  0  0  0  0  0  0  0  0  0
   -2.2666    1.3572   -1.4420 H   0  0  0  0  0  0  0  0  0  0  0  0
  1  2  1  0
  2  3  1  0
  3  4  1  0
  4  5  1  0
  5  6  1  0
  5  7  1  0
  7  8  1  0
  5  3  1  0
  1  9  1  0
  1 10  1  0
  1 11  1  0
  2 12  1  0
  2 13  1  0
  3 14  1  0
  4 15  1  0
  4 16  1  0
  6 17  1  0
  6 18  1  0
  6 19  1  0
  7 20  1  0
  7 21  1  0
  8 22  1  0
  8 23  1  0
  8 24  1  0
M  END
