
     RDKit          3D

 23 23  0  0  0  0  0  0  0  0999 V2000
    3.3331   -0.3870    0.1893 C   0  0  0  0  0  0  0  0  0  0  0  0
    2.3523    0.7243    0.4582 C   0  0  0  0  0  0  0  0  0  0  0  0
    0.9673    0.2901    0.0755 C   0  0  0  0  0  0  0  0  0  0  0  0
    0.6650   -0.8950   -0.4231 C   0  0  0  0  0  0  0  0  0  0  0  0
   -0.8166   -1.0117   -0.6980 C   0  0  0  0  0  0  0  0  0  0  0  0
   -1.3315    0.0312    0.3188 C   0  0  0  0  0  0  0  0  0  0  0  0
   -2.5530    0.4477   -0.1498 O   0  0  0  0  0  0  0  0  0  0  0  0
   -3.5880    0.1959    0.7282 C   0  0  0  0  0  0  0  0  0  0  0  0
   -0.2802    1.0789    0.1634 C   0  0  0  0  0  0  0  0  0  0  0  0
    2.9795   -1.3216    0.6355 H   0  0  0  0  0  0  0  0  0  0  0  0
    4.3160   -0.1068    0.6229 H   0  0  0  0  0  0  0  0  0  0  0  0
    3.4076   -0.5686   -0.9192 H   0  0  0  0  0  0  0  0  0  0  0  0
    2.5604    1.6298   -0.1414 H   0  0  0  0  0  0  0  0  0  0  0  0
    2.4166    1.0075    1.5203 H   0  0  0  0  0  0  0  0  0  0  0  0
    1.4051   -1.6852   -0.6091 H   0  0  0  0  0  0  0  0  0  0  0  0
   -1.0723   -0.7400   -1.7206 H   0  0  0  0  0  0  0  0  0  0  0  0
   -1.1505   -2.0021   -0.3664 H   0  0  0  0  0  0  0  0  0  0  0  0
   -1.3509   -0.4365    1.3114 H   0  0  0  0  0  0  0  0  0  0  0  0
   -3.6371   -0.8936    0.9006 H   0  0  0  0  0  0  0  0  0  0  0  0
   -4.5293    0.5474    0.2462 H   0  0  0  0  0  0  0  0  0  0  0  0
   -3.4151    0.7046    1.6868 H   0  0  0  0  0  0  0  0  0  0  0  0
   -0.2615    1.8232    0.9796 H   0  0  0  0  0  0  0  0  0  0  0  0
   -0.4170    1.5675   -0.8265 H   0  0  0  0  0  0  0  0  0  0  0  0
  1  2  1  0
  2  3  1  0
  3  4  2  0
  4  5  1  0
  5  6  1  0
  6  7  1  0
  7  8  1  0
  6  9  1  0
  9  3  1  0
  1 10  1  0
  1 11  1  0
  1 12  1  0
  2 13  1  0
  2 14  1  0
  4 15  1  0
  5 16  1  0
  5 17  1  0
  6 18  1  0
  8 19  1  0
  8 20  1  0
  8 21  1  0
  9 22  1  0
  9 23  1  0
M  END
