
     RDKit          3D

 25 26  0  0  0  0  0  0  0  0999 V2000
   -2.6770    0.0865   -0.4489 C   0  0  0  0  0  0  0  0  0  0  0  0
   -1.5974    0.5921    0.4897 C   0  0  0  0  0  0  0  0  0  0  0  0
   -0.4155   -0.3015    0.5485 C   0  0  0  0  0  0  0  0  0  0  0  0
   -0.7293   -1.7096    1.0250 C   0  0  0  0  0  0  0  0  0  0  0  0
    0.4814   -0.1938   -0.6199 C   0  0  0  0  0  0  0  0  0  0  0  0
    1.5158   -0.8692    0.2755 C   0  0  0  0  0  0  0  0  0  0  0  0
    0.8539    0.1624    1.1527 C   0  0  0  0  0  0  0  0  0  0  0  0
    1.0066    1.0731   -0.0338 C   0  0  0  0  0  0  0  0  0  0  0  0
    2.4569    1.3961   -0.3785 C   0  0  0  0  0  0  0  0  0  0  0  0
   -2.3093   -0.1523   -1.4450 H   0  0  0  0  0  0  0  0  0  0  0  0
   -3.4190    0.9074   -0.5407 H   0  0  0  0  0  0  0  0  0  0  0  0
   -3.2311   -0.7591    0.0419 H   0  0  0  0  0  0  0  0  0  0  0  0
   -1.4184    1.6309    0.2059 H   0  0  0  0  0  0  0  0  0  0  0  0
   -2.0826    0.5326    1.5159 H   0  0  0  0  0  0  0  0  0  0  0  0
   -1.7827   -1.7901    1.3830 H   0  0  0  0  0  0  0  0  0  0  0  0
   -0.5861   -2.4594    0.2333 H   0  0  0  0  0  0  0  0  0  0  0  0
   -0.1093   -1.9974    1.8885 H   0  0  0  0  0  0  0  0  0  0  0  0
    0.3261   -0.4211   -1.5790 H   0  0  0  0  0  0  0  0  0  0  0  0
    2.5640   -0.6859    0.0175 H   0  0  0  0  0  0  0  0  0  0  0  0
    1.3220   -1.9302    0.4963 H   0  0  0  0  0  0  0  0  0  0  0  0
    1.0693    0.3720    2.1049 H   0  0  0  0  0  0  0  0  0  0  0  0
    0.4081    1.9762   -0.0478 H   0  0  0  0  0  0  0  0  0  0  0  0
    2.5561    2.5130   -0.5299 H   0  0  0  0  0  0  0  0  0  0  0  0
    2.7402    0.8387   -1.2678 H   0  0  0  0  0  0  0  0  0  0  0  0
    3.0575    1.1888    0.5191 H   0  0  0  0  0  0  0  0  0  0  0  0
  1  2  1  0
  2  3  1  0
  3  4  1  0
  3  5  1  0
  5  6  1  0
  6  7  1  0
  7  8  1  0
  8  9  1  0
  7  3  1  0
  8  5  1  0
  1 10  1  0
  1 11  1  0
  1 12  1  0
  2 13  1  0
  2 14  1  0
  4 15  1  0
  4 16  1  0
  4 17  1  0
  5 18  1  0
  6 19  1  0
  6 20  1  0
  7 21  1  0
  8 22  1  0
  9 23  1  0
  9 24  1  0
  9 25  1  0
M  END
