
     RDKit          3D

 21 21  0  0  0  0  0  0  0  0999 V2000
    2.3318    0.9264   -0.5598 C   0  0  0  0  0  0  0  0  0  0  0  0
    1.3300    0.3586    0.3983 C   0  0  0  0  0  0  0  0  0  0  0  0
    0.3734   -0.6171   -0.2429 C   0  0  0  0  0  0  0  0  0  0  0  0
   -0.4391   -0.0280   -1.3470 C   0  0  0  0  0  0  0  0  0  0  0  0
   -1.9193    0.0016   -1.0358 C   0  0  0  0  0  0  0  0  0  0  0  0
   -2.1825    0.3999    0.3666 C   0  0  0  0  0  0  0  0  0  0  0  0
   -3.0927    1.2249    0.6018 O   0  0  0  0  0  0  0  0  0  0  0  0
   -1.3892   -0.1777    1.3425 O   0  0  0  0  0  0  0  0  0  0  0  0
   -0.4884   -1.1909    0.8631 C   0  0  0  0  0  0  0  0  0  0  0  0
    1.8951    1.4221   -1.4391 H   0  0  0  0  0  0  0  0  0  0  0  0
    3.0418    0.1090   -0.8667 H   0  0  0  0  0  0  0  0  0  0  0  0
    2.9278    1.6794   -0.0036 H   0  0  0  0  0  0  0  0  0  0  0  0
    0.7993    1.1534    0.9257 H   0  0  0  0  0  0  0  0  0  0  0  0
    1.9045   -0.2153    1.1662 H   0  0  0  0  0  0  0  0  0  0  0  0
    0.9486   -1.4870   -0.6580 H   0  0  0  0  0  0  0  0  0  0  0  0
   -0.1024    1.0229   -1.4972 H   0  0  0  0  0  0  0  0  0  0  0  0
   -0.3370   -0.6202   -2.2936 H   0  0  0  0  0  0  0  0  0  0  0  0
   -2.4677    0.6349   -1.7296 H   0  0  0  0  0  0  0  0  0  0  0  0
   -2.2836   -1.0475   -1.1716 H   0  0  0  0  0  0  0  0  0  0  0  0
   -1.0616   -2.0703    0.4896 H   0  0  0  0  0  0  0  0  0  0  0  0
    0.2113   -1.4791    1.6822 H   0  0  0  0  0  0  0  0  0  0  0  0
  1  2  1  0
  2  3  1  0
  3  4  1  0
  4  5  1  0
  5  6  1  0
  6  7  2  0
  6  8  1  0
  8  9  1  0
  9  3  1  0
  1 10  1  0
  1 11  1  0
  1 12  1  0
  2 13  1  0
  2 14  1  0
  3 15  1  0
  4 16  1  0
  4 17  1  0
  5 18  1  0
  5 19  1  0
  9 20  1  0
  9 21  1  0
M  END
