
     RDKit          3D

 22 22  0  0  0  0  0  0  0  0999 V2000
    2.6878    0.2431   -0.2002 C   0  0  0  0  0  0  0  0  0  0  0  0
    1.4296    0.1520    0.6069 C   0  0  0  0  0  0  0  0  0  0  0  0
    0.2054    0.2009   -0.2673 C   0  0  0  0  0  0  0  0  0  0  0  0
    0.1701   -0.9362   -1.2685 C   0  0  0  0  0  0  0  0  0  0  0  0
   -1.1723   -0.8503   -1.6781 O   0  0  0  0  0  0  0  0  0  0  0  0
   -1.8949   -0.8188   -0.4899 C   0  0  0  0  0  0  0  0  0  0  0  0
   -1.0358   -0.1104    0.5303 C   0  0  0  0  0  0  0  0  0  0  0  0
   -1.7509    1.1117    1.0116 C   0  0  0  0  0  0  0  0  0  0  0  0
    3.5578   -0.1585    0.3861 H   0  0  0  0  0  0  0  0  0  0  0  0
    2.9466    1.3202   -0.3838 H   0  0  0  0  0  0  0  0  0  0  0  0
    2.6549   -0.3168   -1.1407 H   0  0  0  0  0  0  0  0  0  0  0  0
    1.3855    1.0405    1.2701 H   0  0  0  0  0  0  0  0  0  0  0  0
    1.4213   -0.7354    1.2627 H   0  0  0  0  0  0  0  0  0  0  0  0
    0.0755    1.1724   -0.7367 H   0  0  0  0  0  0  0  0  0  0  0  0
    0.8638   -0.8098   -2.0924 H   0  0  0  0  0  0  0  0  0  0  0  0
    0.2646   -1.8964   -0.7264 H   0  0  0  0  0  0  0  0  0  0  0  0
   -2.8306   -0.2197   -0.6964 H   0  0  0  0  0  0  0  0  0  0  0  0
   -2.1500   -1.8472   -0.2147 H   0  0  0  0  0  0  0  0  0  0  0  0
   -0.8466   -0.7622    1.3927 H   0  0  0  0  0  0  0  0  0  0  0  0
   -1.2437    1.6244    1.8413 H   0  0  0  0  0  0  0  0  0  0  0  0
   -2.7403    0.7790    1.4111 H   0  0  0  0  0  0  0  0  0  0  0  0
   -1.9978    1.8174    0.1821 H   0  0  0  0  0  0  0  0  0  0  0  0
  1  2  1  0
  2  3  1  0
  3  4  1  0
  4  5  1  0
  5  6  1  0
  6  7  1  0
  7  8  1  0
  7  3  1  0
  1  9  1  0
  1 10  1  0
  1 11  1  0
  2 12  1  0
  2 13  1  0
  3 14  1  0
  4 15  1  0
  4 16  1  0
  6 17  1  0
  6 18  1  0
  7 19  1  0
  8 20  1  0
  8 21  1  0
  8 22  1  0
M  END
