
     RDKit          3D

 23 24  0  0  0  0  0  0  0  0999 V2000
    2.6801   -0.3992    0.5108 C   0  0  0  0  0  0  0  0  0  0  0  0
    1.4851   -0.9822   -0.1632 C   0  0  0  0  0  0  0  0  0  0  0  0
    0.2201   -0.1877    0.0860 C   0  0  0  0  0  0  0  0  0  0  0  0
    0.2749    1.2395   -0.3896 C   0  0  0  0  0  0  0  0  0  0  0  0
   -1.0099    1.9846   -0.1177 C   0  0  0  0  0  0  0  0  0  0  0  0
   -1.0320   -1.0300   -0.3151 C   0  0  0  0  0  0  0  0  0  0  0  0
   -2.3417   -0.9684    0.3839 C   0  0  0  0  0  0  0  0  0  0  0  0
   -1.9322    0.0033    1.2751 O   0  0  0  0  0  0  0  0  0  0  0  0
   -0.7121   -0.6074    0.9973 C   0  0  0  0  0  0  0  0  0  0  0  0
    2.4360    0.2052    1.4124 H   0  0  0  0  0  0  0  0  0  0  0  0
    3.2974    0.1938   -0.2018 H   0  0  0  0  0  0  0  0  0  0  0  0
    3.3275   -1.2365    0.8467 H   0  0  0  0  0  0  0  0  0  0  0  0
    1.7165   -1.0424   -1.2586 H   0  0  0  0  0  0  0  0  0  0  0  0
    1.3134   -2.0234    0.2041 H   0  0  0  0  0  0  0  0  0  0  0  0
    0.4719    1.2566   -1.4690 H   0  0  0  0  0  0  0  0  0  0  0  0
    1.0762    1.7828    0.1348 H   0  0  0  0  0  0  0  0  0  0  0  0
   -0.8865    2.9932   -0.6099 H   0  0  0  0  0  0  0  0  0  0  0  0
   -1.0634    2.1823    0.9684 H   0  0  0  0  0  0  0  0  0  0  0  0
   -1.8967    1.4865   -0.5314 H   0  0  0  0  0  0  0  0  0  0  0  0
   -1.1303   -0.8268   -1.3344 H   0  0  0  0  0  0  0  0  0  0  0  0
   -3.2273   -0.6436   -0.1616 H   0  0  0  0  0  0  0  0  0  0  0  0
   -2.5785   -1.9552    0.8821 H   0  0  0  0  0  0  0  0  0  0  0  0
   -0.4885   -1.4251    1.7458 H   0  0  0  0  0  0  0  0  0  0  0  0
  1  2  1  0
  2  3  1  0
  3  4  1  0
  4  5  1  0
  3  6  1  0
  6  7  1  0
  7  8  1  0
  8  9  1  0
  9  3  1  0
  9  6  1  0
  1 10  1  0
  1 11  1  0
  1 12  1  0
  2 13  1  0
  2 14  1  0
  4 15  1  0
  4 16  1  0
  5 17  1  0
  5 18  1  0
  5 19  1  0
  6 20  1  0
  7 21  1  0
  7 22  1  0
  9 23  1  0
M  END
