
     RDKit          3D

 20 20  0  0  0  0  0  0  0  0999 V2000
   -1.9356   -1.5401   -0.2282 C   0  0  0  0  0  0  0  0  0  0  0  0
   -1.7557   -0.0761    0.0534 C   0  0  0  0  0  0  0  0  0  0  0  0
   -0.3565    0.4051   -0.2219 C   0  0  0  0  0  0  0  0  0  0  0  0
    0.7755   -0.2120    0.5320 C   0  0  0  0  0  0  0  0  0  0  0  0
    2.1351    0.3428    0.1801 C   0  0  0  0  0  0  0  0  0  0  0  0
    3.0559   -0.3712    0.9880 O   0  0  0  0  0  0  0  0  0  0  0  0
   -0.1649    1.8540   -0.6061 C   0  0  0  0  0  0  0  0  0  0  0  0
   -0.1636    0.8207   -1.5399 O   0  0  0  0  0  0  0  0  0  0  0  0
   -1.6497   -2.1461    0.6586 H   0  0  0  0  0  0  0  0  0  0  0  0
   -2.9915   -1.7122   -0.5207 H   0  0  0  0  0  0  0  0  0  0  0  0
   -1.3282   -1.8514   -1.1255 H   0  0  0  0  0  0  0  0  0  0  0  0
   -1.9981    0.1262    1.1112 H   0  0  0  0  0  0  0  0  0  0  0  0
   -2.4614    0.4778   -0.5991 H   0  0  0  0  0  0  0  0  0  0  0  0
    0.6372   -0.0092    1.6342 H   0  0  0  0  0  0  0  0  0  0  0  0
    0.7810   -1.3190    0.4279 H   0  0  0  0  0  0  0  0  0  0  0  0
    2.3603    0.2453   -0.8821 H   0  0  0  0  0  0  0  0  0  0  0  0
    2.2152    1.3973    0.5608 H   0  0  0  0  0  0  0  0  0  0  0  0
    3.1317   -1.2621    0.5605 H   0  0  0  0  0  0  0  0  0  0  0  0
   -1.0788    2.4693   -0.4875 H   0  0  0  0  0  0  0  0  0  0  0  0
    0.7921    2.3612   -0.4954 H   0  0  0  0  0  0  0  0  0  0  0  0
  1  2  1  0
  2  3  1  0
  3  4  1  0
  4  5  1  0
  5  6  1  0
  3  7  1  0
  7  8  1  0
  8  3  1  0
  1  9  1  0
  1 10  1  0
  1 11  1  0
  2 12  1  0
  2 13  1  0
  4 14  1  0
  4 15  1  0
  5 16  1  0
  5 17  1  0
  6 18  1  0
  7 19  1  0
  7 20  1  0
M  END
