
     RDKit          3D

 23 24  0  0  0  0  0  0  0  0999 V2000
   -2.4447    0.7337    0.0495 C   0  0  0  0  0  0  0  0  0  0  0  0
   -1.8324   -0.6256   -0.0943 C   0  0  0  0  0  0  0  0  0  0  0  0
   -0.3981   -0.5963   -0.0812 C   0  0  0  0  0  0  0  0  0  0  0  0
    0.4196   -1.8350   -0.2104 C   0  0  0  0  0  0  0  0  0  0  0  0
    1.7220   -1.2902   -0.0496 O   0  0  0  0  0  0  0  0  0  0  0  0
    1.4748    0.0590    0.0359 C   0  0  0  0  0  0  0  0  0  0  0  0
    2.5435    1.0221    0.1647 C   0  0  0  0  0  0  0  0  0  0  0  0
    0.3590    0.3500   -0.9855 C   0  0  0  0  0  0  0  0  0  0  0  0
    0.3258    0.1139    1.0591 C   0  0  0  0  0  0  0  0  0  0  0  0
   -2.7337    0.9640    1.1073 H   0  0  0  0  0  0  0  0  0  0  0  0
   -1.8289    1.5610   -0.3015 H   0  0  0  0  0  0  0  0  0  0  0  0
   -3.4038    0.7791   -0.5246 H   0  0  0  0  0  0  0  0  0  0  0  0
   -2.2081   -1.2415    0.7567 H   0  0  0  0  0  0  0  0  0  0  0  0
   -2.2094   -1.0695   -1.0236 H   0  0  0  0  0  0  0  0  0  0  0  0
    0.3703   -2.1914   -1.2464 H   0  0  0  0  0  0  0  0  0  0  0  0
    0.2154   -2.5990    0.5454 H   0  0  0  0  0  0  0  0  0  0  0  0
    2.7993    1.3444    1.2036 H   0  0  0  0  0  0  0  0  0  0  0  0
    3.4867    0.6290   -0.2647 H   0  0  0  0  0  0  0  0  0  0  0  0
    2.2813    1.9671   -0.3909 H   0  0  0  0  0  0  0  0  0  0  0  0
    0.5523   -0.0854   -1.9731 H   0  0  0  0  0  0  0  0  0  0  0  0
    0.1058    1.4035   -0.9251 H   0  0  0  0  0  0  0  0  0  0  0  0
    0.4873   -0.5098    1.9391 H   0  0  0  0  0  0  0  0  0  0  0  0
   -0.0842    1.1170    1.2094 H   0  0  0  0  0  0  0  0  0  0  0  0
  1  2  1  0
  2  3  1  0
  3  4  1  0
  4  5  1  0
  5  6  1  0
  6  7  1  0
  6  8  1  0
  6  9  1  0
  8  3  1  0
  9  3  1  0
  1 10  1  0
  1 11  1  0
  1 12  1  0
  2 13  1  0
  2 14  1  0
  4 15  1  0
  4 16  1  0
  7 17  1  0
  7 18  1  0
  7 19  1  0
  8 20  1  0
  8 21  1  0
  9 22  1  0
  9 23  1  0
M  END
