
     RDKit          3D

 21 22  0  0  0  0  0  0  0  0999 V2000
    2.3672   -0.1139    0.8554 C   0  0  0  0  0  0  0  0  0  0  0  0
    1.5021    0.4602   -0.2077 C   0  0  0  0  0  0  0  0  0  0  0  0
    0.0998    0.1449   -0.1351 C   0  0  0  0  0  0  0  0  0  0  0  0
   -0.4051   -1.2531   -0.1896 C   0  0  0  0  0  0  0  0  0  0  0  0
   -1.9050   -0.9388   -0.3836 C   0  0  0  0  0  0  0  0  0  0  0  0
   -1.8317    0.5631   -0.2145 C   0  0  0  0  0  0  0  0  0  0  0  0
   -0.7224    0.9018   -1.1989 C   0  0  0  0  0  0  0  0  0  0  0  0
   -0.7917    0.7814    0.8402 C   0  0  0  0  0  0  0  0  0  0  0  0
   -0.7722    1.2620    1.9471 O   0  0  0  0  0  0  0  0  0  0  0  0
    2.8561    0.6758    1.4602 H   0  0  0  0  0  0  0  0  0  0  0  0
    1.7519   -0.7461    1.5289 H   0  0  0  0  0  0  0  0  0  0  0  0
    3.2137   -0.6951    0.3951 H   0  0  0  0  0  0  0  0  0  0  0  0
    1.9026    0.1728   -1.2259 H   0  0  0  0  0  0  0  0  0  0  0  0
    1.6236    1.5830   -0.1953 H   0  0  0  0  0  0  0  0  0  0  0  0
   -0.0062   -1.8340   -1.0252 H   0  0  0  0  0  0  0  0  0  0  0  0
   -0.3355   -1.7813    0.7854 H   0  0  0  0  0  0  0  0  0  0  0  0
   -2.1356   -1.2163   -1.4346 H   0  0  0  0  0  0  0  0  0  0  0  0
   -2.5223   -1.4323    0.3624 H   0  0  0  0  0  0  0  0  0  0  0  0
   -2.7118    1.1437   -0.2052 H   0  0  0  0  0  0  0  0  0  0  0  0
   -0.4170    1.9556   -1.2168 H   0  0  0  0  0  0  0  0  0  0  0  0
   -0.7605    0.3666   -2.1537 H   0  0  0  0  0  0  0  0  0  0  0  0
  1  2  1  0
  2  3  1  0
  3  4  1  0
  4  5  1  0
  5  6  1  0
  6  7  1  0
  6  8  1  0
  8  9  2  0
  7  3  1  0
  8  3  1  0
  1 10  1  0
  1 11  1  0
  1 12  1  0
  2 13  1  0
  2 14  1  0
  4 15  1  0
  4 16  1  0
  5 17  1  0
  5 18  1  0
  6 19  1  0
  7 20  1  0
  7 21  1  0
M  END
