
     RDKit          3D

 23 23  0  0  0  0  0  0  0  0999 V2000
    2.4743    0.0671    0.7369 C   0  0  0  0  0  0  0  0  0  0  0  0
    1.9118    0.1713   -0.6432 C   0  0  0  0  0  0  0  0  0  0  0  0
    0.4349   -0.0985   -0.7193 C   0  0  0  0  0  0  0  0  0  0  0  0
    0.1983   -1.3705   -0.2676 O   0  0  0  0  0  0  0  0  0  0  0  0
   -1.1515   -1.7116   -0.2238 C   0  0  0  0  0  0  0  0  0  0  0  0
   -1.7761   -0.7983    0.8407 C   0  0  0  0  0  0  0  0  0  0  0  0
   -1.7830    0.5913    0.1904 C   0  0  0  0  0  0  0  0  0  0  0  0
   -0.3496    0.9703   -0.0281 C   0  0  0  0  0  0  0  0  0  0  0  0
   -0.3151    2.1142   -0.8354 O   0  0  0  0  0  0  0  0  0  0  0  0
    3.4231    0.6797    0.7595 H   0  0  0  0  0  0  0  0  0  0  0  0
    1.8441    0.4563    1.5322 H   0  0  0  0  0  0  0  0  0  0  0  0
    2.7917   -0.9580    1.0097 H   0  0  0  0  0  0  0  0  0  0  0  0
    2.4083   -0.6369   -1.2567 H   0  0  0  0  0  0  0  0  0  0  0  0
    2.2153    1.1195   -1.1240 H   0  0  0  0  0  0  0  0  0  0  0  0
    0.1565   -0.0683   -1.7997 H   0  0  0  0  0  0  0  0  0  0  0  0
   -1.2459   -2.7668    0.0273 H   0  0  0  0  0  0  0  0  0  0  0  0
   -1.6859   -1.4553   -1.1691 H   0  0  0  0  0  0  0  0  0  0  0  0
   -2.7699   -1.1247    1.1385 H   0  0  0  0  0  0  0  0  0  0  0  0
   -1.0303   -0.7712    1.6669 H   0  0  0  0  0  0  0  0  0  0  0  0
   -2.2510    1.3124    0.8836 H   0  0  0  0  0  0  0  0  0  0  0  0
   -2.3620    0.4818   -0.7513 H   0  0  0  0  0  0  0  0  0  0  0  0
    0.0679    1.2756    0.9520 H   0  0  0  0  0  0  0  0  0  0  0  0
   -1.2057    2.5206   -0.9195 H   0  0  0  0  0  0  0  0  0  0  0  0
  1  2  1  0
  2  3  1  0
  3  4  1  0
  4  5  1  0
  5  6  1  0
  6  7  1  0
  7  8  1  0
  8  9  1  0
  8  3  1  0
  1 10  1  0
  1 11  1  0
  1 12  1  0
  2 13  1  0
  2 14  1  0
  3 15  1  0
  5 16  1  0
  5 17  1  0
  6 18  1  0
  6 19  1  0
  7 20  1  0
  7 21  1  0
  8 22  1  0
  9 23  1  0
M  END
