
     RDKit          3D

 25 25  0  0  0  0  0  0  0  0999 V2000
    2.3249   -1.0689   -0.0884 C   0  0  0  0  0  0  0  0  0  0  0  0
    1.6427    0.2388    0.1578 C   0  0  0  0  0  0  0  0  0  0  0  0
    0.3499    0.3929   -0.5902 C   0  0  0  0  0  0  0  0  0  0  0  0
   -0.2516    1.7665   -0.2579 C   0  0  0  0  0  0  0  0  0  0  0  0
    0.2714    2.3269    0.9009 O   0  0  0  0  0  0  0  0  0  0  0  0
   -1.5577    1.0681    0.0291 C   0  0  0  0  0  0  0  0  0  0  0  0
   -0.8502   -0.2876   -0.0734 C   0  0  0  0  0  0  0  0  0  0  0  0
   -1.6165   -1.1557   -1.0788 C   0  0  0  0  0  0  0  0  0  0  0  0
   -0.7860   -0.9706    1.2411 C   0  0  0  0  0  0  0  0  0  0  0  0
    1.6950   -1.8564   -0.4932 H   0  0  0  0  0  0  0  0  0  0  0  0
    2.7442   -1.4270    0.8965 H   0  0  0  0  0  0  0  0  0  0  0  0
    3.2334   -0.9676   -0.7444 H   0  0  0  0  0  0  0  0  0  0  0  0
    2.3203    1.0574   -0.2043 H   0  0  0  0  0  0  0  0  0  0  0  0
    1.4703    0.4507    1.2307 H   0  0  0  0  0  0  0  0  0  0  0  0
    0.5182    0.3001   -1.6815 H   0  0  0  0  0  0  0  0  0  0  0  0
   -0.2593    2.4611   -1.1198 H   0  0  0  0  0  0  0  0  0  0  0  0
    1.1448    2.7675    0.7517 H   0  0  0  0  0  0  0  0  0  0  0  0
   -1.9770    1.2559    1.0470 H   0  0  0  0  0  0  0  0  0  0  0  0
   -2.2717    1.2662   -0.7966 H   0  0  0  0  0  0  0  0  0  0  0  0
   -1.5771   -2.2268   -0.7907 H   0  0  0  0  0  0  0  0  0  0  0  0
   -2.7056   -0.8756   -0.9924 H   0  0  0  0  0  0  0  0  0  0  0  0
   -1.3288   -0.9528   -2.1094 H   0  0  0  0  0  0  0  0  0  0  0  0
   -0.1549   -0.5175    1.9944 H   0  0  0  0  0  0  0  0  0  0  0  0
   -1.8330   -0.9818    1.6671 H   0  0  0  0  0  0  0  0  0  0  0  0
   -0.5456   -2.0636    1.1048 H   0  0  0  0  0  0  0  0  0  0  0  0
  1  2  1  0
  2  3  1  0
  3  4  1  0
  4  5  1  0
  4  6  1  0
  6  7  1  0
  7  8  1  0
  7  9  1  0
  7  3  1  0
  1 10  1  0
  1 11  1  0
  1 12  1  0
  2 13  1  0
  2 14  1  0
  3 15  1  0
  4 16  1  0
  5 17  1  0
  6 18  1  0
  6 19  1  0
  8 20  1  0
  8 21  1  0
  8 22  1  0
  9 23  1  0
  9 24  1  0
  9 25  1  0
M  END
