
     RDKit          3D

 23 24  0  0  0  0  0  0  0  0999 V2000
   -2.1876   -1.0349    0.2584 C   0  0  0  0  0  0  0  0  0  0  0  0
   -1.0542   -0.6626   -0.6505 C   0  0  0  0  0  0  0  0  0  0  0  0
   -0.1149    0.3426   -0.0539 C   0  0  0  0  0  0  0  0  0  0  0  0
   -0.7893    1.6455    0.3001 C   0  0  0  0  0  0  0  0  0  0  0  0
    0.9845    0.6311   -1.0376 C   0  0  0  0  0  0  0  0  0  0  0  0
    2.0511   -0.3779   -0.8275 C   0  0  0  0  0  0  0  0  0  0  0  0
    1.8110   -1.6487   -0.3741 O   0  0  0  0  0  0  0  0  0  0  0  0
    1.9350   -0.7122    0.6398 C   0  0  0  0  0  0  0  0  0  0  0  0
    0.6388   -0.1773    1.1364 C   0  0  0  0  0  0  0  0  0  0  0  0
   -1.8957   -1.9656    0.7880 H   0  0  0  0  0  0  0  0  0  0  0  0
   -2.3769   -0.1969    0.9682 H   0  0  0  0  0  0  0  0  0  0  0  0
   -3.0818   -1.2780   -0.3535 H   0  0  0  0  0  0  0  0  0  0  0  0
   -0.4488   -1.5262   -0.9854 H   0  0  0  0  0  0  0  0  0  0  0  0
   -1.4953   -0.2031   -1.5604 H   0  0  0  0  0  0  0  0  0  0  0  0
   -1.3226    1.6029    1.2648 H   0  0  0  0  0  0  0  0  0  0  0  0
   -0.0018    2.4102    0.3916 H   0  0  0  0  0  0  0  0  0  0  0  0
   -1.4514    1.9237   -0.5450 H   0  0  0  0  0  0  0  0  0  0  0  0
    0.6138    0.6949   -2.0707 H   0  0  0  0  0  0  0  0  0  0  0  0
    1.4096    1.6357   -0.7458 H   0  0  0  0  0  0  0  0  0  0  0  0
    3.0301   -0.1856   -1.2801 H   0  0  0  0  0  0  0  0  0  0  0  0
    2.8679   -0.5867    1.1919 H   0  0  0  0  0  0  0  0  0  0  0  0
    0.0491   -0.9571    1.6794 H   0  0  0  0  0  0  0  0  0  0  0  0
    0.8294    0.6264    1.8659 H   0  0  0  0  0  0  0  0  0  0  0  0
  1  2  1  0
  2  3  1  0
  3  4  1  0
  3  5  1  0
  5  6  1  0
  6  7  1  0
  7  8  1  0
  8  9  1  0
  9  3  1  0
  8  6  1  0
  1 10  1  0
  1 11  1  0
  1 12  1  0
  2 13  1  0
  2 14  1  0
  4 15  1  0
  4 16  1  0
  4 17  1  0
  5 18  1  0
  5 19  1  0
  6 20  1  0
  8 21  1  0
  9 22  1  0
  9 23  1  0
M  END
