
     RDKit          3D

 25 26  0  0  0  0  0  0  0  0999 V2000
    2.8193    0.9219    0.0270 C   0  0  0  0  0  0  0  0  0  0  0  0
    1.8238   -0.0019   -0.6111 C   0  0  0  0  0  0  0  0  0  0  0  0
    0.8476   -0.5986    0.3639 C   0  0  0  0  0  0  0  0  0  0  0  0
    0.0256    0.4114    1.0875 C   0  0  0  0  0  0  0  0  0  0  0  0
   -1.3478   -0.1756    1.1578 C   0  0  0  0  0  0  0  0  0  0  0  0
   -2.3888    0.7761    0.5589 C   0  0  0  0  0  0  0  0  0  0  0  0
   -1.8830    0.2974   -0.8087 C   0  0  0  0  0  0  0  0  0  0  0  0
   -1.4900   -0.9905   -0.1329 C   0  0  0  0  0  0  0  0  0  0  0  0
   -0.1051   -1.4756   -0.4316 C   0  0  0  0  0  0  0  0  0  0  0  0
    3.7198    0.3548    0.3506 H   0  0  0  0  0  0  0  0  0  0  0  0
    2.4032    1.5722    0.7950 H   0  0  0  0  0  0  0  0  0  0  0  0
    3.1910    1.6025   -0.7940 H   0  0  0  0  0  0  0  0  0  0  0  0
    2.4109   -0.8695   -1.0337 H   0  0  0  0  0  0  0  0  0  0  0  0
    1.3017    0.4452   -1.4731 H   0  0  0  0  0  0  0  0  0  0  0  0
    1.4170   -1.1929    1.1139 H   0  0  0  0  0  0  0  0  0  0  0  0
    0.0373    1.4193    0.6389 H   0  0  0  0  0  0  0  0  0  0  0  0
    0.3751    0.5561    2.1495 H   0  0  0  0  0  0  0  0  0  0  0  0
   -1.6470   -0.6845    2.0671 H   0  0  0  0  0  0  0  0  0  0  0  0
   -3.4047    0.4110    0.7561 H   0  0  0  0  0  0  0  0  0  0  0  0
   -2.2008    1.8402    0.7609 H   0  0  0  0  0  0  0  0  0  0  0  0
   -2.7457    0.2444   -1.4953 H   0  0  0  0  0  0  0  0  0  0  0  0
   -1.0432    0.8793   -1.1949 H   0  0  0  0  0  0  0  0  0  0  0  0
   -2.2599   -1.7710   -0.0975 H   0  0  0  0  0  0  0  0  0  0  0  0
    0.1221   -1.4676   -1.5149 H   0  0  0  0  0  0  0  0  0  0  0  0
    0.0215   -2.5040   -0.0809 H   0  0  0  0  0  0  0  0  0  0  0  0
  1  2  1  0
  2  3  1  0
  3  4  1  0
  4  5  1  0
  5  6  1  0
  6  7  1  0
  7  8  1  0
  8  9  1  0
  9  3  1  0
  8  5  1  0
  1 10  1  0
  1 11  1  0
  1 12  1  0
  2 13  1  0
  2 14  1  0
  3 15  1  0
  4 16  1  0
  4 17  1  0
  5 18  1  0
  6 19  1  0
  6 20  1  0
  7 21  1  0
  7 22  1  0
  8 23  1  0
  9 24  1  0
  9 25  1  0
M  END
