
     RDKit          3D

 19 19  0  0  0  0  0  0  0  0999 V2000
    2.3032    0.0268    0.8782 C   0  0  0  0  0  0  0  0  0  0  0  0
    1.3997   -0.8124    0.0096 C   0  0  0  0  0  0  0  0  0  0  0  0
    0.1994    0.0313   -0.3621 C   0  0  0  0  0  0  0  0  0  0  0  0
   -0.5679    0.4850    0.7930 C   0  0  0  0  0  0  0  0  0  0  0  0
   -1.8332    0.8120    0.6697 C   0  0  0  0  0  0  0  0  0  0  0  0
   -2.5535    0.7478   -0.5980 C   0  0  0  0  0  0  0  0  0  0  0  0
   -3.7488    1.0504   -0.7511 O   0  0  0  0  0  0  0  0  0  0  0  0
   -1.7354    0.2953   -1.6620 O   0  0  0  0  0  0  0  0  0  0  0  0
   -0.7214   -0.6773   -1.3234 C   0  0  0  0  0  0  0  0  0  0  0  0
    3.2209    0.3477    0.3048 H   0  0  0  0  0  0  0  0  0  0  0  0
    2.6249   -0.5017    1.7957 H   0  0  0  0  0  0  0  0  0  0  0  0
    1.7573    0.9258    1.1993 H   0  0  0  0  0  0  0  0  0  0  0  0
    1.1066   -1.7021    0.5965 H   0  0  0  0  0  0  0  0  0  0  0  0
    1.9292   -1.1867   -0.8922 H   0  0  0  0  0  0  0  0  0  0  0  0
    0.5308    0.9618   -0.9130 H   0  0  0  0  0  0  0  0  0  0  0  0
   -0.1506    0.5779    1.8037 H   0  0  0  0  0  0  0  0  0  0  0  0
   -2.4000    1.1529    1.5439 H   0  0  0  0  0  0  0  0  0  0  0  0
   -0.1919   -0.9688   -2.2457 H   0  0  0  0  0  0  0  0  0  0  0  0
   -1.1691   -1.5658   -0.8468 H   0  0  0  0  0  0  0  0  0  0  0  0
  1  2  1  0
  2  3  1  0
  3  4  1  0
  4  5  2  0
  5  6  1  0
  6  7  2  0
  6  8  1  0
  8  9  1  0
  9  3  1  0
  1 10  1  0
  1 11  1  0
  1 12  1  0
  2 13  1  0
  2 14  1  0
  3 15  1  0
  4 16  1  0
  5 17  1  0
  9 18  1  0
  9 19  1  0
M  END
