
     RDKit          3D

 23 23  0  0  0  0  0  0  0  0999 V2000
   -2.5542   -1.4423    0.4562 C   0  0  0  0  0  0  0  0  0  0  0  0
   -2.1743   -0.3746   -0.5067 C   0  0  0  0  0  0  0  0  0  0  0  0
   -0.9120    0.3453   -0.2072 C   0  0  0  0  0  0  0  0  0  0  0  0
   -0.8509    1.0275    1.0256 O   0  0  0  0  0  0  0  0  0  0  0  0
   -0.4081    1.1843   -1.3989 C   0  0  0  0  0  0  0  0  0  0  0  0
    0.3579   -0.0135   -0.8842 C   0  0  0  0  0  0  0  0  0  0  0  0
    1.6888    0.2989   -0.3089 C   0  0  0  0  0  0  0  0  0  0  0  0
    1.9239   -0.2793    0.9298 O   0  0  0  0  0  0  0  0  0  0  0  0
    3.1983    0.0996    1.3376 C   0  0  0  0  0  0  0  0  0  0  0  0
   -3.1627   -1.0296    1.3054 H   0  0  0  0  0  0  0  0  0  0  0  0
   -3.2390   -2.1533   -0.0811 H   0  0  0  0  0  0  0  0  0  0  0  0
   -1.7214   -2.0310    0.8325 H   0  0  0  0  0  0  0  0  0  0  0  0
   -2.0806   -0.8047   -1.5434 H   0  0  0  0  0  0  0  0  0  0  0  0
   -2.9970    0.3858   -0.5700 H   0  0  0  0  0  0  0  0  0  0  0  0
   -1.4136    0.5332    1.6706 H   0  0  0  0  0  0  0  0  0  0  0  0
   -0.0262    2.2006   -1.1730 H   0  0  0  0  0  0  0  0  0  0  0  0
   -0.8805    1.0634   -2.3703 H   0  0  0  0  0  0  0  0  0  0  0  0
    0.3007   -0.9475   -1.5029 H   0  0  0  0  0  0  0  0  0  0  0  0
    2.4689   -0.1291   -1.0008 H   0  0  0  0  0  0  0  0  0  0  0  0
    1.8853    1.3883   -0.2958 H   0  0  0  0  0  0  0  0  0  0  0  0
    3.9347   -0.2575    0.5973 H   0  0  0  0  0  0  0  0  0  0  0  0
    3.4374   -0.2753    2.3540 H   0  0  0  0  0  0  0  0  0  0  0  0
    3.2246    1.2108    1.3343 H   0  0  0  0  0  0  0  0  0  0  0  0
  1  2  1  0
  2  3  1  0
  3  4  1  0
  3  5  1  0
  5  6  1  0
  6  7  1  0
  7  8  1  0
  8  9  1  0
  6  3  1  0
  1 10  1  0
  1 11  1  0
  1 12  1  0
  2 13  1  0
  2 14  1  0
  4 15  1  0
  5 16  1  0
  5 17  1  0
  6 18  1  0
  7 19  1  0
  7 20  1  0
  9 21  1  0
  9 22  1  0
  9 23  1  0
M  END
