
     RDKit          3D

 20 21  0  0  0  0  0  0  0  0999 V2000
   -2.3315   -0.5746    0.4382 C   0  0  0  0  0  0  0  0  0  0  0  0
   -0.8490   -0.7936    0.3723 C   0  0  0  0  0  0  0  0  0  0  0  0
   -0.1336    0.3261   -0.2881 C   0  0  0  0  0  0  0  0  0  0  0  0
   -0.1863    1.7233    0.2434 C   0  0  0  0  0  0  0  0  0  0  0  0
    1.2227    1.6953    0.3248 O   0  0  0  0  0  0  0  0  0  0  0  0
    1.3241    0.4633   -0.2710 C   0  0  0  0  0  0  0  0  0  0  0  0
    2.2389   -0.5656    0.3267 C   0  0  0  0  0  0  0  0  0  0  0  0
    0.6425    0.1380   -1.5441 C   0  0  0  0  0  0  0  0  0  0  0  0
   -2.8123   -1.4802    0.8900 H   0  0  0  0  0  0  0  0  0  0  0  0
   -2.8008   -0.4457   -0.5530 H   0  0  0  0  0  0  0  0  0  0  0  0
   -2.5453    0.2625    1.1331 H   0  0  0  0  0  0  0  0  0  0  0  0
   -0.4884   -0.9661    1.4027 H   0  0  0  0  0  0  0  0  0  0  0  0
   -0.6612   -1.7205   -0.2025 H   0  0  0  0  0  0  0  0  0  0  0  0
   -0.4451    2.4308   -0.5942 H   0  0  0  0  0  0  0  0  0  0  0  0
   -0.7091    1.8958    1.1783 H   0  0  0  0  0  0  0  0  0  0  0  0
    3.1915   -0.5295   -0.2642 H   0  0  0  0  0  0  0  0  0  0  0  0
    1.7337   -1.5531    0.2146 H   0  0  0  0  0  0  0  0  0  0  0  0
    2.4058   -0.3307    1.3889 H   0  0  0  0  0  0  0  0  0  0  0  0
    0.4671    0.9327   -2.3143 H   0  0  0  0  0  0  0  0  0  0  0  0
    0.7366   -0.9081   -1.8814 H   0  0  0  0  0  0  0  0  0  0  0  0
  1  2  1  0
  2  3  1  0
  3  4  1  0
  4  5  1  0
  5  6  1  0
  6  7  1  0
  6  8  1  0
  6  3  1  0
  8  3  1  0
  1  9  1  0
  1 10  1  0
  1 11  1  0
  2 12  1  0
  2 13  1  0
  4 14  1  0
  4 15  1  0
  7 16  1  0
  7 17  1  0
  7 18  1  0
  8 19  1  0
  8 20  1  0
M  END
