
     RDKit          3D

 18 18  0  0  0  0  0  0  0  0999 V2000
   -2.4975   -0.2522   -0.2206 C   0  0  0  0  0  0  0  0  0  0  0  0
   -1.4995    0.7452    0.3006 C   0  0  0  0  0  0  0  0  0  0  0  0
   -0.0860    0.3045    0.0509 C   0  0  0  0  0  0  0  0  0  0  0  0
    0.8275    0.9590   -0.6651 C   0  0  0  0  0  0  0  0  0  0  0  0
    2.1046    0.2055   -0.6813 C   0  0  0  0  0  0  0  0  0  0  0  0
    1.9709   -0.6964    0.5249 C   0  0  0  0  0  0  0  0  0  0  0  0
    0.5044   -0.9261    0.5678 C   0  0  0  0  0  0  0  0  0  0  0  0
   -0.1455   -1.9273    0.9500 O   0  0  0  0  0  0  0  0  0  0  0  0
   -2.8711   -0.9182    0.6117 H   0  0  0  0  0  0  0  0  0  0  0  0
   -3.3958    0.2762   -0.6184 H   0  0  0  0  0  0  0  0  0  0  0  0
   -2.0811   -0.9403   -0.9778 H   0  0  0  0  0  0  0  0  0  0  0  0
   -1.6797    1.6976   -0.2409 H   0  0  0  0  0  0  0  0  0  0  0  0
   -1.6682    0.9630    1.3735 H   0  0  0  0  0  0  0  0  0  0  0  0
    0.5881    1.9127   -1.1418 H   0  0  0  0  0  0  0  0  0  0  0  0
    2.1725   -0.4773   -1.5696 H   0  0  0  0  0  0  0  0  0  0  0  0
    2.9806    0.8776   -0.6121 H   0  0  0  0  0  0  0  0  0  0  0  0
    2.2340   -0.1634    1.4632 H   0  0  0  0  0  0  0  0  0  0  0  0
    2.5418   -1.6400    0.4171 H   0  0  0  0  0  0  0  0  0  0  0  0
  1  2  1  0
  2  3  1  0
  3  4  2  0
  4  5  1  0
  5  6  1  0
  6  7  1  0
  7  8  2  0
  7  3  1  0
  1  9  1  0
  1 10  1  0
  1 11  1  0
  2 12  1  0
  2 13  1  0
  4 14  1  0
  5 15  1  0
  5 16  1  0
  6 17  1  0
  6 18  1  0
M  END
