
     RDKit          3D

 23 23  0  0  0  0  0  0  0  0999 V2000
    3.0871    0.6417   -0.1083 C   0  0  0  0  0  0  0  0  0  0  0  0
    1.6574    1.0589    0.1203 C   0  0  0  0  0  0  0  0  0  0  0  0
    0.7500   -0.0974    0.4239 C   0  0  0  0  0  0  0  0  0  0  0  0
   -0.6232    0.4397    0.6281 C   0  0  0  0  0  0  0  0  0  0  0  0
   -1.5403   -0.3915    0.1399 C   0  0  0  0  0  0  0  0  0  0  0  0
   -3.0026   -0.1229    0.1982 C   0  0  0  0  0  0  0  0  0  0  0  0
   -3.2377    1.0939    0.8235 O   0  0  0  0  0  0  0  0  0  0  0  0
   -0.8436   -1.5747   -0.4417 C   0  0  0  0  0  0  0  0  0  0  0  0
    0.5514   -1.0160   -0.7555 C   0  0  0  0  0  0  0  0  0  0  0  0
    3.5788    0.6480    0.9031 H   0  0  0  0  0  0  0  0  0  0  0  0
    3.6328    1.4092   -0.6956 H   0  0  0  0  0  0  0  0  0  0  0  0
    3.1681   -0.3431   -0.5951 H   0  0  0  0  0  0  0  0  0  0  0  0
    1.5775    1.7694    0.9751 H   0  0  0  0  0  0  0  0  0  0  0  0
    1.2970    1.5222   -0.8214 H   0  0  0  0  0  0  0  0  0  0  0  0
    1.0550   -0.6990    1.2872 H   0  0  0  0  0  0  0  0  0  0  0  0
   -0.8110    1.4075    1.1256 H   0  0  0  0  0  0  0  0  0  0  0  0
   -3.4365   -0.1226   -0.8243 H   0  0  0  0  0  0  0  0  0  0  0  0
   -3.5054   -0.8999    0.8438 H   0  0  0  0  0  0  0  0  0  0  0  0
   -3.1210    1.8669    0.2167 H   0  0  0  0  0  0  0  0  0  0  0  0
   -0.7290   -2.3284    0.3561 H   0  0  0  0  0  0  0  0  0  0  0  0
   -1.3337   -1.9824   -1.3254 H   0  0  0  0  0  0  0  0  0  0  0  0
    0.5356   -0.4415   -1.7034 H   0  0  0  0  0  0  0  0  0  0  0  0
    1.2931   -1.8380   -0.7707 H   0  0  0  0  0  0  0  0  0  0  0  0
  1  2  1  0
  2  3  1  0
  3  4  1  0
  4  5  2  0
  5  6  1  0
  6  7  1  0
  5  8  1  0
  8  9  1  0
  9  3  1  0
  1 10  1  0
  1 11  1  0
  1 12  1  0
  2 13  1  0
  2 14  1  0
  3 15  1  0
  4 16  1  0
  6 17  1  0
  6 18  1  0
  7 19  1  0
  8 20  1  0
  8 21  1  0
  9 22  1  0
  9 23  1  0
M  END
