
     RDKit          3D

 23 24  0  0  0  0  0  0  0  0999 V2000
   -2.6789    0.5135   -0.0444 C   0  0  0  0  0  0  0  0  0  0  0  0
   -1.9092    0.3447    1.2411 C   0  0  0  0  0  0  0  0  0  0  0  0
   -0.5846   -0.3614    1.0055 C   0  0  0  0  0  0  0  0  0  0  0  0
   -0.7977   -1.6141    0.4675 O   0  0  0  0  0  0  0  0  0  0  0  0
    0.3125   -1.9423   -0.2931 C   0  0  0  0  0  0  0  0  0  0  0  0
    0.9347   -0.6548   -0.7579 C   0  0  0  0  0  0  0  0  0  0  0  0
    1.7771    0.0816    0.2123 C   0  0  0  0  0  0  0  0  0  0  0  0
    2.6829    1.1977   -0.2408 C   0  0  0  0  0  0  0  0  0  0  0  0
    0.3049    0.3932    0.0733 C   0  0  0  0  0  0  0  0  0  0  0  0
   -2.6035   -0.4079   -0.6427 H   0  0  0  0  0  0  0  0  0  0  0  0
   -3.7226    0.7743    0.2305 H   0  0  0  0  0  0  0  0  0  0  0  0
   -2.2986    1.3658   -0.6426 H   0  0  0  0  0  0  0  0  0  0  0  0
   -1.6692    1.3056    1.7339 H   0  0  0  0  0  0  0  0  0  0  0  0
   -2.5091   -0.3262    1.8966 H   0  0  0  0  0  0  0  0  0  0  0  0
   -0.0658   -0.4366    1.9830 H   0  0  0  0  0  0  0  0  0  0  0  0
   -0.0472   -2.5817   -1.1300 H   0  0  0  0  0  0  0  0  0  0  0  0
    1.0352   -2.5591    0.2832 H   0  0  0  0  0  0  0  0  0  0  0  0
    1.0200   -0.5092   -1.8435 H   0  0  0  0  0  0  0  0  0  0  0  0
    2.1146   -0.4934    1.1018 H   0  0  0  0  0  0  0  0  0  0  0  0
    3.4267    1.4304    0.5455 H   0  0  0  0  0  0  0  0  0  0  0  0
    2.1127    2.1589   -0.4011 H   0  0  0  0  0  0  0  0  0  0  0  0
    3.1868    0.9880   -1.1929 H   0  0  0  0  0  0  0  0  0  0  0  0
   -0.0216    1.3330   -0.3944 H   0  0  0  0  0  0  0  0  0  0  0  0
  1  2  1  0
  2  3  1  0
  3  4  1  0
  4  5  1  0
  5  6  1  0
  6  7  1  0
  7  8  1  0
  7  9  1  0
  9  3  1  0
  9  6  1  0
  1 10  1  0
  1 11  1  0
  1 12  1  0
  2 13  1  0
  2 14  1  0
  3 15  1  0
  5 16  1  0
  5 17  1  0
  6 18  1  0
  7 19  1  0
  8 20  1  0
  8 21  1  0
  8 22  1  0
  9 23  1  0
M  END
