
     RDKit          3D

 20 20  0  0  0  0  0  0  0  0999 V2000
   -2.1214   -0.5859   -0.5130 C   0  0  0  0  0  0  0  0  0  0  0  0
   -0.7807   -0.9536    0.0836 C   0  0  0  0  0  0  0  0  0  0  0  0
    0.1666    0.2105    0.1780 C   0  0  0  0  0  0  0  0  0  0  0  0
    1.5181   -0.0836    0.7685 C   0  0  0  0  0  0  0  0  0  0  0  0
    2.3046   -1.0766    0.0284 C   0  0  0  0  0  0  0  0  0  0  0  0
    1.8339   -1.5399   -0.9852 O   0  0  0  0  0  0  0  0  0  0  0  0
    0.1651    1.3027   -0.8313 C   0  0  0  0  0  0  0  0  0  0  0  0
   -0.3983    1.5521    0.5017 C   0  0  0  0  0  0  0  0  0  0  0  0
   -2.4010   -1.4076   -1.2365 H   0  0  0  0  0  0  0  0  0  0  0  0
   -2.9154   -0.6289    0.2689 H   0  0  0  0  0  0  0  0  0  0  0  0
   -2.1327    0.3389   -1.0859 H   0  0  0  0  0  0  0  0  0  0  0  0
   -0.9719   -1.2614    1.1578 H   0  0  0  0  0  0  0  0  0  0  0  0
   -0.3522   -1.8550   -0.3788 H   0  0  0  0  0  0  0  0  0  0  0  0
    1.3984   -0.4444    1.8301 H   0  0  0  0  0  0  0  0  0  0  0  0
    2.1480    0.8445    0.8351 H   0  0  0  0  0  0  0  0  0  0  0  0
    3.2728   -1.3903    0.3693 H   0  0  0  0  0  0  0  0  0  0  0  0
    1.1420    1.8268   -1.0527 H   0  0  0  0  0  0  0  0  0  0  0  0
   -0.4705    1.2802   -1.7342 H   0  0  0  0  0  0  0  0  0  0  0  0
    0.1066    2.1738    1.2698 H   0  0  0  0  0  0  0  0  0  0  0  0
   -1.5121    1.6975    0.5263 H   0  0  0  0  0  0  0  0  0  0  0  0
  1  2  1  0
  2  3  1  0
  3  4  1  0
  4  5  1  0
  5  6  2  0
  3  7  1  0
  7  8  1  0
  8  3  1  0
  1  9  1  0
  1 10  1  0
  1 11  1  0
  2 12  1  0
  2 13  1  0
  4 14  1  0
  4 15  1  0
  5 16  1  0
  7 17  1  0
  7 18  1  0
  8 19  1  0
  8 20  1  0
M  END
