
     RDKit          3D

 25 26  0  0  0  0  0  0  0  0999 V2000
    2.8211    0.6212   -0.1861 C   0  0  0  0  0  0  0  0  0  0  0  0
    1.8428   -0.4742   -0.5533 C   0  0  0  0  0  0  0  0  0  0  0  0
    0.6638   -0.5161    0.3832 C   0  0  0  0  0  0  0  0  0  0  0  0
   -0.2781   -1.6333   -0.0379 C   0  0  0  0  0  0  0  0  0  0  0  0
   -1.1674   -0.5576   -0.6480 C   0  0  0  0  0  0  0  0  0  0  0  0
   -2.5963   -0.8230   -0.3197 C   0  0  0  0  0  0  0  0  0  0  0  0
   -0.4311    0.4333    0.1598 C   0  0  0  0  0  0  0  0  0  0  0  0
   -0.4072    1.8486    0.0331 C   0  0  0  0  0  0  0  0  0  0  0  0
   -0.9772    1.1742    1.2918 C   0  0  0  0  0  0  0  0  0  0  0  0
    2.4882    1.2502    0.6415 H   0  0  0  0  0  0  0  0  0  0  0  0
    3.8334    0.2163    0.0634 H   0  0  0  0  0  0  0  0  0  0  0  0
    2.9832    1.2322   -1.1226 H   0  0  0  0  0  0  0  0  0  0  0  0
    2.3845   -1.4388   -0.4297 H   0  0  0  0  0  0  0  0  0  0  0  0
    1.5407   -0.4314   -1.6179 H   0  0  0  0  0  0  0  0  0  0  0  0
    1.0222   -0.5869    1.4327 H   0  0  0  0  0  0  0  0  0  0  0  0
    0.1188   -2.3191   -0.7946 H   0  0  0  0  0  0  0  0  0  0  0  0
   -0.7366   -2.1099    0.8641 H   0  0  0  0  0  0  0  0  0  0  0  0
   -1.0282   -0.5156   -1.7621 H   0  0  0  0  0  0  0  0  0  0  0  0
   -3.2743   -0.6688   -1.2020 H   0  0  0  0  0  0  0  0  0  0  0  0
   -2.7492   -1.8869    0.0161 H   0  0  0  0  0  0  0  0  0  0  0  0
   -2.9813   -0.1820    0.4771 H   0  0  0  0  0  0  0  0  0  0  0  0
   -1.2009    2.3547   -0.5716 H   0  0  0  0  0  0  0  0  0  0  0  0
    0.4861    2.4836    0.1610 H   0  0  0  0  0  0  0  0  0  0  0  0
   -0.3239    1.2326    2.2022 H   0  0  0  0  0  0  0  0  0  0  0  0
   -2.0331    1.2968    1.5193 H   0  0  0  0  0  0  0  0  0  0  0  0
  1  2  1  0
  2  3  1  0
  3  4  1  0
  4  5  1  0
  5  6  1  0
  5  7  1  0
  7  8  1  0
  8  9  1  0
  7  3  1  0
  9  7  1  0
  1 10  1  0
  1 11  1  0
  1 12  1  0
  2 13  1  0
  2 14  1  0
  3 15  1  0
  4 16  1  0
  4 17  1  0
  5 18  1  0
  6 19  1  0
  6 20  1  0
  6 21  1  0
  8 22  1  0
  8 23  1  0
  9 24  1  0
  9 25  1  0
M  END
