
     RDKit          3D

 21 22  0  0  0  0  0  0  0  0999 V2000
   -2.5840    0.3686   -0.0754 C   0  0  0  0  0  0  0  0  0  0  0  0
   -1.1994    0.5325   -0.6037 C   0  0  0  0  0  0  0  0  0  0  0  0
   -0.2274   -0.4784   -0.0996 C   0  0  0  0  0  0  0  0  0  0  0  0
   -0.0615   -0.4741    1.4040 C   0  0  0  0  0  0  0  0  0  0  0  0
    1.1653   -1.0568    1.6514 O   0  0  0  0  0  0  0  0  0  0  0  0
    1.9019   -1.0791    0.5001 C   0  0  0  0  0  0  0  0  0  0  0  0
    1.2000   -0.1776   -0.4712 C   0  0  0  0  0  0  0  0  0  0  0  0
    1.7238    1.0954   -0.7770 C   0  0  0  0  0  0  0  0  0  0  0  0
    1.5974   -0.0408   -1.7604 O   0  0  0  0  0  0  0  0  0  0  0  0
   -3.2545   -0.1340   -0.8308 H   0  0  0  0  0  0  0  0  0  0  0  0
   -3.0494    1.3663    0.0971 H   0  0  0  0  0  0  0  0  0  0  0  0
   -2.6225   -0.2615    0.8358 H   0  0  0  0  0  0  0  0  0  0  0  0
   -1.2458    0.4045   -1.7161 H   0  0  0  0  0  0  0  0  0  0  0  0
   -0.8023    1.5576   -0.4517 H   0  0  0  0  0  0  0  0  0  0  0  0
   -0.4633   -1.5140   -0.4003 H   0  0  0  0  0  0  0  0  0  0  0  0
    0.0083    0.5824    1.7887 H   0  0  0  0  0  0  0  0  0  0  0  0
   -0.8756   -1.0272    1.9185 H   0  0  0  0  0  0  0  0  0  0  0  0
    1.8795   -2.1142    0.0610 H   0  0  0  0  0  0  0  0  0  0  0  0
    2.9710   -0.8374    0.6358 H   0  0  0  0  0  0  0  0  0  0  0  0
    2.8024    1.3190   -0.5802 H   0  0  0  0  0  0  0  0  0  0  0  0
    1.1362    1.9687   -1.1259 H   0  0  0  0  0  0  0  0  0  0  0  0
  1  2  1  0
  2  3  1  0
  3  4  1  0
  4  5  1  0
  5  6  1  0
  6  7  1  0
  7  8  1  0
  8  9  1  0
  7  3  1  0
  9  7  1  0
  1 10  1  0
  1 11  1  0
  1 12  1  0
  2 13  1  0
  2 14  1  0
  3 15  1  0
  4 16  1  0
  4 17  1  0
  6 18  1  0
  6 19  1  0
  8 20  1  0
  8 21  1  0
M  END
