
     RDKit          3D

 23 24  0  0  0  0  0  0  0  0999 V2000
    2.9479   -0.3331   -0.3125 C   0  0  0  0  0  0  0  0  0  0  0  0
    1.9951    0.7493    0.0932 C   0  0  0  0  0  0  0  0  0  0  0  0
    0.5742    0.3773   -0.0997 C   0  0  0  0  0  0  0  0  0  0  0  0
   -0.2650    1.0263   -0.8787 C   0  0  0  0  0  0  0  0  0  0  0  0
   -1.7000    0.6914   -0.8120 C   0  0  0  0  0  0  0  0  0  0  0  0
   -1.9154   -0.8063   -0.8462 C   0  0  0  0  0  0  0  0  0  0  0  0
   -1.4409   -0.7896    0.6152 C   0  0  0  0  0  0  0  0  0  0  0  0
    0.0467   -0.8062    0.6292 C   0  0  0  0  0  0  0  0  0  0  0  0
   -2.0416    0.6083    0.6843 C   0  0  0  0  0  0  0  0  0  0  0  0
    3.6978    0.1111   -1.0214 H   0  0  0  0  0  0  0  0  0  0  0  0
    2.4603   -1.2037   -0.7772 H   0  0  0  0  0  0  0  0  0  0  0  0
    3.5243   -0.7265    0.5718 H   0  0  0  0  0  0  0  0  0  0  0  0
    2.1926    1.7264   -0.3905 H   0  0  0  0  0  0  0  0  0  0  0  0
    2.1241    0.9346    1.2009 H   0  0  0  0  0  0  0  0  0  0  0  0
    0.0792    1.7854   -1.5520 H   0  0  0  0  0  0  0  0  0  0  0  0
   -2.3932    1.3032   -1.3735 H   0  0  0  0  0  0  0  0  0  0  0  0
   -2.9816   -1.0524   -0.9190 H   0  0  0  0  0  0  0  0  0  0  0  0
   -1.2155   -1.3816   -1.4516 H   0  0  0  0  0  0  0  0  0  0  0  0
   -1.9318   -1.5399    1.2513 H   0  0  0  0  0  0  0  0  0  0  0  0
    0.3911   -1.7181    0.0946 H   0  0  0  0  0  0  0  0  0  0  0  0
    0.4511   -0.8394    1.6500 H   0  0  0  0  0  0  0  0  0  0  0  0
   -3.1224    0.5622    0.8076 H   0  0  0  0  0  0  0  0  0  0  0  0
   -1.4768    1.3213    1.3069 H   0  0  0  0  0  0  0  0  0  0  0  0
  1  2  1  0
  2  3  1  0
  3  4  2  0
  4  5  1  0
  5  6  1  0
  6  7  1  0
  7  8  1  0
  7  9  1  0
  8  3  1  0
  9  5  1  0
  1 10  1  0
  1 11  1  0
  1 12  1  0
  2 13  1  0
  2 14  1  0
  4 15  1  0
  5 16  1  0
  6 17  1  0
  6 18  1  0
  7 19  1  0
  8 20  1  0
  8 21  1  0
  9 22  1  0
  9 23  1  0
M  END
