
     RDKit          3D

 21 21  0  0  0  0  0  0  0  0999 V2000
   -2.2607    0.2430   -0.5739 C   0  0  0  0  0  0  0  0  0  0  0  0
   -1.2960   -0.3733    0.3673 C   0  0  0  0  0  0  0  0  0  0  0  0
    0.1405   -0.0769    0.0691 C   0  0  0  0  0  0  0  0  0  0  0  0
    0.5427   -0.5704   -1.3050 C   0  0  0  0  0  0  0  0  0  0  0  0
    0.5125    1.3652    0.1673 C   0  0  0  0  0  0  0  0  0  0  0  0
    1.9464    1.2682    0.2086 O   0  0  0  0  0  0  0  0  0  0  0  0
    2.2992    0.1088    0.8931 C   0  0  0  0  0  0  0  0  0  0  0  0
    3.4285   -0.2667    1.3038 O   0  0  0  0  0  0  0  0  0  0  0  0
    1.0594   -0.7025    1.0953 C   0  0  0  0  0  0  0  0  0  0  0  0
   -3.0484    0.7709    0.0348 H   0  0  0  0  0  0  0  0  0  0  0  0
   -2.8171   -0.5220   -1.1742 H   0  0  0  0  0  0  0  0  0  0  0  0
   -1.8334    1.0126   -1.2384 H   0  0  0  0  0  0  0  0  0  0  0  0
   -1.4188   -1.4776    0.3226 H   0  0  0  0  0  0  0  0  0  0  0  0
   -1.4691   -0.1017    1.4408 H   0  0  0  0  0  0  0  0  0  0  0  0
    1.2040    0.1426   -1.8279 H   0  0  0  0  0  0  0  0  0  0  0  0
    1.0457   -1.5707   -1.1788 H   0  0  0  0  0  0  0  0  0  0  0  0
   -0.3987   -0.7689   -1.8574 H   0  0  0  0  0  0  0  0  0  0  0  0
    0.2004    1.9767   -0.6880 H   0  0  0  0  0  0  0  0  0  0  0  0
    0.2300    1.8218    1.1465 H   0  0  0  0  0  0  0  0  0  0  0  0
    0.6987   -0.4985    2.1281 H   0  0  0  0  0  0  0  0  0  0  0  0
    1.2339   -1.7806    0.9174 H   0  0  0  0  0  0  0  0  0  0  0  0
  1  2  1  0
  2  3  1  0
  3  4  1  0
  3  5  1  0
  5  6  1  0
  6  7  1  0
  7  8  2  0
  7  9  1  0
  9  3  1  0
  1 10  1  0
  1 11  1  0
  1 12  1  0
  2 13  1  0
  2 14  1  0
  4 15  1  0
  4 16  1  0
  4 17  1  0
  5 18  1  0
  5 19  1  0
  9 20  1  0
  9 21  1  0
M  END
