
     RDKit          3D

 21 23  0  0  0  0  0  0  0  0999 V2000
    2.4508   -0.3050   -0.3548 C   0  0  0  0  0  0  0  0  0  0  0  0
    1.4156   -0.2125    0.7106 C   0  0  0  0  0  0  0  0  0  0  0  0
    0.0814    0.1763    0.3036 C   0  0  0  0  0  0  0  0  0  0  0  0
   -1.1110    0.3421    1.1390 C   0  0  0  0  0  0  0  0  0  0  0  0
   -1.4813    1.5474    0.2571 C   0  0  0  0  0  0  0  0  0  0  0  0
   -0.4193    1.0182   -0.7176 C   0  0  0  0  0  0  0  0  0  0  0  0
   -0.5163   -0.4431   -0.9760 C   0  0  0  0  0  0  0  0  0  0  0  0
   -1.6302   -1.2487   -0.3628 C   0  0  0  0  0  0  0  0  0  0  0  0
   -1.9884   -0.6949    0.8305 O   0  0  0  0  0  0  0  0  0  0  0  0
    2.2581    0.4636   -1.1198 H   0  0  0  0  0  0  0  0  0  0  0  0
    2.4241   -1.2877   -0.9024 H   0  0  0  0  0  0  0  0  0  0  0  0
    3.4849   -0.2427    0.0627 H   0  0  0  0  0  0  0  0  0  0  0  0
    1.7960    0.4695    1.5005 H   0  0  0  0  0  0  0  0  0  0  0  0
    1.3618   -1.2284    1.2052 H   0  0  0  0  0  0  0  0  0  0  0  0
   -0.9984    0.5721    2.1998 H   0  0  0  0  0  0  0  0  0  0  0  0
   -1.2509    2.5119    0.7068 H   0  0  0  0  0  0  0  0  0  0  0  0
   -2.4586    1.4886   -0.2136 H   0  0  0  0  0  0  0  0  0  0  0  0
    0.0760    1.6868   -1.4000 H   0  0  0  0  0  0  0  0  0  0  0  0
    0.1720   -0.9125   -1.6696 H   0  0  0  0  0  0  0  0  0  0  0  0
   -1.1948   -2.2666   -0.1424 H   0  0  0  0  0  0  0  0  0  0  0  0
   -2.4714   -1.4344   -1.0569 H   0  0  0  0  0  0  0  0  0  0  0  0
  1  2  1  0
  2  3  1  0
  3  4  1  0
  4  5  1  0
  5  6  1  0
  6  7  1  0
  7  8  1  0
  8  9  1  0
  6  3  1  0
  7  3  1  0
  9  4  1  0
  1 10  1  0
  1 11  1  0
  1 12  1  0
  2 13  1  0
  2 14  1  0
  4 15  1  0
  5 16  1  0
  5 17  1  0
  6 18  1  0
  7 19  1  0
  8 20  1  0
  8 21  1  0
M  END
