
     RDKit          3D

 21 21  0  0  0  0  0  0  0  0999 V2000
    2.4320    0.1085    0.4476 C   0  0  0  0  0  0  0  0  0  0  0  0
    1.5525   -0.7980   -0.3847 C   0  0  0  0  0  0  0  0  0  0  0  0
    0.1295   -0.5771    0.0578 C   0  0  0  0  0  0  0  0  0  0  0  0
   -0.7206   -1.3894   -0.6768 O   0  0  0  0  0  0  0  0  0  0  0  0
   -2.0366   -1.2553   -0.4248 C   0  0  0  0  0  0  0  0  0  0  0  0
   -2.5307   -0.0116   -0.1760 O   0  0  0  0  0  0  0  0  0  0  0  0
   -1.7234    0.8951    0.4108 C   0  0  0  0  0  0  0  0  0  0  0  0
   -0.3314    0.8409   -0.2031 C   0  0  0  0  0  0  0  0  0  0  0  0
    0.5013    1.8092    0.2823 O   0  0  0  0  0  0  0  0  0  0  0  0
    3.3373   -0.4544    0.7108 H   0  0  0  0  0  0  0  0  0  0  0  0
    2.6727    1.0564   -0.1069 H   0  0  0  0  0  0  0  0  0  0  0  0
    1.9242    0.3436    1.4133 H   0  0  0  0  0  0  0  0  0  0  0  0
    1.8677   -1.8328   -0.2387 H   0  0  0  0  0  0  0  0  0  0  0  0
    1.5900   -0.5175   -1.4704 H   0  0  0  0  0  0  0  0  0  0  0  0
   -0.0084   -0.8407    1.1275 H   0  0  0  0  0  0  0  0  0  0  0  0
   -2.6012   -1.6618   -1.3103 H   0  0  0  0  0  0  0  0  0  0  0  0
   -2.3301   -1.9294    0.4285 H   0  0  0  0  0  0  0  0  0  0  0  0
   -2.0988    1.9225    0.2215 H   0  0  0  0  0  0  0  0  0  0  0  0
   -1.5869    0.7815    1.5124 H   0  0  0  0  0  0  0  0  0  0  0  0
   -0.4961    0.9141   -1.3117 H   0  0  0  0  0  0  0  0  0  0  0  0
    0.4570    2.5961   -0.3091 H   0  0  0  0  0  0  0  0  0  0  0  0
  1  2  1  0
  2  3  1  0
  3  4  1  0
  4  5  1  0
  5  6  1  0
  6  7  1  0
  7  8  1  0
  8  9  1  0
  8  3  1  0
  1 10  1  0
  1 11  1  0
  1 12  1  0
  2 13  1  0
  2 14  1  0
  3 15  1  0
  5 16  1  0
  5 17  1  0
  7 18  1  0
  7 19  1  0
  8 20  1  0
  9 21  1  0
M  END
