
     RDKit          3D

 21 22  0  0  0  0  0  0  0  0999 V2000
    2.5325    0.2451   -0.4250 C   0  0  0  0  0  0  0  0  0  0  0  0
    1.5997   -0.9046   -0.1315 C   0  0  0  0  0  0  0  0  0  0  0  0
    0.1660   -0.5204   -0.1494 C   0  0  0  0  0  0  0  0  0  0  0  0
   -0.2145    0.5362    0.8488 C   0  0  0  0  0  0  0  0  0  0  0  0
   -1.3003    1.2957    0.0690 C   0  0  0  0  0  0  0  0  0  0  0  0
   -1.5736    0.2934   -1.0220 C   0  0  0  0  0  0  0  0  0  0  0  0
   -1.9627   -1.0037   -0.3612 C   0  0  0  0  0  0  0  0  0  0  0  0
   -0.7151   -1.5753   -0.0112 O   0  0  0  0  0  0  0  0  0  0  0  0
   -0.2418   -0.0105   -1.4064 O   0  0  0  0  0  0  0  0  0  0  0  0
    2.0166    1.2354   -0.3937 H   0  0  0  0  0  0  0  0  0  0  0  0
    3.0595    0.1096   -1.4040 H   0  0  0  0  0  0  0  0  0  0  0  0
    3.3371    0.2705    0.3383 H   0  0  0  0  0  0  0  0  0  0  0  0
    1.8234   -1.6949   -0.8592 H   0  0  0  0  0  0  0  0  0  0  0  0
    1.8449   -1.3286    0.8686 H   0  0  0  0  0  0  0  0  0  0  0  0
   -0.7183    0.0690    1.7297 H   0  0  0  0  0  0  0  0  0  0  0  0
    0.6325    1.1633    1.1019 H   0  0  0  0  0  0  0  0  0  0  0  0
   -0.8130    2.1847   -0.3711 H   0  0  0  0  0  0  0  0  0  0  0  0
   -2.1626    1.5206    0.6924 H   0  0  0  0  0  0  0  0  0  0  0  0
   -2.1947    0.6223   -1.8246 H   0  0  0  0  0  0  0  0  0  0  0  0
   -2.5362   -1.6759   -1.0171 H   0  0  0  0  0  0  0  0  0  0  0  0
   -2.5795   -0.8319    0.5431 H   0  0  0  0  0  0  0  0  0  0  0  0
  1  2  1  0
  2  3  1  0
  3  4  1  0
  4  5  1  0
  5  6  1  0
  6  7  1  0
  7  8  1  0
  6  9  1  0
  8  3  1  0
  9  3  1  0
  1 10  1  0
  1 11  1  0
  1 12  1  0
  2 13  1  0
  2 14  1  0
  4 15  1  0
  4 16  1  0
  5 17  1  0
  5 18  1  0
  6 19  1  0
  7 20  1  0
  7 21  1  0
M  END
