
     RDKit          3D

 21 22  0  0  0  0  0  0  0  0999 V2000
    2.5591    0.2662    0.4615 C   0  0  0  0  0  0  0  0  0  0  0  0
    1.3785   -0.5450    0.9960 C   0  0  0  0  0  0  0  0  0  0  0  0
    0.4332   -0.7240   -0.1763 C   0  0  0  0  0  0  0  0  0  0  0  0
   -0.0731    0.5676   -0.7488 C   0  0  0  0  0  0  0  0  0  0  0  0
   -1.1129    0.5628   -1.8387 C   0  0  0  0  0  0  0  0  0  0  0  0
   -1.8301   -0.5796   -1.2368 C   0  0  0  0  0  0  0  0  0  0  0  0
   -2.7190   -1.3159   -1.5905 O   0  0  0  0  0  0  0  0  0  0  0  0
   -1.0091   -0.4431   -0.0304 C   0  0  0  0  0  0  0  0  0  0  0  0
   -1.6113    0.0087    1.2672 C   0  0  0  0  0  0  0  0  0  0  0  0
    2.1375    1.0726   -0.1665 H   0  0  0  0  0  0  0  0  0  0  0  0
    3.1219   -0.4207   -0.1957 H   0  0  0  0  0  0  0  0  0  0  0  0
    3.1511    0.7234    1.2524 H   0  0  0  0  0  0  0  0  0  0  0  0
    1.6972   -1.5238    1.3852 H   0  0  0  0  0  0  0  0  0  0  0  0
    0.8301    0.0531    1.7517 H   0  0  0  0  0  0  0  0  0  0  0  0
    0.7235   -1.5206   -0.8767 H   0  0  0  0  0  0  0  0  0  0  0  0
    0.1181    1.5153   -0.2083 H   0  0  0  0  0  0  0  0  0  0  0  0
   -0.6817    0.4041   -2.8411 H   0  0  0  0  0  0  0  0  0  0  0  0
   -1.6702    1.5280   -1.8324 H   0  0  0  0  0  0  0  0  0  0  0  0
   -1.5092   -0.7786    2.0108 H   0  0  0  0  0  0  0  0  0  0  0  0
   -1.2213    0.9887    1.5697 H   0  0  0  0  0  0  0  0  0  0  0  0
   -2.7125    0.1609    1.0710 H   0  0  0  0  0  0  0  0  0  0  0  0
  1  2  1  0
  2  3  1  0
  3  4  1  0
  4  5  1  0
  5  6  1  0
  6  7  2  0
  6  8  1  0
  8  9  1  0
  8  3  1  0
  8  4  1  0
  1 10  1  0
  1 11  1  0
  1 12  1  0
  2 13  1  0
  2 14  1  0
  3 15  1  0
  4 16  1  0
  5 17  1  0
  5 18  1  0
  9 19  1  0
  9 20  1  0
  9 21  1  0
M  END
