
     RDKit          3D

 19 20  0  0  0  0  0  0  0  0999 V2000
    2.2335    0.5186    0.0291 C   0  0  0  0  0  0  0  0  0  0  0  0
    1.2143   -0.5521   -0.0168 C   0  0  0  0  0  0  0  0  0  0  0  0
   -0.1521   -0.1171   -0.4113 C   0  0  0  0  0  0  0  0  0  0  0  0
   -1.2149   -1.1772   -0.4691 C   0  0  0  0  0  0  0  0  0  0  0  0
   -1.8897   -0.4736    0.7126 C   0  0  0  0  0  0  0  0  0  0  0  0
   -0.9568    0.6989    0.6071 C   0  0  0  0  0  0  0  0  0  0  0  0
   -0.5460    1.2473   -0.7080 C   0  0  0  0  0  0  0  0  0  0  0  0
    1.8757    1.5291    0.2003 H   0  0  0  0  0  0  0  0  0  0  0  0
    3.0170    0.3231    0.8191 H   0  0  0  0  0  0  0  0  0  0  0  0
    2.8085    0.5082   -0.9349 H   0  0  0  0  0  0  0  0  0  0  0  0
    1.5102   -1.3917   -0.6979 H   0  0  0  0  0  0  0  0  0  0  0  0
    1.1519   -1.0181    1.0051 H   0  0  0  0  0  0  0  0  0  0  0  0
   -1.8351   -1.0222   -1.3886 H   0  0  0  0  0  0  0  0  0  0  0  0
   -0.8999   -2.2036   -0.2806 H   0  0  0  0  0  0  0  0  0  0  0  0
   -2.9531   -0.2838    0.5520 H   0  0  0  0  0  0  0  0  0  0  0  0
   -1.7105   -1.1031    1.6253 H   0  0  0  0  0  0  0  0  0  0  0  0
   -0.4113    1.0522    1.5133 H   0  0  0  0  0  0  0  0  0  0  0  0
    0.1325    2.0944   -0.6933 H   0  0  0  0  0  0  0  0  0  0  0  0
   -1.3743    1.3709   -1.4634 H   0  0  0  0  0  0  0  0  0  0  0  0
  1  2  1  0
  2  3  1  0
  3  4  1  0
  4  5  1  0
  5  6  1  0
  6  7  1  0
  6  3  1  0
  7  3  1  0
  1  8  1  0
  1  9  1  0
  1 10  1  0
  2 11  1  0
  2 12  1  0
  4 13  1  0
  4 14  1  0
  5 15  1  0
  5 16  1  0
  6 17  1  0
  7 18  1  0
  7 19  1  0
M  END
