
     RDKit          3D

 25 25  0  0  0  0  0  0  0  0999 V2000
   -2.3918    0.4607    0.9894 C   0  0  0  0  0  0  0  0  0  0  0  0
   -1.7502   -0.5029    0.0382 C   0  0  0  0  0  0  0  0  0  0  0  0
   -0.2837   -0.2865   -0.1554 C   0  0  0  0  0  0  0  0  0  0  0  0
    0.2350   -1.3178   -1.1313 C   0  0  0  0  0  0  0  0  0  0  0  0
   -0.0017    1.1030   -0.6096 C   0  0  0  0  0  0  0  0  0  0  0  0
    1.4305    1.4301   -0.6659 C   0  0  0  0  0  0  0  0  0  0  0  0
    2.2954    0.7937    0.0918 C   0  0  0  0  0  0  0  0  0  0  0  0
    1.9104   -0.2655    1.0290 C   0  0  0  0  0  0  0  0  0  0  0  0
    0.4468   -0.5191    1.1555 C   0  0  0  0  0  0  0  0  0  0  0  0
   -2.4225    1.5051    0.6150 H   0  0  0  0  0  0  0  0  0  0  0  0
   -1.9788    0.4255    1.9962 H   0  0  0  0  0  0  0  0  0  0  0  0
   -3.4680    0.1301    1.0872 H   0  0  0  0  0  0  0  0  0  0  0  0
   -1.9932   -1.5278    0.3960 H   0  0  0  0  0  0  0  0  0  0  0  0
   -2.2900   -0.4024   -0.9374 H   0  0  0  0  0  0  0  0  0  0  0  0
    1.1389   -0.9580   -1.6615 H   0  0  0  0  0  0  0  0  0  0  0  0
    0.4314   -2.2539   -0.5580 H   0  0  0  0  0  0  0  0  0  0  0  0
   -0.5650   -1.5247   -1.8881 H   0  0  0  0  0  0  0  0  0  0  0  0
   -0.4684    1.8085    0.1193 H   0  0  0  0  0  0  0  0  0  0  0  0
   -0.4831    1.3007   -1.5912 H   0  0  0  0  0  0  0  0  0  0  0  0
    1.7835    2.1960   -1.3304 H   0  0  0  0  0  0  0  0  0  0  0  0
    3.3762    1.0408    0.0494 H   0  0  0  0  0  0  0  0  0  0  0  0
    2.3866   -1.2186    0.6653 H   0  0  0  0  0  0  0  0  0  0  0  0
    2.3019    0.0133    2.0345 H   0  0  0  0  0  0  0  0  0  0  0  0
    0.0401    0.1540    1.9381 H   0  0  0  0  0  0  0  0  0  0  0  0
    0.3198   -1.5843    1.5006 H   0  0  0  0  0  0  0  0  0  0  0  0
  1  2  1  0
  2  3  1  0
  3  4  1  0
  3  5  1  0
  5  6  1  0
  6  7  2  0
  7  8  1  0
  8  9  1  0
  9  3  1  0
  1 10  1  0
  1 11  1  0
  1 12  1  0
  2 13  1  0
  2 14  1  0
  4 15  1  0
  4 16  1  0
  4 17  1  0
  5 18  1  0
  5 19  1  0
  6 20  1  0
  7 21  1  0
  8 22  1  0
  8 23  1  0
  9 24  1  0
  9 25  1  0
M  END
