
     RDKit          3D

 25 25  0  0  0  0  0  0  0  0999 V2000
    3.0859    0.4727   -0.2608 C   0  0  0  0  0  0  0  0  0  0  0  0
    1.8434    0.7412    0.5623 C   0  0  0  0  0  0  0  0  0  0  0  0
    0.9436   -0.4486    0.4474 C   0  0  0  0  0  0  0  0  0  0  0  0
   -0.3535   -0.3799    1.1980 C   0  0  0  0  0  0  0  0  0  0  0  0
   -1.0795   -0.3573   -0.1273 C   0  0  0  0  0  0  0  0  0  0  0  0
   -1.9822   -1.5186   -0.3938 C   0  0  0  0  0  0  0  0  0  0  0  0
   -1.7669    0.9737   -0.3653 C   0  0  0  0  0  0  0  0  0  0  0  0
   -2.6882    1.1689    0.6703 O   0  0  0  0  0  0  0  0  0  0  0  0
    0.2314   -0.5099   -0.8714 C   0  0  0  0  0  0  0  0  0  0  0  0
    3.1662   -0.6046   -0.4963 H   0  0  0  0  0  0  0  0  0  0  0  0
    4.0237    0.7227    0.3109 H   0  0  0  0  0  0  0  0  0  0  0  0
    3.0917    1.1165   -1.1764 H   0  0  0  0  0  0  0  0  0  0  0  0
    1.3054    1.6480    0.1977 H   0  0  0  0  0  0  0  0  0  0  0  0
    2.1920    0.9027    1.6132 H   0  0  0  0  0  0  0  0  0  0  0  0
    1.4907   -1.3805    0.7037 H   0  0  0  0  0  0  0  0  0  0  0  0
   -0.5119    0.5352    1.8026 H   0  0  0  0  0  0  0  0  0  0  0  0
   -0.6331   -1.2880    1.7679 H   0  0  0  0  0  0  0  0  0  0  0  0
   -1.4267   -2.4304   -0.7390 H   0  0  0  0  0  0  0  0  0  0  0  0
   -2.6381   -1.2387   -1.2581 H   0  0  0  0  0  0  0  0  0  0  0  0
   -2.5987   -1.7808    0.4840 H   0  0  0  0  0  0  0  0  0  0  0  0
   -1.0313    1.8087   -0.4072 H   0  0  0  0  0  0  0  0  0  0  0  0
   -2.3276    0.9274   -1.3299 H   0  0  0  0  0  0  0  0  0  0  0  0
   -3.0646    2.0995    0.6120 H   0  0  0  0  0  0  0  0  0  0  0  0
    0.3803    0.3217   -1.5537 H   0  0  0  0  0  0  0  0  0  0  0  0
    0.3478   -1.5014   -1.3910 H   0  0  0  0  0  0  0  0  0  0  0  0
  1  2  1  0
  2  3  1  0
  3  4  1  0
  4  5  1  0
  5  6  1  0
  5  7  1  0
  7  8  1  0
  5  9  1  0
  9  3  1  0
  1 10  1  0
  1 11  1  0
  1 12  1  0
  2 13  1  0
  2 14  1  0
  3 15  1  0
  4 16  1  0
  4 17  1  0
  6 18  1  0
  6 19  1  0
  6 20  1  0
  7 21  1  0
  7 22  1  0
  8 23  1  0
  9 24  1  0
  9 25  1  0
M  END
