
     RDKit          3D

 22 22  0  0  0  0  0  0  0  0999 V2000
    2.4828   -1.1779    0.2160 C   0  0  0  0  0  0  0  0  0  0  0  0
    1.3573   -0.7941   -0.7281 C   0  0  0  0  0  0  0  0  0  0  0  0
    0.8305    0.5369   -0.2852 C   0  0  0  0  0  0  0  0  0  0  0  0
    0.3300    0.4124    1.1098 O   0  0  0  0  0  0  0  0  0  0  0  0
   -0.4959    0.8625    0.0746 C   0  0  0  0  0  0  0  0  0  0  0  0
   -0.8199    2.3534    0.2173 C   0  0  0  0  0  0  0  0  0  0  0  0
   -1.7220    0.0527   -0.2422 C   0  0  0  0  0  0  0  0  0  0  0  0
   -1.7151   -1.3256    0.3163 C   0  0  0  0  0  0  0  0  0  0  0  0
    2.0328   -1.4895    1.1897 H   0  0  0  0  0  0  0  0  0  0  0  0
    3.0234   -0.2161    0.4303 H   0  0  0  0  0  0  0  0  0  0  0  0
    3.1532   -1.9416   -0.2038 H   0  0  0  0  0  0  0  0  0  0  0  0
    0.6131   -1.5718   -0.8667 H   0  0  0  0  0  0  0  0  0  0  0  0
    1.8543   -0.6528   -1.7330 H   0  0  0  0  0  0  0  0  0  0  0  0
    1.5949    1.3525   -0.3801 H   0  0  0  0  0  0  0  0  0  0  0  0
    0.0000    2.8752    0.7324 H   0  0  0  0  0  0  0  0  0  0  0  0
   -1.7495    2.4912    0.8280 H   0  0  0  0  0  0  0  0  0  0  0  0
   -1.0042    2.7928   -0.7813 H   0  0  0  0  0  0  0  0  0  0  0  0
   -1.8479    0.0614   -1.3651 H   0  0  0  0  0  0  0  0  0  0  0  0
   -2.6505    0.5547    0.1356 H   0  0  0  0  0  0  0  0  0  0  0  0
   -0.8899   -1.5530    1.0024 H   0  0  0  0  0  0  0  0  0  0  0  0
   -2.6617   -1.5766    0.8770 H   0  0  0  0  0  0  0  0  0  0  0  0
   -1.7158   -2.0467   -0.5441 H   0  0  0  0  0  0  0  0  0  0  0  0
  1  2  1  0
  2  3  1  0
  3  4  1  0
  4  5  1  0
  5  6  1  0
  5  7  1  0
  7  8  1  0
  5  3  1  0
  1  9  1  0
  1 10  1  0
  1 11  1  0
  2 12  1  0
  2 13  1  0
  3 14  1  0
  6 15  1  0
  6 16  1  0
  6 17  1  0
  7 18  1  0
  7 19  1  0
  8 20  1  0
  8 21  1  0
  8 22  1  0
M  END
