
     RDKit          3D

 21 22  0  0  0  0  0  0  0  0999 V2000
   -2.0593    0.8679   -0.0000 C   0  0  0  0  0  0  0  0  0  0  0  0
   -1.4915   -0.0174    1.0362 C   0  0  0  0  0  0  0  0  0  0  0  0
   -0.2313   -0.7122    0.7753 C   0  0  0  0  0  0  0  0  0  0  0  0
   -0.1340   -1.6453   -0.3790 C   0  0  0  0  0  0  0  0  0  0  0  0
    1.3418   -1.4917   -0.2856 C   0  0  0  0  0  0  0  0  0  0  0  0
    0.7316   -0.1207   -0.1641 C   0  0  0  0  0  0  0  0  0  0  0  0
    1.4358    1.0672   -0.0660 C   0  0  0  0  0  0  0  0  0  0  0  0
    2.3354    1.2365   -1.1380 O   0  0  0  0  0  0  0  0  0  0  0  0
   -0.1097   -0.5253   -1.1928 O   0  0  0  0  0  0  0  0  0  0  0  0
   -2.6130    1.7050    0.5236 H   0  0  0  0  0  0  0  0  0  0  0  0
   -2.8820    0.3754   -0.5958 H   0  0  0  0  0  0  0  0  0  0  0  0
   -1.3364    1.3668   -0.6414 H   0  0  0  0  0  0  0  0  0  0  0  0
   -2.2681   -0.7882    1.3278 H   0  0  0  0  0  0  0  0  0  0  0  0
   -1.3621    0.5866    1.9825 H   0  0  0  0  0  0  0  0  0  0  0  0
    0.2022   -1.2159    1.6894 H   0  0  0  0  0  0  0  0  0  0  0  0
   -0.6607   -2.4945   -0.5360 H   0  0  0  0  0  0  0  0  0  0  0  0
    1.7992   -1.7996    0.6688 H   0  0  0  0  0  0  0  0  0  0  0  0
    1.9313   -1.6808   -1.1932 H   0  0  0  0  0  0  0  0  0  0  0  0
    2.1060    1.1144    0.8437 H   0  0  0  0  0  0  0  0  0  0  0  0
    0.8424    1.9928   -0.0108 H   0  0  0  0  0  0  0  0  0  0  0  0
    2.4224    2.1791   -1.4039 H   0  0  0  0  0  0  0  0  0  0  0  0
  1  2  1  0
  2  3  1  0
  3  4  1  0
  4  5  1  0
  5  6  1  0
  6  7  1  0
  7  8  1  0
  6  9  1  0
  6  3  1  0
  9  4  1  0
  1 10  1  0
  1 11  1  0
  1 12  1  0
  2 13  1  0
  2 14  1  0
  3 15  1  0
  4 16  1  0
  5 17  1  0
  5 18  1  0
  7 19  1  0
  7 20  1  0
  8 21  1  0
M  END
