
     RDKit          3D

 23 25  0  0  0  0  0  0  0  0999 V2000
    2.7950   -0.2964    0.0210 C   0  0  0  0  0  0  0  0  0  0  0  0
    1.7915    0.8024    0.2423 C   0  0  0  0  0  0  0  0  0  0  0  0
    0.4909    0.5595   -0.4984 C   0  0  0  0  0  0  0  0  0  0  0  0
   -0.1164   -0.7478   -0.0077 C   0  0  0  0  0  0  0  0  0  0  0  0
   -1.2547   -1.1415   -0.8961 C   0  0  0  0  0  0  0  0  0  0  0  0
   -2.4964   -0.4646   -0.4058 C   0  0  0  0  0  0  0  0  0  0  0  0
   -1.9337    0.6533    0.4625 C   0  0  0  0  0  0  0  0  0  0  0  0
   -0.6429    1.2816    0.1328 C   0  0  0  0  0  0  0  0  0  0  0  0
   -0.7768    0.0508    1.0721 C   0  0  0  0  0  0  0  0  0  0  0  0
    2.4484   -1.0812   -0.6697 H   0  0  0  0  0  0  0  0  0  0  0  0
    3.0841   -0.8044    0.9647 H   0  0  0  0  0  0  0  0  0  0  0  0
    3.7385    0.2041   -0.3397 H   0  0  0  0  0  0  0  0  0  0  0  0
    1.5463    0.8155    1.3307 H   0  0  0  0  0  0  0  0  0  0  0  0
    2.2065    1.8173    0.0262 H   0  0  0  0  0  0  0  0  0  0  0  0
    0.5674    0.5723   -1.5963 H   0  0  0  0  0  0  0  0  0  0  0  0
    0.5861   -1.5217    0.2866 H   0  0  0  0  0  0  0  0  0  0  0  0
   -1.3496   -2.2373   -0.9909 H   0  0  0  0  0  0  0  0  0  0  0  0
   -1.0799   -0.7703   -1.9481 H   0  0  0  0  0  0  0  0  0  0  0  0
   -3.1727   -0.1115   -1.1772 H   0  0  0  0  0  0  0  0  0  0  0  0
   -2.9870   -1.1749    0.3168 H   0  0  0  0  0  0  0  0  0  0  0  0
   -2.6479    1.2490    1.0281 H   0  0  0  0  0  0  0  0  0  0  0  0
   -0.4120    2.2427    0.5848 H   0  0  0  0  0  0  0  0  0  0  0  0
   -0.3846    0.1631    2.0615 H   0  0  0  0  0  0  0  0  0  0  0  0
  1  2  1  0
  2  3  1  0
  3  4  1  0
  4  5  1  0
  5  6  1  0
  6  7  1  0
  7  8  1  0
  8  9  1  0
  8  3  1  0
  9  4  1  0
  9  7  1  0
  1 10  1  0
  1 11  1  0
  1 12  1  0
  2 13  1  0
  2 14  1  0
  3 15  1  0
  4 16  1  0
  5 17  1  0
  5 18  1  0
  6 19  1  0
  6 20  1  0
  7 21  1  0
  8 22  1  0
  9 23  1  0
M  END
