
     RDKit          3D

 23 24  0  0  0  0  0  0  0  0999 V2000
    2.8787   -0.0856    0.4045 C   0  0  0  0  0  0  0  0  0  0  0  0
    1.5556    0.6458    0.2142 C   0  0  0  0  0  0  0  0  0  0  0  0
    0.5111   -0.3731   -0.1597 C   0  0  0  0  0  0  0  0  0  0  0  0
    0.3460   -1.3319    0.7958 O   0  0  0  0  0  0  0  0  0  0  0  0
   -0.9628   -1.4314    1.1490 C   0  0  0  0  0  0  0  0  0  0  0  0
   -1.7898   -0.5645    0.2581 C   0  0  0  0  0  0  0  0  0  0  0  0
   -1.7636   -0.6834   -1.2085 C   0  0  0  0  0  0  0  0  0  0  0  0
   -0.8076    0.2188   -0.5110 C   0  0  0  0  0  0  0  0  0  0  0  0
   -1.0219    1.7046   -0.5271 C   0  0  0  0  0  0  0  0  0  0  0  0
    2.7881   -0.9484    1.0679 H   0  0  0  0  0  0  0  0  0  0  0  0
    3.6088    0.6816    0.7515 H   0  0  0  0  0  0  0  0  0  0  0  0
    3.2020   -0.3749   -0.6390 H   0  0  0  0  0  0  0  0  0  0  0  0
    1.2573    1.2074    1.1135 H   0  0  0  0  0  0  0  0  0  0  0  0
    1.7097    1.3381   -0.6343 H   0  0  0  0  0  0  0  0  0  0  0  0
    0.9032   -0.8900   -1.0849 H   0  0  0  0  0  0  0  0  0  0  0  0
   -1.0666   -1.0159    2.1943 H   0  0  0  0  0  0  0  0  0  0  0  0
   -1.3365   -2.4742    1.2162 H   0  0  0  0  0  0  0  0  0  0  0  0
   -2.6949   -0.0735    0.6921 H   0  0  0  0  0  0  0  0  0  0  0  0
   -2.5468   -0.2001   -1.7882 H   0  0  0  0  0  0  0  0  0  0  0  0
   -1.3681   -1.6199   -1.6506 H   0  0  0  0  0  0  0  0  0  0  0  0
   -0.8029    2.1139   -1.5499 H   0  0  0  0  0  0  0  0  0  0  0  0
   -2.1147    1.9363   -0.3718 H   0  0  0  0  0  0  0  0  0  0  0  0
   -0.4841    2.2203    0.2680 H   0  0  0  0  0  0  0  0  0  0  0  0
  1  2  1  0
  2  3  1  0
  3  4  1  0
  4  5  1  0
  5  6  1  0
  6  7  1  0
  7  8  1  0
  8  9  1  0
  8  3  1  0
  8  6  1  0
  1 10  1  0
  1 11  1  0
  1 12  1  0
  2 13  1  0
  2 14  1  0
  3 15  1  0
  5 16  1  0
  5 17  1  0
  6 18  1  0
  7 19  1  0
  7 20  1  0
  9 21  1  0
  9 22  1  0
  9 23  1  0
M  END
