
     RDKit          3D

 19 21  0  0  0  0  0  0  0  0999 V2000
    2.2773   -0.5852   -0.0576 C   0  0  0  0  0  0  0  0  0  0  0  0
    1.0252   -0.0845   -0.7870 C   0  0  0  0  0  0  0  0  0  0  0  0
    0.2073    0.6996    0.2021 C   0  0  0  0  0  0  0  0  0  0  0  0
    0.8827    1.8032    0.7328 O   0  0  0  0  0  0  0  0  0  0  0  0
   -0.7065   -0.0807    1.0422 C   0  0  0  0  0  0  0  0  0  0  0  0
   -1.5478   -1.1164    0.3034 C   0  0  0  0  0  0  0  0  0  0  0  0
   -2.9336   -0.8579    0.4839 O   0  0  0  0  0  0  0  0  0  0  0  0
   -2.0794   -0.2025   -0.5418 C   0  0  0  0  0  0  0  0  0  0  0  0
   -1.2473    0.9250   -0.0297 C   0  0  0  0  0  0  0  0  0  0  0  0
    3.1200    0.0497   -0.4592 H   0  0  0  0  0  0  0  0  0  0  0  0
    2.5076   -1.6308   -0.3105 H   0  0  0  0  0  0  0  0  0  0  0  0
    2.1886   -0.4350    1.0342 H   0  0  0  0  0  0  0  0  0  0  0  0
    1.2797    0.4617   -1.6974 H   0  0  0  0  0  0  0  0  0  0  0  0
    0.4666   -1.0045   -1.0981 H   0  0  0  0  0  0  0  0  0  0  0  0
    1.0884    2.4204   -0.0231 H   0  0  0  0  0  0  0  0  0  0  0  0
   -0.9511    0.1573    2.0817 H   0  0  0  0  0  0  0  0  0  0  0  0
   -1.2194   -2.1514    0.2527 H   0  0  0  0  0  0  0  0  0  0  0  0
   -2.6099   -0.1808   -1.4784 H   0  0  0  0  0  0  0  0  0  0  0  0
   -1.7484    1.8127    0.3497 H   0  0  0  0  0  0  0  0  0  0  0  0
  1  2  1  0
  2  3  1  0
  3  4  1  0
  3  5  1  0
  5  6  1  0
  6  7  1  0
  7  8  1  0
  8  9  1  0
  9  3  1  0
  9  5  1  0
  8  6  1  0
  1 10  1  0
  1 11  1  0
  1 12  1  0
  2 13  1  0
  2 14  1  0
  4 15  1  0
  5 16  1  0
  6 17  1  0
  8 18  1  0
  9 19  1  0
M  END
