
     RDKit          3D

 23 24  0  0  0  0  0  0  0  0999 V2000
   -2.0433   -1.4663    0.8690 C   0  0  0  0  0  0  0  0  0  0  0  0
   -1.7106   -0.3370   -0.0380 C   0  0  0  0  0  0  0  0  0  0  0  0
   -0.5520    0.4925    0.3783 C   0  0  0  0  0  0  0  0  0  0  0  0
   -0.2949    1.6259   -0.6226 C   0  0  0  0  0  0  0  0  0  0  0  0
    0.6246    2.6940   -0.5124 C   0  0  0  0  0  0  0  0  0  0  0  0
    1.0991    1.5305    0.1376 C   0  0  0  0  0  0  0  0  0  0  0  0
    0.8101    0.0613   -0.2119 C   0  0  0  0  0  0  0  0  0  0  0  0
    1.5096   -0.8183    0.5793 O   0  0  0  0  0  0  0  0  0  0  0  0
    2.1017   -1.8143   -0.1625 C   0  0  0  0  0  0  0  0  0  0  0  0
   -2.1108   -1.1084    1.9190 H   0  0  0  0  0  0  0  0  0  0  0  0
   -1.3979   -2.3437    0.7875 H   0  0  0  0  0  0  0  0  0  0  0  0
   -3.0851   -1.8128    0.6160 H   0  0  0  0  0  0  0  0  0  0  0  0
   -2.6135    0.3417   -0.0681 H   0  0  0  0  0  0  0  0  0  0  0  0
   -1.5736   -0.7123   -1.0661 H   0  0  0  0  0  0  0  0  0  0  0  0
   -0.4719    0.7823    1.4207 H   0  0  0  0  0  0  0  0  0  0  0  0
   -0.2870    1.1139   -1.6397 H   0  0  0  0  0  0  0  0  0  0  0  0
    1.2129    3.0577   -1.4076 H   0  0  0  0  0  0  0  0  0  0  0  0
    0.2869    3.6028    0.0712 H   0  0  0  0  0  0  0  0  0  0  0  0
    1.0007    1.5712    1.2716 H   0  0  0  0  0  0  0  0  0  0  0  0
    0.8004   -0.1153   -1.2832 H   0  0  0  0  0  0  0  0  0  0  0  0
    2.6440   -2.4810    0.5357 H   0  0  0  0  0  0  0  0  0  0  0  0
    1.2705   -2.4138   -0.6265 H   0  0  0  0  0  0  0  0  0  0  0  0
    2.7800   -1.4504   -0.9474 H   0  0  0  0  0  0  0  0  0  0  0  0
  1  2  1  0
  2  3  1  0
  3  4  1  0
  4  5  1  0
  5  6  1  0
  6  7  1  0
  7  8  1  0
  8  9  1  0
  7  3  1  0
  6  4  1  0
  1 10  1  0
  1 11  1  0
  1 12  1  0
  2 13  1  0
  2 14  1  0
  3 15  1  0
  4 16  1  0
  5 17  1  0
  5 18  1  0
  6 19  1  0
  7 20  1  0
  9 21  1  0
  9 22  1  0
  9 23  1  0
M  END
