
     RDKit          3D

 23 23  0  0  0  0  0  0  0  0999 V2000
    1.6763    1.5267   -0.3582 C   0  0  0  0  0  0  0  0  0  0  0  0
    1.5156    0.0700   -0.0883 C   0  0  0  0  0  0  0  0  0  0  0  0
    0.0975   -0.3788    0.0926 C   0  0  0  0  0  0  0  0  0  0  0  0
    0.1400   -1.8870    0.3572 C   0  0  0  0  0  0  0  0  0  0  0  0
   -1.1614   -2.3543    0.5330 O   0  0  0  0  0  0  0  0  0  0  0  0
   -0.7704   -0.1154   -1.0894 C   0  0  0  0  0  0  0  0  0  0  0  0
   -1.5944    1.0594   -0.7239 C   0  0  0  0  0  0  0  0  0  0  0  0
   -1.5149    1.3101    0.5696 C   0  0  0  0  0  0  0  0  0  0  0  0
   -0.6207    0.3189    1.2084 C   0  0  0  0  0  0  0  0  0  0  0  0
    2.3639    2.0374    0.3558 H   0  0  0  0  0  0  0  0  0  0  0  0
    2.1194    1.7068   -1.3762 H   0  0  0  0  0  0  0  0  0  0  0  0
    0.7336    2.0986   -0.3431 H   0  0  0  0  0  0  0  0  0  0  0  0
    1.9419   -0.5171   -0.9279 H   0  0  0  0  0  0  0  0  0  0  0  0
    2.0879   -0.2212    0.8179 H   0  0  0  0  0  0  0  0  0  0  0  0
    0.6027   -2.4144   -0.4969 H   0  0  0  0  0  0  0  0  0  0  0  0
    0.7375   -2.0937    1.2659 H   0  0  0  0  0  0  0  0  0  0  0  0
   -1.2483   -3.2479    0.1349 H   0  0  0  0  0  0  0  0  0  0  0  0
   -0.1902    0.0315   -2.0180 H   0  0  0  0  0  0  0  0  0  0  0  0
   -1.4857   -0.9778   -1.1838 H   0  0  0  0  0  0  0  0  0  0  0  0
   -2.1798    1.6299   -1.4282 H   0  0  0  0  0  0  0  0  0  0  0  0
   -2.0211    2.1085    1.0739 H   0  0  0  0  0  0  0  0  0  0  0  0
   -1.2984   -0.4529    1.6769 H   0  0  0  0  0  0  0  0  0  0  0  0
    0.0689    0.7628    1.9478 H   0  0  0  0  0  0  0  0  0  0  0  0
  1  2  1  0
  2  3  1  0
  3  4  1  0
  4  5  1  0
  3  6  1  0
  6  7  1  0
  7  8  2  0
  8  9  1  0
  9  3  1  0
  1 10  1  0
  1 11  1  0
  1 12  1  0
  2 13  1  0
  2 14  1  0
  4 15  1  0
  4 16  1  0
  5 17  1  0
  6 18  1  0
  6 19  1  0
  7 20  1  0
  8 21  1  0
  9 22  1  0
  9 23  1  0
M  END
