
     RDKit          3D

 23 23  0  0  0  0  0  0  0  0999 V2000
   -2.5003    1.3716    0.4841 C   0  0  0  0  0  0  0  0  0  0  0  0
   -1.2431    0.5925    0.8355 C   0  0  0  0  0  0  0  0  0  0  0  0
   -0.9139   -0.3565   -0.2824 C   0  0  0  0  0  0  0  0  0  0  0  0
   -1.9800   -1.3870   -0.6077 C   0  0  0  0  0  0  0  0  0  0  0  0
   -0.2681    0.3065   -1.3545 O   0  0  0  0  0  0  0  0  0  0  0  0
    0.4401   -0.6742   -0.7182 C   0  0  0  0  0  0  0  0  0  0  0  0
    1.5859   -0.3915    0.1846 C   0  0  0  0  0  0  0  0  0  0  0  0
    2.6313    0.2847   -0.4276 O   0  0  0  0  0  0  0  0  0  0  0  0
    3.6257    0.4797    0.5287 C   0  0  0  0  0  0  0  0  0  0  0  0
   -3.3255    1.1730    1.2058 H   0  0  0  0  0  0  0  0  0  0  0  0
   -2.8124    1.1202   -0.5417 H   0  0  0  0  0  0  0  0  0  0  0  0
   -2.2446    2.4526    0.5103 H   0  0  0  0  0  0  0  0  0  0  0  0
   -0.4006    1.2821    1.0694 H   0  0  0  0  0  0  0  0  0  0  0  0
   -1.4564    0.0312    1.7681 H   0  0  0  0  0  0  0  0  0  0  0  0
   -2.9296   -1.0928   -0.1190 H   0  0  0  0  0  0  0  0  0  0  0  0
   -2.0971   -1.5541   -1.6878 H   0  0  0  0  0  0  0  0  0  0  0  0
   -1.6463   -2.3418   -0.1063 H   0  0  0  0  0  0  0  0  0  0  0  0
    0.5771   -1.5868   -1.3375 H   0  0  0  0  0  0  0  0  0  0  0  0
    2.0463   -1.3605    0.5446 H   0  0  0  0  0  0  0  0  0  0  0  0
    1.2263    0.0976    1.1013 H   0  0  0  0  0  0  0  0  0  0  0  0
    3.1672    1.0814    1.3445 H   0  0  0  0  0  0  0  0  0  0  0  0
    3.9939   -0.4960    0.9529 H   0  0  0  0  0  0  0  0  0  0  0  0
    4.5242    0.9682    0.1077 H   0  0  0  0  0  0  0  0  0  0  0  0
  1  2  1  0
  2  3  1  0
  3  4  1  0
  3  5  1  0
  5  6  1  0
  6  7  1  0
  7  8  1  0
  8  9  1  0
  6  3  1  0
  1 10  1  0
  1 11  1  0
  1 12  1  0
  2 13  1  0
  2 14  1  0
  4 15  1  0
  4 16  1  0
  4 17  1  0
  6 18  1  0
  7 19  1  0
  7 20  1  0
  9 21  1  0
  9 22  1  0
  9 23  1  0
M  END
