
     RDKit          3D

 23 23  0  0  0  0  0  0  0  0999 V2000
    3.0359   -0.9424    0.3653 C   0  0  0  0  0  0  0  0  0  0  0  0
    2.2056    0.2944    0.0808 C   0  0  0  0  0  0  0  0  0  0  0  0
    0.7589   -0.0287    0.3637 C   0  0  0  0  0  0  0  0  0  0  0  0
   -0.2165    1.0776    0.1389 C   0  0  0  0  0  0  0  0  0  0  0  0
   -1.0612   -0.1013   -0.2808 C   0  0  0  0  0  0  0  0  0  0  0  0
   -1.8762   -0.7352    0.7999 C   0  0  0  0  0  0  0  0  0  0  0  0
   -1.9358    0.2745   -1.4626 C   0  0  0  0  0  0  0  0  0  0  0  0
   -3.0610    0.9203   -0.9278 O   0  0  0  0  0  0  0  0  0  0  0  0
    0.1190   -0.7611   -0.6178 O   0  0  0  0  0  0  0  0  0  0  0  0
    3.8318   -1.0820   -0.3929 H   0  0  0  0  0  0  0  0  0  0  0  0
    2.3743   -1.8291    0.3198 H   0  0  0  0  0  0  0  0  0  0  0  0
    3.4600   -0.8595    1.3961 H   0  0  0  0  0  0  0  0  0  0  0  0
    2.5971    1.1080    0.6897 H   0  0  0  0  0  0  0  0  0  0  0  0
    2.3764    0.5681   -0.9819 H   0  0  0  0  0  0  0  0  0  0  0  0
    0.6312   -0.4587    1.3779 H   0  0  0  0  0  0  0  0  0  0  0  0
   -0.5409    1.6251    1.0258 H   0  0  0  0  0  0  0  0  0  0  0  0
    0.0712    1.6808   -0.7438 H   0  0  0  0  0  0  0  0  0  0  0  0
   -1.2781   -1.3461    1.5029 H   0  0  0  0  0  0  0  0  0  0  0  0
   -2.4214    0.0632    1.3513 H   0  0  0  0  0  0  0  0  0  0  0  0
   -2.6325   -1.3986    0.3169 H   0  0  0  0  0  0  0  0  0  0  0  0
   -2.3240   -0.6390   -1.9721 H   0  0  0  0  0  0  0  0  0  0  0  0
   -1.4093    0.9591   -2.1605 H   0  0  0  0  0  0  0  0  0  0  0  0
   -2.7046    1.4967   -0.1890 H   0  0  0  0  0  0  0  0  0  0  0  0
  1  2  1  0
  2  3  1  0
  3  4  1  0
  4  5  1  0
  5  6  1  0
  5  7  1  0
  7  8  1  0
  5  9  1  0
  9  3  1  0
  1 10  1  0
  1 11  1  0
  1 12  1  0
  2 13  1  0
  2 14  1  0
  3 15  1  0
  4 16  1  0
  4 17  1  0
  6 18  1  0
  6 19  1  0
  6 20  1  0
  7 21  1  0
  7 22  1  0
  8 23  1  0
M  END
