
     RDKit          3D

 25 25  0  0  0  0  0  0  0  0999 V2000
   -2.3337    1.1035    0.3929 C   0  0  0  0  0  0  0  0  0  0  0  0
   -1.6541    0.5138   -0.8249 C   0  0  0  0  0  0  0  0  0  0  0  0
   -0.4786   -0.2687   -0.3759 C   0  0  0  0  0  0  0  0  0  0  0  0
   -0.8835   -1.3840    0.5468 C   0  0  0  0  0  0  0  0  0  0  0  0
    0.3552   -0.8459   -1.4771 C   0  0  0  0  0  0  0  0  0  0  0  0
    1.5317   -1.1528   -0.7457 O   0  0  0  0  0  0  0  0  0  0  0  0
    1.8259    0.0702   -0.2002 C   0  0  0  0  0  0  0  0  0  0  0  0
    2.7367    0.0262    0.9930 C   0  0  0  0  0  0  0  0  0  0  0  0
    0.5156    0.6846    0.2705 C   0  0  0  0  0  0  0  0  0  0  0  0
   -3.3293    0.6261    0.5742 H   0  0  0  0  0  0  0  0  0  0  0  0
   -1.7369    0.9039    1.3296 H   0  0  0  0  0  0  0  0  0  0  0  0
   -2.4983    2.1976    0.2988 H   0  0  0  0  0  0  0  0  0  0  0  0
   -1.3753    1.3528   -1.4764 H   0  0  0  0  0  0  0  0  0  0  0  0
   -2.3664   -0.1885   -1.3455 H   0  0  0  0  0  0  0  0  0  0  0  0
   -1.1505   -2.2583   -0.1166 H   0  0  0  0  0  0  0  0  0  0  0  0
   -1.7849   -1.1396    1.1025 H   0  0  0  0  0  0  0  0  0  0  0  0
   -0.0322   -1.7338    1.1540 H   0  0  0  0  0  0  0  0  0  0  0  0
   -0.1103   -1.7327   -1.8953 H   0  0  0  0  0  0  0  0  0  0  0  0
    0.6782   -0.0967   -2.2271 H   0  0  0  0  0  0  0  0  0  0  0  0
    2.3208    0.6825   -0.9771 H   0  0  0  0  0  0  0  0  0  0  0  0
    2.2226   -0.3092    1.9250 H   0  0  0  0  0  0  0  0  0  0  0  0
    3.0554    1.0917    1.1781 H   0  0  0  0  0  0  0  0  0  0  0  0
    3.6416   -0.5461    0.7894 H   0  0  0  0  0  0  0  0  0  0  0  0
    0.4251    0.7433    1.3498 H   0  0  0  0  0  0  0  0  0  0  0  0
    0.4251    1.6599   -0.2431 H   0  0  0  0  0  0  0  0  0  0  0  0
  1  2  1  0
  2  3  1  0
  3  4  1  0
  3  5  1  0
  5  6  1  0
  6  7  1  0
  7  8  1  0
  7  9  1  0
  9  3  1  0
  1 10  1  0
  1 11  1  0
  1 12  1  0
  2 13  1  0
  2 14  1  0
  4 15  1  0
  4 16  1  0
  4 17  1  0
  5 18  1  0
  5 19  1  0
  7 20  1  0
  8 21  1  0
  8 22  1  0
  8 23  1  0
  9 24  1  0
  9 25  1  0
M  END
