
     RDKit          3D

 27 27  0  0  0  0  0  0  0  0999 V2000
   -2.2711    0.7058    1.0652 C   0  0  0  0  0  0  0  0  0  0  0  0
   -1.9732   -0.6474    0.5646 C   0  0  0  0  0  0  0  0  0  0  0  0
   -0.8739   -0.8673   -0.3618 C   0  0  0  0  0  0  0  0  0  0  0  0
   -0.8599   -0.1736   -1.6933 C   0  0  0  0  0  0  0  0  0  0  0  0
    0.6420   -0.4100   -1.6648 C   0  0  0  0  0  0  0  0  0  0  0  0
    0.4938   -0.3522   -0.1313 C   0  0  0  0  0  0  0  0  0  0  0  0
    1.4841   -1.3331    0.4622 C   0  0  0  0  0  0  0  0  0  0  0  0
    0.7052    1.0368    0.3471 C   0  0  0  0  0  0  0  0  0  0  0  0
    2.2017    1.3558    0.5102 C   0  0  0  0  0  0  0  0  0  0  0  0
   -1.9226    0.7912    2.1316 H   0  0  0  0  0  0  0  0  0  0  0  0
   -3.3866    0.8943    1.1670 H   0  0  0  0  0  0  0  0  0  0  0  0
   -1.8989    1.5508    0.4966 H   0  0  0  0  0  0  0  0  0  0  0  0
   -2.9248   -1.0265    0.0773 H   0  0  0  0  0  0  0  0  0  0  0  0
   -1.8425   -1.3826    1.4180 H   0  0  0  0  0  0  0  0  0  0  0  0
   -0.7789   -1.9806   -0.5909 H   0  0  0  0  0  0  0  0  0  0  0  0
   -1.3898   -0.7282   -2.4996 H   0  0  0  0  0  0  0  0  0  0  0  0
   -1.0426    0.8963   -1.7102 H   0  0  0  0  0  0  0  0  0  0  0  0
    0.9395   -1.4238   -2.0102 H   0  0  0  0  0  0  0  0  0  0  0  0
    1.2450    0.4296   -2.0654 H   0  0  0  0  0  0  0  0  0  0  0  0
    2.4114   -1.2651   -0.1466 H   0  0  0  0  0  0  0  0  0  0  0  0
    1.7585   -1.0838    1.5068 H   0  0  0  0  0  0  0  0  0  0  0  0
    1.1124   -2.3742    0.3467 H   0  0  0  0  0  0  0  0  0  0  0  0
    0.2915    1.2235    1.3714 H   0  0  0  0  0  0  0  0  0  0  0  0
    0.3254    1.8044   -0.3540 H   0  0  0  0  0  0  0  0  0  0  0  0
    2.7600    0.9354   -0.3269 H   0  0  0  0  0  0  0  0  0  0  0  0
    2.5290    0.9643    1.5015 H   0  0  0  0  0  0  0  0  0  0  0  0
    2.2651    2.4601    0.5890 H   0  0  0  0  0  0  0  0  0  0  0  0
  1  2  1  0
  2  3  1  0
  3  4  1  0
  4  5  1  0
  5  6  1  0
  6  7  1  0
  6  8  1  0
  8  9  1  0
  6  3  1  0
  1 10  1  0
  1 11  1  0
  1 12  1  0
  2 13  1  0
  2 14  1  0
  3 15  1  0
  4 16  1  0
  4 17  1  0
  5 18  1  0
  5 19  1  0
  7 20  1  0
  7 21  1  0
  7 22  1  0
  8 23  1  0
  8 24  1  0
  9 25  1  0
  9 26  1  0
  9 27  1  0
M  END
