
     RDKit          3D

 27 27  0  0  0  0  0  0  0  0999 V2000
    2.8763    0.5484   -0.6577 C   0  0  0  0  0  0  0  0  0  0  0  0
    2.3022   -0.0791    0.5721 C   0  0  0  0  0  0  0  0  0  0  0  0
    0.8474   -0.3891    0.4738 C   0  0  0  0  0  0  0  0  0  0  0  0
    0.4779   -1.3336   -0.6192 C   0  0  0  0  0  0  0  0  0  0  0  0
   -1.0498   -1.2646   -0.5557 C   0  0  0  0  0  0  0  0  0  0  0  0
   -1.3702    0.1294   -0.0814 C   0  0  0  0  0  0  0  0  0  0  0  0
   -2.1105    0.9437   -1.0887 C   0  0  0  0  0  0  0  0  0  0  0  0
   -2.1166    0.1072    1.2447 C   0  0  0  0  0  0  0  0  0  0  0  0
   -0.0216    0.8002    0.1979 C   0  0  0  0  0  0  0  0  0  0  0  0
    2.3373    1.4606   -0.9172 H   0  0  0  0  0  0  0  0  0  0  0  0
    3.9490    0.7906   -0.4299 H   0  0  0  0  0  0  0  0  0  0  0  0
    2.8769   -0.1697   -1.5062 H   0  0  0  0  0  0  0  0  0  0  0  0
    2.8360   -0.9915    0.8690 H   0  0  0  0  0  0  0  0  0  0  0  0
    2.4275    0.6469    1.4069 H   0  0  0  0  0  0  0  0  0  0  0  0
    0.5373   -0.8512    1.4400 H   0  0  0  0  0  0  0  0  0  0  0  0
    0.8325   -2.3513   -0.3907 H   0  0  0  0  0  0  0  0  0  0  0  0
    0.7555   -0.9857   -1.6238 H   0  0  0  0  0  0  0  0  0  0  0  0
   -1.3637   -2.0035    0.2313 H   0  0  0  0  0  0  0  0  0  0  0  0
   -1.5159   -1.4941   -1.5199 H   0  0  0  0  0  0  0  0  0  0  0  0
   -1.8575    2.0162   -0.9350 H   0  0  0  0  0  0  0  0  0  0  0  0
   -3.2003    0.7516   -0.9399 H   0  0  0  0  0  0  0  0  0  0  0  0
   -1.8227    0.6375   -2.1233 H   0  0  0  0  0  0  0  0  0  0  0  0
   -3.0880   -0.4081    1.0688 H   0  0  0  0  0  0  0  0  0  0  0  0
   -1.5182   -0.4447    1.9954 H   0  0  0  0  0  0  0  0  0  0  0  0
   -2.2653    1.1523    1.5548 H   0  0  0  0  0  0  0  0  0  0  0  0
    0.3142    1.3672   -0.6725 H   0  0  0  0  0  0  0  0  0  0  0  0
   -0.0699    1.4141    1.1274 H   0  0  0  0  0  0  0  0  0  0  0  0
  1  2  1  0
  2  3  1  0
  3  4  1  0
  4  5  1  0
  5  6  1  0
  6  7  1  0
  6  8  1  0
  6  9  1  0
  9  3  1  0
  1 10  1  0
  1 11  1  0
  1 12  1  0
  2 13  1  0
  2 14  1  0
  3 15  1  0
  4 16  1  0
  4 17  1  0
  5 18  1  0
  5 19  1  0
  7 20  1  0
  7 21  1  0
  7 22  1  0
  8 23  1  0
  8 24  1  0
  8 25  1  0
  9 26  1  0
  9 27  1  0
M  END
