
     RDKit          3D

 21 21  0  0  0  0  0  0  0  0999 V2000
    2.0959    0.5864   -0.9148 C   0  0  0  0  0  0  0  0  0  0  0  0
    1.2641    0.6053    0.3285 C   0  0  0  0  0  0  0  0  0  0  0  0
    0.2186   -0.4581    0.2833 C   0  0  0  0  0  0  0  0  0  0  0  0
    0.7266   -1.7290    0.1723 O   0  0  0  0  0  0  0  0  0  0  0  0
   -0.8385   -0.3074    1.3852 C   0  0  0  0  0  0  0  0  0  0  0  0
   -1.7792   -0.9696    0.3662 C   0  0  0  0  0  0  0  0  0  0  0  0
   -0.9201   -0.2395   -0.6799 C   0  0  0  0  0  0  0  0  0  0  0  0
   -1.3403    1.1521   -0.8903 C   0  0  0  0  0  0  0  0  0  0  0  0
   -1.0171    1.7284   -1.8972 O   0  0  0  0  0  0  0  0  0  0  0  0
    3.1068    0.9969   -0.6507 H   0  0  0  0  0  0  0  0  0  0  0  0
    2.2606   -0.4595   -1.2855 H   0  0  0  0  0  0  0  0  0  0  0  0
    1.6988    1.2295   -1.7052 H   0  0  0  0  0  0  0  0  0  0  0  0
    1.9384    0.3765    1.1808 H   0  0  0  0  0  0  0  0  0  0  0  0
    0.8368    1.6089    0.4881 H   0  0  0  0  0  0  0  0  0  0  0  0
    0.7228   -2.1555    1.0545 H   0  0  0  0  0  0  0  0  0  0  0  0
   -0.6581   -0.8778    2.2864 H   0  0  0  0  0  0  0  0  0  0  0  0
   -1.1138    0.7548    1.4748 H   0  0  0  0  0  0  0  0  0  0  0  0
   -1.5742   -2.0477    0.3623 H   0  0  0  0  0  0  0  0  0  0  0  0
   -2.8143   -0.6395    0.4135 H   0  0  0  0  0  0  0  0  0  0  0  0
   -0.8791   -0.8299   -1.6106 H   0  0  0  0  0  0  0  0  0  0  0  0
   -1.9347    1.6748   -0.1617 H   0  0  0  0  0  0  0  0  0  0  0  0
  1  2  1  0
  2  3  1  0
  3  4  1  0
  3  5  1  0
  5  6  1  0
  6  7  1  0
  7  8  1  0
  8  9  2  0
  7  3  1  0
  1 10  1  0
  1 11  1  0
  1 12  1  0
  2 13  1  0
  2 14  1  0
  4 15  1  0
  5 16  1  0
  5 17  1  0
  6 18  1  0
  6 19  1  0
  7 20  1  0
  8 21  1  0
M  END
