
     RDKit          3D

 21 22  0  0  0  0  0  0  0  0999 V2000
   -2.8454   -0.2919   -0.5207 C   0  0  0  0  0  0  0  0  0  0  0  0
   -1.7432   -0.3862    0.4912 C   0  0  0  0  0  0  0  0  0  0  0  0
   -0.5348    0.4147    0.1372 C   0  0  0  0  0  0  0  0  0  0  0  0
    0.5131    0.2745    1.1811 C   0  0  0  0  0  0  0  0  0  0  0  0
    0.6171    0.3273    2.3937 O   0  0  0  0  0  0  0  0  0  0  0  0
    1.4844    0.0209    0.0928 C   0  0  0  0  0  0  0  0  0  0  0  0
    2.5713    1.0169   -0.1332 C   0  0  0  0  0  0  0  0  0  0  0  0
    1.3284   -1.2042   -0.6960 C   0  0  0  0  0  0  0  0  0  0  0  0
    0.3652   -0.1137   -0.9167 C   0  0  0  0  0  0  0  0  0  0  0  0
   -3.8118   -0.4216    0.0349 H   0  0  0  0  0  0  0  0  0  0  0  0
   -2.9031    0.6919   -1.0246 H   0  0  0  0  0  0  0  0  0  0  0  0
   -2.7705   -1.0691   -1.2913 H   0  0  0  0  0  0  0  0  0  0  0  0
   -1.4770   -1.4466    0.6394 H   0  0  0  0  0  0  0  0  0  0  0  0
   -2.1144   -0.0193    1.4767 H   0  0  0  0  0  0  0  0  0  0  0  0
   -0.7879    1.4941   -0.0146 H   0  0  0  0  0  0  0  0  0  0  0  0
    3.4872    0.6431    0.4015 H   0  0  0  0  0  0  0  0  0  0  0  0
    2.8389    1.1734   -1.1912 H   0  0  0  0  0  0  0  0  0  0  0  0
    2.2917    1.9528    0.3956 H   0  0  0  0  0  0  0  0  0  0  0  0
    1.0134   -2.1745   -0.2570 H   0  0  0  0  0  0  0  0  0  0  0  0
    2.0731   -1.3503   -1.5187 H   0  0  0  0  0  0  0  0  0  0  0  0
    0.4042    0.4680   -1.8488 H   0  0  0  0  0  0  0  0  0  0  0  0
  1  2  1  0
  2  3  1  0
  3  4  1  0
  4  5  2  0
  4  6  1  0
  6  7  1  0
  6  8  1  0
  8  9  1  0
  9  3  1  0
  9  6  1  0
  1 10  1  0
  1 11  1  0
  1 12  1  0
  2 13  1  0
  2 14  1  0
  3 15  1  0
  7 16  1  0
  7 17  1  0
  7 18  1  0
  8 19  1  0
  8 20  1  0
  9 21  1  0
M  END
