
     RDKit          3D

 21 22  0  0  0  0  0  0  0  0999 V2000
    1.7114    1.1007    0.7695 C   0  0  0  0  0  0  0  0  0  0  0  0
    1.4811   -0.1716    0.0577 C   0  0  0  0  0  0  0  0  0  0  0  0
    0.1379   -0.5608   -0.3297 C   0  0  0  0  0  0  0  0  0  0  0  0
   -0.0129   -1.9214   -1.0755 C   0  0  0  0  0  0  0  0  0  0  0  0
   -0.6800   -1.6441    0.2211 C   0  0  0  0  0  0  0  0  0  0  0  0
   -1.8626   -0.7588    0.1381 C   0  0  0  0  0  0  0  0  0  0  0  0
   -3.0174   -0.8375    0.4666 O   0  0  0  0  0  0  0  0  0  0  0  0
   -1.0467    0.2920   -0.5262 C   0  0  0  0  0  0  0  0  0  0  0  0
   -1.1656    1.5994    0.1621 C   0  0  0  0  0  0  0  0  0  0  0  0
    1.3823    2.0169    0.2506 H   0  0  0  0  0  0  0  0  0  0  0  0
    1.4281    1.0759    1.8501 H   0  0  0  0  0  0  0  0  0  0  0  0
    2.8406    1.2261    0.8151 H   0  0  0  0  0  0  0  0  0  0  0  0
    2.1461   -0.1792   -0.8428 H   0  0  0  0  0  0  0  0  0  0  0  0
    1.9190   -0.9873    0.7069 H   0  0  0  0  0  0  0  0  0  0  0  0
    0.9132   -2.4948   -1.1325 H   0  0  0  0  0  0  0  0  0  0  0  0
   -0.5536   -1.8629   -2.0333 H   0  0  0  0  0  0  0  0  0  0  0  0
   -0.4452   -2.1981    1.1267 H   0  0  0  0  0  0  0  0  0  0  0  0
   -1.2665    0.4026   -1.6113 H   0  0  0  0  0  0  0  0  0  0  0  0
   -2.2797    1.7930    0.2732 H   0  0  0  0  0  0  0  0  0  0  0  0
   -0.7883    1.6380    1.1854 H   0  0  0  0  0  0  0  0  0  0  0  0
   -0.8411    2.4719   -0.4718 H   0  0  0  0  0  0  0  0  0  0  0  0
  1  2  1  0
  2  3  1  0
  3  4  1  0
  4  5  1  0
  5  6  1  0
  6  7  2  0
  6  8  1  0
  8  9  1  0
  5  3  1  0
  8  3  1  0
  1 10  1  0
  1 11  1  0
  1 12  1  0
  2 13  1  0
  2 14  1  0
  4 15  1  0
  4 16  1  0
  5 17  1  0
  8 18  1  0
  9 19  1  0
  9 20  1  0
  9 21  1  0
M  END
