
     RDKit          3D

 23 25  0  0  0  0  0  0  0  0999 V2000
    2.8826    0.2710   -0.3124 C   0  0  0  0  0  0  0  0  0  0  0  0
    1.5552    0.9289   -0.0905 C   0  0  0  0  0  0  0  0  0  0  0  0
    0.5772    0.0642    0.6580 C   0  0  0  0  0  0  0  0  0  0  0  0
    0.3014   -1.2403   -0.1084 C   0  0  0  0  0  0  0  0  0  0  0  0
   -1.1854   -1.1088   -0.2864 C   0  0  0  0  0  0  0  0  0  0  0  0
   -1.3867    0.3072   -0.7143 C   0  0  0  0  0  0  0  0  0  0  0  0
   -2.7056    0.2367    0.0086 C   0  0  0  0  0  0  0  0  0  0  0  0
   -1.7427   -0.4459    0.9409 C   0  0  0  0  0  0  0  0  0  0  0  0
   -0.7936    0.6658    0.6198 C   0  0  0  0  0  0  0  0  0  0  0  0
    3.4713    0.1550    0.5991 H   0  0  0  0  0  0  0  0  0  0  0  0
    2.8124   -0.7143   -0.8115 H   0  0  0  0  0  0  0  0  0  0  0  0
    3.4672    0.9318   -0.9933 H   0  0  0  0  0  0  0  0  0  0  0  0
    1.1350    1.2905   -1.0443 H   0  0  0  0  0  0  0  0  0  0  0  0
    1.7300    1.8279    0.5355 H   0  0  0  0  0  0  0  0  0  0  0  0
    0.9321   -0.1718    1.6584 H   0  0  0  0  0  0  0  0  0  0  0  0
    0.5123   -2.1228    0.5079 H   0  0  0  0  0  0  0  0  0  0  0  0
    0.7687   -1.2388   -1.0929 H   0  0  0  0  0  0  0  0  0  0  0  0
   -1.7331   -1.8967   -0.7547 H   0  0  0  0  0  0  0  0  0  0  0  0
   -1.1998    0.7286   -1.5988 H   0  0  0  0  0  0  0  0  0  0  0  0
   -3.4079   -0.4474   -0.4787 H   0  0  0  0  0  0  0  0  0  0  0  0
   -3.0909    1.1987    0.3601 H   0  0  0  0  0  0  0  0  0  0  0  0
   -1.9396   -0.8609    1.8269 H   0  0  0  0  0  0  0  0  0  0  0  0
   -0.9600    1.6414    1.0216 H   0  0  0  0  0  0  0  0  0  0  0  0
  1  2  1  0
  2  3  1  0
  3  4  1  0
  4  5  1  0
  5  6  1  0
  6  7  1  0
  7  8  1  0
  8  9  1  0
  9  3  1  0
  8  5  1  0
  9  6  1  0
  1 10  1  0
  1 11  1  0
  1 12  1  0
  2 13  1  0
  2 14  1  0
  3 15  1  0
  4 16  1  0
  4 17  1  0
  5 18  1  0
  6 19  1  0
  7 20  1  0
  7 21  1  0
  8 22  1  0
  9 23  1  0
M  END
