
     RDKit          3D

 21 21  0  0  0  0  0  0  0  0999 V2000
   -1.5802    1.5897    0.5991 C   0  0  0  0  0  0  0  0  0  0  0  0
   -1.4824    0.3839   -0.3145 C   0  0  0  0  0  0  0  0  0  0  0  0
   -0.5571   -0.6488    0.2309 C   0  0  0  0  0  0  0  0  0  0  0  0
   -0.4623   -1.8511   -0.6842 C   0  0  0  0  0  0  0  0  0  0  0  0
    0.9587   -1.4326   -1.0893 C   0  0  0  0  0  0  0  0  0  0  0  0
    0.9180   -0.4377    0.0243 C   0  0  0  0  0  0  0  0  0  0  0  0
    1.3794    0.8337   -0.1581 O   0  0  0  0  0  0  0  0  0  0  0  0
    2.3173    1.5254    0.5479 C   0  0  0  0  0  0  0  0  0  0  0  0
    2.8406    0.9344    1.4976 O   0  0  0  0  0  0  0  0  0  0  0  0
   -0.6237    2.1521    0.6057 H   0  0  0  0  0  0  0  0  0  0  0  0
   -1.8482    1.3040    1.6400 H   0  0  0  0  0  0  0  0  0  0  0  0
   -2.3462    2.2888    0.2140 H   0  0  0  0  0  0  0  0  0  0  0  0
   -2.5083   -0.0721   -0.3473 H   0  0  0  0  0  0  0  0  0  0  0  0
   -1.2647    0.7416   -1.3124 H   0  0  0  0  0  0  0  0  0  0  0  0
   -0.8695   -0.9507    1.2517 H   0  0  0  0  0  0  0  0  0  0  0  0
   -1.1558   -1.8266   -1.5533 H   0  0  0  0  0  0  0  0  0  0  0  0
   -0.4368   -2.8353   -0.1686 H   0  0  0  0  0  0  0  0  0  0  0  0
    1.6893   -2.2631   -0.9830 H   0  0  0  0  0  0  0  0  0  0  0  0
    0.9899   -1.0631   -2.1115 H   0  0  0  0  0  0  0  0  0  0  0  0
    1.4480   -0.8926    0.9044 H   0  0  0  0  0  0  0  0  0  0  0  0
    2.5939    2.5202    0.3063 H   0  0  0  0  0  0  0  0  0  0  0  0
  1  2  1  0
  2  3  1  0
  3  4  1  0
  4  5  1  0
  5  6  1  0
  6  7  1  0
  7  8  1  0
  8  9  2  0
  6  3  1  0
  1 10  1  0
  1 11  1  0
  1 12  1  0
  2 13  1  0
  2 14  1  0
  3 15  1  0
  4 16  1  0
  4 17  1  0
  5 18  1  0
  5 19  1  0
  6 20  1  0
  8 21  1  0
M  END
