
     RDKit          2D

 23 25  0  0  0  0  0  0  0  0999 V2000
   -1.9330   -3.7500    0.0000 C   0  0  0  0  0  0  0  0  0  0  0  0
   -1.9330   -2.2500    0.0000 C   0  0  0  0  0  0  0  0  0  0  0  0
   -1.9330   -0.7500    0.0000 C   0  0  0  0  0  0  0  0  0  0  0  0
   -3.4330   -0.7500    0.0000 C   0  0  0  0  0  0  0  0  0  0  0  0
   -1.9330    0.7500    0.0000 C   0  0  0  0  0  0  0  0  0  0  0  0
    0.1160    1.2990    0.0000 C   0  0  0  0  0  0  0  0  0  0  0  0
    0.8660    0.0000    0.0000 C   0  0  0  0  0  0  0  0  0  0  0  0
   -0.4330    0.7500    0.0000 C   0  0  0  0  0  0  0  0  0  0  0  0
   -0.4330   -0.7500    0.0000 C   0  0  0  0  0  0  0  0  0  0  0  0
   -1.9330   -5.2500    0.0000 H   0  0  0  0  0  0  0  0  0  0  0  0
   -3.4330   -3.7500    0.0000 H   0  0  0  0  0  0  0  0  0  0  0  0
   -0.4330   -3.7500    0.0000 H   0  0  0  0  0  0  0  0  0  0  0  0
   -0.4442   -2.4328    0.0000 H   0  0  0  0  0  0  0  0  0  0  0  0
   -2.8121   -2.3580    0.0000 H   0  0  0  0  0  0  0  0  0  0  0  0
   -4.9330   -0.7500    0.0000 H   0  0  0  0  0  0  0  0  0  0  0  0
   -3.5410   -1.6291    0.0000 H   0  0  0  0  0  0  0  0  0  0  0  0
   -3.4330    0.7500    0.0000 H   0  0  0  0  0  0  0  0  0  0  0  0
   -2.9937    1.8107    0.0000 H   0  0  0  0  0  0  0  0  0  0  0  0
    1.4151    2.0490    0.0000 H   0  0  0  0  0  0  0  0  0  0  0  0
   -0.3587    2.4175    0.0000 H   0  0  0  0  0  0  0  0  0  0  0  0
    2.3660    0.0000    0.0000 H   0  0  0  0  0  0  0  0  0  0  0  0
   -0.3221    1.5394    0.0000 H   0  0  0  0  0  0  0  0  0  0  0  0
    0.1289   -2.1408    0.0000 H   0  0  0  0  0  0  0  0  0  0  0  0
  1  2  1  0
  2  3  1  0
  3  4  1  0
  3  5  1  0
  5  6  1  0
  6  7  1  0
  7  8  1  0
  8  9  1  0
  9  3  1  0
  8  5  1  0
  9  7  1  0
  1 10  1  0
  1 11  1  0
  1 12  1  0
  2 13  1  0
  2 14  1  0
  4 15  1  0
  4 16  1  0
  4 17  1  0
  5 18  1  0
  6 19  1  0
  6 20  1  0
  7 21  1  0
  8 22  1  0
  9 23  1  0
M  END
