
     RDKit          3D

 21 22  0  0  0  0  0  0  0  0999 V2000
    2.5800    0.1398   -0.1610 C   0  0  0  0  0  0  0  0  0  0  0  0
    1.2232   -0.4163   -0.4812 C   0  0  0  0  0  0  0  0  0  0  0  0
    0.1616   -0.0430    0.4847 C   0  0  0  0  0  0  0  0  0  0  0  0
   -0.2339    1.3479    0.7679 C   0  0  0  0  0  0  0  0  0  0  0  0
   -1.1814    0.3888    0.1304 C   0  0  0  0  0  0  0  0  0  0  0  0
   -1.6549    0.6516   -1.2569 C   0  0  0  0  0  0  0  0  0  0  0  0
   -2.0299   -0.3957    0.9061 O   0  0  0  0  0  0  0  0  0  0  0  0
   -1.2694   -1.5231    1.1430 C   0  0  0  0  0  0  0  0  0  0  0  0
   -0.0452   -0.9710    1.5271 O   0  0  0  0  0  0  0  0  0  0  0  0
    2.6708    0.1768    0.9444 H   0  0  0  0  0  0  0  0  0  0  0  0
    2.7871    1.1046   -0.6540 H   0  0  0  0  0  0  0  0  0  0  0  0
    3.3531   -0.5693   -0.5234 H   0  0  0  0  0  0  0  0  0  0  0  0
    0.9172   -0.1277   -1.5292 H   0  0  0  0  0  0  0  0  0  0  0  0
    1.3106   -1.5232   -0.5025 H   0  0  0  0  0  0  0  0  0  0  0  0
    0.1709    2.1168    0.0725 H   0  0  0  0  0  0  0  0  0  0  0  0
   -0.4119    1.7364    1.7803 H   0  0  0  0  0  0  0  0  0  0  0  0
   -2.0519   -0.2472   -1.7688 H   0  0  0  0  0  0  0  0  0  0  0  0
   -0.9284    1.1299   -1.9117 H   0  0  0  0  0  0  0  0  0  0  0  0
   -2.5301    1.3615   -1.1866 H   0  0  0  0  0  0  0  0  0  0  0  0
   -1.6683   -2.1609    1.9613 H   0  0  0  0  0  0  0  0  0  0  0  0
   -1.1691   -2.1767    0.2576 H   0  0  0  0  0  0  0  0  0  0  0  0
  1  2  1  0
  2  3  1  0
  3  4  1  0
  4  5  1  0
  5  6  1  0
  5  7  1  0
  7  8  1  0
  8  9  1  0
  5  3  1  0
  9  3  1  0
  1 10  1  0
  1 11  1  0
  1 12  1  0
  2 13  1  0
  2 14  1  0
  4 15  1  0
  4 16  1  0
  6 17  1  0
  6 18  1  0
  6 19  1  0
  8 20  1  0
  8 21  1  0
M  END
