
     RDKit          3D

 17 17  0  0  0  0  0  0  0  0999 V2000
   -2.2457   -0.1696   -0.3024 C   0  0  0  0  0  0  0  0  0  0  0  0
   -1.0177   -0.7244    0.3591 C   0  0  0  0  0  0  0  0  0  0  0  0
    0.1722    0.0947   -0.0633 C   0  0  0  0  0  0  0  0  0  0  0  0
    0.1445    1.5156    0.2642 C   0  0  0  0  0  0  0  0  0  0  0  0
    0.9969    2.3332    0.0002 O   0  0  0  0  0  0  0  0  0  0  0  0
    0.8928   -0.2241   -1.1971 O   0  0  0  0  0  0  0  0  0  0  0  0
    1.4640   -0.7023   -0.0492 C   0  0  0  0  0  0  0  0  0  0  0  0
    2.5476   -0.0615    0.6696 C   0  0  0  0  0  0  0  0  0  0  0  0
    3.3198   -0.7457    1.3296 O   0  0  0  0  0  0  0  0  0  0  0  0
   -3.1370   -0.1792    0.3581 H   0  0  0  0  0  0  0  0  0  0  0  0
   -2.1188    0.8976   -0.6244 H   0  0  0  0  0  0  0  0  0  0  0  0
   -2.4256   -0.7549   -1.2240 H   0  0  0  0  0  0  0  0  0  0  0  0
   -1.1325   -0.5746    1.4535 H   0  0  0  0  0  0  0  0  0  0  0  0
   -0.8735   -1.8038    0.1570 H   0  0  0  0  0  0  0  0  0  0  0  0
   -0.7307    1.9142    0.8080 H   0  0  0  0  0  0  0  0  0  0  0  0
    1.3922   -1.8096    0.0341 H   0  0  0  0  0  0  0  0  0  0  0  0
    2.7516    0.9944    0.6837 H   0  0  0  0  0  0  0  0  0  0  0  0
  1  2  1  0
  2  3  1  0
  3  4  1  0
  4  5  2  0
  3  6  1  0
  6  7  1  0
  7  8  1  0
  8  9  2  0
  7  3  1  0
  1 10  1  0
  1 11  1  0
  1 12  1  0
  2 13  1  0
  2 14  1  0
  4 15  1  0
  7 16  1  0
  8 17  1  0
M  END
