
     RDKit          3D

 21 21  0  0  0  0  0  0  0  0999 V2000
   -1.4351   -1.8203   -0.4679 C   0  0  0  0  0  0  0  0  0  0  0  0
   -1.1719   -1.0019    0.7802 C   0  0  0  0  0  0  0  0  0  0  0  0
   -0.3536    0.1984    0.4019 C   0  0  0  0  0  0  0  0  0  0  0  0
   -0.9506    1.1373   -0.5912 C   0  0  0  0  0  0  0  0  0  0  0  0
   -1.7431    2.0428    0.1151 O   0  0  0  0  0  0  0  0  0  0  0  0
    0.4372    0.8343    1.3451 O   0  0  0  0  0  0  0  0  0  0  0  0
    1.1387   -0.0151    0.4858 C   0  0  0  0  0  0  0  0  0  0  0  0
    2.0838    0.5174   -0.5225 C   0  0  0  0  0  0  0  0  0  0  0  0
    3.1050    1.2395    0.1383 O   0  0  0  0  0  0  0  0  0  0  0  0
   -2.1562   -1.3405   -1.1468 H   0  0  0  0  0  0  0  0  0  0  0  0
   -1.9428   -2.7615   -0.1048 H   0  0  0  0  0  0  0  0  0  0  0  0
   -0.4693   -2.0870   -0.9829 H   0  0  0  0  0  0  0  0  0  0  0  0
   -0.5903   -1.6412    1.4756 H   0  0  0  0  0  0  0  0  0  0  0  0
   -2.1337   -0.7635    1.2380 H   0  0  0  0  0  0  0  0  0  0  0  0
   -1.5348    0.5925   -1.3662 H   0  0  0  0  0  0  0  0  0  0  0  0
   -0.2126    1.7497   -1.1387 H   0  0  0  0  0  0  0  0  0  0  0  0
   -1.1297    2.5838    0.6761 H   0  0  0  0  0  0  0  0  0  0  0  0
    1.4937   -0.9227    1.0243 H   0  0  0  0  0  0  0  0  0  0  0  0
    2.5892   -0.3694   -1.0031 H   0  0  0  0  0  0  0  0  0  0  0  0
    1.6887    1.1316   -1.3222 H   0  0  0  0  0  0  0  0  0  0  0  0
    3.2876    0.6954    0.9659 H   0  0  0  0  0  0  0  0  0  0  0  0
  1  2  1  0
  2  3  1  0
  3  4  1  0
  4  5  1  0
  3  6  1  0
  6  7  1  0
  7  8  1  0
  8  9  1  0
  7  3  1  0
  1 10  1  0
  1 11  1  0
  1 12  1  0
  2 13  1  0
  2 14  1  0
  4 15  1  0
  4 16  1  0
  5 17  1  0
  7 18  1  0
  8 19  1  0
  8 20  1  0
  9 21  1  0
M  END
