
     RDKit          3D

 21 21  0  0  0  0  0  0  0  0999 V2000
    2.5447   -0.2769    0.9551 C   0  0  0  0  0  0  0  0  0  0  0  0
    1.7154   -0.7562   -0.2179 C   0  0  0  0  0  0  0  0  0  0  0  0
    0.3568   -0.0920   -0.2569 C   0  0  0  0  0  0  0  0  0  0  0  0
    0.4613    1.2882   -0.3701 O   0  0  0  0  0  0  0  0  0  0  0  0
   -0.7706    1.8832   -0.2615 C   0  0  0  0  0  0  0  0  0  0  0  0
   -1.8238    1.0265    0.3346 C   0  0  0  0  0  0  0  0  0  0  0  0
   -2.0961   -0.2441    0.0693 C   0  0  0  0  0  0  0  0  0  0  0  0
   -1.4872   -1.2257   -0.8657 C   0  0  0  0  0  0  0  0  0  0  0  0
   -0.3087   -0.6433   -1.3689 O   0  0  0  0  0  0  0  0  0  0  0  0
    2.0364    0.5386    1.5120 H   0  0  0  0  0  0  0  0  0  0  0  0
    3.5330    0.1014    0.6650 H   0  0  0  0  0  0  0  0  0  0  0  0
    2.6890   -1.1543    1.6195 H   0  0  0  0  0  0  0  0  0  0  0  0
    1.5501   -1.8542   -0.1991 H   0  0  0  0  0  0  0  0  0  0  0  0
    2.2984   -0.5401   -1.1359 H   0  0  0  0  0  0  0  0  0  0  0  0
   -0.1695   -0.2948    0.6933 H   0  0  0  0  0  0  0  0  0  0  0  0
   -1.0844    2.2708   -1.2738 H   0  0  0  0  0  0  0  0  0  0  0  0
   -0.7115    2.8159    0.3722 H   0  0  0  0  0  0  0  0  0  0  0  0
   -2.4774    1.4788    1.0978 H   0  0  0  0  0  0  0  0  0  0  0  0
   -2.9201   -0.6372    0.6464 H   0  0  0  0  0  0  0  0  0  0  0  0
   -2.1715   -1.5298   -1.6760 H   0  0  0  0  0  0  0  0  0  0  0  0
   -1.1643   -2.1549   -0.3396 H   0  0  0  0  0  0  0  0  0  0  0  0
  1  2  1  0
  2  3  1  0
  3  4  1  0
  4  5  1  0
  5  6  1  0
  6  7  2  0
  7  8  1  0
  8  9  1  0
  9  3  1  0
  1 10  1  0
  1 11  1  0
  1 12  1  0
  2 13  1  0
  2 14  1  0
  3 15  1  0
  5 16  1  0
  5 17  1  0
  6 18  1  0
  7 19  1  0
  8 20  1  0
  8 21  1  0
M  END
