
     RDKit          3D

 23 24  0  0  0  0  0  0  0  0999 V2000
    2.4235   -0.3166   -0.5022 C   0  0  0  0  0  0  0  0  0  0  0  0
    1.3328   -0.5867    0.5307 C   0  0  0  0  0  0  0  0  0  0  0  0
    0.1296    0.1996    0.1162 C   0  0  0  0  0  0  0  0  0  0  0  0
    0.3415    1.6877    0.0401 C   0  0  0  0  0  0  0  0  0  0  0  0
   -0.9202    2.2792    0.0968 O   0  0  0  0  0  0  0  0  0  0  0  0
   -1.6979    1.4655    0.9107 C   0  0  0  0  0  0  0  0  0  0  0  0
   -1.1773    0.0628    0.7755 C   0  0  0  0  0  0  0  0  0  0  0  0
   -0.9772   -0.3813   -0.6631 C   0  0  0  0  0  0  0  0  0  0  0  0
   -1.1180   -1.8527   -0.8650 C   0  0  0  0  0  0  0  0  0  0  0  0
    3.0200    0.5444   -0.1426 H   0  0  0  0  0  0  0  0  0  0  0  0
    3.0435   -1.2299   -0.6707 H   0  0  0  0  0  0  0  0  0  0  0  0
    1.9362   -0.0949   -1.4758 H   0  0  0  0  0  0  0  0  0  0  0  0
    1.7031   -0.2593    1.5435 H   0  0  0  0  0  0  0  0  0  0  0  0
    1.1514   -1.6809    0.5164 H   0  0  0  0  0  0  0  0  0  0  0  0
    0.8677    2.0083   -0.8704 H   0  0  0  0  0  0  0  0  0  0  0  0
    0.8911    2.0381    0.9527 H   0  0  0  0  0  0  0  0  0  0  0  0
   -2.7307    1.4707    0.4626 H   0  0  0  0  0  0  0  0  0  0  0  0
   -1.7829    1.8075    1.9409 H   0  0  0  0  0  0  0  0  0  0  0  0
   -1.2704   -0.6677    1.5706 H   0  0  0  0  0  0  0  0  0  0  0  0
   -1.4735    0.2273   -1.4656 H   0  0  0  0  0  0  0  0  0  0  0  0
   -0.6223   -2.4659   -0.1151 H   0  0  0  0  0  0  0  0  0  0  0  0
   -0.8500   -2.1661   -1.9040 H   0  0  0  0  0  0  0  0  0  0  0  0
   -2.2202   -2.0891   -0.7822 H   0  0  0  0  0  0  0  0  0  0  0  0
  1  2  1  0
  2  3  1  0
  3  4  1  0
  4  5  1  0
  5  6  1  0
  6  7  1  0
  7  8  1  0
  8  9  1  0
  7  3  1  0
  8  3  1  0
  1 10  1  0
  1 11  1  0
  1 12  1  0
  2 13  1  0
  2 14  1  0
  4 15  1  0
  4 16  1  0
  6 17  1  0
  6 18  1  0
  7 19  1  0
  8 20  1  0
  9 21  1  0
  9 22  1  0
  9 23  1  0
M  END
