
     RDKit          3D

 23 24  0  0  0  0  0  0  0  0999 V2000
   -2.4975   -0.0437   -0.6675 C   0  0  0  0  0  0  0  0  0  0  0  0
   -1.4956    0.9373   -0.1407 C   0  0  0  0  0  0  0  0  0  0  0  0
   -0.1595    0.2589   -0.0292 C   0  0  0  0  0  0  0  0  0  0  0  0
   -0.1447   -0.9234    0.8828 C   0  0  0  0  0  0  0  0  0  0  0  0
    1.2972   -1.3707    1.0057 C   0  0  0  0  0  0  0  0  0  0  0  0
    2.2255   -0.8165    0.2543 C   0  0  0  0  0  0  0  0  0  0  0  0
    1.8255    0.2744   -0.6573 C   0  0  0  0  0  0  0  0  0  0  0  0
    0.5167   -0.0351   -1.3652 C   0  0  0  0  0  0  0  0  0  0  0  0
    0.9811    1.2215    0.2162 C   0  0  0  0  0  0  0  0  0  0  0  0
   -2.6444   -0.8813    0.0334 H   0  0  0  0  0  0  0  0  0  0  0  0
   -2.1854   -0.3991   -1.6544 H   0  0  0  0  0  0  0  0  0  0  0  0
   -3.4690    0.5065   -0.7803 H   0  0  0  0  0  0  0  0  0  0  0  0
   -1.4123    1.7979   -0.8294 H   0  0  0  0  0  0  0  0  0  0  0  0
   -1.8000    1.2312    0.8815 H   0  0  0  0  0  0  0  0  0  0  0  0
   -0.6858   -1.7936    0.4904 H   0  0  0  0  0  0  0  0  0  0  0  0
   -0.5213   -0.5897    1.8708 H   0  0  0  0  0  0  0  0  0  0  0  0
    1.4807   -2.1496    1.7333 H   0  0  0  0  0  0  0  0  0  0  0  0
    3.2327   -1.1403    0.2986 H   0  0  0  0  0  0  0  0  0  0  0  0
    2.5954    0.7572   -1.2466 H   0  0  0  0  0  0  0  0  0  0  0  0
    0.3028    0.7500   -2.0944 H   0  0  0  0  0  0  0  0  0  0  0  0
    0.3982   -1.0458   -1.7409 H   0  0  0  0  0  0  0  0  0  0  0  0
    0.8338    2.1543   -0.3474 H   0  0  0  0  0  0  0  0  0  0  0  0
    1.3258    1.2994    1.2526 H   0  0  0  0  0  0  0  0  0  0  0  0
  1  2  1  0
  2  3  1  0
  3  4  1  0
  4  5  1  0
  5  6  2  0
  6  7  1  0
  7  8  1  0
  7  9  1  0
  8  3  1  0
  9  3  1  0
  1 10  1  0
  1 11  1  0
  1 12  1  0
  2 13  1  0
  2 14  1  0
  4 15  1  0
  4 16  1  0
  5 17  1  0
  6 18  1  0
  7 19  1  0
  8 20  1  0
  8 21  1  0
  9 22  1  0
  9 23  1  0
M  END
