
     RDKit          3D

 23 24  0  0  0  0  0  0  0  0999 V2000
   -3.0337    0.5788   -0.3413 C   0  0  0  0  0  0  0  0  0  0  0  0
   -2.2464   -0.5740    0.2461 C   0  0  0  0  0  0  0  0  0  0  0  0
   -0.8671   -0.5067    0.2509 C   0  0  0  0  0  0  0  0  0  0  0  0
   -0.0178    0.5303    0.9193 C   0  0  0  0  0  0  0  0  0  0  0  0
    0.8974   -0.5015    0.3446 C   0  0  0  0  0  0  0  0  0  0  0  0
    2.2697   -0.5515    0.4557 C   0  0  0  0  0  0  0  0  0  0  0  0
    2.9841    0.6455   -0.1129 C   0  0  0  0  0  0  0  0  0  0  0  0
    0.0708   -0.4681   -0.8861 C   0  0  0  0  0  0  0  0  0  0  0  0
   -0.0082   -1.4418    0.8237 O   0  0  0  0  0  0  0  0  0  0  0  0
   -2.7479    0.7699   -1.3932 H   0  0  0  0  0  0  0  0  0  0  0  0
   -2.9345    1.5007    0.2824 H   0  0  0  0  0  0  0  0  0  0  0  0
   -4.1317    0.3497   -0.3495 H   0  0  0  0  0  0  0  0  0  0  0  0
   -2.6690   -0.7166    1.2854 H   0  0  0  0  0  0  0  0  0  0  0  0
   -2.6149   -1.4898   -0.3021 H   0  0  0  0  0  0  0  0  0  0  0  0
   -0.0190    1.4659    0.3539 H   0  0  0  0  0  0  0  0  0  0  0  0
   -0.0759    0.5883    2.0147 H   0  0  0  0  0  0  0  0  0  0  0  0
    2.6091   -0.6310    1.5270 H   0  0  0  0  0  0  0  0  0  0  0  0
    2.7149   -1.4470   -0.0365 H   0  0  0  0  0  0  0  0  0  0  0  0
    4.0935    0.4964    0.0127 H   0  0  0  0  0  0  0  0  0  0  0  0
    2.8137    0.6515   -1.2180 H   0  0  0  0  0  0  0  0  0  0  0  0
    2.7059    1.5902    0.3523 H   0  0  0  0  0  0  0  0  0  0  0  0
    0.0883    0.5132   -1.3860 H   0  0  0  0  0  0  0  0  0  0  0  0
    0.1186   -1.3525   -1.5520 H   0  0  0  0  0  0  0  0  0  0  0  0
  1  2  1  0
  2  3  1  0
  3  4  1  0
  4  5  1  0
  5  6  1  0
  6  7  1  0
  5  8  1  0
  5  9  1  0
  8  3  1  0
  9  3  1  0
  1 10  1  0
  1 11  1  0
  1 12  1  0
  2 13  1  0
  2 14  1  0
  4 15  1  0
  4 16  1  0
  6 17  1  0
  6 18  1  0
  7 19  1  0
  7 20  1  0
  7 21  1  0
  8 22  1  0
  8 23  1  0
M  END
