
     RDKit          3D

 21 22  0  0  0  0  0  0  0  0999 V2000
    2.9305   -0.3756    0.0854 C   0  0  0  0  0  0  0  0  0  0  0  0
    1.8207    0.0015   -0.8741 C   0  0  0  0  0  0  0  0  0  0  0  0
    0.5759   -0.7568   -0.3968 C   0  0  0  0  0  0  0  0  0  0  0  0
   -0.5081   -0.4905   -1.1996 O   0  0  0  0  0  0  0  0  0  0  0  0
   -1.0501    0.6645   -0.6859 C   0  0  0  0  0  0  0  0  0  0  0  0
   -2.5502    0.5582   -0.4214 C   0  0  0  0  0  0  0  0  0  0  0  0
   -2.1774   -0.3436    0.7626 C   0  0  0  0  0  0  0  0  0  0  0  0
   -0.8655    0.4495    0.8154 C   0  0  0  0  0  0  0  0  0  0  0  0
    0.2711   -0.3253    0.8870 O   0  0  0  0  0  0  0  0  0  0  0  0
    2.8168    0.2664    0.9753 H   0  0  0  0  0  0  0  0  0  0  0  0
    2.8045   -1.4248    0.4142 H   0  0  0  0  0  0  0  0  0  0  0  0
    3.9004   -0.1817   -0.4055 H   0  0  0  0  0  0  0  0  0  0  0  0
    2.0599   -0.2310   -1.9201 H   0  0  0  0  0  0  0  0  0  0  0  0
    1.5641    1.0876   -0.7446 H   0  0  0  0  0  0  0  0  0  0  0  0
    0.8661   -1.8072   -0.3350 H   0  0  0  0  0  0  0  0  0  0  0  0
   -0.7027    1.6152   -1.0747 H   0  0  0  0  0  0  0  0  0  0  0  0
   -3.1237    0.0522   -1.2137 H   0  0  0  0  0  0  0  0  0  0  0  0
   -2.9742    1.4897   -0.0203 H   0  0  0  0  0  0  0  0  0  0  0  0
   -2.8195   -0.2345    1.6338 H   0  0  0  0  0  0  0  0  0  0  0  0
   -1.9391   -1.3682    0.4222 H   0  0  0  0  0  0  0  0  0  0  0  0
   -0.8994    1.3544    1.4255 H   0  0  0  0  0  0  0  0  0  0  0  0
  1  2  1  0
  2  3  1  0
  3  4  1  0
  4  5  1  0
  5  6  1  0
  6  7  1  0
  7  8  1  0
  8  9  1  0
  9  3  1  0
  8  5  1  0
  1 10  1  0
  1 11  1  0
  1 12  1  0
  2 13  1  0
  2 14  1  0
  3 15  1  0
  5 16  1  0
  6 17  1  0
  6 18  1  0
  7 19  1  0
  7 20  1  0
  8 21  1  0
M  END
