
     RDKit          3D

 21 21  0  0  0  0  0  0  0  0999 V2000
    2.8314   -0.0173   -0.0228 C   0  0  0  0  0  0  0  0  0  0  0  0
    1.7667   -0.1089   -1.0938 C   0  0  0  0  0  0  0  0  0  0  0  0
    0.4173   -0.4284   -0.4976 C   0  0  0  0  0  0  0  0  0  0  0  0
   -0.5037   -0.4956   -1.5385 O   0  0  0  0  0  0  0  0  0  0  0  0
   -1.7865   -0.7637   -1.1310 C   0  0  0  0  0  0  0  0  0  0  0  0
   -2.3535    0.1353   -0.0969 C   0  0  0  0  0  0  0  0  0  0  0  0
   -1.3597    0.7202    0.8685 C   0  0  0  0  0  0  0  0  0  0  0  0
    0.0130    0.6974    0.3469 C   0  0  0  0  0  0  0  0  0  0  0  0
    0.7850    1.5690    0.5998 O   0  0  0  0  0  0  0  0  0  0  0  0
    3.7622   -0.5481   -0.3336 H   0  0  0  0  0  0  0  0  0  0  0  0
    3.1246    1.0242    0.2009 H   0  0  0  0  0  0  0  0  0  0  0  0
    2.4944   -0.4758    0.9350 H   0  0  0  0  0  0  0  0  0  0  0  0
    2.0634   -0.8079   -1.8890 H   0  0  0  0  0  0  0  0  0  0  0  0
    1.6880    0.9061   -1.5500 H   0  0  0  0  0  0  0  0  0  0  0  0
    0.4180   -1.4006    0.0379 H   0  0  0  0  0  0  0  0  0  0  0  0
   -1.8179   -1.8301   -0.8055 H   0  0  0  0  0  0  0  0  0  0  0  0
   -2.4328   -0.7094   -2.0341 H   0  0  0  0  0  0  0  0  0  0  0  0
   -2.9409    0.9546   -0.5703 H   0  0  0  0  0  0  0  0  0  0  0  0
   -3.0837   -0.4349    0.5173 H   0  0  0  0  0  0  0  0  0  0  0  0
   -1.4214    0.2269    1.8847 H   0  0  0  0  0  0  0  0  0  0  0  0
   -1.6637    1.7872    1.0879 H   0  0  0  0  0  0  0  0  0  0  0  0
  1  2  1  0
  2  3  1  0
  3  4  1  0
  4  5  1  0
  5  6  1  0
  6  7  1  0
  7  8  1  0
  8  9  2  0
  8  3  1  0
  1 10  1  0
  1 11  1  0
  1 12  1  0
  2 13  1  0
  2 14  1  0
  3 15  1  0
  5 16  1  0
  5 17  1  0
  6 18  1  0
  6 19  1  0
  7 20  1  0
  7 21  1  0
M  END
