
     RDKit          3D

 21 22  0  0  0  0  0  0  0  0999 V2000
   -2.1162    0.6086   -0.0586 C   0  0  0  0  0  0  0  0  0  0  0  0
   -1.4026   -0.5934    0.5663 C   0  0  0  0  0  0  0  0  0  0  0  0
    0.0493   -0.3221    0.5620 C   0  0  0  0  0  0  0  0  0  0  0  0
    0.7764   -1.3311    1.1172 O   0  0  0  0  0  0  0  0  0  0  0  0
    0.6666   -1.9345   -0.1333 C   0  0  0  0  0  0  0  0  0  0  0  0
    0.9754   -0.5727   -0.6434 C   0  0  0  0  0  0  0  0  0  0  0  0
    2.3906   -0.4313   -0.4322 O   0  0  0  0  0  0  0  0  0  0  0  0
    0.4171    0.7119   -0.3639 C   0  0  0  0  0  0  0  0  0  0  0  0
    1.1331    1.8990    0.2798 C   0  0  0  0  0  0  0  0  0  0  0  0
   -1.6476    1.5653    0.2388 H   0  0  0  0  0  0  0  0  0  0  0  0
   -2.1704    0.4381   -1.1436 H   0  0  0  0  0  0  0  0  0  0  0  0
   -3.1827    0.5765    0.2917 H   0  0  0  0  0  0  0  0  0  0  0  0
   -1.8271   -0.6267    1.6094 H   0  0  0  0  0  0  0  0  0  0  0  0
   -1.7752   -1.4421   -0.0338 H   0  0  0  0  0  0  0  0  0  0  0  0
   -0.2357   -2.4505   -0.4077 H   0  0  0  0  0  0  0  0  0  0  0  0
    1.4993   -2.6853   -0.2036 H   0  0  0  0  0  0  0  0  0  0  0  0
    2.7747   -0.9367   -1.2076 H   0  0  0  0  0  0  0  0  0  0  0  0
   -0.2631    1.0961   -1.1737 H   0  0  0  0  0  0  0  0  0  0  0  0
    0.4750    2.3257    1.0625 H   0  0  0  0  0  0  0  0  0  0  0  0
    1.4536    2.6405   -0.4768 H   0  0  0  0  0  0  0  0  0  0  0  0
    2.0097    1.4647    0.8418 H   0  0  0  0  0  0  0  0  0  0  0  0
  1  2  1  0
  2  3  1  0
  3  4  1  0
  4  5  1  0
  5  6  1  0
  6  7  1  0
  6  8  1  0
  8  9  1  0
  6  3  1  0
  8  3  1  0
  1 10  1  0
  1 11  1  0
  1 12  1  0
  2 13  1  0
  2 14  1  0
  5 15  1  0
  5 16  1  0
  7 17  1  0
  8 18  1  0
  9 19  1  0
  9 20  1  0
  9 21  1  0
M  END
