
     RDKit          3D

 23 24  0  0  0  0  0  0  0  0999 V2000
   -2.3746   -0.0266    1.0040 C   0  0  0  0  0  0  0  0  0  0  0  0
   -1.3363    0.6622    0.1918 C   0  0  0  0  0  0  0  0  0  0  0  0
   -0.2836   -0.2368   -0.3715 C   0  0  0  0  0  0  0  0  0  0  0  0
   -0.8036   -1.3155   -1.2925 C   0  0  0  0  0  0  0  0  0  0  0  0
    0.7711   -0.6921    0.6102 C   0  0  0  0  0  0  0  0  0  0  0  0
    1.6234    0.4420    0.1889 C   0  0  0  0  0  0  0  0  0  0  0  0
    2.9334    0.7296    0.4512 C   0  0  0  0  0  0  0  0  0  0  0  0
    1.8089    1.4464    1.1091 O   0  0  0  0  0  0  0  0  0  0  0  0
    0.8075    0.6152   -1.0347 C   0  0  0  0  0  0  0  0  0  0  0  0
   -3.2697    0.6417    1.0504 H   0  0  0  0  0  0  0  0  0  0  0  0
   -2.0699   -0.1785    2.0722 H   0  0  0  0  0  0  0  0  0  0  0  0
   -2.7241   -0.9816    0.5929 H   0  0  0  0  0  0  0  0  0  0  0  0
   -1.8424    1.1654   -0.6613 H   0  0  0  0  0  0  0  0  0  0  0  0
   -0.8404    1.4260    0.8285 H   0  0  0  0  0  0  0  0  0  0  0  0
   -0.0123   -1.6987   -1.9683 H   0  0  0  0  0  0  0  0  0  0  0  0
   -1.6068   -0.8418   -1.9065 H   0  0  0  0  0  0  0  0  0  0  0  0
   -1.2418   -2.1557   -0.7125 H   0  0  0  0  0  0  0  0  0  0  0  0
    1.2317   -1.6832    0.3390 H   0  0  0  0  0  0  0  0  0  0  0  0
    0.4582   -0.7428    1.6658 H   0  0  0  0  0  0  0  0  0  0  0  0
    3.5510    0.1570    1.1866 H   0  0  0  0  0  0  0  0  0  0  0  0
    3.5212    1.4489   -0.1317 H   0  0  0  0  0  0  0  0  0  0  0  0
    1.2006    0.1627   -1.9718 H   0  0  0  0  0  0  0  0  0  0  0  0
    0.4986    1.6562   -1.2398 H   0  0  0  0  0  0  0  0  0  0  0  0
  1  2  1  0
  2  3  1  0
  3  4  1  0
  3  5  1  0
  5  6  1  0
  6  7  1  0
  7  8  1  0
  6  9  1  0
  9  3  1  0
  8  6  1  0
  1 10  1  0
  1 11  1  0
  1 12  1  0
  2 13  1  0
  2 14  1  0
  4 15  1  0
  4 16  1  0
  4 17  1  0
  5 18  1  0
  5 19  1  0
  7 20  1  0
  7 21  1  0
  9 22  1  0
  9 23  1  0
M  END
