
     RDKit          3D

 23 24  0  0  0  0  0  0  0  0999 V2000
    2.7496    0.6220    0.8346 C   0  0  0  0  0  0  0  0  0  0  0  0
    2.0175   -0.2483   -0.1650 C   0  0  0  0  0  0  0  0  0  0  0  0
    0.5820   -0.4246    0.1548 C   0  0  0  0  0  0  0  0  0  0  0  0
   -0.2315   -1.2773   -0.7842 C   0  0  0  0  0  0  0  0  0  0  0  0
   -1.5576   -1.2283   -0.0946 C   0  0  0  0  0  0  0  0  0  0  0  0
   -1.6617    0.0803    0.2293 C   0  0  0  0  0  0  0  0  0  0  0  0
   -2.7871    0.7362    0.9270 C   0  0  0  0  0  0  0  0  0  0  0  0
   -0.3858    0.6462   -0.2895 C   0  0  0  0  0  0  0  0  0  0  0  0
   -0.3501   -0.0498   -1.6582 C   0  0  0  0  0  0  0  0  0  0  0  0
    2.9238    1.6514    0.4134 H   0  0  0  0  0  0  0  0  0  0  0  0
    2.1670    0.7087    1.7771 H   0  0  0  0  0  0  0  0  0  0  0  0
    3.7563    0.2149    1.0512 H   0  0  0  0  0  0  0  0  0  0  0  0
    2.2075    0.1457   -1.1586 H   0  0  0  0  0  0  0  0  0  0  0  0
    2.4989   -1.2687   -0.0900 H   0  0  0  0  0  0  0  0  0  0  0  0
    0.3565   -0.7286    1.2016 H   0  0  0  0  0  0  0  0  0  0  0  0
    0.1378   -2.1769   -1.1638 H   0  0  0  0  0  0  0  0  0  0  0  0
   -2.2719   -2.0108    0.1095 H   0  0  0  0  0  0  0  0  0  0  0  0
   -3.4234    1.2556    0.1871 H   0  0  0  0  0  0  0  0  0  0  0  0
   -2.3744    1.4879    1.6241 H   0  0  0  0  0  0  0  0  0  0  0  0
   -3.3611   -0.0059    1.5143 H   0  0  0  0  0  0  0  0  0  0  0  0
   -0.1593    1.6614   -0.2197 H   0  0  0  0  0  0  0  0  0  0  0  0
   -1.3417   -0.0385   -2.1521 H   0  0  0  0  0  0  0  0  0  0  0  0
    0.5085    0.2474   -2.2482 H   0  0  0  0  0  0  0  0  0  0  0  0
  1  2  1  0
  2  3  1  0
  3  4  1  0
  4  5  1  0
  5  6  2  0
  6  7  1  0
  6  8  1  0
  8  9  1  0
  8  3  1  0
  9  4  1  0
  1 10  1  0
  1 11  1  0
  1 12  1  0
  2 13  1  0
  2 14  1  0
  3 15  1  0
  4 16  1  0
  5 17  1  0
  7 18  1  0
  7 19  1  0
  7 20  1  0
  8 21  1  0
  9 22  1  0
  9 23  1  0
M  END
