
     RDKit          3D

 21 21  0  0  0  0  0  0  0  0999 V2000
    2.2612    0.0717    0.6303 C   0  0  0  0  0  0  0  0  0  0  0  0
    1.2266   -0.3443   -0.3430 C   0  0  0  0  0  0  0  0  0  0  0  0
   -0.1644    0.1137   -0.0307 C   0  0  0  0  0  0  0  0  0  0  0  0
   -0.3473    1.5786    0.0457 C   0  0  0  0  0  0  0  0  0  0  0  0
   -1.7146    1.8530    0.1258 O   0  0  0  0  0  0  0  0  0  0  0  0
   -1.0724   -0.4335   -1.1365 C   0  0  0  0  0  0  0  0  0  0  0  0
   -1.3661   -1.7024   -0.6765 O   0  0  0  0  0  0  0  0  0  0  0  0
   -1.2803   -1.6774    0.7049 C   0  0  0  0  0  0  0  0  0  0  0  0
   -0.6865   -0.5014    1.0830 O   0  0  0  0  0  0  0  0  0  0  0  0
    1.8756    0.3644    1.6272 H   0  0  0  0  0  0  0  0  0  0  0  0
    2.8692    0.9111    0.1812 H   0  0  0  0  0  0  0  0  0  0  0  0
    2.9943   -0.7454    0.7972 H   0  0  0  0  0  0  0  0  0  0  0  0
    1.1934   -1.4738   -0.3465 H   0  0  0  0  0  0  0  0  0  0  0  0
    1.5493   -0.0710   -1.3683 H   0  0  0  0  0  0  0  0  0  0  0  0
    0.0805    1.9397    1.0271 H   0  0  0  0  0  0  0  0  0  0  0  0
    0.0477    2.1512   -0.7949 H   0  0  0  0  0  0  0  0  0  0  0  0
   -1.9974    2.5705   -0.4663 H   0  0  0  0  0  0  0  0  0  0  0  0
   -0.5067   -0.4977   -2.0655 H   0  0  0  0  0  0  0  0  0  0  0  0
   -1.9871    0.1565   -1.2411 H   0  0  0  0  0  0  0  0  0  0  0  0
   -2.2825   -1.7270    1.1445 H   0  0  0  0  0  0  0  0  0  0  0  0
   -0.6924   -2.5365    1.1024 H   0  0  0  0  0  0  0  0  0  0  0  0
  1  2  1  0
  2  3  1  0
  3  4  1  0
  4  5  1  0
  3  6  1  0
  6  7  1  0
  7  8  1  0
  8  9  1  0
  9  3  1  0
  1 10  1  0
  1 11  1  0
  1 12  1  0
  2 13  1  0
  2 14  1  0
  4 15  1  0
  4 16  1  0
  5 17  1  0
  6 18  1  0
  6 19  1  0
  8 20  1  0
  8 21  1  0
M  END
