
     RDKit          3D

 20 20  0  0  0  0  0  0  0  0999 V2000
    2.6102    0.2951    0.1445 C   0  0  0  0  0  0  0  0  0  0  0  0
    1.4364    0.0428   -0.7339 C   0  0  0  0  0  0  0  0  0  0  0  0
    0.1956   -0.2654    0.0071 C   0  0  0  0  0  0  0  0  0  0  0  0
   -0.0498   -0.3550    1.3052 C   0  0  0  0  0  0  0  0  0  0  0  0
   -1.4710   -0.6905    1.4532 C   0  0  0  0  0  0  0  0  0  0  0  0
   -1.8450   -1.2632    0.2404 O   0  0  0  0  0  0  0  0  0  0  0  0
   -1.1036   -0.5532   -0.7029 C   0  0  0  0  0  0  0  0  0  0  0  0
   -1.7812    0.7521   -1.0086 C   0  0  0  0  0  0  0  0  0  0  0  0
    3.5514   -0.1041   -0.3313 H   0  0  0  0  0  0  0  0  0  0  0  0
    2.7932    1.3997    0.2329 H   0  0  0  0  0  0  0  0  0  0  0  0
    2.5557   -0.1296    1.1448 H   0  0  0  0  0  0  0  0  0  0  0  0
    1.1946    0.9047   -1.4118 H   0  0  0  0  0  0  0  0  0  0  0  0
    1.6696   -0.8031   -1.4347 H   0  0  0  0  0  0  0  0  0  0  0  0
    0.7291   -0.1918    2.0505 H   0  0  0  0  0  0  0  0  0  0  0  0
   -1.6785   -1.3592    2.3130 H   0  0  0  0  0  0  0  0  0  0  0  0
   -2.1177    0.2189    1.5714 H   0  0  0  0  0  0  0  0  0  0  0  0
   -0.8854   -1.1253   -1.6010 H   0  0  0  0  0  0  0  0  0  0  0  0
   -1.3641    1.2233   -1.9210 H   0  0  0  0  0  0  0  0  0  0  0  0
   -2.8611    0.5538   -1.1532 H   0  0  0  0  0  0  0  0  0  0  0  0
   -1.5785    1.4503   -0.1645 H   0  0  0  0  0  0  0  0  0  0  0  0
  1  2  1  0
  2  3  1  0
  3  4  2  0
  4  5  1  0
  5  6  1  0
  6  7  1  0
  7  8  1  0
  7  3  1  0
  1  9  1  0
  1 10  1  0
  1 11  1  0
  2 12  1  0
  2 13  1  0
  4 14  1  0
  5 15  1  0
  5 16  1  0
  7 17  1  0
  8 18  1  0
  8 19  1  0
  8 20  1  0
M  END
