
     RDKit          3D

 23 23  0  0  0  0  0  0  0  0999 V2000
    2.7166   -0.4959   -0.1698 C   0  0  0  0  0  0  0  0  0  0  0  0
    1.7912    0.7008   -0.2639 C   0  0  0  0  0  0  0  0  0  0  0  0
    0.4420    0.2835    0.3363 C   0  0  0  0  0  0  0  0  0  0  0  0
   -0.0836   -0.8574   -0.4457 C   0  0  0  0  0  0  0  0  0  0  0  0
   -1.4991   -1.2111   -0.2546 C   0  0  0  0  0  0  0  0  0  0  0  0
   -2.4225   -0.1469    0.1703 C   0  0  0  0  0  0  0  0  0  0  0  0
   -1.7756    0.9854    0.8903 C   0  0  0  0  0  0  0  0  0  0  0  0
   -2.2188    1.4940    1.8998 O   0  0  0  0  0  0  0  0  0  0  0  0
   -0.5079    1.4697    0.2714 C   0  0  0  0  0  0  0  0  0  0  0  0
    2.3478   -1.2092    0.5970 H   0  0  0  0  0  0  0  0  0  0  0  0
    3.7056   -0.0931    0.1595 H   0  0  0  0  0  0  0  0  0  0  0  0
    2.7827   -1.0587   -1.1229 H   0  0  0  0  0  0  0  0  0  0  0  0
    1.6443    0.9735   -1.3261 H   0  0  0  0  0  0  0  0  0  0  0  0
    2.1888    1.5727    0.3186 H   0  0  0  0  0  0  0  0  0  0  0  0
    0.5919   -0.0323    1.3891 H   0  0  0  0  0  0  0  0  0  0  0  0
    0.5393   -1.7637   -0.1840 H   0  0  0  0  0  0  0  0  0  0  0  0
    0.1634   -0.6747   -1.5305 H   0  0  0  0  0  0  0  0  0  0  0  0
   -1.6015   -2.0842    0.4558 H   0  0  0  0  0  0  0  0  0  0  0  0
   -1.8785   -1.6355   -1.2323 H   0  0  0  0  0  0  0  0  0  0  0  0
   -3.2462   -0.5713    0.8165 H   0  0  0  0  0  0  0  0  0  0  0  0
   -2.8975    0.3188   -0.7429 H   0  0  0  0  0  0  0  0  0  0  0  0
   -0.6864    1.6789   -0.8094 H   0  0  0  0  0  0  0  0  0  0  0  0
   -0.0959    2.3568    0.7778 H   0  0  0  0  0  0  0  0  0  0  0  0
  1  2  1  0
  2  3  1  0
  3  4  1  0
  4  5  1  0
  5  6  1  0
  6  7  1  0
  7  8  2  0
  7  9  1  0
  9  3  1  0
  1 10  1  0
  1 11  1  0
  1 12  1  0
  2 13  1  0
  2 14  1  0
  3 15  1  0
  4 16  1  0
  4 17  1  0
  5 18  1  0
  5 19  1  0
  6 20  1  0
  6 21  1  0
  9 22  1  0
  9 23  1  0
M  END
