
     RDKit          3D

 25 25  0  0  0  0  0  0  0  0999 V2000
   -2.7152    1.3694    0.7384 C   0  0  0  0  0  0  0  0  0  0  0  0
   -1.5633    1.2100   -0.2570 C   0  0  0  0  0  0  0  0  0  0  0  0
   -0.7349    0.0545    0.1864 C   0  0  0  0  0  0  0  0  0  0  0  0
   -1.3981   -1.2763    0.2740 C   0  0  0  0  0  0  0  0  0  0  0  0
   -0.1540   -1.8773   -0.3944 C   0  0  0  0  0  0  0  0  0  0  0  0
    0.1696   -0.5082   -0.8817 C   0  0  0  0  0  0  0  0  0  0  0  0
    1.5672   -0.0217   -0.7090 C   0  0  0  0  0  0  0  0  0  0  0  0
    2.1470   -0.3597    0.4977 O   0  0  0  0  0  0  0  0  0  0  0  0
    3.4428    0.1703    0.4917 C   0  0  0  0  0  0  0  0  0  0  0  0
   -2.9780    0.3514    1.0707 H   0  0  0  0  0  0  0  0  0  0  0  0
   -3.5592    1.9081    0.2717 H   0  0  0  0  0  0  0  0  0  0  0  0
   -2.2767    1.9165    1.6055 H   0  0  0  0  0  0  0  0  0  0  0  0
   -1.9332    1.1342   -1.2927 H   0  0  0  0  0  0  0  0  0  0  0  0
   -0.9225    2.1221   -0.2144 H   0  0  0  0  0  0  0  0  0  0  0  0
   -0.1705    0.3014    1.1137 H   0  0  0  0  0  0  0  0  0  0  0  0
   -1.5612   -1.5995    1.3075 H   0  0  0  0  0  0  0  0  0  0  0  0
   -2.3147   -1.4223   -0.3271 H   0  0  0  0  0  0  0  0  0  0  0  0
   -0.4744   -2.5871   -1.1969 H   0  0  0  0  0  0  0  0  0  0  0  0
    0.4795   -2.3123    0.3797 H   0  0  0  0  0  0  0  0  0  0  0  0
   -0.2125   -0.2950   -1.8798 H   0  0  0  0  0  0  0  0  0  0  0  0
    1.5597    1.0887   -0.7691 H   0  0  0  0  0  0  0  0  0  0  0  0
    2.2304   -0.3539   -1.5499 H   0  0  0  0  0  0  0  0  0  0  0  0
    3.9413   -0.0861    1.4576 H   0  0  0  0  0  0  0  0  0  0  0  0
    4.0118   -0.2250   -0.3806 H   0  0  0  0  0  0  0  0  0  0  0  0
    3.4193    1.2976    0.4580 H   0  0  0  0  0  0  0  0  0  0  0  0
  1  2  1  0
  2  3  1  0
  3  4  1  0
  4  5  1  0
  5  6  1  0
  6  7  1  0
  7  8  1  0
  8  9  1  0
  6  3  1  0
  1 10  1  0
  1 11  1  0
  1 12  1  0
  2 13  1  0
  2 14  1  0
  3 15  1  0
  4 16  1  0
  4 17  1  0
  5 18  1  0
  5 19  1  0
  6 20  1  0
  7 21  1  0
  7 22  1  0
  9 23  1  0
  9 24  1  0
  9 25  1  0
M  END
