
     RDKit          3D

 23 23  0  0  0  0  0  0  0  0999 V2000
    2.3970    0.7567   -0.1106 C   0  0  0  0  0  0  0  0  0  0  0  0
    1.4188    0.1929    0.8673 C   0  0  0  0  0  0  0  0  0  0  0  0
    0.0291    0.0295    0.2647 C   0  0  0  0  0  0  0  0  0  0  0  0
   -0.5461    1.2998   -0.2036 C   0  0  0  0  0  0  0  0  0  0  0  0
   -1.9036    1.2797   -0.8153 C   0  0  0  0  0  0  0  0  0  0  0  0
    0.0066    2.3843   -0.1305 O   0  0  0  0  0  0  0  0  0  0  0  0
   -0.8335   -0.8315    1.1262 C   0  0  0  0  0  0  0  0  0  0  0  0
   -0.9543   -1.8471    0.0269 C   0  0  0  0  0  0  0  0  0  0  0  0
    0.0584   -1.0787   -0.7633 C   0  0  0  0  0  0  0  0  0  0  0  0
    3.4213    0.3032    0.0250 H   0  0  0  0  0  0  0  0  0  0  0  0
    2.1280    0.5146   -1.1749 H   0  0  0  0  0  0  0  0  0  0  0  0
    2.4536    1.8558    0.0333 H   0  0  0  0  0  0  0  0  0  0  0  0
    1.7830   -0.7992    1.2020 H   0  0  0  0  0  0  0  0  0  0  0  0
    1.3092    0.8335    1.7714 H   0  0  0  0  0  0  0  0  0  0  0  0
   -2.0577    2.1592   -1.4991 H   0  0  0  0  0  0  0  0  0  0  0  0
   -2.6245    1.4467    0.0324 H   0  0  0  0  0  0  0  0  0  0  0  0
   -2.1084    0.3550   -1.3644 H   0  0  0  0  0  0  0  0  0  0  0  0
   -1.8422   -0.4244    1.3678 H   0  0  0  0  0  0  0  0  0  0  0  0
   -0.3447   -1.2322    2.0430 H   0  0  0  0  0  0  0  0  0  0  0  0
   -1.9514   -1.9074   -0.4710 H   0  0  0  0  0  0  0  0  0  0  0  0
   -0.6115   -2.8572    0.3719 H   0  0  0  0  0  0  0  0  0  0  0  0
    1.0191   -1.6502   -0.8110 H   0  0  0  0  0  0  0  0  0  0  0  0
   -0.2461   -0.7831   -1.7881 H   0  0  0  0  0  0  0  0  0  0  0  0
  1  2  1  0
  2  3  1  0
  3  4  1  0
  4  5  1  0
  4  6  2  0
  3  7  1  0
  7  8  1  0
  8  9  1  0
  9  3  1  0
  1 10  1  0
  1 11  1  0
  1 12  1  0
  2 13  1  0
  2 14  1  0
  5 15  1  0
  5 16  1  0
  5 17  1  0
  7 18  1  0
  7 19  1  0
  8 20  1  0
  8 21  1  0
  9 22  1  0
  9 23  1  0
M  END
