
     RDKit          3D

 19 20  0  0  0  0  0  0  0  0999 V2000
    2.6697   -0.6524   -0.4042 C   0  0  0  0  0  0  0  0  0  0  0  0
    1.6988    0.2350    0.3126 C   0  0  0  0  0  0  0  0  0  0  0  0
    0.2829   -0.2909    0.2386 C   0  0  0  0  0  0  0  0  0  0  0  0
   -0.2345   -0.4254   -1.0286 O   0  0  0  0  0  0  0  0  0  0  0  0
   -1.4740   -0.0662   -0.5058 C   0  0  0  0  0  0  0  0  0  0  0  0
   -2.4409   -1.0959   -0.1263 C   0  0  0  0  0  0  0  0  0  0  0  0
   -3.5397   -0.8600    0.3353 O   0  0  0  0  0  0  0  0  0  0  0  0
   -1.6681    1.3684   -0.2549 C   0  0  0  0  0  0  0  0  0  0  0  0
   -0.7817    0.6489    0.6772 C   0  0  0  0  0  0  0  0  0  0  0  0
    3.1020   -0.1240   -1.2856 H   0  0  0  0  0  0  0  0  0  0  0  0
    3.5258   -0.8544    0.2771 H   0  0  0  0  0  0  0  0  0  0  0  0
    2.2488   -1.6377   -0.6712 H   0  0  0  0  0  0  0  0  0  0  0  0
    1.9732    0.4443    1.3668 H   0  0  0  0  0  0  0  0  0  0  0  0
    1.6789    1.2441   -0.1914 H   0  0  0  0  0  0  0  0  0  0  0  0
    0.2441   -1.2778    0.7639 H   0  0  0  0  0  0  0  0  0  0  0  0
   -2.1776   -2.1364   -0.2581 H   0  0  0  0  0  0  0  0  0  0  0  0
   -2.6653    1.6904    0.0921 H   0  0  0  0  0  0  0  0  0  0  0  0
   -1.2454    2.0671   -1.0264 H   0  0  0  0  0  0  0  0  0  0  0  0
   -1.1970    0.4439    1.6889 H   0  0  0  0  0  0  0  0  0  0  0  0
  1  2  1  0
  2  3  1  0
  3  4  1  0
  4  5  1  0
  5  6  1  0
  6  7  2  0
  5  8  1  0
  8  9  1  0
  9  3  1  0
  9  5  1  0
  1 10  1  0
  1 11  1  0
  1 12  1  0
  2 13  1  0
  2 14  1  0
  3 15  1  0
  6 16  1  0
  8 17  1  0
  8 18  1  0
  9 19  1  0
M  END
