
     RDKit          3D

 16 17  0  0  0  0  0  0  0  0999 V2000
    1.7792    0.3597   -0.3081 C   0  0  0  0  0  0  0  0  0  0  0  0
    0.9037   -0.6461    0.3792 C   0  0  0  0  0  0  0  0  0  0  0  0
   -0.5572   -0.3881    0.2048 C   0  0  0  0  0  0  0  0  0  0  0  0
   -1.2381   -0.3468   -1.0729 C   0  0  0  0  0  0  0  0  0  0  0  0
   -1.1264    0.8824   -0.2322 C   0  0  0  0  0  0  0  0  0  0  0  0
   -2.0233    0.9572    0.8560 O   0  0  0  0  0  0  0  0  0  0  0  0
   -1.3346   -0.1060    1.4213 C   0  0  0  0  0  0  0  0  0  0  0  0
   -1.3329   -0.6653    2.5470 O   0  0  0  0  0  0  0  0  0  0  0  0
    2.6652   -0.1320   -0.7954 H   0  0  0  0  0  0  0  0  0  0  0  0
    2.1981    1.0321    0.4892 H   0  0  0  0  0  0  0  0  0  0  0  0
    1.2457    0.9540   -1.0485 H   0  0  0  0  0  0  0  0  0  0  0  0
    1.1151   -1.6396   -0.1195 H   0  0  0  0  0  0  0  0  0  0  0  0
    1.1931   -0.8016    1.4389 H   0  0  0  0  0  0  0  0  0  0  0  0
   -0.7036   -0.3288   -2.0466 H   0  0  0  0  0  0  0  0  0  0  0  0
   -2.2173   -0.8823   -1.1557 H   0  0  0  0  0  0  0  0  0  0  0  0
   -0.5668    1.7511   -0.5576 H   0  0  0  0  0  0  0  0  0  0  0  0
  1  2  1  0
  2  3  1  0
  3  4  1  0
  4  5  1  0
  5  6  1  0
  6  7  1  0
  7  8  2  0
  5  3  1  0
  7  3  1  0
  1  9  1  0
  1 10  1  0
  1 11  1  0
  2 12  1  0
  2 13  1  0
  4 14  1  0
  4 15  1  0
  5 16  1  0
M  END
