
     RDKit          3D

 21 22  0  0  0  0  0  0  0  0999 V2000
    2.3066    0.7313   -0.0004 C   0  0  0  0  0  0  0  0  0  0  0  0
    2.1246   -0.7124    0.3336 C   0  0  0  0  0  0  0  0  0  0  0  0
    0.6720   -1.1562    0.2892 C   0  0  0  0  0  0  0  0  0  0  0  0
   -0.2244   -0.4154    1.2479 C   0  0  0  0  0  0  0  0  0  0  0  0
   -0.8596    0.0124   -0.0124 C   0  0  0  0  0  0  0  0  0  0  0  0
   -1.4284    1.3146   -0.2900 C   0  0  0  0  0  0  0  0  0  0  0  0
   -2.3193    0.0534   -0.1289 C   0  0  0  0  0  0  0  0  0  0  0  0
   -2.8865   -0.4444   -1.3131 O   0  0  0  0  0  0  0  0  0  0  0  0
   -0.0311   -0.6951   -0.8187 O   0  0  0  0  0  0  0  0  0  0  0  0
    1.4560    1.0984   -0.6112 H   0  0  0  0  0  0  0  0  0  0  0  0
    2.3694    1.3839    0.9000 H   0  0  0  0  0  0  0  0  0  0  0  0
    3.2627    0.9043   -0.5716 H   0  0  0  0  0  0  0  0  0  0  0  0
    2.4404   -0.8512    1.4088 H   0  0  0  0  0  0  0  0  0  0  0  0
    2.7661   -1.3497   -0.2758 H   0  0  0  0  0  0  0  0  0  0  0  0
    0.5890   -2.2471    0.3723 H   0  0  0  0  0  0  0  0  0  0  0  0
    0.3392    0.3136    1.8369 H   0  0  0  0  0  0  0  0  0  0  0  0
   -0.8471   -1.1030    1.8914 H   0  0  0  0  0  0  0  0  0  0  0  0
   -1.3887    1.7159   -1.3314 H   0  0  0  0  0  0  0  0  0  0  0  0
   -1.5617    2.1105    0.4617 H   0  0  0  0  0  0  0  0  0  0  0  0
   -2.9769    0.0871    0.7769 H   0  0  0  0  0  0  0  0  0  0  0  0
   -3.8024   -0.7509   -1.1032 H   0  0  0  0  0  0  0  0  0  0  0  0
  1  2  1  0
  2  3  1  0
  3  4  1  0
  4  5  1  0
  5  6  1  0
  6  7  1  0
  7  8  1  0
  5  9  1  0
  9  3  1  0
  7  5  1  0
  1 10  1  0
  1 11  1  0
  1 12  1  0
  2 13  1  0
  2 14  1  0
  3 15  1  0
  4 16  1  0
  4 17  1  0
  6 18  1  0
  6 19  1  0
  7 20  1  0
  8 21  1  0
M  END
