
     RDKit          3D

 23 23  0  0  0  0  0  0  0  0999 V2000
    1.6756    1.3175   -0.6090 C   0  0  0  0  0  0  0  0  0  0  0  0
    1.5258   -0.0620   -0.0810 C   0  0  0  0  0  0  0  0  0  0  0  0
    0.1033   -0.5167    0.0813 C   0  0  0  0  0  0  0  0  0  0  0  0
    0.1778   -1.9488    0.6313 C   0  0  0  0  0  0  0  0  0  0  0  0
   -0.6738   -0.5600   -1.1777 C   0  0  0  0  0  0  0  0  0  0  0  0
   -1.8990    0.2245   -0.9380 C   0  0  0  0  0  0  0  0  0  0  0  0
   -1.9018    0.6910    0.2763 C   0  0  0  0  0  0  0  0  0  0  0  0
   -0.7036    0.2955    1.0127 C   0  0  0  0  0  0  0  0  0  0  0  0
   -0.0429    1.3992    1.5440 O   0  0  0  0  0  0  0  0  0  0  0  0
    2.2051    1.3574   -1.5886 H   0  0  0  0  0  0  0  0  0  0  0  0
    2.3062    1.9536    0.0774 H   0  0  0  0  0  0  0  0  0  0  0  0
    0.7325    1.8747   -0.7425 H   0  0  0  0  0  0  0  0  0  0  0  0
    2.0172   -0.7874   -0.7833 H   0  0  0  0  0  0  0  0  0  0  0  0
    2.0353   -0.2126    0.8954 H   0  0  0  0  0  0  0  0  0  0  0  0
    0.8800   -1.8897    1.4929 H   0  0  0  0  0  0  0  0  0  0  0  0
    0.6364   -2.6254   -0.1177 H   0  0  0  0  0  0  0  0  0  0  0  0
   -0.7901   -2.2979    0.9948 H   0  0  0  0  0  0  0  0  0  0  0  0
   -0.8948   -1.5990   -1.5049 H   0  0  0  0  0  0  0  0  0  0  0  0
   -0.1419   -0.0657   -2.0224 H   0  0  0  0  0  0  0  0  0  0  0  0
   -2.6941    0.3742   -1.7211 H   0  0  0  0  0  0  0  0  0  0  0  0
   -2.7164    1.3070    0.6825 H   0  0  0  0  0  0  0  0  0  0  0  0
   -1.0686   -0.3119    1.8939 H   0  0  0  0  0  0  0  0  0  0  0  0
   -0.7682    2.0825    1.7039 H   0  0  0  0  0  0  0  0  0  0  0  0
  1  2  1  0
  2  3  1  0
  3  4  1  0
  3  5  1  0
  5  6  1  0
  6  7  2  0
  7  8  1  0
  8  9  1  0
  8  3  1  0
  1 10  1  0
  1 11  1  0
  1 12  1  0
  2 13  1  0
  2 14  1  0
  4 15  1  0
  4 16  1  0
  4 17  1  0
  5 18  1  0
  5 19  1  0
  6 20  1  0
  7 21  1  0
  8 22  1  0
  9 23  1  0
M  END
