
     RDKit          3D

 21 21  0  0  0  0  0  0  0  0999 V2000
   -2.5773   -0.1716   -0.1792 C   0  0  0  0  0  0  0  0  0  0  0  0
   -1.2667   -0.3962   -0.8826 C   0  0  0  0  0  0  0  0  0  0  0  0
   -0.1829    0.3618   -0.2134 C   0  0  0  0  0  0  0  0  0  0  0  0
    0.9002   -0.1686    0.3289 C   0  0  0  0  0  0  0  0  0  0  0  0
    1.3264   -1.6139    0.4209 C   0  0  0  0  0  0  0  0  0  0  0  0
    2.5538   -1.7019   -0.2477 O   0  0  0  0  0  0  0  0  0  0  0  0
    1.6901    0.9677    0.8737 C   0  0  0  0  0  0  0  0  0  0  0  0
    1.1821    2.1203    0.3325 O   0  0  0  0  0  0  0  0  0  0  0  0
   -0.1309    1.8625   -0.0380 C   0  0  0  0  0  0  0  0  0  0  0  0
   -2.4103   -0.0846    0.9254 H   0  0  0  0  0  0  0  0  0  0  0  0
   -3.2568   -1.0446   -0.3149 H   0  0  0  0  0  0  0  0  0  0  0  0
   -3.0517    0.7653   -0.5624 H   0  0  0  0  0  0  0  0  0  0  0  0
   -0.9665   -1.4461   -0.9343 H   0  0  0  0  0  0  0  0  0  0  0  0
   -1.4006   -0.0569   -1.9364 H   0  0  0  0  0  0  0  0  0  0  0  0
    1.4121   -1.9373    1.4674 H   0  0  0  0  0  0  0  0  0  0  0  0
    0.6421   -2.2979   -0.0879 H   0  0  0  0  0  0  0  0  0  0  0  0
    2.3577   -1.5730   -1.2050 H   0  0  0  0  0  0  0  0  0  0  0  0
    2.7622    0.9040    0.5920 H   0  0  0  0  0  0  0  0  0  0  0  0
    1.6189    1.0205    1.9937 H   0  0  0  0  0  0  0  0  0  0  0  0
   -0.3500    2.2843   -1.0546 H   0  0  0  0  0  0  0  0  0  0  0  0
   -0.8519    2.2061    0.7218 H   0  0  0  0  0  0  0  0  0  0  0  0
  1  2  1  0
  2  3  1  0
  3  4  2  0
  4  5  1  0
  5  6  1  0
  4  7  1  0
  7  8  1  0
  8  9  1  0
  9  3  1  0
  1 10  1  0
  1 11  1  0
  1 12  1  0
  2 13  1  0
  2 14  1  0
  5 15  1  0
  5 16  1  0
  6 17  1  0
  7 18  1  0
  7 19  1  0
  9 20  1  0
  9 21  1  0
M  END
