
     RDKit          3D

 19 19  0  0  0  0  0  0  0  0999 V2000
    2.7849    0.1799    0.1391 C   0  0  0  0  0  0  0  0  0  0  0  0
    1.6451   -0.5278    0.8870 C   0  0  0  0  0  0  0  0  0  0  0  0
    0.4193   -0.3602   -0.0082 C   0  0  0  0  0  0  0  0  0  0  0  0
    0.1963    1.0204   -0.1521 O   0  0  0  0  0  0  0  0  0  0  0  0
   -1.1356    1.0229   -0.5737 C   0  0  0  0  0  0  0  0  0  0  0  0
   -1.7449    0.0117    0.3739 C   0  0  0  0  0  0  0  0  0  0  0  0
   -2.9487   -0.5957   -0.2484 C   0  0  0  0  0  0  0  0  0  0  0  0
   -2.9887   -1.7909   -0.5678 O   0  0  0  0  0  0  0  0  0  0  0  0
   -0.7192   -0.8879    0.5440 O   0  0  0  0  0  0  0  0  0  0  0  0
    3.7058    0.1680    0.7356 H   0  0  0  0  0  0  0  0  0  0  0  0
    2.4371    1.1971   -0.0532 H   0  0  0  0  0  0  0  0  0  0  0  0
    2.8773   -0.3556   -0.8261 H   0  0  0  0  0  0  0  0  0  0  0  0
    1.5034   -0.0060    1.8428 H   0  0  0  0  0  0  0  0  0  0  0  0
    1.8711   -1.5756    1.0895 H   0  0  0  0  0  0  0  0  0  0  0  0
    0.6033   -0.7468   -1.0185 H   0  0  0  0  0  0  0  0  0  0  0  0
   -1.6012    2.0186   -0.5014 H   0  0  0  0  0  0  0  0  0  0  0  0
   -1.1368    0.6406   -1.6253 H   0  0  0  0  0  0  0  0  0  0  0  0
   -1.9671    0.5379    1.3153 H   0  0  0  0  0  0  0  0  0  0  0  0
   -3.8014    0.0495   -0.4157 H   0  0  0  0  0  0  0  0  0  0  0  0
  1  2  1  0
  2  3  1  0
  3  4  1  0
  4  5  1  0
  5  6  1  0
  6  7  1  0
  7  8  2  0
  6  9  1  0
  9  3  1  0
  1 10  1  0
  1 11  1  0
  1 12  1  0
  2 13  1  0
  2 14  1  0
  3 15  1  0
  5 16  1  0
  5 17  1  0
  6 18  1  0
  7 19  1  0
M  END
