
     RDKit          3D

 23 24  0  0  0  0  0  0  0  0999 V2000
    2.5548    0.7918    0.6398 C   0  0  0  0  0  0  0  0  0  0  0  0
    1.7374    0.6173   -0.6221 C   0  0  0  0  0  0  0  0  0  0  0  0
    0.3916    0.4036   -0.3961 C   0  0  0  0  0  0  0  0  0  0  0  0
   -0.5564    1.3235    0.3098 C   0  0  0  0  0  0  0  0  0  0  0  0
   -1.3546    0.1939   -0.2544 C   0  0  0  0  0  0  0  0  0  0  0  0
   -2.7185    0.0032   -0.1793 C   0  0  0  0  0  0  0  0  0  0  0  0
   -0.5845    0.3286   -1.4032 O   0  0  0  0  0  0  0  0  0  0  0  0
   -0.2820   -0.7253    0.2510 C   0  0  0  0  0  0  0  0  0  0  0  0
   -0.2107   -2.0745   -0.3622 C   0  0  0  0  0  0  0  0  0  0  0  0
    2.9882   -0.1923    0.9647 H   0  0  0  0  0  0  0  0  0  0  0  0
    1.9767    1.2565    1.4646 H   0  0  0  0  0  0  0  0  0  0  0  0
    3.4204    1.4449    0.4416 H   0  0  0  0  0  0  0  0  0  0  0  0
    2.2297   -0.2031   -1.1926 H   0  0  0  0  0  0  0  0  0  0  0  0
    1.9326    1.5367   -1.2491 H   0  0  0  0  0  0  0  0  0  0  0  0
   -0.5149    1.3051    1.4112 H   0  0  0  0  0  0  0  0  0  0  0  0
   -0.6986    2.3142   -0.1446 H   0  0  0  0  0  0  0  0  0  0  0  0
   -3.0184   -1.0765   -0.0534 H   0  0  0  0  0  0  0  0  0  0  0  0
   -3.2137    0.5557    0.6653 H   0  0  0  0  0  0  0  0  0  0  0  0
   -3.2774    0.3515   -1.0966 H   0  0  0  0  0  0  0  0  0  0  0  0
   -0.2153   -0.7727    1.3569 H   0  0  0  0  0  0  0  0  0  0  0  0
   -0.7006   -2.7996    0.3330 H   0  0  0  0  0  0  0  0  0  0  0  0
    0.8567   -2.4109   -0.4399 H   0  0  0  0  0  0  0  0  0  0  0  0
   -0.7423   -2.1714   -1.3262 H   0  0  0  0  0  0  0  0  0  0  0  0
  1  2  1  0
  2  3  1  0
  3  4  1  0
  4  5  1  0
  5  6  1  0
  5  7  1  0
  5  8  1  0
  8  9  1  0
  7  3  1  0
  8  3  1  0
  1 10  1  0
  1 11  1  0
  1 12  1  0
  2 13  1  0
  2 14  1  0
  4 15  1  0
  4 16  1  0
  6 17  1  0
  6 18  1  0
  6 19  1  0
  8 20  1  0
  9 21  1  0
  9 22  1  0
  9 23  1  0
M  END
