
     RDKit          3D

 20 21  0  0  0  0  0  0  0  0999 V2000
    2.3066    0.6187    0.4819 C   0  0  0  0  0  0  0  0  0  0  0  0
    1.3708   -0.2149   -0.3353 C   0  0  0  0  0  0  0  0  0  0  0  0
    0.1533   -0.5071    0.4928 C   0  0  0  0  0  0  0  0  0  0  0  0
   -0.8579   -1.3663   -0.2909 C   0  0  0  0  0  0  0  0  0  0  0  0
   -2.0357   -0.4191   -0.1680 C   0  0  0  0  0  0  0  0  0  0  0  0
   -1.4476    0.8882   -0.6280 C   0  0  0  0  0  0  0  0  0  0  0  0
   -0.7391    0.6949    0.6816 C   0  0  0  0  0  0  0  0  0  0  0  0
   -1.9271    0.0730    1.1319 O   0  0  0  0  0  0  0  0  0  0  0  0
    2.9194   -0.0097    1.1904 H   0  0  0  0  0  0  0  0  0  0  0  0
    1.7280    1.3695    1.0886 H   0  0  0  0  0  0  0  0  0  0  0  0
    3.0507    1.1230   -0.1730 H   0  0  0  0  0  0  0  0  0  0  0  0
    1.1351    0.2653   -1.2986 H   0  0  0  0  0  0  0  0  0  0  0  0
    1.8725   -1.1836   -0.5362 H   0  0  0  0  0  0  0  0  0  0  0  0
    0.4431   -0.9682    1.4331 H   0  0  0  0  0  0  0  0  0  0  0  0
   -0.5506   -1.3784   -1.3414 H   0  0  0  0  0  0  0  0  0  0  0  0
   -1.0189   -2.3345    0.1723 H   0  0  0  0  0  0  0  0  0  0  0  0
   -2.9854   -0.7279   -0.5317 H   0  0  0  0  0  0  0  0  0  0  0  0
   -0.8338    0.8515   -1.5319 H   0  0  0  0  0  0  0  0  0  0  0  0
   -2.1995    1.6907   -0.5532 H   0  0  0  0  0  0  0  0  0  0  0  0
   -0.3838    1.5349    1.2274 H   0  0  0  0  0  0  0  0  0  0  0  0
  1  2  1  0
  2  3  1  0
  3  4  1  0
  4  5  1  0
  5  6  1  0
  6  7  1  0
  7  8  1  0
  7  3  1  0
  8  5  1  0
  1  9  1  0
  1 10  1  0
  1 11  1  0
  2 12  1  0
  2 13  1  0
  3 14  1  0
  4 15  1  0
  4 16  1  0
  5 17  1  0
  6 18  1  0
  6 19  1  0
  7 20  1  0
M  END
