
     RDKit          3D

 23 23  0  0  0  0  0  0  0  0999 V2000
    2.5330    0.3016    1.0700 C   0  0  0  0  0  0  0  0  0  0  0  0
    2.2377    0.4862   -0.3798 C   0  0  0  0  0  0  0  0  0  0  0  0
    0.8332    0.0877   -0.7598 C   0  0  0  0  0  0  0  0  0  0  0  0
   -0.2104    0.8370   -0.0683 C   0  0  0  0  0  0  0  0  0  0  0  0
   -1.3647    0.2704    0.2342 C   0  0  0  0  0  0  0  0  0  0  0  0
   -2.4737    0.9744    0.9385 C   0  0  0  0  0  0  0  0  0  0  0  0
   -1.6331   -1.1700   -0.1291 C   0  0  0  0  0  0  0  0  0  0  0  0
   -0.6082   -1.5814   -1.1355 C   0  0  0  0  0  0  0  0  0  0  0  0
    0.6580   -1.2879   -0.6122 O   0  0  0  0  0  0  0  0  0  0  0  0
    1.6992    0.5885    1.7440 H   0  0  0  0  0  0  0  0  0  0  0  0
    2.8989   -0.7412    1.2950 H   0  0  0  0  0  0  0  0  0  0  0  0
    3.4203    0.9534    1.3143 H   0  0  0  0  0  0  0  0  0  0  0  0
    2.4779    1.4969   -0.7698 H   0  0  0  0  0  0  0  0  0  0  0  0
    2.9195   -0.2125   -0.9469 H   0  0  0  0  0  0  0  0  0  0  0  0
    0.7403    0.2987   -1.8650 H   0  0  0  0  0  0  0  0  0  0  0  0
   -0.0571    1.8666    0.2077 H   0  0  0  0  0  0  0  0  0  0  0  0
   -3.2103    1.2628    0.1506 H   0  0  0  0  0  0  0  0  0  0  0  0
   -3.0268    0.2818    1.6188 H   0  0  0  0  0  0  0  0  0  0  0  0
   -2.1600    1.8994    1.4307 H   0  0  0  0  0  0  0  0  0  0  0  0
   -1.6117   -1.7810    0.7778 H   0  0  0  0  0  0  0  0  0  0  0  0
   -2.6338   -1.2650   -0.6131 H   0  0  0  0  0  0  0  0  0  0  0  0
   -0.7274   -0.9468   -2.0429 H   0  0  0  0  0  0  0  0  0  0  0  0
   -0.7009   -2.6195   -1.4593 H   0  0  0  0  0  0  0  0  0  0  0  0
  1  2  1  0
  2  3  1  0
  3  4  1  0
  4  5  2  0
  5  6  1  0
  5  7  1  0
  7  8  1  0
  8  9  1  0
  9  3  1  0
  1 10  1  0
  1 11  1  0
  1 12  1  0
  2 13  1  0
  2 14  1  0
  3 15  1  0
  4 16  1  0
  6 17  1  0
  6 18  1  0
  6 19  1  0
  7 20  1  0
  7 21  1  0
  8 22  1  0
  8 23  1  0
M  END
