
     RDKit          3D

 18 18  0  0  0  0  0  0  0  0999 V2000
   -2.3194    0.6310    0.1938 C   0  0  0  0  0  0  0  0  0  0  0  0
   -1.2402   -0.3926   -0.0909 C   0  0  0  0  0  0  0  0  0  0  0  0
   -0.0075   -0.1835    0.6986 C   0  0  0  0  0  0  0  0  0  0  0  0
    1.1081   -1.2017    0.4278 C   0  0  0  0  0  0  0  0  0  0  0  0
    1.2785    0.2617    0.1474 C   0  0  0  0  0  0  0  0  0  0  0  0
    2.2091    0.8870    1.0122 O   0  0  0  0  0  0  0  0  0  0  0  0
    1.3978    0.7361   -1.2381 C   0  0  0  0  0  0  0  0  0  0  0  0
    0.7466    0.3536   -2.1844 O   0  0  0  0  0  0  0  0  0  0  0  0
   -2.5286    0.7675    1.2511 H   0  0  0  0  0  0  0  0  0  0  0  0
   -3.2599    0.2126   -0.2669 H   0  0  0  0  0  0  0  0  0  0  0  0
   -2.1354    1.5899   -0.3312 H   0  0  0  0  0  0  0  0  0  0  0  0
   -1.7046   -1.3795    0.1991 H   0  0  0  0  0  0  0  0  0  0  0  0
   -1.0703   -0.4244   -1.1588 H   0  0  0  0  0  0  0  0  0  0  0  0
   -0.1898   -0.1165    1.8218 H   0  0  0  0  0  0  0  0  0  0  0  0
    0.9936   -1.8582   -0.4621 H   0  0  0  0  0  0  0  0  0  0  0  0
    1.6634   -1.6517    1.2444 H   0  0  0  0  0  0  0  0  0  0  0  0
    2.9252    0.2621    1.2725 H   0  0  0  0  0  0  0  0  0  0  0  0
    2.1335    1.5065   -1.4732 H   0  0  0  0  0  0  0  0  0  0  0  0
  1  2  1  0
  2  3  1  0
  3  4  1  0
  4  5  1  0
  5  6  1  0
  5  7  1  0
  7  8  2  0
  5  3  1  0
  1  9  1  0
  1 10  1  0
  1 11  1  0
  2 12  1  0
  2 13  1  0
  3 14  1  0
  4 15  1  0
  4 16  1  0
  6 17  1  0
  7 18  1  0
M  END
