
     RDKit          3D

 23 23  0  0  0  0  0  0  0  0999 V2000
   -2.5604   -0.1588    0.9590 C   0  0  0  0  0  0  0  0  0  0  0  0
   -2.0901   -0.2093   -0.4539 C   0  0  0  0  0  0  0  0  0  0  0  0
   -0.6253    0.1651   -0.6012 C   0  0  0  0  0  0  0  0  0  0  0  0
   -0.2964    1.5424   -0.1289 C   0  0  0  0  0  0  0  0  0  0  0  0
   -0.3352    0.0888   -2.0881 O   0  0  0  0  0  0  0  0  0  0  0  0
    0.2734   -0.7939   -1.0708 C   0  0  0  0  0  0  0  0  0  0  0  0
    1.7452   -0.7861   -1.1687 C   0  0  0  0  0  0  0  0  0  0  0  0
    2.5231   -0.6543    0.0865 C   0  0  0  0  0  0  0  0  0  0  0  0
    2.2583    0.5205    0.7604 O   0  0  0  0  0  0  0  0  0  0  0  0
   -2.0575    0.5907    1.5838 H   0  0  0  0  0  0  0  0  0  0  0  0
   -2.4296   -1.1580    1.4153 H   0  0  0  0  0  0  0  0  0  0  0  0
   -3.6512    0.0896    0.9411 H   0  0  0  0  0  0  0  0  0  0  0  0
   -2.3128   -1.2065   -0.8726 H   0  0  0  0  0  0  0  0  0  0  0  0
   -2.6661    0.5296   -1.0490 H   0  0  0  0  0  0  0  0  0  0  0  0
   -1.1820    2.2188   -0.3847 H   0  0  0  0  0  0  0  0  0  0  0  0
    0.5405    2.0370   -0.6678 H   0  0  0  0  0  0  0  0  0  0  0  0
   -0.1759    1.6624    0.9432 H   0  0  0  0  0  0  0  0  0  0  0  0
   -0.1539   -1.8442   -1.2781 H   0  0  0  0  0  0  0  0  0  0  0  0
    2.0830   -1.7346   -1.6893 H   0  0  0  0  0  0  0  0  0  0  0  0
    2.1295    0.0165   -1.8819 H   0  0  0  0  0  0  0  0  0  0  0  0
    3.6195   -0.6023   -0.1883 H   0  0  0  0  0  0  0  0  0  0  0  0
    2.4680   -1.5471    0.7478 H   0  0  0  0  0  0  0  0  0  0  0  0
    2.8961    1.2336    0.5254 H   0  0  0  0  0  0  0  0  0  0  0  0
  1  2  1  0
  2  3  1  0
  3  4  1  0
  3  5  1  0
  5  6  1  0
  6  7  1  0
  7  8  1  0
  8  9  1  0
  6  3  1  0
  1 10  1  0
  1 11  1  0
  1 12  1  0
  2 13  1  0
  2 14  1  0
  4 15  1  0
  4 16  1  0
  4 17  1  0
  6 18  1  0
  7 19  1  0
  7 20  1  0
  8 21  1  0
  8 22  1  0
  9 23  1  0
M  END
