
     RDKit          3D

 23 23  0  0  0  0  0  0  0  0999 V2000
    2.6418   -0.0771    0.1173 C   0  0  0  0  0  0  0  0  0  0  0  0
    1.3843   -0.8614    0.3567 C   0  0  0  0  0  0  0  0  0  0  0  0
    0.2826   -0.4419   -0.5752 C   0  0  0  0  0  0  0  0  0  0  0  0
   -0.2527    0.9155   -0.6234 C   0  0  0  0  0  0  0  0  0  0  0  0
    0.3815    2.0584    0.1268 C   0  0  0  0  0  0  0  0  0  0  0  0
   -1.0210   -0.1091    0.1135 C   0  0  0  0  0  0  0  0  0  0  0  0
   -1.0431    0.0075    1.4930 O   0  0  0  0  0  0  0  0  0  0  0  0
   -2.2229   -0.7844   -0.4965 C   0  0  0  0  0  0  0  0  0  0  0  0
   -2.3333   -2.0919    0.0138 O   0  0  0  0  0  0  0  0  0  0  0  0
    2.4377    0.7102   -0.6482 H   0  0  0  0  0  0  0  0  0  0  0  0
    3.4427   -0.7578   -0.1944 H   0  0  0  0  0  0  0  0  0  0  0  0
    2.9688    0.3642    1.0818 H   0  0  0  0  0  0  0  0  0  0  0  0
    1.0872   -0.8064    1.4233 H   0  0  0  0  0  0  0  0  0  0  0  0
    1.5939   -1.9342    0.1705 H   0  0  0  0  0  0  0  0  0  0  0  0
    0.2485   -1.0278   -1.5273 H   0  0  0  0  0  0  0  0  0  0  0  0
   -0.7287    1.2533   -1.5817 H   0  0  0  0  0  0  0  0  0  0  0  0
   -0.3949    2.7950    0.4840 H   0  0  0  0  0  0  0  0  0  0  0  0
    1.0042    1.7327    0.9811 H   0  0  0  0  0  0  0  0  0  0  0  0
    1.0435    2.6556   -0.5345 H   0  0  0  0  0  0  0  0  0  0  0  0
   -1.9815   -0.0144    1.7912 H   0  0  0  0  0  0  0  0  0  0  0  0
   -2.1144   -0.9052   -1.5947 H   0  0  0  0  0  0  0  0  0  0  0  0
   -3.1618   -0.2531   -0.3177 H   0  0  0  0  0  0  0  0  0  0  0  0
   -3.2626   -2.4275   -0.0595 H   0  0  0  0  0  0  0  0  0  0  0  0
  1  2  1  0
  2  3  1  0
  3  4  1  0
  4  5  1  0
  4  6  1  0
  6  7  1  0
  6  8  1  0
  8  9  1  0
  6  3  1  0
  1 10  1  0
  1 11  1  0
  1 12  1  0
  2 13  1  0
  2 14  1  0
  3 15  1  0
  4 16  1  0
  5 17  1  0
  5 18  1  0
  5 19  1  0
  7 20  1  0
  8 21  1  0
  8 22  1  0
  9 23  1  0
M  END
