
     RDKit          3D

 23 24  0  0  0  0  0  0  0  0999 V2000
    2.8485    0.6659    0.8858 C   0  0  0  0  0  0  0  0  0  0  0  0
    1.7714    0.7412   -0.2091 C   0  0  0  0  0  0  0  0  0  0  0  0
    0.8268   -0.3475    0.0300 C   0  0  0  0  0  0  0  0  0  0  0  0
   -0.3519   -0.5747   -0.8488 C   0  0  0  0  0  0  0  0  0  0  0  0
   -0.9969    0.5986   -0.1848 C   0  0  0  0  0  0  0  0  0  0  0  0
   -2.4933    0.6688   -0.2021 C   0  0  0  0  0  0  0  0  0  0  0  0
   -0.3504   -0.1292    0.9430 C   0  0  0  0  0  0  0  0  0  0  0  0
   -0.8565   -1.4014    0.3122 C   0  0  0  0  0  0  0  0  0  0  0  0
   -2.1717   -1.6942    0.3817 O   0  0  0  0  0  0  0  0  0  0  0  0
    2.8093   -0.3069    1.4168 H   0  0  0  0  0  0  0  0  0  0  0  0
    2.6726    1.4429    1.6631 H   0  0  0  0  0  0  0  0  0  0  0  0
    3.8415    0.8615    0.4507 H   0  0  0  0  0  0  0  0  0  0  0  0
    1.4128    1.7669   -0.1877 H   0  0  0  0  0  0  0  0  0  0  0  0
    2.3083    0.5576   -1.1741 H   0  0  0  0  0  0  0  0  0  0  0  0
    1.3700   -1.3163    0.2031 H   0  0  0  0  0  0  0  0  0  0  0  0
   -0.3775   -0.8339   -1.8139 H   0  0  0  0  0  0  0  0  0  0  0  0
   -0.5691    1.5358   -0.5302 H   0  0  0  0  0  0  0  0  0  0  0  0
   -2.9720    0.0331   -0.9645 H   0  0  0  0  0  0  0  0  0  0  0  0
   -2.8563    0.4888    0.8317 H   0  0  0  0  0  0  0  0  0  0  0  0
   -2.8561    1.7146   -0.4391 H   0  0  0  0  0  0  0  0  0  0  0  0
   -0.3301    0.0959    1.9165 H   0  0  0  0  0  0  0  0  0  0  0  0
   -0.2172   -2.2881    0.4413 H   0  0  0  0  0  0  0  0  0  0  0  0
   -2.4622   -2.2793   -0.3309 H   0  0  0  0  0  0  0  0  0  0  0  0
  1  2  1  0
  2  3  1  0
  3  4  1  0
  4  5  1  0
  5  6  1  0
  5  7  1  0
  7  8  1  0
  8  9  1  0
  7  3  1  0
  8  4  1  0
  1 10  1  0
  1 11  1  0
  1 12  1  0
  2 13  1  0
  2 14  1  0
  3 15  1  0
  4 16  1  0
  5 17  1  0
  6 18  1  0
  6 19  1  0
  6 20  1  0
  7 21  1  0
  8 22  1  0
  9 23  1  0
M  END
