
     RDKit          3D

 23 23  0  0  0  0  0  0  0  0999 V2000
    2.4219    0.7470   -0.8443 C   0  0  0  0  0  0  0  0  0  0  0  0
    1.6679    0.2652    0.3502 C   0  0  0  0  0  0  0  0  0  0  0  0
    0.5037   -0.6042    0.0355 C   0  0  0  0  0  0  0  0  0  0  0  0
   -0.2326   -1.0644    1.3277 C   0  0  0  0  0  0  0  0  0  0  0  0
   -0.4384   -2.4320    1.4424 O   0  0  0  0  0  0  0  0  0  0  0  0
   -0.8997   -0.2895    0.2339 C   0  0  0  0  0  0  0  0  0  0  0  0
   -1.9146   -1.1332   -0.5466 C   0  0  0  0  0  0  0  0  0  0  0  0
   -1.3748    0.9617    0.5434 O   0  0  0  0  0  0  0  0  0  0  0  0
   -1.1096    1.9416   -0.3789 C   0  0  0  0  0  0  0  0  0  0  0  0
    2.4584    1.8727   -0.8164 H   0  0  0  0  0  0  0  0  0  0  0  0
    1.9586    0.4092   -1.8156 H   0  0  0  0  0  0  0  0  0  0  0  0
    3.4753    0.4115   -0.8819 H   0  0  0  0  0  0  0  0  0  0  0  0
    2.3992   -0.3665    0.9411 H   0  0  0  0  0  0  0  0  0  0  0  0
    1.4200    1.0925    1.0458 H   0  0  0  0  0  0  0  0  0  0  0  0
    0.7435   -1.4378   -0.6851 H   0  0  0  0  0  0  0  0  0  0  0  0
   -0.0197   -0.5467    2.2625 H   0  0  0  0  0  0  0  0  0  0  0  0
   -1.2863   -2.5812    1.9087 H   0  0  0  0  0  0  0  0  0  0  0  0
   -2.9516   -0.9224   -0.2133 H   0  0  0  0  0  0  0  0  0  0  0  0
   -1.8473   -0.9311   -1.6333 H   0  0  0  0  0  0  0  0  0  0  0  0
   -1.7420   -2.2147   -0.4012 H   0  0  0  0  0  0  0  0  0  0  0  0
   -1.5413    1.7279   -1.3835 H   0  0  0  0  0  0  0  0  0  0  0  0
   -1.6472    2.8644   -0.0295 H   0  0  0  0  0  0  0  0  0  0  0  0
   -0.0434    2.2300   -0.4616 H   0  0  0  0  0  0  0  0  0  0  0  0
  1  2  1  0
  2  3  1  0
  3  4  1  0
  4  5  1  0
  4  6  1  0
  6  7  1  0
  6  8  1  0
  8  9  1  0
  6  3  1  0
  1 10  1  0
  1 11  1  0
  1 12  1  0
  2 13  1  0
  2 14  1  0
  3 15  1  0
  4 16  1  0
  5 17  1  0
  7 18  1  0
  7 19  1  0
  7 20  1  0
  9 21  1  0
  9 22  1  0
  9 23  1  0
M  END
