
     RDKit          3D

 21 21  0  0  0  0  0  0  0  0999 V2000
    2.2436    0.4924    0.6350 C   0  0  0  0  0  0  0  0  0  0  0  0
    1.3581   -0.1935   -0.3532 C   0  0  0  0  0  0  0  0  0  0  0  0
    0.0886   -0.7138    0.2288 C   0  0  0  0  0  0  0  0  0  0  0  0
   -0.7468   -1.3925   -0.8391 C   0  0  0  0  0  0  0  0  0  0  0  0
   -1.5050   -0.0968   -0.9962 C   0  0  0  0  0  0  0  0  0  0  0  0
   -1.0341    0.2739    0.3991 C   0  0  0  0  0  0  0  0  0  0  0  0
   -1.9301   -0.1506    1.3459 O   0  0  0  0  0  0  0  0  0  0  0  0
   -0.6600    1.6852    0.5060 C   0  0  0  0  0  0  0  0  0  0  0  0
   -1.1598    2.3447    1.4000 O   0  0  0  0  0  0  0  0  0  0  0  0
    2.7027   -0.2234    1.3435 H   0  0  0  0  0  0  0  0  0  0  0  0
    1.7775    1.2825    1.2169 H   0  0  0  0  0  0  0  0  0  0  0  0
    3.0988    0.9398    0.0522 H   0  0  0  0  0  0  0  0  0  0  0  0
    1.9311   -1.0701   -0.7582 H   0  0  0  0  0  0  0  0  0  0  0  0
    1.1723    0.4634   -1.2191 H   0  0  0  0  0  0  0  0  0  0  0  0
    0.2583   -1.3912    1.0863 H   0  0  0  0  0  0  0  0  0  0  0  0
   -1.4328   -2.1797   -0.4750 H   0  0  0  0  0  0  0  0  0  0  0  0
   -0.1749   -1.6737   -1.7484 H   0  0  0  0  0  0  0  0  0  0  0  0
   -2.5898   -0.2161   -1.0292 H   0  0  0  0  0  0  0  0  0  0  0  0
   -1.0681    0.6153   -1.7300 H   0  0  0  0  0  0  0  0  0  0  0  0
   -2.3607   -0.9983    1.0828 H   0  0  0  0  0  0  0  0  0  0  0  0
    0.0312    2.2024   -0.1480 H   0  0  0  0  0  0  0  0  0  0  0  0
  1  2  1  0
  2  3  1  0
  3  4  1  0
  4  5  1  0
  5  6  1  0
  6  7  1  0
  6  8  1  0
  8  9  2  0
  6  3  1  0
  1 10  1  0
  1 11  1  0
  1 12  1  0
  2 13  1  0
  2 14  1  0
  3 15  1  0
  4 16  1  0
  4 17  1  0
  5 18  1  0
  5 19  1  0
  7 20  1  0
  8 21  1  0
M  END
