
     RDKit          3D

 21 21  0  0  0  0  0  0  0  0999 V2000
   -2.8449    0.0864   -0.8236 C   0  0  0  0  0  0  0  0  0  0  0  0
   -1.7187   -0.7425   -0.1914 C   0  0  0  0  0  0  0  0  0  0  0  0
   -0.8682    0.2018    0.5862 C   0  0  0  0  0  0  0  0  0  0  0  0
   -0.2476    1.3167   -0.3057 C   0  0  0  0  0  0  0  0  0  0  0  0
    0.5741    0.3523    0.4959 C   0  0  0  0  0  0  0  0  0  0  0  0
    1.4930   -0.4676   -0.2871 C   0  0  0  0  0  0  0  0  0  0  0  0
    1.1091   -1.0402   -1.2826 O   0  0  0  0  0  0  0  0  0  0  0  0
    2.9105   -0.6129    0.1234 C   0  0  0  0  0  0  0  0  0  0  0  0
    3.1993    0.1007    1.2820 O   0  0  0  0  0  0  0  0  0  0  0  0
   -2.7333    1.1683   -0.6055 H   0  0  0  0  0  0  0  0  0  0  0  0
   -3.8104   -0.2212   -0.3802 H   0  0  0  0  0  0  0  0  0  0  0  0
   -2.8352   -0.0078   -1.9271 H   0  0  0  0  0  0  0  0  0  0  0  0
   -1.1531   -1.2888   -0.9654 H   0  0  0  0  0  0  0  0  0  0  0  0
   -2.1740   -1.4942    0.4898 H   0  0  0  0  0  0  0  0  0  0  0  0
   -1.3753    0.6029    1.5094 H   0  0  0  0  0  0  0  0  0  0  0  0
   -0.2929    1.1885   -1.3911 H   0  0  0  0  0  0  0  0  0  0  0  0
   -0.3944    2.3563    0.0292 H   0  0  0  0  0  0  0  0  0  0  0  0
    1.0585    0.8446    1.3929 H   0  0  0  0  0  0  0  0  0  0  0  0
    3.6064   -0.2053   -0.6638 H   0  0  0  0  0  0  0  0  0  0  0  0
    3.1533   -1.6831    0.3351 H   0  0  0  0  0  0  0  0  0  0  0  0
    3.3439   -0.4548    2.0696 H   0  0  0  0  0  0  0  0  0  0  0  0
  1  2  1  0
  2  3  1  0
  3  4  1  0
  4  5  1  0
  5  6  1  0
  6  7  2  0
  6  8  1  0
  8  9  1  0
  5  3  1  0
  1 10  1  0
  1 11  1  0
  1 12  1  0
  2 13  1  0
  2 14  1  0
  3 15  1  0
  4 16  1  0
  4 17  1  0
  5 18  1  0
  8 19  1  0
  8 20  1  0
  9 21  1  0
M  END
