
     RDKit          3D

 23 23  0  0  0  0  0  0  0  0999 V2000
   -3.0324    1.0404   -0.2206 C   0  0  0  0  0  0  0  0  0  0  0  0
   -1.5994    1.0561    0.2716 C   0  0  0  0  0  0  0  0  0  0  0  0
   -1.1736   -0.3457    0.5971 C   0  0  0  0  0  0  0  0  0  0  0  0
   -1.1723   -1.4069   -0.4379 C   0  0  0  0  0  0  0  0  0  0  0  0
    0.1138   -0.9003    0.1276 C   0  0  0  0  0  0  0  0  0  0  0  0
    0.9738   -0.1526   -0.6730 O   0  0  0  0  0  0  0  0  0  0  0  0
    2.2983   -0.3933   -0.4106 C   0  0  0  0  0  0  0  0  0  0  0  0
    2.7120   -0.0818    1.0045 C   0  0  0  0  0  0  0  0  0  0  0  0
    2.5022    1.2562    1.3278 O   0  0  0  0  0  0  0  0  0  0  0  0
   -3.0797    1.0362   -1.3328 H   0  0  0  0  0  0  0  0  0  0  0  0
   -3.5372    0.1339    0.2081 H   0  0  0  0  0  0  0  0  0  0  0  0
   -3.5728    1.9261    0.1278 H   0  0  0  0  0  0  0  0  0  0  0  0
   -1.5568    1.6446    1.2106 H   0  0  0  0  0  0  0  0  0  0  0  0
   -0.9460    1.5480   -0.4759 H   0  0  0  0  0  0  0  0  0  0  0  0
   -1.5236   -0.6809    1.6168 H   0  0  0  0  0  0  0  0  0  0  0  0
   -1.4460   -2.4383   -0.1331 H   0  0  0  0  0  0  0  0  0  0  0  0
   -1.4552   -1.1900   -1.4913 H   0  0  0  0  0  0  0  0  0  0  0  0
    0.6665   -1.5622    0.8399 H   0  0  0  0  0  0  0  0  0  0  0  0
    2.9263    0.1996   -1.0804 H   0  0  0  0  0  0  0  0  0  0  0  0
    2.4685   -1.4942   -0.5502 H   0  0  0  0  0  0  0  0  0  0  0  0
    3.8330   -0.2246    1.0337 H   0  0  0  0  0  0  0  0  0  0  0  0
    2.3093   -0.7711    1.7527 H   0  0  0  0  0  0  0  0  0  0  0  0
    3.2911    1.8009    1.0922 H   0  0  0  0  0  0  0  0  0  0  0  0
  1  2  1  0
  2  3  1  0
  3  4  1  0
  4  5  1  0
  5  6  1  0
  6  7  1  0
  7  8  1  0
  8  9  1  0
  5  3  1  0
  1 10  1  0
  1 11  1  0
  1 12  1  0
  2 13  1  0
  2 14  1  0
  3 15  1  0
  4 16  1  0
  4 17  1  0
  5 18  1  0
  7 19  1  0
  7 20  1  0
  8 21  1  0
  8 22  1  0
  9 23  1  0
M  END
