
     RDKit          3D

 23 23  0  0  0  0  0  0  0  0999 V2000
    2.3268   -0.8821    0.2269 C   0  0  0  0  0  0  0  0  0  0  0  0
    0.8437   -1.1321    0.1029 C   0  0  0  0  0  0  0  0  0  0  0  0
    0.0646    0.0914   -0.2342 C   0  0  0  0  0  0  0  0  0  0  0  0
   -1.4082   -0.0840   -0.3720 C   0  0  0  0  0  0  0  0  0  0  0  0
   -1.9894   -0.5992    0.9364 C   0  0  0  0  0  0  0  0  0  0  0  0
   -2.0062    1.1219   -0.7135 O   0  0  0  0  0  0  0  0  0  0  0  0
    0.3728    1.3280    0.5906 C   0  0  0  0  0  0  0  0  0  0  0  0
    0.0393    2.0712   -0.5679 O   0  0  0  0  0  0  0  0  0  0  0  0
    0.6117    0.9947   -1.2901 C   0  0  0  0  0  0  0  0  0  0  0  0
    2.4767   -0.2149    1.1214 H   0  0  0  0  0  0  0  0  0  0  0  0
    2.7697   -0.4506   -0.6674 H   0  0  0  0  0  0  0  0  0  0  0  0
    2.8548   -1.8213    0.4816 H   0  0  0  0  0  0  0  0  0  0  0  0
    0.4185   -1.5790    1.0245 H   0  0  0  0  0  0  0  0  0  0  0  0
    0.6848   -1.8724   -0.7095 H   0  0  0  0  0  0  0  0  0  0  0  0
   -1.6112   -0.8613   -1.1325 H   0  0  0  0  0  0  0  0  0  0  0  0
   -3.0938   -0.5893    0.8014 H   0  0  0  0  0  0  0  0  0  0  0  0
   -1.7289    0.0513    1.7931 H   0  0  0  0  0  0  0  0  0  0  0  0
   -1.6447   -1.6430    1.0966 H   0  0  0  0  0  0  0  0  0  0  0  0
   -2.9084    0.9692   -1.1109 H   0  0  0  0  0  0  0  0  0  0  0  0
    1.4313    1.5072    0.8121 H   0  0  0  0  0  0  0  0  0  0  0  0
   -0.3357    1.4965    1.4243 H   0  0  0  0  0  0  0  0  0  0  0  0
    0.1384    0.9478   -2.2870 H   0  0  0  0  0  0  0  0  0  0  0  0
    1.6938    1.1499   -1.3268 H   0  0  0  0  0  0  0  0  0  0  0  0
  1  2  1  0
  2  3  1  0
  3  4  1  0
  4  5  1  0
  4  6  1  0
  3  7  1  0
  7  8  1  0
  8  9  1  0
  9  3  1  0
  1 10  1  0
  1 11  1  0
  1 12  1  0
  2 13  1  0
  2 14  1  0
  4 15  1  0
  5 16  1  0
  5 17  1  0
  5 18  1  0
  6 19  1  0
  7 20  1  0
  7 21  1  0
  9 22  1  0
  9 23  1  0
M  END
