
     RDKit          3D

 27 27  0  0  0  0  0  0  0  0999 V2000
    2.5062    1.2791    0.7521 C   0  0  0  0  0  0  0  0  0  0  0  0
    2.2978   -0.0971    0.2068 C   0  0  0  0  0  0  0  0  0  0  0  0
    0.8922   -0.6067    0.4184 C   0  0  0  0  0  0  0  0  0  0  0  0
    0.7346   -2.0106   -0.1551 C   0  0  0  0  0  0  0  0  0  0  0  0
   -0.7029   -1.5868   -0.4854 C   0  0  0  0  0  0  0  0  0  0  0  0
   -0.1239   -0.1666   -0.5778 C   0  0  0  0  0  0  0  0  0  0  0  0
   -1.1204    0.8661   -0.1565 C   0  0  0  0  0  0  0  0  0  0  0  0
   -1.9633    0.4137    1.0169 C   0  0  0  0  0  0  0  0  0  0  0  0
   -2.0803    1.0685   -1.3299 C   0  0  0  0  0  0  0  0  0  0  0  0
    3.5351    1.3668    1.1367 H   0  0  0  0  0  0  0  0  0  0  0  0
    1.8193    1.4728    1.5937 H   0  0  0  0  0  0  0  0  0  0  0  0
    2.3851    2.0086   -0.0724 H   0  0  0  0  0  0  0  0  0  0  0  0
    2.9663   -0.7895    0.7932 H   0  0  0  0  0  0  0  0  0  0  0  0
    2.5743   -0.1578   -0.8576 H   0  0  0  0  0  0  0  0  0  0  0  0
    0.5545   -0.5878    1.4544 H   0  0  0  0  0  0  0  0  0  0  0  0
    1.3095   -2.1582   -1.1034 H   0  0  0  0  0  0  0  0  0  0  0  0
    0.8077   -2.8212    0.5809 H   0  0  0  0  0  0  0  0  0  0  0  0
   -1.0969   -1.9834   -1.4174 H   0  0  0  0  0  0  0  0  0  0  0  0
   -1.3130   -1.7544    0.4346 H   0  0  0  0  0  0  0  0  0  0  0  0
    0.2871   -0.0435   -1.5952 H   0  0  0  0  0  0  0  0  0  0  0  0
   -0.6882    1.8317    0.1109 H   0  0  0  0  0  0  0  0  0  0  0  0
   -1.3214    0.0982    1.8512 H   0  0  0  0  0  0  0  0  0  0  0  0
   -2.5364    1.3035    1.4007 H   0  0  0  0  0  0  0  0  0  0  0  0
   -2.7359   -0.3242    0.7326 H   0  0  0  0  0  0  0  0  0  0  0  0
   -1.6484    1.7957   -2.0461 H   0  0  0  0  0  0  0  0  0  0  0  0
   -3.0081    1.4853   -0.8845 H   0  0  0  0  0  0  0  0  0  0  0  0
   -2.3302    0.0977   -1.8019 H   0  0  0  0  0  0  0  0  0  0  0  0
  1  2  1  0
  2  3  1  0
  3  4  1  0
  4  5  1  0
  5  6  1  0
  6  7  1  0
  7  8  1  0
  7  9  1  0
  6  3  1  0
  1 10  1  0
  1 11  1  0
  1 12  1  0
  2 13  1  0
  2 14  1  0
  3 15  1  0
  4 16  1  0
  4 17  1  0
  5 18  1  0
  5 19  1  0
  6 20  1  0
  7 21  1  0
  8 22  1  0
  8 23  1  0
  8 24  1  0
  9 25  1  0
  9 26  1  0
  9 27  1  0
M  END
