
     RDKit          3D

 23 23  0  0  0  0  0  0  0  0999 V2000
   -2.2896   -0.6276    0.4423 C   0  0  0  0  0  0  0  0  0  0  0  0
   -1.5233    0.4468   -0.2621 C   0  0  0  0  0  0  0  0  0  0  0  0
   -0.1599   -0.0163   -0.7197 C   0  0  0  0  0  0  0  0  0  0  0  0
    0.5197    1.1536   -1.4171 C   0  0  0  0  0  0  0  0  0  0  0  0
    1.1678    1.8737   -0.2582 C   0  0  0  0  0  0  0  0  0  0  0  0
    1.5219    0.7394    0.6687 C   0  0  0  0  0  0  0  0  0  0  0  0
    0.7600   -0.3103    0.3867 C   0  0  0  0  0  0  0  0  0  0  0  0
    0.8402   -1.6086    1.1075 C   0  0  0  0  0  0  0  0  0  0  0  0
    1.1703   -2.6559    0.2178 O   0  0  0  0  0  0  0  0  0  0  0  0
   -3.3771   -0.4555    0.2398 H   0  0  0  0  0  0  0  0  0  0  0  0
   -2.1285   -0.5518    1.5428 H   0  0  0  0  0  0  0  0  0  0  0  0
   -2.0052   -1.6180    0.0589 H   0  0  0  0  0  0  0  0  0  0  0  0
   -1.4729    1.3381    0.3787 H   0  0  0  0  0  0  0  0  0  0  0  0
   -2.0909    0.7352   -1.1792 H   0  0  0  0  0  0  0  0  0  0  0  0
   -0.2823   -0.8312   -1.4476 H   0  0  0  0  0  0  0  0  0  0  0  0
   -0.2170    1.7775   -1.9545 H   0  0  0  0  0  0  0  0  0  0  0  0
    1.2754    0.7215   -2.1043 H   0  0  0  0  0  0  0  0  0  0  0  0
    2.0870    2.3729   -0.5647 H   0  0  0  0  0  0  0  0  0  0  0  0
    0.4376    2.4936    0.2653 H   0  0  0  0  0  0  0  0  0  0  0  0
    2.2918    0.8317    1.4287 H   0  0  0  0  0  0  0  0  0  0  0  0
    1.6175   -1.5937    1.9062 H   0  0  0  0  0  0  0  0  0  0  0  0
   -0.1248   -1.8742    1.5473 H   0  0  0  0  0  0  0  0  0  0  0  0
    1.9822   -2.3409   -0.2831 H   0  0  0  0  0  0  0  0  0  0  0  0
  1  2  1  0
  2  3  1  0
  3  4  1  0
  4  5  1  0
  5  6  1  0
  6  7  2  0
  7  8  1  0
  8  9  1  0
  7  3  1  0
  1 10  1  0
  1 11  1  0
  1 12  1  0
  2 13  1  0
  2 14  1  0
  3 15  1  0
  4 16  1  0
  4 17  1  0
  5 18  1  0
  5 19  1  0
  6 20  1  0
  8 21  1  0
  8 22  1  0
  9 23  1  0
M  END
