
     RDKit          3D

 21 21  0  0  0  0  0  0  0  0999 V2000
   -2.8256   -0.4884   -0.0127 C   0  0  0  0  0  0  0  0  0  0  0  0
   -1.8819    0.6539   -0.2247 C   0  0  0  0  0  0  0  0  0  0  0  0
   -0.4712    0.2869   -0.0587 C   0  0  0  0  0  0  0  0  0  0  0  0
   -0.1398   -0.9463    0.2473 C   0  0  0  0  0  0  0  0  0  0  0  0
    1.2351   -1.5112    0.4573 C   0  0  0  0  0  0  0  0  0  0  0  0
    2.0392   -0.5219    1.0189 O   0  0  0  0  0  0  0  0  0  0  0  0
    2.6581    0.2427    0.0268 C   0  0  0  0  0  0  0  0  0  0  0  0
    1.7770    1.4119   -0.2352 C   0  0  0  0  0  0  0  0  0  0  0  0
    0.4540    1.4025   -0.2656 C   0  0  0  0  0  0  0  0  0  0  0  0
   -2.7618   -0.9085    1.0095 H   0  0  0  0  0  0  0  0  0  0  0  0
   -3.8651   -0.0749   -0.1118 H   0  0  0  0  0  0  0  0  0  0  0  0
   -2.6776   -1.2804   -0.7712 H   0  0  0  0  0  0  0  0  0  0  0  0
   -2.0979    1.1141   -1.2085 H   0  0  0  0  0  0  0  0  0  0  0  0
   -2.1147    1.4316    0.5600 H   0  0  0  0  0  0  0  0  0  0  0  0
   -0.9666   -1.6256    0.3582 H   0  0  0  0  0  0  0  0  0  0  0  0
    1.2275   -2.3756    1.1412 H   0  0  0  0  0  0  0  0  0  0  0  0
    1.7018   -1.7977   -0.4985 H   0  0  0  0  0  0  0  0  0  0  0  0
    2.7798   -0.3609   -0.9098 H   0  0  0  0  0  0  0  0  0  0  0  0
    3.6443    0.6010    0.3744 H   0  0  0  0  0  0  0  0  0  0  0  0
    2.2565    2.3682   -0.4201 H   0  0  0  0  0  0  0  0  0  0  0  0
    0.0290    2.3785   -0.4767 H   0  0  0  0  0  0  0  0  0  0  0  0
  1  2  1  0
  2  3  1  0
  3  4  2  0
  4  5  1  0
  5  6  1  0
  6  7  1  0
  7  8  1  0
  8  9  2  0
  9  3  1  0
  1 10  1  0
  1 11  1  0
  1 12  1  0
  2 13  1  0
  2 14  1  0
  4 15  1  0
  5 16  1  0
  5 17  1  0
  7 18  1  0
  7 19  1  0
  8 20  1  0
  9 21  1  0
M  END
