
     RDKit          3D

 22 23  0  0  0  0  0  0  0  0999 V2000
    2.3932    0.3591    0.5398 C   0  0  0  0  0  0  0  0  0  0  0  0
    1.3137   -0.7216    0.7144 C   0  0  0  0  0  0  0  0  0  0  0  0
    0.3590   -0.5579   -0.4063 C   0  0  0  0  0  0  0  0  0  0  0  0
   -0.8077   -1.4586   -0.5329 C   0  0  0  0  0  0  0  0  0  0  0  0
   -1.4017   -0.3453   -1.3731 C   0  0  0  0  0  0  0  0  0  0  0  0
   -0.8124    0.3564   -0.1675 C   0  0  0  0  0  0  0  0  0  0  0  0
   -0.7911    1.7085    0.0476 C   0  0  0  0  0  0  0  0  0  0  0  0
   -1.4259   -0.7256    0.6187 C   0  0  0  0  0  0  0  0  0  0  0  0
    2.6362    0.4923   -0.5290 H   0  0  0  0  0  0  0  0  0  0  0  0
    1.9334    1.3065    0.8821 H   0  0  0  0  0  0  0  0  0  0  0  0
    3.2727    0.1314    1.1655 H   0  0  0  0  0  0  0  0  0  0  0  0
    0.8452   -0.4864    1.6858 H   0  0  0  0  0  0  0  0  0  0  0  0
    1.7770   -1.7290    0.7310 H   0  0  0  0  0  0  0  0  0  0  0  0
    0.8334   -0.3240   -1.3902 H   0  0  0  0  0  0  0  0  0  0  0  0
   -0.8470   -2.4336   -0.7345 H   0  0  0  0  0  0  0  0  0  0  0  0
   -2.4860   -0.3369   -1.4596 H   0  0  0  0  0  0  0  0  0  0  0  0
   -0.8129   -0.0766   -2.2708 H   0  0  0  0  0  0  0  0  0  0  0  0
    0.1167    2.2156   -0.3897 H   0  0  0  0  0  0  0  0  0  0  0  0
   -1.6503    2.2593   -0.4236 H   0  0  0  0  0  0  0  0  0  0  0  0
   -0.8052    2.0169    1.1096 H   0  0  0  0  0  0  0  0  0  0  0  0
   -1.0802   -0.9712    1.6150 H   0  0  0  0  0  0  0  0  0  0  0  0
   -2.5601   -0.6796    0.5678 H   0  0  0  0  0  0  0  0  0  0  0  0
  1  2  1  0
  2  3  1  0
  3  4  1  0
  4  5  1  0
  5  6  1  0
  6  7  1  0
  6  8  1  0
  6  3  1  0
  8  4  1  0
  1  9  1  0
  1 10  1  0
  1 11  1  0
  2 12  1  0
  2 13  1  0
  3 14  1  0
  4 15  1  0
  5 16  1  0
  5 17  1  0
  7 18  1  0
  7 19  1  0
  7 20  1  0
  8 21  1  0
  8 22  1  0
M  END
