
     RDKit          3D

 19 19  0  0  0  0  0  0  0  0999 V2000
    2.6133   -0.0021   -0.0431 C   0  0  0  0  0  0  0  0  0  0  0  0
    1.4084   -0.1102   -0.9462 C   0  0  0  0  0  0  0  0  0  0  0  0
    0.2277    0.5189   -0.2382 C   0  0  0  0  0  0  0  0  0  0  0  0
    0.0014   -0.2378    1.0541 C   0  0  0  0  0  0  0  0  0  0  0  0
   -1.3574    0.0945    1.2707 O   0  0  0  0  0  0  0  0  0  0  0  0
   -1.8714   -0.2130    0.0104 C   0  0  0  0  0  0  0  0  0  0  0  0
   -3.2328    0.3748   -0.1728 C   0  0  0  0  0  0  0  0  0  0  0  0
   -3.7927    0.1781   -1.2344 O   0  0  0  0  0  0  0  0  0  0  0  0
   -0.9648    0.2668   -0.9170 O   0  0  0  0  0  0  0  0  0  0  0  0
    2.8948   -1.0403    0.2852 H   0  0  0  0  0  0  0  0  0  0  0  0
    2.3953    0.5779    0.8739 H   0  0  0  0  0  0  0  0  0  0  0  0
    3.4866    0.4458   -0.5776 H   0  0  0  0  0  0  0  0  0  0  0  0
    1.1369   -1.1795   -1.1243 H   0  0  0  0  0  0  0  0  0  0  0  0
    1.5940    0.3460   -1.9363 H   0  0  0  0  0  0  0  0  0  0  0  0
    0.3794    1.6027   -0.0644 H   0  0  0  0  0  0  0  0  0  0  0  0
    0.6390    0.0823    1.8692 H   0  0  0  0  0  0  0  0  0  0  0  0
    0.0586   -1.3194    0.8134 H   0  0  0  0  0  0  0  0  0  0  0  0
   -1.9554   -1.3272   -0.0369 H   0  0  0  0  0  0  0  0  0  0  0  0
   -3.6610    0.9420    0.6299 H   0  0  0  0  0  0  0  0  0  0  0  0
  1  2  1  0
  2  3  1  0
  3  4  1  0
  4  5  1  0
  5  6  1  0
  6  7  1  0
  7  8  2  0
  6  9  1  0
  9  3  1  0
  1 10  1  0
  1 11  1  0
  1 12  1  0
  2 13  1  0
  2 14  1  0
  3 15  1  0
  4 16  1  0
  4 17  1  0
  6 18  1  0
  7 19  1  0
M  END
