
     RDKit          3D

 21 21  0  0  0  0  0  0  0  0999 V2000
   -2.6996   -0.2711    0.1288 C   0  0  0  0  0  0  0  0  0  0  0  0
   -1.5689    0.2286   -0.7463 C   0  0  0  0  0  0  0  0  0  0  0  0
   -0.2465    0.0916   -0.0890 C   0  0  0  0  0  0  0  0  0  0  0  0
    0.4331    1.2154    0.0943 C   0  0  0  0  0  0  0  0  0  0  0  0
    1.7616    1.3503    0.7194 C   0  0  0  0  0  0  0  0  0  0  0  0
    2.7347    0.5923    0.0935 O   0  0  0  0  0  0  0  0  0  0  0  0
    2.2492   -0.6028   -0.3939 C   0  0  0  0  0  0  0  0  0  0  0  0
    1.5188   -1.3267    0.5450 O   0  0  0  0  0  0  0  0  0  0  0  0
    0.1524   -1.2942    0.2833 C   0  0  0  0  0  0  0  0  0  0  0  0
   -2.3871   -0.3735    1.1926 H   0  0  0  0  0  0  0  0  0  0  0  0
   -3.0982   -1.2339   -0.2543 H   0  0  0  0  0  0  0  0  0  0  0  0
   -3.5676    0.4394    0.1285 H   0  0  0  0  0  0  0  0  0  0  0  0
   -1.6373   -0.3110   -1.7096 H   0  0  0  0  0  0  0  0  0  0  0  0
   -1.7759    1.2995   -0.9501 H   0  0  0  0  0  0  0  0  0  0  0  0
   -0.0735    2.1189   -0.2675 H   0  0  0  0  0  0  0  0  0  0  0  0
    2.0080    2.4271    0.7471 H   0  0  0  0  0  0  0  0  0  0  0  0
    1.7507    1.0211    1.7998 H   0  0  0  0  0  0  0  0  0  0  0  0
    1.7263   -0.4856   -1.3580 H   0  0  0  0  0  0  0  0  0  0  0  0
    3.1548   -1.2399   -0.6216 H   0  0  0  0  0  0  0  0  0  0  0  0
   -0.3850   -1.6271    1.1864 H   0  0  0  0  0  0  0  0  0  0  0  0
   -0.0499   -2.0184   -0.5283 H   0  0  0  0  0  0  0  0  0  0  0  0
  1  2  1  0
  2  3  1  0
  3  4  2  0
  4  5  1  0
  5  6  1  0
  6  7  1  0
  7  8  1  0
  8  9  1  0
  9  3  1  0
  1 10  1  0
  1 11  1  0
  1 12  1  0
  2 13  1  0
  2 14  1  0
  4 15  1  0
  5 16  1  0
  5 17  1  0
  7 18  1  0
  7 19  1  0
  9 20  1  0
  9 21  1  0
M  END
