
     RDKit          3D

 23 23  0  0  0  0  0  0  0  0999 V2000
    2.0758    0.3263    0.7931 C   0  0  0  0  0  0  0  0  0  0  0  0
    1.5288    0.2740   -0.5907 C   0  0  0  0  0  0  0  0  0  0  0  0
    0.1520   -0.1834   -0.7742 C   0  0  0  0  0  0  0  0  0  0  0  0
   -0.1342   -0.1490   -2.1661 O   0  0  0  0  0  0  0  0  0  0  0  0
   -0.1124   -1.6159   -0.3563 C   0  0  0  0  0  0  0  0  0  0  0  0
   -1.4775   -1.6931   -0.6448 O   0  0  0  0  0  0  0  0  0  0  0  0
   -2.0691   -0.5315   -0.2106 C   0  0  0  0  0  0  0  0  0  0  0  0
   -0.9626    0.5335   -0.1304 C   0  0  0  0  0  0  0  0  0  0  0  0
   -0.8350    0.9192    1.2890 C   0  0  0  0  0  0  0  0  0  0  0  0
    3.1050   -0.1444    0.8463 H   0  0  0  0  0  0  0  0  0  0  0  0
    1.4986   -0.1837    1.5596 H   0  0  0  0  0  0  0  0  0  0  0  0
    2.2798    1.3772    1.1455 H   0  0  0  0  0  0  0  0  0  0  0  0
    2.1850   -0.4438   -1.1733 H   0  0  0  0  0  0  0  0  0  0  0  0
    1.6697    1.2407   -1.1375 H   0  0  0  0  0  0  0  0  0  0  0  0
    0.1010    0.7703   -2.4445 H   0  0  0  0  0  0  0  0  0  0  0  0
    0.4447   -2.3521   -0.9375 H   0  0  0  0  0  0  0  0  0  0  0  0
   -0.0247   -1.7474    0.7438 H   0  0  0  0  0  0  0  0  0  0  0  0
   -2.5364   -0.7154    0.7692 H   0  0  0  0  0  0  0  0  0  0  0  0
   -2.8668   -0.1793   -0.9122 H   0  0  0  0  0  0  0  0  0  0  0  0
   -1.2978    1.4301   -0.7287 H   0  0  0  0  0  0  0  0  0  0  0  0
   -0.0618    1.6356    1.5471 H   0  0  0  0  0  0  0  0  0  0  0  0
   -0.8523    0.0037    1.9505 H   0  0  0  0  0  0  0  0  0  0  0  0
   -1.8097    1.4285    1.5628 H   0  0  0  0  0  0  0  0  0  0  0  0
  1  2  1  0
  2  3  1  0
  3  4  1  0
  3  5  1  0
  5  6  1  0
  6  7  1  0
  7  8  1  0
  8  9  1  0
  8  3  1  0
  1 10  1  0
  1 11  1  0
  1 12  1  0
  2 13  1  0
  2 14  1  0
  4 15  1  0
  5 16  1  0
  5 17  1  0
  7 18  1  0
  7 19  1  0
  8 20  1  0
  9 21  1  0
  9 22  1  0
  9 23  1  0
M  END
