
     RDKit          3D

 21 21  0  0  0  0  0  0  0  0999 V2000
   -2.6446   -0.0579   -0.4748 C   0  0  0  0  0  0  0  0  0  0  0  0
   -1.5148   -1.0037   -0.6009 C   0  0  0  0  0  0  0  0  0  0  0  0
   -0.2271   -0.8022    0.0138 C   0  0  0  0  0  0  0  0  0  0  0  0
    0.0809   -0.6713    1.3458 O   0  0  0  0  0  0  0  0  0  0  0  0
    0.3590    0.4410    0.4996 C   0  0  0  0  0  0  0  0  0  0  0  0
   -0.3257    1.6595    0.8699 C   0  0  0  0  0  0  0  0  0  0  0  0
   -1.4358    1.6748    1.3324 O   0  0  0  0  0  0  0  0  0  0  0  0
    1.8388    0.6895    0.1201 C   0  0  0  0  0  0  0  0  0  0  0  0
    2.7079   -0.4151    0.6662 C   0  0  0  0  0  0  0  0  0  0  0  0
   -3.4558   -0.5031   -1.1904 H   0  0  0  0  0  0  0  0  0  0  0  0
   -2.5070    0.9329   -0.9022 H   0  0  0  0  0  0  0  0  0  0  0  0
   -3.1186   -0.1191    0.5021 H   0  0  0  0  0  0  0  0  0  0  0  0
   -1.9503   -2.0427   -0.3221 H   0  0  0  0  0  0  0  0  0  0  0  0
   -1.3099   -1.2087   -1.7234 H   0  0  0  0  0  0  0  0  0  0  0  0
    0.5680   -1.5390   -0.4906 H   0  0  0  0  0  0  0  0  0  0  0  0
    0.1481    2.6427    0.7420 H   0  0  0  0  0  0  0  0  0  0  0  0
    1.8721    0.7840   -0.9803 H   0  0  0  0  0  0  0  0  0  0  0  0
    2.1360    1.6098    0.6507 H   0  0  0  0  0  0  0  0  0  0  0  0
    3.1991   -0.1258    1.6160 H   0  0  0  0  0  0  0  0  0  0  0  0
    2.0829   -1.3163    0.8821 H   0  0  0  0  0  0  0  0  0  0  0  0
    3.4969   -0.6293   -0.0931 H   0  0  0  0  0  0  0  0  0  0  0  0
  1  2  1  0
  2  3  1  0
  3  4  1  0
  4  5  1  0
  5  6  1  0
  6  7  2  0
  5  8  1  0
  8  9  1  0
  5  3  1  0
  1 10  1  0
  1 11  1  0
  1 12  1  0
  2 13  1  0
  2 14  1  0
  3 15  1  0
  6 16  1  0
  8 17  1  0
  8 18  1  0
  9 19  1  0
  9 20  1  0
  9 21  1  0
M  END
