
     RDKit          3D

 21 23  0  0  0  0  0  0  0  0999 V2000
    2.5477    0.1817   -0.5846 C   0  0  0  0  0  0  0  0  0  0  0  0
    1.7601   -0.4999    0.5084 C   0  0  0  0  0  0  0  0  0  0  0  0
    0.2975   -0.1951    0.4581 C   0  0  0  0  0  0  0  0  0  0  0  0
   -0.0553    1.2725    0.5950 C   0  0  0  0  0  0  0  0  0  0  0  0
   -0.3232    0.5328   -0.6659 C   0  0  0  0  0  0  0  0  0  0  0  0
   -1.6631   -0.0889   -0.8252 C   0  0  0  0  0  0  0  0  0  0  0  0
   -2.7017   -0.0738    0.1927 C   0  0  0  0  0  0  0  0  0  0  0  0
   -1.6563   -1.2303    0.1188 C   0  0  0  0  0  0  0  0  0  0  0  0
   -0.5656   -1.1362    0.9449 O   0  0  0  0  0  0  0  0  0  0  0  0
    2.7548    1.2445   -0.3632 H   0  0  0  0  0  0  0  0  0  0  0  0
    2.1190    0.0306   -1.5895 H   0  0  0  0  0  0  0  0  0  0  0  0
    3.5522   -0.3337   -0.6030 H   0  0  0  0  0  0  0  0  0  0  0  0
    1.9188   -1.5957    0.4682 H   0  0  0  0  0  0  0  0  0  0  0  0
    2.1898   -0.1455    1.4797 H   0  0  0  0  0  0  0  0  0  0  0  0
    0.7866    2.0085    0.5721 H   0  0  0  0  0  0  0  0  0  0  0  0
   -0.8585    1.5750    1.2775 H   0  0  0  0  0  0  0  0  0  0  0  0
    0.2494    0.8481   -1.5606 H   0  0  0  0  0  0  0  0  0  0  0  0
   -1.9695   -0.2705   -1.8785 H   0  0  0  0  0  0  0  0  0  0  0  0
   -2.6509    0.4447    1.1504 H   0  0  0  0  0  0  0  0  0  0  0  0
   -3.7167   -0.3791   -0.1070 H   0  0  0  0  0  0  0  0  0  0  0  0
   -2.0150   -2.1896   -0.2760 H   0  0  0  0  0  0  0  0  0  0  0  0
  1  2  1  0
  2  3  1  0
  3  4  1  0
  4  5  1  0
  5  6  1  0
  6  7  1  0
  7  8  1  0
  8  9  1  0
  5  3  1  0
  8  6  1  0
  9  3  1  0
  1 10  1  0
  1 11  1  0
  1 12  1  0
  2 13  1  0
  2 14  1  0
  4 15  1  0
  4 16  1  0
  5 17  1  0
  6 18  1  0
  7 19  1  0
  7 20  1  0
  8 21  1  0
M  END
