
     RDKit          3D

 21 21  0  0  0  0  0  0  0  0999 V2000
   -2.1608   -1.1853    0.4236 C   0  0  0  0  0  0  0  0  0  0  0  0
   -2.1395    0.0970   -0.3668 C   0  0  0  0  0  0  0  0  0  0  0  0
   -0.7497    0.6162   -0.6015 C   0  0  0  0  0  0  0  0  0  0  0  0
    0.0525    0.9325    0.6210 C   0  0  0  0  0  0  0  0  0  0  0  0
    1.2810    0.4164   -0.1411 C   0  0  0  0  0  0  0  0  0  0  0  0
    2.1665   -0.3434    0.6173 O   0  0  0  0  0  0  0  0  0  0  0  0
    3.5204   -0.0101    0.5733 C   0  0  0  0  0  0  0  0  0  0  0  0
    3.9069    0.9570   -0.1412 O   0  0  0  0  0  0  0  0  0  0  0  0
    0.2873   -0.4012   -0.9796 C   0  0  0  0  0  0  0  0  0  0  0  0
   -3.2528   -1.4493    0.5447 H   0  0  0  0  0  0  0  0  0  0  0  0
   -1.7846   -1.0576    1.4537 H   0  0  0  0  0  0  0  0  0  0  0  0
   -1.7194   -2.0398   -0.1159 H   0  0  0  0  0  0  0  0  0  0  0  0
   -2.7004    0.8570    0.2166 H   0  0  0  0  0  0  0  0  0  0  0  0
   -2.6773   -0.0368   -1.3263 H   0  0  0  0  0  0  0  0  0  0  0  0
   -0.7359    1.4686   -1.3033 H   0  0  0  0  0  0  0  0  0  0  0  0
   -0.1039    0.2579    1.4933 H   0  0  0  0  0  0  0  0  0  0  0  0
    0.0866    2.0067    0.8578 H   0  0  0  0  0  0  0  0  0  0  0  0
    1.6985    1.2429   -0.7374 H   0  0  0  0  0  0  0  0  0  0  0  0
    4.2789   -0.5469    1.1312 H   0  0  0  0  0  0  0  0  0  0  0  0
    0.5788   -0.3775   -2.0641 H   0  0  0  0  0  0  0  0  0  0  0  0
    0.1669   -1.4043   -0.5573 H   0  0  0  0  0  0  0  0  0  0  0  0
  1  2  1  0
  2  3  1  0
  3  4  1  0
  4  5  1  0
  5  6  1  0
  6  7  1  0
  7  8  2  0
  5  9  1  0
  9  3  1  0
  1 10  1  0
  1 11  1  0
  1 12  1  0
  2 13  1  0
  2 14  1  0
  3 15  1  0
  4 16  1  0
  4 17  1  0
  5 18  1  0
  7 19  1  0
  9 20  1  0
  9 21  1  0
M  END
