
     RDKit          3D

 23 23  0  0  0  0  0  0  0  0999 V2000
    2.8438   -0.3361   -0.1343 C   0  0  0  0  0  0  0  0  0  0  0  0
    1.4430   -0.4499   -0.7550 C   0  0  0  0  0  0  0  0  0  0  0  0
    0.4786   -0.2915    0.3728 C   0  0  0  0  0  0  0  0  0  0  0  0
    0.6461    0.9238    0.9716 O   0  0  0  0  0  0  0  0  0  0  0  0
   -0.5719    1.5445    1.0999 C   0  0  0  0  0  0  0  0  0  0  0  0
   -1.6287    0.4318    1.0472 C   0  0  0  0  0  0  0  0  0  0  0  0
   -0.9498   -0.4801    0.0116 C   0  0  0  0  0  0  0  0  0  0  0  0
   -1.3401    0.0203   -1.3330 C   0  0  0  0  0  0  0  0  0  0  0  0
   -1.3320   -1.7975    0.2446 O   0  0  0  0  0  0  0  0  0  0  0  0
    2.8027   -0.6802    0.9280 H   0  0  0  0  0  0  0  0  0  0  0  0
    3.2195    0.7031   -0.2188 H   0  0  0  0  0  0  0  0  0  0  0  0
    3.5186   -1.0537   -0.6502 H   0  0  0  0  0  0  0  0  0  0  0  0
    1.3323   -1.4164   -1.2927 H   0  0  0  0  0  0  0  0  0  0  0  0
    1.3755    0.3455   -1.5131 H   0  0  0  0  0  0  0  0  0  0  0  0
    0.7379   -1.0778    1.1376 H   0  0  0  0  0  0  0  0  0  0  0  0
   -0.7557    2.1524    0.1777 H   0  0  0  0  0  0  0  0  0  0  0  0
   -0.6841    2.1631    2.0031 H   0  0  0  0  0  0  0  0  0  0  0  0
   -2.5872    0.7959    0.6566 H   0  0  0  0  0  0  0  0  0  0  0  0
   -1.7041   -0.0774    2.0264 H   0  0  0  0  0  0  0  0  0  0  0  0
   -1.6101   -0.8661   -1.9655 H   0  0  0  0  0  0  0  0  0  0  0  0
   -2.2979    0.6128   -1.2714 H   0  0  0  0  0  0  0  0  0  0  0  0
   -0.6150    0.6466   -1.8423 H   0  0  0  0  0  0  0  0  0  0  0  0
   -2.3214   -1.8130    0.2990 H   0  0  0  0  0  0  0  0  0  0  0  0
  1  2  1  0
  2  3  1  0
  3  4  1  0
  4  5  1  0
  5  6  1  0
  6  7  1  0
  7  8  1  0
  7  9  1  0
  7  3  1  0
  1 10  1  0
  1 11  1  0
  1 12  1  0
  2 13  1  0
  2 14  1  0
  3 15  1  0
  5 16  1  0
  5 17  1  0
  6 18  1  0
  6 19  1  0
  8 20  1  0
  8 21  1  0
  8 22  1  0
  9 23  1  0
M  END
