
     RDKit          3D

 23 24  0  0  0  0  0  0  0  0999 V2000
    2.6201    0.2698   -0.6294 C   0  0  0  0  0  0  0  0  0  0  0  0
    1.9081    0.5437    0.6466 C   0  0  0  0  0  0  0  0  0  0  0  0
    0.4808    0.1448    0.6893 C   0  0  0  0  0  0  0  0  0  0  0  0
    0.1948   -1.2940    0.4752 C   0  0  0  0  0  0  0  0  0  0  0  0
   -1.3207   -1.2766    0.2744 C   0  0  0  0  0  0  0  0  0  0  0  0
   -1.6563    0.0899   -0.2549 C   0  0  0  0  0  0  0  0  0  0  0  0
   -2.8747    0.4510   -0.7412 C   0  0  0  0  0  0  0  0  0  0  0  0
   -2.5599    0.8567    0.6725 O   0  0  0  0  0  0  0  0  0  0  0  0
   -0.3673    0.8212   -0.3675 C   0  0  0  0  0  0  0  0  0  0  0  0
    2.1344   -0.4413   -1.2966 H   0  0  0  0  0  0  0  0  0  0  0  0
    2.7721    1.2173   -1.2048 H   0  0  0  0  0  0  0  0  0  0  0  0
    3.6639   -0.0914   -0.4053 H   0  0  0  0  0  0  0  0  0  0  0  0
    1.9699    1.6309    0.8648 H   0  0  0  0  0  0  0  0  0  0  0  0
    2.4330    0.0362    1.4818 H   0  0  0  0  0  0  0  0  0  0  0  0
    0.0626    0.4463    1.6683 H   0  0  0  0  0  0  0  0  0  0  0  0
    0.4582   -1.9283    1.3509 H   0  0  0  0  0  0  0  0  0  0  0  0
    0.6135   -1.7241   -0.4408 H   0  0  0  0  0  0  0  0  0  0  0  0
   -1.7679   -1.4607    1.2592 H   0  0  0  0  0  0  0  0  0  0  0  0
   -1.6257   -2.0212   -0.4916 H   0  0  0  0  0  0  0  0  0  0  0  0
   -3.0655    1.3591   -1.3595 H   0  0  0  0  0  0  0  0  0  0  0  0
   -3.7761   -0.1903   -0.6628 H   0  0  0  0  0  0  0  0  0  0  0  0
   -0.4559    1.9167   -0.1871 H   0  0  0  0  0  0  0  0  0  0  0  0
    0.1586    0.6445   -1.3416 H   0  0  0  0  0  0  0  0  0  0  0  0
  1  2  1  0
  2  3  1  0
  3  4  1  0
  4  5  1  0
  5  6  1  0
  6  7  1  0
  7  8  1  0
  6  9  1  0
  9  3  1  0
  8  6  1  0
  1 10  1  0
  1 11  1  0
  1 12  1  0
  2 13  1  0
  2 14  1  0
  3 15  1  0
  4 16  1  0
  4 17  1  0
  5 18  1  0
  5 19  1  0
  7 20  1  0
  7 21  1  0
  9 22  1  0
  9 23  1  0
M  END
