
     RDKit          3D

 23 24  0  0  0  0  0  0  0  0999 V2000
   -1.7049    1.4959   -0.5311 C   0  0  0  0  0  0  0  0  0  0  0  0
   -1.8458    0.0030   -0.3733 C   0  0  0  0  0  0  0  0  0  0  0  0
   -0.5095   -0.6576   -0.0754 C   0  0  0  0  0  0  0  0  0  0  0  0
   -0.6947   -2.1817    0.0794 C   0  0  0  0  0  0  0  0  0  0  0  0
    0.3822    0.0281    0.7597 C   0  0  0  0  0  0  0  0  0  0  0  0
    1.1396    1.2517    0.7958 C   0  0  0  0  0  0  0  0  0  0  0  0
    2.2228    1.0641    0.0495 C   0  0  0  0  0  0  0  0  0  0  0  0
    2.1340   -0.3638   -0.4920 C   0  0  0  0  0  0  0  0  0  0  0  0
    0.6512   -0.2771   -0.7505 C   0  0  0  0  0  0  0  0  0  0  0  0
   -2.7356    1.9202   -0.6603 H   0  0  0  0  0  0  0  0  0  0  0  0
   -1.1373    1.7764   -1.4306 H   0  0  0  0  0  0  0  0  0  0  0  0
   -1.2924    1.9878    0.3495 H   0  0  0  0  0  0  0  0  0  0  0  0
   -2.6265   -0.2899    0.3279 H   0  0  0  0  0  0  0  0  0  0  0  0
   -2.1527   -0.3866   -1.3798 H   0  0  0  0  0  0  0  0  0  0  0  0
   -1.0925   -2.4182    1.0993 H   0  0  0  0  0  0  0  0  0  0  0  0
    0.2818   -2.7038    0.0014 H   0  0  0  0  0  0  0  0  0  0  0  0
   -1.3438   -2.5383   -0.7212 H   0  0  0  0  0  0  0  0  0  0  0  0
    0.8866   -0.6793    1.5091 H   0  0  0  0  0  0  0  0  0  0  0  0
    0.8612    2.1684    1.3482 H   0  0  0  0  0  0  0  0  0  0  0  0
    3.0238    1.7502   -0.1580 H   0  0  0  0  0  0  0  0  0  0  0  0
    2.7153   -0.4766   -1.4068 H   0  0  0  0  0  0  0  0  0  0  0  0
    2.3375   -1.0579    0.3161 H   0  0  0  0  0  0  0  0  0  0  0  0
    0.4995    0.5850   -1.4726 H   0  0  0  0  0  0  0  0  0  0  0  0
  1  2  1  0
  2  3  1  0
  3  4  1  0
  3  5  1  0
  5  6  1  0
  6  7  2  0
  7  8  1  0
  8  9  1  0
  9  3  1  0
  9  5  1  0
  1 10  1  0
  1 11  1  0
  1 12  1  0
  2 13  1  0
  2 14  1  0
  4 15  1  0
  4 16  1  0
  4 17  1  0
  5 18  1  0
  6 19  1  0
  7 20  1  0
  8 21  1  0
  8 22  1  0
  9 23  1  0
M  END
