
     RDKit          3D

 20 20  0  0  0  0  0  0  0  0999 V2000
    2.2622    0.5041    0.4335 C   0  0  0  0  0  0  0  0  0  0  0  0
    1.4256   -0.3376   -0.4729 C   0  0  0  0  0  0  0  0  0  0  0  0
   -0.0515   -0.1731   -0.2609 C   0  0  0  0  0  0  0  0  0  0  0  0
   -0.7535   -1.0997   -1.2632 C   0  0  0  0  0  0  0  0  0  0  0  0
   -0.4879   -0.4129    1.1088 C   0  0  0  0  0  0  0  0  0  0  0  0
   -1.5379    0.3625    1.3479 C   0  0  0  0  0  0  0  0  0  0  0  0
   -1.7693    1.1247    0.0683 C   0  0  0  0  0  0  0  0  0  0  0  0
   -0.5015    1.1062   -0.5525 O   0  0  0  0  0  0  0  0  0  0  0  0
    2.4019    0.0522    1.4496 H   0  0  0  0  0  0  0  0  0  0  0  0
    1.9102    1.5458    0.4784 H   0  0  0  0  0  0  0  0  0  0  0  0
    3.2979    0.5321   -0.0050 H   0  0  0  0  0  0  0  0  0  0  0  0
    1.6671   -1.4058   -0.2696 H   0  0  0  0  0  0  0  0  0  0  0  0
    1.7256   -0.1190   -1.5138 H   0  0  0  0  0  0  0  0  0  0  0  0
   -0.2422   -2.0767   -1.1939 H   0  0  0  0  0  0  0  0  0  0  0  0
   -1.8161   -1.1883   -0.9622 H   0  0  0  0  0  0  0  0  0  0  0  0
   -0.6630   -0.6345   -2.2608 H   0  0  0  0  0  0  0  0  0  0  0  0
   -0.0877   -1.0889    1.8775 H   0  0  0  0  0  0  0  0  0  0  0  0
   -2.1423    0.4823    2.2215 H   0  0  0  0  0  0  0  0  0  0  0  0
   -2.0882    2.1545    0.3225 H   0  0  0  0  0  0  0  0  0  0  0  0
   -2.5494    0.6721   -0.5533 H   0  0  0  0  0  0  0  0  0  0  0  0
  1  2  1  0
  2  3  1  0
  3  4  1  0
  3  5  1  0
  5  6  2  0
  6  7  1  0
  7  8  1  0
  8  3  1  0
  1  9  1  0
  1 10  1  0
  1 11  1  0
  2 12  1  0
  2 13  1  0
  4 14  1  0
  4 15  1  0
  4 16  1  0
  5 17  1  0
  6 18  1  0
  7 19  1  0
  7 20  1  0
M  END
