
     RDKit          3D

 23 23  0  0  0  0  0  0  0  0999 V2000
    2.8682    0.3279   -1.0505 C   0  0  0  0  0  0  0  0  0  0  0  0
    2.2090    0.0066    0.2501 C   0  0  0  0  0  0  0  0  0  0  0  0
    0.8576   -0.6564    0.0851 C   0  0  0  0  0  0  0  0  0  0  0  0
    0.1907   -0.9815    1.4093 C   0  0  0  0  0  0  0  0  0  0  0  0
   -0.3333    0.1203    0.4800 C   0  0  0  0  0  0  0  0  0  0  0  0
   -1.7011   -0.1651   -0.0580 C   0  0  0  0  0  0  0  0  0  0  0  0
   -2.6647    0.8361    0.5756 C   0  0  0  0  0  0  0  0  0  0  0  0
   -1.8164   -0.0410   -1.5097 C   0  0  0  0  0  0  0  0  0  0  0  0
   -2.8596   -0.3605   -2.0410 O   0  0  0  0  0  0  0  0  0  0  0  0
    3.4729   -0.5640   -1.3492 H   0  0  0  0  0  0  0  0  0  0  0  0
    2.1015    0.5014   -1.8333 H   0  0  0  0  0  0  0  0  0  0  0  0
    3.5322    1.1985   -0.8921 H   0  0  0  0  0  0  0  0  0  0  0  0
    2.0925    0.9199    0.9012 H   0  0  0  0  0  0  0  0  0  0  0  0
    2.8935   -0.6693    0.8387 H   0  0  0  0  0  0  0  0  0  0  0  0
    0.8195   -1.4324   -0.7148 H   0  0  0  0  0  0  0  0  0  0  0  0
    0.6733   -0.6723    2.3526 H   0  0  0  0  0  0  0  0  0  0  0  0
   -0.3549   -1.9276    1.4671 H   0  0  0  0  0  0  0  0  0  0  0  0
   -0.1547    1.1743    0.7695 H   0  0  0  0  0  0  0  0  0  0  0  0
   -2.0834   -1.1678    0.2334 H   0  0  0  0  0  0  0  0  0  0  0  0
   -2.7487    1.7445   -0.0660 H   0  0  0  0  0  0  0  0  0  0  0  0
   -3.6727    0.3892    0.6885 H   0  0  0  0  0  0  0  0  0  0  0  0
   -2.3064    1.0968    1.5948 H   0  0  0  0  0  0  0  0  0  0  0  0
   -1.0149    0.3223   -2.1311 H   0  0  0  0  0  0  0  0  0  0  0  0
  1  2  1  0
  2  3  1  0
  3  4  1  0
  4  5  1  0
  5  6  1  0
  6  7  1  0
  6  8  1  0
  8  9  2  0
  5  3  1  0
  1 10  1  0
  1 11  1  0
  1 12  1  0
  2 13  1  0
  2 14  1  0
  3 15  1  0
  4 16  1  0
  4 17  1  0
  5 18  1  0
  6 19  1  0
  7 20  1  0
  7 21  1  0
  7 22  1  0
  8 23  1  0
M  END
