
     RDKit          3D

 23 25  0  0  0  0  0  0  0  0999 V2000
    2.7751   -0.1108    0.3237 C   0  0  0  0  0  0  0  0  0  0  0  0
    1.7259   -0.4078   -0.6947 C   0  0  0  0  0  0  0  0  0  0  0  0
    0.3343   -0.1010   -0.2679 C   0  0  0  0  0  0  0  0  0  0  0  0
   -0.0731    1.2855    0.1169 C   0  0  0  0  0  0  0  0  0  0  0  0
   -1.3186    1.1512    0.9731 C   0  0  0  0  0  0  0  0  0  0  0  0
   -1.7954   -0.2563    0.7031 C   0  0  0  0  0  0  0  0  0  0  0  0
   -2.1315   -0.3848   -0.7837 C   0  0  0  0  0  0  0  0  0  0  0  0
   -0.7338   -0.8829   -0.9900 C   0  0  0  0  0  0  0  0  0  0  0  0
   -0.5383   -1.0029    0.4665 C   0  0  0  0  0  0  0  0  0  0  0  0
    2.3657    0.0258    1.3515 H   0  0  0  0  0  0  0  0  0  0  0  0
    3.4944   -0.9743    0.4135 H   0  0  0  0  0  0  0  0  0  0  0  0
    3.3992    0.7724    0.0893 H   0  0  0  0  0  0  0  0  0  0  0  0
    1.9460    0.2394   -1.5935 H   0  0  0  0  0  0  0  0  0  0  0  0
    1.7974   -1.4428   -1.0536 H   0  0  0  0  0  0  0  0  0  0  0  0
   -0.3085    1.8401   -0.8222 H   0  0  0  0  0  0  0  0  0  0  0  0
    0.7083    1.8646    0.6304 H   0  0  0  0  0  0  0  0  0  0  0  0
   -2.0811    1.9096    0.6495 H   0  0  0  0  0  0  0  0  0  0  0  0
   -1.0723    1.2701    2.0414 H   0  0  0  0  0  0  0  0  0  0  0  0
   -2.5363   -0.6588    1.3833 H   0  0  0  0  0  0  0  0  0  0  0  0
   -2.9436   -1.0925   -1.0006 H   0  0  0  0  0  0  0  0  0  0  0  0
   -2.2639    0.5905   -1.3009 H   0  0  0  0  0  0  0  0  0  0  0  0
   -0.4938   -1.7277   -1.6178 H   0  0  0  0  0  0  0  0  0  0  0  0
   -0.2560   -1.9067    0.9827 H   0  0  0  0  0  0  0  0  0  0  0  0
  1  2  1  0
  2  3  1  0
  3  4  1  0
  4  5  1  0
  5  6  1  0
  6  7  1  0
  7  8  1  0
  8  9  1  0
  8  3  1  0
  9  3  1  0
  9  6  1  0
  1 10  1  0
  1 11  1  0
  1 12  1  0
  2 13  1  0
  2 14  1  0
  4 15  1  0
  4 16  1  0
  5 17  1  0
  5 18  1  0
  6 19  1  0
  7 20  1  0
  7 21  1  0
  8 22  1  0
  9 23  1  0
M  END
