
     RDKit          3D

 19 19  0  0  0  0  0  0  0  0999 V2000
   -2.4044    0.1271    0.3891 C   0  0  0  0  0  0  0  0  0  0  0  0
   -1.5478   -0.3588   -0.7262 C   0  0  0  0  0  0  0  0  0  0  0  0
   -0.0842   -0.1580   -0.5175 C   0  0  0  0  0  0  0  0  0  0  0  0
    0.4670   -0.8452    0.6875 C   0  0  0  0  0  0  0  0  0  0  0  0
    1.8381   -0.8863    0.6685 O   0  0  0  0  0  0  0  0  0  0  0  0
    2.4409    0.1305   -0.0329 C   0  0  0  0  0  0  0  0  0  0  0  0
    1.6340    1.3801   -0.0697 C   0  0  0  0  0  0  0  0  0  0  0  0
    2.1189    2.4969    0.2154 O   0  0  0  0  0  0  0  0  0  0  0  0
    0.2923    1.2066   -0.4478 O   0  0  0  0  0  0  0  0  0  0  0  0
   -2.2029   -0.3649    1.3581 H   0  0  0  0  0  0  0  0  0  0  0  0
   -3.4605   -0.1021    0.1378 H   0  0  0  0  0  0  0  0  0  0  0  0
   -2.3227    1.2244    0.4533 H   0  0  0  0  0  0  0  0  0  0  0  0
   -1.7093   -1.4458   -0.8771 H   0  0  0  0  0  0  0  0  0  0  0  0
   -1.8423    0.1629   -1.6497 H   0  0  0  0  0  0  0  0  0  0  0  0
    0.4416   -0.5740   -1.4099 H   0  0  0  0  0  0  0  0  0  0  0  0
    0.1743   -0.2286    1.5865 H   0  0  0  0  0  0  0  0  0  0  0  0
    0.0427   -1.8513    0.8643 H   0  0  0  0  0  0  0  0  0  0  0  0
    3.4433    0.3107    0.4392 H   0  0  0  0  0  0  0  0  0  0  0  0
    2.6810   -0.2241   -1.0690 H   0  0  0  0  0  0  0  0  0  0  0  0
  1  2  1  0
  2  3  1  0
  3  4  1  0
  4  5  1  0
  5  6  1  0
  6  7  1  0
  7  8  2  0
  7  9  1  0
  9  3  1  0
  1 10  1  0
  1 11  1  0
  1 12  1  0
  2 13  1  0
  2 14  1  0
  3 15  1  0
  4 16  1  0
  4 17  1  0
  6 18  1  0
  6 19  1  0
M  END
