
     RDKit          3D

 25 26  0  0  0  0  0  0  0  0999 V2000
    2.8346   -1.0658   -0.1165 C   0  0  0  0  0  0  0  0  0  0  0  0
    2.1365    0.2662   -0.2929 C   0  0  0  0  0  0  0  0  0  0  0  0
    0.6841    0.0059   -0.6038 C   0  0  0  0  0  0  0  0  0  0  0  0
   -0.1561    1.2358   -0.8094 C   0  0  0  0  0  0  0  0  0  0  0  0
   -1.1873    0.7351    0.1261 C   0  0  0  0  0  0  0  0  0  0  0  0
   -1.6139    1.7292    1.2032 C   0  0  0  0  0  0  0  0  0  0  0  0
   -1.5958   -0.6664    0.2584 C   0  0  0  0  0  0  0  0  0  0  0  0
   -1.9435   -1.5345   -0.9205 C   0  0  0  0  0  0  0  0  0  0  0  0
   -0.1762   -0.3449    0.5652 C   0  0  0  0  0  0  0  0  0  0  0  0
    2.0736   -1.8617    0.0977 H   0  0  0  0  0  0  0  0  0  0  0  0
    3.3392   -1.4010   -1.0622 H   0  0  0  0  0  0  0  0  0  0  0  0
    3.5538   -1.0404    0.7267 H   0  0  0  0  0  0  0  0  0  0  0  0
    2.6351    0.7874   -1.1347 H   0  0  0  0  0  0  0  0  0  0  0  0
    2.2690    0.9151    0.6027 H   0  0  0  0  0  0  0  0  0  0  0  0
    0.6106   -0.6487   -1.4939 H   0  0  0  0  0  0  0  0  0  0  0  0
   -0.4608    1.4561   -1.8453 H   0  0  0  0  0  0  0  0  0  0  0  0
    0.4138    2.1281   -0.4191 H   0  0  0  0  0  0  0  0  0  0  0  0
   -1.6298    1.2726    2.2078 H   0  0  0  0  0  0  0  0  0  0  0  0
   -2.6542    2.0463    0.9173 H   0  0  0  0  0  0  0  0  0  0  0  0
   -0.9772    2.6477    1.1797 H   0  0  0  0  0  0  0  0  0  0  0  0
   -2.2167   -0.9047    1.1491 H   0  0  0  0  0  0  0  0  0  0  0  0
   -2.9418   -1.3397   -1.3278 H   0  0  0  0  0  0  0  0  0  0  0  0
   -1.9770   -2.5953   -0.5323 H   0  0  0  0  0  0  0  0  0  0  0  0
   -1.2217   -1.5173   -1.7286 H   0  0  0  0  0  0  0  0  0  0  0  0
    0.2019   -0.3053    1.5922 H   0  0  0  0  0  0  0  0  0  0  0  0
  1  2  1  0
  2  3  1  0
  3  4  1  0
  4  5  1  0
  5  6  1  0
  5  7  1  0
  7  8  1  0
  7  9  1  0
  9  3  1  0
  9  5  1  0
  1 10  1  0
  1 11  1  0
  1 12  1  0
  2 13  1  0
  2 14  1  0
  3 15  1  0
  4 16  1  0
  4 17  1  0
  6 18  1  0
  6 19  1  0
  6 20  1  0
  7 21  1  0
  8 22  1  0
  8 23  1  0
  8 24  1  0
  9 25  1  0
M  END
