
     RDKit          3D

 23 23  0  0  0  0  0  0  0  0999 V2000
   -2.0815   -1.5806   -0.7634 C   0  0  0  0  0  0  0  0  0  0  0  0
   -1.6286   -0.2378   -0.2848 C   0  0  0  0  0  0  0  0  0  0  0  0
   -0.3001   -0.2529    0.3989 C   0  0  0  0  0  0  0  0  0  0  0  0
    0.1510    1.1190    0.8838 C   0  0  0  0  0  0  0  0  0  0  0  0
   -0.6236    2.3347    0.3909 C   0  0  0  0  0  0  0  0  0  0  0  0
    0.9019    0.3633   -0.2036 C   0  0  0  0  0  0  0  0  0  0  0  0
    2.2598   -0.1123    0.1820 C   0  0  0  0  0  0  0  0  0  0  0  0
    2.4923   -1.5476   -0.1133 C   0  0  0  0  0  0  0  0  0  0  0  0
    2.7646   -1.9166   -1.2556 O   0  0  0  0  0  0  0  0  0  0  0  0
   -2.1794   -1.6587   -1.8656 H   0  0  0  0  0  0  0  0  0  0  0  0
   -1.4160   -2.3407   -0.3243 H   0  0  0  0  0  0  0  0  0  0  0  0
   -3.1089   -1.8181   -0.3596 H   0  0  0  0  0  0  0  0  0  0  0  0
   -2.3813    0.1519    0.4601 H   0  0  0  0  0  0  0  0  0  0  0  0
   -1.6227    0.4532   -1.1392 H   0  0  0  0  0  0  0  0  0  0  0  0
   -0.0961   -1.0974    1.1080 H   0  0  0  0  0  0  0  0  0  0  0  0
    0.5759    1.2090    1.8878 H   0  0  0  0  0  0  0  0  0  0  0  0
   -0.7778    2.2642   -0.7235 H   0  0  0  0  0  0  0  0  0  0  0  0
   -1.6052    2.3906    0.9041 H   0  0  0  0  0  0  0  0  0  0  0  0
    0.0088    3.2230    0.5524 H   0  0  0  0  0  0  0  0  0  0  0  0
    0.8002    0.7616   -1.2556 H   0  0  0  0  0  0  0  0  0  0  0  0
    3.0039    0.5298   -0.3754 H   0  0  0  0  0  0  0  0  0  0  0  0
    2.4336    0.0608    1.2393 H   0  0  0  0  0  0  0  0  0  0  0  0
    2.4294   -2.2985    0.6568 H   0  0  0  0  0  0  0  0  0  0  0  0
  1  2  1  0
  2  3  1  0
  3  4  1  0
  4  5  1  0
  4  6  1  0
  6  7  1  0
  7  8  1  0
  8  9  2  0
  6  3  1  0
  1 10  1  0
  1 11  1  0
  1 12  1  0
  2 13  1  0
  2 14  1  0
  3 15  1  0
  4 16  1  0
  5 17  1  0
  5 18  1  0
  5 19  1  0
  6 20  1  0
  7 21  1  0
  7 22  1  0
  8 23  1  0
M  END
