
     RDKit          3D

 21 22  0  0  0  0  0  0  0  0999 V2000
    2.3812   -0.2510    0.2950 C   0  0  0  0  0  0  0  0  0  0  0  0
    1.7763    0.5774   -0.7827 C   0  0  0  0  0  0  0  0  0  0  0  0
    0.2995    0.4398   -0.9147 C   0  0  0  0  0  0  0  0  0  0  0  0
   -0.1694   -0.8432   -1.1994 O   0  0  0  0  0  0  0  0  0  0  0  0
   -1.3740   -0.4232   -0.5852 C   0  0  0  0  0  0  0  0  0  0  0  0
   -2.1572   -1.5053    0.0647 C   0  0  0  0  0  0  0  0  0  0  0  0
   -0.5425    0.4512    0.2775 C   0  0  0  0  0  0  0  0  0  0  0  0
   -0.8467    1.3279    1.2555 C   0  0  0  0  0  0  0  0  0  0  0  0
   -0.1390    0.1090    1.5319 O   0  0  0  0  0  0  0  0  0  0  0  0
    3.5020   -0.1978    0.1630 H   0  0  0  0  0  0  0  0  0  0  0  0
    2.1874    0.1252    1.3056 H   0  0  0  0  0  0  0  0  0  0  0  0
    2.1214   -1.3220    0.1518 H   0  0  0  0  0  0  0  0  0  0  0  0
    2.2324    0.2760   -1.7620 H   0  0  0  0  0  0  0  0  0  0  0  0
    2.0153    1.6453   -0.6472 H   0  0  0  0  0  0  0  0  0  0  0  0
   -0.0797    1.1323   -1.7049 H   0  0  0  0  0  0  0  0  0  0  0  0
   -1.9214    0.1969   -1.3500 H   0  0  0  0  0  0  0  0  0  0  0  0
   -2.1873   -1.4572    1.1676 H   0  0  0  0  0  0  0  0  0  0  0  0
   -1.7872   -2.4964   -0.2577 H   0  0  0  0  0  0  0  0  0  0  0  0
   -3.2260   -1.4012   -0.2751 H   0  0  0  0  0  0  0  0  0  0  0  0
   -1.8636    1.4071    1.7419 H   0  0  0  0  0  0  0  0  0  0  0  0
   -0.2214    2.2092    1.5246 H   0  0  0  0  0  0  0  0  0  0  0  0
  1  2  1  0
  2  3  1  0
  3  4  1  0
  4  5  1  0
  5  6  1  0
  5  7  1  0
  7  8  1  0
  8  9  1  0
  7  3  1  0
  9  7  1  0
  1 10  1  0
  1 11  1  0
  1 12  1  0
  2 13  1  0
  2 14  1  0
  3 15  1  0
  5 16  1  0
  6 17  1  0
  6 18  1  0
  6 19  1  0
  8 20  1  0
  8 21  1  0
M  END
