
     RDKit          3D

 23 24  0  0  0  0  0  0  0  0999 V2000
   -2.7284    0.4394   -0.0191 C   0  0  0  0  0  0  0  0  0  0  0  0
   -1.2987    0.9441    0.1570 C   0  0  0  0  0  0  0  0  0  0  0  0
   -0.3947   -0.1673   -0.3422 C   0  0  0  0  0  0  0  0  0  0  0  0
   -0.5863   -1.4668    0.4419 C   0  0  0  0  0  0  0  0  0  0  0  0
    0.8577   -1.3615    0.9061 C   0  0  0  0  0  0  0  0  0  0  0  0
    1.8571   -1.3076   -0.1864 C   0  0  0  0  0  0  0  0  0  0  0  0
    1.0111   -0.1369    0.1301 C   0  0  0  0  0  0  0  0  0  0  0  0
    1.6593    1.1038    0.6321 C   0  0  0  0  0  0  0  0  0  0  0  0
    1.6286    2.0466   -0.4220 O   0  0  0  0  0  0  0  0  0  0  0  0
   -2.7324   -0.1417   -0.9673 H   0  0  0  0  0  0  0  0  0  0  0  0
   -3.0161   -0.1833    0.8602 H   0  0  0  0  0  0  0  0  0  0  0  0
   -3.4564    1.2534   -0.1023 H   0  0  0  0  0  0  0  0  0  0  0  0
   -1.1841    1.7948   -0.5316 H   0  0  0  0  0  0  0  0  0  0  0  0
   -1.0949    1.2083    1.2107 H   0  0  0  0  0  0  0  0  0  0  0  0
   -0.5051   -0.2802   -1.4405 H   0  0  0  0  0  0  0  0  0  0  0  0
   -1.3438   -1.4173    1.2357 H   0  0  0  0  0  0  0  0  0  0  0  0
   -0.7421   -2.3035   -0.2756 H   0  0  0  0  0  0  0  0  0  0  0  0
    1.1124   -1.4805    1.9553 H   0  0  0  0  0  0  0  0  0  0  0  0
    2.9319   -1.1949    0.0515 H   0  0  0  0  0  0  0  0  0  0  0  0
    1.6657   -1.7850   -1.1691 H   0  0  0  0  0  0  0  0  0  0  0  0
    1.1569    1.5699    1.4996 H   0  0  0  0  0  0  0  0  0  0  0  0
    2.7155    0.8750    0.8851 H   0  0  0  0  0  0  0  0  0  0  0  0
    2.4870    1.9910   -0.9175 H   0  0  0  0  0  0  0  0  0  0  0  0
  1  2  1  0
  2  3  1  0
  3  4  1  0
  4  5  1  0
  5  6  1  0
  6  7  1  0
  7  8  1  0
  8  9  1  0
  7  3  1  0
  7  5  1  0
  1 10  1  0
  1 11  1  0
  1 12  1  0
  2 13  1  0
  2 14  1  0
  3 15  1  0
  4 16  1  0
  4 17  1  0
  5 18  1  0
  6 19  1  0
  6 20  1  0
  8 21  1  0
  8 22  1  0
  9 23  1  0
M  END
