
     RDKit          3D

 21 21  0  0  0  0  0  0  0  0999 V2000
    2.5288    0.4662    0.1549 C   0  0  0  0  0  0  0  0  0  0  0  0
    1.9124   -0.7411   -0.4211 C   0  0  0  0  0  0  0  0  0  0  0  0
    0.4385   -0.8090   -0.4267 C   0  0  0  0  0  0  0  0  0  0  0  0
   -0.2798    0.2863   -1.1907 C   0  0  0  0  0  0  0  0  0  0  0  0
   -1.4207   -0.0981   -0.2395 C   0  0  0  0  0  0  0  0  0  0  0  0
   -2.3703    0.9834    0.0878 C   0  0  0  0  0  0  0  0  0  0  0  0
   -1.9551   -1.3170   -0.6227 O   0  0  0  0  0  0  0  0  0  0  0  0
   -0.3081   -0.3321    0.7501 C   0  0  0  0  0  0  0  0  0  0  0  0
   -0.2523   -0.1473    1.9302 O   0  0  0  0  0  0  0  0  0  0  0  0
    2.1141    0.8257    1.0935 H   0  0  0  0  0  0  0  0  0  0  0  0
    3.6199    0.2441    0.3454 H   0  0  0  0  0  0  0  0  0  0  0  0
    2.5494    1.2889   -0.6125 H   0  0  0  0  0  0  0  0  0  0  0  0
    2.3075   -1.6543    0.0716 H   0  0  0  0  0  0  0  0  0  0  0  0
    2.2536   -0.8283   -1.4949 H   0  0  0  0  0  0  0  0  0  0  0  0
    0.0643   -1.7986   -0.7406 H   0  0  0  0  0  0  0  0  0  0  0  0
   -0.4650    0.1068   -2.2401 H   0  0  0  0  0  0  0  0  0  0  0  0
    0.1365    1.2841   -0.9085 H   0  0  0  0  0  0  0  0  0  0  0  0
   -2.3077    1.8418   -0.6239 H   0  0  0  0  0  0  0  0  0  0  0  0
   -2.3112    1.2892    1.1384 H   0  0  0  0  0  0  0  0  0  0  0  0
   -3.4100    0.5678   -0.0627 H   0  0  0  0  0  0  0  0  0  0  0  0
   -2.8450   -1.4584   -0.2349 H   0  0  0  0  0  0  0  0  0  0  0  0
  1  2  1  0
  2  3  1  0
  3  4  1  0
  4  5  1  0
  5  6  1  0
  5  7  1  0
  5  8  1  0
  8  9  2  0
  8  3  1  0
  1 10  1  0
  1 11  1  0
  1 12  1  0
  2 13  1  0
  2 14  1  0
  3 15  1  0
  4 16  1  0
  4 17  1  0
  6 18  1  0
  6 19  1  0
  6 20  1  0
  7 21  1  0
M  END
