
     RDKit          3D

 19 19  0  0  0  0  0  0  0  0999 V2000
    2.0769    0.7200   -0.0052 C   0  0  0  0  0  0  0  0  0  0  0  0
    1.2389   -0.4609    0.3487 C   0  0  0  0  0  0  0  0  0  0  0  0
   -0.2447   -0.2067    0.2576 C   0  0  0  0  0  0  0  0  0  0  0  0
   -0.9680   -1.5002    0.6469 C   0  0  0  0  0  0  0  0  0  0  0  0
   -0.7612    0.2837   -1.0474 C   0  0  0  0  0  0  0  0  0  0  0  0
   -1.5741    1.2117   -0.1652 C   0  0  0  0  0  0  0  0  0  0  0  0
   -0.6930    0.9248    0.8775 O   0  0  0  0  0  0  0  0  0  0  0  0
    2.2008    1.4385    0.8302 H   0  0  0  0  0  0  0  0  0  0  0  0
    1.7332    1.2358   -0.8967 H   0  0  0  0  0  0  0  0  0  0  0  0
    3.1089    0.3283   -0.2453 H   0  0  0  0  0  0  0  0  0  0  0  0
    1.5219   -1.3101   -0.2957 H   0  0  0  0  0  0  0  0  0  0  0  0
    1.4413   -0.7866    1.3956 H   0  0  0  0  0  0  0  0  0  0  0  0
   -0.4413   -2.3017    0.0870 H   0  0  0  0  0  0  0  0  0  0  0  0
   -2.0079   -1.4932    0.2658 H   0  0  0  0  0  0  0  0  0  0  0  0
   -0.9338   -1.6564    1.7383 H   0  0  0  0  0  0  0  0  0  0  0  0
   -0.1063    0.8587   -1.6931 H   0  0  0  0  0  0  0  0  0  0  0  0
   -1.4077   -0.4300   -1.6162 H   0  0  0  0  0  0  0  0  0  0  0  0
   -2.6070    0.8866    0.0328 H   0  0  0  0  0  0  0  0  0  0  0  0
   -1.5769    2.2577   -0.5157 H   0  0  0  0  0  0  0  0  0  0  0  0
  1  2  1  0
  2  3  1  0
  3  4  1  0
  3  5  1  0
  5  6  1  0
  6  7  1  0
  7  3  1  0
  1  8  1  0
  1  9  1  0
  1 10  1  0
  2 11  1  0
  2 12  1  0
  4 13  1  0
  4 14  1  0
  4 15  1  0
  5 16  1  0
  5 17  1  0
  6 18  1  0
  6 19  1  0
M  END
