
     RDKit          3D

 19 19  0  0  0  0  0  0  0  0999 V2000
    2.5308    0.1176    0.2103 C   0  0  0  0  0  0  0  0  0  0  0  0
    1.0684    0.5352    0.0024 C   0  0  0  0  0  0  0  0  0  0  0  0
    0.3410   -0.5956   -0.6343 C   0  0  0  0  0  0  0  0  0  0  0  0
    0.3760   -1.7748    0.1844 O   0  0  0  0  0  0  0  0  0  0  0  0
   -0.8995   -1.4908    0.6707 C   0  0  0  0  0  0  0  0  0  0  0  0
   -1.6245   -1.7572    1.6633 O   0  0  0  0  0  0  0  0  0  0  0  0
   -1.1247   -0.6739   -0.5269 C   0  0  0  0  0  0  0  0  0  0  0  0
   -1.9103    0.5722   -0.3138 C   0  0  0  0  0  0  0  0  0  0  0  0
   -1.5869    1.2491    0.8481 O   0  0  0  0  0  0  0  0  0  0  0  0
    3.0475    0.0204   -0.7757 H   0  0  0  0  0  0  0  0  0  0  0  0
    2.5930   -0.8338    0.7652 H   0  0  0  0  0  0  0  0  0  0  0  0
    3.0850    0.8733    0.7995 H   0  0  0  0  0  0  0  0  0  0  0  0
    0.6936    0.7788    1.0160 H   0  0  0  0  0  0  0  0  0  0  0  0
    1.0398    1.4098   -0.6516 H   0  0  0  0  0  0  0  0  0  0  0  0
    0.7558   -0.8268   -1.6324 H   0  0  0  0  0  0  0  0  0  0  0  0
   -1.5660   -1.2994   -1.3335 H   0  0  0  0  0  0  0  0  0  0  0  0
   -1.8855    1.2577   -1.1586 H   0  0  0  0  0  0  0  0  0  0  0  0
   -2.9907    0.2611   -0.1979 H   0  0  0  0  0  0  0  0  0  0  0  0
   -1.9428    2.1769    0.7898 H   0  0  0  0  0  0  0  0  0  0  0  0
  1  2  1  0
  2  3  1  0
  3  4  1  0
  4  5  1  0
  5  6  2  0
  5  7  1  0
  7  8  1  0
  8  9  1  0
  7  3  1  0
  1 10  1  0
  1 11  1  0
  1 12  1  0
  2 13  1  0
  2 14  1  0
  3 15  1  0
  7 16  1  0
  8 17  1  0
  8 18  1  0
  9 19  1  0
M  END
