
     RDKit          3D

 20 20  0  0  0  0  0  0  0  0999 V2000
    1.6540   -0.6476    0.8322 C   0  0  0  0  0  0  0  0  0  0  0  0
    1.4108    0.4344   -0.1740 C   0  0  0  0  0  0  0  0  0  0  0  0
   -0.0073    0.6479   -0.5285 C   0  0  0  0  0  0  0  0  0  0  0  0
   -0.0536    1.6905   -1.4754 O   0  0  0  0  0  0  0  0  0  0  0  0
   -0.8870    1.0386    0.5813 C   0  0  0  0  0  0  0  0  0  0  0  0
   -1.7138    0.0835    0.9376 C   0  0  0  0  0  0  0  0  0  0  0  0
   -1.4727   -1.0940    0.0787 C   0  0  0  0  0  0  0  0  0  0  0  0
   -0.7068   -0.5569   -1.0999 C   0  0  0  0  0  0  0  0  0  0  0  0
    2.7128   -0.5717    1.2144 H   0  0  0  0  0  0  0  0  0  0  0  0
    1.0054   -0.6125    1.7064 H   0  0  0  0  0  0  0  0  0  0  0  0
    1.5837   -1.6542    0.3840 H   0  0  0  0  0  0  0  0  0  0  0  0
    1.8467    1.4026    0.1353 H   0  0  0  0  0  0  0  0  0  0  0  0
    1.9563    0.1431   -1.1044 H   0  0  0  0  0  0  0  0  0  0  0  0
    0.5989    2.4011   -1.2512 H   0  0  0  0  0  0  0  0  0  0  0  0
   -0.8358    2.0390    1.0481 H   0  0  0  0  0  0  0  0  0  0  0  0
   -2.4802    0.1457    1.7588 H   0  0  0  0  0  0  0  0  0  0  0  0
   -2.4113   -1.6064   -0.2130 H   0  0  0  0  0  0  0  0  0  0  0  0
   -0.7983   -1.7733    0.6377 H   0  0  0  0  0  0  0  0  0  0  0  0
   -0.0227   -1.2926   -1.5428 H   0  0  0  0  0  0  0  0  0  0  0  0
   -1.3791   -0.2172   -1.9255 H   0  0  0  0  0  0  0  0  0  0  0  0
  1  2  1  0
  2  3  1  0
  3  4  1  0
  3  5  1  0
  5  6  2  0
  6  7  1  0
  7  8  1  0
  8  3  1  0
  1  9  1  0
  1 10  1  0
  1 11  1  0
  2 12  1  0
  2 13  1  0
  4 14  1  0
  5 15  1  0
  6 16  1  0
  7 17  1  0
  7 18  1  0
  8 19  1  0
  8 20  1  0
M  END
