
     RDKit          3D

 20 21  0  0  0  0  0  0  0  0999 V2000
   -3.0355    0.1436   -0.5611 C   0  0  0  0  0  0  0  0  0  0  0  0
   -1.9000   -0.7064   -0.0350 C   0  0  0  0  0  0  0  0  0  0  0  0
   -0.7524    0.2413    0.2707 C   0  0  0  0  0  0  0  0  0  0  0  0
   -0.3446    0.9252   -0.8605 O   0  0  0  0  0  0  0  0  0  0  0  0
    0.9733    0.4912   -0.8298 C   0  0  0  0  0  0  0  0  0  0  0  0
    1.7489    0.5197    0.4576 C   0  0  0  0  0  0  0  0  0  0  0  0
    3.1308   -0.0427    0.3977 C   0  0  0  0  0  0  0  0  0  0  0  0
    0.6061   -0.4108    0.3255 C   0  0  0  0  0  0  0  0  0  0  0  0
   -2.6839    0.6198   -1.4899 H   0  0  0  0  0  0  0  0  0  0  0  0
   -3.2330    0.9359    0.2121 H   0  0  0  0  0  0  0  0  0  0  0  0
   -3.9757   -0.4227   -0.6835 H   0  0  0  0  0  0  0  0  0  0  0  0
   -1.5837   -1.4648   -0.7791 H   0  0  0  0  0  0  0  0  0  0  0  0
   -2.2214   -1.2620    0.8613 H   0  0  0  0  0  0  0  0  0  0  0  0
   -0.9326    0.9230    1.1143 H   0  0  0  0  0  0  0  0  0  0  0  0
    1.4384    0.0540   -1.7242 H   0  0  0  0  0  0  0  0  0  0  0  0
    1.5637    1.4311    1.0886 H   0  0  0  0  0  0  0  0  0  0  0  0
    3.1985   -0.9469    1.0338 H   0  0  0  0  0  0  0  0  0  0  0  0
    3.8520    0.7245    0.7883 H   0  0  0  0  0  0  0  0  0  0  0  0
    3.4284   -0.2624   -0.6376 H   0  0  0  0  0  0  0  0  0  0  0  0
    0.7226   -1.4906    0.2350 H   0  0  0  0  0  0  0  0  0  0  0  0
  1  2  1  0
  2  3  1  0
  3  4  1  0
  4  5  1  0
  5  6  1  0
  6  7  1  0
  6  8  1  0
  8  3  1  0
  8  5  1  0
  1  9  1  0
  1 10  1  0
  1 11  1  0
  2 12  1  0
  2 13  1  0
  3 14  1  0
  5 15  1  0
  6 16  1  0
  7 17  1  0
  7 18  1  0
  7 19  1  0
  8 20  1  0
M  END
