
     RDKit          3D

 18 19  0  0  0  0  0  0  0  0999 V2000
    2.3706   -0.2390   -0.2021 C   0  0  0  0  0  0  0  0  0  0  0  0
    1.1497   -0.4520    0.6614 C   0  0  0  0  0  0  0  0  0  0  0  0
    0.0415    0.5432    0.2726 C   0  0  0  0  0  0  0  0  0  0  0  0
    0.5142    1.8666    0.4546 O   0  0  0  0  0  0  0  0  0  0  0  0
   -1.2942    0.1364    0.6326 C   0  0  0  0  0  0  0  0  0  0  0  0
   -2.2557   -0.6545   -0.2701 C   0  0  0  0  0  0  0  0  0  0  0  0
   -2.1527    0.5476   -1.0231 O   0  0  0  0  0  0  0  0  0  0  0  0
   -0.7879    0.3033   -0.8577 C   0  0  0  0  0  0  0  0  0  0  0  0
    2.2760   -0.7532   -1.1809 H   0  0  0  0  0  0  0  0  0  0  0  0
    2.5649    0.8545   -0.3227 H   0  0  0  0  0  0  0  0  0  0  0  0
    3.2206   -0.7449    0.3420 H   0  0  0  0  0  0  0  0  0  0  0  0
    0.7136   -1.4570    0.4178 H   0  0  0  0  0  0  0  0  0  0  0  0
    1.3527   -0.4323    1.7332 H   0  0  0  0  0  0  0  0  0  0  0  0
   -0.1986    2.4884    0.2449 H   0  0  0  0  0  0  0  0  0  0  0  0
   -1.9023    1.0225    1.0065 H   0  0  0  0  0  0  0  0  0  0  0  0
   -1.8243   -1.5396   -0.7240 H   0  0  0  0  0  0  0  0  0  0  0  0
   -3.2262   -0.8152    0.1995 H   0  0  0  0  0  0  0  0  0  0  0  0
   -0.5619   -0.6751   -1.3845 H   0  0  0  0  0  0  0  0  0  0  0  0
  1  2  1  0
  2  3  1  0
  3  4  1  0
  3  5  1  0
  5  6  1  0
  6  7  1  0
  7  8  1  0
  8  3  1  0
  8  5  1  0
  1  9  1  0
  1 10  1  0
  1 11  1  0
  2 12  1  0
  2 13  1  0
  4 14  1  0
  5 15  1  0
  6 16  1  0
  6 17  1  0
  8 18  1  0
M  END
