
     RDKit          3D

 17 18  0  0  0  0  0  0  0  0999 V2000
    1.8523    0.7092   -0.4700 C   0  0  0  0  0  0  0  0  0  0  0  0
    1.2779   -0.4070    0.3513 C   0  0  0  0  0  0  0  0  0  0  0  0
   -0.1995   -0.5630    0.2283 C   0  0  0  0  0  0  0  0  0  0  0  0
   -0.7556   -0.8484   -1.1268 C   0  0  0  0  0  0  0  0  0  0  0  0
   -1.0764    0.4049   -0.4281 C   0  0  0  0  0  0  0  0  0  0  0  0
   -2.0122    0.2450    0.7704 C   0  0  0  0  0  0  0  0  0  0  0  0
   -1.0140   -0.5573    1.3415 O   0  0  0  0  0  0  0  0  0  0  0  0
    2.0798    1.5773    0.2137 H   0  0  0  0  0  0  0  0  0  0  0  0
    1.1658    1.1010   -1.2401 H   0  0  0  0  0  0  0  0  0  0  0  0
    2.8196    0.4381   -0.9370 H   0  0  0  0  0  0  0  0  0  0  0  0
    1.5921   -0.3467    1.4167 H   0  0  0  0  0  0  0  0  0  0  0  0
    1.7433   -1.3593   -0.0386 H   0  0  0  0  0  0  0  0  0  0  0  0
   -0.0333   -0.9314   -1.9414 H   0  0  0  0  0  0  0  0  0  0  0  0
   -1.5070   -1.6858   -1.1343 H   0  0  0  0  0  0  0  0  0  0  0  0
   -0.7952    1.3966   -0.7630 H   0  0  0  0  0  0  0  0  0  0  0  0
   -2.2363    1.1720    1.3039 H   0  0  0  0  0  0  0  0  0  0  0  0
   -2.9013   -0.3451    0.4325 H   0  0  0  0  0  0  0  0  0  0  0  0
  1  2  1  0
  2  3  1  0
  3  4  1  0
  4  5  1  0
  5  6  1  0
  6  7  1  0
  5  3  1  0
  7  3  1  0
  1  8  1  0
  1  9  1  0
  1 10  1  0
  2 11  1  0
  2 12  1  0
  4 13  1  0
  4 14  1  0
  5 15  1  0
  6 16  1  0
  6 17  1  0
M  END
