
     RDKit          3D

 20 21  0  0  0  0  0  0  0  0999 V2000
   -2.6197   -0.1711   -0.3798 C   0  0  0  0  0  0  0  0  0  0  0  0
   -1.5279    0.7382    0.1167 C   0  0  0  0  0  0  0  0  0  0  0  0
   -0.1501    0.2834   -0.2929 C   0  0  0  0  0  0  0  0  0  0  0  0
    0.3354   -1.0698    0.1506 C   0  0  0  0  0  0  0  0  0  0  0  0
    1.7205   -0.8789    0.7128 C   0  0  0  0  0  0  0  0  0  0  0  0
    2.2471    0.3324   -0.0293 C   0  0  0  0  0  0  0  0  0  0  0  0
    1.0126    1.1407   -0.2497 C   0  0  0  0  0  0  0  0  0  0  0  0
    0.3584    0.8384   -1.4664 O   0  0  0  0  0  0  0  0  0  0  0  0
   -3.0113   -0.8483    0.4022 H   0  0  0  0  0  0  0  0  0  0  0  0
   -3.5008    0.4347   -0.7442 H   0  0  0  0  0  0  0  0  0  0  0  0
   -2.2526   -0.7118   -1.2801 H   0  0  0  0  0  0  0  0  0  0  0  0
   -1.6999    1.7377   -0.3582 H   0  0  0  0  0  0  0  0  0  0  0  0
   -1.5895    0.8962    1.2195 H   0  0  0  0  0  0  0  0  0  0  0  0
   -0.3444   -1.4942    0.8931 H   0  0  0  0  0  0  0  0  0  0  0  0
    0.3321   -1.7701   -0.7214 H   0  0  0  0  0  0  0  0  0  0  0  0
    2.3481   -1.7501    0.4996 H   0  0  0  0  0  0  0  0  0  0  0  0
    1.6612   -0.7127    1.8007 H   0  0  0  0  0  0  0  0  0  0  0  0
    3.0317    0.8623    0.5501 H   0  0  0  0  0  0  0  0  0  0  0  0
    2.7260   -0.0320   -0.9616 H   0  0  0  0  0  0  0  0  0  0  0  0
    0.9231    2.1750    0.1384 H   0  0  0  0  0  0  0  0  0  0  0  0
  1  2  1  0
  2  3  1  0
  3  4  1  0
  4  5  1  0
  5  6  1  0
  6  7  1  0
  7  8  1  0
  7  3  1  0
  8  3  1  0
  1  9  1  0
  1 10  1  0
  1 11  1  0
  2 12  1  0
  2 13  1  0
  4 14  1  0
  4 15  1  0
  5 16  1  0
  5 17  1  0
  6 18  1  0
  6 19  1  0
  7 20  1  0
M  END
