
     RDKit          3D

 21 21  0  0  0  0  0  0  0  0999 V2000
   -2.6301    0.5564   -0.0670 C   0  0  0  0  0  0  0  0  0  0  0  0
   -1.1909    0.9309   -0.2638 C   0  0  0  0  0  0  0  0  0  0  0  0
   -0.2566   -0.2420   -0.1339 C   0  0  0  0  0  0  0  0  0  0  0  0
   -0.2732   -0.9558    1.2004 C   0  0  0  0  0  0  0  0  0  0  0  0
    0.1812   -1.0341   -1.2906 C   0  0  0  0  0  0  0  0  0  0  0  0
    1.1035    0.0105   -0.7769 C   0  0  0  0  0  0  0  0  0  0  0  0
    2.2270   -0.3154   -0.0161 O   0  0  0  0  0  0  0  0  0  0  0  0
    3.3853    0.4351   -0.1101 C   0  0  0  0  0  0  0  0  0  0  0  0
    3.3716    1.4121   -0.9059 O   0  0  0  0  0  0  0  0  0  0  0  0
   -2.8032    0.5149    1.0405 H   0  0  0  0  0  0  0  0  0  0  0  0
   -3.2484    1.3724   -0.5210 H   0  0  0  0  0  0  0  0  0  0  0  0
   -2.8156   -0.4259   -0.5427 H   0  0  0  0  0  0  0  0  0  0  0  0
   -0.8462    1.6911    0.4874 H   0  0  0  0  0  0  0  0  0  0  0  0
   -1.0098    1.4173   -1.2567 H   0  0  0  0  0  0  0  0  0  0  0  0
    0.3995   -1.8449    1.1620 H   0  0  0  0  0  0  0  0  0  0  0  0
   -1.3013   -1.3387    1.3428 H   0  0  0  0  0  0  0  0  0  0  0  0
    0.0133   -0.3013    2.0418 H   0  0  0  0  0  0  0  0  0  0  0  0
   -0.3072   -0.8836   -2.2762 H   0  0  0  0  0  0  0  0  0  0  0  0
    0.4954   -2.0838   -1.1170 H   0  0  0  0  0  0  0  0  0  0  0  0
    1.2221    0.8890   -1.4346 H   0  0  0  0  0  0  0  0  0  0  0  0
    4.2835    0.1957    0.4809 H   0  0  0  0  0  0  0  0  0  0  0  0
  1  2  1  0
  2  3  1  0
  3  4  1  0
  3  5  1  0
  5  6  1  0
  6  7  1  0
  7  8  1  0
  8  9  2  0
  6  3  1  0
  1 10  1  0
  1 11  1  0
  1 12  1  0
  2 13  1  0
  2 14  1  0
  4 15  1  0
  4 16  1  0
  4 17  1  0
  5 18  1  0
  5 19  1  0
  6 20  1  0
  8 21  1  0
M  END
