
     RDKit          3D

 25 26  0  0  0  0  0  0  0  0999 V2000
    2.7945    0.0673   -0.0930 C   0  0  0  0  0  0  0  0  0  0  0  0
    1.5160    0.9182   -0.1536 C   0  0  0  0  0  0  0  0  0  0  0  0
    0.4196    0.0993    0.4164 C   0  0  0  0  0  0  0  0  0  0  0  0
    0.1462   -1.2047   -0.3053 C   0  0  0  0  0  0  0  0  0  0  0  0
   -0.8593   -1.8225    0.6214 C   0  0  0  0  0  0  0  0  0  0  0  0
   -1.7888   -0.6064    0.7985 C   0  0  0  0  0  0  0  0  0  0  0  0
   -1.0004    0.4226    0.0100 C   0  0  0  0  0  0  0  0  0  0  0  0
   -1.4488    1.7872   -0.0522 C   0  0  0  0  0  0  0  0  0  0  0  0
   -0.7092   -0.3496   -1.2539 C   0  0  0  0  0  0  0  0  0  0  0  0
    3.6929    0.6677   -0.2691 H   0  0  0  0  0  0  0  0  0  0  0  0
    2.7392   -0.7903   -0.7634 H   0  0  0  0  0  0  0  0  0  0  0  0
    2.8413   -0.3399    0.9527 H   0  0  0  0  0  0  0  0  0  0  0  0
    1.7391    1.8357    0.4054 H   0  0  0  0  0  0  0  0  0  0  0  0
    1.3891    1.1867   -1.2136 H   0  0  0  0  0  0  0  0  0  0  0  0
    0.5103   -0.0839    1.5053 H   0  0  0  0  0  0  0  0  0  0  0  0
    0.9413   -1.7609   -0.7125 H   0  0  0  0  0  0  0  0  0  0  0  0
   -1.3904   -2.6765    0.2147 H   0  0  0  0  0  0  0  0  0  0  0  0
   -0.3808   -1.9813    1.6006 H   0  0  0  0  0  0  0  0  0  0  0  0
   -2.7329   -0.8043    0.2486 H   0  0  0  0  0  0  0  0  0  0  0  0
   -1.9218   -0.3426    1.8447 H   0  0  0  0  0  0  0  0  0  0  0  0
   -2.0966    2.0380    0.8303 H   0  0  0  0  0  0  0  0  0  0  0  0
   -2.0927    2.0511   -0.9417 H   0  0  0  0  0  0  0  0  0  0  0  0
   -0.6280    2.5344   -0.0418 H   0  0  0  0  0  0  0  0  0  0  0  0
   -1.5473   -0.9785   -1.6148 H   0  0  0  0  0  0  0  0  0  0  0  0
   -0.1325    0.1329   -2.0339 H   0  0  0  0  0  0  0  0  0  0  0  0
  1  2  1  0
  2  3  1  0
  3  4  1  0
  4  5  1  0
  5  6  1  0
  6  7  1  0
  7  8  1  0
  7  9  1  0
  7  3  1  0
  9  4  1  0
  1 10  1  0
  1 11  1  0
  1 12  1  0
  2 13  1  0
  2 14  1  0
  3 15  1  0
  4 16  1  0
  5 17  1  0
  5 18  1  0
  6 19  1  0
  6 20  1  0
  8 21  1  0
  8 22  1  0
  8 23  1  0
  9 24  1  0
  9 25  1  0
M  END
