
     RDKit          3D

 23 23  0  0  0  0  0  0  0  0999 V2000
   -2.8370    0.5346    0.1820 C   0  0  0  0  0  0  0  0  0  0  0  0
   -1.8432   -0.5570   -0.1022 C   0  0  0  0  0  0  0  0  0  0  0  0
   -0.4894   -0.0053   -0.4872 C   0  0  0  0  0  0  0  0  0  0  0  0
    0.4487   -1.1558   -0.7555 C   0  0  0  0  0  0  0  0  0  0  0  0
    1.3839   -1.1461    0.4322 C   0  0  0  0  0  0  0  0  0  0  0  0
    1.5082    0.3279    0.7498 C   0  0  0  0  0  0  0  0  0  0  0  0
    2.3471    1.0487   -0.2857 C   0  0  0  0  0  0  0  0  0  0  0  0
    0.1154    0.7967    0.5967 C   0  0  0  0  0  0  0  0  0  0  0  0
   -0.4361    1.6626    1.2243 O   0  0  0  0  0  0  0  0  0  0  0  0
   -2.8561    1.2745   -0.6538 H   0  0  0  0  0  0  0  0  0  0  0  0
   -3.8469    0.0478    0.2284 H   0  0  0  0  0  0  0  0  0  0  0  0
   -2.6885    1.0345    1.1490 H   0  0  0  0  0  0  0  0  0  0  0  0
   -1.7238   -1.1475    0.8274 H   0  0  0  0  0  0  0  0  0  0  0  0
   -2.2320   -1.1520   -0.9445 H   0  0  0  0  0  0  0  0  0  0  0  0
   -0.5346    0.6250   -1.3939 H   0  0  0  0  0  0  0  0  0  0  0  0
   -0.1286   -2.1001   -0.8325 H   0  0  0  0  0  0  0  0  0  0  0  0
    1.0561   -1.0119   -1.6773 H   0  0  0  0  0  0  0  0  0  0  0  0
    0.8270   -1.5995    1.2958 H   0  0  0  0  0  0  0  0  0  0  0  0
    2.3363   -1.6405    0.2546 H   0  0  0  0  0  0  0  0  0  0  0  0
    1.9100    0.4521    1.7684 H   0  0  0  0  0  0  0  0  0  0  0  0
    3.3694    1.1952    0.0964 H   0  0  0  0  0  0  0  0  0  0  0  0
    1.8941    2.0507   -0.4456 H   0  0  0  0  0  0  0  0  0  0  0  0
    2.4202    0.4654   -1.2268 H   0  0  0  0  0  0  0  0  0  0  0  0
  1  2  1  0
  2  3  1  0
  3  4  1  0
  4  5  1  0
  5  6  1  0
  6  7  1  0
  6  8  1  0
  8  9  2  0
  8  3  1  0
  1 10  1  0
  1 11  1  0
  1 12  1  0
  2 13  1  0
  2 14  1  0
  3 15  1  0
  4 16  1  0
  4 17  1  0
  5 18  1  0
  5 19  1  0
  6 20  1  0
  7 21  1  0
  7 22  1  0
  7 23  1  0
M  END
