
     RDKit          3D

 21 21  0  0  0  0  0  0  0  0999 V2000
    2.7620    0.1844   -0.2360 C   0  0  0  0  0  0  0  0  0  0  0  0
    1.7869   -0.4814    0.6711 C   0  0  0  0  0  0  0  0  0  0  0  0
    0.4023   -0.1322    0.3107 C   0  0  0  0  0  0  0  0  0  0  0  0
    0.2595    0.6804   -0.7152 C   0  0  0  0  0  0  0  0  0  0  0  0
   -1.0696    1.1255   -1.2011 C   0  0  0  0  0  0  0  0  0  0  0  0
   -2.2896    0.7235   -0.8907 C   0  0  0  0  0  0  0  0  0  0  0  0
   -2.6124   -0.3471    0.0911 C   0  0  0  0  0  0  0  0  0  0  0  0
   -1.8210   -0.1183    1.2067 O   0  0  0  0  0  0  0  0  0  0  0  0
   -0.6239   -0.7777    1.1948 C   0  0  0  0  0  0  0  0  0  0  0  0
    2.6783   -0.1775   -1.2772 H   0  0  0  0  0  0  0  0  0  0  0  0
    2.7496    1.2815   -0.1305 H   0  0  0  0  0  0  0  0  0  0  0  0
    3.8049   -0.1250    0.1028 H   0  0  0  0  0  0  0  0  0  0  0  0
    1.9262   -1.6005    0.6303 H   0  0  0  0  0  0  0  0  0  0  0  0
    1.9897   -0.1695    1.7376 H   0  0  0  0  0  0  0  0  0  0  0  0
    1.1115    1.0611   -1.2517 H   0  0  0  0  0  0  0  0  0  0  0  0
   -1.0113    1.9204   -1.9396 H   0  0  0  0  0  0  0  0  0  0  0  0
   -3.1182    1.2211   -1.3991 H   0  0  0  0  0  0  0  0  0  0  0  0
   -3.6950   -0.3679    0.3211 H   0  0  0  0  0  0  0  0  0  0  0  0
   -2.3315   -1.3150   -0.4158 H   0  0  0  0  0  0  0  0  0  0  0  0
   -0.1999   -0.7229    2.2288 H   0  0  0  0  0  0  0  0  0  0  0  0
   -0.6985   -1.8629    0.9620 H   0  0  0  0  0  0  0  0  0  0  0  0
  1  2  1  0
  2  3  1  0
  3  4  2  0
  4  5  1  0
  5  6  2  0
  6  7  1  0
  7  8  1  0
  8  9  1  0
  9  3  1  0
  1 10  1  0
  1 11  1  0
  1 12  1  0
  2 13  1  0
  2 14  1  0
  4 15  1  0
  5 16  1  0
  6 17  1  0
  7 18  1  0
  7 19  1  0
  9 20  1  0
  9 21  1  0
M  END
