
     RDKit          3D

 23 23  0  0  0  0  0  0  0  0999 V2000
    2.7378   -0.9443   -0.5259 C   0  0  0  0  0  0  0  0  0  0  0  0
    2.1356    0.3034    0.0236 C   0  0  0  0  0  0  0  0  0  0  0  0
    0.6698    0.1724    0.2793 C   0  0  0  0  0  0  0  0  0  0  0  0
   -0.1306   -0.8692    0.0875 C   0  0  0  0  0  0  0  0  0  0  0  0
   -1.4764   -0.4988    0.4906 C   0  0  0  0  0  0  0  0  0  0  0  0
   -2.5878   -1.1919   -0.2307 C   0  0  0  0  0  0  0  0  0  0  0  0
   -1.4902    0.9972    0.2656 C   0  0  0  0  0  0  0  0  0  0  0  0
   -0.1150    1.3361    0.8297 C   0  0  0  0  0  0  0  0  0  0  0  0
    0.3643    2.5407    0.3841 O   0  0  0  0  0  0  0  0  0  0  0  0
    3.1244   -1.6275    0.2825 H   0  0  0  0  0  0  0  0  0  0  0  0
    2.0922   -1.5292   -1.1839 H   0  0  0  0  0  0  0  0  0  0  0  0
    3.6721   -0.6391   -1.0825 H   0  0  0  0  0  0  0  0  0  0  0  0
    2.6575    0.5604    0.9885 H   0  0  0  0  0  0  0  0  0  0  0  0
    2.2675    1.1819   -0.6303 H   0  0  0  0  0  0  0  0  0  0  0  0
    0.2674   -1.8165   -0.3181 H   0  0  0  0  0  0  0  0  0  0  0  0
   -1.5745   -0.6709    1.5916 H   0  0  0  0  0  0  0  0  0  0  0  0
   -2.3907   -1.4115   -1.2779 H   0  0  0  0  0  0  0  0  0  0  0  0
   -2.8955   -2.0901    0.3467 H   0  0  0  0  0  0  0  0  0  0  0  0
   -3.4821   -0.5074   -0.1943 H   0  0  0  0  0  0  0  0  0  0  0  0
   -1.5639    1.2405   -0.8077 H   0  0  0  0  0  0  0  0  0  0  0  0
   -2.2408    1.5245    0.8531 H   0  0  0  0  0  0  0  0  0  0  0  0
   -0.1912    1.2630    1.9169 H   0  0  0  0  0  0  0  0  0  0  0  0
    0.1501    2.6763   -0.5653 H   0  0  0  0  0  0  0  0  0  0  0  0
  1  2  1  0
  2  3  1  0
  3  4  2  0
  4  5  1  0
  5  6  1  0
  5  7  1  0
  7  8  1  0
  8  9  1  0
  8  3  1  0
  1 10  1  0
  1 11  1  0
  1 12  1  0
  2 13  1  0
  2 14  1  0
  4 15  1  0
  5 16  1  0
  6 17  1  0
  6 18  1  0
  6 19  1  0
  7 20  1  0
  7 21  1  0
  8 22  1  0
  9 23  1  0
M  END
