
     RDKit          3D

 23 23  0  0  0  0  0  0  0  0999 V2000
    2.9092    0.1682   -0.4660 C   0  0  0  0  0  0  0  0  0  0  0  0
    1.8931   -0.0394    0.6519 C   0  0  0  0  0  0  0  0  0  0  0  0
    0.5808    0.4931    0.1498 C   0  0  0  0  0  0  0  0  0  0  0  0
   -0.5802    0.3835    1.1176 C   0  0  0  0  0  0  0  0  0  0  0  0
   -1.4379    0.2370   -0.1490 C   0  0  0  0  0  0  0  0  0  0  0  0
   -2.6481   -0.6052    0.0006 C   0  0  0  0  0  0  0  0  0  0  0  0
   -1.5790    1.4622   -0.7693 O   0  0  0  0  0  0  0  0  0  0  0  0
   -0.2139   -0.5001   -0.7091 C   0  0  0  0  0  0  0  0  0  0  0  0
   -0.0270   -0.3811   -2.0545 O   0  0  0  0  0  0  0  0  0  0  0  0
    2.5487    0.9148   -1.2012 H   0  0  0  0  0  0  0  0  0  0  0  0
    3.1655   -0.7668   -0.9815 H   0  0  0  0  0  0  0  0  0  0  0  0
    3.8409    0.5814   -0.0331 H   0  0  0  0  0  0  0  0  0  0  0  0
    2.1831    0.5103    1.5607 H   0  0  0  0  0  0  0  0  0  0  0  0
    1.8088   -1.1244    0.8678 H   0  0  0  0  0  0  0  0  0  0  0  0
    0.6294    1.4997   -0.2983 H   0  0  0  0  0  0  0  0  0  0  0  0
   -0.5595   -0.5842    1.6636 H   0  0  0  0  0  0  0  0  0  0  0  0
   -0.7921    1.2690    1.7146 H   0  0  0  0  0  0  0  0  0  0  0  0
   -2.5321   -1.3505    0.7846 H   0  0  0  0  0  0  0  0  0  0  0  0
   -2.7901   -1.1733   -0.9648 H   0  0  0  0  0  0  0  0  0  0  0  0
   -3.5435    0.0364    0.0888 H   0  0  0  0  0  0  0  0  0  0  0  0
   -2.5001    1.7685   -0.8081 H   0  0  0  0  0  0  0  0  0  0  0  0
   -0.1535   -1.5201   -0.2881 H   0  0  0  0  0  0  0  0  0  0  0  0
   -0.2025   -1.2791   -2.4665 H   0  0  0  0  0  0  0  0  0  0  0  0
  1  2  1  0
  2  3  1  0
  3  4  1  0
  4  5  1  0
  5  6  1  0
  5  7  1  0
  5  8  1  0
  8  9  1  0
  8  3  1  0
  1 10  1  0
  1 11  1  0
  1 12  1  0
  2 13  1  0
  2 14  1  0
  3 15  1  0
  4 16  1  0
  4 17  1  0
  6 18  1  0
  6 19  1  0
  6 20  1  0
  7 21  1  0
  8 22  1  0
  9 23  1  0
M  END
