
     RDKit          3D

 19 20  0  0  0  0  0  0  0  0999 V2000
   -2.7174   -0.3142   -0.2616 C   0  0  0  0  0  0  0  0  0  0  0  0
   -1.7247    0.5301    0.5077 C   0  0  0  0  0  0  0  0  0  0  0  0
   -0.4821    0.6525   -0.3769 C   0  0  0  0  0  0  0  0  0  0  0  0
    0.5104    1.4761    0.3519 O   0  0  0  0  0  0  0  0  0  0  0  0
    0.6708    0.0463   -0.0333 C   0  0  0  0  0  0  0  0  0  0  0  0
    1.9853   -0.1423   -0.6766 C   0  0  0  0  0  0  0  0  0  0  0  0
    2.5043   -0.3572    0.7517 C   0  0  0  0  0  0  0  0  0  0  0  0
    1.1059   -0.7267    1.1184 C   0  0  0  0  0  0  0  0  0  0  0  0
    0.6133   -1.3841    1.9989 O   0  0  0  0  0  0  0  0  0  0  0  0
   -2.6984   -0.0348   -1.3550 H   0  0  0  0  0  0  0  0  0  0  0  0
   -3.7390   -0.1913    0.1613 H   0  0  0  0  0  0  0  0  0  0  0  0
   -2.3673   -1.3698   -0.1746 H   0  0  0  0  0  0  0  0  0  0  0  0
   -1.4708   -0.0392    1.4431 H   0  0  0  0  0  0  0  0  0  0  0  0
   -2.0673    1.5481    0.6994 H   0  0  0  0  0  0  0  0  0  0  0  0
   -0.6848    1.1121   -1.3403 H   0  0  0  0  0  0  0  0  0  0  0  0
    2.1264   -1.0558   -1.2569 H   0  0  0  0  0  0  0  0  0  0  0  0
    2.4416    0.7529   -1.1619 H   0  0  0  0  0  0  0  0  0  0  0  0
    2.7446    0.6382    1.1746 H   0  0  0  0  0  0  0  0  0  0  0  0
    3.2491   -1.1408    0.8558 H   0  0  0  0  0  0  0  0  0  0  0  0
  1  2  1  0
  2  3  1  0
  3  4  1  0
  4  5  1  0
  5  6  1  0
  6  7  1  0
  7  8  1  0
  8  9  2  0
  5  3  1  0
  8  5  1  0
  1 10  1  0
  1 11  1  0
  1 12  1  0
  2 13  1  0
  2 14  1  0
  3 15  1  0
  6 16  1  0
  6 17  1  0
  7 18  1  0
  7 19  1  0
M  END
