
     RDKit          3D

 25 25  0  0  0  0  0  0  0  0999 V2000
   -1.9755   -1.5470    0.1296 C   0  0  0  0  0  0  0  0  0  0  0  0
   -0.6453   -1.3017   -0.4971 C   0  0  0  0  0  0  0  0  0  0  0  0
   -0.1322    0.1009   -0.3259 C   0  0  0  0  0  0  0  0  0  0  0  0
    1.2059    0.2586   -0.9845 C   0  0  0  0  0  0  0  0  0  0  0  0
    2.2610   -0.6580   -0.4317 C   0  0  0  0  0  0  0  0  0  0  0  0
    2.4782   -0.4537    0.9087 O   0  0  0  0  0  0  0  0  0  0  0  0
   -1.0693    1.1879   -0.7979 C   0  0  0  0  0  0  0  0  0  0  0  0
   -0.7546    1.9787    0.4517 C   0  0  0  0  0  0  0  0  0  0  0  0
   -0.2506    0.6734    1.0682 C   0  0  0  0  0  0  0  0  0  0  0  0
   -2.5876   -0.6673    0.3059 H   0  0  0  0  0  0  0  0  0  0  0  0
   -2.5014   -2.3157   -0.5103 H   0  0  0  0  0  0  0  0  0  0  0  0
   -1.8755   -2.0658    1.1282 H   0  0  0  0  0  0  0  0  0  0  0  0
   -0.6211   -1.5339   -1.5768 H   0  0  0  0  0  0  0  0  0  0  0  0
    0.0915   -1.9764    0.0078 H   0  0  0  0  0  0  0  0  0  0  0  0
    1.1162    0.1541   -2.0689 H   0  0  0  0  0  0  0  0  0  0  0  0
    1.5482    1.3021   -0.7826 H   0  0  0  0  0  0  0  0  0  0  0  0
    2.0283   -1.7288   -0.5819 H   0  0  0  0  0  0  0  0  0  0  0  0
    3.1920   -0.4639   -1.0113 H   0  0  0  0  0  0  0  0  0  0  0  0
    3.2412    0.1789    0.9970 H   0  0  0  0  0  0  0  0  0  0  0  0
   -0.7015    1.7585   -1.6936 H   0  0  0  0  0  0  0  0  0  0  0  0
   -2.1244    0.9430   -0.8568 H   0  0  0  0  0  0  0  0  0  0  0  0
   -1.6026    2.3994    0.9929 H   0  0  0  0  0  0  0  0  0  0  0  0
    0.0475    2.7338    0.3058 H   0  0  0  0  0  0  0  0  0  0  0  0
    0.6806    0.8702    1.5997 H   0  0  0  0  0  0  0  0  0  0  0  0
   -1.0489    0.1729    1.6473 H   0  0  0  0  0  0  0  0  0  0  0  0
  1  2  1  0
  2  3  1  0
  3  4  1  0
  4  5  1  0
  5  6  1  0
  3  7  1  0
  7  8  1  0
  8  9  1  0
  9  3  1  0
  1 10  1  0
  1 11  1  0
  1 12  1  0
  2 13  1  0
  2 14  1  0
  4 15  1  0
  4 16  1  0
  5 17  1  0
  5 18  1  0
  6 19  1  0
  7 20  1  0
  7 21  1  0
  8 22  1  0
  8 23  1  0
  9 24  1  0
  9 25  1  0
M  END
