
     RDKit          3D

 25 25  0  0  0  0  0  0  0  0999 V2000
    3.2734    0.4005   -0.4860 C   0  0  0  0  0  0  0  0  0  0  0  0
    2.1495   -0.5703   -0.2629 C   0  0  0  0  0  0  0  0  0  0  0  0
    0.7911    0.0905   -0.3527 C   0  0  0  0  0  0  0  0  0  0  0  0
   -0.2384   -1.0118   -0.1067 C   0  0  0  0  0  0  0  0  0  0  0  0
   -1.5488   -0.4399    0.3683 C   0  0  0  0  0  0  0  0  0  0  0  0
   -2.6604   -1.2922   -0.1558 C   0  0  0  0  0  0  0  0  0  0  0  0
   -1.6871    0.9832   -0.1553 C   0  0  0  0  0  0  0  0  0  0  0  0
   -0.4979    1.8205    0.2379 C   0  0  0  0  0  0  0  0  0  0  0  0
    0.5974    1.0466    0.6139 O   0  0  0  0  0  0  0  0  0  0  0  0
    3.0026    1.2502   -1.1294 H   0  0  0  0  0  0  0  0  0  0  0  0
    3.6521    0.7438    0.5143 H   0  0  0  0  0  0  0  0  0  0  0  0
    4.1204   -0.1476   -0.9635 H   0  0  0  0  0  0  0  0  0  0  0  0
    2.2649   -1.0191    0.7435 H   0  0  0  0  0  0  0  0  0  0  0  0
    2.1993   -1.3930   -0.9959 H   0  0  0  0  0  0  0  0  0  0  0  0
    0.6086    0.5433   -1.3345 H   0  0  0  0  0  0  0  0  0  0  0  0
   -0.3426   -1.5578   -1.0458 H   0  0  0  0  0  0  0  0  0  0  0  0
    0.1688   -1.6990    0.6535 H   0  0  0  0  0  0  0  0  0  0  0  0
   -1.5998   -0.4146    1.4801 H   0  0  0  0  0  0  0  0  0  0  0  0
   -3.4198   -1.4947    0.6217 H   0  0  0  0  0  0  0  0  0  0  0  0
   -2.2796   -2.3088   -0.4657 H   0  0  0  0  0  0  0  0  0  0  0  0
   -3.1556   -0.8810   -1.0597 H   0  0  0  0  0  0  0  0  0  0  0  0
   -2.6435    1.4260    0.1919 H   0  0  0  0  0  0  0  0  0  0  0  0
   -1.7185    0.9549   -1.2706 H   0  0  0  0  0  0  0  0  0  0  0  0
   -0.8005    2.4388    1.1081 H   0  0  0  0  0  0  0  0  0  0  0  0
   -0.2356    2.5313   -0.5737 H   0  0  0  0  0  0  0  0  0  0  0  0
  1  2  1  0
  2  3  1  0
  3  4  1  0
  4  5  1  0
  5  6  1  0
  5  7  1  0
  7  8  1  0
  8  9  1  0
  9  3  1  0
  1 10  1  0
  1 11  1  0
  1 12  1  0
  2 13  1  0
  2 14  1  0
  3 15  1  0
  4 16  1  0
  4 17  1  0
  5 18  1  0
  6 19  1  0
  6 20  1  0
  6 21  1  0
  7 22  1  0
  7 23  1  0
  8 24  1  0
  8 25  1  0
M  END
