
     RDKit          3D

 21 22  0  0  0  0  0  0  0  0999 V2000
    2.3991   -0.3481    0.7393 C   0  0  0  0  0  0  0  0  0  0  0  0
    1.4854    0.6755    0.1007 C   0  0  0  0  0  0  0  0  0  0  0  0
    0.0895    0.1587   -0.0960 C   0  0  0  0  0  0  0  0  0  0  0  0
   -0.1781   -1.0101   -0.9192 C   0  0  0  0  0  0  0  0  0  0  0  0
   -1.2362   -1.6725   -0.4928 C   0  0  0  0  0  0  0  0  0  0  0  0
   -1.8184   -1.0116    0.6951 C   0  0  0  0  0  0  0  0  0  0  0  0
   -0.9054    0.1345    0.9642 C   0  0  0  0  0  0  0  0  0  0  0  0
   -0.9876    1.2442   -0.0666 C   0  0  0  0  0  0  0  0  0  0  0  0
   -0.5979    2.5223    0.2663 O   0  0  0  0  0  0  0  0  0  0  0  0
    3.3683    0.1866    0.9407 H   0  0  0  0  0  0  0  0  0  0  0  0
    2.0208   -0.6587    1.7351 H   0  0  0  0  0  0  0  0  0  0  0  0
    2.6422   -1.1835    0.0726 H   0  0  0  0  0  0  0  0  0  0  0  0
    1.4587    1.5564    0.7744 H   0  0  0  0  0  0  0  0  0  0  0  0
    1.9116    0.9889   -0.8677 H   0  0  0  0  0  0  0  0  0  0  0  0
    0.3927   -1.3596   -1.8066 H   0  0  0  0  0  0  0  0  0  0  0  0
   -1.6519   -2.6075   -0.9527 H   0  0  0  0  0  0  0  0  0  0  0  0
   -2.8195   -0.5577    0.4254 H   0  0  0  0  0  0  0  0  0  0  0  0
   -1.9236   -1.7045    1.5576 H   0  0  0  0  0  0  0  0  0  0  0  0
   -0.5788    0.3794    1.9914 H   0  0  0  0  0  0  0  0  0  0  0  0
   -1.7775    1.1975   -0.8422 H   0  0  0  0  0  0  0  0  0  0  0  0
   -1.2934    3.0697    0.6669 H   0  0  0  0  0  0  0  0  0  0  0  0
  1  2  1  0
  2  3  1  0
  3  4  1  0
  4  5  2  0
  5  6  1  0
  6  7  1  0
  7  8  1  0
  8  9  1  0
  7  3  1  0
  8  3  1  0
  1 10  1  0
  1 11  1  0
  1 12  1  0
  2 13  1  0
  2 14  1  0
  4 15  1  0
  5 16  1  0
  6 17  1  0
  6 18  1  0
  7 19  1  0
  8 20  1  0
  9 21  1  0
M  END
