
     RDKit          3D

 25 25  0  0  0  0  0  0  0  0999 V2000
   -2.6035   -1.2885    0.0292 C   0  0  0  0  0  0  0  0  0  0  0  0
   -1.6078   -0.5204    0.9060 C   0  0  0  0  0  0  0  0  0  0  0  0
   -1.1460    0.6568    0.0835 C   0  0  0  0  0  0  0  0  0  0  0  0
   -0.4703    0.3667   -1.2029 C   0  0  0  0  0  0  0  0  0  0  0  0
    0.2730    1.0018   -0.0664 C   0  0  0  0  0  0  0  0  0  0  0  0
    0.5764    2.4954   -0.2082 C   0  0  0  0  0  0  0  0  0  0  0  0
    1.3756    0.1883    0.5309 C   0  0  0  0  0  0  0  0  0  0  0  0
    1.4103   -1.1248    0.0786 O   0  0  0  0  0  0  0  0  0  0  0  0
    2.4756   -1.7571    0.7119 C   0  0  0  0  0  0  0  0  0  0  0  0
   -3.1126   -0.5516   -0.6436 H   0  0  0  0  0  0  0  0  0  0  0  0
   -2.0254   -1.9699   -0.6257 H   0  0  0  0  0  0  0  0  0  0  0  0
   -3.3728   -1.7806    0.6275 H   0  0  0  0  0  0  0  0  0  0  0  0
   -0.7756   -1.1812    1.2179 H   0  0  0  0  0  0  0  0  0  0  0  0
   -2.1945   -0.1598    1.7861 H   0  0  0  0  0  0  0  0  0  0  0  0
   -1.9029    1.4950    0.0871 H   0  0  0  0  0  0  0  0  0  0  0  0
   -0.6159    1.0025   -2.0999 H   0  0  0  0  0  0  0  0  0  0  0  0
   -0.2020   -0.6838   -1.4844 H   0  0  0  0  0  0  0  0  0  0  0  0
    1.3335    2.8218    0.5233 H   0  0  0  0  0  0  0  0  0  0  0  0
    0.9093    2.6904   -1.2573 H   0  0  0  0  0  0  0  0  0  0  0  0
   -0.3323    3.1039   -0.0129 H   0  0  0  0  0  0  0  0  0  0  0  0
    2.3486    0.6997    0.2819 H   0  0  0  0  0  0  0  0  0  0  0  0
    1.2672    0.1259    1.6537 H   0  0  0  0  0  0  0  0  0  0  0  0
    3.3960   -1.1862    0.4176 H   0  0  0  0  0  0  0  0  0  0  0  0
    2.3862   -1.6728    1.7951 H   0  0  0  0  0  0  0  0  0  0  0  0
    2.6099   -2.7718    0.3314 H   0  0  0  0  0  0  0  0  0  0  0  0
  1  2  1  0
  2  3  1  0
  3  4  1  0
  4  5  1  0
  5  6  1  0
  5  7  1  0
  7  8  1  0
  8  9  1  0
  5  3  1  0
  1 10  1  0
  1 11  1  0
  1 12  1  0
  2 13  1  0
  2 14  1  0
  3 15  1  0
  4 16  1  0
  4 17  1  0
  6 18  1  0
  6 19  1  0
  6 20  1  0
  7 21  1  0
  7 22  1  0
  9 23  1  0
  9 24  1  0
  9 25  1  0
M  END
