
     RDKit          3D

 23 23  0  0  0  0  0  0  0  0999 V2000
    2.9650   -0.1168    0.5688 C   0  0  0  0  0  0  0  0  0  0  0  0
    2.0061   -0.4412   -0.5735 C   0  0  0  0  0  0  0  0  0  0  0  0
    0.7061   -0.8739    0.0629 C   0  0  0  0  0  0  0  0  0  0  0  0
   -0.2664   -1.2020   -0.8478 O   0  0  0  0  0  0  0  0  0  0  0  0
   -1.3564   -0.3300   -0.6198 C   0  0  0  0  0  0  0  0  0  0  0  0
   -2.3446   -1.0400    0.2254 C   0  0  0  0  0  0  0  0  0  0  0  0
   -0.6453    0.8010    0.0237 C   0  0  0  0  0  0  0  0  0  0  0  0
   -1.4738    1.8419    0.6496 C   0  0  0  0  0  0  0  0  0  0  0  0
    0.2193    0.1339    0.8855 O   0  0  0  0  0  0  0  0  0  0  0  0
    3.4300   -1.0826    0.8626 H   0  0  0  0  0  0  0  0  0  0  0  0
    2.4193    0.3597    1.4001 H   0  0  0  0  0  0  0  0  0  0  0  0
    3.6953    0.6116    0.1932 H   0  0  0  0  0  0  0  0  0  0  0  0
    2.3937   -1.2914   -1.1591 H   0  0  0  0  0  0  0  0  0  0  0  0
    1.8855    0.4468   -1.2195 H   0  0  0  0  0  0  0  0  0  0  0  0
    0.9303   -1.7752    0.6699 H   0  0  0  0  0  0  0  0  0  0  0  0
   -1.7972   -0.0167   -1.5843 H   0  0  0  0  0  0  0  0  0  0  0  0
   -1.8465   -1.8931    0.7688 H   0  0  0  0  0  0  0  0  0  0  0  0
   -3.1009   -1.5152   -0.4669 H   0  0  0  0  0  0  0  0  0  0  0  0
   -2.8406   -0.4446    0.9952 H   0  0  0  0  0  0  0  0  0  0  0  0
    0.0051    1.2785   -0.7532 H   0  0  0  0  0  0  0  0  0  0  0  0
   -2.3494    1.5226    1.2065 H   0  0  0  0  0  0  0  0  0  0  0  0
   -0.8040    2.4838    1.2867 H   0  0  0  0  0  0  0  0  0  0  0  0
   -1.8306    2.5429   -0.1562 H   0  0  0  0  0  0  0  0  0  0  0  0
  1  2  1  0
  2  3  1  0
  3  4  1  0
  4  5  1  0
  5  6  1  0
  5  7  1  0
  7  8  1  0
  7  9  1  0
  9  3  1  0
  1 10  1  0
  1 11  1  0
  1 12  1  0
  2 13  1  0
  2 14  1  0
  3 15  1  0
  5 16  1  0
  6 17  1  0
  6 18  1  0
  6 19  1  0
  7 20  1  0
  8 21  1  0
  8 22  1  0
  8 23  1  0
M  END
