
     RDKit          3D

 22 22  0  0  0  0  0  0  0  0999 V2000
    2.1341   -1.2884   -0.1636 C   0  0  0  0  0  0  0  0  0  0  0  0
    1.5100   -0.2545    0.7273 C   0  0  0  0  0  0  0  0  0  0  0  0
    0.2089    0.2781    0.2365 C   0  0  0  0  0  0  0  0  0  0  0  0
   -0.8983   -0.7261    0.0566 C   0  0  0  0  0  0  0  0  0  0  0  0
   -2.1774   -0.1199   -0.4396 C   0  0  0  0  0  0  0  0  0  0  0  0
   -1.1755   -1.3618    1.2671 O   0  0  0  0  0  0  0  0  0  0  0  0
    0.1253    1.4901   -0.6109 C   0  0  0  0  0  0  0  0  0  0  0  0
   -0.1496    1.6371    0.8397 C   0  0  0  0  0  0  0  0  0  0  0  0
    2.5013   -2.1545    0.4238 H   0  0  0  0  0  0  0  0  0  0  0  0
    3.0196   -0.8210   -0.6437 H   0  0  0  0  0  0  0  0  0  0  0  0
    1.4440   -1.6876   -0.9278 H   0  0  0  0  0  0  0  0  0  0  0  0
    2.1844    0.5918    0.9458 H   0  0  0  0  0  0  0  0  0  0  0  0
    1.3155   -0.7431    1.7218 H   0  0  0  0  0  0  0  0  0  0  0  0
   -0.5901   -1.4983   -0.6675 H   0  0  0  0  0  0  0  0  0  0  0  0
   -2.1267    0.2086   -1.5020 H   0  0  0  0  0  0  0  0  0  0  0  0
   -2.9430   -0.9363   -0.4240 H   0  0  0  0  0  0  0  0  0  0  0  0
   -2.5775    0.6809    0.1990 H   0  0  0  0  0  0  0  0  0  0  0  0
   -1.6360   -0.7037    1.8378 H   0  0  0  0  0  0  0  0  0  0  0  0
   -0.7121    1.6621   -1.2851 H   0  0  0  0  0  0  0  0  0  0  0  0
    1.0949    1.8640   -0.9954 H   0  0  0  0  0  0  0  0  0  0  0  0
   -1.1606    1.7021    1.2517 H   0  0  0  0  0  0  0  0  0  0  0  0
    0.6086    2.1802    1.4222 H   0  0  0  0  0  0  0  0  0  0  0  0
  1  2  1  0
  2  3  1  0
  3  4  1  0
  4  5  1  0
  4  6  1  0
  3  7  1  0
  7  8  1  0
  8  3  1  0
  1  9  1  0
  1 10  1  0
  1 11  1  0
  2 12  1  0
  2 13  1  0
  4 14  1  0
  5 15  1  0
  5 16  1  0
  5 17  1  0
  6 18  1  0
  7 19  1  0
  7 20  1  0
  8 21  1  0
  8 22  1  0
M  END
