
     RDKit          3D

 23 24  0  0  0  0  0  0  0  0999 V2000
    1.8820   -1.5410    0.4232 C   0  0  0  0  0  0  0  0  0  0  0  0
    1.6320   -0.2669   -0.3983 C   0  0  0  0  0  0  0  0  0  0  0  0
    0.2990    0.1795   -0.5159 C   0  0  0  0  0  0  0  0  0  0  0  0
   -0.5059   -0.7560   -1.1128 O   0  0  0  0  0  0  0  0  0  0  0  0
   -1.1593   -0.8995    0.1086 C   0  0  0  0  0  0  0  0  0  0  0  0
   -2.5664   -1.3807   -0.1295 C   0  0  0  0  0  0  0  0  0  0  0  0
   -0.9604    0.5987    0.0073 C   0  0  0  0  0  0  0  0  0  0  0  0
    0.1164    1.3804    0.2782 C   0  0  0  0  0  0  0  0  0  0  0  0
    0.3398    2.7030   -0.4710 C   0  0  0  0  0  0  0  0  0  0  0  0
    2.9803   -1.7946    0.3275 H   0  0  0  0  0  0  0  0  0  0  0  0
    1.7141   -1.3765    1.4900 H   0  0  0  0  0  0  0  0  0  0  0  0
    1.3448   -2.4010    0.0323 H   0  0  0  0  0  0  0  0  0  0  0  0
    2.4209    0.4320   -0.0443 H   0  0  0  0  0  0  0  0  0  0  0  0
    2.0305   -0.5635   -1.4243 H   0  0  0  0  0  0  0  0  0  0  0  0
   -0.6161   -1.3511    0.9268 H   0  0  0  0  0  0  0  0  0  0  0  0
   -3.0606   -0.6559   -0.8168 H   0  0  0  0  0  0  0  0  0  0  0  0
   -3.1652   -1.4303    0.8019 H   0  0  0  0  0  0  0  0  0  0  0  0
   -2.5655   -2.3643   -0.6784 H   0  0  0  0  0  0  0  0  0  0  0  0
   -1.7113    0.9902   -0.7587 H   0  0  0  0  0  0  0  0  0  0  0  0
    0.5408    1.4625    1.3244 H   0  0  0  0  0  0  0  0  0  0  0  0
    1.1665    3.2783   -0.0647 H   0  0  0  0  0  0  0  0  0  0  0  0
   -0.6490    3.2383   -0.3844 H   0  0  0  0  0  0  0  0  0  0  0  0
    0.4926    2.5186   -1.5541 H   0  0  0  0  0  0  0  0  0  0  0  0
  1  2  1  0
  2  3  1  0
  3  4  1  0
  4  5  1  0
  5  6  1  0
  5  7  1  0
  7  8  1  0
  8  9  1  0
  7  3  1  0
  8  3  1  0
  1 10  1  0
  1 11  1  0
  1 12  1  0
  2 13  1  0
  2 14  1  0
  5 15  1  0
  6 16  1  0
  6 17  1  0
  6 18  1  0
  7 19  1  0
  8 20  1  0
  9 21  1  0
  9 22  1  0
  9 23  1  0
M  END
