
     RDKit          3D

 23 24  0  0  0  0  0  0  0  0999 V2000
    2.8101    0.3078    0.1503 C   0  0  0  0  0  0  0  0  0  0  0  0
    1.8826   -0.8700   -0.1651 C   0  0  0  0  0  0  0  0  0  0  0  0
    0.4843   -0.2899   -0.2218 C   0  0  0  0  0  0  0  0  0  0  0  0
    0.0602    0.3565    1.0717 C   0  0  0  0  0  0  0  0  0  0  0  0
   -1.1982    1.1478    0.9039 C   0  0  0  0  0  0  0  0  0  0  0  0
   -2.2796    0.2309    0.4249 C   0  0  0  0  0  0  0  0  0  0  0  0
   -1.9346   -0.5515   -0.7875 C   0  0  0  0  0  0  0  0  0  0  0  0
   -0.4983   -0.8524   -0.9835 C   0  0  0  0  0  0  0  0  0  0  0  0
    0.2241    0.3703   -1.4274 O   0  0  0  0  0  0  0  0  0  0  0  0
    2.3486    1.2744   -0.1721 H   0  0  0  0  0  0  0  0  0  0  0  0
    3.0238    0.3586    1.2443 H   0  0  0  0  0  0  0  0  0  0  0  0
    3.7500    0.2009   -0.3906 H   0  0  0  0  0  0  0  0  0  0  0  0
    2.1365   -1.3619   -1.1024 H   0  0  0  0  0  0  0  0  0  0  0  0
    1.9908   -1.5895    0.6903 H   0  0  0  0  0  0  0  0  0  0  0  0
    0.8669    0.9791    1.5092 H   0  0  0  0  0  0  0  0  0  0  0  0
   -0.1772   -0.4858    1.7774 H   0  0  0  0  0  0  0  0  0  0  0  0
   -1.0904    2.0228    0.2507 H   0  0  0  0  0  0  0  0  0  0  0  0
   -1.5031    1.4907    1.9363 H   0  0  0  0  0  0  0  0  0  0  0  0
   -2.5597   -0.4676    1.2357 H   0  0  0  0  0  0  0  0  0  0  0  0
   -3.1832    0.8777    0.2233 H   0  0  0  0  0  0  0  0  0  0  0  0
   -2.2806    0.0458   -1.6817 H   0  0  0  0  0  0  0  0  0  0  0  0
   -2.5553   -1.4839   -0.8313 H   0  0  0  0  0  0  0  0  0  0  0  0
   -0.3177   -1.7108   -1.6947 H   0  0  0  0  0  0  0  0  0  0  0  0
  1  2  1  0
  2  3  1  0
  3  4  1  0
  4  5  1  0
  5  6  1  0
  6  7  1  0
  7  8  1  0
  8  9  1  0
  8  3  1  0
  9  3  1  0
  1 10  1  0
  1 11  1  0
  1 12  1  0
  2 13  1  0
  2 14  1  0
  4 15  1  0
  4 16  1  0
  5 17  1  0
  5 18  1  0
  6 19  1  0
  6 20  1  0
  7 21  1  0
  7 22  1  0
  8 23  1  0
M  END
