
     RDKit          3D

 19 20  0  0  0  0  0  0  0  0999 V2000
   -2.2624   -0.6101    0.2183 C   0  0  0  0  0  0  0  0  0  0  0  0
   -1.0471   -0.3479   -0.6905 C   0  0  0  0  0  0  0  0  0  0  0  0
    0.0641   -0.0189    0.1049 C   0  0  0  0  0  0  0  0  0  0  0  0
   -0.1272    1.1007    0.8735 O   0  0  0  0  0  0  0  0  0  0  0  0
    0.8403    1.6832    0.0118 C   0  0  0  0  0  0  0  0  0  0  0  0
    1.4220    0.3077    0.3493 C   0  0  0  0  0  0  0  0  0  0  0  0
    1.9184    0.3583    1.6860 O   0  0  0  0  0  0  0  0  0  0  0  0
    1.1598   -0.9096   -0.1792 C   0  0  0  0  0  0  0  0  0  0  0  0
    1.4659   -1.2243   -1.5259 O   0  0  0  0  0  0  0  0  0  0  0  0
   -2.3057   -1.7004    0.4491 H   0  0  0  0  0  0  0  0  0  0  0  0
   -2.1293   -0.0989    1.1971 H   0  0  0  0  0  0  0  0  0  0  0  0
   -3.1897   -0.2463   -0.2227 H   0  0  0  0  0  0  0  0  0  0  0  0
   -1.3830    0.5269   -1.3276 H   0  0  0  0  0  0  0  0  0  0  0  0
   -1.0423   -1.2044   -1.3956 H   0  0  0  0  0  0  0  0  0  0  0  0
    0.4351    1.7578   -0.9960 H   0  0  0  0  0  0  0  0  0  0  0  0
    1.3758    2.5306    0.4359 H   0  0  0  0  0  0  0  0  0  0  0  0
    1.2474    0.7638    2.2866 H   0  0  0  0  0  0  0  0  0  0  0  0
    1.2004   -1.8541    0.4420 H   0  0  0  0  0  0  0  0  0  0  0  0
    2.3576   -0.8141   -1.7171 H   0  0  0  0  0  0  0  0  0  0  0  0
  1  2  1  0
  2  3  1  0
  3  4  1  0
  4  5  1  0
  5  6  1  0
  6  7  1  0
  6  8  1  0
  8  9  1  0
  6  3  1  0
  8  3  1  0
  1 10  1  0
  1 11  1  0
  1 12  1  0
  2 13  1  0
  2 14  1  0
  5 15  1  0
  5 16  1  0
  7 17  1  0
  8 18  1  0
  9 19  1  0
M  END
