
     RDKit          3D

 23 23  0  0  0  0  0  0  0  0999 V2000
   -2.2461    0.7344    0.0891 C   0  0  0  0  0  0  0  0  0  0  0  0
   -1.1395    0.3333   -0.8112 C   0  0  0  0  0  0  0  0  0  0  0  0
    0.0031   -0.3702   -0.1296 C   0  0  0  0  0  0  0  0  0  0  0  0
   -0.3955   -1.6369    0.5551 C   0  0  0  0  0  0  0  0  0  0  0  0
    0.9938   -0.7167   -1.2501 C   0  0  0  0  0  0  0  0  0  0  0  0
    1.7533    0.4559   -1.3132 O   0  0  0  0  0  0  0  0  0  0  0  0
    2.1712    0.5558    0.0329 C   0  0  0  0  0  0  0  0  0  0  0  0
    0.8284    0.5149    0.7410 C   0  0  0  0  0  0  0  0  0  0  0  0
    0.3011    1.7606    0.9691 O   0  0  0  0  0  0  0  0  0  0  0  0
   -3.1855    0.7928   -0.5343 H   0  0  0  0  0  0  0  0  0  0  0  0
   -2.1017    1.7228    0.5517 H   0  0  0  0  0  0  0  0  0  0  0  0
   -2.4809    0.0214    0.8971 H   0  0  0  0  0  0  0  0  0  0  0  0
   -1.4779   -0.2986   -1.6705 H   0  0  0  0  0  0  0  0  0  0  0  0
   -0.7122    1.2553   -1.2784 H   0  0  0  0  0  0  0  0  0  0  0  0
    0.1873   -2.5025    0.1718 H   0  0  0  0  0  0  0  0  0  0  0  0
   -0.1430   -1.5867    1.6551 H   0  0  0  0  0  0  0  0  0  0  0  0
   -1.4590   -1.8852    0.3925 H   0  0  0  0  0  0  0  0  0  0  0  0
    1.6540   -1.5508   -0.9603 H   0  0  0  0  0  0  0  0  0  0  0  0
    0.4883   -0.8400   -2.2067 H   0  0  0  0  0  0  0  0  0  0  0  0
    2.6986    1.4990    0.1601 H   0  0  0  0  0  0  0  0  0  0  0  0
    2.7386   -0.3451    0.3077 H   0  0  0  0  0  0  0  0  0  0  0  0
    1.0192    0.0062    1.7285 H   0  0  0  0  0  0  0  0  0  0  0  0
    0.5041    2.0804    1.9030 H   0  0  0  0  0  0  0  0  0  0  0  0
  1  2  1  0
  2  3  1  0
  3  4  1  0
  3  5  1  0
  5  6  1  0
  6  7  1  0
  7  8  1  0
  8  9  1  0
  8  3  1  0
  1 10  1  0
  1 11  1  0
  1 12  1  0
  2 13  1  0
  2 14  1  0
  4 15  1  0
  4 16  1  0
  4 17  1  0
  5 18  1  0
  5 19  1  0
  7 20  1  0
  7 21  1  0
  8 22  1  0
  9 23  1  0
M  END
