
     RDKit          3D

 19 20  0  0  0  0  0  0  0  0999 V2000
   -2.5397    0.5207    0.2095 C   0  0  0  0  0  0  0  0  0  0  0  0
   -1.7033   -0.7562    0.0516 C   0  0  0  0  0  0  0  0  0  0  0  0
   -0.4856   -0.3234   -0.7842 C   0  0  0  0  0  0  0  0  0  0  0  0
    0.3334    0.6885   -0.2298 C   0  0  0  0  0  0  0  0  0  0  0  0
    1.4330    0.5449    0.7813 C   0  0  0  0  0  0  0  0  0  0  0  0
    1.6697    0.7305    1.9479 O   0  0  0  0  0  0  0  0  0  0  0  0
    2.1333    0.0225   -0.4624 C   0  0  0  0  0  0  0  0  0  0  0  0
    3.2305   -0.7543   -0.2068 O   0  0  0  0  0  0  0  0  0  0  0  0
    0.8359   -0.7936   -0.5069 C   0  0  0  0  0  0  0  0  0  0  0  0
   -2.5547    1.0451   -0.7908 H   0  0  0  0  0  0  0  0  0  0  0  0
   -3.5916    0.2635    0.4247 H   0  0  0  0  0  0  0  0  0  0  0  0
   -2.0909    1.2205    0.9168 H   0  0  0  0  0  0  0  0  0  0  0  0
   -1.3920   -1.1391    1.0331 H   0  0  0  0  0  0  0  0  0  0  0  0
   -2.3462   -1.4590   -0.5180 H   0  0  0  0  0  0  0  0  0  0  0  0
   -0.7813   -0.3073   -1.8757 H   0  0  0  0  0  0  0  0  0  0  0  0
    0.7209    1.4421   -0.9906 H   0  0  0  0  0  0  0  0  0  0  0  0
    2.2358    0.7668   -1.2574 H   0  0  0  0  0  0  0  0  0  0  0  0
    4.0318   -0.2671   -0.5834 H   0  0  0  0  0  0  0  0  0  0  0  0
    0.8610   -1.4452    0.4253 H   0  0  0  0  0  0  0  0  0  0  0  0
  1  2  1  0
  2  3  1  0
  3  4  1  0
  4  5  1  0
  5  6  2  0
  5  7  1  0
  7  8  1  0
  7  9  1  0
  9  3  1  0
  9  4  1  0
  1 10  1  0
  1 11  1  0
  1 12  1  0
  2 13  1  0
  2 14  1  0
  3 15  1  0
  4 16  1  0
  7 17  1  0
  8 18  1  0
  9 19  1  0
M  END
