
     RDKit          3D

 21 22  0  0  0  0  0  0  0  0999 V2000
    2.3235    1.0085    0.0284 C   0  0  0  0  0  0  0  0  0  0  0  0
    2.1290   -0.4259    0.4475 C   0  0  0  0  0  0  0  0  0  0  0  0
    0.7858   -0.9903    0.1437 C   0  0  0  0  0  0  0  0  0  0  0  0
    0.5654   -0.9256   -1.3347 O   0  0  0  0  0  0  0  0  0  0  0  0
   -0.3086   -0.3753   -0.4200 C   0  0  0  0  0  0  0  0  0  0  0  0
   -0.7274    1.0240   -0.4748 C   0  0  0  0  0  0  0  0  0  0  0  0
   -1.9230    1.1917    0.0828 C   0  0  0  0  0  0  0  0  0  0  0  0
   -2.4099   -0.1410    0.5708 C   0  0  0  0  0  0  0  0  0  0  0  0
   -1.6700   -1.0755   -0.3811 C   0  0  0  0  0  0  0  0  0  0  0  0
    1.6546    1.6249    0.6270 H   0  0  0  0  0  0  0  0  0  0  0  0
    3.3988    1.3190    0.1352 H   0  0  0  0  0  0  0  0  0  0  0  0
    2.0935    1.0643   -1.0559 H   0  0  0  0  0  0  0  0  0  0  0  0
    2.9401   -1.0065   -0.0856 H   0  0  0  0  0  0  0  0  0  0  0  0
    2.3926   -0.5200    1.5223 H   0  0  0  0  0  0  0  0  0  0  0  0
    0.7045   -2.0703    0.4831 H   0  0  0  0  0  0  0  0  0  0  0  0
   -0.1566    1.8318   -0.9102 H   0  0  0  0  0  0  0  0  0  0  0  0
   -2.4990    2.1029    0.1967 H   0  0  0  0  0  0  0  0  0  0  0  0
   -3.4959   -0.2617    0.4510 H   0  0  0  0  0  0  0  0  0  0  0  0
   -2.0853   -0.3040    1.6004 H   0  0  0  0  0  0  0  0  0  0  0  0
   -2.1060   -0.9735   -1.3957 H   0  0  0  0  0  0  0  0  0  0  0  0
   -1.6062   -2.0972   -0.0147 H   0  0  0  0  0  0  0  0  0  0  0  0
  1  2  1  0
  2  3  1  0
  3  4  1  0
  4  5  1  0
  5  6  1  0
  6  7  2  0
  7  8  1  0
  8  9  1  0
  5  3  1  0
  9  5  1  0
  1 10  1  0
  1 11  1  0
  1 12  1  0
  2 13  1  0
  2 14  1  0
  3 15  1  0
  6 16  1  0
  7 17  1  0
  8 18  1  0
  8 19  1  0
  9 20  1  0
  9 21  1  0
M  END
