
     RDKit          3D

 23 23  0  0  0  0  0  0  0  0999 V2000
    3.0168    0.4604   -0.1202 C   0  0  0  0  0  0  0  0  0  0  0  0
    2.1508   -0.7219    0.2008 C   0  0  0  0  0  0  0  0  0  0  0  0
    0.7018   -0.4970   -0.1182 C   0  0  0  0  0  0  0  0  0  0  0  0
    0.0233   -1.6845    0.2348 O   0  0  0  0  0  0  0  0  0  0  0  0
   -1.1817   -1.6174   -0.5000 C   0  0  0  0  0  0  0  0  0  0  0  0
   -1.9723   -0.4779    0.0703 C   0  0  0  0  0  0  0  0  0  0  0  0
   -1.1597    0.5416    0.7891 C   0  0  0  0  0  0  0  0  0  0  0  0
   -1.8260    1.8965    0.5887 C   0  0  0  0  0  0  0  0  0  0  0  0
    0.1568    0.6063    0.4690 O   0  0  0  0  0  0  0  0  0  0  0  0
    4.0826    0.1187    0.0135 H   0  0  0  0  0  0  0  0  0  0  0  0
    2.8754    1.2854    0.6003 H   0  0  0  0  0  0  0  0  0  0  0  0
    2.9299    0.7835   -1.1806 H   0  0  0  0  0  0  0  0  0  0  0  0
    2.4911   -1.6042   -0.3797 H   0  0  0  0  0  0  0  0  0  0  0  0
    2.3144   -0.9728    1.2677 H   0  0  0  0  0  0  0  0  0  0  0  0
    0.6188   -0.3812   -1.2264 H   0  0  0  0  0  0  0  0  0  0  0  0
   -1.7576   -2.5427   -0.4437 H   0  0  0  0  0  0  0  0  0  0  0  0
   -0.8801   -1.3320   -1.5288 H   0  0  0  0  0  0  0  0  0  0  0  0
   -2.5529   -0.0274   -0.7640 H   0  0  0  0  0  0  0  0  0  0  0  0
   -2.7529   -0.9031    0.7669 H   0  0  0  0  0  0  0  0  0  0  0  0
   -1.2320    0.3350    1.8977 H   0  0  0  0  0  0  0  0  0  0  0  0
   -2.6357    1.8341   -0.1958 H   0  0  0  0  0  0  0  0  0  0  0  0
   -1.0961    2.6297    0.1734 H   0  0  0  0  0  0  0  0  0  0  0  0
   -2.3149    2.2709    1.4913 H   0  0  0  0  0  0  0  0  0  0  0  0
  1  2  1  0
  2  3  1  0
  3  4  1  0
  4  5  1  0
  5  6  1  0
  6  7  1  0
  7  8  1  0
  7  9  1  0
  9  3  1  0
  1 10  1  0
  1 11  1  0
  1 12  1  0
  2 13  1  0
  2 14  1  0
  3 15  1  0
  5 16  1  0
  5 17  1  0
  6 18  1  0
  6 19  1  0
  7 20  1  0
  8 21  1  0
  8 22  1  0
  8 23  1  0
M  END
