
     RDKit          3D

 21 23  0  0  0  0  0  0  0  0999 V2000
   -2.8668    0.6291   -0.3277 C   0  0  0  0  0  0  0  0  0  0  0  0
   -1.8598    0.0456    0.6205 C   0  0  0  0  0  0  0  0  0  0  0  0
   -0.8202   -0.7694   -0.1683 C   0  0  0  0  0  0  0  0  0  0  0  0
    0.2916   -1.4637    0.4625 C   0  0  0  0  0  0  0  0  0  0  0  0
    1.7908   -1.3458    0.1393 C   0  0  0  0  0  0  0  0  0  0  0  0
    2.5020   -0.7220    1.0785 O   0  0  0  0  0  0  0  0  0  0  0  0
    1.5827    0.1384    0.4987 C   0  0  0  0  0  0  0  0  0  0  0  0
    2.4526    1.2226   -0.1720 C   0  0  0  0  0  0  0  0  0  0  0  0
    0.4330   -0.1650   -0.3777 C   0  0  0  0  0  0  0  0  0  0  0  0
   -3.1692   -0.1575   -1.0444 H   0  0  0  0  0  0  0  0  0  0  0  0
   -2.3769    1.4962   -0.8292 H   0  0  0  0  0  0  0  0  0  0  0  0
   -3.7200    1.0137    0.2642 H   0  0  0  0  0  0  0  0  0  0  0  0
   -1.3627    0.8965    1.1458 H   0  0  0  0  0  0  0  0  0  0  0  0
   -2.3128   -0.5791    1.4178 H   0  0  0  0  0  0  0  0  0  0  0  0
   -1.3632   -1.3947   -0.9343 H   0  0  0  0  0  0  0  0  0  0  0  0
    0.1323   -1.4411    1.5520 H   0  0  0  0  0  0  0  0  0  0  0  0
    2.1152   -1.5468   -0.8881 H   0  0  0  0  0  0  0  0  0  0  0  0
    1.7288    2.0737   -0.3429 H   0  0  0  0  0  0  0  0  0  0  0  0
    3.2217    1.6031    0.4882 H   0  0  0  0  0  0  0  0  0  0  0  0
    2.7682    0.8887   -1.1592 H   0  0  0  0  0  0  0  0  0  0  0  0
    0.8327   -0.4223   -1.4241 H   0  0  0  0  0  0  0  0  0  0  0  0
  1  2  1  0
  2  3  1  0
  3  4  1  0
  4  5  1  0
  5  6  1  0
  6  7  1  0
  7  8  1  0
  7  9  1  0
  9  3  1  0
  9  4  1  0
  7  5  1  0
  1 10  1  0
  1 11  1  0
  1 12  1  0
  2 13  1  0
  2 14  1  0
  3 15  1  0
  4 16  1  0
  5 17  1  0
  8 18  1  0
  8 19  1  0
  8 20  1  0
  9 21  1  0
M  END
