
     RDKit          3D

 23 23  0  0  0  0  0  0  0  0999 V2000
    2.6039    0.2103    0.2036 C   0  0  0  0  0  0  0  0  0  0  0  0
    1.6157   -0.7816   -0.3996 C   0  0  0  0  0  0  0  0  0  0  0  0
    0.4090   -0.0557   -0.9368 C   0  0  0  0  0  0  0  0  0  0  0  0
   -0.4452    0.7629   -0.0512 C   0  0  0  0  0  0  0  0  0  0  0  0
   -1.1577    1.9522   -0.6613 C   0  0  0  0  0  0  0  0  0  0  0  0
   -0.2659    0.8150    1.3138 O   0  0  0  0  0  0  0  0  0  0  0  0
   -0.9286   -0.6006   -0.5504 C   0  0  0  0  0  0  0  0  0  0  0  0
   -1.0083   -1.7305    0.4430 C   0  0  0  0  0  0  0  0  0  0  0  0
   -1.9779   -0.5909   -1.4674 O   0  0  0  0  0  0  0  0  0  0  0  0
    2.3175    1.2398   -0.1065 H   0  0  0  0  0  0  0  0  0  0  0  0
    2.5945    0.1941    1.2989 H   0  0  0  0  0  0  0  0  0  0  0  0
    3.6074   -0.0129   -0.1836 H   0  0  0  0  0  0  0  0  0  0  0  0
    1.3494   -1.4883    0.4156 H   0  0  0  0  0  0  0  0  0  0  0  0
    2.0806   -1.3201   -1.2678 H   0  0  0  0  0  0  0  0  0  0  0  0
    0.4783    0.2702   -1.9929 H   0  0  0  0  0  0  0  0  0  0  0  0
   -0.7847    2.1072   -1.6819 H   0  0  0  0  0  0  0  0  0  0  0  0
   -2.2496    1.6985   -0.6417 H   0  0  0  0  0  0  0  0  0  0  0  0
   -1.0321    2.8361   -0.0063 H   0  0  0  0  0  0  0  0  0  0  0  0
   -1.1792    0.9145    1.7344 H   0  0  0  0  0  0  0  0  0  0  0  0
   -0.6808   -2.6999   -0.0020 H   0  0  0  0  0  0  0  0  0  0  0  0
   -0.4483   -1.5302    1.3791 H   0  0  0  0  0  0  0  0  0  0  0  0
   -2.0935   -1.8403    0.7067 H   0  0  0  0  0  0  0  0  0  0  0  0
   -2.8045   -0.3498   -0.9633 H   0  0  0  0  0  0  0  0  0  0  0  0
  1  2  1  0
  2  3  1  0
  3  4  1  0
  4  5  1  0
  4  6  1  0
  4  7  1  0
  7  8  1  0
  7  9  1  0
  7  3  1  0
  1 10  1  0
  1 11  1  0
  1 12  1  0
  2 13  1  0
  2 14  1  0
  3 15  1  0
  5 16  1  0
  5 17  1  0
  5 18  1  0
  6 19  1  0
  8 20  1  0
  8 21  1  0
  8 22  1  0
  9 23  1  0
M  END
