
     RDKit          3D

 25 25  0  0  0  0  0  0  0  0999 V2000
    3.0535    0.5263   -0.0888 C   0  0  0  0  0  0  0  0  0  0  0  0
    1.8226    1.0453    0.5769 C   0  0  0  0  0  0  0  0  0  0  0  0
    0.5538    0.7481   -0.1828 C   0  0  0  0  0  0  0  0  0  0  0  0
   -0.5280    1.2892    0.5496 O   0  0  0  0  0  0  0  0  0  0  0  0
   -1.2747    0.1335    0.3631 C   0  0  0  0  0  0  0  0  0  0  0  0
   -1.9170   -0.4234    1.6041 C   0  0  0  0  0  0  0  0  0  0  0  0
   -2.2422    0.3773   -0.7942 C   0  0  0  0  0  0  0  0  0  0  0  0
   -0.0293   -0.6113    0.0001 C   0  0  0  0  0  0  0  0  0  0  0  0
   -0.1094   -1.4834   -1.2244 C   0  0  0  0  0  0  0  0  0  0  0  0
    2.9809   -0.5095   -0.4306 H   0  0  0  0  0  0  0  0  0  0  0  0
    3.8814    0.5703    0.6678 H   0  0  0  0  0  0  0  0  0  0  0  0
    3.3637    1.2439   -0.8872 H   0  0  0  0  0  0  0  0  0  0  0  0
    1.6735    0.6546    1.6069 H   0  0  0  0  0  0  0  0  0  0  0  0
    1.9100    2.1625    0.6352 H   0  0  0  0  0  0  0  0  0  0  0  0
    0.6147    1.0856   -1.2267 H   0  0  0  0  0  0  0  0  0  0  0  0
   -1.4626   -1.4076    1.8714 H   0  0  0  0  0  0  0  0  0  0  0  0
   -1.8253    0.2295    2.4848 H   0  0  0  0  0  0  0  0  0  0  0  0
   -2.9995   -0.5970    1.4169 H   0  0  0  0  0  0  0  0  0  0  0  0
   -3.0990   -0.2745   -0.6310 H   0  0  0  0  0  0  0  0  0  0  0  0
   -2.5934    1.4485   -0.7277 H   0  0  0  0  0  0  0  0  0  0  0  0
   -1.7598    0.2693   -1.7724 H   0  0  0  0  0  0  0  0  0  0  0  0
    0.3704   -1.2089    0.8627 H   0  0  0  0  0  0  0  0  0  0  0  0
    0.4777   -1.0849   -2.0821 H   0  0  0  0  0  0  0  0  0  0  0  0
   -1.1674   -1.6700   -1.5503 H   0  0  0  0  0  0  0  0  0  0  0  0
    0.3053   -2.5133   -1.0413 H   0  0  0  0  0  0  0  0  0  0  0  0
  1  2  1  0
  2  3  1  0
  3  4  1  0
  4  5  1  0
  5  6  1  0
  5  7  1  0
  5  8  1  0
  8  9  1  0
  8  3  1  0
  1 10  1  0
  1 11  1  0
  1 12  1  0
  2 13  1  0
  2 14  1  0
  3 15  1  0
  6 16  1  0
  6 17  1  0
  6 18  1  0
  7 19  1  0
  7 20  1  0
  7 21  1  0
  8 22  1  0
  9 23  1  0
  9 24  1  0
  9 25  1  0
M  END
