
     RDKit          3D

 21 23  0  0  0  0  0  0  0  0999 V2000
   -3.0495    0.6433   -0.2840 C   0  0  0  0  0  0  0  0  0  0  0  0
   -2.0392   -0.3782    0.2030 C   0  0  0  0  0  0  0  0  0  0  0  0
   -0.6967    0.2420    0.4831 C   0  0  0  0  0  0  0  0  0  0  0  0
    0.3410   -0.7390    0.9705 C   0  0  0  0  0  0  0  0  0  0  0  0
    1.3762   -0.2714    1.7319 O   0  0  0  0  0  0  0  0  0  0  0  0
    2.3334    0.2766    0.9275 C   0  0  0  0  0  0  0  0  0  0  0  0
    2.9177   -0.3926   -0.2406 C   0  0  0  0  0  0  0  0  0  0  0  0
    1.7358    0.5574   -0.3931 C   0  0  0  0  0  0  0  0  0  0  0  0
    0.4105   -0.1352   -0.3864 C   0  0  0  0  0  0  0  0  0  0  0  0
   -3.1225    0.5788   -1.4076 H   0  0  0  0  0  0  0  0  0  0  0  0
   -4.0452    0.3179    0.0822 H   0  0  0  0  0  0  0  0  0  0  0  0
   -2.8005    1.6700    0.0426 H   0  0  0  0  0  0  0  0  0  0  0  0
   -1.9283   -1.1487   -0.5846 H   0  0  0  0  0  0  0  0  0  0  0  0
   -2.4429   -0.8846    1.1148 H   0  0  0  0  0  0  0  0  0  0  0  0
   -0.7581    1.2198    1.0041 H   0  0  0  0  0  0  0  0  0  0  0  0
    0.0808   -1.8321    0.9976 H   0  0  0  0  0  0  0  0  0  0  0  0
    2.9944    1.0162    1.4410 H   0  0  0  0  0  0  0  0  0  0  0  0
    3.8512   -0.0191   -0.6527 H   0  0  0  0  0  0  0  0  0  0  0  0
    2.7467   -1.4792   -0.3497 H   0  0  0  0  0  0  0  0  0  0  0  0
    1.8780    1.5404   -0.8363 H   0  0  0  0  0  0  0  0  0  0  0  0
    0.2170   -0.7826   -1.2713 H   0  0  0  0  0  0  0  0  0  0  0  0
  1  2  1  0
  2  3  1  0
  3  4  1  0
  4  5  1  0
  5  6  1  0
  6  7  1  0
  7  8  1  0
  8  9  1  0
  9  3  1  0
  9  4  1  0
  8  6  1  0
  1 10  1  0
  1 11  1  0
  1 12  1  0
  2 13  1  0
  2 14  1  0
  3 15  1  0
  4 16  1  0
  6 17  1  0
  7 18  1  0
  7 19  1  0
  8 20  1  0
  9 21  1  0
M  END
