
     RDKit          3D

 23 24  0  0  0  0  0  0  0  0999 V2000
    2.1688    1.1081   -0.3271 C   0  0  0  0  0  0  0  0  0  0  0  0
    0.8085    0.7251   -0.8984 C   0  0  0  0  0  0  0  0  0  0  0  0
    0.0097   -0.0514    0.0814 C   0  0  0  0  0  0  0  0  0  0  0  0
   -0.2692    0.5893    1.3082 O   0  0  0  0  0  0  0  0  0  0  0  0
   -1.0014    1.7283    1.0561 C   0  0  0  0  0  0  0  0  0  0  0  0
    0.3283   -1.5131    0.2392 C   0  0  0  0  0  0  0  0  0  0  0  0
   -0.4116   -1.7572   -1.0176 C   0  0  0  0  0  0  0  0  0  0  0  0
   -1.2397   -0.7304   -0.3626 C   0  0  0  0  0  0  0  0  0  0  0  0
   -1.0390   -1.5794    0.8920 C   0  0  0  0  0  0  0  0  0  0  0  0
    2.0612    1.0641    0.7741 H   0  0  0  0  0  0  0  0  0  0  0  0
    2.9493    0.3715   -0.6057 H   0  0  0  0  0  0  0  0  0  0  0  0
    2.4758    2.0962   -0.6991 H   0  0  0  0  0  0  0  0  0  0  0  0
    0.2826    1.6648   -1.1395 H   0  0  0  0  0  0  0  0  0  0  0  0
    0.9293    0.2134   -1.8772 H   0  0  0  0  0  0  0  0  0  0  0  0
   -0.4879    2.4739    0.4407 H   0  0  0  0  0  0  0  0  0  0  0  0
   -1.9521    1.4987    0.5039 H   0  0  0  0  0  0  0  0  0  0  0  0
   -1.2517    2.2672    2.0160 H   0  0  0  0  0  0  0  0  0  0  0  0
    1.1678   -1.9202    0.5906 H   0  0  0  0  0  0  0  0  0  0  0  0
    0.0064   -1.4991   -1.9815 H   0  0  0  0  0  0  0  0  0  0  0  0
   -0.8609   -2.7866   -1.0205 H   0  0  0  0  0  0  0  0  0  0  0  0
   -2.1088   -0.3223   -0.6373 H   0  0  0  0  0  0  0  0  0  0  0  0
   -1.4263   -2.6016    0.8299 H   0  0  0  0  0  0  0  0  0  0  0  0
   -1.1393   -1.0392    1.8345 H   0  0  0  0  0  0  0  0  0  0  0  0
  1  2  1  0
  2  3  1  0
  3  4  1  0
  4  5  1  0
  3  6  1  0
  6  7  1  0
  7  8  1  0
  8  9  1  0
  8  3  1  0
  9  6  1  0
  1 10  1  0
  1 11  1  0
  1 12  1  0
  2 13  1  0
  2 14  1  0
  5 15  1  0
  5 16  1  0
  5 17  1  0
  6 18  1  0
  7 19  1  0
  7 20  1  0
  8 21  1  0
  9 22  1  0
  9 23  1  0
M  END
