
     RDKit          3D

 25 25  0  0  0  0  0  0  0  0999 V2000
    2.5568    0.5853    0.0946 C   0  0  0  0  0  0  0  0  0  0  0  0
    1.6886   -0.5825   -0.2973 C   0  0  0  0  0  0  0  0  0  0  0  0
    0.2757   -0.4607    0.1686 C   0  0  0  0  0  0  0  0  0  0  0  0
   -0.4524   -1.7268   -0.3111 C   0  0  0  0  0  0  0  0  0  0  0  0
   -1.8884   -1.7232    0.1346 C   0  0  0  0  0  0  0  0  0  0  0  0
   -2.5111   -0.6374   -0.4781 O   0  0  0  0  0  0  0  0  0  0  0  0
   -1.9582    0.5036    0.0451 C   0  0  0  0  0  0  0  0  0  0  0  0
   -0.4898    0.6939   -0.3646 C   0  0  0  0  0  0  0  0  0  0  0  0
   -0.1034    2.0379    0.2050 C   0  0  0  0  0  0  0  0  0  0  0  0
    2.7319    1.2931   -0.7608 H   0  0  0  0  0  0  0  0  0  0  0  0
    3.5992    0.2368    0.3635 H   0  0  0  0  0  0  0  0  0  0  0  0
    2.1337    1.0777    0.9837 H   0  0  0  0  0  0  0  0  0  0  0  0
    2.1191   -1.4794    0.2348 H   0  0  0  0  0  0  0  0  0  0  0  0
    1.7782   -0.8290   -1.3764 H   0  0  0  0  0  0  0  0  0  0  0  0
    0.2794   -0.4319    1.2755 H   0  0  0  0  0  0  0  0  0  0  0  0
    0.1099   -2.6169    0.0456 H   0  0  0  0  0  0  0  0  0  0  0  0
   -0.4102   -1.6688   -1.4366 H   0  0  0  0  0  0  0  0  0  0  0  0
   -1.9167   -1.6153    1.2409 H   0  0  0  0  0  0  0  0  0  0  0  0
   -2.3579   -2.6516   -0.2134 H   0  0  0  0  0  0  0  0  0  0  0  0
   -2.4819    1.4384   -0.2452 H   0  0  0  0  0  0  0  0  0  0  0  0
   -1.9805    0.5000    1.1725 H   0  0  0  0  0  0  0  0  0  0  0  0
   -0.4478    0.7697   -1.4561 H   0  0  0  0  0  0  0  0  0  0  0  0
   -0.0252    2.0479    1.3042 H   0  0  0  0  0  0  0  0  0  0  0  0
    0.7375    2.5261   -0.3148 H   0  0  0  0  0  0  0  0  0  0  0  0
   -0.9866    2.7130   -0.0143 H   0  0  0  0  0  0  0  0  0  0  0  0
  1  2  1  0
  2  3  1  0
  3  4  1  0
  4  5  1  0
  5  6  1  0
  6  7  1  0
  7  8  1  0
  8  9  1  0
  8  3  1  0
  1 10  1  0
  1 11  1  0
  1 12  1  0
  2 13  1  0
  2 14  1  0
  3 15  1  0
  4 16  1  0
  4 17  1  0
  5 18  1  0
  5 19  1  0
  7 20  1  0
  7 21  1  0
  8 22  1  0
  9 23  1  0
  9 24  1  0
  9 25  1  0
M  END
