
     RDKit          3D

 25 25  0  0  0  0  0  0  0  0999 V2000
    2.7316    0.5304    0.8159 C   0  0  0  0  0  0  0  0  0  0  0  0
    1.7946   -0.5594    0.4551 C   0  0  0  0  0  0  0  0  0  0  0  0
    0.6805   -0.1514   -0.4725 C   0  0  0  0  0  0  0  0  0  0  0  0
   -0.2987    0.8764   -0.1472 C   0  0  0  0  0  0  0  0  0  0  0  0
   -0.9197    1.7113   -1.2645 C   0  0  0  0  0  0  0  0  0  0  0  0
   -0.7239   -0.5781   -0.1940 C   0  0  0  0  0  0  0  0  0  0  0  0
   -1.5829   -1.0514   -1.3366 C   0  0  0  0  0  0  0  0  0  0  0  0
   -1.1049   -1.1347    1.1547 C   0  0  0  0  0  0  0  0  0  0  0  0
   -0.8708   -0.2205    2.1898 O   0  0  0  0  0  0  0  0  0  0  0  0
    2.4042    1.5422    0.5151 H   0  0  0  0  0  0  0  0  0  0  0  0
    3.7355    0.3916    0.3165 H   0  0  0  0  0  0  0  0  0  0  0  0
    2.9809    0.5463    1.9160 H   0  0  0  0  0  0  0  0  0  0  0  0
    1.3310   -0.9437    1.4116 H   0  0  0  0  0  0  0  0  0  0  0  0
    2.3604   -1.4244    0.0517 H   0  0  0  0  0  0  0  0  0  0  0  0
    0.9697   -0.2186   -1.5498 H   0  0  0  0  0  0  0  0  0  0  0  0
   -0.3311    1.4199    0.8208 H   0  0  0  0  0  0  0  0  0  0  0  0
   -0.4965    2.7193   -1.3203 H   0  0  0  0  0  0  0  0  0  0  0  0
   -0.8790    1.1831   -2.2401 H   0  0  0  0  0  0  0  0  0  0  0  0
   -1.9992    1.8255   -0.9910 H   0  0  0  0  0  0  0  0  0  0  0  0
   -2.2566   -1.8803   -1.0175 H   0  0  0  0  0  0  0  0  0  0  0  0
   -2.2415   -0.2441   -1.7190 H   0  0  0  0  0  0  0  0  0  0  0  0
   -0.9123   -1.3584   -2.1609 H   0  0  0  0  0  0  0  0  0  0  0  0
   -2.2085   -1.3040    1.1421 H   0  0  0  0  0  0  0  0  0  0  0  0
   -0.5485   -2.0808    1.3128 H   0  0  0  0  0  0  0  0  0  0  0  0
   -1.6144    0.4036    2.3114 H   0  0  0  0  0  0  0  0  0  0  0  0
  1  2  1  0
  2  3  1  0
  3  4  1  0
  4  5  1  0
  4  6  1  0
  6  7  1  0
  6  8  1  0
  8  9  1  0
  6  3  1  0
  1 10  1  0
  1 11  1  0
  1 12  1  0
  2 13  1  0
  2 14  1  0
  3 15  1  0
  4 16  1  0
  5 17  1  0
  5 18  1  0
  5 19  1  0
  7 20  1  0
  7 21  1  0
  7 22  1  0
  8 23  1  0
  8 24  1  0
  9 25  1  0
M  END
