
     RDKit          3D

 23 24  0  0  0  0  0  0  0  0999 V2000
    2.9911    0.4097    0.0204 C   0  0  0  0  0  0  0  0  0  0  0  0
    1.8264   -0.3273   -0.5505 C   0  0  0  0  0  0  0  0  0  0  0  0
    0.7377   -0.6187    0.4246 C   0  0  0  0  0  0  0  0  0  0  0  0
   -0.3889   -1.3733   -0.2861 C   0  0  0  0  0  0  0  0  0  0  0  0
   -1.2598   -0.1712   -0.2815 C   0  0  0  0  0  0  0  0  0  0  0  0
   -2.6649   -0.4022    0.2093 C   0  0  0  0  0  0  0  0  0  0  0  0
   -0.8089    1.2039   -0.4289 C   0  0  0  0  0  0  0  0  0  0  0  0
   -1.7173    2.2062   -0.0858 O   0  0  0  0  0  0  0  0  0  0  0  0
   -0.2509    0.4548    0.7066 C   0  0  0  0  0  0  0  0  0  0  0  0
    3.8408   -0.2796    0.2108 H   0  0  0  0  0  0  0  0  0  0  0  0
    2.6494    0.9085    0.9575 H   0  0  0  0  0  0  0  0  0  0  0  0
    3.3026    1.1876   -0.7358 H   0  0  0  0  0  0  0  0  0  0  0  0
    1.4060    0.1751   -1.4642 H   0  0  0  0  0  0  0  0  0  0  0  0
    2.1925   -1.3231   -0.9395 H   0  0  0  0  0  0  0  0  0  0  0  0
    1.1257   -1.1342    1.3246 H   0  0  0  0  0  0  0  0  0  0  0  0
   -0.7572   -2.1875    0.4043 H   0  0  0  0  0  0  0  0  0  0  0  0
   -0.1377   -1.7570   -1.2771 H   0  0  0  0  0  0  0  0  0  0  0  0
   -2.7130   -0.2698    1.2883 H   0  0  0  0  0  0  0  0  0  0  0  0
   -3.3683    0.2551   -0.3612 H   0  0  0  0  0  0  0  0  0  0  0  0
   -2.9662   -1.4453   -0.0234 H   0  0  0  0  0  0  0  0  0  0  0  0
   -0.0945    1.5339   -1.2144 H   0  0  0  0  0  0  0  0  0  0  0  0
   -2.3043    2.4451   -0.8576 H   0  0  0  0  0  0  0  0  0  0  0  0
   -0.6402    0.5092    1.7253 H   0  0  0  0  0  0  0  0  0  0  0  0
  1  2  1  0
  2  3  1  0
  3  4  1  0
  4  5  1  0
  5  6  1  0
  5  7  1  0
  7  8  1  0
  7  9  1  0
  9  3  1  0
  9  5  1  0
  1 10  1  0
  1 11  1  0
  1 12  1  0
  2 13  1  0
  2 14  1  0
  3 15  1  0
  4 16  1  0
  4 17  1  0
  6 18  1  0
  6 19  1  0
  6 20  1  0
  7 21  1  0
  8 22  1  0
  9 23  1  0
M  END
