
     RDKit          3D

 21 22  0  0  0  0  0  0  0  0999 V2000
    1.7483   -0.0730    0.9345 C   0  0  0  0  0  0  0  0  0  0  0  0
    1.3499    0.0814   -0.4969 C   0  0  0  0  0  0  0  0  0  0  0  0
   -0.1107   -0.0318   -0.7984 C   0  0  0  0  0  0  0  0  0  0  0  0
   -0.6667   -1.3602   -0.4322 C   0  0  0  0  0  0  0  0  0  0  0  0
   -1.1973   -1.0751    0.9784 C   0  0  0  0  0  0  0  0  0  0  0  0
   -1.6325    0.3639    0.8955 C   0  0  0  0  0  0  0  0  0  0  0  0
   -1.0271    0.9564   -0.1135 C   0  0  0  0  0  0  0  0  0  0  0  0
   -0.4725    1.8033   -1.1914 C   0  0  0  0  0  0  0  0  0  0  0  0
   -0.4779    0.6073   -1.9675 O   0  0  0  0  0  0  0  0  0  0  0  0
    1.8173   -1.1422    1.1831 H   0  0  0  0  0  0  0  0  0  0  0  0
    2.8350    0.2776    0.9740 H   0  0  0  0  0  0  0  0  0  0  0  0
    1.1589    0.5405    1.6466 H   0  0  0  0  0  0  0  0  0  0  0  0
    1.8128   -0.8293   -1.0291 H   0  0  0  0  0  0  0  0  0  0  0  0
    1.8537    0.9436   -0.9543 H   0  0  0  0  0  0  0  0  0  0  0  0
    0.0776   -2.1768   -0.3732 H   0  0  0  0  0  0  0  0  0  0  0  0
   -1.5024   -1.6363   -1.1033 H   0  0  0  0  0  0  0  0  0  0  0  0
   -0.4501   -1.1573    1.7581 H   0  0  0  0  0  0  0  0  0  0  0  0
   -2.0829   -1.7293    1.1241 H   0  0  0  0  0  0  0  0  0  0  0  0
   -2.3283    0.8210    1.5620 H   0  0  0  0  0  0  0  0  0  0  0  0
   -1.1826    2.5567   -1.6080 H   0  0  0  0  0  0  0  0  0  0  0  0
    0.4774    2.2595   -0.9885 H   0  0  0  0  0  0  0  0  0  0  0  0
  1  2  1  0
  2  3  1  0
  3  4  1  0
  4  5  1  0
  5  6  1  0
  6  7  2  0
  7  8  1  0
  8  9  1  0
  7  3  1  0
  9  3  1  0
  1 10  1  0
  1 11  1  0
  1 12  1  0
  2 13  1  0
  2 14  1  0
  4 15  1  0
  4 16  1  0
  5 17  1  0
  5 18  1  0
  6 19  1  0
  8 20  1  0
  8 21  1  0
M  END
