
     RDKit          3D

 17 18  0  0  0  0  0  0  0  0999 V2000
    2.3378    0.3610   -0.5170 C   0  0  0  0  0  0  0  0  0  0  0  0
    1.2310   -0.5958   -0.1510 C   0  0  0  0  0  0  0  0  0  0  0  0
    0.1057    0.1734    0.5096 C   0  0  0  0  0  0  0  0  0  0  0  0
   -1.0549   -0.6223    0.9279 C   0  0  0  0  0  0  0  0  0  0  0  0
   -2.0072    0.0336    1.7314 O   0  0  0  0  0  0  0  0  0  0  0  0
   -2.3376    0.8106    0.6048 C   0  0  0  0  0  0  0  0  0  0  0  0
   -3.3250    1.5916    0.4539 O   0  0  0  0  0  0  0  0  0  0  0  0
   -1.1776    0.3564   -0.1849 C   0  0  0  0  0  0  0  0  0  0  0  0
   -1.3653   -0.0652   -1.4969 O   0  0  0  0  0  0  0  0  0  0  0  0
    1.9262    1.3207   -0.8858 H   0  0  0  0  0  0  0  0  0  0  0  0
    3.0077   -0.0661   -1.2909 H   0  0  0  0  0  0  0  0  0  0  0  0
    2.9114    0.5969    0.4081 H   0  0  0  0  0  0  0  0  0  0  0  0
    0.8213   -1.0967   -1.0541 H   0  0  0  0  0  0  0  0  0  0  0  0
    1.6715   -1.3463    0.5486 H   0  0  0  0  0  0  0  0  0  0  0  0
    0.4258    1.0222    1.1593 H   0  0  0  0  0  0  0  0  0  0  0  0
   -1.0924   -1.6984    0.7610 H   0  0  0  0  0  0  0  0  0  0  0  0
   -2.0784   -0.7755   -1.5241 H   0  0  0  0  0  0  0  0  0  0  0  0
  1  2  1  0
  2  3  1  0
  3  4  1  0
  4  5  1  0
  5  6  1  0
  6  7  2  0
  6  8  1  0
  8  9  1  0
  8  3  1  0
  8  4  1  0
  1 10  1  0
  1 11  1  0
  1 12  1  0
  2 13  1  0
  2 14  1  0
  3 15  1  0
  4 16  1  0
  9 17  1  0
M  END
