
     RDKit          3D

 21 21  0  0  0  0  0  0  0  0999 V2000
    2.2502    0.7032   -0.0008 C   0  0  0  0  0  0  0  0  0  0  0  0
    1.4891   -0.3022   -0.8373 C   0  0  0  0  0  0  0  0  0  0  0  0
    0.3975   -0.9386   -0.0266 C   0  0  0  0  0  0  0  0  0  0  0  0
   -0.3818   -1.8976   -0.7073 O   0  0  0  0  0  0  0  0  0  0  0  0
   -1.4232   -1.5633    0.1807 C   0  0  0  0  0  0  0  0  0  0  0  0
   -2.3788   -2.0877    0.7591 O   0  0  0  0  0  0  0  0  0  0  0  0
   -0.8586   -0.1661    0.1481 C   0  0  0  0  0  0  0  0  0  0  0  0
   -1.4065    0.5527   -1.0400 C   0  0  0  0  0  0  0  0  0  0  0  0
   -1.0255    0.5369    1.4745 C   0  0  0  0  0  0  0  0  0  0  0  0
    2.2214    0.4498    1.0800 H   0  0  0  0  0  0  0  0  0  0  0  0
    3.3279    0.7461   -0.2858 H   0  0  0  0  0  0  0  0  0  0  0  0
    1.8481    1.7211   -0.1007 H   0  0  0  0  0  0  0  0  0  0  0  0
    1.1146    0.1790   -1.7621 H   0  0  0  0  0  0  0  0  0  0  0  0
    2.2141   -1.0786   -1.1714 H   0  0  0  0  0  0  0  0  0  0  0  0
    0.7661   -1.3421    0.9127 H   0  0  0  0  0  0  0  0  0  0  0  0
   -2.4995    0.3194   -1.2087 H   0  0  0  0  0  0  0  0  0  0  0  0
   -0.9064    0.3430   -1.9841 H   0  0  0  0  0  0  0  0  0  0  0  0
   -1.3970    1.6502   -0.7926 H   0  0  0  0  0  0  0  0  0  0  0  0
   -1.9000    0.0792    2.0060 H   0  0  0  0  0  0  0  0  0  0  0  0
   -0.1249    0.5051    2.0966 H   0  0  0  0  0  0  0  0  0  0  0  0
   -1.3267    1.5905    1.2597 H   0  0  0  0  0  0  0  0  0  0  0  0
  1  2  1  0
  2  3  1  0
  3  4  1  0
  4  5  1  0
  5  6  2  0
  5  7  1  0
  7  8  1  0
  7  9  1  0
  7  3  1  0
  1 10  1  0
  1 11  1  0
  1 12  1  0
  2 13  1  0
  2 14  1  0
  3 15  1  0
  8 16  1  0
  8 17  1  0
  8 18  1  0
  9 19  1  0
  9 20  1  0
  9 21  1  0
M  END
