
     RDKit          3D

 23 24  0  0  0  0  0  0  0  0999 V2000
    2.6070    0.4137   -0.3557 C   0  0  0  0  0  0  0  0  0  0  0  0
    1.4679   -0.0467    0.4710 C   0  0  0  0  0  0  0  0  0  0  0  0
    0.3570   -0.5638   -0.3591 C   0  0  0  0  0  0  0  0  0  0  0  0
   -0.8234   -1.0411    0.4970 C   0  0  0  0  0  0  0  0  0  0  0  0
   -1.1675    0.2211    1.2232 C   0  0  0  0  0  0  0  0  0  0  0  0
   -0.9425    1.3110    0.1846 C   0  0  0  0  0  0  0  0  0  0  0  0
   -0.4575    0.5594   -1.0214 C   0  0  0  0  0  0  0  0  0  0  0  0
   -1.5440   -0.1565   -1.5272 O   0  0  0  0  0  0  0  0  0  0  0  0
   -1.8359   -1.1764   -0.6409 C   0  0  0  0  0  0  0  0  0  0  0  0
    3.1590    1.2260    0.1979 H   0  0  0  0  0  0  0  0  0  0  0  0
    2.3291    0.8083   -1.3504 H   0  0  0  0  0  0  0  0  0  0  0  0
    3.3550   -0.3909   -0.5106 H   0  0  0  0  0  0  0  0  0  0  0  0
    1.8306   -0.9000    1.1083 H   0  0  0  0  0  0  0  0  0  0  0  0
    1.1101    0.7151    1.1679 H   0  0  0  0  0  0  0  0  0  0  0  0
    0.6076   -1.3614   -1.0473 H   0  0  0  0  0  0  0  0  0  0  0  0
   -0.6462   -1.9186    1.0632 H   0  0  0  0  0  0  0  0  0  0  0  0
   -0.6426    0.3877    2.1559 H   0  0  0  0  0  0  0  0  0  0  0  0
   -2.2750    0.1857    1.4238 H   0  0  0  0  0  0  0  0  0  0  0  0
   -0.2500    2.0944    0.5350 H   0  0  0  0  0  0  0  0  0  0  0  0
   -1.9062    1.8567   -0.0417 H   0  0  0  0  0  0  0  0  0  0  0  0
    0.0939    1.1194   -1.7478 H   0  0  0  0  0  0  0  0  0  0  0  0
   -1.5632   -2.1494   -1.1457 H   0  0  0  0  0  0  0  0  0  0  0  0
   -2.8631   -1.1940   -0.2801 H   0  0  0  0  0  0  0  0  0  0  0  0
  1  2  1  0
  2  3  1  0
  3  4  1  0
  4  5  1  0
  5  6  1  0
  6  7  1  0
  7  8  1  0
  8  9  1  0
  7  3  1  0
  9  4  1  0
  1 10  1  0
  1 11  1  0
  1 12  1  0
  2 13  1  0
  2 14  1  0
  3 15  1  0
  4 16  1  0
  5 17  1  0
  5 18  1  0
  6 19  1  0
  6 20  1  0
  7 21  1  0
  9 22  1  0
  9 23  1  0
M  END
