
     RDKit          3D

 23 23  0  0  0  0  0  0  0  0999 V2000
    2.4395    0.8015    0.4686 C   0  0  0  0  0  0  0  0  0  0  0  0
    1.5684    0.5528   -0.7452 C   0  0  0  0  0  0  0  0  0  0  0  0
    0.3315   -0.1981   -0.3948 C   0  0  0  0  0  0  0  0  0  0  0  0
    0.0695   -1.3622   -0.9309 C   0  0  0  0  0  0  0  0  0  0  0  0
   -1.1463   -2.1373   -0.6090 C   0  0  0  0  0  0  0  0  0  0  0  0
   -2.1386   -1.2451   -0.2513 O   0  0  0  0  0  0  0  0  0  0  0  0
   -1.6946   -0.5687    0.8972 C   0  0  0  0  0  0  0  0  0  0  0  0
   -0.5947    0.4086    0.5775 C   0  0  0  0  0  0  0  0  0  0  0  0
   -1.1258    1.7146    0.0361 C   0  0  0  0  0  0  0  0  0  0  0  0
    2.3886   -0.0286    1.2048 H   0  0  0  0  0  0  0  0  0  0  0  0
    2.1412    1.7234    1.0089 H   0  0  0  0  0  0  0  0  0  0  0  0
    3.4881    0.8436    0.1098 H   0  0  0  0  0  0  0  0  0  0  0  0
    2.1100   -0.0025   -1.5359 H   0  0  0  0  0  0  0  0  0  0  0  0
    1.3227    1.5448   -1.1721 H   0  0  0  0  0  0  0  0  0  0  0  0
    0.7671   -1.7877   -1.6442 H   0  0  0  0  0  0  0  0  0  0  0  0
   -0.9394   -2.8986    0.1696 H   0  0  0  0  0  0  0  0  0  0  0  0
   -1.5366   -2.7141   -1.4894 H   0  0  0  0  0  0  0  0  0  0  0  0
   -1.2572   -1.3576    1.5560 H   0  0  0  0  0  0  0  0  0  0  0  0
   -2.5215   -0.1165    1.4639 H   0  0  0  0  0  0  0  0  0  0  0  0
   -0.0246    0.6274    1.5040 H   0  0  0  0  0  0  0  0  0  0  0  0
   -1.6859    1.5906   -0.8960 H   0  0  0  0  0  0  0  0  0  0  0  0
   -0.2504    2.3663   -0.1645 H   0  0  0  0  0  0  0  0  0  0  0  0
   -1.7111    2.2435    0.8370 H   0  0  0  0  0  0  0  0  0  0  0  0
  1  2  1  0
  2  3  1  0
  3  4  2  0
  4  5  1  0
  5  6  1  0
  6  7  1  0
  7  8  1  0
  8  9  1  0
  8  3  1  0
  1 10  1  0
  1 11  1  0
  1 12  1  0
  2 13  1  0
  2 14  1  0
  4 15  1  0
  5 16  1  0
  5 17  1  0
  7 18  1  0
  7 19  1  0
  8 20  1  0
  9 21  1  0
  9 22  1  0
  9 23  1  0
M  END
