
     RDKit          3D

 23 24  0  0  0  0  0  0  0  0999 V2000
    2.9369    0.2275   -0.5937 C   0  0  0  0  0  0  0  0  0  0  0  0
    2.1039   -0.8520    0.0294 C   0  0  0  0  0  0  0  0  0  0  0  0
    0.6952   -0.4060    0.2535 C   0  0  0  0  0  0  0  0  0  0  0  0
    0.1025   -0.3570    1.4439 C   0  0  0  0  0  0  0  0  0  0  0  0
   -1.2922    0.1269    1.3311 C   0  0  0  0  0  0  0  0  0  0  0  0
   -1.5332    0.2795   -0.1336 C   0  0  0  0  0  0  0  0  0  0  0  0
   -2.6882   -0.4258   -0.7924 C   0  0  0  0  0  0  0  0  0  0  0  0
   -0.8105    1.3806   -0.8096 C   0  0  0  0  0  0  0  0  0  0  0  0
   -0.2046    0.0333   -0.8250 C   0  0  0  0  0  0  0  0  0  0  0  0
    3.5376    0.7186    0.2218 H   0  0  0  0  0  0  0  0  0  0  0  0
    2.3266    0.9766   -1.1422 H   0  0  0  0  0  0  0  0  0  0  0  0
    3.6365   -0.2426   -1.3113 H   0  0  0  0  0  0  0  0  0  0  0  0
    2.5788   -1.1679    1.0024 H   0  0  0  0  0  0  0  0  0  0  0  0
    2.1383   -1.7719   -0.6052 H   0  0  0  0  0  0  0  0  0  0  0  0
    0.5608   -0.6320    2.3976 H   0  0  0  0  0  0  0  0  0  0  0  0
   -2.0214   -0.5133    1.8459 H   0  0  0  0  0  0  0  0  0  0  0  0
   -1.3940    1.1531    1.7907 H   0  0  0  0  0  0  0  0  0  0  0  0
   -2.9578   -1.3029   -0.1533 H   0  0  0  0  0  0  0  0  0  0  0  0
   -2.4086   -0.8704   -1.7856 H   0  0  0  0  0  0  0  0  0  0  0  0
   -3.5595    0.2128   -0.9752 H   0  0  0  0  0  0  0  0  0  0  0  0
   -0.3043    2.1261   -0.1712 H   0  0  0  0  0  0  0  0  0  0  0  0
   -1.2453    1.7881   -1.7202 H   0  0  0  0  0  0  0  0  0  0  0  0
   -0.1976   -0.4812   -1.8047 H   0  0  0  0  0  0  0  0  0  0  0  0
  1  2  1  0
  2  3  1  0
  3  4  2  0
  4  5  1  0
  5  6  1  0
  6  7  1  0
  6  8  1  0
  8  9  1  0
  9  3  1  0
  9  6  1  0
  1 10  1  0
  1 11  1  0
  1 12  1  0
  2 13  1  0
  2 14  1  0
  4 15  1  0
  5 16  1  0
  5 17  1  0
  7 18  1  0
  7 19  1  0
  7 20  1  0
  8 21  1  0
  8 22  1  0
  9 23  1  0
M  END
