
     RDKit          3D

 23 23  0  0  0  0  0  0  0  0999 V2000
    2.9959    0.3749   -0.0272 C   0  0  0  0  0  0  0  0  0  0  0  0
    1.5527    0.7970   -0.3443 C   0  0  0  0  0  0  0  0  0  0  0  0
    0.6953    0.3059    0.7600 C   0  0  0  0  0  0  0  0  0  0  0  0
    0.6503   -1.1569    1.0221 C   0  0  0  0  0  0  0  0  0  0  0  0
   -0.6787   -0.9948    1.4288 O   0  0  0  0  0  0  0  0  0  0  0  0
   -0.7396    0.1167    0.5718 C   0  0  0  0  0  0  0  0  0  0  0  0
   -1.2980   -0.2726   -0.7416 C   0  0  0  0  0  0  0  0  0  0  0  0
   -2.8192   -0.3782   -0.5676 C   0  0  0  0  0  0  0  0  0  0  0  0
   -3.3727    0.8202   -0.1653 O   0  0  0  0  0  0  0  0  0  0  0  0
    3.2158    0.7792    1.0033 H   0  0  0  0  0  0  0  0  0  0  0  0
    3.0605   -0.7244   -0.0236 H   0  0  0  0  0  0  0  0  0  0  0  0
    3.7102    0.8474   -0.7351 H   0  0  0  0  0  0  0  0  0  0  0  0
    1.5748    1.9054   -0.3195 H   0  0  0  0  0  0  0  0  0  0  0  0
    1.2976    0.3807   -1.3312 H   0  0  0  0  0  0  0  0  0  0  0  0
    0.9093    0.8704    1.7023 H   0  0  0  0  0  0  0  0  0  0  0  0
    0.7460   -1.8247    0.1436 H   0  0  0  0  0  0  0  0  0  0  0  0
    1.3366   -1.4993    1.8117 H   0  0  0  0  0  0  0  0  0  0  0  0
   -1.3438    0.9300    1.0363 H   0  0  0  0  0  0  0  0  0  0  0  0
   -1.0724    0.4397   -1.5681 H   0  0  0  0  0  0  0  0  0  0  0  0
   -0.9810   -1.2742   -1.1080 H   0  0  0  0  0  0  0  0  0  0  0  0
   -2.9847   -1.1663    0.2005 H   0  0  0  0  0  0  0  0  0  0  0  0
   -3.2141   -0.7492   -1.5308 H   0  0  0  0  0  0  0  0  0  0  0  0
   -3.2408    1.4729   -0.9016 H   0  0  0  0  0  0  0  0  0  0  0  0
  1  2  1  0
  2  3  1  0
  3  4  1  0
  4  5  1  0
  5  6  1  0
  6  7  1  0
  7  8  1  0
  8  9  1  0
  6  3  1  0
  1 10  1  0
  1 11  1  0
  1 12  1  0
  2 13  1  0
  2 14  1  0
  3 15  1  0
  4 16  1  0
  4 17  1  0
  6 18  1  0
  7 19  1  0
  7 20  1  0
  8 21  1  0
  8 22  1  0
  9 23  1  0
M  END
