
     RDKit          3D

 23 23  0  0  0  0  0  0  0  0999 V2000
    2.7901    0.5959   -0.6149 C   0  0  0  0  0  0  0  0  0  0  0  0
    1.7792    0.1310    0.4425 C   0  0  0  0  0  0  0  0  0  0  0  0
    0.8276   -0.8278   -0.1568 C   0  0  0  0  0  0  0  0  0  0  0  0
    0.0728   -0.2869   -1.2567 O   0  0  0  0  0  0  0  0  0  0  0  0
   -0.6102   -0.8123   -0.1521 C   0  0  0  0  0  0  0  0  0  0  0  0
   -1.2773   -2.1571   -0.5276 C   0  0  0  0  0  0  0  0  0  0  0  0
   -1.5233    0.0542    0.6215 C   0  0  0  0  0  0  0  0  0  0  0  0
   -1.4631    1.5182    0.4165 C   0  0  0  0  0  0  0  0  0  0  0  0
   -1.7273    1.8802   -0.9042 O   0  0  0  0  0  0  0  0  0  0  0  0
    2.2977    0.7157   -1.6002 H   0  0  0  0  0  0  0  0  0  0  0  0
    3.6510   -0.0805   -0.6847 H   0  0  0  0  0  0  0  0  0  0  0  0
    3.1950    1.6053   -0.3509 H   0  0  0  0  0  0  0  0  0  0  0  0
    2.4226   -0.4670    1.1656 H   0  0  0  0  0  0  0  0  0  0  0  0
    1.4051    0.9520    1.0312 H   0  0  0  0  0  0  0  0  0  0  0  0
    1.3418   -1.8135   -0.4282 H   0  0  0  0  0  0  0  0  0  0  0  0
   -0.7036   -2.6679   -1.3022 H   0  0  0  0  0  0  0  0  0  0  0  0
   -1.3469   -2.7906    0.3991 H   0  0  0  0  0  0  0  0  0  0  0  0
   -2.2980   -1.9946   -0.8757 H   0  0  0  0  0  0  0  0  0  0  0  0
   -2.6076   -0.2357    0.4696 H   0  0  0  0  0  0  0  0  0  0  0  0
   -1.3567   -0.1787    1.7041 H   0  0  0  0  0  0  0  0  0  0  0  0
   -0.6167    2.0711    0.7912 H   0  0  0  0  0  0  0  0  0  0  0  0
   -2.3488    1.9327    1.0030 H   0  0  0  0  0  0  0  0  0  0  0  0
   -1.9034    2.8563   -0.9218 H   0  0  0  0  0  0  0  0  0  0  0  0
  1  2  1  0
  2  3  1  0
  3  4  1  0
  4  5  1  0
  5  6  1  0
  5  7  1  0
  7  8  1  0
  8  9  1  0
  5  3  1  0
  1 10  1  0
  1 11  1  0
  1 12  1  0
  2 13  1  0
  2 14  1  0
  3 15  1  0
  6 16  1  0
  6 17  1  0
  6 18  1  0
  7 19  1  0
  7 20  1  0
  8 21  1  0
  8 22  1  0
  9 23  1  0
M  END
