
     RDKit          3D

 22 22  0  0  0  0  0  0  0  0999 V2000
    2.7944    0.7857   -0.0194 C   0  0  0  0  0  0  0  0  0  0  0  0
    2.0901   -0.4936   -0.3347 C   0  0  0  0  0  0  0  0  0  0  0  0
    0.6059   -0.3882   -0.0683 C   0  0  0  0  0  0  0  0  0  0  0  0
   -0.0420    0.6731    0.3853 C   0  0  0  0  0  0  0  0  0  0  0  0
   -1.5032    0.4315    0.5342 C   0  0  0  0  0  0  0  0  0  0  0  0
   -2.3205    0.9967   -0.5717 C   0  0  0  0  0  0  0  0  0  0  0  0
   -1.5321   -1.0819    0.6000 C   0  0  0  0  0  0  0  0  0  0  0  0
   -0.3745   -1.4729   -0.2876 C   0  0  0  0  0  0  0  0  0  0  0  0
    3.8805    0.5843   -0.0097 H   0  0  0  0  0  0  0  0  0  0  0  0
    2.5325    1.0674    1.0336 H   0  0  0  0  0  0  0  0  0  0  0  0
    2.5596    1.6126   -0.7194 H   0  0  0  0  0  0  0  0  0  0  0  0
    2.5543   -1.3013    0.2292 H   0  0  0  0  0  0  0  0  0  0  0  0
    2.1939   -0.7189   -1.4117 H   0  0  0  0  0  0  0  0  0  0  0  0
    0.4870    1.6193    0.6163 H   0  0  0  0  0  0  0  0  0  0  0  0
   -1.7928    0.8806    1.5193 H   0  0  0  0  0  0  0  0  0  0  0  0
   -1.7427    1.7338   -1.1856 H   0  0  0  0  0  0  0  0  0  0  0  0
   -2.8157    0.2243   -1.2132 H   0  0  0  0  0  0  0  0  0  0  0  0
   -3.1796    1.5981   -0.1512 H   0  0  0  0  0  0  0  0  0  0  0  0
   -1.2430   -1.3571    1.6388 H   0  0  0  0  0  0  0  0  0  0  0  0
   -2.4880   -1.5110    0.2790 H   0  0  0  0  0  0  0  0  0  0  0  0
   -0.6918   -1.4085   -1.3482 H   0  0  0  0  0  0  0  0  0  0  0  0
    0.0278   -2.4741   -0.0296 H   0  0  0  0  0  0  0  0  0  0  0  0
  1  2  1  0
  2  3  1  0
  3  4  2  0
  4  5  1  0
  5  6  1  0
  5  7  1  0
  7  8  1  0
  8  3  1  0
  1  9  1  0
  1 10  1  0
  1 11  1  0
  2 12  1  0
  2 13  1  0
  4 14  1  0
  5 15  1  0
  6 16  1  0
  6 17  1  0
  6 18  1  0
  7 19  1  0
  7 20  1  0
  8 21  1  0
  8 22  1  0
M  END
