
     RDKit          3D

 23 25  0  0  0  0  0  0  0  0999 V2000
    2.1828    1.0893   -0.4872 C   0  0  0  0  0  0  0  0  0  0  0  0
    1.6538   -0.2410   -0.1317 C   0  0  0  0  0  0  0  0  0  0  0  0
    0.2411   -0.4687   -0.2254 C   0  0  0  0  0  0  0  0  0  0  0  0
   -0.3388   -1.8539    0.1414 C   0  0  0  0  0  0  0  0  0  0  0  0
   -1.0723   -1.0695    1.2451 C   0  0  0  0  0  0  0  0  0  0  0  0
   -0.9391    0.1355    0.3041 C   0  0  0  0  0  0  0  0  0  0  0  0
   -1.0735    1.4597    0.8652 C   0  0  0  0  0  0  0  0  0  0  0  0
   -1.5988   -0.1112   -1.0675 C   0  0  0  0  0  0  0  0  0  0  0  0
   -0.5365   -1.2213   -1.1838 C   0  0  0  0  0  0  0  0  0  0  0  0
    1.5241    1.7259   -1.0981 H   0  0  0  0  0  0  0  0  0  0  0  0
    3.1602    1.0344   -1.0497 H   0  0  0  0  0  0  0  0  0  0  0  0
    2.4404    1.7065    0.4239 H   0  0  0  0  0  0  0  0  0  0  0  0
    2.2070   -1.0053   -0.7582 H   0  0  0  0  0  0  0  0  0  0  0  0
    2.0073   -0.4780    0.9182 H   0  0  0  0  0  0  0  0  0  0  0  0
    0.4256   -2.5718    0.3931 H   0  0  0  0  0  0  0  0  0  0  0  0
   -2.0936   -1.3980    1.4308 H   0  0  0  0  0  0  0  0  0  0  0  0
   -0.4235   -0.8934    2.1191 H   0  0  0  0  0  0  0  0  0  0  0  0
   -0.4164    2.1851    0.3533 H   0  0  0  0  0  0  0  0  0  0  0  0
   -2.1230    1.8457    0.6859 H   0  0  0  0  0  0  0  0  0  0  0  0
   -0.9617    1.4518    1.9594 H   0  0  0  0  0  0  0  0  0  0  0  0
   -2.6245   -0.4693   -1.0085 H   0  0  0  0  0  0  0  0  0  0  0  0
   -1.3921    0.7663   -1.6976 H   0  0  0  0  0  0  0  0  0  0  0  0
   -0.2486   -1.6188   -2.1317 H   0  0  0  0  0  0  0  0  0  0  0  0
  1  2  1  0
  2  3  1  0
  3  4  1  0
  4  5  1  0
  5  6  1  0
  6  7  1  0
  6  8  1  0
  8  9  1  0
  6  3  1  0
  9  3  1  0
  9  4  1  0
  1 10  1  0
  1 11  1  0
  1 12  1  0
  2 13  1  0
  2 14  1  0
  4 15  1  0
  5 16  1  0
  5 17  1  0
  7 18  1  0
  7 19  1  0
  7 20  1  0
  8 21  1  0
  8 22  1  0
  9 23  1  0
M  END
