
     RDKit          3D

 23 23  0  0  0  0  0  0  0  0999 V2000
    2.3352   -0.4186   -0.7682 C   0  0  0  0  0  0  0  0  0  0  0  0
    1.4908    0.6399   -0.1748 C   0  0  0  0  0  0  0  0  0  0  0  0
    0.1504    0.2696    0.2877 C   0  0  0  0  0  0  0  0  0  0  0  0
   -0.4958   -0.8829    0.2858 C   0  0  0  0  0  0  0  0  0  0  0  0
    0.0358   -2.1728   -0.2292 C   0  0  0  0  0  0  0  0  0  0  0  0
   -1.8670   -0.6790    0.8906 C   0  0  0  0  0  0  0  0  0  0  0  0
   -1.7744    0.5215    1.5321 O   0  0  0  0  0  0  0  0  0  0  0  0
   -0.8095    1.2712    0.9119 C   0  0  0  0  0  0  0  0  0  0  0  0
   -1.3581    2.0725   -0.2610 C   0  0  0  0  0  0  0  0  0  0  0  0
    1.9006   -1.0326   -1.5549 H   0  0  0  0  0  0  0  0  0  0  0  0
    3.1924    0.1244   -1.2912 H   0  0  0  0  0  0  0  0  0  0  0  0
    2.9003   -1.0072    0.0131 H   0  0  0  0  0  0  0  0  0  0  0  0
    1.3716    1.4420   -0.9646 H   0  0  0  0  0  0  0  0  0  0  0  0
    2.0996    1.1484    0.6161 H   0  0  0  0  0  0  0  0  0  0  0  0
   -0.6467   -2.9785    0.1912 H   0  0  0  0  0  0  0  0  0  0  0  0
   -0.0886   -2.2923   -1.3277 H   0  0  0  0  0  0  0  0  0  0  0  0
    1.0199   -2.4322    0.1613 H   0  0  0  0  0  0  0  0  0  0  0  0
   -2.6399   -0.6515    0.0699 H   0  0  0  0  0  0  0  0  0  0  0  0
   -2.0258   -1.5541    1.5462 H   0  0  0  0  0  0  0  0  0  0  0  0
   -0.2475    1.8944    1.6050 H   0  0  0  0  0  0  0  0  0  0  0  0
   -1.7030    1.3309   -1.0122 H   0  0  0  0  0  0  0  0  0  0  0  0
   -2.2555    2.6384    0.1168 H   0  0  0  0  0  0  0  0  0  0  0  0
   -0.5846    2.7485   -0.6437 H   0  0  0  0  0  0  0  0  0  0  0  0
  1  2  1  0
  2  3  1  0
  3  4  2  0
  4  5  1  0
  4  6  1  0
  6  7  1  0
  7  8  1  0
  8  9  1  0
  8  3  1  0
  1 10  1  0
  1 11  1  0
  1 12  1  0
  2 13  1  0
  2 14  1  0
  5 15  1  0
  5 16  1  0
  5 17  1  0
  6 18  1  0
  6 19  1  0
  8 20  1  0
  9 21  1  0
  9 22  1  0
  9 23  1  0
M  END
