
     RDKit          3D

 21 21  0  0  0  0  0  0  0  0999 V2000
    2.1532    0.3484    0.9999 C   0  0  0  0  0  0  0  0  0  0  0  0
    1.4547   -0.4025   -0.1063 C   0  0  0  0  0  0  0  0  0  0  0  0
   -0.0186   -0.1187   -0.1680 C   0  0  0  0  0  0  0  0  0  0  0  0
   -0.3025    1.3432   -0.4040 C   0  0  0  0  0  0  0  0  0  0  0  0
    0.0840    2.1537    0.6378 O   0  0  0  0  0  0  0  0  0  0  0  0
   -0.5829   -0.8951   -1.2950 C   0  0  0  0  0  0  0  0  0  0  0  0
   -1.7009   -1.4549   -0.8803 C   0  0  0  0  0  0  0  0  0  0  0  0
   -1.8985   -1.0581    0.5321 C   0  0  0  0  0  0  0  0  0  0  0  0
   -0.6768   -0.6105    0.9610 O   0  0  0  0  0  0  0  0  0  0  0  0
    2.3441    1.4024    0.7441 H   0  0  0  0  0  0  0  0  0  0  0  0
    1.6085    0.2280    1.9641 H   0  0  0  0  0  0  0  0  0  0  0  0
    3.1542   -0.1254    1.1300 H   0  0  0  0  0  0  0  0  0  0  0  0
    1.5650   -1.4938    0.1361 H   0  0  0  0  0  0  0  0  0  0  0  0
    1.9339   -0.1985   -1.0643 H   0  0  0  0  0  0  0  0  0  0  0  0
    0.2125    1.6243   -1.3424 H   0  0  0  0  0  0  0  0  0  0  0  0
   -1.3845    1.4794   -0.5761 H   0  0  0  0  0  0  0  0  0  0  0  0
   -0.5387    2.9026    0.8162 H   0  0  0  0  0  0  0  0  0  0  0  0
   -0.1293   -0.9650   -2.2668 H   0  0  0  0  0  0  0  0  0  0  0  0
   -2.3770   -2.1094   -1.4828 H   0  0  0  0  0  0  0  0  0  0  0  0
   -2.3145   -1.8786    1.1505 H   0  0  0  0  0  0  0  0  0  0  0  0
   -2.5860   -0.1716    0.5142 H   0  0  0  0  0  0  0  0  0  0  0  0
  1  2  1  0
  2  3  1  0
  3  4  1  0
  4  5  1  0
  3  6  1  0
  6  7  2  0
  7  8  1  0
  8  9  1  0
  9  3  1  0
  1 10  1  0
  1 11  1  0
  1 12  1  0
  2 13  1  0
  2 14  1  0
  4 15  1  0
  4 16  1  0
  5 17  1  0
  6 18  1  0
  7 19  1  0
  8 20  1  0
  8 21  1  0
M  END
