
     RDKit          3D

 25 26  0  0  0  0  0  0  0  0999 V2000
    2.6937   -0.9854   -0.3506 C   0  0  0  0  0  0  0  0  0  0  0  0
    1.7453    0.1404   -0.7046 C   0  0  0  0  0  0  0  0  0  0  0  0
    0.8376    0.4813    0.4083 C   0  0  0  0  0  0  0  0  0  0  0  0
   -0.0549   -0.6827    0.8626 C   0  0  0  0  0  0  0  0  0  0  0  0
   -1.4833   -0.1540    0.5901 C   0  0  0  0  0  0  0  0  0  0  0  0
   -2.4546   -1.2526    0.3864 C   0  0  0  0  0  0  0  0  0  0  0  0
   -1.1651    0.6648   -0.6052 C   0  0  0  0  0  0  0  0  0  0  0  0
   -0.9134    2.0217   -0.8589 C   0  0  0  0  0  0  0  0  0  0  0  0
   -0.1337    1.5488    0.2133 C   0  0  0  0  0  0  0  0  0  0  0  0
    3.6574   -0.8325   -0.8791 H   0  0  0  0  0  0  0  0  0  0  0  0
    2.3075   -1.9670   -0.7048 H   0  0  0  0  0  0  0  0  0  0  0  0
    2.9040   -0.9719    0.7312 H   0  0  0  0  0  0  0  0  0  0  0  0
    2.4112    1.0452   -0.8489 H   0  0  0  0  0  0  0  0  0  0  0  0
    1.3028   -0.0456   -1.6869 H   0  0  0  0  0  0  0  0  0  0  0  0
    1.5062    0.6826    1.3001 H   0  0  0  0  0  0  0  0  0  0  0  0
    0.0448   -0.9082    1.9240 H   0  0  0  0  0  0  0  0  0  0  0  0
    0.0973   -1.5743    0.2441 H   0  0  0  0  0  0  0  0  0  0  0  0
   -1.7775    0.4312    1.4776 H   0  0  0  0  0  0  0  0  0  0  0  0
   -3.4767   -0.8739    0.6100 H   0  0  0  0  0  0  0  0  0  0  0  0
   -2.4822   -1.6668   -0.6359 H   0  0  0  0  0  0  0  0  0  0  0  0
   -2.2571   -2.0506    1.1414 H   0  0  0  0  0  0  0  0  0  0  0  0
   -0.6937   -0.0432   -1.3596 H   0  0  0  0  0  0  0  0  0  0  0  0
   -1.7394    2.7609   -0.6900 H   0  0  0  0  0  0  0  0  0  0  0  0
   -0.3642    2.3348   -1.7946 H   0  0  0  0  0  0  0  0  0  0  0  0
   -0.5121    1.8970    1.2301 H   0  0  0  0  0  0  0  0  0  0  0  0
  1  2  1  0
  2  3  1  0
  3  4  1  0
  4  5  1  0
  5  6  1  0
  5  7  1  0
  7  8  1  0
  8  9  1  0
  9  3  1  0
  9  7  1  0
  1 10  1  0
  1 11  1  0
  1 12  1  0
  2 13  1  0
  2 14  1  0
  3 15  1  0
  4 16  1  0
  4 17  1  0
  5 18  1  0
  6 19  1  0
  6 20  1  0
  6 21  1  0
  7 22  1  0
  8 23  1  0
  8 24  1  0
  9 25  1  0
M  END
