
     RDKit          3D

 23 24  0  0  0  0  0  0  0  0999 V2000
   -2.8452    0.0742    0.1708 C   0  0  0  0  0  0  0  0  0  0  0  0
   -1.7135   -0.6351   -0.5350 C   0  0  0  0  0  0  0  0  0  0  0  0
   -0.4291    0.1163   -0.3156 C   0  0  0  0  0  0  0  0  0  0  0  0
   -0.1765    0.1574    1.1683 C   0  0  0  0  0  0  0  0  0  0  0  0
    0.9930    0.8788    1.5087 O   0  0  0  0  0  0  0  0  0  0  0  0
    1.7441    0.9767    0.3960 C   0  0  0  0  0  0  0  0  0  0  0  0
    2.9635    0.3570    0.0040 C   0  0  0  0  0  0  0  0  0  0  0  0
    1.8458   -0.5064   -0.1006 C   0  0  0  0  0  0  0  0  0  0  0  0
    0.7288   -0.5764   -1.0626 C   0  0  0  0  0  0  0  0  0  0  0  0
   -3.0943   -0.3796    1.1490 H   0  0  0  0  0  0  0  0  0  0  0  0
   -3.7582    0.1390   -0.4784 H   0  0  0  0  0  0  0  0  0  0  0  0
   -2.5706    1.1376    0.3824 H   0  0  0  0  0  0  0  0  0  0  0  0
   -1.9323   -0.5915   -1.6269 H   0  0  0  0  0  0  0  0  0  0  0  0
   -1.6478   -1.7061   -0.2789 H   0  0  0  0  0  0  0  0  0  0  0  0
   -0.5966    1.1433   -0.6989 H   0  0  0  0  0  0  0  0  0  0  0  0
   -0.0896   -0.8525    1.5769 H   0  0  0  0  0  0  0  0  0  0  0  0
   -1.0063    0.7022    1.6271 H   0  0  0  0  0  0  0  0  0  0  0  0
    1.3172    1.7297   -0.3183 H   0  0  0  0  0  0  0  0  0  0  0  0
    3.7553    0.1097    0.7618 H   0  0  0  0  0  0  0  0  0  0  0  0
    3.4693    0.7123   -0.9361 H   0  0  0  0  0  0  0  0  0  0  0  0
    1.7378   -1.3038    0.6943 H   0  0  0  0  0  0  0  0  0  0  0  0
    0.4201   -1.6298   -1.2528 H   0  0  0  0  0  0  0  0  0  0  0  0
    0.8850   -0.0532   -2.0140 H   0  0  0  0  0  0  0  0  0  0  0  0
  1  2  1  0
  2  3  1  0
  3  4  1  0
  4  5  1  0
  5  6  1  0
  6  7  1  0
  7  8  1  0
  8  9  1  0
  9  3  1  0
  8  6  1  0
  1 10  1  0
  1 11  1  0
  1 12  1  0
  2 13  1  0
  2 14  1  0
  3 15  1  0
  4 16  1  0
  4 17  1  0
  6 18  1  0
  7 19  1  0
  7 20  1  0
  8 21  1  0
  9 22  1  0
  9 23  1  0
M  END
