
     RDKit          3D

 23 23  0  0  0  0  0  0  0  0999 V2000
    3.4583   -0.3698    0.1234 C   0  0  0  0  0  0  0  0  0  0  0  0
    2.2644    0.4617   -0.2925 C   0  0  0  0  0  0  0  0  0  0  0  0
    0.9599   -0.3057   -0.1402 C   0  0  0  0  0  0  0  0  0  0  0  0
    0.7148   -0.7126    1.1598 O   0  0  0  0  0  0  0  0  0  0  0  0
   -0.1197    0.2916    0.6869 C   0  0  0  0  0  0  0  0  0  0  0  0
   -1.5567   -0.0244    0.4882 C   0  0  0  0  0  0  0  0  0  0  0  0
   -2.2869    1.2245    0.0968 C   0  0  0  0  0  0  0  0  0  0  0  0
   -1.8200   -1.1699   -0.4494 C   0  0  0  0  0  0  0  0  0  0  0  0
   -2.0778   -0.4146    1.7455 O   0  0  0  0  0  0  0  0  0  0  0  0
    3.6338   -0.2323    1.2230 H   0  0  0  0  0  0  0  0  0  0  0  0
    3.3478   -1.4372   -0.1251 H   0  0  0  0  0  0  0  0  0  0  0  0
    4.3649    0.0072   -0.4048 H   0  0  0  0  0  0  0  0  0  0  0  0
    2.2194    1.3316    0.3975 H   0  0  0  0  0  0  0  0  0  0  0  0
    2.4175    0.8535   -1.2974 H   0  0  0  0  0  0  0  0  0  0  0  0
    0.6619   -0.9053   -0.9992 H   0  0  0  0  0  0  0  0  0  0  0  0
    0.0839    1.3478    1.0118 H   0  0  0  0  0  0  0  0  0  0  0  0
   -3.3881    1.1366    0.2636 H   0  0  0  0  0  0  0  0  0  0  0  0
   -2.0578    1.5797   -0.9094 H   0  0  0  0  0  0  0  0  0  0  0  0
   -1.9427    2.0318    0.7996 H   0  0  0  0  0  0  0  0  0  0  0  0
   -2.7483   -1.7298   -0.1284 H   0  0  0  0  0  0  0  0  0  0  0  0
   -2.0639   -0.8264   -1.4907 H   0  0  0  0  0  0  0  0  0  0  0  0
   -1.0146   -1.9259   -0.4446 H   0  0  0  0  0  0  0  0  0  0  0  0
   -3.0501   -0.2122    1.7101 H   0  0  0  0  0  0  0  0  0  0  0  0
  1  2  1  0
  2  3  1  0
  3  4  1  0
  4  5  1  0
  5  6  1  0
  6  7  1  0
  6  8  1  0
  6  9  1  0
  5  3  1  0
  1 10  1  0
  1 11  1  0
  1 12  1  0
  2 13  1  0
  2 14  1  0
  3 15  1  0
  5 16  1  0
  7 17  1  0
  7 18  1  0
  7 19  1  0
  8 20  1  0
  8 21  1  0
  8 22  1  0
  9 23  1  0
M  END
