
     RDKit          3D

 20 20  0  0  0  0  0  0  0  0999 V2000
    2.7550    0.0577   -0.1239 C   0  0  0  0  0  0  0  0  0  0  0  0
    1.3954    0.6887   -0.4515 C   0  0  0  0  0  0  0  0  0  0  0  0
    0.4258   -0.4439   -0.6512 C   0  0  0  0  0  0  0  0  0  0  0  0
    0.1679   -1.3613    0.3626 O   0  0  0  0  0  0  0  0  0  0  0  0
   -0.9003   -0.3568   -0.0059 C   0  0  0  0  0  0  0  0  0  0  0  0
   -2.0899   -1.0603   -0.6515 C   0  0  0  0  0  0  0  0  0  0  0  0
   -1.1221    0.4765    1.1975 C   0  0  0  0  0  0  0  0  0  0  0  0
   -2.0728    1.4812    1.0190 O   0  0  0  0  0  0  0  0  0  0  0  0
    2.6922   -0.5363    0.8079 H   0  0  0  0  0  0  0  0  0  0  0  0
    3.4674    0.8945    0.0096 H   0  0  0  0  0  0  0  0  0  0  0  0
    3.0428   -0.5396   -1.0085 H   0  0  0  0  0  0  0  0  0  0  0  0
    1.1105    1.4500    0.2649 H   0  0  0  0  0  0  0  0  0  0  0  0
    1.5871    1.1732   -1.4635 H   0  0  0  0  0  0  0  0  0  0  0  0
    0.5199   -0.9949   -1.6399 H   0  0  0  0  0  0  0  0  0  0  0  0
   -2.8978   -1.1656    0.0874 H   0  0  0  0  0  0  0  0  0  0  0  0
   -1.7948   -2.0609   -1.0259 H   0  0  0  0  0  0  0  0  0  0  0  0
   -2.4583   -0.4602   -1.5258 H   0  0  0  0  0  0  0  0  0  0  0  0
   -1.5421   -0.1312    2.0663 H   0  0  0  0  0  0  0  0  0  0  0  0
   -0.1951    0.9022    1.6049 H   0  0  0  0  0  0  0  0  0  0  0  0
   -2.0908    1.9870    1.8823 H   0  0  0  0  0  0  0  0  0  0  0  0
  1  2  1  0
  2  3  1  0
  3  4  1  0
  4  5  1  0
  5  6  1  0
  5  7  1  0
  7  8  1  0
  5  3  1  0
  1  9  1  0
  1 10  1  0
  1 11  1  0
  2 12  1  0
  2 13  1  0
  3 14  1  0
  6 15  1  0
  6 16  1  0
  6 17  1  0
  7 18  1  0
  7 19  1  0
  8 20  1  0
M  END
