
     RDKit          3D

 19 19  0  0  0  0  0  0  0  0999 V2000
    2.2203    0.6379    0.0576 C   0  0  0  0  0  0  0  0  0  0  0  0
    1.0041    0.2858   -0.7662 C   0  0  0  0  0  0  0  0  0  0  0  0
   -0.0079   -0.5045    0.0319 C   0  0  0  0  0  0  0  0  0  0  0  0
    0.5237   -1.6981    0.5011 O   0  0  0  0  0  0  0  0  0  0  0  0
   -0.8062    0.2921    1.0168 C   0  0  0  0  0  0  0  0  0  0  0  0
   -1.9238    0.4134    0.0044 C   0  0  0  0  0  0  0  0  0  0  0  0
   -1.2782   -0.7232   -0.7602 C   0  0  0  0  0  0  0  0  0  0  0  0
    2.2796    0.0533    0.9964 H   0  0  0  0  0  0  0  0  0  0  0  0
    2.2789    1.7352    0.2758 H   0  0  0  0  0  0  0  0  0  0  0  0
    3.1764    0.4074   -0.4908 H   0  0  0  0  0  0  0  0  0  0  0  0
    1.3481   -0.3118   -1.6347 H   0  0  0  0  0  0  0  0  0  0  0  0
    0.5212    1.1936   -1.2000 H   0  0  0  0  0  0  0  0  0  0  0  0
    0.0580   -1.9815    1.3287 H   0  0  0  0  0  0  0  0  0  0  0  0
   -1.1189   -0.3236    1.8790 H   0  0  0  0  0  0  0  0  0  0  0  0
   -0.4151    1.2704    1.3122 H   0  0  0  0  0  0  0  0  0  0  0  0
   -2.9285    0.1331    0.3627 H   0  0  0  0  0  0  0  0  0  0  0  0
   -1.9763    1.3775   -0.5316 H   0  0  0  0  0  0  0  0  0  0  0  0
   -1.1893   -0.5618   -1.8426 H   0  0  0  0  0  0  0  0  0  0  0  0
   -1.7663   -1.6954   -0.5403 H   0  0  0  0  0  0  0  0  0  0  0  0
  1  2  1  0
  2  3  1  0
  3  4  1  0
  3  5  1  0
  5  6  1  0
  6  7  1  0
  7  3  1  0
  1  8  1  0
  1  9  1  0
  1 10  1  0
  2 11  1  0
  2 12  1  0
  4 13  1  0
  5 14  1  0
  5 15  1  0
  6 16  1  0
  6 17  1  0
  7 18  1  0
  7 19  1  0
M  END
