
     RDKit          3D

 23 24  0  0  0  0  0  0  0  0999 V2000
    2.3259    0.6932   -0.0548 C   0  0  0  0  0  0  0  0  0  0  0  0
    1.5605   -0.5739   -0.2157 C   0  0  0  0  0  0  0  0  0  0  0  0
    0.1588   -0.4241   -0.6640 C   0  0  0  0  0  0  0  0  0  0  0  0
   -0.4315   -1.8420   -0.7608 C   0  0  0  0  0  0  0  0  0  0  0  0
   -1.2133   -1.9685    0.3871 O   0  0  0  0  0  0  0  0  0  0  0  0
   -1.9236   -0.7500    0.3625 C   0  0  0  0  0  0  0  0  0  0  0  0
   -0.7811    0.2360    0.2443 C   0  0  0  0  0  0  0  0  0  0  0  0
   -0.5531    1.1541    1.3078 C   0  0  0  0  0  0  0  0  0  0  0  0
   -1.1680    1.6405   -0.0214 C   0  0  0  0  0  0  0  0  0  0  0  0
    3.3119    0.6783   -0.5614 H   0  0  0  0  0  0  0  0  0  0  0  0
    1.7912    1.6044   -0.3623 H   0  0  0  0  0  0  0  0  0  0  0  0
    2.5568    0.8168    1.0356 H   0  0  0  0  0  0  0  0  0  0  0  0
    1.6267   -1.2090    0.6882 H   0  0  0  0  0  0  0  0  0  0  0  0
    2.0951   -1.1630   -1.0212 H   0  0  0  0  0  0  0  0  0  0  0  0
    0.0892    0.0112   -1.6706 H   0  0  0  0  0  0  0  0  0  0  0  0
    0.3596   -2.6088   -0.7377 H   0  0  0  0  0  0  0  0  0  0  0  0
   -1.0722   -1.9355   -1.6605 H   0  0  0  0  0  0  0  0  0  0  0  0
   -2.5047   -0.7316   -0.5997 H   0  0  0  0  0  0  0  0  0  0  0  0
   -2.5426   -0.6070    1.2463 H   0  0  0  0  0  0  0  0  0  0  0  0
    0.3798    1.6687    1.5775 H   0  0  0  0  0  0  0  0  0  0  0  0
   -1.2891    1.1624    2.1667 H   0  0  0  0  0  0  0  0  0  0  0  0
   -2.2524    1.9166    0.0010 H   0  0  0  0  0  0  0  0  0  0  0  0
   -0.5241    2.2312   -0.6871 H   0  0  0  0  0  0  0  0  0  0  0  0
  1  2  1  0
  2  3  1  0
  3  4  1  0
  4  5  1  0
  5  6  1  0
  6  7  1  0
  7  8  1  0
  8  9  1  0
  7  3  1  0
  9  7  1  0
  1 10  1  0
  1 11  1  0
  1 12  1  0
  2 13  1  0
  2 14  1  0
  3 15  1  0
  4 16  1  0
  4 17  1  0
  6 18  1  0
  6 19  1  0
  8 20  1  0
  8 21  1  0
  9 22  1  0
  9 23  1  0
M  END
