
     RDKit          3D

 23 23  0  0  0  0  0  0  0  0999 V2000
   -2.7479    0.6310    0.5669 C   0  0  0  0  0  0  0  0  0  0  0  0
   -1.9841   -0.1709   -0.4417 C   0  0  0  0  0  0  0  0  0  0  0  0
   -0.5901   -0.4911   -0.0231 C   0  0  0  0  0  0  0  0  0  0  0  0
   -0.5508   -1.2324    1.1569 O   0  0  0  0  0  0  0  0  0  0  0  0
    0.1802   -1.2321   -1.0512 C   0  0  0  0  0  0  0  0  0  0  0  0
    1.4686   -0.9516   -0.9028 C   0  0  0  0  0  0  0  0  0  0  0  0
    1.6277    0.0085    0.2531 C   0  0  0  0  0  0  0  0  0  0  0  0
    2.7925    0.9024    0.1018 C   0  0  0  0  0  0  0  0  0  0  0  0
    0.2878    0.7175    0.1857 C   0  0  0  0  0  0  0  0  0  0  0  0
   -3.5489    1.2576    0.0939 H   0  0  0  0  0  0  0  0  0  0  0  0
   -3.2528   -0.0250    1.3351 H   0  0  0  0  0  0  0  0  0  0  0  0
   -2.1049    1.3350    1.1274 H   0  0  0  0  0  0  0  0  0  0  0  0
   -2.0270    0.2751   -1.4551 H   0  0  0  0  0  0  0  0  0  0  0  0
   -2.5190   -1.1561   -0.5376 H   0  0  0  0  0  0  0  0  0  0  0  0
   -0.4810   -2.1915    0.9023 H   0  0  0  0  0  0  0  0  0  0  0  0
   -0.2301   -1.8903   -1.7977 H   0  0  0  0  0  0  0  0  0  0  0  0
    2.2898   -1.3282   -1.4908 H   0  0  0  0  0  0  0  0  0  0  0  0
    1.6185   -0.5601    1.2254 H   0  0  0  0  0  0  0  0  0  0  0  0
    3.5844    0.5501   -0.5798 H   0  0  0  0  0  0  0  0  0  0  0  0
    2.4642    1.9085   -0.2121 H   0  0  0  0  0  0  0  0  0  0  0  0
    3.2622    1.0331    1.1206 H   0  0  0  0  0  0  0  0  0  0  0  0
    0.1345    1.2335    1.1259 H   0  0  0  0  0  0  0  0  0  0  0  0
    0.3262    1.3768   -0.7030 H   0  0  0  0  0  0  0  0  0  0  0  0
  1  2  1  0
  2  3  1  0
  3  4  1  0
  3  5  1  0
  5  6  2  0
  6  7  1  0
  7  8  1  0
  7  9  1  0
  9  3  1  0
  1 10  1  0
  1 11  1  0
  1 12  1  0
  2 13  1  0
  2 14  1  0
  4 15  1  0
  5 16  1  0
  6 17  1  0
  7 18  1  0
  8 19  1  0
  8 20  1  0
  8 21  1  0
  9 22  1  0
  9 23  1  0
M  END
