
     RDKit          3D

 21 21  0  0  0  0  0  0  0  0999 V2000
   -2.1325    0.8805    0.0835 C   0  0  0  0  0  0  0  0  0  0  0  0
   -1.7009   -0.5213    0.1106 C   0  0  0  0  0  0  0  0  0  0  0  0
   -0.3410   -0.9190   -0.1455 C   0  0  0  0  0  0  0  0  0  0  0  0
    0.0760   -0.5183   -1.4519 O   0  0  0  0  0  0  0  0  0  0  0  0
    1.4131   -0.6815   -1.0810 C   0  0  0  0  0  0  0  0  0  0  0  0
    0.8924   -0.4000    0.3388 C   0  0  0  0  0  0  0  0  0  0  0  0
    1.5693   -1.3155    1.1884 O   0  0  0  0  0  0  0  0  0  0  0  0
    1.2180    0.9630    0.7251 C   0  0  0  0  0  0  0  0  0  0  0  0
    0.6263    1.9503   -0.0389 O   0  0  0  0  0  0  0  0  0  0  0  0
   -3.2705    0.8816    0.1006 H   0  0  0  0  0  0  0  0  0  0  0  0
   -1.8758    1.4935    0.9641 H   0  0  0  0  0  0  0  0  0  0  0  0
   -1.9127    1.3849   -0.8940 H   0  0  0  0  0  0  0  0  0  0  0  0
   -2.3983   -1.0600   -0.6094 H   0  0  0  0  0  0  0  0  0  0  0  0
   -2.0533   -0.9540    1.1022 H   0  0  0  0  0  0  0  0  0  0  0  0
   -0.2979   -2.0584   -0.2129 H   0  0  0  0  0  0  0  0  0  0  0  0
    2.1163    0.0595   -1.4602 H   0  0  0  0  0  0  0  0  0  0  0  0
    1.8056   -1.7044   -1.2292 H   0  0  0  0  0  0  0  0  0  0  0  0
    1.5946   -2.2159    0.7322 H   0  0  0  0  0  0  0  0  0  0  0  0
    1.1094    1.1800    1.8323 H   0  0  0  0  0  0  0  0  0  0  0  0
    2.3333    1.1162    0.5707 H   0  0  0  0  0  0  0  0  0  0  0  0
    1.2288    2.4387   -0.6256 H   0  0  0  0  0  0  0  0  0  0  0  0
  1  2  1  0
  2  3  1  0
  3  4  1  0
  4  5  1  0
  5  6  1  0
  6  7  1  0
  6  8  1  0
  8  9  1  0
  6  3  1  0
  1 10  1  0
  1 11  1  0
  1 12  1  0
  2 13  1  0
  2 14  1  0
  3 15  1  0
  5 16  1  0
  5 17  1  0
  7 18  1  0
  8 19  1  0
  8 20  1  0
  9 21  1  0
M  END
