
     RDKit          3D

 20 21  0  0  0  0  0  0  0  0999 V2000
    2.5738    0.0500   -0.0348 C   0  0  0  0  0  0  0  0  0  0  0  0
    1.2076   -0.3609   -0.5452 C   0  0  0  0  0  0  0  0  0  0  0  0
    0.0899    0.1492    0.0978 C   0  0  0  0  0  0  0  0  0  0  0  0
   -0.2531    1.6101    0.2263 C   0  0  0  0  0  0  0  0  0  0  0  0
   -1.3143    0.8119    0.9277 C   0  0  0  0  0  0  0  0  0  0  0  0
   -0.2791    0.0186    1.4045 O   0  0  0  0  0  0  0  0  0  0  0  0
   -1.3315   -0.0820   -0.2685 C   0  0  0  0  0  0  0  0  0  0  0  0
   -1.8640   -1.4726   -0.0625 C   0  0  0  0  0  0  0  0  0  0  0  0
    2.5379    0.1804    1.0649 H   0  0  0  0  0  0  0  0  0  0  0  0
    3.3629   -0.6879   -0.3044 H   0  0  0  0  0  0  0  0  0  0  0  0
    2.9109    1.0164   -0.4933 H   0  0  0  0  0  0  0  0  0  0  0  0
    1.2152   -1.4797   -0.5539 H   0  0  0  0  0  0  0  0  0  0  0  0
    1.2190   -0.0905   -1.6446 H   0  0  0  0  0  0  0  0  0  0  0  0
   -0.6421    2.0413   -0.7030 H   0  0  0  0  0  0  0  0  0  0  0  0
    0.4023    2.2223    0.8483 H   0  0  0  0  0  0  0  0  0  0  0  0
   -2.0995    1.1689    1.4495 H   0  0  0  0  0  0  0  0  0  0  0  0
   -1.7047    0.3873   -1.1771 H   0  0  0  0  0  0  0  0  0  0  0  0
   -1.7261   -2.0191   -1.0283 H   0  0  0  0  0  0  0  0  0  0  0  0
   -1.3373   -2.0379    0.7049 H   0  0  0  0  0  0  0  0  0  0  0  0
   -2.9680   -1.4259    0.0918 H   0  0  0  0  0  0  0  0  0  0  0  0
  1  2  1  0
  2  3  1  0
  3  4  1  0
  4  5  1  0
  5  6  1  0
  5  7  1  0
  7  8  1  0
  6  3  1  0
  7  3  1  0
  1  9  1  0
  1 10  1  0
  1 11  1  0
  2 12  1  0
  2 13  1  0
  4 14  1  0
  4 15  1  0
  5 16  1  0
  7 17  1  0
  8 18  1  0
  8 19  1  0
  8 20  1  0
M  END
