
     RDKit          3D

 21 22  0  0  0  0  0  0  0  0999 V2000
   -1.3084   -1.7307   -0.4227 C   0  0  0  0  0  0  0  0  0  0  0  0
   -1.4877   -0.2863   -0.0645 C   0  0  0  0  0  0  0  0  0  0  0  0
   -0.1661    0.4412    0.0669 C   0  0  0  0  0  0  0  0  0  0  0  0
   -0.3023    1.9049    0.4283 C   0  0  0  0  0  0  0  0  0  0  0  0
   -1.0035    2.5062   -0.6426 O   0  0  0  0  0  0  0  0  0  0  0  0
    0.5438    0.3345   -1.1329 O   0  0  0  0  0  0  0  0  0  0  0  0
    1.4366   -0.4989   -0.5138 C   0  0  0  0  0  0  0  0  0  0  0  0
    2.3198   -0.0480    0.5944 C   0  0  0  0  0  0  0  0  0  0  0  0
    0.8830   -0.3125    0.8265 C   0  0  0  0  0  0  0  0  0  0  0  0
   -2.3371   -2.1312   -0.6487 H   0  0  0  0  0  0  0  0  0  0  0  0
   -0.7388   -1.8693   -1.3666 H   0  0  0  0  0  0  0  0  0  0  0  0
   -0.8601   -2.3401    0.3818 H   0  0  0  0  0  0  0  0  0  0  0  0
   -2.1034    0.1807   -0.8621 H   0  0  0  0  0  0  0  0  0  0  0  0
   -2.0662   -0.2333    0.8647 H   0  0  0  0  0  0  0  0  0  0  0  0
    0.7219    2.3247    0.4888 H   0  0  0  0  0  0  0  0  0  0  0  0
   -0.8071    2.0621    1.3822 H   0  0  0  0  0  0  0  0  0  0  0  0
   -0.6166    2.1351   -1.4912 H   0  0  0  0  0  0  0  0  0  0  0  0
    1.5989   -1.4765   -0.9925 H   0  0  0  0  0  0  0  0  0  0  0  0
    3.0422   -0.8075    0.9498 H   0  0  0  0  0  0  0  0  0  0  0  0
    2.6379    0.9999    0.6927 H   0  0  0  0  0  0  0  0  0  0  0  0
    0.6132   -1.1550    1.4616 H   0  0  0  0  0  0  0  0  0  0  0  0
  1  2  1  0
  2  3  1  0
  3  4  1  0
  4  5  1  0
  3  6  1  0
  6  7  1  0
  7  8  1  0
  8  9  1  0
  9  3  1  0
  9  7  1  0
  1 10  1  0
  1 11  1  0
  1 12  1  0
  2 13  1  0
  2 14  1  0
  4 15  1  0
  4 16  1  0
  5 17  1  0
  7 18  1  0
  8 19  1  0
  8 20  1  0
  9 21  1  0
M  END
