
     RDKit          3D

 20 21  0  0  0  0  0  0  0  0999 V2000
   -2.5006   -0.1088    0.7612 C   0  0  0  0  0  0  0  0  0  0  0  0
   -1.4502    0.8609    0.2094 C   0  0  0  0  0  0  0  0  0  0  0  0
   -0.3699    0.0117   -0.4217 C   0  0  0  0  0  0  0  0  0  0  0  0
    0.3140   -0.9507    0.5405 C   0  0  0  0  0  0  0  0  0  0  0  0
    1.6180   -0.4522    0.0023 C   0  0  0  0  0  0  0  0  0  0  0  0
    2.4583   -1.2906   -0.7102 O   0  0  0  0  0  0  0  0  0  0  0  0
    1.9540    0.9405    0.3078 C   0  0  0  0  0  0  0  0  0  0  0  0
    0.9241    0.6805   -0.7006 C   0  0  0  0  0  0  0  0  0  0  0  0
   -3.5068    0.3185    0.6385 H   0  0  0  0  0  0  0  0  0  0  0  0
   -2.2935   -0.3524    1.8203 H   0  0  0  0  0  0  0  0  0  0  0  0
   -2.4919   -1.0546    0.1631 H   0  0  0  0  0  0  0  0  0  0  0  0
   -1.0515    1.4710    1.0232 H   0  0  0  0  0  0  0  0  0  0  0  0
   -1.8739    1.4902   -0.5809 H   0  0  0  0  0  0  0  0  0  0  0  0
   -0.7321   -0.5400   -1.3133 H   0  0  0  0  0  0  0  0  0  0  0  0
    0.2144   -0.6334    1.6168 H   0  0  0  0  0  0  0  0  0  0  0  0
    0.0800   -2.0121    0.3844 H   0  0  0  0  0  0  0  0  0  0  0  0
    2.9361   -1.8836   -0.1105 H   0  0  0  0  0  0  0  0  0  0  0  0
    2.9242    1.3006   -0.0430 H   0  0  0  0  0  0  0  0  0  0  0  0
    1.6884    1.2866    1.3433 H   0  0  0  0  0  0  0  0  0  0  0  0
    1.1588    0.9178   -1.7533 H   0  0  0  0  0  0  0  0  0  0  0  0
  1  2  1  0
  2  3  1  0
  3  4  1  0
  4  5  1  0
  5  6  1  0
  5  7  1  0
  7  8  1  0
  8  3  1  0
  8  5  1  0
  1  9  1  0
  1 10  1  0
  1 11  1  0
  2 12  1  0
  2 13  1  0
  3 14  1  0
  4 15  1  0
  4 16  1  0
  6 17  1  0
  7 18  1  0
  7 19  1  0
  8 20  1  0
M  END
