
     RDKit          3D

 21 22  0  0  0  0  0  0  0  0999 V2000
   -2.6815    0.6653   -0.0252 C   0  0  0  0  0  0  0  0  0  0  0  0
   -1.9441   -0.4631    0.6642 C   0  0  0  0  0  0  0  0  0  0  0  0
   -0.5926   -0.6008    0.0502 C   0  0  0  0  0  0  0  0  0  0  0  0
    0.2788    0.6361    0.1574 C   0  0  0  0  0  0  0  0  0  0  0  0
    1.6442    0.1199   -0.1500 C   0  0  0  0  0  0  0  0  0  0  0  0
    2.8328    0.9968   -0.2908 C   0  0  0  0  0  0  0  0  0  0  0  0
    1.6272   -1.1973   -0.2728 C   0  0  0  0  0  0  0  0  0  0  0  0
    0.2412   -1.6924   -0.0582 C   0  0  0  0  0  0  0  0  0  0  0  0
   -0.5900   -1.3184   -1.1500 O   0  0  0  0  0  0  0  0  0  0  0  0
   -2.1108    1.6139    0.0776 H   0  0  0  0  0  0  0  0  0  0  0  0
   -2.7762    0.4803   -1.1141 H   0  0  0  0  0  0  0  0  0  0  0  0
   -3.7110    0.8025    0.3643 H   0  0  0  0  0  0  0  0  0  0  0  0
   -1.8152   -0.1782    1.7320 H   0  0  0  0  0  0  0  0  0  0  0  0
   -2.5700   -1.3715    0.5463 H   0  0  0  0  0  0  0  0  0  0  0  0
   -0.0515    1.4107   -0.5459 H   0  0  0  0  0  0  0  0  0  0  0  0
    0.2134    0.9754    1.2168 H   0  0  0  0  0  0  0  0  0  0  0  0
    3.7431    0.3729   -0.4962 H   0  0  0  0  0  0  0  0  0  0  0  0
    3.0052    1.6250    0.6018 H   0  0  0  0  0  0  0  0  0  0  0  0
    2.6858    1.6136   -1.2058 H   0  0  0  0  0  0  0  0  0  0  0  0
    2.4931   -1.8053   -0.4946 H   0  0  0  0  0  0  0  0  0  0  0  0
    0.0782   -2.6853    0.3931 H   0  0  0  0  0  0  0  0  0  0  0  0
  1  2  1  0
  2  3  1  0
  3  4  1  0
  4  5  1  0
  5  6  1  0
  5  7  2  0
  7  8  1  0
  8  9  1  0
  8  3  1  0
  9  3  1  0
  1 10  1  0
  1 11  1  0
  1 12  1  0
  2 13  1  0
  2 14  1  0
  4 15  1  0
  4 16  1  0
  6 17  1  0
  6 18  1  0
  6 19  1  0
  7 20  1  0
  8 21  1  0
M  END
