
     RDKit          3D

 21 24  0  0  0  0  0  0  0  0999 V2000
    2.3955    1.1190   -0.1457 C   0  0  0  0  0  0  0  0  0  0  0  0
    1.7537   -0.2690   -0.2548 C   0  0  0  0  0  0  0  0  0  0  0  0
    0.3803   -0.2307    0.0034 C   0  0  0  0  0  0  0  0  0  0  0  0
   -0.5806   -1.4777   -0.0257 C   0  0  0  0  0  0  0  0  0  0  0  0
   -2.0570   -0.9983    0.1208 C   0  0  0  0  0  0  0  0  0  0  0  0
   -2.0279    0.5592    0.0491 C   0  0  0  0  0  0  0  0  0  0  0  0
   -0.9351    0.4170    0.6280 C   0  0  0  0  0  0  0  0  0  0  0  0
   -0.5264    1.0622   -0.2582 C   0  0  0  0  0  0  0  0  0  0  0  0
   -0.5395   -0.4520   -0.7351 C   0  0  0  0  0  0  0  0  0  0  0  0
    3.4037    1.0172   -0.5916 H   0  0  0  0  0  0  0  0  0  0  0  0
    1.8388    1.8341   -0.7597 H   0  0  0  0  0  0  0  0  0  0  0  0
    2.5124    1.4246    0.9023 H   0  0  0  0  0  0  0  0  0  0  0  0
    2.2923   -0.9823    0.4071 H   0  0  0  0  0  0  0  0  0  0  0  0
    1.9995   -0.6048   -1.3010 H   0  0  0  0  0  0  0  0  0  0  0  0
   -0.2296   -2.2276    0.6610 H   0  0  0  0  0  0  0  0  0  0  0  0
   -2.6645   -1.3983   -0.6942 H   0  0  0  0  0  0  0  0  0  0  0  0
   -2.4358   -1.3006    1.1147 H   0  0  0  0  0  0  0  0  0  0  0  0
   -2.7441    1.0390   -0.6075 H   0  0  0  0  0  0  0  0  0  0  0  0
   -0.6245    0.1106    1.6020 H   0  0  0  0  0  0  0  0  0  0  0  0
   -0.3981    1.5248   -1.2469 H   0  0  0  0  0  0  0  0  0  0  0  0
   -0.8131   -0.1663   -1.7115 H   0  0  0  0  0  0  0  0  0  0  0  0
  1  2  1  0
  2  3  1  0
  3  4  1  0
  4  5  1  0
  5  6  1  0
  6  7  1  0
  7  8  1  0
  7  9  1  0
  8  3  1  0
  9  3  1  0
  9  4  1  0
  8  6  1  0
  1 10  1  0
  1 11  1  0
  1 12  1  0
  2 13  1  0
  2 14  1  0
  4 15  1  0
  5 16  1  0
  5 17  1  0
  6 18  1  0
  7 19  1  0
  8 20  1  0
  9 21  1  0
M  END
