
     RDKit          3D

 21 22  0  0  0  0  0  0  0  0999 V2000
   -2.8104   -0.2699    0.4821 C   0  0  0  0  0  0  0  0  0  0  0  0
   -1.9086   -0.6632   -0.6685 C   0  0  0  0  0  0  0  0  0  0  0  0
   -0.7006    0.2346   -0.6372 C   0  0  0  0  0  0  0  0  0  0  0  0
    0.1970   -0.0506   -1.6660 O   0  0  0  0  0  0  0  0  0  0  0  0
    1.3447    0.6574   -1.3110 C   0  0  0  0  0  0  0  0  0  0  0  0
    1.4749    0.3173    0.1686 C   0  0  0  0  0  0  0  0  0  0  0  0
    2.7617   -0.1999    0.7049 C   0  0  0  0  0  0  0  0  0  0  0  0
    0.7666    1.1299    1.0803 O   0  0  0  0  0  0  0  0  0  0  0  0
    0.1622   -0.0155    0.5847 C   0  0  0  0  0  0  0  0  0  0  0  0
   -2.4200   -0.6575    1.4283 H   0  0  0  0  0  0  0  0  0  0  0  0
   -2.7667    0.8517    0.5337 H   0  0  0  0  0  0  0  0  0  0  0  0
   -3.8662   -0.5235    0.2979 H   0  0  0  0  0  0  0  0  0  0  0  0
   -2.4141   -0.6570   -1.6470 H   0  0  0  0  0  0  0  0  0  0  0  0
   -1.5416   -1.7093   -0.4800 H   0  0  0  0  0  0  0  0  0  0  0  0
   -1.0223    1.2691   -0.7465 H   0  0  0  0  0  0  0  0  0  0  0  0
    2.2251    0.2535   -1.8202 H   0  0  0  0  0  0  0  0  0  0  0  0
    1.2111    1.7544   -1.4404 H   0  0  0  0  0  0  0  0  0  0  0  0
    3.3168    0.6801    1.1449 H   0  0  0  0  0  0  0  0  0  0  0  0
    2.6140   -0.9259    1.5268 H   0  0  0  0  0  0  0  0  0  0  0  0
    3.4365   -0.6076   -0.0720 H   0  0  0  0  0  0  0  0  0  0  0  0
   -0.0602   -0.8681    1.2420 H   0  0  0  0  0  0  0  0  0  0  0  0
  1  2  1  0
  2  3  1  0
  3  4  1  0
  4  5  1  0
  5  6  1  0
  6  7  1  0
  6  8  1  0
  8  9  1  0
  9  3  1  0
  9  6  1  0
  1 10  1  0
  1 11  1  0
  1 12  1  0
  2 13  1  0
  2 14  1  0
  3 15  1  0
  5 16  1  0
  5 17  1  0
  7 18  1  0
  7 19  1  0
  7 20  1  0
  9 21  1  0
M  END
