
     RDKit          3D

 23 23  0  0  0  0  0  0  0  0999 V2000
   -2.4056   -0.8098    0.7286 C   0  0  0  0  0  0  0  0  0  0  0  0
   -1.5246   -0.8515   -0.5178 C   0  0  0  0  0  0  0  0  0  0  0  0
   -0.6322    0.3568   -0.4473 C   0  0  0  0  0  0  0  0  0  0  0  0
   -1.3844    1.5267   -0.4251 O   0  0  0  0  0  0  0  0  0  0  0  0
    0.5688    0.3625   -1.3222 C   0  0  0  0  0  0  0  0  0  0  0  0
    1.4996    0.4366   -0.1425 C   0  0  0  0  0  0  0  0  0  0  0  0
    2.5360   -0.6660   -0.0665 C   0  0  0  0  0  0  0  0  0  0  0  0
    0.3002    0.2193    0.7572 C   0  0  0  0  0  0  0  0  0  0  0  0
    0.0686    1.2540    1.6717 O   0  0  0  0  0  0  0  0  0  0  0  0
   -1.7889   -0.3964    1.5791 H   0  0  0  0  0  0  0  0  0  0  0  0
   -2.7178   -1.8110    1.0536 H   0  0  0  0  0  0  0  0  0  0  0  0
   -3.2322   -0.0993    0.5783 H   0  0  0  0  0  0  0  0  0  0  0  0
   -1.0007   -1.7982   -0.6373 H   0  0  0  0  0  0  0  0  0  0  0  0
   -2.2253   -0.7026   -1.3805 H   0  0  0  0  0  0  0  0  0  0  0  0
   -0.8054    2.3224   -0.2575 H   0  0  0  0  0  0  0  0  0  0  0  0
    0.7213   -0.5031   -1.9917 H   0  0  0  0  0  0  0  0  0  0  0  0
    0.6380    1.3099   -1.9087 H   0  0  0  0  0  0  0  0  0  0  0  0
    1.9392    1.4276    0.0725 H   0  0  0  0  0  0  0  0  0  0  0  0
    2.4620   -1.1445    0.9426 H   0  0  0  0  0  0  0  0  0  0  0  0
    2.3893   -1.4265   -0.8609 H   0  0  0  0  0  0  0  0  0  0  0  0
    3.5454   -0.2134   -0.1413 H   0  0  0  0  0  0  0  0  0  0  0  0
    0.3365   -0.7866    1.1941 H   0  0  0  0  0  0  0  0  0  0  0  0
    0.7122    1.9932    1.5214 H   0  0  0  0  0  0  0  0  0  0  0  0
  1  2  1  0
  2  3  1  0
  3  4  1  0
  3  5  1  0
  5  6  1  0
  6  7  1  0
  6  8  1  0
  8  9  1  0
  8  3  1  0
  1 10  1  0
  1 11  1  0
  1 12  1  0
  2 13  1  0
  2 14  1  0
  4 15  1  0
  5 16  1  0
  5 17  1  0
  6 18  1  0
  7 19  1  0
  7 20  1  0
  7 21  1  0
  8 22  1  0
  9 23  1  0
M  END
