
     RDKit          3D

 23 23  0  0  0  0  0  0  0  0999 V2000
   -2.8216    0.5122    0.0817 C   0  0  0  0  0  0  0  0  0  0  0  0
   -1.6578   -0.3903    0.4394 C   0  0  0  0  0  0  0  0  0  0  0  0
   -0.5402   -0.2832   -0.6085 C   0  0  0  0  0  0  0  0  0  0  0  0
   -0.0982    1.0979   -0.6379 C   0  0  0  0  0  0  0  0  0  0  0  0
    1.0713    1.6914   -0.4765 C   0  0  0  0  0  0  0  0  0  0  0  0
    2.3286    1.0005   -0.1991 C   0  0  0  0  0  0  0  0  0  0  0  0
    2.5594   -0.2121    0.2897 C   0  0  0  0  0  0  0  0  0  0  0  0
    1.4502   -1.1569    0.6717 C   0  0  0  0  0  0  0  0  0  0  0  0
    0.4619   -1.3344   -0.4266 C   0  0  0  0  0  0  0  0  0  0  0  0
   -2.7998    1.4450    0.6802 H   0  0  0  0  0  0  0  0  0  0  0  0
   -3.7992   -0.0288    0.1971 H   0  0  0  0  0  0  0  0  0  0  0  0
   -2.6700    0.8122   -0.9812 H   0  0  0  0  0  0  0  0  0  0  0  0
   -1.2781   -0.0427    1.4363 H   0  0  0  0  0  0  0  0  0  0  0  0
   -2.0124   -1.4476    0.4913 H   0  0  0  0  0  0  0  0  0  0  0  0
   -1.0702   -0.4841   -1.5875 H   0  0  0  0  0  0  0  0  0  0  0  0
   -0.8906    1.8111   -0.8344 H   0  0  0  0  0  0  0  0  0  0  0  0
    1.1045    2.7813   -0.5559 H   0  0  0  0  0  0  0  0  0  0  0  0
    3.2265    1.5853   -0.4359 H   0  0  0  0  0  0  0  0  0  0  0  0
    3.5662   -0.5353    0.4190 H   0  0  0  0  0  0  0  0  0  0  0  0
    1.9329   -2.1327    0.8665 H   0  0  0  0  0  0  0  0  0  0  0  0
    0.9879   -0.8340    1.6260 H   0  0  0  0  0  0  0  0  0  0  0  0
   -0.0851   -2.2998   -0.2111 H   0  0  0  0  0  0  0  0  0  0  0  0
    1.0340   -1.5548   -1.3633 H   0  0  0  0  0  0  0  0  0  0  0  0
  1  2  1  0
  2  3  1  0
  3  4  1  0
  4  5  2  0
  5  6  1  0
  6  7  2  0
  7  8  1  0
  8  9  1  0
  9  3  1  0
  1 10  1  0
  1 11  1  0
  1 12  1  0
  2 13  1  0
  2 14  1  0
  3 15  1  0
  4 16  1  0
  5 17  1  0
  6 18  1  0
  7 19  1  0
  8 20  1  0
  8 21  1  0
  9 22  1  0
  9 23  1  0
M  END
