
     RDKit          3D

 21 22  0  0  0  0  0  0  0  0999 V2000
    2.7275    0.2709    0.3219 C   0  0  0  0  0  0  0  0  0  0  0  0
    1.3569    0.8802    0.2827 C   0  0  0  0  0  0  0  0  0  0  0  0
    0.2809   -0.1463    0.4901 C   0  0  0  0  0  0  0  0  0  0  0  0
    0.3091   -1.1451   -0.4922 O   0  0  0  0  0  0  0  0  0  0  0  0
   -0.8525   -1.8640   -0.2746 C   0  0  0  0  0  0  0  0  0  0  0  0
   -1.8934   -0.9143    0.2366 C   0  0  0  0  0  0  0  0  0  0  0  0
   -1.0951    0.3844    0.3038 C   0  0  0  0  0  0  0  0  0  0  0  0
   -1.4780    1.4582   -0.5351 C   0  0  0  0  0  0  0  0  0  0  0  0
   -1.5823    1.4613    0.9664 O   0  0  0  0  0  0  0  0  0  0  0  0
    3.4631    1.1184    0.2418 H   0  0  0  0  0  0  0  0  0  0  0  0
    2.9291   -0.2168    1.2995 H   0  0  0  0  0  0  0  0  0  0  0  0
    2.9323   -0.3897   -0.5423 H   0  0  0  0  0  0  0  0  0  0  0  0
    1.2402    1.4111   -0.6823 H   0  0  0  0  0  0  0  0  0  0  0  0
    1.2904    1.5976    1.1261 H   0  0  0  0  0  0  0  0  0  0  0  0
    0.4145   -0.6265    1.4687 H   0  0  0  0  0  0  0  0  0  0  0  0
   -0.6137   -2.6813    0.4398 H   0  0  0  0  0  0  0  0  0  0  0  0
   -1.2608   -2.3082   -1.2230 H   0  0  0  0  0  0  0  0  0  0  0  0
   -2.7735   -0.8162   -0.3942 H   0  0  0  0  0  0  0  0  0  0  0  0
   -2.1968   -1.1605    1.2949 H   0  0  0  0  0  0  0  0  0  0  0  0
   -0.7181    2.2048   -0.8675 H   0  0  0  0  0  0  0  0  0  0  0  0
   -2.4798    1.4821   -0.9987 H   0  0  0  0  0  0  0  0  0  0  0  0
  1  2  1  0
  2  3  1  0
  3  4  1  0
  4  5  1  0
  5  6  1  0
  6  7  1  0
  7  8  1  0
  8  9  1  0
  7  3  1  0
  9  7  1  0
  1 10  1  0
  1 11  1  0
  1 12  1  0
  2 13  1  0
  2 14  1  0
  3 15  1  0
  5 16  1  0
  5 17  1  0
  6 18  1  0
  6 19  1  0
  8 20  1  0
  8 21  1  0
M  END
