
     RDKit          3D

 23 23  0  0  0  0  0  0  0  0999 V2000
    2.1577    0.7799    0.1919 C   0  0  0  0  0  0  0  0  0  0  0  0
    1.1906    0.2375   -0.8400 C   0  0  0  0  0  0  0  0  0  0  0  0
    0.1158   -0.5427   -0.1201 C   0  0  0  0  0  0  0  0  0  0  0  0
    0.6242   -1.6292    0.7684 C   0  0  0  0  0  0  0  0  0  0  0  0
   -1.0717   -1.0091   -0.9406 C   0  0  0  0  0  0  0  0  0  0  0  0
   -1.2517    0.0865   -0.0290 C   0  0  0  0  0  0  0  0  0  0  0  0
   -1.3393    1.5229   -0.5978 C   0  0  0  0  0  0  0  0  0  0  0  0
   -1.8021    0.0017    1.3504 C   0  0  0  0  0  0  0  0  0  0  0  0
   -2.6025   -0.7532    1.7606 O   0  0  0  0  0  0  0  0  0  0  0  0
    3.1851    0.3127   -0.0422 H   0  0  0  0  0  0  0  0  0  0  0  0
    1.9008    0.4828    1.2124 H   0  0  0  0  0  0  0  0  0  0  0  0
    2.3366    1.8513    0.1475 H   0  0  0  0  0  0  0  0  0  0  0  0
    1.7117   -0.2312   -1.6474 H   0  0  0  0  0  0  0  0  0  0  0  0
    0.7452    1.1931   -1.3013 H   0  0  0  0  0  0  0  0  0  0  0  0
    1.6975   -1.8076    0.5311 H   0  0  0  0  0  0  0  0  0  0  0  0
    0.5685   -1.1865    1.8184 H   0  0  0  0  0  0  0  0  0  0  0  0
    0.0276   -2.5377    0.7872 H   0  0  0  0  0  0  0  0  0  0  0  0
   -1.4272   -2.0551   -0.7284 H   0  0  0  0  0  0  0  0  0  0  0  0
   -1.0164   -0.8483   -2.0300 H   0  0  0  0  0  0  0  0  0  0  0  0
   -0.7791    2.2229   -0.0474 H   0  0  0  0  0  0  0  0  0  0  0  0
   -1.1565    1.4240   -1.6972 H   0  0  0  0  0  0  0  0  0  0  0  0
   -2.4649    1.7087   -0.5769 H   0  0  0  0  0  0  0  0  0  0  0  0
   -1.3499    0.7766    2.0303 H   0  0  0  0  0  0  0  0  0  0  0  0
  1  2  1  0
  2  3  1  0
  3  4  1  0
  3  5  1  0
  5  6  1  0
  6  7  1  0
  6  8  1  0
  8  9  2  0
  6  3  1  0
  1 10  1  0
  1 11  1  0
  1 12  1  0
  2 13  1  0
  2 14  1  0
  4 15  1  0
  4 16  1  0
  4 17  1  0
  5 18  1  0
  5 19  1  0
  7 20  1  0
  7 21  1  0
  7 22  1  0
  8 23  1  0
M  END
