
     RDKit          3D

 21 23  0  0  0  0  0  0  0  0999 V2000
    2.5080   -0.3030    0.3726 C   0  0  0  0  0  0  0  0  0  0  0  0
    1.3371   -0.6568   -0.5568 C   0  0  0  0  0  0  0  0  0  0  0  0
    0.1640    0.1407   -0.0353 C   0  0  0  0  0  0  0  0  0  0  0  0
    0.2001    1.5991    0.0275 C   0  0  0  0  0  0  0  0  0  0  0  0
   -0.7110    0.9192   -0.9046 C   0  0  0  0  0  0  0  0  0  0  0  0
   -1.9538    0.3243   -0.2981 C   0  0  0  0  0  0  0  0  0  0  0  0
   -2.0702    0.0771    1.1404 C   0  0  0  0  0  0  0  0  0  0  0  0
   -0.9999   -0.6687    0.4351 C   0  0  0  0  0  0  0  0  0  0  0  0
   -1.1504   -1.9748    0.0327 O   0  0  0  0  0  0  0  0  0  0  0  0
    2.4177    0.7762    0.5879 H   0  0  0  0  0  0  0  0  0  0  0  0
    3.4739   -0.5790   -0.0709 H   0  0  0  0  0  0  0  0  0  0  0  0
    2.2931   -0.8827    1.3108 H   0  0  0  0  0  0  0  0  0  0  0  0
    1.1714   -1.7478   -0.4431 H   0  0  0  0  0  0  0  0  0  0  0  0
    1.5880   -0.4035   -1.5856 H   0  0  0  0  0  0  0  0  0  0  0  0
    1.0629    2.1091   -0.3984 H   0  0  0  0  0  0  0  0  0  0  0  0
   -0.2887    2.1256    0.8914 H   0  0  0  0  0  0  0  0  0  0  0  0
   -0.6149    0.9442   -1.9879 H   0  0  0  0  0  0  0  0  0  0  0  0
   -2.7124   -0.1133   -0.9564 H   0  0  0  0  0  0  0  0  0  0  0  0
   -1.6919    0.8136    1.9048 H   0  0  0  0  0  0  0  0  0  0  0  0
   -2.9224   -0.5023    1.4907 H   0  0  0  0  0  0  0  0  0  0  0  0
   -1.1006   -1.9974   -0.9568 H   0  0  0  0  0  0  0  0  0  0  0  0
  1  2  1  0
  2  3  1  0
  3  4  1  0
  4  5  1  0
  5  6  1  0
  6  7  1  0
  7  8  1  0
  8  9  1  0
  5  3  1  0
  8  6  1  0
  8  3  1  0
  1 10  1  0
  1 11  1  0
  1 12  1  0
  2 13  1  0
  2 14  1  0
  4 15  1  0
  4 16  1  0
  5 17  1  0
  6 18  1  0
  7 19  1  0
  7 20  1  0
  9 21  1  0
M  END
