
     RDKit          3D

 25 26  0  0  0  0  0  0  0  0999 V2000
    3.5200    0.1179    0.0540 C   0  0  0  0  0  0  0  0  0  0  0  0
    2.2057   -0.1899    0.7281 C   0  0  0  0  0  0  0  0  0  0  0  0
    1.0797   -0.3485   -0.2483 C   0  0  0  0  0  0  0  0  0  0  0  0
   -0.2066   -0.6552    0.4910 C   0  0  0  0  0  0  0  0  0  0  0  0
   -0.7749    0.6621    0.0898 C   0  0  0  0  0  0  0  0  0  0  0  0
   -2.0713    0.5625   -0.6174 C   0  0  0  0  0  0  0  0  0  0  0  0
   -3.1758   -0.1097    0.2081 C   0  0  0  0  0  0  0  0  0  0  0  0
   -2.7082   -0.6456   -1.1111 C   0  0  0  0  0  0  0  0  0  0  0  0
    0.4479    0.8973   -0.7664 C   0  0  0  0  0  0  0  0  0  0  0  0
    4.3145   -0.0518    0.8210 H   0  0  0  0  0  0  0  0  0  0  0  0
    3.6845   -0.6451   -0.7295 H   0  0  0  0  0  0  0  0  0  0  0  0
    3.5819    1.1552   -0.3090 H   0  0  0  0  0  0  0  0  0  0  0  0
    2.3313   -1.1873    1.2365 H   0  0  0  0  0  0  0  0  0  0  0  0
    1.9789    0.5327    1.5392 H   0  0  0  0  0  0  0  0  0  0  0  0
    1.3533   -1.0850   -1.0267 H   0  0  0  0  0  0  0  0  0  0  0  0
   -0.1060   -0.7099    1.5956 H   0  0  0  0  0  0  0  0  0  0  0  0
   -0.6574   -1.5583    0.0848 H   0  0  0  0  0  0  0  0  0  0  0  0
   -0.8019    1.4446    0.8899 H   0  0  0  0  0  0  0  0  0  0  0  0
   -2.4036    1.5369   -1.0855 H   0  0  0  0  0  0  0  0  0  0  0  0
   -4.1508    0.4001    0.2703 H   0  0  0  0  0  0  0  0  0  0  0  0
   -2.8734   -0.6604    1.1263 H   0  0  0  0  0  0  0  0  0  0  0  0
   -2.3090   -1.6570   -1.0843 H   0  0  0  0  0  0  0  0  0  0  0  0
   -3.4713   -0.5215   -1.9358 H   0  0  0  0  0  0  0  0  0  0  0  0
    0.9916    1.8471   -0.5675 H   0  0  0  0  0  0  0  0  0  0  0  0
    0.2207    0.8689   -1.8719 H   0  0  0  0  0  0  0  0  0  0  0  0
  1  2  1  0
  2  3  1  0
  3  4  1  0
  4  5  1  0
  5  6  1  0
  6  7  1  0
  7  8  1  0
  5  9  1  0
  9  3  1  0
  8  6  1  0
  1 10  1  0
  1 11  1  0
  1 12  1  0
  2 13  1  0
  2 14  1  0
  3 15  1  0
  4 16  1  0
  4 17  1  0
  5 18  1  0
  6 19  1  0
  7 20  1  0
  7 21  1  0
  8 22  1  0
  8 23  1  0
  9 24  1  0
  9 25  1  0
M  END
