
     RDKit          3D

 21 22  0  0  0  0  0  0  0  0999 V2000
    2.5538    0.5379    0.5966 C   0  0  0  0  0  0  0  0  0  0  0  0
    2.0625   -0.6852   -0.1221 C   0  0  0  0  0  0  0  0  0  0  0  0
    0.5383   -0.5651   -0.2648 C   0  0  0  0  0  0  0  0  0  0  0  0
    0.3292    0.5944   -0.9980 O   0  0  0  0  0  0  0  0  0  0  0  0
   -0.9907    0.9211   -1.1696 C   0  0  0  0  0  0  0  0  0  0  0  0
   -1.8622    0.6410    0.0051 C   0  0  0  0  0  0  0  0  0  0  0  0
   -2.2895   -0.8221    0.1215 C   0  0  0  0  0  0  0  0  0  0  0  0
   -1.3182   -0.2045    1.0524 C   0  0  0  0  0  0  0  0  0  0  0  0
    0.0294   -0.4784    1.0075 O   0  0  0  0  0  0  0  0  0  0  0  0
    2.2633    1.4440    0.0393 H   0  0  0  0  0  0  0  0  0  0  0  0
    2.1120    0.5572    1.6158 H   0  0  0  0  0  0  0  0  0  0  0  0
    3.6606    0.4590    0.6722 H   0  0  0  0  0  0  0  0  0  0  0  0
    2.2992   -1.6100    0.4020 H   0  0  0  0  0  0  0  0  0  0  0  0
    2.5086   -0.6876   -1.1433 H   0  0  0  0  0  0  0  0  0  0  0  0
    0.1368   -1.4335   -0.7898 H   0  0  0  0  0  0  0  0  0  0  0  0
   -1.4164    0.4086   -2.0725 H   0  0  0  0  0  0  0  0  0  0  0  0
   -1.0209    2.0169   -1.4429 H   0  0  0  0  0  0  0  0  0  0  0  0
   -2.5846    1.4269    0.2968 H   0  0  0  0  0  0  0  0  0  0  0  0
   -1.9702   -1.5296   -0.6510 H   0  0  0  0  0  0  0  0  0  0  0  0
   -3.3387   -0.9409    0.4449 H   0  0  0  0  0  0  0  0  0  0  0  0
   -1.7025   -0.0500    2.0925 H   0  0  0  0  0  0  0  0  0  0  0  0
  1  2  1  0
  2  3  1  0
  3  4  1  0
  4  5  1  0
  5  6  1  0
  6  7  1  0
  7  8  1  0
  8  9  1  0
  9  3  1  0
  8  6  1  0
  1 10  1  0
  1 11  1  0
  1 12  1  0
  2 13  1  0
  2 14  1  0
  3 15  1  0
  5 16  1  0
  5 17  1  0
  6 18  1  0
  7 19  1  0
  7 20  1  0
  8 21  1  0
M  END
