
     RDKit          3D

 21 21  0  0  0  0  0  0  0  0999 V2000
    2.4999    0.2994    0.6789 C   0  0  0  0  0  0  0  0  0  0  0  0
    1.6516   -0.1875   -0.4973 C   0  0  0  0  0  0  0  0  0  0  0  0
    0.2285    0.2025   -0.3290 C   0  0  0  0  0  0  0  0  0  0  0  0
   -0.8170   -0.6090   -0.2552 C   0  0  0  0  0  0  0  0  0  0  0  0
   -0.7130   -2.0996   -0.3338 C   0  0  0  0  0  0  0  0  0  0  0  0
   -2.0826    0.1504   -0.0880 C   0  0  0  0  0  0  0  0  0  0  0  0
   -1.6093    1.4874    0.4301 C   0  0  0  0  0  0  0  0  0  0  0  0
   -0.2558    1.5741   -0.2142 C   0  0  0  0  0  0  0  0  0  0  0  0
    0.3717    2.5804   -0.5927 O   0  0  0  0  0  0  0  0  0  0  0  0
    2.9441    1.2761    0.4808 H   0  0  0  0  0  0  0  0  0  0  0  0
    3.2327   -0.4697    0.9915 H   0  0  0  0  0  0  0  0  0  0  0  0
    1.7940    0.4277    1.5351 H   0  0  0  0  0  0  0  0  0  0  0  0
    2.0193    0.2515   -1.4592 H   0  0  0  0  0  0  0  0  0  0  0  0
    1.7172   -1.2804   -0.4911 H   0  0  0  0  0  0  0  0  0  0  0  0
   -0.0578   -2.3770   -1.1946 H   0  0  0  0  0  0  0  0  0  0  0  0
   -0.2043   -2.4946    0.5689 H   0  0  0  0  0  0  0  0  0  0  0  0
   -1.7116   -2.5362   -0.4004 H   0  0  0  0  0  0  0  0  0  0  0  0
   -2.7915   -0.3390    0.6056 H   0  0  0  0  0  0  0  0  0  0  0  0
   -2.5434    0.3452   -1.0910 H   0  0  0  0  0  0  0  0  0  0  0  0
   -1.4115    1.4747    1.5276 H   0  0  0  0  0  0  0  0  0  0  0  0
   -2.2612    2.3237    0.1280 H   0  0  0  0  0  0  0  0  0  0  0  0
  1  2  1  0
  2  3  1  0
  3  4  2  0
  4  5  1  0
  4  6  1  0
  6  7  1  0
  7  8  1  0
  8  9  2  0
  8  3  1  0
  1 10  1  0
  1 11  1  0
  1 12  1  0
  2 13  1  0
  2 14  1  0
  5 15  1  0
  5 16  1  0
  5 17  1  0
  6 18  1  0
  6 19  1  0
  7 20  1  0
  7 21  1  0
M  END
