
     RDKit          3D

 20 21  0  0  0  0  0  0  0  0999 V2000
    1.8915   -0.5767    0.7913 C   0  0  0  0  0  0  0  0  0  0  0  0
    1.2736    0.4278   -0.1072 C   0  0  0  0  0  0  0  0  0  0  0  0
   -0.1834    0.2786   -0.3421 C   0  0  0  0  0  0  0  0  0  0  0  0
   -0.6950    1.3599   -1.2729 C   0  0  0  0  0  0  0  0  0  0  0  0
   -0.9581    0.1776    0.9591 C   0  0  0  0  0  0  0  0  0  0  0  0
   -1.7149   -0.9907    0.4421 C   0  0  0  0  0  0  0  0  0  0  0  0
   -2.1056   -1.0951   -0.8710 O   0  0  0  0  0  0  0  0  0  0  0  0
   -0.7222   -1.0488   -0.7252 C   0  0  0  0  0  0  0  0  0  0  0  0
    2.9215   -0.8041    0.3890 H   0  0  0  0  0  0  0  0  0  0  0  0
    2.0921   -0.1567    1.8207 H   0  0  0  0  0  0  0  0  0  0  0  0
    1.3446   -1.5042    0.9217 H   0  0  0  0  0  0  0  0  0  0  0  0
    1.4342    1.4421    0.3593 H   0  0  0  0  0  0  0  0  0  0  0  0
    1.8005    0.5027   -1.1000 H   0  0  0  0  0  0  0  0  0  0  0  0
   -1.5887    1.0112   -1.8491 H   0  0  0  0  0  0  0  0  0  0  0  0
   -1.0292    2.2333   -0.6896 H   0  0  0  0  0  0  0  0  0  0  0  0
    0.0602    1.6443   -2.0105 H   0  0  0  0  0  0  0  0  0  0  0  0
   -0.2895   -0.1296    1.7960 H   0  0  0  0  0  0  0  0  0  0  0  0
   -1.5296    1.0917    1.1890 H   0  0  0  0  0  0  0  0  0  0  0  0
   -1.8676   -1.9038    1.0450 H   0  0  0  0  0  0  0  0  0  0  0  0
   -0.1344   -1.9595   -0.7455 H   0  0  0  0  0  0  0  0  0  0  0  0
  1  2  1  0
  2  3  1  0
  3  4  1  0
  3  5  1  0
  5  6  1  0
  6  7  1  0
  7  8  1  0
  8  3  1  0
  8  6  1  0
  1  9  1  0
  1 10  1  0
  1 11  1  0
  2 12  1  0
  2 13  1  0
  4 14  1  0
  4 15  1  0
  4 16  1  0
  5 17  1  0
  5 18  1  0
  6 19  1  0
  8 20  1  0
M  END
