
     RDKit          3D

 21 22  0  0  0  0  0  0  0  0999 V2000
    2.5783   -0.1737    0.0844 C   0  0  0  0  0  0  0  0  0  0  0  0
    1.2953   -0.8233    0.4343 C   0  0  0  0  0  0  0  0  0  0  0  0
    0.1354   -0.0576    0.0039 C   0  0  0  0  0  0  0  0  0  0  0  0
   -0.1028    1.3178    0.4933 C   0  0  0  0  0  0  0  0  0  0  0  0
   -0.9027    1.3196   -0.8061 C   0  0  0  0  0  0  0  0  0  0  0  0
   -2.0427    0.3632   -0.5749 C   0  0  0  0  0  0  0  0  0  0  0  0
   -1.2359   -0.7073    0.1870 C   0  0  0  0  0  0  0  0  0  0  0  0
   -1.3312   -1.9334   -0.4037 O   0  0  0  0  0  0  0  0  0  0  0  0
    0.1006    0.4482   -1.2911 O   0  0  0  0  0  0  0  0  0  0  0  0
    2.5587    0.9278    0.1303 H   0  0  0  0  0  0  0  0  0  0  0  0
    2.9362   -0.5384   -0.9099 H   0  0  0  0  0  0  0  0  0  0  0  0
    3.3600   -0.5002    0.8277 H   0  0  0  0  0  0  0  0  0  0  0  0
    1.2454   -0.9894    1.5297 H   0  0  0  0  0  0  0  0  0  0  0  0
    1.2487   -1.8440   -0.0205 H   0  0  0  0  0  0  0  0  0  0  0  0
   -0.7255    1.3345    1.4066 H   0  0  0  0  0  0  0  0  0  0  0  0
    0.7067    2.0472    0.4349 H   0  0  0  0  0  0  0  0  0  0  0  0
   -1.0584    2.2371   -1.3093 H   0  0  0  0  0  0  0  0  0  0  0  0
   -2.8535    0.7665    0.0232 H   0  0  0  0  0  0  0  0  0  0  0  0
   -2.3575   -0.0385   -1.5581 H   0  0  0  0  0  0  0  0  0  0  0  0
   -1.4976   -0.7168    1.2502 H   0  0  0  0  0  0  0  0  0  0  0  0
   -2.0575   -2.4393    0.0679 H   0  0  0  0  0  0  0  0  0  0  0  0
  1  2  1  0
  2  3  1  0
  3  4  1  0
  4  5  1  0
  5  6  1  0
  6  7  1  0
  7  8  1  0
  5  9  1  0
  7  3  1  0
  9  3  1  0
  1 10  1  0
  1 11  1  0
  1 12  1  0
  2 13  1  0
  2 14  1  0
  4 15  1  0
  4 16  1  0
  5 17  1  0
  6 18  1  0
  6 19  1  0
  7 20  1  0
  8 21  1  0
M  END
