
     RDKit          3D

 21 23  0  0  0  0  0  0  0  0999 V2000
   -2.5429   -0.2722   -0.6414 C   0  0  0  0  0  0  0  0  0  0  0  0
   -1.6385    0.6666    0.0996 C   0  0  0  0  0  0  0  0  0  0  0  0
   -0.2126    0.3320    0.0813 C   0  0  0  0  0  0  0  0  0  0  0  0
    0.5067    0.2523   -1.2439 C   0  0  0  0  0  0  0  0  0  0  0  0
    1.4875   -0.6976   -0.5549 C   0  0  0  0  0  0  0  0  0  0  0  0
    2.5120    0.1270    0.1809 C   0  0  0  0  0  0  0  0  0  0  0  0
    1.9438    0.5975    1.3319 O   0  0  0  0  0  0  0  0  0  0  0  0
    0.6104    0.2838    1.3610 C   0  0  0  0  0  0  0  0  0  0  0  0
    0.4309   -0.8865    0.4941 C   0  0  0  0  0  0  0  0  0  0  0  0
   -3.4986   -0.3569   -0.0589 H   0  0  0  0  0  0  0  0  0  0  0  0
   -2.0980   -1.2846   -0.7733 H   0  0  0  0  0  0  0  0  0  0  0  0
   -2.8339    0.1164   -1.6389 H   0  0  0  0  0  0  0  0  0  0  0  0
   -1.7787    1.6840   -0.3638 H   0  0  0  0  0  0  0  0  0  0  0  0
   -1.9759    0.7843    1.1604 H   0  0  0  0  0  0  0  0  0  0  0  0
   -0.0215   -0.2693   -2.0433 H   0  0  0  0  0  0  0  0  0  0  0  0
    0.9580    1.2136   -1.4920 H   0  0  0  0  0  0  0  0  0  0  0  0
    1.8192   -1.5490   -1.1226 H   0  0  0  0  0  0  0  0  0  0  0  0
    2.7745    1.0248   -0.4487 H   0  0  0  0  0  0  0  0  0  0  0  0
    3.4700   -0.4116    0.3347 H   0  0  0  0  0  0  0  0  0  0  0  0
    0.0779    0.4761    2.2818 H   0  0  0  0  0  0  0  0  0  0  0  0
    0.0096   -1.8309    0.7598 H   0  0  0  0  0  0  0  0  0  0  0  0
  1  2  1  0
  2  3  1  0
  3  4  1  0
  4  5  1  0
  5  6  1  0
  6  7  1  0
  7  8  1  0
  8  9  1  0
  8  3  1  0
  9  3  1  0
  9  5  1  0
  1 10  1  0
  1 11  1  0
  1 12  1  0
  2 13  1  0
  2 14  1  0
  4 15  1  0
  4 16  1  0
  5 17  1  0
  6 18  1  0
  6 19  1  0
  8 20  1  0
  9 21  1  0
M  END
