
     RDKit          3D

 23 23  0  0  0  0  0  0  0  0999 V2000
    2.5600    0.2137   -0.3520 C   0  0  0  0  0  0  0  0  0  0  0  0
    1.2307   -0.4394   -0.6958 C   0  0  0  0  0  0  0  0  0  0  0  0
    0.2477   -0.0474    0.3583 C   0  0  0  0  0  0  0  0  0  0  0  0
    0.6290   -0.4542    1.6287 O   0  0  0  0  0  0  0  0  0  0  0  0
    0.1931    1.4505    0.3834 C   0  0  0  0  0  0  0  0  0  0  0  0
   -0.8988    1.8797   -0.2352 C   0  0  0  0  0  0  0  0  0  0  0  0
   -1.6957    0.7286   -0.7423 C   0  0  0  0  0  0  0  0  0  0  0  0
   -1.1642   -0.4138    0.0922 C   0  0  0  0  0  0  0  0  0  0  0  0
   -1.3745   -1.7491   -0.5289 C   0  0  0  0  0  0  0  0  0  0  0  0
    3.3544   -0.5452   -0.1812 H   0  0  0  0  0  0  0  0  0  0  0  0
    2.5012    0.8026    0.5897 H   0  0  0  0  0  0  0  0  0  0  0  0
    2.9171    0.8595   -1.1685 H   0  0  0  0  0  0  0  0  0  0  0  0
    0.9276   -0.0610   -1.6929 H   0  0  0  0  0  0  0  0  0  0  0  0
    1.4106   -1.5139   -0.7866 H   0  0  0  0  0  0  0  0  0  0  0  0
   -0.1061   -0.4686    2.2633 H   0  0  0  0  0  0  0  0  0  0  0  0
    0.9319    2.1317    0.8389 H   0  0  0  0  0  0  0  0  0  0  0  0
   -1.2138    2.9142   -0.3791 H   0  0  0  0  0  0  0  0  0  0  0  0
   -2.7862    0.8760   -0.5834 H   0  0  0  0  0  0  0  0  0  0  0  0
   -1.5084    0.5378   -1.8117 H   0  0  0  0  0  0  0  0  0  0  0  0
   -1.7172   -0.3852    1.0554 H   0  0  0  0  0  0  0  0  0  0  0  0
   -2.1194   -2.3655    0.0454 H   0  0  0  0  0  0  0  0  0  0  0  0
   -1.8459   -1.5785   -1.5365 H   0  0  0  0  0  0  0  0  0  0  0  0
   -0.4731   -2.3722   -0.6182 H   0  0  0  0  0  0  0  0  0  0  0  0
  1  2  1  0
  2  3  1  0
  3  4  1  0
  3  5  1  0
  5  6  2  0
  6  7  1  0
  7  8  1  0
  8  9  1  0
  8  3  1  0
  1 10  1  0
  1 11  1  0
  1 12  1  0
  2 13  1  0
  2 14  1  0
  4 15  1  0
  5 16  1  0
  6 17  1  0
  7 18  1  0
  7 19  1  0
  8 20  1  0
  9 21  1  0
  9 22  1  0
  9 23  1  0
M  END
