
     RDKit          3D

 23 24  0  0  0  0  0  0  0  0999 V2000
   -3.0157    0.2350   -0.1606 C   0  0  0  0  0  0  0  0  0  0  0  0
   -1.8337   -0.6825   -0.4408 C   0  0  0  0  0  0  0  0  0  0  0  0
   -0.6510   -0.1135    0.2888 C   0  0  0  0  0  0  0  0  0  0  0  0
   -0.3062    1.2842   -0.1579 C   0  0  0  0  0  0  0  0  0  0  0  0
    1.0012    1.4073    0.3556 O   0  0  0  0  0  0  0  0  0  0  0  0
    1.6564    0.2307    0.0438 C   0  0  0  0  0  0  0  0  0  0  0  0
    2.8343    0.2733   -0.8825 C   0  0  0  0  0  0  0  0  0  0  0  0
    1.6453   -0.8863    1.0325 C   0  0  0  0  0  0  0  0  0  0  0  0
    0.6350   -0.8545   -0.0505 C   0  0  0  0  0  0  0  0  0  0  0  0
   -3.9329   -0.3798   -0.1616 H   0  0  0  0  0  0  0  0  0  0  0  0
   -3.0932    0.9952   -0.9500 H   0  0  0  0  0  0  0  0  0  0  0  0
   -2.9093    0.6890    0.8475 H   0  0  0  0  0  0  0  0  0  0  0  0
   -1.6592   -0.8188   -1.5202 H   0  0  0  0  0  0  0  0  0  0  0  0
   -2.0803   -1.6541    0.0535 H   0  0  0  0  0  0  0  0  0  0  0  0
   -0.8617   -0.1161    1.3647 H   0  0  0  0  0  0  0  0  0  0  0  0
   -0.2645    1.3297   -1.2564 H   0  0  0  0  0  0  0  0  0  0  0  0
   -0.9333    2.0527    0.2906 H   0  0  0  0  0  0  0  0  0  0  0  0
    3.5729    0.9952   -0.4388 H   0  0  0  0  0  0  0  0  0  0  0  0
    3.2602   -0.7432   -0.9753 H   0  0  0  0  0  0  0  0  0  0  0  0
    2.5904    0.6992   -1.8842 H   0  0  0  0  0  0  0  0  0  0  0  0
    1.2783   -0.7412    2.0604 H   0  0  0  0  0  0  0  0  0  0  0  0
    2.4189   -1.6657    0.9418 H   0  0  0  0  0  0  0  0  0  0  0  0
    0.6483   -1.5357   -0.8997 H   0  0  0  0  0  0  0  0  0  0  0  0
  1  2  1  0
  2  3  1  0
  3  4  1  0
  4  5  1  0
  5  6  1  0
  6  7  1  0
  6  8  1  0
  8  9  1  0
  9  3  1  0
  9  6  1  0
  1 10  1  0
  1 11  1  0
  1 12  1  0
  2 13  1  0
  2 14  1  0
  3 15  1  0
  4 16  1  0
  4 17  1  0
  7 18  1  0
  7 19  1  0
  7 20  1  0
  8 21  1  0
  8 22  1  0
  9 23  1  0
M  END
