
     RDKit          3D

 23 24  0  0  0  0  0  0  0  0999 V2000
    3.3141    0.0572   -0.0197 C   0  0  0  0  0  0  0  0  0  0  0  0
    1.9973    0.2013   -0.7923 C   0  0  0  0  0  0  0  0  0  0  0  0
    0.8933    0.1348    0.2160 C   0  0  0  0  0  0  0  0  0  0  0  0
    0.7929   -1.0083    0.9676 O   0  0  0  0  0  0  0  0  0  0  0  0
   -0.5614   -0.6260    1.1129 C   0  0  0  0  0  0  0  0  0  0  0  0
   -1.4155   -1.1152    0.0479 C   0  0  0  0  0  0  0  0  0  0  0  0
   -2.9067   -0.8373    0.2291 C   0  0  0  0  0  0  0  0  0  0  0  0
   -0.4919   -0.0198   -0.2830 C   0  0  0  0  0  0  0  0  0  0  0  0
   -1.1912    1.2868   -0.5733 C   0  0  0  0  0  0  0  0  0  0  0  0
    4.1292   -0.3001   -0.6437 H   0  0  0  0  0  0  0  0  0  0  0  0
    3.5070    1.0169    0.5003 H   0  0  0  0  0  0  0  0  0  0  0  0
    3.1129   -0.7100    0.7602 H   0  0  0  0  0  0  0  0  0  0  0  0
    1.9728    1.2018   -1.2701 H   0  0  0  0  0  0  0  0  0  0  0  0
    1.8917   -0.6292   -1.4924 H   0  0  0  0  0  0  0  0  0  0  0  0
    0.9557    1.0161    0.9176 H   0  0  0  0  0  0  0  0  0  0  0  0
   -0.8570   -0.0123    1.9576 H   0  0  0  0  0  0  0  0  0  0  0  0
   -1.2079   -2.1170   -0.4023 H   0  0  0  0  0  0  0  0  0  0  0  0
   -3.0858   -0.1563    1.1010 H   0  0  0  0  0  0  0  0  0  0  0  0
   -3.3730   -1.8031    0.5130 H   0  0  0  0  0  0  0  0  0  0  0  0
   -3.3444   -0.3691   -0.6572 H   0  0  0  0  0  0  0  0  0  0  0  0
   -1.4926    1.2195   -1.6614 H   0  0  0  0  0  0  0  0  0  0  0  0
   -2.1287    1.4112   -0.0187 H   0  0  0  0  0  0  0  0  0  0  0  0
   -0.5109    2.1581   -0.5089 H   0  0  0  0  0  0  0  0  0  0  0  0
  1  2  1  0
  2  3  1  0
  3  4  1  0
  4  5  1  0
  5  6  1  0
  6  7  1  0
  6  8  1  0
  8  9  1  0
  8  3  1  0
  8  5  1  0
  1 10  1  0
  1 11  1  0
  1 12  1  0
  2 13  1  0
  2 14  1  0
  3 15  1  0
  5 16  1  0
  6 17  1  0
  7 18  1  0
  7 19  1  0
  7 20  1  0
  9 21  1  0
  9 22  1  0
  9 23  1  0
M  END
