
     RDKit          3D

 23 23  0  0  0  0  0  0  0  0999 V2000
   -2.8954    0.9916   -0.0078 C   0  0  0  0  0  0  0  0  0  0  0  0
   -1.9871   -0.1319   -0.4536 C   0  0  0  0  0  0  0  0  0  0  0  0
   -0.6464   -0.0537    0.2447 C   0  0  0  0  0  0  0  0  0  0  0  0
    0.2088   -1.2007   -0.2447 C   0  0  0  0  0  0  0  0  0  0  0  0
    1.4172   -1.1903    0.7014 C   0  0  0  0  0  0  0  0  0  0  0  0
    2.0915    0.1447    0.6094 C   0  0  0  0  0  0  0  0  0  0  0  0
    3.2580   -0.0480   -0.1531 O   0  0  0  0  0  0  0  0  0  0  0  0
    1.2807    1.2218   -0.0139 C   0  0  0  0  0  0  0  0  0  0  0  0
   -0.0637    1.1612    0.1340 O   0  0  0  0  0  0  0  0  0  0  0  0
   -3.1336    0.7934    1.0706 H   0  0  0  0  0  0  0  0  0  0  0  0
   -3.8214    0.9275   -0.5874 H   0  0  0  0  0  0  0  0  0  0  0  0
   -2.4169    1.9708   -0.1438 H   0  0  0  0  0  0  0  0  0  0  0  0
   -1.8488   -0.1317   -1.5540 H   0  0  0  0  0  0  0  0  0  0  0  0
   -2.4557   -1.0987   -0.1789 H   0  0  0  0  0  0  0  0  0  0  0  0
   -0.8523   -0.2704    1.3307 H   0  0  0  0  0  0  0  0  0  0  0  0
    0.5157   -1.0875   -1.2872 H   0  0  0  0  0  0  0  0  0  0  0  0
   -0.3418   -2.1374   -0.0281 H   0  0  0  0  0  0  0  0  0  0  0  0
    2.0678   -2.0492    0.5416 H   0  0  0  0  0  0  0  0  0  0  0  0
    0.9717   -1.2910    1.7288 H   0  0  0  0  0  0  0  0  0  0  0  0
    2.4445    0.4175    1.6264 H   0  0  0  0  0  0  0  0  0  0  0  0
    3.0597   -0.3859   -1.0588 H   0  0  0  0  0  0  0  0  0  0  0  0
    1.5136    1.2492   -1.1110 H   0  0  0  0  0  0  0  0  0  0  0  0
    1.6339    2.1987    0.3824 H   0  0  0  0  0  0  0  0  0  0  0  0
  1  2  1  0
  2  3  1  0
  3  4  1  0
  4  5  1  0
  5  6  1  0
  6  7  1  0
  6  8  1  0
  8  9  1  0
  9  3  1  0
  1 10  1  0
  1 11  1  0
  1 12  1  0
  2 13  1  0
  2 14  1  0
  3 15  1  0
  4 16  1  0
  4 17  1  0
  5 18  1  0
  5 19  1  0
  6 20  1  0
  7 21  1  0
  8 22  1  0
  8 23  1  0
M  END
