
     RDKit          3D

 22 23  0  0  0  0  0  0  0  0999 V2000
    2.5702    0.4474   -0.0046 C   0  0  0  0  0  0  0  0  0  0  0  0
    1.5181   -0.6252    0.2059 C   0  0  0  0  0  0  0  0  0  0  0  0
    0.2438   -0.0074    0.6577 C   0  0  0  0  0  0  0  0  0  0  0  0
   -0.8806   -1.0016    0.8999 C   0  0  0  0  0  0  0  0  0  0  0  0
   -1.9232   -0.4258   -0.0194 C   0  0  0  0  0  0  0  0  0  0  0  0
   -1.7351    1.0825    0.1138 C   0  0  0  0  0  0  0  0  0  0  0  0
   -0.3617    0.7800   -0.4666 C   0  0  0  0  0  0  0  0  0  0  0  0
   -1.0833   -0.2618   -1.2947 C   0  0  0  0  0  0  0  0  0  0  0  0
    3.3301    0.0777   -0.7320 H   0  0  0  0  0  0  0  0  0  0  0  0
    3.0749    0.5752    0.9864 H   0  0  0  0  0  0  0  0  0  0  0  0
    2.1115    1.3947   -0.3470 H   0  0  0  0  0  0  0  0  0  0  0  0
    1.4184   -1.1403   -0.7666 H   0  0  0  0  0  0  0  0  0  0  0  0
    1.9181   -1.3844    0.9096 H   0  0  0  0  0  0  0  0  0  0  0  0
    0.3607    0.6713    1.5264 H   0  0  0  0  0  0  0  0  0  0  0  0
   -1.1852   -1.0512    1.9430 H   0  0  0  0  0  0  0  0  0  0  0  0
   -0.5580   -1.9709    0.4643 H   0  0  0  0  0  0  0  0  0  0  0  0
   -2.8902   -0.8304   -0.0952 H   0  0  0  0  0  0  0  0  0  0  0  0
   -1.6281    1.4394    1.1582 H   0  0  0  0  0  0  0  0  0  0  0  0
   -2.3557    1.6849   -0.5512 H   0  0  0  0  0  0  0  0  0  0  0  0
    0.1717    1.5538   -0.9470 H   0  0  0  0  0  0  0  0  0  0  0  0
   -1.6498    0.1391   -2.1545 H   0  0  0  0  0  0  0  0  0  0  0  0
   -0.4666   -1.1469   -1.4863 H   0  0  0  0  0  0  0  0  0  0  0  0
  1  2  1  0
  2  3  1  0
  3  4  1  0
  4  5  1  0
  5  6  1  0
  6  7  1  0
  7  8  1  0
  7  3  1  0
  8  5  1  0
  1  9  1  0
  1 10  1  0
  1 11  1  0
  2 12  1  0
  2 13  1  0
  3 14  1  0
  4 15  1  0
  4 16  1  0
  5 17  1  0
  6 18  1  0
  6 19  1  0
  7 20  1  0
  8 21  1  0
  8 22  1  0
M  END
