
     RDKit          3D

 23 24  0  0  0  0  0  0  0  0999 V2000
    2.4595   -0.0527    0.3476 C   0  0  0  0  0  0  0  0  0  0  0  0
    1.3227    0.0400   -0.6528 C   0  0  0  0  0  0  0  0  0  0  0  0
    0.0563    0.2086    0.0972 C   0  0  0  0  0  0  0  0  0  0  0  0
    0.0832    1.4841    0.9498 C   0  0  0  0  0  0  0  0  0  0  0  0
   -0.5345   -0.9771    0.7860 C   0  0  0  0  0  0  0  0  0  0  0  0
   -1.0415   -1.4382   -0.5244 C   0  0  0  0  0  0  0  0  0  0  0  0
   -1.2471    0.0684   -0.5741 C   0  0  0  0  0  0  0  0  0  0  0  0
   -1.7890    0.7165   -1.4924 O   0  0  0  0  0  0  0  0  0  0  0  0
   -1.8073   -0.1513    0.8314 C   0  0  0  0  0  0  0  0  0  0  0  0
    2.1844    0.4460    1.2884 H   0  0  0  0  0  0  0  0  0  0  0  0
    3.3695    0.3470   -0.1306 H   0  0  0  0  0  0  0  0  0  0  0  0
    2.6881   -1.1062    0.6098 H   0  0  0  0  0  0  0  0  0  0  0  0
    1.2981   -0.8086   -1.3275 H   0  0  0  0  0  0  0  0  0  0  0  0
    1.5314    0.9703   -1.2599 H   0  0  0  0  0  0  0  0  0  0  0  0
   -0.7189    2.1872    0.6272 H   0  0  0  0  0  0  0  0  0  0  0  0
    0.0735    1.2603    2.0288 H   0  0  0  0  0  0  0  0  0  0  0  0
    1.0370    2.0437    0.7643 H   0  0  0  0  0  0  0  0  0  0  0  0
   -0.1569   -1.5045    1.5478 H   0  0  0  0  0  0  0  0  0  0  0  0
   -2.0111   -1.9914   -0.4131 H   0  0  0  0  0  0  0  0  0  0  0  0
   -0.3917   -1.8832   -1.2618 H   0  0  0  0  0  0  0  0  0  0  0  0
   -1.9045    0.2489   -2.3715 H   0  0  0  0  0  0  0  0  0  0  0  0
   -2.6879   -0.8174    0.8672 H   0  0  0  0  0  0  0  0  0  0  0  0
   -1.8133    0.7097    1.4942 H   0  0  0  0  0  0  0  0  0  0  0  0
  1  2  1  0
  2  3  1  0
  3  4  1  0
  3  5  1  0
  5  6  1  0
  6  7  1  0
  7  8  1  0
  7  9  1  0
  7  3  1  0
  9  5  1  0
  1 10  1  0
  1 11  1  0
  1 12  1  0
  2 13  1  0
  2 14  1  0
  4 15  1  0
  4 16  1  0
  4 17  1  0
  5 18  1  0
  6 19  1  0
  6 20  1  0
  8 21  1  0
  9 22  1  0
  9 23  1  0
M  END
