
     RDKit          3D

 17 17  0  0  0  0  0  0  0  0999 V2000
    2.0327    0.4161   -0.6607 C   0  0  0  0  0  0  0  0  0  0  0  0
    1.0908   -0.5541   -0.0010 C   0  0  0  0  0  0  0  0  0  0  0  0
   -0.1222    0.2029    0.4779 C   0  0  0  0  0  0  0  0  0  0  0  0
   -1.0686   -0.7698    1.1403 C   0  0  0  0  0  0  0  0  0  0  0  0
   -2.3770   -0.4443    0.7405 O   0  0  0  0  0  0  0  0  0  0  0  0
   -2.2864    0.3109   -0.4368 C   0  0  0  0  0  0  0  0  0  0  0  0
   -3.2884    0.5308   -1.1659 O   0  0  0  0  0  0  0  0  0  0  0  0
   -0.9214    0.7528   -0.6330 C   0  0  0  0  0  0  0  0  0  0  0  0
   -0.5106    1.4610   -1.5639 O   0  0  0  0  0  0  0  0  0  0  0  0
    3.0804    0.0596   -0.6287 H   0  0  0  0  0  0  0  0  0  0  0  0
    1.9999    1.3565   -0.0879 H   0  0  0  0  0  0  0  0  0  0  0  0
    1.6846    0.5511   -1.7153 H   0  0  0  0  0  0  0  0  0  0  0  0
    0.8143   -1.4095   -0.6473 H   0  0  0  0  0  0  0  0  0  0  0  0
    1.6115   -0.9246    0.9204 H   0  0  0  0  0  0  0  0  0  0  0  0
    0.1413    0.9821    1.1861 H   0  0  0  0  0  0  0  0  0  0  0  0
   -0.8851   -1.8171    0.8353 H   0  0  0  0  0  0  0  0  0  0  0  0
   -0.9958   -0.7044    2.2401 H   0  0  0  0  0  0  0  0  0  0  0  0
  1  2  1  0
  2  3  1  0
  3  4  1  0
  4  5  1  0
  5  6  1  0
  6  7  2  0
  6  8  1  0
  8  9  2  0
  8  3  1  0
  1 10  1  0
  1 11  1  0
  1 12  1  0
  2 13  1  0
  2 14  1  0
  3 15  1  0
  4 16  1  0
  4 17  1  0
M  END
