
     RDKit          3D

 19 20  0  0  0  0  0  0  0  0999 V2000
    2.0931    0.3594   -0.1183 C   0  0  0  0  0  0  0  0  0  0  0  0
    1.0174   -0.4568   -0.7406 C   0  0  0  0  0  0  0  0  0  0  0  0
   -0.1946   -0.6464    0.0974 C   0  0  0  0  0  0  0  0  0  0  0  0
   -1.3641   -1.4332   -0.3668 C   0  0  0  0  0  0  0  0  0  0  0  0
   -2.2839   -0.5082    0.1703 O   0  0  0  0  0  0  0  0  0  0  0  0
   -1.1981    0.3499    0.3892 C   0  0  0  0  0  0  0  0  0  0  0  0
   -1.2762    1.6912   -0.1503 C   0  0  0  0  0  0  0  0  0  0  0  0
   -2.2508    2.0544   -0.7699 O   0  0  0  0  0  0  0  0  0  0  0  0
   -0.2525   -0.0655    1.4491 C   0  0  0  0  0  0  0  0  0  0  0  0
    1.9799    1.4574   -0.3290 H   0  0  0  0  0  0  0  0  0  0  0  0
    2.2299    0.1348    0.9431 H   0  0  0  0  0  0  0  0  0  0  0  0
    3.0680    0.0868   -0.6208 H   0  0  0  0  0  0  0  0  0  0  0  0
    1.4272   -1.4582   -0.9932 H   0  0  0  0  0  0  0  0  0  0  0  0
    0.7488    0.0154   -1.7236 H   0  0  0  0  0  0  0  0  0  0  0  0
   -1.5315   -1.4674   -1.4696 H   0  0  0  0  0  0  0  0  0  0  0  0
   -1.5231   -2.4081    0.1575 H   0  0  0  0  0  0  0  0  0  0  0  0
   -0.4755    2.3976   -0.0164 H   0  0  0  0  0  0  0  0  0  0  0  0
    0.4743    0.6382    1.8517 H   0  0  0  0  0  0  0  0  0  0  0  0
   -0.6882   -0.7412    2.2401 H   0  0  0  0  0  0  0  0  0  0  0  0
  1  2  1  0
  2  3  1  0
  3  4  1  0
  4  5  1  0
  5  6  1  0
  6  7  1  0
  7  8  2  0
  6  9  1  0
  6  3  1  0
  9  3  1  0
  1 10  1  0
  1 11  1  0
  1 12  1  0
  2 13  1  0
  2 14  1  0
  4 15  1  0
  4 16  1  0
  7 17  1  0
  9 18  1  0
  9 19  1  0
M  END
