
     RDKit          3D

 20 21  0  0  0  0  0  0  0  0999 V2000
    2.3075   -0.7087   -0.2790 C   0  0  0  0  0  0  0  0  0  0  0  0
    1.4800    0.3968    0.3527 C   0  0  0  0  0  0  0  0  0  0  0  0
    0.1353    0.5197   -0.3013 C   0  0  0  0  0  0  0  0  0  0  0  0
   -0.6473    1.6150    0.3461 C   0  0  0  0  0  0  0  0  0  0  0  0
   -1.9791    1.2136    0.1862 O   0  0  0  0  0  0  0  0  0  0  0  0
   -2.0184   -0.1415    0.4264 C   0  0  0  0  0  0  0  0  0  0  0  0
   -1.8617   -1.0262   -0.7593 C   0  0  0  0  0  0  0  0  0  0  0  0
   -0.6703   -0.7119    0.0493 C   0  0  0  0  0  0  0  0  0  0  0  0
    2.6758   -0.4106   -1.2797 H   0  0  0  0  0  0  0  0  0  0  0  0
    3.1865   -0.8544    0.3923 H   0  0  0  0  0  0  0  0  0  0  0  0
    1.7479   -1.6532   -0.3637 H   0  0  0  0  0  0  0  0  0  0  0  0
    2.0861    1.3209    0.2766 H   0  0  0  0  0  0  0  0  0  0  0  0
    1.3198    0.1128    1.4117 H   0  0  0  0  0  0  0  0  0  0  0  0
    0.1920    0.6862   -1.3904 H   0  0  0  0  0  0  0  0  0  0  0  0
   -0.5176    2.6054   -0.0994 H   0  0  0  0  0  0  0  0  0  0  0  0
   -0.4716    1.6752    1.4347 H   0  0  0  0  0  0  0  0  0  0  0  0
   -2.5203   -0.5279    1.3582 H   0  0  0  0  0  0  0  0  0  0  0  0
   -2.1885   -2.0871   -0.7397 H   0  0  0  0  0  0  0  0  0  0  0  0
   -1.9930   -0.5652   -1.7615 H   0  0  0  0  0  0  0  0  0  0  0  0
   -0.2631   -1.4588    0.7398 H   0  0  0  0  0  0  0  0  0  0  0  0
  1  2  1  0
  2  3  1  0
  3  4  1  0
  4  5  1  0
  5  6  1  0
  6  7  1  0
  7  8  1  0
  8  3  1  0
  8  6  1  0
  1  9  1  0
  1 10  1  0
  1 11  1  0
  2 12  1  0
  2 13  1  0
  3 14  1  0
  4 15  1  0
  4 16  1  0
  6 17  1  0
  7 18  1  0
  7 19  1  0
  8 20  1  0
M  END
