
     RDKit          3D

 19 20  0  0  0  0  0  0  0  0999 V2000
    1.4731    1.2026    0.2013 C   0  0  0  0  0  0  0  0  0  0  0  0
    0.8541    0.4811   -0.9389 C   0  0  0  0  0  0  0  0  0  0  0  0
   -0.0680   -0.6648   -0.5516 C   0  0  0  0  0  0  0  0  0  0  0  0
    0.5438   -1.6834    0.1939 C   0  0  0  0  0  0  0  0  0  0  0  0
   -0.2993   -0.8803    1.0025 C   0  0  0  0  0  0  0  0  0  0  0  0
   -0.5294    0.4453    1.1764 O   0  0  0  0  0  0  0  0  0  0  0  0
   -1.7221    0.5946    0.4111 C   0  0  0  0  0  0  0  0  0  0  0  0
   -1.4640   -0.3072   -0.7867 C   0  0  0  0  0  0  0  0  0  0  0  0
   -2.2357   -0.6046   -1.6522 O   0  0  0  0  0  0  0  0  0  0  0  0
    2.4660    1.6019   -0.1762 H   0  0  0  0  0  0  0  0  0  0  0  0
    0.9345    2.1191    0.5198 H   0  0  0  0  0  0  0  0  0  0  0  0
    1.7855    0.5501    1.0500 H   0  0  0  0  0  0  0  0  0  0  0  0
    0.3968    1.2082   -1.6236 H   0  0  0  0  0  0  0  0  0  0  0  0
    1.6753   -0.0050   -1.5324 H   0  0  0  0  0  0  0  0  0  0  0  0
    1.6343   -1.6712    0.4034 H   0  0  0  0  0  0  0  0  0  0  0  0
    0.2468   -2.7442   -0.0631 H   0  0  0  0  0  0  0  0  0  0  0  0
   -1.2652   -1.4075    1.2903 H   0  0  0  0  0  0  0  0  0  0  0  0
   -2.5479    0.1358    0.9707 H   0  0  0  0  0  0  0  0  0  0  0  0
   -1.8787    1.6295    0.1053 H   0  0  0  0  0  0  0  0  0  0  0  0
  1  2  1  0
  2  3  1  0
  3  4  1  0
  4  5  1  0
  5  6  1  0
  6  7  1  0
  7  8  1  0
  8  9  2  0
  5  3  1  0
  8  3  1  0
  1 10  1  0
  1 11  1  0
  1 12  1  0
  2 13  1  0
  2 14  1  0
  4 15  1  0
  4 16  1  0
  5 17  1  0
  7 18  1  0
  7 19  1  0
M  END
