
     RDKit          3D

 23 23  0  0  0  0  0  0  0  0999 V2000
    2.7779    0.2852    1.0271 C   0  0  0  0  0  0  0  0  0  0  0  0
    1.6180   -0.5505    0.5366 C   0  0  0  0  0  0  0  0  0  0  0  0
    0.7055    0.2906   -0.3490 C   0  0  0  0  0  0  0  0  0  0  0  0
   -0.4974   -0.4331   -0.9054 C   0  0  0  0  0  0  0  0  0  0  0  0
   -0.7332   -1.7524   -0.5246 O   0  0  0  0  0  0  0  0  0  0  0  0
   -1.2308   -2.4459   -1.6299 C   0  0  0  0  0  0  0  0  0  0  0  0
   -0.6646    0.5926    0.1641 C   0  0  0  0  0  0  0  0  0  0  0  0
   -1.2572    1.8167   -0.1031 O   0  0  0  0  0  0  0  0  0  0  0  0
   -1.9740    2.3063    0.9848 C   0  0  0  0  0  0  0  0  0  0  0  0
    3.7107   -0.0414    0.4979 H   0  0  0  0  0  0  0  0  0  0  0  0
    2.5949    1.3815    0.8850 H   0  0  0  0  0  0  0  0  0  0  0  0
    2.9723    0.1434    2.1066 H   0  0  0  0  0  0  0  0  0  0  0  0
    1.0581   -0.8745    1.4591 H   0  0  0  0  0  0  0  0  0  0  0  0
    1.9338   -1.4570    0.0136 H   0  0  0  0  0  0  0  0  0  0  0  0
    1.2473    0.9996   -0.9841 H   0  0  0  0  0  0  0  0  0  0  0  0
   -0.7277   -0.1567   -1.9615 H   0  0  0  0  0  0  0  0  0  0  0  0
   -2.1775   -1.9231   -1.9206 H   0  0  0  0  0  0  0  0  0  0  0  0
   -0.4657   -2.3084   -2.4387 H   0  0  0  0  0  0  0  0  0  0  0  0
   -1.4106   -3.5058   -1.4122 H   0  0  0  0  0  0  0  0  0  0  0  0
   -0.8699    0.2236    1.2005 H   0  0  0  0  0  0  0  0  0  0  0  0
   -2.4093    3.2808    0.6813 H   0  0  0  0  0  0  0  0  0  0  0  0
   -1.3513    2.4873    1.8654 H   0  0  0  0  0  0  0  0  0  0  0  0
   -2.8494    1.6411    1.1953 H   0  0  0  0  0  0  0  0  0  0  0  0
  1  2  1  0
  2  3  1  0
  3  4  1  0
  4  5  1  0
  5  6  1  0
  4  7  1  0
  7  8  1  0
  8  9  1  0
  7  3  1  0
  1 10  1  0
  1 11  1  0
  1 12  1  0
  2 13  1  0
  2 14  1  0
  3 15  1  0
  4 16  1  0
  6 17  1  0
  6 18  1  0
  6 19  1  0
  7 20  1  0
  9 21  1  0
  9 22  1  0
  9 23  1  0
M  END
