
     RDKit          3D

 21 22  0  0  0  0  0  0  0  0999 V2000
   -2.3708   -0.9289   -0.0493 C   0  0  0  0  0  0  0  0  0  0  0  0
   -1.0760   -0.5442   -0.6916 C   0  0  0  0  0  0  0  0  0  0  0  0
   -0.1992    0.2927    0.2048 C   0  0  0  0  0  0  0  0  0  0  0  0
   -0.7564    1.5699    0.6566 C   0  0  0  0  0  0  0  0  0  0  0  0
    0.2963    1.6491   -0.3612 C   0  0  0  0  0  0  0  0  0  0  0  0
    1.5997    1.3675    0.1109 O   0  0  0  0  0  0  0  0  0  0  0  0
    1.2698    0.0376    0.0655 C   0  0  0  0  0  0  0  0  0  0  0  0
    1.8832   -0.8561    1.1028 C   0  0  0  0  0  0  0  0  0  0  0  0
    3.2657   -0.7896    0.9637 O   0  0  0  0  0  0  0  0  0  0  0  0
   -2.2537   -1.1267    1.0367 H   0  0  0  0  0  0  0  0  0  0  0  0
   -3.1543   -0.1650   -0.2552 H   0  0  0  0  0  0  0  0  0  0  0  0
   -2.7054   -1.8856   -0.5383 H   0  0  0  0  0  0  0  0  0  0  0  0
   -0.5242   -1.4763   -0.9871 H   0  0  0  0  0  0  0  0  0  0  0  0
   -1.2693    0.0297   -1.6152 H   0  0  0  0  0  0  0  0  0  0  0  0
   -0.5023    2.0115    1.6543 H   0  0  0  0  0  0  0  0  0  0  0  0
   -1.7780    1.8475    0.3299 H   0  0  0  0  0  0  0  0  0  0  0  0
    0.1259    1.7453   -1.4337 H   0  0  0  0  0  0  0  0  0  0  0  0
    1.5198   -0.3705   -0.9578 H   0  0  0  0  0  0  0  0  0  0  0  0
    1.5382   -1.9032    0.8606 H   0  0  0  0  0  0  0  0  0  0  0  0
    1.5210   -0.6079    2.1014 H   0  0  0  0  0  0  0  0  0  0  0  0
    3.5699    0.1033    0.7058 H   0  0  0  0  0  0  0  0  0  0  0  0
  1  2  1  0
  2  3  1  0
  3  4  1  0
  4  5  1  0
  5  6  1  0
  6  7  1  0
  7  8  1  0
  8  9  1  0
  5  3  1  0
  7  3  1  0
  1 10  1  0
  1 11  1  0
  1 12  1  0
  2 13  1  0
  2 14  1  0
  4 15  1  0
  4 16  1  0
  5 17  1  0
  7 18  1  0
  8 19  1  0
  8 20  1  0
  9 21  1  0
M  END
