
     RDKit          3D

 25 25  0  0  0  0  0  0  0  0999 V2000
   -2.7530   -0.0282    0.0148 C   0  0  0  0  0  0  0  0  0  0  0  0
   -1.4019   -0.4721    0.4579 C   0  0  0  0  0  0  0  0  0  0  0  0
   -0.2699    0.3274   -0.1331 C   0  0  0  0  0  0  0  0  0  0  0  0
   -0.3394    1.7893    0.2169 C   0  0  0  0  0  0  0  0  0  0  0  0
    0.2826    0.0209   -1.4685 C   0  0  0  0  0  0  0  0  0  0  0  0
    1.0183   -0.3926   -0.2228 C   0  0  0  0  0  0  0  0  0  0  0  0
    1.0174   -1.8913    0.0055 C   0  0  0  0  0  0  0  0  0  0  0  0
    2.3234    0.2690    0.1369 C   0  0  0  0  0  0  0  0  0  0  0  0
    2.3886    0.7096    1.4280 O   0  0  0  0  0  0  0  0  0  0  0  0
   -3.4644   -0.0351    0.8792 H   0  0  0  0  0  0  0  0  0  0  0  0
   -2.7624    0.9827   -0.4432 H   0  0  0  0  0  0  0  0  0  0  0  0
   -3.2126   -0.7506   -0.7220 H   0  0  0  0  0  0  0  0  0  0  0  0
   -1.3389   -0.3450    1.5636 H   0  0  0  0  0  0  0  0  0  0  0  0
   -1.2776   -1.5671    0.2788 H   0  0  0  0  0  0  0  0  0  0  0  0
   -0.6426    1.9654    1.2798 H   0  0  0  0  0  0  0  0  0  0  0  0
   -1.1521    2.2339   -0.3966 H   0  0  0  0  0  0  0  0  0  0  0  0
    0.5824    2.3433   -0.0520 H   0  0  0  0  0  0  0  0  0  0  0  0
    0.7793    0.8293   -2.0317 H   0  0  0  0  0  0  0  0  0  0  0  0
   -0.1718   -0.7470   -2.1248 H   0  0  0  0  0  0  0  0  0  0  0  0
    2.0439   -2.2506   -0.2746 H   0  0  0  0  0  0  0  0  0  0  0  0
    0.3260   -2.4249   -0.6786 H   0  0  0  0  0  0  0  0  0  0  0  0
    0.8379   -2.1595    1.0590 H   0  0  0  0  0  0  0  0  0  0  0  0
    3.1462   -0.4579   -0.0246 H   0  0  0  0  0  0  0  0  0  0  0  0
    2.5468    1.1239   -0.5530 H   0  0  0  0  0  0  0  0  0  0  0  0
    1.4936    0.9272    1.8050 H   0  0  0  0  0  0  0  0  0  0  0  0
  1  2  1  0
  2  3  1  0
  3  4  1  0
  3  5  1  0
  5  6  1  0
  6  7  1  0
  6  8  1  0
  8  9  1  0
  6  3  1  0
  1 10  1  0
  1 11  1  0
  1 12  1  0
  2 13  1  0
  2 14  1  0
  4 15  1  0
  4 16  1  0
  4 17  1  0
  5 18  1  0
  5 19  1  0
  7 20  1  0
  7 21  1  0
  7 22  1  0
  8 23  1  0
  8 24  1  0
  9 25  1  0
M  END
