
     RDKit          3D

 22 22  0  0  0  0  0  0  0  0999 V2000
    2.1813   -0.8803    0.6877 C   0  0  0  0  0  0  0  0  0  0  0  0
    1.5749   -0.0314   -0.3911 C   0  0  0  0  0  0  0  0  0  0  0  0
    0.2298    0.5099   -0.0320 C   0  0  0  0  0  0  0  0  0  0  0  0
   -0.3278    1.3558   -1.1581 C   0  0  0  0  0  0  0  0  0  0  0  0
    0.1484    1.1698    1.1895 O   0  0  0  0  0  0  0  0  0  0  0  0
   -1.2023    0.7494    1.2371 C   0  0  0  0  0  0  0  0  0  0  0  0
   -0.7585   -0.4972    0.5150 C   0  0  0  0  0  0  0  0  0  0  0  0
   -1.7130   -1.0605   -0.4839 C   0  0  0  0  0  0  0  0  0  0  0  0
    2.2266   -0.2942    1.6383 H   0  0  0  0  0  0  0  0  0  0  0  0
    1.6395   -1.8182    0.8471 H   0  0  0  0  0  0  0  0  0  0  0  0
    3.2128   -1.1613    0.3334 H   0  0  0  0  0  0  0  0  0  0  0  0
    2.2467    0.8303   -0.5863 H   0  0  0  0  0  0  0  0  0  0  0  0
    1.4447   -0.6643   -1.3036 H   0  0  0  0  0  0  0  0  0  0  0  0
   -1.4006    1.1550   -1.3481 H   0  0  0  0  0  0  0  0  0  0  0  0
    0.2041    1.1221   -2.1032 H   0  0  0  0  0  0  0  0  0  0  0  0
   -0.1801    2.4347   -0.8649 H   0  0  0  0  0  0  0  0  0  0  0  0
   -1.8888    1.4001    0.6602 H   0  0  0  0  0  0  0  0  0  0  0  0
   -1.5737    0.6206    2.2560 H   0  0  0  0  0  0  0  0  0  0  0  0
   -0.2722   -1.1967    1.1964 H   0  0  0  0  0  0  0  0  0  0  0  0
   -2.6959   -0.5833   -0.4520 H   0  0  0  0  0  0  0  0  0  0  0  0
   -1.7667   -2.1717   -0.2934 H   0  0  0  0  0  0  0  0  0  0  0  0
   -1.3292   -0.9886   -1.5441 H   0  0  0  0  0  0  0  0  0  0  0  0
  1  2  1  0
  2  3  1  0
  3  4  1  0
  3  5  1  0
  5  6  1  0
  6  7  1  0
  7  8  1  0
  7  3  1  0
  1  9  1  0
  1 10  1  0
  1 11  1  0
  2 12  1  0
  2 13  1  0
  4 14  1  0
  4 15  1  0
  4 16  1  0
  6 17  1  0
  6 18  1  0
  7 19  1  0
  8 20  1  0
  8 21  1  0
  8 22  1  0
M  END
