
     RDKit          3D

 21 22  0  0  0  0  0  0  0  0999 V2000
    2.8786    0.7404   -0.3621 C   0  0  0  0  0  0  0  0  0  0  0  0
    2.0275   -0.2383    0.3756 C   0  0  0  0  0  0  0  0  0  0  0  0
    0.7728   -0.6278   -0.3674 C   0  0  0  0  0  0  0  0  0  0  0  0
    0.1017   -1.5224    0.4277 O   0  0  0  0  0  0  0  0  0  0  0  0
   -1.1973   -1.0195    0.6159 C   0  0  0  0  0  0  0  0  0  0  0  0
   -2.0266   -1.1033   -0.6419 C   0  0  0  0  0  0  0  0  0  0  0  0
   -1.3245    0.1393   -0.2511 C   0  0  0  0  0  0  0  0  0  0  0  0
   -2.1863    1.3266    0.0392 C   0  0  0  0  0  0  0  0  0  0  0  0
   -0.0479    0.4221   -0.6675 O   0  0  0  0  0  0  0  0  0  0  0  0
    2.6745    1.7524    0.0425 H   0  0  0  0  0  0  0  0  0  0  0  0
    3.9588    0.5349   -0.1158 H   0  0  0  0  0  0  0  0  0  0  0  0
    2.7095    0.7751   -1.4380 H   0  0  0  0  0  0  0  0  0  0  0  0
    1.7582    0.1693    1.3795 H   0  0  0  0  0  0  0  0  0  0  0  0
    2.6230   -1.1542    0.5526 H   0  0  0  0  0  0  0  0  0  0  0  0
    1.1144   -1.0752   -1.3388 H   0  0  0  0  0  0  0  0  0  0  0  0
   -1.6736   -1.1347    1.6003 H   0  0  0  0  0  0  0  0  0  0  0  0
   -1.6769   -1.7130   -1.4957 H   0  0  0  0  0  0  0  0  0  0  0  0
   -3.1121   -1.1448   -0.4814 H   0  0  0  0  0  0  0  0  0  0  0  0
   -2.3100    1.9102   -0.9131 H   0  0  0  0  0  0  0  0  0  0  0  0
   -1.8362    1.9660    0.8494 H   0  0  0  0  0  0  0  0  0  0  0  0
   -3.2276    0.9972    0.3028 H   0  0  0  0  0  0  0  0  0  0  0  0
  1  2  1  0
  2  3  1  0
  3  4  1  0
  4  5  1  0
  5  6  1  0
  6  7  1  0
  7  8  1  0
  7  9  1  0
  9  3  1  0
  7  5  1  0
  1 10  1  0
  1 11  1  0
  1 12  1  0
  2 13  1  0
  2 14  1  0
  3 15  1  0
  5 16  1  0
  6 17  1  0
  6 18  1  0
  8 19  1  0
  8 20  1  0
  8 21  1  0
M  END
