
     RDKit          3D

 21 23  0  0  0  0  0  0  0  0999 V2000
   -2.9270   -0.9611   -0.1094 C   0  0  0  0  0  0  0  0  0  0  0  0
   -1.9685   -0.2273    0.7893 C   0  0  0  0  0  0  0  0  0  0  0  0
   -0.8114    0.2889   -0.0699 C   0  0  0  0  0  0  0  0  0  0  0  0
    0.2192    1.0333    0.6619 C   0  0  0  0  0  0  0  0  0  0  0  0
    1.3823    1.5384   -0.1990 C   0  0  0  0  0  0  0  0  0  0  0  0
    1.7673    0.1116   -0.3982 C   0  0  0  0  0  0  0  0  0  0  0  0
    2.9941   -0.4973   -0.1901 C   0  0  0  0  0  0  0  0  0  0  0  0
    2.3864   -0.3371   -1.5200 O   0  0  0  0  0  0  0  0  0  0  0  0
    0.4693   -0.4026    0.0943 C   0  0  0  0  0  0  0  0  0  0  0  0
   -3.7873   -0.2886   -0.2940 H   0  0  0  0  0  0  0  0  0  0  0  0
   -2.4496   -1.2563   -1.0614 H   0  0  0  0  0  0  0  0  0  0  0  0
   -3.2452   -1.9104    0.3860 H   0  0  0  0  0  0  0  0  0  0  0  0
   -2.4418    0.6352    1.3129 H   0  0  0  0  0  0  0  0  0  0  0  0
   -1.5617   -0.8841    1.5996 H   0  0  0  0  0  0  0  0  0  0  0  0
   -1.0616    0.6263   -1.0954 H   0  0  0  0  0  0  0  0  0  0  0  0
    0.2913    1.0957    1.7466 H   0  0  0  0  0  0  0  0  0  0  0  0
    1.0270    2.0862   -1.1066 H   0  0  0  0  0  0  0  0  0  0  0  0
    2.1642    2.0696    0.3850 H   0  0  0  0  0  0  0  0  0  0  0  0
    3.9375    0.0583   -0.0599 H   0  0  0  0  0  0  0  0  0  0  0  0
    3.0828   -1.5671    0.1239 H   0  0  0  0  0  0  0  0  0  0  0  0
    0.5327   -1.2117    0.8443 H   0  0  0  0  0  0  0  0  0  0  0  0
  1  2  1  0
  2  3  1  0
  3  4  1  0
  4  5  1  0
  5  6  1  0
  6  7  1  0
  7  8  1  0
  6  9  1  0
  9  3  1  0
  9  4  1  0
  8  6  1  0
  1 10  1  0
  1 11  1  0
  1 12  1  0
  2 13  1  0
  2 14  1  0
  3 15  1  0
  4 16  1  0
  5 17  1  0
  5 18  1  0
  7 19  1  0
  7 20  1  0
  9 21  1  0
M  END
