
     RDKit          3D

 21 22  0  0  0  0  0  0  0  0999 V2000
    2.1492    0.2763    0.9242 C   0  0  0  0  0  0  0  0  0  0  0  0
    2.1287   -0.4848   -0.3682 C   0  0  0  0  0  0  0  0  0  0  0  0
    0.7488   -0.5489   -0.9985 C   0  0  0  0  0  0  0  0  0  0  0  0
   -0.3200   -1.1604   -0.2650 C   0  0  0  0  0  0  0  0  0  0  0  0
   -1.2694   -0.5349    0.7451 C   0  0  0  0  0  0  0  0  0  0  0  0
   -1.7743    0.1420   -0.5529 C   0  0  0  0  0  0  0  0  0  0  0  0
   -2.5395    1.3396   -0.2178 C   0  0  0  0  0  0  0  0  0  0  0  0
   -2.3242    2.4124   -0.7449 O   0  0  0  0  0  0  0  0  0  0  0  0
   -0.2734    0.3794   -0.6557 C   0  0  0  0  0  0  0  0  0  0  0  0
    1.9501    1.3484    0.7219 H   0  0  0  0  0  0  0  0  0  0  0  0
    1.4694   -0.0904    1.6827 H   0  0  0  0  0  0  0  0  0  0  0  0
    3.1707    0.2526    1.3790 H   0  0  0  0  0  0  0  0  0  0  0  0
    2.8742   -0.0761   -1.0756 H   0  0  0  0  0  0  0  0  0  0  0  0
    2.4795   -1.5251   -0.1338 H   0  0  0  0  0  0  0  0  0  0  0  0
    0.8702   -0.7077   -2.1214 H   0  0  0  0  0  0  0  0  0  0  0  0
   -0.9812   -1.7852   -0.9501 H   0  0  0  0  0  0  0  0  0  0  0  0
   -0.8790    0.2462    1.3895 H   0  0  0  0  0  0  0  0  0  0  0  0
   -1.9634   -1.2600    1.1721 H   0  0  0  0  0  0  0  0  0  0  0  0
   -2.1928   -0.5617   -1.2781 H   0  0  0  0  0  0  0  0  0  0  0  0
   -3.3262    1.2879    0.5206 H   0  0  0  0  0  0  0  0  0  0  0  0
    0.0027    1.0501    0.2202 H   0  0  0  0  0  0  0  0  0  0  0  0
  1  2  1  0
  2  3  1  0
  3  4  1  0
  4  5  1  0
  5  6  1  0
  6  7  1  0
  7  8  2  0
  6  9  1  0
  9  3  1  0
  9  4  1  0
  1 10  1  0
  1 11  1  0
  1 12  1  0
  2 13  1  0
  2 14  1  0
  3 15  1  0
  4 16  1  0
  5 17  1  0
  5 18  1  0
  6 19  1  0
  7 20  1  0
  9 21  1  0
M  END
