
     RDKit          3D

 25 25  0  0  0  0  0  0  0  0999 V2000
   -2.1721    0.6134   -0.2469 C   0  0  0  0  0  0  0  0  0  0  0  0
   -0.7431    0.9863   -0.2573 C   0  0  0  0  0  0  0  0  0  0  0  0
    0.2728   -0.0753   -0.3007 C   0  0  0  0  0  0  0  0  0  0  0  0
    1.7024    0.5055   -0.3060 C   0  0  0  0  0  0  0  0  0  0  0  0
    1.9002    1.3167    0.9520 C   0  0  0  0  0  0  0  0  0  0  0  0
    1.8948    1.3197   -1.4216 O   0  0  0  0  0  0  0  0  0  0  0  0
    0.0587   -1.0836   -1.4481 C   0  0  0  0  0  0  0  0  0  0  0  0
    0.1496   -1.4670    0.0261 C   0  0  0  0  0  0  0  0  0  0  0  0
   -1.0641   -2.1624    0.5430 C   0  0  0  0  0  0  0  0  0  0  0  0
   -2.5781    0.4610    0.7918 H   0  0  0  0  0  0  0  0  0  0  0  0
   -2.7560    1.5158   -0.6084 H   0  0  0  0  0  0  0  0  0  0  0  0
   -2.4591   -0.1920   -0.9321 H   0  0  0  0  0  0  0  0  0  0  0  0
   -0.5667    1.6733    0.6226 H   0  0  0  0  0  0  0  0  0  0  0  0
   -0.5755    1.6626   -1.1478 H   0  0  0  0  0  0  0  0  0  0  0  0
    2.4388   -0.3204   -0.2832 H   0  0  0  0  0  0  0  0  0  0  0  0
    1.3928    2.3020    0.8873 H   0  0  0  0  0  0  0  0  0  0  0  0
    1.5292    0.7676    1.8413 H   0  0  0  0  0  0  0  0  0  0  0  0
    2.9905    1.5384    1.0467 H   0  0  0  0  0  0  0  0  0  0  0  0
    1.7268    2.2578   -1.2417 H   0  0  0  0  0  0  0  0  0  0  0  0
   -0.9382   -1.1109   -1.9280 H   0  0  0  0  0  0  0  0  0  0  0  0
    0.8854   -1.2934   -2.1252 H   0  0  0  0  0  0  0  0  0  0  0  0
    1.1051   -2.0321    0.2342 H   0  0  0  0  0  0  0  0  0  0  0  0
   -1.5621   -1.6219    1.3933 H   0  0  0  0  0  0  0  0  0  0  0  0
   -1.8116   -2.4007   -0.2714 H   0  0  0  0  0  0  0  0  0  0  0  0
   -0.8205   -3.1607    0.9760 H   0  0  0  0  0  0  0  0  0  0  0  0
  1  2  1  0
  2  3  1  0
  3  4  1  0
  4  5  1  0
  4  6  1  0
  3  7  1  0
  7  8  1  0
  8  9  1  0
  8  3  1  0
  1 10  1  0
  1 11  1  0
  1 12  1  0
  2 13  1  0
  2 14  1  0
  4 15  1  0
  5 16  1  0
  5 17  1  0
  5 18  1  0
  6 19  1  0
  7 20  1  0
  7 21  1  0
  8 22  1  0
  9 23  1  0
  9 24  1  0
  9 25  1  0
M  END
