
     RDKit          3D

 25 25  0  0  0  0  0  0  0  0999 V2000
    2.8337   -0.1849    0.2040 C   0  0  0  0  0  0  0  0  0  0  0  0
    1.5134    0.4356    0.6266 C   0  0  0  0  0  0  0  0  0  0  0  0
    0.5230    0.1908   -0.4571 C   0  0  0  0  0  0  0  0  0  0  0  0
    0.2304   -1.2387   -0.8012 C   0  0  0  0  0  0  0  0  0  0  0  0
   -1.1969   -0.7560   -1.0904 C   0  0  0  0  0  0  0  0  0  0  0  0
   -2.1868   -1.6429   -0.8587 O   0  0  0  0  0  0  0  0  0  0  0  0
   -0.9402    0.3151   -0.0602 C   0  0  0  0  0  0  0  0  0  0  0  0
   -1.2179   -0.1136    1.3604 C   0  0  0  0  0  0  0  0  0  0  0  0
   -1.4498    1.6795   -0.3936 C   0  0  0  0  0  0  0  0  0  0  0  0
    3.6297    0.3825    0.7472 H   0  0  0  0  0  0  0  0  0  0  0  0
    2.8335   -1.2554    0.4557 H   0  0  0  0  0  0  0  0  0  0  0  0
    3.0107    0.0123   -0.8715 H   0  0  0  0  0  0  0  0  0  0  0  0
    1.2455    0.0166    1.6006 H   0  0  0  0  0  0  0  0  0  0  0  0
    1.6669    1.5288    0.7137 H   0  0  0  0  0  0  0  0  0  0  0  0
    0.7396    0.7939   -1.3543 H   0  0  0  0  0  0  0  0  0  0  0  0
    0.2966   -1.9127    0.0804 H   0  0  0  0  0  0  0  0  0  0  0  0
    0.7577   -1.6438   -1.6807 H   0  0  0  0  0  0  0  0  0  0  0  0
   -1.2207   -0.3421   -2.1049 H   0  0  0  0  0  0  0  0  0  0  0  0
   -2.3528   -1.9250    0.0476 H   0  0  0  0  0  0  0  0  0  0  0  0
   -2.2711   -0.4769    1.4822 H   0  0  0  0  0  0  0  0  0  0  0  0
   -1.1736    0.8248    1.9821 H   0  0  0  0  0  0  0  0  0  0  0  0
   -0.5693   -0.9059    1.7254 H   0  0  0  0  0  0  0  0  0  0  0  0
   -0.6797    2.3303   -0.8841 H   0  0  0  0  0  0  0  0  0  0  0  0
   -1.6917    2.2035    0.5759 H   0  0  0  0  0  0  0  0  0  0  0  0
   -2.3299    1.6842   -1.0451 H   0  0  0  0  0  0  0  0  0  0  0  0
  1  2  1  0
  2  3  1  0
  3  4  1  0
  4  5  1  0
  5  6  1  0
  5  7  1  0
  7  8  1  0
  7  9  1  0
  7  3  1  0
  1 10  1  0
  1 11  1  0
  1 12  1  0
  2 13  1  0
  2 14  1  0
  3 15  1  0
  4 16  1  0
  4 17  1  0
  5 18  1  0
  6 19  1  0
  8 20  1  0
  8 21  1  0
  8 22  1  0
  9 23  1  0
  9 24  1  0
  9 25  1  0
M  END
