
     RDKit          3D

 21 23  0  0  0  0  0  0  0  0999 V2000
    2.8286    0.1614   -0.1749 C   0  0  0  0  0  0  0  0  0  0  0  0
    1.6154   -0.7776   -0.0756 C   0  0  0  0  0  0  0  0  0  0  0  0
    0.5518   -0.0181    0.6371 C   0  0  0  0  0  0  0  0  0  0  0  0
   -0.7574   -0.6761    0.8878 C   0  0  0  0  0  0  0  0  0  0  0  0
   -1.3075    0.7184    1.0242 C   0  0  0  0  0  0  0  0  0  0  0  0
   -2.6666    0.6020    0.4922 C   0  0  0  0  0  0  0  0  0  0  0  0
   -2.4978   -0.1561   -0.6201 C   0  0  0  0  0  0  0  0  0  0  0  0
   -1.0502   -0.4809   -0.5659 C   0  0  0  0  0  0  0  0  0  0  0  0
   -0.3965    0.8031   -0.1682 C   0  0  0  0  0  0  0  0  0  0  0  0
    2.4643    1.0377   -0.7548 H   0  0  0  0  0  0  0  0  0  0  0  0
    3.0557    0.4538    0.8755 H   0  0  0  0  0  0  0  0  0  0  0  0
    3.6892   -0.3339   -0.6193 H   0  0  0  0  0  0  0  0  0  0  0  0
    1.3801   -1.0483   -1.1044 H   0  0  0  0  0  0  0  0  0  0  0  0
    1.9344   -1.7004    0.4555 H   0  0  0  0  0  0  0  0  0  0  0  0
    0.8918    0.5215    1.5632 H   0  0  0  0  0  0  0  0  0  0  0  0
   -0.9709   -1.4657    1.4606 H   0  0  0  0  0  0  0  0  0  0  0  0
   -1.0982    1.2862    1.8958 H   0  0  0  0  0  0  0  0  0  0  0  0
   -3.5680    1.0200    0.8945 H   0  0  0  0  0  0  0  0  0  0  0  0
   -3.2577   -0.4336   -1.3440 H   0  0  0  0  0  0  0  0  0  0  0  0
   -0.6308   -1.1200   -1.3000 H   0  0  0  0  0  0  0  0  0  0  0  0
   -0.2095    1.6066   -0.7337 H   0  0  0  0  0  0  0  0  0  0  0  0
  1  2  1  0
  2  3  1  0
  3  4  1  0
  4  5  1  0
  5  6  1  0
  6  7  2  0
  7  8  1  0
  8  9  1  0
  9  3  1  0
  8  4  1  0
  9  5  1  0
  1 10  1  0
  1 11  1  0
  1 12  1  0
  2 13  1  0
  2 14  1  0
  3 15  1  0
  4 16  1  0
  5 17  1  0
  6 18  1  0
  7 19  1  0
  8 20  1  0
  9 21  1  0
M  END
