
     RDKit          3D

 19 21  0  0  0  0  0  0  0  0999 V2000
    2.2923    0.9039    0.1114 C   0  0  0  0  0  0  0  0  0  0  0  0
    1.2000    0.2743   -0.7596 C   0  0  0  0  0  0  0  0  0  0  0  0
    0.2439   -0.4117    0.1662 C   0  0  0  0  0  0  0  0  0  0  0  0
    0.7112   -1.4252    0.9855 O   0  0  0  0  0  0  0  0  0  0  0  0
   -0.1909   -1.7843    0.0226 C   0  0  0  0  0  0  0  0  0  0  0  0
   -1.6301   -1.3326    0.2630 C   0  0  0  0  0  0  0  0  0  0  0  0
   -1.1502    0.0564    0.2161 C   0  0  0  0  0  0  0  0  0  0  0  0
   -1.7342    1.2624    0.4245 C   0  0  0  0  0  0  0  0  0  0  0  0
   -1.5332    0.7901   -0.9803 O   0  0  0  0  0  0  0  0  0  0  0  0
    2.7861    1.7366   -0.3886 H   0  0  0  0  0  0  0  0  0  0  0  0
    3.0370    0.1198    0.3730 H   0  0  0  0  0  0  0  0  0  0  0  0
    1.7797    1.2411    1.0520 H   0  0  0  0  0  0  0  0  0  0  0  0
    0.6721    1.1189   -1.2488 H   0  0  0  0  0  0  0  0  0  0  0  0
    1.6827   -0.4128   -1.4816 H   0  0  0  0  0  0  0  0  0  0  0  0
    0.0379   -2.4639   -0.7877 H   0  0  0  0  0  0  0  0  0  0  0  0
   -2.3441   -1.6458   -0.5126 H   0  0  0  0  0  0  0  0  0  0  0  0
   -1.9090   -1.6257    1.3121 H   0  0  0  0  0  0  0  0  0  0  0  0
   -1.1510    2.2013    0.5593 H   0  0  0  0  0  0  0  0  0  0  0  0
   -2.8003    1.3973    0.6734 H   0  0  0  0  0  0  0  0  0  0  0  0
  1  2  1  0
  2  3  1  0
  3  4  1  0
  4  5  1  0
  5  6  1  0
  6  7  1  0
  7  8  1  0
  8  9  1  0
  5  3  1  0
  9  7  1  0
  7  3  1  0
  1 10  1  0
  1 11  1  0
  1 12  1  0
  2 13  1  0
  2 14  1  0
  5 15  1  0
  6 16  1  0
  6 17  1  0
  8 18  1  0
  8 19  1  0
M  END
