
     RDKit          3D

 23 24  0  0  0  0  0  0  0  0999 V2000
    2.4124    0.2577   -0.1250 C   0  0  0  0  0  0  0  0  0  0  0  0
    1.2677   -0.2261    0.7422 C   0  0  0  0  0  0  0  0  0  0  0  0
   -0.0028   -0.3102    0.0855 C   0  0  0  0  0  0  0  0  0  0  0  0
   -0.1508   -1.2318   -1.1335 C   0  0  0  0  0  0  0  0  0  0  0  0
   -1.6377   -1.0772   -0.7662 C   0  0  0  0  0  0  0  0  0  0  0  0
   -1.1199   -1.1443    0.6813 C   0  0  0  0  0  0  0  0  0  0  0  0
   -1.9319    0.2546   -0.8806 O   0  0  0  0  0  0  0  0  0  0  0  0
   -0.7403    0.8720   -0.4205 C   0  0  0  0  0  0  0  0  0  0  0  0
   -1.0146    1.9206    0.6104 C   0  0  0  0  0  0  0  0  0  0  0  0
    3.4077   -0.0481    0.3063 H   0  0  0  0  0  0  0  0  0  0  0  0
    2.3798    1.3635   -0.2284 H   0  0  0  0  0  0  0  0  0  0  0  0
    2.3200   -0.2521   -1.1199 H   0  0  0  0  0  0  0  0  0  0  0  0
    1.2151    0.4734    1.6011 H   0  0  0  0  0  0  0  0  0  0  0  0
    1.5587   -1.2404    1.1340 H   0  0  0  0  0  0  0  0  0  0  0  0
    0.0975   -0.7312   -2.0794 H   0  0  0  0  0  0  0  0  0  0  0  0
    0.1941   -2.2504   -0.9894 H   0  0  0  0  0  0  0  0  0  0  0  0
   -2.3022   -1.8365   -1.0834 H   0  0  0  0  0  0  0  0  0  0  0  0
   -1.7723   -0.6242    1.3851 H   0  0  0  0  0  0  0  0  0  0  0  0
   -0.7737   -2.1320    0.9841 H   0  0  0  0  0  0  0  0  0  0  0  0
   -0.2485    1.2751   -1.3299 H   0  0  0  0  0  0  0  0  0  0  0  0
   -2.0880    2.1604    0.7380 H   0  0  0  0  0  0  0  0  0  0  0  0
   -0.5592    1.6727    1.6079 H   0  0  0  0  0  0  0  0  0  0  0  0
   -0.5110    2.8542    0.2804 H   0  0  0  0  0  0  0  0  0  0  0  0
  1  2  1  0
  2  3  1  0
  3  4  1  0
  4  5  1  0
  5  6  1  0
  5  7  1  0
  7  8  1  0
  8  9  1  0
  6  3  1  0
  8  3  1  0
  1 10  1  0
  1 11  1  0
  1 12  1  0
  2 13  1  0
  2 14  1  0
  4 15  1  0
  4 16  1  0
  5 17  1  0
  6 18  1  0
  6 19  1  0
  8 20  1  0
  9 21  1  0
  9 22  1  0
  9 23  1  0
M  END
