
     RDKit          3D

 24 24  0  0  0  0  0  0  0  0999 V2000
    1.9138    1.0043    1.1657 C   0  0  0  0  0  0  0  0  0  0  0  0
    1.4853    0.6541   -0.2396 C   0  0  0  0  0  0  0  0  0  0  0  0
    0.4026   -0.3899   -0.2797 C   0  0  0  0  0  0  0  0  0  0  0  0
    0.7918   -1.7029    0.3537 C   0  0  0  0  0  0  0  0  0  0  0  0
   -0.3408   -0.4183   -1.6018 C   0  0  0  0  0  0  0  0  0  0  0  0
   -1.0067    0.0034   -0.3438 C   0  0  0  0  0  0  0  0  0  0  0  0
   -1.3042    1.4694   -0.0925 C   0  0  0  0  0  0  0  0  0  0  0  0
   -2.1130   -0.9100    0.1315 C   0  0  0  0  0  0  0  0  0  0  0  0
    1.0610    1.2676    1.8256 H   0  0  0  0  0  0  0  0  0  0  0  0
    2.5400    1.9199    1.0822 H   0  0  0  0  0  0  0  0  0  0  0  0
    2.5609    0.2184    1.6061 H   0  0  0  0  0  0  0  0  0  0  0  0
    2.4066    0.2271   -0.7371 H   0  0  0  0  0  0  0  0  0  0  0  0
    1.2510    1.5679   -0.7885 H   0  0  0  0  0  0  0  0  0  0  0  0
    1.4838   -2.2904   -0.3077 H   0  0  0  0  0  0  0  0  0  0  0  0
    1.2760   -1.4610    1.3248 H   0  0  0  0  0  0  0  0  0  0  0  0
   -0.0575   -2.3594    0.5733 H   0  0  0  0  0  0  0  0  0  0  0  0
   -0.1635    0.3792   -2.3452 H   0  0  0  0  0  0  0  0  0  0  0  0
   -0.5866   -1.3895   -2.0434 H   0  0  0  0  0  0  0  0  0  0  0  0
   -1.1626    1.6465    1.0086 H   0  0  0  0  0  0  0  0  0  0  0  0
   -2.4022    1.6823   -0.2557 H   0  0  0  0  0  0  0  0  0  0  0  0
   -0.7017    2.1482   -0.7016 H   0  0  0  0  0  0  0  0  0  0  0  0
   -2.3534   -0.7017    1.1992 H   0  0  0  0  0  0  0  0  0  0  0  0
   -3.0370   -0.6025   -0.4401 H   0  0  0  0  0  0  0  0  0  0  0  0
   -1.9440   -1.9626   -0.0940 H   0  0  0  0  0  0  0  0  0  0  0  0
  1  2  1  0
  2  3  1  0
  3  4  1  0
  3  5  1  0
  5  6  1  0
  6  7  1  0
  6  8  1  0
  6  3  1  0
  1  9  1  0
  1 10  1  0
  1 11  1  0
  2 12  1  0
  2 13  1  0
  4 14  1  0
  4 15  1  0
  4 16  1  0
  5 17  1  0
  5 18  1  0
  7 19  1  0
  7 20  1  0
  7 21  1  0
  8 22  1  0
  8 23  1  0
  8 24  1  0
M  END
