
     RDKit          3D

 20 20  0  0  0  0  0  0  0  0999 V2000
    2.7999    0.3959    0.2574 C   0  0  0  0  0  0  0  0  0  0  0  0
    1.6658   -0.5206    0.6005 C   0  0  0  0  0  0  0  0  0  0  0  0
    0.3246    0.1249    0.3820 C   0  0  0  0  0  0  0  0  0  0  0  0
   -0.8210   -0.7998    0.7283 C   0  0  0  0  0  0  0  0  0  0  0  0
   -1.9650   -0.0419    0.0858 C   0  0  0  0  0  0  0  0  0  0  0  0
   -2.9365   -0.8980   -0.4139 O   0  0  0  0  0  0  0  0  0  0  0  0
   -1.2681    0.7420   -0.9867 C   0  0  0  0  0  0  0  0  0  0  0  0
    0.0691    0.3876   -0.9611 O   0  0  0  0  0  0  0  0  0  0  0  0
    2.5691    1.4553    0.4855 H   0  0  0  0  0  0  0  0  0  0  0  0
    3.6654    0.1207    0.9180 H   0  0  0  0  0  0  0  0  0  0  0  0
    3.1236    0.2494   -0.7930 H   0  0  0  0  0  0  0  0  0  0  0  0
    1.7452   -1.4643    0.0408 H   0  0  0  0  0  0  0  0  0  0  0  0
    1.7356   -0.7634    1.6829 H   0  0  0  0  0  0  0  0  0  0  0  0
    0.2261    1.0497    0.9528 H   0  0  0  0  0  0  0  0  0  0  0  0
   -0.9544   -0.9179    1.8178 H   0  0  0  0  0  0  0  0  0  0  0  0
   -0.7362   -1.7695    0.1985 H   0  0  0  0  0  0  0  0  0  0  0  0
   -2.4267    0.6483    0.8412 H   0  0  0  0  0  0  0  0  0  0  0  0
   -3.7614   -0.3447   -0.5234 H   0  0  0  0  0  0  0  0  0  0  0  0
   -1.3221    1.8365   -0.8241 H   0  0  0  0  0  0  0  0  0  0  0  0
   -1.7329    0.5097   -1.9717 H   0  0  0  0  0  0  0  0  0  0  0  0
  1  2  1  0
  2  3  1  0
  3  4  1  0
  4  5  1  0
  5  6  1  0
  5  7  1  0
  7  8  1  0
  8  3  1  0
  1  9  1  0
  1 10  1  0
  1 11  1  0
  2 12  1  0
  2 13  1  0
  3 14  1  0
  4 15  1  0
  4 16  1  0
  5 17  1  0
  6 18  1  0
  7 19  1  0
  7 20  1  0
M  END
