
     RDKit          3D

 23 23  0  0  0  0  0  0  0  0999 V2000
   -2.8259    0.8735    0.2138 C   0  0  0  0  0  0  0  0  0  0  0  0
   -2.0477   -0.0309    1.1197 C   0  0  0  0  0  0  0  0  0  0  0  0
   -0.7052   -0.3740    0.5657 C   0  0  0  0  0  0  0  0  0  0  0  0
   -0.3474   -1.6280    0.3117 C   0  0  0  0  0  0  0  0  0  0  0  0
    0.9862   -1.9676   -0.2386 C   0  0  0  0  0  0  0  0  0  0  0  0
    1.9742   -1.1055    0.0403 O   0  0  0  0  0  0  0  0  0  0  0  0
    1.7151    0.1511    0.4148 C   0  0  0  0  0  0  0  0  0  0  0  0
    2.6325    1.1112   -0.3491 C   0  0  0  0  0  0  0  0  0  0  0  0
    0.3190    0.6536    0.2611 C   0  0  0  0  0  0  0  0  0  0  0  0
   -2.9017    0.4875   -0.8240 H   0  0  0  0  0  0  0  0  0  0  0  0
   -3.8799    0.8879    0.5985 H   0  0  0  0  0  0  0  0  0  0  0  0
   -2.4776    1.9247    0.2459 H   0  0  0  0  0  0  0  0  0  0  0  0
   -1.8528    0.5565    2.0646 H   0  0  0  0  0  0  0  0  0  0  0  0
   -2.6438   -0.9096    1.3414 H   0  0  0  0  0  0  0  0  0  0  0  0
   -1.0649   -2.4152    0.5190 H   0  0  0  0  0  0  0  0  0  0  0  0
    1.2452   -2.9737    0.1574 H   0  0  0  0  0  0  0  0  0  0  0  0
    0.9093   -2.1074   -1.3545 H   0  0  0  0  0  0  0  0  0  0  0  0
    1.9932    0.2739    1.5010 H   0  0  0  0  0  0  0  0  0  0  0  0
    2.0743    1.6767   -1.1216 H   0  0  0  0  0  0  0  0  0  0  0  0
    3.1013    1.8469    0.3205 H   0  0  0  0  0  0  0  0  0  0  0  0
    3.4223    0.5462   -0.9054 H   0  0  0  0  0  0  0  0  0  0  0  0
    0.1859    0.9434   -0.8134 H   0  0  0  0  0  0  0  0  0  0  0  0
    0.1887    1.5787    0.8675 H   0  0  0  0  0  0  0  0  0  0  0  0
  1  2  1  0
  2  3  1  0
  3  4  2  0
  4  5  1  0
  5  6  1  0
  6  7  1  0
  7  8  1  0
  7  9  1  0
  9  3  1  0
  1 10  1  0
  1 11  1  0
  1 12  1  0
  2 13  1  0
  2 14  1  0
  4 15  1  0
  5 16  1  0
  5 17  1  0
  7 18  1  0
  8 19  1  0
  8 20  1  0
  8 21  1  0
  9 22  1  0
  9 23  1  0
M  END
