
     RDKit          3D

 21 21  0  0  0  0  0  0  0  0999 V2000
    2.4949   -0.1231   -0.1449 C   0  0  0  0  0  0  0  0  0  0  0  0
    1.3035   -0.8139    0.5018 C   0  0  0  0  0  0  0  0  0  0  0  0
    0.0852    0.0850    0.3308 C   0  0  0  0  0  0  0  0  0  0  0  0
    0.2204    1.4094    0.9435 C   0  0  0  0  0  0  0  0  0  0  0  0
   -0.7170    2.2138    0.8591 O   0  0  0  0  0  0  0  0  0  0  0  0
   -1.2216   -0.5578    0.0953 C   0  0  0  0  0  0  0  0  0  0  0  0
   -2.5117    0.0281    0.5534 C   0  0  0  0  0  0  0  0  0  0  0  0
   -0.5454    0.0824   -1.0479 C   0  0  0  0  0  0  0  0  0  0  0  0
    0.0854   -0.6921   -2.0060 O   0  0  0  0  0  0  0  0  0  0  0  0
    3.4239   -0.6821    0.0537 H   0  0  0  0  0  0  0  0  0  0  0  0
    2.3243   -0.0751   -1.2424 H   0  0  0  0  0  0  0  0  0  0  0  0
    2.5220    0.9062    0.2552 H   0  0  0  0  0  0  0  0  0  0  0  0
    1.5494   -0.9335    1.5727 H   0  0  0  0  0  0  0  0  0  0  0  0
    1.0778   -1.7566   -0.0174 H   0  0  0  0  0  0  0  0  0  0  0  0
    1.1019    1.7256    1.4700 H   0  0  0  0  0  0  0  0  0  0  0  0
   -1.2099   -1.6811    0.1033 H   0  0  0  0  0  0  0  0  0  0  0  0
   -3.3460   -0.5940    0.1181 H   0  0  0  0  0  0  0  0  0  0  0  0
   -2.6640   -0.0490    1.6607 H   0  0  0  0  0  0  0  0  0  0  0  0
   -2.6725    1.0735    0.2645 H   0  0  0  0  0  0  0  0  0  0  0  0
   -0.9124    1.0612   -1.4546 H   0  0  0  0  0  0  0  0  0  0  0  0
   -0.3882   -0.6269   -2.8688 H   0  0  0  0  0  0  0  0  0  0  0  0
  1  2  1  0
  2  3  1  0
  3  4  1  0
  4  5  2  0
  3  6  1  0
  6  7  1  0
  6  8  1  0
  8  9  1  0
  8  3  1  0
  1 10  1  0
  1 11  1  0
  1 12  1  0
  2 13  1  0
  2 14  1  0
  4 15  1  0
  6 16  1  0
  7 17  1  0
  7 18  1  0
  7 19  1  0
  8 20  1  0
  9 21  1  0
M  END
