
     RDKit          3D

 21 22  0  0  0  0  0  0  0  0999 V2000
    2.5055    0.3032    0.4255 C   0  0  0  0  0  0  0  0  0  0  0  0
    1.3822    0.4695   -0.5613 C   0  0  0  0  0  0  0  0  0  0  0  0
    0.1338   -0.2460   -0.0950 C   0  0  0  0  0  0  0  0  0  0  0  0
   -0.4594    0.1870    1.2264 C   0  0  0  0  0  0  0  0  0  0  0  0
   -1.6769    0.8922    0.7902 C   0  0  0  0  0  0  0  0  0  0  0  0
   -2.1131    1.9054    1.2569 O   0  0  0  0  0  0  0  0  0  0  0  0
   -2.2465    0.1138   -0.3216 C   0  0  0  0  0  0  0  0  0  0  0  0
   -1.0180   -0.3354   -1.0723 C   0  0  0  0  0  0  0  0  0  0  0  0
   -0.2677   -1.5415   -0.6579 C   0  0  0  0  0  0  0  0  0  0  0  0
    2.7926   -0.7747    0.5114 H   0  0  0  0  0  0  0  0  0  0  0  0
    3.3888    0.8417   -0.0048 H   0  0  0  0  0  0  0  0  0  0  0  0
    2.2148    0.7448    1.3890 H   0  0  0  0  0  0  0  0  0  0  0  0
    1.1242    1.5474   -0.6218 H   0  0  0  0  0  0  0  0  0  0  0  0
    1.7225    0.1147   -1.5357 H   0  0  0  0  0  0  0  0  0  0  0  0
   -0.7431   -0.7277    1.8056 H   0  0  0  0  0  0  0  0  0  0  0  0
    0.2220    0.8261    1.8185 H   0  0  0  0  0  0  0  0  0  0  0  0
   -2.8123   -0.7616    0.0825 H   0  0  0  0  0  0  0  0  0  0  0  0
   -2.9064    0.7170   -0.9749 H   0  0  0  0  0  0  0  0  0  0  0  0
   -0.9108    0.0194   -2.0948 H   0  0  0  0  0  0  0  0  0  0  0  0
   -0.6906   -2.2740    0.0642 H   0  0  0  0  0  0  0  0  0  0  0  0
    0.3584   -2.0213   -1.4303 H   0  0  0  0  0  0  0  0  0  0  0  0
  1  2  1  0
  2  3  1  0
  3  4  1  0
  4  5  1  0
  5  6  2  0
  5  7  1  0
  7  8  1  0
  8  9  1  0
  8  3  1  0
  9  3  1  0
  1 10  1  0
  1 11  1  0
  1 12  1  0
  2 13  1  0
  2 14  1  0
  4 15  1  0
  4 16  1  0
  7 17  1  0
  7 18  1  0
  8 19  1  0
  9 20  1  0
  9 21  1  0
M  END
