
     RDKit          3D

 22 22  0  0  0  0  0  0  0  0999 V2000
    2.4042    0.3059   -0.1842 C   0  0  0  0  0  0  0  0  0  0  0  0
    1.3864   -0.6209    0.3731 C   0  0  0  0  0  0  0  0  0  0  0  0
    0.0879   -0.5624   -0.3549 C   0  0  0  0  0  0  0  0  0  0  0  0
   -0.8320   -1.6156    0.3354 C   0  0  0  0  0  0  0  0  0  0  0  0
   -2.1820   -1.0204    0.0616 C   0  0  0  0  0  0  0  0  0  0  0  0
   -1.9832    0.4249    0.0789 C   0  0  0  0  0  0  0  0  0  0  0  0
   -0.6820    0.6992   -0.1596 C   0  0  0  0  0  0  0  0  0  0  0  0
   -0.1077    2.0804   -0.2227 C   0  0  0  0  0  0  0  0  0  0  0  0
    2.7736    1.0181    0.6085 H   0  0  0  0  0  0  0  0  0  0  0  0
    2.0926    0.9257   -1.0345 H   0  0  0  0  0  0  0  0  0  0  0  0
    3.2848   -0.3246   -0.5102 H   0  0  0  0  0  0  0  0  0  0  0  0
    1.7527   -1.6865    0.4281 H   0  0  0  0  0  0  0  0  0  0  0  0
    1.1888   -0.3838    1.4642 H   0  0  0  0  0  0  0  0  0  0  0  0
    0.1476   -0.8181   -1.4137 H   0  0  0  0  0  0  0  0  0  0  0  0
   -0.6640   -2.5905   -0.1487 H   0  0  0  0  0  0  0  0  0  0  0  0
   -0.5813   -1.6693    1.4148 H   0  0  0  0  0  0  0  0  0  0  0  0
   -2.4853   -1.3525   -0.9723 H   0  0  0  0  0  0  0  0  0  0  0  0
   -2.9603   -1.3851    0.7604 H   0  0  0  0  0  0  0  0  0  0  0  0
   -2.6958    1.2405    0.2464 H   0  0  0  0  0  0  0  0  0  0  0  0
    0.7449    2.1933    0.4596 H   0  0  0  0  0  0  0  0  0  0  0  0
    0.2047    2.3048   -1.2481 H   0  0  0  0  0  0  0  0  0  0  0  0
   -0.8946    2.8368    0.0178 H   0  0  0  0  0  0  0  0  0  0  0  0
  1  2  1  0
  2  3  1  0
  3  4  1  0
  4  5  1  0
  5  6  1  0
  6  7  2  0
  7  8  1  0
  7  3  1  0
  1  9  1  0
  1 10  1  0
  1 11  1  0
  2 12  1  0
  2 13  1  0
  3 14  1  0
  4 15  1  0
  4 16  1  0
  5 17  1  0
  5 18  1  0
  6 19  1  0
  8 20  1  0
  8 21  1  0
  8 22  1  0
M  END
