
     RDKit          3D

 25 26  0  0  0  0  0  0  0  0999 V2000
    3.1798   -0.4040    0.4114 C   0  0  0  0  0  0  0  0  0  0  0  0
    2.2156    0.6671   -0.0481 C   0  0  0  0  0  0  0  0  0  0  0  0
    0.8114    0.4039    0.3657 C   0  0  0  0  0  0  0  0  0  0  0  0
    0.0677   -0.8040   -0.0461 C   0  0  0  0  0  0  0  0  0  0  0  0
   -0.9956   -1.3679    0.8171 C   0  0  0  0  0  0  0  0  0  0  0  0
   -2.3510   -0.7810    0.6140 C   0  0  0  0  0  0  0  0  0  0  0  0
   -2.2218    0.7252    0.6802 C   0  0  0  0  0  0  0  0  0  0  0  0
   -1.4324    1.1777   -0.4976 C   0  0  0  0  0  0  0  0  0  0  0  0
   -0.1950    0.4079   -0.7744 C   0  0  0  0  0  0  0  0  0  0  0  0
    4.0081    0.0090    1.0189 H   0  0  0  0  0  0  0  0  0  0  0  0
    2.6547   -1.2353    0.9150 H   0  0  0  0  0  0  0  0  0  0  0  0
    3.6461   -0.8439   -0.5050 H   0  0  0  0  0  0  0  0  0  0  0  0
    2.2767    0.8631   -1.1221 H   0  0  0  0  0  0  0  0  0  0  0  0
    2.5430    1.6229    0.4590 H   0  0  0  0  0  0  0  0  0  0  0  0
    0.5112    0.8351    1.3422 H   0  0  0  0  0  0  0  0  0  0  0  0
    0.6990   -1.5842   -0.5594 H   0  0  0  0  0  0  0  0  0  0  0  0
   -0.7433   -1.2498    1.9126 H   0  0  0  0  0  0  0  0  0  0  0  0
   -1.1005   -2.4856    0.6941 H   0  0  0  0  0  0  0  0  0  0  0  0
   -2.6667   -1.0195   -0.4393 H   0  0  0  0  0  0  0  0  0  0  0  0
   -3.0515   -1.1674    1.3536 H   0  0  0  0  0  0  0  0  0  0  0  0
   -3.1865    1.2452    0.6845 H   0  0  0  0  0  0  0  0  0  0  0  0
   -1.6649    0.9936    1.6079 H   0  0  0  0  0  0  0  0  0  0  0  0
   -1.1291    2.2461   -0.3028 H   0  0  0  0  0  0  0  0  0  0  0  0
   -2.0601    1.2457   -1.4314 H   0  0  0  0  0  0  0  0  0  0  0  0
    0.1852    0.4999   -1.8123 H   0  0  0  0  0  0  0  0  0  0  0  0
  1  2  1  0
  2  3  1  0
  3  4  1  0
  4  5  1  0
  5  6  1  0
  6  7  1  0
  7  8  1  0
  8  9  1  0
  9  3  1  0
  9  4  1  0
  1 10  1  0
  1 11  1  0
  1 12  1  0
  2 13  1  0
  2 14  1  0
  3 15  1  0
  4 16  1  0
  5 17  1  0
  5 18  1  0
  6 19  1  0
  6 20  1  0
  7 21  1  0
  7 22  1  0
  8 23  1  0
  8 24  1  0
  9 25  1  0
M  END
