
     RDKit          3D

 19 21  0  0  0  0  0  0  0  0999 V2000
    2.2831    0.2203    0.4375 C   0  0  0  0  0  0  0  0  0  0  0  0
    1.3187   -0.6744   -0.2596 C   0  0  0  0  0  0  0  0  0  0  0  0
   -0.0494   -0.1469   -0.3995 C   0  0  0  0  0  0  0  0  0  0  0  0
   -1.0642   -1.0100   -1.0961 C   0  0  0  0  0  0  0  0  0  0  0  0
   -2.2800   -0.4156   -0.8408 O   0  0  0  0  0  0  0  0  0  0  0  0
   -2.1713    0.3821    0.2940 C   0  0  0  0  0  0  0  0  0  0  0  0
   -1.1254    1.4628    0.1656 C   0  0  0  0  0  0  0  0  0  0  0  0
   -0.1312    1.2145   -0.7727 O   0  0  0  0  0  0  0  0  0  0  0  0
   -0.8107    0.2194    0.8303 C   0  0  0  0  0  0  0  0  0  0  0  0
    3.1711    0.4724   -0.2001 H   0  0  0  0  0  0  0  0  0  0  0  0
    2.7144   -0.2476    1.3538 H   0  0  0  0  0  0  0  0  0  0  0  0
    1.8483    1.2149    0.7156 H   0  0  0  0  0  0  0  0  0  0  0  0
    1.2665   -1.6336    0.3235 H   0  0  0  0  0  0  0  0  0  0  0  0
    1.7217   -0.8771   -1.2796 H   0  0  0  0  0  0  0  0  0  0  0  0
   -1.0684   -1.9980   -0.5595 H   0  0  0  0  0  0  0  0  0  0  0  0
   -0.8705   -1.1234   -2.1787 H   0  0  0  0  0  0  0  0  0  0  0  0
   -3.0348    0.5130    0.9394 H   0  0  0  0  0  0  0  0  0  0  0  0
   -1.1990    2.4003    0.6969 H   0  0  0  0  0  0  0  0  0  0  0  0
   -0.5189    0.0271    1.8300 H   0  0  0  0  0  0  0  0  0  0  0  0
  1  2  1  0
  2  3  1  0
  3  4  1  0
  4  5  1  0
  5  6  1  0
  6  7  1  0
  7  8  1  0
  7  9  1  0
  8  3  1  0
  9  3  1  0
  9  6  1  0
  1 10  1  0
  1 11  1  0
  1 12  1  0
  2 13  1  0
  2 14  1  0
  4 15  1  0
  4 16  1  0
  6 17  1  0
  7 18  1  0
  9 19  1  0
M  END
