
     RDKit          3D

 27 27  0  0  0  0  0  0  0  0999 V2000
    3.0010   -0.1841    0.4902 C   0  0  0  0  0  0  0  0  0  0  0  0
    1.7361    0.6049    0.1305 C   0  0  0  0  0  0  0  0  0  0  0  0
    0.8648   -0.2336   -0.7733 C   0  0  0  0  0  0  0  0  0  0  0  0
    0.4234   -1.5275   -0.1539 C   0  0  0  0  0  0  0  0  0  0  0  0
   -0.5460   -1.3735    0.9758 C   0  0  0  0  0  0  0  0  0  0  0  0
   -1.7344   -0.5345    0.5863 C   0  0  0  0  0  0  0  0  0  0  0  0
   -1.2269    0.8036    0.0401 C   0  0  0  0  0  0  0  0  0  0  0  0
   -2.4052    1.6768   -0.3563 C   0  0  0  0  0  0  0  0  0  0  0  0
   -0.3848    0.5144   -1.1602 C   0  0  0  0  0  0  0  0  0  0  0  0
    3.9166    0.4029    0.2803 H   0  0  0  0  0  0  0  0  0  0  0  0
    3.0420   -1.1321   -0.0846 H   0  0  0  0  0  0  0  0  0  0  0  0
    2.9787   -0.3794    1.5803 H   0  0  0  0  0  0  0  0  0  0  0  0
    1.2513    0.9583    1.0333 H   0  0  0  0  0  0  0  0  0  0  0  0
    2.0781    1.4713   -0.4724 H   0  0  0  0  0  0  0  0  0  0  0  0
    1.4230   -0.5072   -1.6987 H   0  0  0  0  0  0  0  0  0  0  0  0
    1.2679   -2.1658    0.1594 H   0  0  0  0  0  0  0  0  0  0  0  0
   -0.1245   -2.0828   -0.9685 H   0  0  0  0  0  0  0  0  0  0  0  0
   -0.9187   -2.3800    1.2399 H   0  0  0  0  0  0  0  0  0  0  0  0
   -0.0938   -0.9254    1.8826 H   0  0  0  0  0  0  0  0  0  0  0  0
   -2.3012   -0.2887    1.5114 H   0  0  0  0  0  0  0  0  0  0  0  0
   -2.3632   -1.0160   -0.1807 H   0  0  0  0  0  0  0  0  0  0  0  0
   -0.7225    1.2998    0.8736 H   0  0  0  0  0  0  0  0  0  0  0  0
   -2.6474    1.5705   -1.4355 H   0  0  0  0  0  0  0  0  0  0  0  0
   -3.3202    1.4428    0.2083 H   0  0  0  0  0  0  0  0  0  0  0  0
   -2.1360    2.7538   -0.1887 H   0  0  0  0  0  0  0  0  0  0  0  0
   -0.9749   -0.1901   -1.7996 H   0  0  0  0  0  0  0  0  0  0  0  0
   -0.0832    1.4215   -1.7196 H   0  0  0  0  0  0  0  0  0  0  0  0
  1  2  1  0
  2  3  1  0
  3  4  1  0
  4  5  1  0
  5  6  1  0
  6  7  1  0
  7  8  1  0
  7  9  1  0
  9  3  1  0
  1 10  1  0
  1 11  1  0
  1 12  1  0
  2 13  1  0
  2 14  1  0
  3 15  1  0
  4 16  1  0
  4 17  1  0
  5 18  1  0
  5 19  1  0
  6 20  1  0
  6 21  1  0
  7 22  1  0
  8 23  1  0
  8 24  1  0
  8 25  1  0
  9 26  1  0
  9 27  1  0
M  END
