
     RDKit          3D

 21 21  0  0  0  0  0  0  0  0999 V2000
    2.6494    0.1118    0.2617 C   0  0  0  0  0  0  0  0  0  0  0  0
    1.5107   -0.7683   -0.2065 C   0  0  0  0  0  0  0  0  0  0  0  0
    0.3827    0.0728   -0.8060 C   0  0  0  0  0  0  0  0  0  0  0  0
   -0.1557    1.0286    0.2011 C   0  0  0  0  0  0  0  0  0  0  0  0
   -1.6257    1.1138    0.2290 C   0  0  0  0  0  0  0  0  0  0  0  0
   -2.1571    2.1024    0.6476 O   0  0  0  0  0  0  0  0  0  0  0  0
   -2.4686   -0.0154   -0.2573 C   0  0  0  0  0  0  0  0  0  0  0  0
   -1.5022   -1.1941   -0.4057 C   0  0  0  0  0  0  0  0  0  0  0  0
   -0.5437   -0.8004   -1.3251 O   0  0  0  0  0  0  0  0  0  0  0  0
    3.6105   -0.2950   -0.1143 H   0  0  0  0  0  0  0  0  0  0  0  0
    2.6772    0.1413    1.3724 H   0  0  0  0  0  0  0  0  0  0  0  0
    2.5576    1.1464   -0.1195 H   0  0  0  0  0  0  0  0  0  0  0  0
    1.0640   -1.3052    0.6595 H   0  0  0  0  0  0  0  0  0  0  0  0
    1.8830   -1.5109   -0.9360 H   0  0  0  0  0  0  0  0  0  0  0  0
    0.7815    0.6715   -1.6763 H   0  0  0  0  0  0  0  0  0  0  0  0
    0.2273    0.7830    1.2251 H   0  0  0  0  0  0  0  0  0  0  0  0
    0.2271    2.0695    0.0061 H   0  0  0  0  0  0  0  0  0  0  0  0
   -3.2883   -0.2707    0.4348 H   0  0  0  0  0  0  0  0  0  0  0  0
   -2.8515    0.3056   -1.2696 H   0  0  0  0  0  0  0  0  0  0  0  0
   -0.9742   -1.2629    0.5878 H   0  0  0  0  0  0  0  0  0  0  0  0
   -2.0039   -2.1239   -0.6537 H   0  0  0  0  0  0  0  0  0  0  0  0
  1  2  1  0
  2  3  1  0
  3  4  1  0
  4  5  1  0
  5  6  2  0
  5  7  1  0
  7  8  1  0
  8  9  1  0
  9  3  1  0
  1 10  1  0
  1 11  1  0
  1 12  1  0
  2 13  1  0
  2 14  1  0
  3 15  1  0
  4 16  1  0
  4 17  1  0
  7 18  1  0
  7 19  1  0
  8 20  1  0
  8 21  1  0
M  END
