
     RDKit          3D

 23 23  0  0  0  0  0  0  0  0999 V2000
    2.8256    0.2221   -0.4368 C   0  0  0  0  0  0  0  0  0  0  0  0
    2.1043   -1.0704   -0.2013 C   0  0  0  0  0  0  0  0  0  0  0  0
    0.6676   -0.8550    0.2475 C   0  0  0  0  0  0  0  0  0  0  0  0
    0.5683   -0.1471    1.4172 O   0  0  0  0  0  0  0  0  0  0  0  0
   -0.4460    0.7963    1.2632 C   0  0  0  0  0  0  0  0  0  0  0  0
   -1.1561    0.2758    0.0311 C   0  0  0  0  0  0  0  0  0  0  0  0
   -1.9364    1.3419   -0.6847 C   0  0  0  0  0  0  0  0  0  0  0  0
   -2.0824   -0.8678    0.3435 C   0  0  0  0  0  0  0  0  0  0  0  0
   -0.0650   -0.1853   -0.7283 O   0  0  0  0  0  0  0  0  0  0  0  0
    2.1912    0.8871   -1.0568 H   0  0  0  0  0  0  0  0  0  0  0  0
    3.0249    0.7516    0.5273 H   0  0  0  0  0  0  0  0  0  0  0  0
    3.7899   -0.0240   -0.9325 H   0  0  0  0  0  0  0  0  0  0  0  0
    2.0546   -1.6306   -1.1600 H   0  0  0  0  0  0  0  0  0  0  0  0
    2.6750   -1.6620    0.5269 H   0  0  0  0  0  0  0  0  0  0  0  0
    0.2414   -1.8769    0.4028 H   0  0  0  0  0  0  0  0  0  0  0  0
   -1.1041    0.8879    2.1257 H   0  0  0  0  0  0  0  0  0  0  0  0
    0.0456    1.7547    0.9613 H   0  0  0  0  0  0  0  0  0  0  0  0
   -2.8567    0.9147   -1.1592 H   0  0  0  0  0  0  0  0  0  0  0  0
   -2.3295    2.0579    0.0947 H   0  0  0  0  0  0  0  0  0  0  0  0
   -1.3330    1.9432   -1.3852 H   0  0  0  0  0  0  0  0  0  0  0  0
   -2.0998   -1.5254   -0.5621 H   0  0  0  0  0  0  0  0  0  0  0  0
   -3.0722   -0.4818    0.6158 H   0  0  0  0  0  0  0  0  0  0  0  0
   -1.7071   -1.5069    1.1762 H   0  0  0  0  0  0  0  0  0  0  0  0
  1  2  1  0
  2  3  1  0
  3  4  1  0
  4  5  1  0
  5  6  1  0
  6  7  1  0
  6  8  1  0
  6  9  1  0
  9  3  1  0
  1 10  1  0
  1 11  1  0
  1 12  1  0
  2 13  1  0
  2 14  1  0
  3 15  1  0
  5 16  1  0
  5 17  1  0
  7 18  1  0
  7 19  1  0
  7 20  1  0
  8 21  1  0
  8 22  1  0
  8 23  1  0
M  END
