
     RDKit          3D

 22 22  0  0  0  0  0  0  0  0999 V2000
    2.6302    0.6357    0.2723 C   0  0  0  0  0  0  0  0  0  0  0  0
    1.6466   -0.2602   -0.3847 C   0  0  0  0  0  0  0  0  0  0  0  0
    0.3705   -0.4684    0.3708 C   0  0  0  0  0  0  0  0  0  0  0  0
   -0.4161    0.7522    0.6362 C   0  0  0  0  0  0  0  0  0  0  0  0
   -1.6031    0.8958   -0.3123 C   0  0  0  0  0  0  0  0  0  0  0  0
   -2.4622   -0.3325   -0.3063 C   0  0  0  0  0  0  0  0  0  0  0  0
   -1.7782   -1.4790    0.0581 O   0  0  0  0  0  0  0  0  0  0  0  0
   -0.4913   -1.4259   -0.4519 C   0  0  0  0  0  0  0  0  0  0  0  0
    2.7090    0.5032    1.3709 H   0  0  0  0  0  0  0  0  0  0  0  0
    2.4515    1.7144    0.0397 H   0  0  0  0  0  0  0  0  0  0  0  0
    3.6360    0.4088   -0.1405 H   0  0  0  0  0  0  0  0  0  0  0  0
    1.4140    0.1832   -1.3966 H   0  0  0  0  0  0  0  0  0  0  0  0
    2.1515   -1.2216   -0.6105 H   0  0  0  0  0  0  0  0  0  0  0  0
    0.6322   -1.0462    1.3001 H   0  0  0  0  0  0  0  0  0  0  0  0
    0.1368    1.6980    0.6283 H   0  0  0  0  0  0  0  0  0  0  0  0
   -0.8651    0.6675    1.6645 H   0  0  0  0  0  0  0  0  0  0  0  0
   -2.1918    1.7609    0.0860 H   0  0  0  0  0  0  0  0  0  0  0  0
   -1.2765    1.1959   -1.3302 H   0  0  0  0  0  0  0  0  0  0  0  0
   -3.3261   -0.1840    0.3815 H   0  0  0  0  0  0  0  0  0  0  0  0
   -2.9037   -0.5208   -1.3061 H   0  0  0  0  0  0  0  0  0  0  0  0
   -0.0050   -2.4209   -0.4156 H   0  0  0  0  0  0  0  0  0  0  0  0
   -0.4593   -1.0562   -1.5080 H   0  0  0  0  0  0  0  0  0  0  0  0
  1  2  1  0
  2  3  1  0
  3  4  1  0
  4  5  1  0
  5  6  1  0
  6  7  1  0
  7  8  1  0
  8  3  1  0
  1  9  1  0
  1 10  1  0
  1 11  1  0
  2 12  1  0
  2 13  1  0
  3 14  1  0
  4 15  1  0
  4 16  1  0
  5 17  1  0
  5 18  1  0
  6 19  1  0
  6 20  1  0
  8 21  1  0
  8 22  1  0
M  END
