
     RDKit          3D

 23 23  0  0  0  0  0  0  0  0999 V2000
   -1.8969   -0.1518    1.0101 C   0  0  0  0  0  0  0  0  0  0  0  0
   -1.7447    0.1717   -0.4255 C   0  0  0  0  0  0  0  0  0  0  0  0
   -0.3449    0.0703   -0.9577 C   0  0  0  0  0  0  0  0  0  0  0  0
    0.2016   -1.3264   -0.7992 C   0  0  0  0  0  0  0  0  0  0  0  0
    1.0316   -1.4905    0.4035 C   0  0  0  0  0  0  0  0  0  0  0  0
    1.8923   -0.5305    0.7232 C   0  0  0  0  0  0  0  0  0  0  0  0
    1.9402    0.6521   -0.1856 C   0  0  0  0  0  0  0  0  0  0  0  0
    0.5136    1.1247   -0.3416 C   0  0  0  0  0  0  0  0  0  0  0  0
    0.0697    1.5287    0.9102 O   0  0  0  0  0  0  0  0  0  0  0  0
   -2.0839    0.7525    1.6324 H   0  0  0  0  0  0  0  0  0  0  0  0
   -2.8280   -0.7731    1.1241 H   0  0  0  0  0  0  0  0  0  0  0  0
   -1.0848   -0.7441    1.4506 H   0  0  0  0  0  0  0  0  0  0  0  0
   -2.0832    1.2343   -0.5767 H   0  0  0  0  0  0  0  0  0  0  0  0
   -2.3943   -0.4419   -1.0630 H   0  0  0  0  0  0  0  0  0  0  0  0
   -0.4009    0.2781   -2.0471 H   0  0  0  0  0  0  0  0  0  0  0  0
   -0.5531   -2.1044   -0.8275 H   0  0  0  0  0  0  0  0  0  0  0  0
    0.8944   -1.5092   -1.6738 H   0  0  0  0  0  0  0  0  0  0  0  0
    0.9223   -2.3850    0.9958 H   0  0  0  0  0  0  0  0  0  0  0  0
    2.5162   -0.6233    1.6020 H   0  0  0  0  0  0  0  0  0  0  0  0
    2.3773    0.3216   -1.1576 H   0  0  0  0  0  0  0  0  0  0  0  0
    2.5721    1.4223    0.2429 H   0  0  0  0  0  0  0  0  0  0  0  0
    0.5208    2.0154   -0.9993 H   0  0  0  0  0  0  0  0  0  0  0  0
   -0.0372    2.5086    0.9600 H   0  0  0  0  0  0  0  0  0  0  0  0
  1  2  1  0
  2  3  1  0
  3  4  1  0
  4  5  1  0
  5  6  2  0
  6  7  1  0
  7  8  1  0
  8  9  1  0
  8  3  1  0
  1 10  1  0
  1 11  1  0
  1 12  1  0
  2 13  1  0
  2 14  1  0
  3 15  1  0
  4 16  1  0
  4 17  1  0
  5 18  1  0
  6 19  1  0
  7 20  1  0
  7 21  1  0
  8 22  1  0
  9 23  1  0
M  END
