
     RDKit          3D

 23 23  0  0  0  0  0  0  0  0999 V2000
    1.6420    1.6132   -0.0792 C   0  0  0  0  0  0  0  0  0  0  0  0
    1.4306    0.1925   -0.5745 C   0  0  0  0  0  0  0  0  0  0  0  0
    0.4628   -0.5691    0.2749 C   0  0  0  0  0  0  0  0  0  0  0  0
    0.8715   -0.6804    1.5971 O   0  0  0  0  0  0  0  0  0  0  0  0
    0.1120   -1.8892   -0.3954 C   0  0  0  0  0  0  0  0  0  0  0  0
   -1.2461   -1.6753   -0.2133 O   0  0  0  0  0  0  0  0  0  0  0  0
   -0.9860   -0.3143    0.0624 C   0  0  0  0  0  0  0  0  0  0  0  0
   -1.3678    0.5747   -1.0734 C   0  0  0  0  0  0  0  0  0  0  0  0
   -1.7790    0.0444    1.3167 C   0  0  0  0  0  0  0  0  0  0  0  0
    2.7401    1.8337    0.0649 H   0  0  0  0  0  0  0  0  0  0  0  0
    1.0772    1.7513    0.8675 H   0  0  0  0  0  0  0  0  0  0  0  0
    1.2952    2.3628   -0.8217 H   0  0  0  0  0  0  0  0  0  0  0  0
    1.1603    0.1681   -1.6363 H   0  0  0  0  0  0  0  0  0  0  0  0
    2.4316   -0.3262   -0.5040 H   0  0  0  0  0  0  0  0  0  0  0  0
    1.7533   -1.1137    1.6662 H   0  0  0  0  0  0  0  0  0  0  0  0
    0.3290   -1.9108   -1.4894 H   0  0  0  0  0  0  0  0  0  0  0  0
    0.5464   -2.7607    0.0875 H   0  0  0  0  0  0  0  0  0  0  0  0
   -1.0882    1.6091   -0.8103 H   0  0  0  0  0  0  0  0  0  0  0  0
   -2.4821    0.5574   -1.1538 H   0  0  0  0  0  0  0  0  0  0  0  0
   -0.8927    0.2007   -1.9879 H   0  0  0  0  0  0  0  0  0  0  0  0
   -2.7965   -0.3940    1.1583 H   0  0  0  0  0  0  0  0  0  0  0  0
   -1.8661    1.1431    1.4255 H   0  0  0  0  0  0  0  0  0  0  0  0
   -1.3474   -0.4172    2.2182 H   0  0  0  0  0  0  0  0  0  0  0  0
  1  2  1  0
  2  3  1  0
  3  4  1  0
  3  5  1  0
  5  6  1  0
  6  7  1  0
  7  8  1  0
  7  9  1  0
  7  3  1  0
  1 10  1  0
  1 11  1  0
  1 12  1  0
  2 13  1  0
  2 14  1  0
  4 15  1  0
  5 16  1  0
  5 17  1  0
  8 18  1  0
  8 19  1  0
  8 20  1  0
  9 21  1  0
  9 22  1  0
  9 23  1  0
M  END
