
     RDKit          3D

 21 22  0  0  0  0  0  0  0  0999 V2000
    1.8813    1.5520    0.2098 C   0  0  0  0  0  0  0  0  0  0  0  0
    1.5820    0.1526   -0.2273 C   0  0  0  0  0  0  0  0  0  0  0  0
    0.1505   -0.1751   -0.3690 C   0  0  0  0  0  0  0  0  0  0  0  0
   -0.6285    0.5444   -1.2699 O   0  0  0  0  0  0  0  0  0  0  0  0
   -1.6914    1.0505   -0.4892 C   0  0  0  0  0  0  0  0  0  0  0  0
   -2.1149   -0.2403    0.2264 C   0  0  0  0  0  0  0  0  0  0  0  0
   -0.7222   -0.7458    0.6302 C   0  0  0  0  0  0  0  0  0  0  0  0
   -0.1256   -1.7083   -0.3414 C   0  0  0  0  0  0  0  0  0  0  0  0
    0.8695   -2.5164    0.1673 O   0  0  0  0  0  0  0  0  0  0  0  0
    2.8742    1.8463   -0.2396 H   0  0  0  0  0  0  0  0  0  0  0  0
    2.0240    1.6582    1.3054 H   0  0  0  0  0  0  0  0  0  0  0  0
    1.1609    2.2983   -0.2013 H   0  0  0  0  0  0  0  0  0  0  0  0
    2.0548   -0.5659    0.4714 H   0  0  0  0  0  0  0  0  0  0  0  0
    2.0809   -0.0265   -1.2195 H   0  0  0  0  0  0  0  0  0  0  0  0
   -1.3184    1.7585    0.2830 H   0  0  0  0  0  0  0  0  0  0  0  0
   -2.4871    1.4527   -1.1184 H   0  0  0  0  0  0  0  0  0  0  0  0
   -2.5599   -0.8774   -0.5579 H   0  0  0  0  0  0  0  0  0  0  0  0
   -2.7522   -0.0508    1.0853 H   0  0  0  0  0  0  0  0  0  0  0  0
   -0.5175   -0.8835    1.6869 H   0  0  0  0  0  0  0  0  0  0  0  0
   -0.6963   -2.0831   -1.2035 H   0  0  0  0  0  0  0  0  0  0  0  0
    0.9360   -2.4405    1.1713 H   0  0  0  0  0  0  0  0  0  0  0  0
  1  2  1  0
  2  3  1  0
  3  4  1  0
  4  5  1  0
  5  6  1  0
  6  7  1  0
  7  8  1  0
  8  9  1  0
  7  3  1  0
  8  3  1  0
  1 10  1  0
  1 11  1  0
  1 12  1  0
  2 13  1  0
  2 14  1  0
  5 15  1  0
  5 16  1  0
  6 17  1  0
  6 18  1  0
  7 19  1  0
  8 20  1  0
  9 21  1  0
M  END
