
     RDKit          3D

 21 22  0  0  0  0  0  0  0  0999 V2000
    2.2803    0.7016   -0.4401 C   0  0  0  0  0  0  0  0  0  0  0  0
    1.5612   -0.3842    0.2753 C   0  0  0  0  0  0  0  0  0  0  0  0
    0.0935   -0.4283    0.0405 C   0  0  0  0  0  0  0  0  0  0  0  0
   -0.7178   -1.4975    0.7259 C   0  0  0  0  0  0  0  0  0  0  0  0
   -2.0498   -0.8684    0.9601 C   0  0  0  0  0  0  0  0  0  0  0  0
   -2.0716    0.3660    0.5311 C   0  0  0  0  0  0  0  0  0  0  0  0
   -0.7654    0.7573   -0.0550 C   0  0  0  0  0  0  0  0  0  0  0  0
   -0.3229    2.0477    0.0299 O   0  0  0  0  0  0  0  0  0  0  0  0
   -0.4099   -0.0119   -1.3173 C   0  0  0  0  0  0  0  0  0  0  0  0
    3.3769    0.5859   -0.1949 H   0  0  0  0  0  0  0  0  0  0  0  0
    1.9862    1.7023   -0.0377 H   0  0  0  0  0  0  0  0  0  0  0  0
    2.2117    0.6283   -1.5303 H   0  0  0  0  0  0  0  0  0  0  0  0
    1.7411   -0.2559    1.3768 H   0  0  0  0  0  0  0  0  0  0  0  0
    1.9920   -1.3732    0.0199 H   0  0  0  0  0  0  0  0  0  0  0  0
   -0.2364   -1.7736    1.6832 H   0  0  0  0  0  0  0  0  0  0  0  0
   -0.8275   -2.3484    0.0264 H   0  0  0  0  0  0  0  0  0  0  0  0
   -2.8824   -1.3798    1.4263 H   0  0  0  0  0  0  0  0  0  0  0  0
   -2.9235    1.0278    0.5892 H   0  0  0  0  0  0  0  0  0  0  0  0
   -1.0652    2.6447   -0.2922 H   0  0  0  0  0  0  0  0  0  0  0  0
    0.2389    0.5050   -2.0268 H   0  0  0  0  0  0  0  0  0  0  0  0
   -1.2093   -0.6454   -1.7901 H   0  0  0  0  0  0  0  0  0  0  0  0
  1  2  1  0
  2  3  1  0
  3  4  1  0
  4  5  1  0
  5  6  2  0
  6  7  1  0
  7  8  1  0
  7  9  1  0
  7  3  1  0
  9  3  1  0
  1 10  1  0
  1 11  1  0
  1 12  1  0
  2 13  1  0
  2 14  1  0
  4 15  1  0
  4 16  1  0
  5 17  1  0
  6 18  1  0
  8 19  1  0
  9 20  1  0
  9 21  1  0
M  END
