
     RDKit          3D

 21 22  0  0  0  0  0  0  0  0999 V2000
    2.9244    0.2598   -0.2692 C   0  0  0  0  0  0  0  0  0  0  0  0
    1.9233   -0.5157    0.5827 C   0  0  0  0  0  0  0  0  0  0  0  0
    0.5676   -0.0964    0.2124 C   0  0  0  0  0  0  0  0  0  0  0  0
   -0.3401    0.4593    1.0172 C   0  0  0  0  0  0  0  0  0  0  0  0
   -1.5214    0.7091    0.2302 C   0  0  0  0  0  0  0  0  0  0  0  0
   -2.6334    0.0070   -0.2374 C   0  0  0  0  0  0  0  0  0  0  0  0
   -3.5021   -0.5343    0.7412 O   0  0  0  0  0  0  0  0  0  0  0  0
   -1.4411   -0.6318   -0.5752 C   0  0  0  0  0  0  0  0  0  0  0  0
   -0.1121   -0.2404   -1.1470 C   0  0  0  0  0  0  0  0  0  0  0  0
    3.5479   -0.4931   -0.7907 H   0  0  0  0  0  0  0  0  0  0  0  0
    2.3890    0.8414   -1.0522 H   0  0  0  0  0  0  0  0  0  0  0  0
    3.5093    0.9796    0.3134 H   0  0  0  0  0  0  0  0  0  0  0  0
    2.0846   -1.6087    0.5192 H   0  0  0  0  0  0  0  0  0  0  0  0
    2.1202   -0.2112    1.6291 H   0  0  0  0  0  0  0  0  0  0  0  0
   -0.2307    0.6914    2.0797 H   0  0  0  0  0  0  0  0  0  0  0  0
   -1.3154    1.6615   -0.3690 H   0  0  0  0  0  0  0  0  0  0  0  0
   -3.2727    0.4124   -1.0725 H   0  0  0  0  0  0  0  0  0  0  0  0
   -3.6329    0.1374    1.4821 H   0  0  0  0  0  0  0  0  0  0  0  0
   -1.2513   -1.5713    0.0384 H   0  0  0  0  0  0  0  0  0  0  0  0
    0.3624   -1.0106   -1.7457 H   0  0  0  0  0  0  0  0  0  0  0  0
   -0.1753    0.7546   -1.5866 H   0  0  0  0  0  0  0  0  0  0  0  0
  1  2  1  0
  2  3  1  0
  3  4  2  0
  4  5  1  0
  5  6  1  0
  6  7  1  0
  6  8  1  0
  8  9  1  0
  9  3  1  0
  8  5  1  0
  1 10  1  0
  1 11  1  0
  1 12  1  0
  2 13  1  0
  2 14  1  0
  4 15  1  0
  5 16  1  0
  6 17  1  0
  7 18  1  0
  8 19  1  0
  9 20  1  0
  9 21  1  0
M  END
