
     RDKit          3D

 25 26  0  0  0  0  0  0  0  0999 V2000
    2.6280   -0.4494   -0.5683 C   0  0  0  0  0  0  0  0  0  0  0  0
    1.7206   -0.0615    0.5720 C   0  0  0  0  0  0  0  0  0  0  0  0
    0.5170    0.6151    0.0120 C   0  0  0  0  0  0  0  0  0  0  0  0
   -0.2630   -0.2921   -0.9462 C   0  0  0  0  0  0  0  0  0  0  0  0
   -1.4606    0.6080   -1.1900 C   0  0  0  0  0  0  0  0  0  0  0  0
   -1.6799    1.3552    0.1365 C   0  0  0  0  0  0  0  0  0  0  0  0
   -0.6216    0.7241    1.0386 C   0  0  0  0  0  0  0  0  0  0  0  0
   -1.0560   -0.6908    1.2706 C   0  0  0  0  0  0  0  0  0  0  0  0
   -0.6976   -1.3874   -0.0246 C   0  0  0  0  0  0  0  0  0  0  0  0
    2.7296   -1.5529   -0.6543 H   0  0  0  0  0  0  0  0  0  0  0  0
    3.6634   -0.0426   -0.4392 H   0  0  0  0  0  0  0  0  0  0  0  0
    2.2599   -0.0604   -1.5521 H   0  0  0  0  0  0  0  0  0  0  0  0
    1.4106   -0.9183    1.1743 H   0  0  0  0  0  0  0  0  0  0  0  0
    2.2674    0.6731    1.1872 H   0  0  0  0  0  0  0  0  0  0  0  0
    0.6805    1.6052   -0.4113 H   0  0  0  0  0  0  0  0  0  0  0  0
    0.2800   -0.5764   -1.8190 H   0  0  0  0  0  0  0  0  0  0  0  0
   -1.1385    1.3441   -1.9627 H   0  0  0  0  0  0  0  0  0  0  0  0
   -2.3558    0.0433   -1.4734 H   0  0  0  0  0  0  0  0  0  0  0  0
   -2.6954    1.2135    0.5163 H   0  0  0  0  0  0  0  0  0  0  0  0
   -1.3867    2.4280    0.0287 H   0  0  0  0  0  0  0  0  0  0  0  0
   -0.3715    1.3006    1.9016 H   0  0  0  0  0  0  0  0  0  0  0  0
   -0.6484   -1.1637    2.1583 H   0  0  0  0  0  0  0  0  0  0  0  0
   -2.1766   -0.6763    1.3958 H   0  0  0  0  0  0  0  0  0  0  0  0
   -1.6286   -1.8423   -0.4564 H   0  0  0  0  0  0  0  0  0  0  0  0
    0.0231   -2.1961    0.1056 H   0  0  0  0  0  0  0  0  0  0  0  0
  1  2  1  0
  2  3  1  0
  3  4  1  0
  4  5  1  0
  5  6  1  0
  6  7  1  0
  7  8  1  0
  8  9  1  0
  7  3  1  0
  9  4  1  0
  1 10  1  0
  1 11  1  0
  1 12  1  0
  2 13  1  0
  2 14  1  0
  3 15  1  0
  4 16  1  0
  5 17  1  0
  5 18  1  0
  6 19  1  0
  6 20  1  0
  7 21  1  0
  8 22  1  0
  8 23  1  0
  9 24  1  0
  9 25  1  0
M  END
