
     RDKit          3D

 22 22  0  0  0  0  0  0  0  0999 V2000
   -2.9832    0.2980    0.3612 C   0  0  0  0  0  0  0  0  0  0  0  0
   -1.8722    0.0372   -0.5908 C   0  0  0  0  0  0  0  0  0  0  0  0
   -0.6366   -0.5378    0.0786 C   0  0  0  0  0  0  0  0  0  0  0  0
    0.4470   -0.7824   -0.9087 C   0  0  0  0  0  0  0  0  0  0  0  0
    1.5029    0.2285   -0.5514 C   0  0  0  0  0  0  0  0  0  0  0  0
    2.8383   -0.3707   -0.2653 C   0  0  0  0  0  0  0  0  0  0  0  0
    0.9428    0.9403    0.6498 C   0  0  0  0  0  0  0  0  0  0  0  0
   -0.1749    0.2818    1.0686 O   0  0  0  0  0  0  0  0  0  0  0  0
   -3.1650    1.4101    0.3971 H   0  0  0  0  0  0  0  0  0  0  0  0
   -3.9627   -0.1415    0.0485 H   0  0  0  0  0  0  0  0  0  0  0  0
   -2.7975   -0.0904    1.3893 H   0  0  0  0  0  0  0  0  0  0  0  0
   -1.5453    0.9671   -1.1261 H   0  0  0  0  0  0  0  0  0  0  0  0
   -2.2279   -0.7187   -1.3353 H   0  0  0  0  0  0  0  0  0  0  0  0
   -0.9536   -1.5390    0.4855 H   0  0  0  0  0  0  0  0  0  0  0  0
    0.8477   -1.8285   -0.8586 H   0  0  0  0  0  0  0  0  0  0  0  0
    0.0526   -0.5981   -1.9307 H   0  0  0  0  0  0  0  0  0  0  0  0
    1.5858    0.9626   -1.3765 H   0  0  0  0  0  0  0  0  0  0  0  0
    2.8421   -1.4656   -0.1587 H   0  0  0  0  0  0  0  0  0  0  0  0
    3.5917   -0.0211   -1.0251 H   0  0  0  0  0  0  0  0  0  0  0  0
    3.2037    0.0607    0.7047 H   0  0  0  0  0  0  0  0  0  0  0  0
    1.7020    0.8869    1.4644 H   0  0  0  0  0  0  0  0  0  0  0  0
    0.7623    2.0208    0.4668 H   0  0  0  0  0  0  0  0  0  0  0  0
  1  2  1  0
  2  3  1  0
  3  4  1  0
  4  5  1  0
  5  6  1  0
  5  7  1  0
  7  8  1  0
  8  3  1  0
  1  9  1  0
  1 10  1  0
  1 11  1  0
  2 12  1  0
  2 13  1  0
  3 14  1  0
  4 15  1  0
  4 16  1  0
  5 17  1  0
  6 18  1  0
  6 19  1  0
  6 20  1  0
  7 21  1  0
  7 22  1  0
M  END
