
     RDKit          3D

 21 21  0  0  0  0  0  0  0  0999 V2000
    2.3774    0.3137   -0.4852 C   0  0  0  0  0  0  0  0  0  0  0  0
    1.2488   -0.6456   -0.7073 C   0  0  0  0  0  0  0  0  0  0  0  0
    0.0074   -0.2760    0.0742 C   0  0  0  0  0  0  0  0  0  0  0  0
    0.3550   -0.2778    1.5333 C   0  0  0  0  0  0  0  0  0  0  0  0
   -0.9663   -1.2356   -0.1970 O   0  0  0  0  0  0  0  0  0  0  0  0
   -2.1801   -0.6159    0.0625 C   0  0  0  0  0  0  0  0  0  0  0  0
   -2.0203    0.7125   -0.6537 C   0  0  0  0  0  0  0  0  0  0  0  0
   -0.5891    0.9984   -0.3877 C   0  0  0  0  0  0  0  0  0  0  0  0
   -0.0531    2.0615   -0.5288 O   0  0  0  0  0  0  0  0  0  0  0  0
    2.3247    0.8193    0.5143 H   0  0  0  0  0  0  0  0  0  0  0  0
    2.4167    1.1320   -1.2374 H   0  0  0  0  0  0  0  0  0  0  0  0
    3.3768   -0.2121   -0.4789 H   0  0  0  0  0  0  0  0  0  0  0  0
    0.9542   -0.6905   -1.7714 H   0  0  0  0  0  0  0  0  0  0  0  0
    1.5665   -1.6488   -0.4015 H   0  0  0  0  0  0  0  0  0  0  0  0
    1.1126   -1.0959    1.6816 H   0  0  0  0  0  0  0  0  0  0  0  0
   -0.5244   -0.5322    2.1766 H   0  0  0  0  0  0  0  0  0  0  0  0
    0.8124    0.6431    1.8937 H   0  0  0  0  0  0  0  0  0  0  0  0
   -3.0351   -1.1880   -0.2831 H   0  0  0  0  0  0  0  0  0  0  0  0
   -2.3272   -0.3978    1.1451 H   0  0  0  0  0  0  0  0  0  0  0  0
   -2.2345    0.6199   -1.7372 H   0  0  0  0  0  0  0  0  0  0  0  0
   -2.6225    1.5157   -0.2119 H   0  0  0  0  0  0  0  0  0  0  0  0
  1  2  1  0
  2  3  1  0
  3  4  1  0
  3  5  1  0
  5  6  1  0
  6  7  1  0
  7  8  1  0
  8  9  2  0
  8  3  1  0
  1 10  1  0
  1 11  1  0
  1 12  1  0
  2 13  1  0
  2 14  1  0
  4 15  1  0
  4 16  1  0
  4 17  1  0
  6 18  1  0
  6 19  1  0
  7 20  1  0
  7 21  1  0
M  END
