
     RDKit          3D

 19 21  0  0  0  0  0  0  0  0999 V2000
    2.4211   -0.3352   -0.3205 C   0  0  0  0  0  0  0  0  0  0  0  0
    1.4904    0.7945   -0.0114 C   0  0  0  0  0  0  0  0  0  0  0  0
    0.0762    0.3936    0.1716 C   0  0  0  0  0  0  0  0  0  0  0  0
   -0.8112    1.4105    0.4582 O   0  0  0  0  0  0  0  0  0  0  0  0
   -2.0951    0.9601    0.3325 C   0  0  0  0  0  0  0  0  0  0  0  0
   -2.0196   -0.5156   -0.0712 C   0  0  0  0  0  0  0  0  0  0  0  0
   -1.5745   -1.2349    1.0376 O   0  0  0  0  0  0  0  0  0  0  0  0
   -0.2779   -0.9638    0.6587 C   0  0  0  0  0  0  0  0  0  0  0  0
   -0.6548   -0.5319   -0.6752 C   0  0  0  0  0  0  0  0  0  0  0  0
    3.2557    0.0838   -0.9363 H   0  0  0  0  0  0  0  0  0  0  0  0
    2.9183   -0.7105    0.6212 H   0  0  0  0  0  0  0  0  0  0  0  0
    1.9360   -1.1653   -0.8785 H   0  0  0  0  0  0  0  0  0  0  0  0
    1.8546    1.2645    0.9433 H   0  0  0  0  0  0  0  0  0  0  0  0
    1.5806    1.5901   -0.8062 H   0  0  0  0  0  0  0  0  0  0  0  0
   -2.6356    1.0894    1.2879 H   0  0  0  0  0  0  0  0  0  0  0  0
   -2.6839    1.4610   -0.4526 H   0  0  0  0  0  0  0  0  0  0  0  0
   -2.8531   -0.9110   -0.6203 H   0  0  0  0  0  0  0  0  0  0  0  0
    0.4657   -1.7341    0.8764 H   0  0  0  0  0  0  0  0  0  0  0  0
   -0.3929   -0.9453   -1.6153 H   0  0  0  0  0  0  0  0  0  0  0  0
  1  2  1  0
  2  3  1  0
  3  4  1  0
  4  5  1  0
  5  6  1  0
  6  7  1  0
  7  8  1  0
  8  9  1  0
  8  3  1  0
  9  3  1  0
  9  6  1  0
  1 10  1  0
  1 11  1  0
  1 12  1  0
  2 13  1  0
  2 14  1  0
  5 15  1  0
  5 16  1  0
  6 17  1  0
  8 18  1  0
  9 19  1  0
M  END
