
     RDKit          3D

 23 23  0  0  0  0  0  0  0  0999 V2000
   -2.7950    0.6700   -0.2423 C   0  0  0  0  0  0  0  0  0  0  0  0
   -1.4850    0.9937    0.3878 C   0  0  0  0  0  0  0  0  0  0  0  0
   -0.4180   -0.0315    0.1653 C   0  0  0  0  0  0  0  0  0  0  0  0
   -0.7828   -1.3905    0.7089 C   0  0  0  0  0  0  0  0  0  0  0  0
    0.0323   -0.1541   -1.2183 C   0  0  0  0  0  0  0  0  0  0  0  0
    1.3365   -0.3461   -1.1924 C   0  0  0  0  0  0  0  0  0  0  0  0
    1.7786   -0.3528    0.2525 C   0  0  0  0  0  0  0  0  0  0  0  0
    3.0429    0.4300    0.4235 C   0  0  0  0  0  0  0  0  0  0  0  0
    0.7311    0.3824    0.8359 O   0  0  0  0  0  0  0  0  0  0  0  0
   -3.3506    1.6464   -0.3652 H   0  0  0  0  0  0  0  0  0  0  0  0
   -2.7348    0.2021   -1.2342 H   0  0  0  0  0  0  0  0  0  0  0  0
   -3.4534    0.0463    0.3915 H   0  0  0  0  0  0  0  0  0  0  0  0
   -1.6396    1.0754    1.4940 H   0  0  0  0  0  0  0  0  0  0  0  0
   -1.0802    1.9751    0.0667 H   0  0  0  0  0  0  0  0  0  0  0  0
   -1.8443   -1.6575    0.5419 H   0  0  0  0  0  0  0  0  0  0  0  0
   -0.1579   -2.1391    0.1662 H   0  0  0  0  0  0  0  0  0  0  0  0
   -0.5159   -1.4757    1.7748 H   0  0  0  0  0  0  0  0  0  0  0  0
   -0.5677   -0.1011   -2.1022 H   0  0  0  0  0  0  0  0  0  0  0  0
    2.0242   -0.4806   -1.9970 H   0  0  0  0  0  0  0  0  0  0  0  0
    1.8581   -1.3609    0.6550 H   0  0  0  0  0  0  0  0  0  0  0  0
    2.9445    1.0745    1.3347 H   0  0  0  0  0  0  0  0  0  0  0  0
    3.1306    1.1695   -0.4261 H   0  0  0  0  0  0  0  0  0  0  0  0
    3.9466   -0.1754    0.5356 H   0  0  0  0  0  0  0  0  0  0  0  0
  1  2  1  0
  2  3  1  0
  3  4  1  0
  3  5  1  0
  5  6  2  0
  6  7  1  0
  7  8  1  0
  7  9  1  0
  9  3  1  0
  1 10  1  0
  1 11  1  0
  1 12  1  0
  2 13  1  0
  2 14  1  0
  4 15  1  0
  4 16  1  0
  4 17  1  0
  5 18  1  0
  6 19  1  0
  7 20  1  0
  8 21  1  0
  8 22  1  0
  8 23  1  0
M  END
