
     RDKit          3D

 21 22  0  0  0  0  0  0  0  0999 V2000
    2.4743   -0.2538    0.2113 C   0  0  0  0  0  0  0  0  0  0  0  0
    1.2179    0.2928    0.8478 C   0  0  0  0  0  0  0  0  0  0  0  0
    0.0248    0.1685   -0.0868 C   0  0  0  0  0  0  0  0  0  0  0  0
   -0.3088   -1.2233   -0.4992 C   0  0  0  0  0  0  0  0  0  0  0  0
   -1.8102   -1.2894   -0.4303 C   0  0  0  0  0  0  0  0  0  0  0  0
   -2.2869   -0.0604   -0.0714 O   0  0  0  0  0  0  0  0  0  0  0  0
   -1.2602    0.6714    0.4988 C   0  0  0  0  0  0  0  0  0  0  0  0
   -0.9438    1.9103   -0.2746 C   0  0  0  0  0  0  0  0  0  0  0  0
   -0.0676    1.1423   -1.0589 O   0  0  0  0  0  0  0  0  0  0  0  0
    2.7333   -1.2624    0.5636 H   0  0  0  0  0  0  0  0  0  0  0  0
    2.3054   -0.2372   -0.8980 H   0  0  0  0  0  0  0  0  0  0  0  0
    3.3457    0.4440    0.3720 H   0  0  0  0  0  0  0  0  0  0  0  0
    1.3635    1.3357    1.1711 H   0  0  0  0  0  0  0  0  0  0  0  0
    0.9605   -0.3102    1.7546 H   0  0  0  0  0  0  0  0  0  0  0  0
    0.1171   -1.5345   -1.4523 H   0  0  0  0  0  0  0  0  0  0  0  0
    0.0738   -1.9133    0.3089 H   0  0  0  0  0  0  0  0  0  0  0  0
   -2.1770   -2.0496    0.3048 H   0  0  0  0  0  0  0  0  0  0  0  0
   -2.2676   -1.5793   -1.4013 H   0  0  0  0  0  0  0  0  0  0  0  0
   -1.2535    0.7398    1.5899 H   0  0  0  0  0  0  0  0  0  0  0  0
   -1.8077    2.2882   -0.8496 H   0  0  0  0  0  0  0  0  0  0  0  0
   -0.4330    2.7205    0.2880 H   0  0  0  0  0  0  0  0  0  0  0  0
  1  2  1  0
  2  3  1  0
  3  4  1  0
  4  5  1  0
  5  6  1  0
  6  7  1  0
  7  8  1  0
  8  9  1  0
  7  3  1  0
  9  3  1  0
  1 10  1  0
  1 11  1  0
  1 12  1  0
  2 13  1  0
  2 14  1  0
  4 15  1  0
  4 16  1  0
  5 17  1  0
  5 18  1  0
  7 19  1  0
  8 20  1  0
  8 21  1  0
M  END
