
     RDKit          3D

 18 18  0  0  0  0  0  0  0  0999 V2000
   -2.0989    0.9545   -0.4695 C   0  0  0  0  0  0  0  0  0  0  0  0
   -1.8494   -0.4749   -0.1259 C   0  0  0  0  0  0  0  0  0  0  0  0
   -0.4096   -0.8336    0.0245 C   0  0  0  0  0  0  0  0  0  0  0  0
    0.3760   -0.6228   -1.1259 O   0  0  0  0  0  0  0  0  0  0  0  0
    1.4485   -0.5244   -0.2056 C   0  0  0  0  0  0  0  0  0  0  0  0
    2.5773    0.3392   -0.6506 C   0  0  0  0  0  0  0  0  0  0  0  0
    0.4711    0.0740    0.7251 C   0  0  0  0  0  0  0  0  0  0  0  0
    0.4872    0.8941    1.5926 O   0  0  0  0  0  0  0  0  0  0  0  0
   -3.1922    1.0582   -0.6866 H   0  0  0  0  0  0  0  0  0  0  0  0
   -1.5751    1.1954   -1.4268 H   0  0  0  0  0  0  0  0  0  0  0  0
   -1.8359    1.6615    0.3293 H   0  0  0  0  0  0  0  0  0  0  0  0
   -2.2460   -1.0902   -0.9850 H   0  0  0  0  0  0  0  0  0  0  0  0
   -2.3770   -0.7771    0.7917 H   0  0  0  0  0  0  0  0  0  0  0  0
   -0.3177   -1.9144    0.2936 H   0  0  0  0  0  0  0  0  0  0  0  0
    1.8012   -1.5238    0.1185 H   0  0  0  0  0  0  0  0  0  0  0  0
    3.4971    0.0180   -0.0850 H   0  0  0  0  0  0  0  0  0  0  0  0
    2.4006    1.3791   -0.3776 H   0  0  0  0  0  0  0  0  0  0  0  0
    2.8429    0.1872   -1.7229 H   0  0  0  0  0  0  0  0  0  0  0  0
  1  2  1  0
  2  3  1  0
  3  4  1  0
  4  5  1  0
  5  6  1  0
  5  7  1  0
  7  8  2  0
  7  3  1  0
  1  9  1  0
  1 10  1  0
  1 11  1  0
  2 12  1  0
  2 13  1  0
  3 14  1  0
  5 15  1  0
  6 16  1  0
  6 17  1  0
  6 18  1  0
M  END
