
     RDKit          3D

 23 24  0  0  0  0  0  0  0  0999 V2000
   -2.6345    0.1369   -0.7565 C   0  0  0  0  0  0  0  0  0  0  0  0
   -2.2113   -0.8326    0.2978 C   0  0  0  0  0  0  0  0  0  0  0  0
   -0.7657   -0.7875    0.6557 C   0  0  0  0  0  0  0  0  0  0  0  0
   -0.2780    0.5216    1.1818 C   0  0  0  0  0  0  0  0  0  0  0  0
    0.2243   -0.0425   -0.1194 C   0  0  0  0  0  0  0  0  0  0  0  0
   -0.1675    0.5579   -1.3086 O   0  0  0  0  0  0  0  0  0  0  0  0
    1.6907   -0.4130   -0.0955 C   0  0  0  0  0  0  0  0  0  0  0  0
    2.5955    0.4700   -0.9632 C   0  0  0  0  0  0  0  0  0  0  0  0
    2.7027    0.4340    0.5354 C   0  0  0  0  0  0  0  0  0  0  0  0
   -2.3013    1.1693   -0.6011 H   0  0  0  0  0  0  0  0  0  0  0  0
   -3.7491    0.1711   -0.7356 H   0  0  0  0  0  0  0  0  0  0  0  0
   -2.3154   -0.2260   -1.7665 H   0  0  0  0  0  0  0  0  0  0  0  0
   -2.4629   -1.8581   -0.0797 H   0  0  0  0  0  0  0  0  0  0  0  0
   -2.8649   -0.6800    1.1799 H   0  0  0  0  0  0  0  0  0  0  0  0
   -0.4148   -1.7033    1.1807 H   0  0  0  0  0  0  0  0  0  0  0  0
    0.3165    0.4875    2.0909 H   0  0  0  0  0  0  0  0  0  0  0  0
   -0.8822    1.4412    1.0602 H   0  0  0  0  0  0  0  0  0  0  0  0
    0.0455    0.0318   -2.0991 H   0  0  0  0  0  0  0  0  0  0  0  0
    1.8788   -1.4851   -0.1766 H   0  0  0  0  0  0  0  0  0  0  0  0
    2.1227    1.3459   -1.4485 H   0  0  0  0  0  0  0  0  0  0  0  0
    3.3610   -0.0434   -1.5817 H   0  0  0  0  0  0  0  0  0  0  0  0
    3.6142   -0.0797    0.9366 H   0  0  0  0  0  0  0  0  0  0  0  0
    2.4958    1.3838    1.0410 H   0  0  0  0  0  0  0  0  0  0  0  0
  1  2  1  0
  2  3  1  0
  3  4  1  0
  4  5  1  0
  5  6  1  0
  5  7  1  0
  7  8  1  0
  8  9  1  0
  5  3  1  0
  9  7  1  0
  1 10  1  0
  1 11  1  0
  1 12  1  0
  2 13  1  0
  2 14  1  0
  3 15  1  0
  4 16  1  0
  4 17  1  0
  6 18  1  0
  7 19  1  0
  8 20  1  0
  8 21  1  0
  9 22  1  0
  9 23  1  0
M  END
