
     RDKit          3D

 21 21  0  0  0  0  0  0  0  0999 V2000
    2.6191   -0.6966   -0.1812 C   0  0  0  0  0  0  0  0  0  0  0  0
    1.8410    0.4490    0.4136 C   0  0  0  0  0  0  0  0  0  0  0  0
    0.4763    0.5862   -0.2044 C   0  0  0  0  0  0  0  0  0  0  0  0
   -0.3736   -0.6436   -0.0221 C   0  0  0  0  0  0  0  0  0  0  0  0
   -1.6356   -0.1987    0.6955 C   0  0  0  0  0  0  0  0  0  0  0  0
   -2.8548   -0.3104   -0.1970 C   0  0  0  0  0  0  0  0  0  0  0  0
   -1.4599    1.1558    1.0313 O   0  0  0  0  0  0  0  0  0  0  0  0
   -0.2780    1.6342    0.5296 C   0  0  0  0  0  0  0  0  0  0  0  0
    0.1414    2.8110    0.6595 O   0  0  0  0  0  0  0  0  0  0  0  0
    3.7312   -0.5043   -0.1420 H   0  0  0  0  0  0  0  0  0  0  0  0
    2.4619   -1.6225    0.4160 H   0  0  0  0  0  0  0  0  0  0  0  0
    2.3860   -0.8487   -1.2487 H   0  0  0  0  0  0  0  0  0  0  0  0
    2.4021    1.3805    0.1564 H   0  0  0  0  0  0  0  0  0  0  0  0
    1.8256    0.3860    1.5048 H   0  0  0  0  0  0  0  0  0  0  0  0
    0.5700    0.8314   -1.2678 H   0  0  0  0  0  0  0  0  0  0  0  0
   -0.6752   -1.0718   -1.0031 H   0  0  0  0  0  0  0  0  0  0  0  0
    0.1071   -1.4293    0.5683 H   0  0  0  0  0  0  0  0  0  0  0  0
   -1.8196   -0.8107    1.6144 H   0  0  0  0  0  0  0  0  0  0  0  0
   -3.6065    0.4209    0.1070 H   0  0  0  0  0  0  0  0  0  0  0  0
   -2.5741   -0.1946   -1.2748 H   0  0  0  0  0  0  0  0  0  0  0  0
   -3.2846   -1.3236   -0.0220 H   0  0  0  0  0  0  0  0  0  0  0  0
  1  2  1  0
  2  3  1  0
  3  4  1  0
  4  5  1  0
  5  6  1  0
  5  7  1  0
  7  8  1  0
  8  9  2  0
  8  3  1  0
  1 10  1  0
  1 11  1  0
  1 12  1  0
  2 13  1  0
  2 14  1  0
  3 15  1  0
  4 16  1  0
  4 17  1  0
  5 18  1  0
  6 19  1  0
  6 20  1  0
  6 21  1  0
M  END
