
     RDKit          3D

 23 24  0  0  0  0  0  0  0  0999 V2000
    2.4191   -0.2686    0.4724 C   0  0  0  0  0  0  0  0  0  0  0  0
    1.9057    0.8443   -0.4195 C   0  0  0  0  0  0  0  0  0  0  0  0
    0.4614    0.5377   -0.7481 C   0  0  0  0  0  0  0  0  0  0  0  0
    0.2856   -0.6453   -1.3966 O   0  0  0  0  0  0  0  0  0  0  0  0
   -0.5636   -1.4554   -0.7089 C   0  0  0  0  0  0  0  0  0  0  0  0
   -0.9568   -0.8295    0.5745 C   0  0  0  0  0  0  0  0  0  0  0  0
   -2.3130   -0.1995    0.6551 C   0  0  0  0  0  0  0  0  0  0  0  0
   -1.7315    1.1260    0.2529 C   0  0  0  0  0  0  0  0  0  0  0  0
   -0.3557    0.5486    0.4932 C   0  0  0  0  0  0  0  0  0  0  0  0
    3.4682    0.0272    0.7518 H   0  0  0  0  0  0  0  0  0  0  0  0
    2.4441   -1.2110   -0.0924 H   0  0  0  0  0  0  0  0  0  0  0  0
    1.8457   -0.3269    1.4166 H   0  0  0  0  0  0  0  0  0  0  0  0
    2.0122    1.8141    0.0817 H   0  0  0  0  0  0  0  0  0  0  0  0
    2.5436    0.8705   -1.3270 H   0  0  0  0  0  0  0  0  0  0  0  0
    0.1214    1.3601   -1.4346 H   0  0  0  0  0  0  0  0  0  0  0  0
   -1.4486   -1.7927   -1.2808 H   0  0  0  0  0  0  0  0  0  0  0  0
    0.0002   -2.4037   -0.4641 H   0  0  0  0  0  0  0  0  0  0  0  0
   -0.6897   -1.4060    1.4906 H   0  0  0  0  0  0  0  0  0  0  0  0
   -3.0901   -0.6120   -0.0089 H   0  0  0  0  0  0  0  0  0  0  0  0
   -2.6525   -0.1431    1.7241 H   0  0  0  0  0  0  0  0  0  0  0  0
   -1.9165    1.3842   -0.8222 H   0  0  0  0  0  0  0  0  0  0  0  0
   -1.9194    1.9705    0.9381 H   0  0  0  0  0  0  0  0  0  0  0  0
    0.1302    0.8106    1.4325 H   0  0  0  0  0  0  0  0  0  0  0  0
  1  2  1  0
  2  3  1  0
  3  4  1  0
  4  5  1  0
  5  6  1  0
  6  7  1  0
  7  8  1  0
  8  9  1  0
  9  3  1  0
  9  6  1  0
  1 10  1  0
  1 11  1  0
  1 12  1  0
  2 13  1  0
  2 14  1  0
  3 15  1  0
  5 16  1  0
  5 17  1  0
  6 18  1  0
  7 19  1  0
  7 20  1  0
  8 21  1  0
  8 22  1  0
  9 23  1  0
M  END
