
     RDKit          3D

 23 23  0  0  0  0  0  0  0  0999 V2000
    2.7763   -0.3217   -0.1861 C   0  0  0  0  0  0  0  0  0  0  0  0
    1.7583    0.7630   -0.1536 C   0  0  0  0  0  0  0  0  0  0  0  0
    0.4220    0.2896    0.4341 C   0  0  0  0  0  0  0  0  0  0  0  0
   -0.4836    1.5238    0.3858 C   0  0  0  0  0  0  0  0  0  0  0  0
   -1.7827    1.1976    0.7570 O   0  0  0  0  0  0  0  0  0  0  0  0
   -2.3480    0.2700   -0.0847 C   0  0  0  0  0  0  0  0  0  0  0  0
   -1.5907   -1.0281    0.0664 C   0  0  0  0  0  0  0  0  0  0  0  0
   -2.2092   -2.0880   -0.5789 O   0  0  0  0  0  0  0  0  0  0  0  0
   -0.1673   -0.8147   -0.4072 C   0  0  0  0  0  0  0  0  0  0  0  0
    2.8515   -0.6834   -1.2453 H   0  0  0  0  0  0  0  0  0  0  0  0
    3.8142    0.0290    0.0622 H   0  0  0  0  0  0  0  0  0  0  0  0
    2.5237   -1.1956    0.4623 H   0  0  0  0  0  0  0  0  0  0  0  0
    1.5260    1.1870   -1.1627 H   0  0  0  0  0  0  0  0  0  0  0  0
    2.1581    1.6115    0.4385 H   0  0  0  0  0  0  0  0  0  0  0  0
    0.5259   -0.0734    1.4574 H   0  0  0  0  0  0  0  0  0  0  0  0
   -0.0671    2.2540    1.0823 H   0  0  0  0  0  0  0  0  0  0  0  0
   -0.4396    1.8862   -0.6547 H   0  0  0  0  0  0  0  0  0  0  0  0
   -3.4086    0.1246    0.2526 H   0  0  0  0  0  0  0  0  0  0  0  0
   -2.3342    0.5576   -1.1545 H   0  0  0  0  0  0  0  0  0  0  0  0
   -1.5394   -1.2691    1.1385 H   0  0  0  0  0  0  0  0  0  0  0  0
   -2.2631   -1.9734   -1.5542 H   0  0  0  0  0  0  0  0  0  0  0  0
    0.4149   -1.7376   -0.2451 H   0  0  0  0  0  0  0  0  0  0  0  0
   -0.1373   -0.5088   -1.4801 H   0  0  0  0  0  0  0  0  0  0  0  0
  1  2  1  0
  2  3  1  0
  3  4  1  0
  4  5  1  0
  5  6  1  0
  6  7  1  0
  7  8  1  0
  7  9  1  0
  9  3  1  0
  1 10  1  0
  1 11  1  0
  1 12  1  0
  2 13  1  0
  2 14  1  0
  3 15  1  0
  4 16  1  0
  4 17  1  0
  6 18  1  0
  6 19  1  0
  7 20  1  0
  8 21  1  0
  9 22  1  0
  9 23  1  0
M  END
