
     RDKit          3D

 21 22  0  0  0  0  0  0  0  0999 V2000
    1.9209   -1.1181   -0.2855 C   0  0  0  0  0  0  0  0  0  0  0  0
    0.8109   -0.9015    0.6871 C   0  0  0  0  0  0  0  0  0  0  0  0
   -0.2118    0.1139    0.2134 C   0  0  0  0  0  0  0  0  0  0  0  0
    0.3193    1.4744   -0.0444 C   0  0  0  0  0  0  0  0  0  0  0  0
    0.8890    2.0392    1.1161 O   0  0  0  0  0  0  0  0  0  0  0  0
   -1.4803   -0.0410    0.9661 C   0  0  0  0  0  0  0  0  0  0  0  0
   -2.2418    0.4101   -0.2140 C   0  0  0  0  0  0  0  0  0  0  0  0
   -1.1838   -0.4955   -0.7068 C   0  0  0  0  0  0  0  0  0  0  0  0
   -1.5363   -1.3170    0.3840 O   0  0  0  0  0  0  0  0  0  0  0  0
    2.3055   -2.1586   -0.1297 H   0  0  0  0  0  0  0  0  0  0  0  0
    2.8126   -0.4614   -0.0912 H   0  0  0  0  0  0  0  0  0  0  0  0
    1.6215   -1.0497   -1.3471 H   0  0  0  0  0  0  0  0  0  0  0  0
    1.2456   -0.4963    1.6286 H   0  0  0  0  0  0  0  0  0  0  0  0
    0.2922   -1.8758    0.8439 H   0  0  0  0  0  0  0  0  0  0  0  0
   -0.3706    2.1928   -0.4948 H   0  0  0  0  0  0  0  0  0  0  0  0
    1.2049    1.3574   -0.7421 H   0  0  0  0  0  0  0  0  0  0  0  0
    1.7784    1.6388    1.2653 H   0  0  0  0  0  0  0  0  0  0  0  0
   -1.6521    0.1461    1.9421 H   0  0  0  0  0  0  0  0  0  0  0  0
   -3.2552   -0.0792   -0.3479 H   0  0  0  0  0  0  0  0  0  0  0  0
   -2.2262    1.4700   -0.4409 H   0  0  0  0  0  0  0  0  0  0  0  0
   -1.0428   -0.8487   -1.6428 H   0  0  0  0  0  0  0  0  0  0  0  0
  1  2  1  0
  2  3  1  0
  3  4  1  0
  4  5  1  0
  3  6  1  0
  6  7  1  0
  7  8  1  0
  8  9  1  0
  8  3  1  0
  9  6  1  0
  1 10  1  0
  1 11  1  0
  1 12  1  0
  2 13  1  0
  2 14  1  0
  4 15  1  0
  4 16  1  0
  5 17  1  0
  6 18  1  0
  7 19  1  0
  7 20  1  0
  8 21  1  0
M  END
