
     RDKit          3D

 20 20  0  0  0  0  0  0  0  0999 V2000
    2.9226   -0.1398   -0.2102 C   0  0  0  0  0  0  0  0  0  0  0  0
    1.6945   -0.3418    0.6034 C   0  0  0  0  0  0  0  0  0  0  0  0
    0.4376   -0.5152   -0.2073 C   0  0  0  0  0  0  0  0  0  0  0  0
    0.1391    0.6525   -1.0706 C   0  0  0  0  0  0  0  0  0  0  0  0
   -1.1792    0.8212   -1.0500 C   0  0  0  0  0  0  0  0  0  0  0  0
   -1.7061   -0.2553   -0.1628 C   0  0  0  0  0  0  0  0  0  0  0  0
   -2.9296    0.1868    0.6021 C   0  0  0  0  0  0  0  0  0  0  0  0
   -0.6378   -0.4390    0.7094 O   0  0  0  0  0  0  0  0  0  0  0  0
    2.7468   -0.0624   -1.2968 H   0  0  0  0  0  0  0  0  0  0  0  0
    3.6279   -0.9887   -0.0630 H   0  0  0  0  0  0  0  0  0  0  0  0
    3.5004    0.7710    0.1227 H   0  0  0  0  0  0  0  0  0  0  0  0
    1.5990    0.4858    1.3340 H   0  0  0  0  0  0  0  0  0  0  0  0
    1.7905   -1.2720    1.2257 H   0  0  0  0  0  0  0  0  0  0  0  0
    0.3846   -1.4711   -0.7228 H   0  0  0  0  0  0  0  0  0  0  0  0
    0.8126    1.2847   -1.6333 H   0  0  0  0  0  0  0  0  0  0  0  0
   -1.7059    1.6014   -1.5893 H   0  0  0  0  0  0  0  0  0  0  0  0
   -1.8864   -1.1776   -0.7537 H   0  0  0  0  0  0  0  0  0  0  0  0
   -3.0012    1.2821    0.5818 H   0  0  0  0  0  0  0  0  0  0  0  0
   -2.7916   -0.1111    1.6682 H   0  0  0  0  0  0  0  0  0  0  0  0
   -3.8178   -0.3114    0.1693 H   0  0  0  0  0  0  0  0  0  0  0  0
  1  2  1  0
  2  3  1  0
  3  4  1  0
  4  5  2  0
  5  6  1  0
  6  7  1  0
  6  8  1  0
  8  3  1  0
  1  9  1  0
  1 10  1  0
  1 11  1  0
  2 12  1  0
  2 13  1  0
  3 14  1  0
  4 15  1  0
  5 16  1  0
  6 17  1  0
  7 18  1  0
  7 19  1  0
  7 20  1  0
M  END
