
     RDKit          3D

 23 24  0  0  0  0  0  0  0  0999 V2000
    2.7579    0.0740   -0.5424 C   0  0  0  0  0  0  0  0  0  0  0  0
    1.6694   -0.7167    0.1402 C   0  0  0  0  0  0  0  0  0  0  0  0
    0.5142    0.1438    0.5642 C   0  0  0  0  0  0  0  0  0  0  0  0
   -0.1313    0.8469   -0.6447 C   0  0  0  0  0  0  0  0  0  0  0  0
   -1.5500    0.4065   -0.4370 C   0  0  0  0  0  0  0  0  0  0  0  0
   -2.5327    0.8809   -1.1857 O   0  0  0  0  0  0  0  0  0  0  0  0
   -1.3794   -1.0963   -0.2867 C   0  0  0  0  0  0  0  0  0  0  0  0
   -0.6449   -0.6873    0.9973 C   0  0  0  0  0  0  0  0  0  0  0  0
   -1.7340    0.3939    1.0886 C   0  0  0  0  0  0  0  0  0  0  0  0
    3.3539   -0.6421   -1.1451 H   0  0  0  0  0  0  0  0  0  0  0  0
    2.2994    0.8236   -1.2194 H   0  0  0  0  0  0  0  0  0  0  0  0
    3.4686    0.5360    0.1768 H   0  0  0  0  0  0  0  0  0  0  0  0
    1.2936   -1.5395   -0.4655 H   0  0  0  0  0  0  0  0  0  0  0  0
    2.1103   -1.1389    1.0665 H   0  0  0  0  0  0  0  0  0  0  0  0
    0.7630    0.9266    1.2748 H   0  0  0  0  0  0  0  0  0  0  0  0
    0.2990    0.3524   -1.5438 H   0  0  0  0  0  0  0  0  0  0  0  0
    0.0233    1.9218   -0.6171 H   0  0  0  0  0  0  0  0  0  0  0  0
   -2.8533    1.7601   -0.8301 H   0  0  0  0  0  0  0  0  0  0  0  0
   -2.3029   -1.6438   -0.0444 H   0  0  0  0  0  0  0  0  0  0  0  0
   -0.7349   -1.5466   -1.0497 H   0  0  0  0  0  0  0  0  0  0  0  0
   -0.5763   -1.3886    1.7803 H   0  0  0  0  0  0  0  0  0  0  0  0
   -1.3978    1.3219    1.5509 H   0  0  0  0  0  0  0  0  0  0  0  0
   -2.7150    0.0115    1.3723 H   0  0  0  0  0  0  0  0  0  0  0  0
  1  2  1  0
  2  3  1  0
  3  4  1  0
  4  5  1  0
  5  6  1  0
  5  7  1  0
  7  8  1  0
  8  9  1  0
  8  3  1  0
  9  5  1  0
  1 10  1  0
  1 11  1  0
  1 12  1  0
  2 13  1  0
  2 14  1  0
  3 15  1  0
  4 16  1  0
  4 17  1  0
  6 18  1  0
  7 19  1  0
  7 20  1  0
  8 21  1  0
  9 22  1  0
  9 23  1  0
M  END
