
     RDKit          3D

 23 23  0  0  0  0  0  0  0  0999 V2000
   -2.0838   -1.6770    0.4461 C   0  0  0  0  0  0  0  0  0  0  0  0
   -0.6368   -1.3475    0.4797 C   0  0  0  0  0  0  0  0  0  0  0  0
   -0.3319    0.1092    0.2089 C   0  0  0  0  0  0  0  0  0  0  0  0
    1.1503    0.4176    0.2492 C   0  0  0  0  0  0  0  0  0  0  0  0
    1.8477   -0.3241   -0.7060 O   0  0  0  0  0  0  0  0  0  0  0  0
    3.1952   -0.0687   -0.6968 C   0  0  0  0  0  0  0  0  0  0  0  0
   -1.1969    1.1742    0.8118 C   0  0  0  0  0  0  0  0  0  0  0  0
   -1.1873    0.9196   -0.6827 C   0  0  0  0  0  0  0  0  0  0  0  0
   -0.5857    1.9009   -1.4996 O   0  0  0  0  0  0  0  0  0  0  0  0
   -2.3378   -2.2438    1.3834 H   0  0  0  0  0  0  0  0  0  0  0  0
   -2.2556   -2.4319   -0.3770 H   0  0  0  0  0  0  0  0  0  0  0  0
   -2.7559   -0.8256    0.2811 H   0  0  0  0  0  0  0  0  0  0  0  0
   -0.1831   -1.5850    1.4687 H   0  0  0  0  0  0  0  0  0  0  0  0
   -0.0304   -1.9335   -0.2643 H   0  0  0  0  0  0  0  0  0  0  0  0
    1.5186    0.1073    1.2565 H   0  0  0  0  0  0  0  0  0  0  0  0
    1.3671    1.4766    0.0936 H   0  0  0  0  0  0  0  0  0  0  0  0
    3.6977   -0.2914    0.2580 H   0  0  0  0  0  0  0  0  0  0  0  0
    3.6809   -0.6182   -1.5255 H   0  0  0  0  0  0  0  0  0  0  0  0
    3.3235    1.0192   -0.9514 H   0  0  0  0  0  0  0  0  0  0  0  0
   -2.1093    0.8697    1.3896 H   0  0  0  0  0  0  0  0  0  0  0  0
   -0.7558    2.1421    1.1121 H   0  0  0  0  0  0  0  0  0  0  0  0
   -2.1314    0.5548   -1.0874 H   0  0  0  0  0  0  0  0  0  0  0  0
   -1.1991    2.6555   -1.6479 H   0  0  0  0  0  0  0  0  0  0  0  0
  1  2  1  0
  2  3  1  0
  3  4  1  0
  4  5  1  0
  5  6  1  0
  3  7  1  0
  7  8  1  0
  8  9  1  0
  8  3  1  0
  1 10  1  0
  1 11  1  0
  1 12  1  0
  2 13  1  0
  2 14  1  0
  4 15  1  0
  4 16  1  0
  6 17  1  0
  6 18  1  0
  6 19  1  0
  7 20  1  0
  7 21  1  0
  8 22  1  0
  9 23  1  0
M  END
