
     RDKit          3D

 18 18  0  0  0  0  0  0  0  0999 V2000
   -1.9888   -0.4072   -0.4000 C   0  0  0  0  0  0  0  0  0  0  0  0
   -0.9295    0.6048   -0.2547 C   0  0  0  0  0  0  0  0  0  0  0  0
    0.4284    0.1195    0.0852 C   0  0  0  0  0  0  0  0  0  0  0  0
    1.4070    1.2708    0.2008 C   0  0  0  0  0  0  0  0  0  0  0  0
    0.6238   -0.9336    1.0838 C   0  0  0  0  0  0  0  0  0  0  0  0
    0.7355   -1.9410    0.0892 O   0  0  0  0  0  0  0  0  0  0  0  0
    0.9919   -0.9126   -0.8242 C   0  0  0  0  0  0  0  0  0  0  0  0
    1.5176   -0.9807   -1.9708 O   0  0  0  0  0  0  0  0  0  0  0  0
   -2.9790    0.0528   -0.1158 H   0  0  0  0  0  0  0  0  0  0  0  0
   -1.8865   -1.3119    0.2112 H   0  0  0  0  0  0  0  0  0  0  0  0
   -2.1281   -0.7410   -1.4525 H   0  0  0  0  0  0  0  0  0  0  0  0
   -1.2223    1.3737    0.4906 H   0  0  0  0  0  0  0  0  0  0  0  0
   -0.8502    1.1718   -1.2298 H   0  0  0  0  0  0  0  0  0  0  0  0
    2.4594    0.9131    0.1170 H   0  0  0  0  0  0  0  0  0  0  0  0
    1.1594    1.9784   -0.6150 H   0  0  0  0  0  0  0  0  0  0  0  0
    1.2028    1.7570    1.1770 H   0  0  0  0  0  0  0  0  0  0  0  0
    1.6108   -0.8355    1.6090 H   0  0  0  0  0  0  0  0  0  0  0  0
   -0.1522   -1.1784    1.7991 H   0  0  0  0  0  0  0  0  0  0  0  0
  1  2  1  0
  2  3  1  0
  3  4  1  0
  3  5  1  0
  5  6  1  0
  6  7  1  0
  7  8  2  0
  7  3  1  0
  1  9  1  0
  1 10  1  0
  1 11  1  0
  2 12  1  0
  2 13  1  0
  4 14  1  0
  4 15  1  0
  4 16  1  0
  5 17  1  0
  5 18  1  0
M  END
