
     RDKit          3D

 25 26  0  0  0  0  0  0  0  0999 V2000
    2.6354    0.0391   -0.4183 C   0  0  0  0  0  0  0  0  0  0  0  0
    1.5400    0.3389    0.5533 C   0  0  0  0  0  0  0  0  0  0  0  0
    0.2259   -0.2819    0.2123 C   0  0  0  0  0  0  0  0  0  0  0  0
    0.2832   -1.8118    0.1440 C   0  0  0  0  0  0  0  0  0  0  0  0
   -0.1062   -0.9540   -1.0209 C   0  0  0  0  0  0  0  0  0  0  0  0
   -1.6272   -0.8414   -1.1952 C   0  0  0  0  0  0  0  0  0  0  0  0
   -2.0629    0.2949   -0.3232 C   0  0  0  0  0  0  0  0  0  0  0  0
   -1.0097    0.3509    0.7582 C   0  0  0  0  0  0  0  0  0  0  0  0
   -0.7345    1.8119    1.0380 C   0  0  0  0  0  0  0  0  0  0  0  0
    3.5205   -0.4132    0.1180 H   0  0  0  0  0  0  0  0  0  0  0  0
    3.0532    0.9744   -0.8906 H   0  0  0  0  0  0  0  0  0  0  0  0
    2.3704   -0.6568   -1.2158 H   0  0  0  0  0  0  0  0  0  0  0  0
    1.4813    1.4378    0.6887 H   0  0  0  0  0  0  0  0  0  0  0  0
    1.8318   -0.0580    1.5705 H   0  0  0  0  0  0  0  0  0  0  0  0
   -0.4868   -2.3065    0.7622 H   0  0  0  0  0  0  0  0  0  0  0  0
    1.2678   -2.2896    0.0549 H   0  0  0  0  0  0  0  0  0  0  0  0
    0.4865   -0.9577   -1.9425 H   0  0  0  0  0  0  0  0  0  0  0  0
   -1.8853   -0.6860   -2.2668 H   0  0  0  0  0  0  0  0  0  0  0  0
   -2.1071   -1.7669   -0.7929 H   0  0  0  0  0  0  0  0  0  0  0  0
   -3.0464    0.1567    0.1476 H   0  0  0  0  0  0  0  0  0  0  0  0
   -2.1015    1.2525   -0.8789 H   0  0  0  0  0  0  0  0  0  0  0  0
   -1.3054   -0.1909    1.6694 H   0  0  0  0  0  0  0  0  0  0  0  0
   -0.2945    2.2727    0.1307 H   0  0  0  0  0  0  0  0  0  0  0  0
   -0.1773    1.9902    1.9575 H   0  0  0  0  0  0  0  0  0  0  0  0
   -1.7509    2.2948    1.1397 H   0  0  0  0  0  0  0  0  0  0  0  0
  1  2  1  0
  2  3  1  0
  3  4  1  0
  4  5  1  0
  5  6  1  0
  6  7  1  0
  7  8  1  0
  8  9  1  0
  5  3  1  0
  8  3  1  0
  1 10  1  0
  1 11  1  0
  1 12  1  0
  2 13  1  0
  2 14  1  0
  4 15  1  0
  4 16  1  0
  5 17  1  0
  6 18  1  0
  6 19  1  0
  7 20  1  0
  7 21  1  0
  8 22  1  0
  9 23  1  0
  9 24  1  0
  9 25  1  0
M  END
