
     RDKit          3D

 21 22  0  0  0  0  0  0  0  0999 V2000
   -2.1939   -0.8069   -0.3033 C   0  0  0  0  0  0  0  0  0  0  0  0
   -1.4296    0.4034   -0.8611 C   0  0  0  0  0  0  0  0  0  0  0  0
   -0.3302    0.6757    0.1693 C   0  0  0  0  0  0  0  0  0  0  0  0
   -0.8720    0.9620    1.4336 O   0  0  0  0  0  0  0  0  0  0  0  0
    0.8827    1.4418   -0.2486 C   0  0  0  0  0  0  0  0  0  0  0  0
    0.9449    0.0356    0.1160 C   0  0  0  0  0  0  0  0  0  0  0  0
    1.3874   -1.0730   -0.7345 C   0  0  0  0  0  0  0  0  0  0  0  0
    2.3469   -1.3905    0.2579 O   0  0  0  0  0  0  0  0  0  0  0  0
    1.7322   -0.5463    1.2092 C   0  0  0  0  0  0  0  0  0  0  0  0
   -1.4718   -1.4633    0.2224 H   0  0  0  0  0  0  0  0  0  0  0  0
   -2.7886   -1.3077   -1.0707 H   0  0  0  0  0  0  0  0  0  0  0  0
   -2.8818   -0.4176    0.4835 H   0  0  0  0  0  0  0  0  0  0  0  0
   -1.0084    0.1761   -1.8482 H   0  0  0  0  0  0  0  0  0  0  0  0
   -2.1031    1.2830   -0.8454 H   0  0  0  0  0  0  0  0  0  0  0  0
   -0.6432    1.8542    1.7561 H   0  0  0  0  0  0  0  0  0  0  0  0
    1.0507    1.7334   -1.2963 H   0  0  0  0  0  0  0  0  0  0  0  0
    1.2578    2.1743    0.4978 H   0  0  0  0  0  0  0  0  0  0  0  0
    0.6902   -1.9133   -0.9075 H   0  0  0  0  0  0  0  0  0  0  0  0
    1.9014   -0.7524   -1.6554 H   0  0  0  0  0  0  0  0  0  0  0  0
    1.1138   -1.1845    1.8775 H   0  0  0  0  0  0  0  0  0  0  0  0
    2.4146    0.1159    1.7478 H   0  0  0  0  0  0  0  0  0  0  0  0
  1  2  1  0
  2  3  1  0
  3  4  1  0
  3  5  1  0
  5  6  1  0
  6  7  1  0
  7  8  1  0
  8  9  1  0
  6  3  1  0
  9  6  1  0
  1 10  1  0
  1 11  1  0
  1 12  1  0
  2 13  1  0
  2 14  1  0
  4 15  1  0
  5 16  1  0
  5 17  1  0
  7 18  1  0
  7 19  1  0
  9 20  1  0
  9 21  1  0
M  END
