
     RDKit          3D

 21 23  0  0  0  0  0  0  0  0999 V2000
    2.3972    0.6798    0.1767 C   0  0  0  0  0  0  0  0  0  0  0  0
    1.3572   -0.3519    0.5008 C   0  0  0  0  0  0  0  0  0  0  0  0
    0.3228   -0.4636   -0.5855 C   0  0  0  0  0  0  0  0  0  0  0  0
   -0.7167   -1.5092   -0.2400 C   0  0  0  0  0  0  0  0  0  0  0  0
   -1.7098   -1.2369    0.8371 C   0  0  0  0  0  0  0  0  0  0  0  0
   -1.7889   -0.4993   -0.4663 C   0  0  0  0  0  0  0  0  0  0  0  0
   -0.7313    0.5501   -0.6531 C   0  0  0  0  0  0  0  0  0  0  0  0
   -0.8482    1.8181   -0.1043 C   0  0  0  0  0  0  0  0  0  0  0  0
   -0.8269    1.5374   -1.5678 O   0  0  0  0  0  0  0  0  0  0  0  0
    1.9878    1.4099   -0.5278 H   0  0  0  0  0  0  0  0  0  0  0  0
    2.7336    1.1278    1.1372 H   0  0  0  0  0  0  0  0  0  0  0  0
    3.2303    0.1604   -0.3496 H   0  0  0  0  0  0  0  0  0  0  0  0
    0.8736   -0.1056    1.4814 H   0  0  0  0  0  0  0  0  0  0  0  0
    1.8689   -1.3253    0.6590 H   0  0  0  0  0  0  0  0  0  0  0  0
    0.8286   -0.7548   -1.5402 H   0  0  0  0  0  0  0  0  0  0  0  0
   -0.7089   -2.4721   -0.7816 H   0  0  0  0  0  0  0  0  0  0  0  0
   -1.3887   -0.5900    1.6957 H   0  0  0  0  0  0  0  0  0  0  0  0
   -2.3994   -2.0428    1.0778 H   0  0  0  0  0  0  0  0  0  0  0  0
   -2.6027   -0.6372   -1.1678 H   0  0  0  0  0  0  0  0  0  0  0  0
   -1.8556    2.2078    0.2175 H   0  0  0  0  0  0  0  0  0  0  0  0
   -0.0229    2.4975    0.2009 H   0  0  0  0  0  0  0  0  0  0  0  0
  1  2  1  0
  2  3  1  0
  3  4  1  0
  4  5  1  0
  5  6  1  0
  6  7  1  0
  7  8  1  0
  8  9  1  0
  7  3  1  0
  6  4  1  0
  9  7  1  0
  1 10  1  0
  1 11  1  0
  1 12  1  0
  2 13  1  0
  2 14  1  0
  3 15  1  0
  4 16  1  0
  5 17  1  0
  5 18  1  0
  6 19  1  0
  8 20  1  0
  8 21  1  0
M  END
