
     RDKit          3D

 21 23  0  0  0  0  0  0  0  0999 V2000
    2.4574    0.5808    0.7457 C   0  0  0  0  0  0  0  0  0  0  0  0
    1.6803    0.0910   -0.4203 C   0  0  0  0  0  0  0  0  0  0  0  0
    0.4596   -0.7250   -0.0100 C   0  0  0  0  0  0  0  0  0  0  0  0
   -0.3422   -1.2299   -1.2346 C   0  0  0  0  0  0  0  0  0  0  0  0
   -0.8609   -0.3157   -0.2667 C   0  0  0  0  0  0  0  0  0  0  0  0
   -2.0887   -0.4610    0.5678 C   0  0  0  0  0  0  0  0  0  0  0  0
   -1.7117    0.9516    0.9639 C   0  0  0  0  0  0  0  0  0  0  0  0
   -1.6875    2.0433    0.2327 O   0  0  0  0  0  0  0  0  0  0  0  0
   -1.4169    1.0264   -0.5692 C   0  0  0  0  0  0  0  0  0  0  0  0
    3.4747    0.8843    0.3719 H   0  0  0  0  0  0  0  0  0  0  0  0
    2.6445   -0.1902    1.5170 H   0  0  0  0  0  0  0  0  0  0  0  0
    1.9751    1.4907    1.1583 H   0  0  0  0  0  0  0  0  0  0  0  0
    2.3135   -0.4914   -1.1240 H   0  0  0  0  0  0  0  0  0  0  0  0
    1.3090    0.9885   -0.9871 H   0  0  0  0  0  0  0  0  0  0  0  0
    0.6794   -1.5078    0.7473 H   0  0  0  0  0  0  0  0  0  0  0  0
   -0.6815   -2.3054   -1.1744 H   0  0  0  0  0  0  0  0  0  0  0  0
   -0.0543   -0.8757   -2.2271 H   0  0  0  0  0  0  0  0  0  0  0  0
   -2.9890   -0.5504   -0.0691 H   0  0  0  0  0  0  0  0  0  0  0  0
   -2.0699   -1.1374    1.4189 H   0  0  0  0  0  0  0  0  0  0  0  0
   -0.7682    0.8809    1.5977 H   0  0  0  0  0  0  0  0  0  0  0  0
   -2.3227    0.8524   -1.2388 H   0  0  0  0  0  0  0  0  0  0  0  0
  1  2  1  0
  2  3  1  0
  3  4  1  0
  4  5  1  0
  5  6  1  0
  6  7  1  0
  7  8  1  0
  8  9  1  0
  5  3  1  0
  9  7  1  0
  9  5  1  0
  1 10  1  0
  1 11  1  0
  1 12  1  0
  2 13  1  0
  2 14  1  0
  3 15  1  0
  4 16  1  0
  4 17  1  0
  6 18  1  0
  6 19  1  0
  7 20  1  0
  9 21  1  0
M  END
