
     RDKit          3D

 25 25  0  0  0  0  0  0  0  0999 V2000
    2.4616   -0.9750    0.8194 C   0  0  0  0  0  0  0  0  0  0  0  0
    0.9740   -1.1994    0.4793 C   0  0  0  0  0  0  0  0  0  0  0  0
    0.6117   -0.1789   -0.5115 C   0  0  0  0  0  0  0  0  0  0  0  0
    0.7672    1.2569   -0.0493 C   0  0  0  0  0  0  0  0  0  0  0  0
   -0.0799    1.9502   -1.1219 C   0  0  0  0  0  0  0  0  0  0  0  0
   -0.6362    0.9856   -1.9163 O   0  0  0  0  0  0  0  0  0  0  0  0
   -0.7487   -0.1673   -1.0898 C   0  0  0  0  0  0  0  0  0  0  0  0
   -1.8943    0.1063   -0.1945 C   0  0  0  0  0  0  0  0  0  0  0  0
   -2.1265   -0.8296    0.9337 C   0  0  0  0  0  0  0  0  0  0  0  0
    2.8054   -1.7215    1.5553 H   0  0  0  0  0  0  0  0  0  0  0  0
    3.0601   -1.0013   -0.1144 H   0  0  0  0  0  0  0  0  0  0  0  0
    2.5353    0.0616    1.2026 H   0  0  0  0  0  0  0  0  0  0  0  0
    0.8363   -2.2014    0.0382 H   0  0  0  0  0  0  0  0  0  0  0  0
    0.4418   -1.0398    1.4369 H   0  0  0  0  0  0  0  0  0  0  0  0
    1.3320   -0.2712   -1.3752 H   0  0  0  0  0  0  0  0  0  0  0  0
    0.3874    1.4369    0.9569 H   0  0  0  0  0  0  0  0  0  0  0  0
    1.8247    1.5630   -0.0868 H   0  0  0  0  0  0  0  0  0  0  0  0
    0.6444    2.5693   -1.7167 H   0  0  0  0  0  0  0  0  0  0  0  0
   -0.8329    2.6152   -0.7071 H   0  0  0  0  0  0  0  0  0  0  0  0
   -0.9530   -1.0553   -1.7294 H   0  0  0  0  0  0  0  0  0  0  0  0
   -1.8699    1.1371    0.2250 H   0  0  0  0  0  0  0  0  0  0  0  0
   -2.8199    0.1119   -0.8454 H   0  0  0  0  0  0  0  0  0  0  0  0
   -1.7810   -0.4384    1.9340 H   0  0  0  0  0  0  0  0  0  0  0  0
   -1.6904   -1.8204    0.7879 H   0  0  0  0  0  0  0  0  0  0  0  0
   -3.2492   -0.8947    1.0891 H   0  0  0  0  0  0  0  0  0  0  0  0
  1  2  1  0
  2  3  1  0
  3  4  1  0
  4  5  1  0
  5  6  1  0
  6  7  1  0
  7  8  1  0
  8  9  1  0
  7  3  1  0
  1 10  1  0
  1 11  1  0
  1 12  1  0
  2 13  1  0
  2 14  1  0
  3 15  1  0
  4 16  1  0
  4 17  1  0
  5 18  1  0
  5 19  1  0
  7 20  1  0
  8 21  1  0
  8 22  1  0
  9 23  1  0
  9 24  1  0
  9 25  1  0
M  END
