
     RDKit          3D

 25 25  0  0  0  0  0  0  0  0999 V2000
   -3.1628   -0.6292   -0.4059 C   0  0  0  0  0  0  0  0  0  0  0  0
   -2.1553    0.4669   -0.1931 C   0  0  0  0  0  0  0  0  0  0  0  0
   -0.8571   -0.0562    0.3846 C   0  0  0  0  0  0  0  0  0  0  0  0
   -0.2423   -1.0686   -0.5452 C   0  0  0  0  0  0  0  0  0  0  0  0
    1.2128   -1.2044   -0.3935 C   0  0  0  0  0  0  0  0  0  0  0  0
    1.9457   -0.1164   -0.2450 C   0  0  0  0  0  0  0  0  0  0  0  0
    3.4134   -0.1008   -0.0824 C   0  0  0  0  0  0  0  0  0  0  0  0
    1.2314    1.1919   -0.2422 C   0  0  0  0  0  0  0  0  0  0  0  0
    0.0300    1.1244    0.6501 C   0  0  0  0  0  0  0  0  0  0  0  0
   -3.2646   -1.3131    0.4368 H   0  0  0  0  0  0  0  0  0  0  0  0
   -2.9695   -1.1922   -1.3539 H   0  0  0  0  0  0  0  0  0  0  0  0
   -4.1575   -0.1226   -0.5551 H   0  0  0  0  0  0  0  0  0  0  0  0
   -1.9354    0.9398   -1.1558 H   0  0  0  0  0  0  0  0  0  0  0  0
   -2.5778    1.2082    0.5167 H   0  0  0  0  0  0  0  0  0  0  0  0
   -1.0250   -0.5662    1.3627 H   0  0  0  0  0  0  0  0  0  0  0  0
   -0.6908   -2.0720   -0.2837 H   0  0  0  0  0  0  0  0  0  0  0  0
   -0.5554   -0.8920   -1.6026 H   0  0  0  0  0  0  0  0  0  0  0  0
    1.7241   -2.1724   -0.3976 H   0  0  0  0  0  0  0  0  0  0  0  0
    3.6874    0.7124    0.6302 H   0  0  0  0  0  0  0  0  0  0  0  0
    3.8387    0.2261   -1.0748 H   0  0  0  0  0  0  0  0  0  0  0  0
    3.8408   -1.0668    0.2308 H   0  0  0  0  0  0  0  0  0  0  0  0
    1.8693    2.0157    0.1051 H   0  0  0  0  0  0  0  0  0  0  0  0
    0.9278    1.4273   -1.2816 H   0  0  0  0  0  0  0  0  0  0  0  0
   -0.5213    2.1035    0.5320 H   0  0  0  0  0  0  0  0  0  0  0  0
    0.3936    1.1571    1.7190 H   0  0  0  0  0  0  0  0  0  0  0  0
  1  2  1  0
  2  3  1  0
  3  4  1  0
  4  5  1  0
  5  6  2  0
  6  7  1  0
  6  8  1  0
  8  9  1  0
  9  3  1  0
  1 10  1  0
  1 11  1  0
  1 12  1  0
  2 13  1  0
  2 14  1  0
  3 15  1  0
  4 16  1  0
  4 17  1  0
  5 18  1  0
  7 19  1  0
  7 20  1  0
  7 21  1  0
  8 22  1  0
  8 23  1  0
  9 24  1  0
  9 25  1  0
M  END
