
     RDKit          3D

 25 26  0  0  0  0  0  0  0  0999 V2000
    2.9207    0.7066    0.1385 C   0  0  0  0  0  0  0  0  0  0  0  0
    1.9537   -0.2945   -0.4415 C   0  0  0  0  0  0  0  0  0  0  0  0
    0.7722   -0.5620    0.4133 C   0  0  0  0  0  0  0  0  0  0  0  0
   -0.0662    0.6991    0.6830 C   0  0  0  0  0  0  0  0  0  0  0  0
   -1.3682    0.2427    0.0933 C   0  0  0  0  0  0  0  0  0  0  0  0
   -2.5362    1.0837    0.0976 C   0  0  0  0  0  0  0  0  0  0  0  0
   -0.8846   -0.3441   -1.2436 C   0  0  0  0  0  0  0  0  0  0  0  0
   -0.2301   -1.3696   -0.3413 C   0  0  0  0  0  0  0  0  0  0  0  0
   -1.4727   -1.2079    0.5362 C   0  0  0  0  0  0  0  0  0  0  0  0
    3.8755    0.6026   -0.4180 H   0  0  0  0  0  0  0  0  0  0  0  0
    3.1692    0.4991    1.2045 H   0  0  0  0  0  0  0  0  0  0  0  0
    2.5918    1.7584   -0.0015 H   0  0  0  0  0  0  0  0  0  0  0  0
    2.5213   -1.2635   -0.5078 H   0  0  0  0  0  0  0  0  0  0  0  0
    1.7478    0.0014   -1.4723 H   0  0  0  0  0  0  0  0  0  0  0  0
    1.0672   -1.0500    1.3408 H   0  0  0  0  0  0  0  0  0  0  0  0
   -0.1937    0.7707    1.7848 H   0  0  0  0  0  0  0  0  0  0  0  0
    0.3650    1.5830    0.2292 H   0  0  0  0  0  0  0  0  0  0  0  0
   -3.0937    0.9778   -0.8784 H   0  0  0  0  0  0  0  0  0  0  0  0
   -2.2661    2.1457    0.1744 H   0  0  0  0  0  0  0  0  0  0  0  0
   -3.2624    0.7731    0.8764 H   0  0  0  0  0  0  0  0  0  0  0  0
   -0.2358    0.3874   -1.7194 H   0  0  0  0  0  0  0  0  0  0  0  0
   -1.7051   -0.7392   -1.8567 H   0  0  0  0  0  0  0  0  0  0  0  0
   -0.0029   -2.3282   -0.7179 H   0  0  0  0  0  0  0  0  0  0  0  0
   -2.3409   -1.6731    0.0395 H   0  0  0  0  0  0  0  0  0  0  0  0
   -1.3256   -1.3992    1.5970 H   0  0  0  0  0  0  0  0  0  0  0  0
  1  2  1  0
  2  3  1  0
  3  4  1  0
  4  5  1  0
  5  6  1  0
  5  7  1  0
  7  8  1  0
  8  9  1  0
  8  3  1  0
  9  5  1  0
  1 10  1  0
  1 11  1  0
  1 12  1  0
  2 13  1  0
  2 14  1  0
  3 15  1  0
  4 16  1  0
  4 17  1  0
  6 18  1  0
  6 19  1  0
  6 20  1  0
  7 21  1  0
  7 22  1  0
  8 23  1  0
  9 24  1  0
  9 25  1  0
M  END
