
     RDKit          3D

 21 21  0  0  0  0  0  0  0  0999 V2000
    2.6487    0.2753   -0.1339 C   0  0  0  0  0  0  0  0  0  0  0  0
    1.3015    0.2533   -0.8114 C   0  0  0  0  0  0  0  0  0  0  0  0
    0.1708    0.4808    0.1574 C   0  0  0  0  0  0  0  0  0  0  0  0
   -1.1992    0.4634   -0.5008 C   0  0  0  0  0  0  0  0  0  0  0  0
   -2.1586    1.5257   -0.1519 C   0  0  0  0  0  0  0  0  0  0  0  0
   -2.1617    2.0006    0.9709 O   0  0  0  0  0  0  0  0  0  0  0  0
   -0.7842   -0.5370    0.5555 C   0  0  0  0  0  0  0  0  0  0  0  0
   -0.7393   -1.9599    0.0930 C   0  0  0  0  0  0  0  0  0  0  0  0
   -1.3716   -0.3891    1.8320 O   0  0  0  0  0  0  0  0  0  0  0  0
    2.5140    0.2815    0.9660 H   0  0  0  0  0  0  0  0  0  0  0  0
    3.1846   -0.6531   -0.4004 H   0  0  0  0  0  0  0  0  0  0  0  0
    3.2703    1.1285   -0.4264 H   0  0  0  0  0  0  0  0  0  0  0  0
    1.1222   -0.6598   -1.3964 H   0  0  0  0  0  0  0  0  0  0  0  0
    1.2892    1.1269   -1.5131 H   0  0  0  0  0  0  0  0  0  0  0  0
    0.3731    1.3220    0.8687 H   0  0  0  0  0  0  0  0  0  0  0  0
   -1.2775    0.0954   -1.5546 H   0  0  0  0  0  0  0  0  0  0  0  0
   -2.8827    1.9218   -0.8544 H   0  0  0  0  0  0  0  0  0  0  0  0
   -0.2545   -2.6109    0.8433 H   0  0  0  0  0  0  0  0  0  0  0  0
   -0.3324   -2.0707   -0.9253 H   0  0  0  0  0  0  0  0  0  0  0  0
   -1.8068   -2.3202    0.0384 H   0  0  0  0  0  0  0  0  0  0  0  0
   -0.9059    0.3254    2.3434 H   0  0  0  0  0  0  0  0  0  0  0  0
  1  2  1  0
  2  3  1  0
  3  4  1  0
  4  5  1  0
  5  6  2  0
  4  7  1  0
  7  8  1  0
  7  9  1  0
  7  3  1  0
  1 10  1  0
  1 11  1  0
  1 12  1  0
  2 13  1  0
  2 14  1  0
  3 15  1  0
  4 16  1  0
  5 17  1  0
  8 18  1  0
  8 19  1  0
  8 20  1  0
  9 21  1  0
M  END
