
     RDKit          3D

 22 22  0  0  0  0  0  0  0  0999 V2000
    2.7164    0.5056    0.3351 C   0  0  0  0  0  0  0  0  0  0  0  0
    1.7918   -0.5287   -0.2014 C   0  0  0  0  0  0  0  0  0  0  0  0
    0.3437   -0.2969    0.1317 C   0  0  0  0  0  0  0  0  0  0  0  0
   -0.4672   -1.3861   -0.4542 C   0  0  0  0  0  0  0  0  0  0  0  0
   -1.7682   -1.3462   -0.2539 C   0  0  0  0  0  0  0  0  0  0  0  0
   -2.2444   -0.1648    0.5641 C   0  0  0  0  0  0  0  0  0  0  0  0
   -1.6613    1.0848   -0.0358 C   0  0  0  0  0  0  0  0  0  0  0  0
   -0.2035    0.9784   -0.3955 C   0  0  0  0  0  0  0  0  0  0  0  0
    3.3089    0.1362    1.2107 H   0  0  0  0  0  0  0  0  0  0  0  0
    2.2280    1.4343    0.6709 H   0  0  0  0  0  0  0  0  0  0  0  0
    3.4843    0.7127   -0.4648 H   0  0  0  0  0  0  0  0  0  0  0  0
    1.8518   -0.6531   -1.3075 H   0  0  0  0  0  0  0  0  0  0  0  0
    2.0669   -1.5187    0.2278 H   0  0  0  0  0  0  0  0  0  0  0  0
    0.1728   -0.3306    1.2493 H   0  0  0  0  0  0  0  0  0  0  0  0
   -0.0242   -2.1702   -1.0139 H   0  0  0  0  0  0  0  0  0  0  0  0
   -2.4750   -2.0782   -0.6261 H   0  0  0  0  0  0  0  0  0  0  0  0
   -1.9317   -0.3178    1.6274 H   0  0  0  0  0  0  0  0  0  0  0  0
   -3.3448   -0.1312    0.5549 H   0  0  0  0  0  0  0  0  0  0  0  0
   -1.7879    1.8881    0.7179 H   0  0  0  0  0  0  0  0  0  0  0  0
   -2.2658    1.3655   -0.9250 H   0  0  0  0  0  0  0  0  0  0  0  0
   -0.1398    0.9332   -1.5224 H   0  0  0  0  0  0  0  0  0  0  0  0
    0.3491    1.8837   -0.0894 H   0  0  0  0  0  0  0  0  0  0  0  0
  1  2  1  0
  2  3  1  0
  3  4  1  0
  4  5  2  0
  5  6  1  0
  6  7  1  0
  7  8  1  0
  8  3  1  0
  1  9  1  0
  1 10  1  0
  1 11  1  0
  2 12  1  0
  2 13  1  0
  3 14  1  0
  4 15  1  0
  5 16  1  0
  6 17  1  0
  6 18  1  0
  7 19  1  0
  7 20  1  0
  8 21  1  0
  8 22  1  0
M  END
