
     RDKit          3D

 25 25  0  0  0  0  0  0  0  0999 V2000
   -2.5715   -0.1338   -0.8783 C   0  0  0  0  0  0  0  0  0  0  0  0
   -2.6207   -0.1132    0.6191 C   0  0  0  0  0  0  0  0  0  0  0  0
   -1.2869    0.2053    1.2460 C   0  0  0  0  0  0  0  0  0  0  0  0
   -0.1736   -0.7718    0.9109 C   0  0  0  0  0  0  0  0  0  0  0  0
    0.7559    0.4206    0.8232 C   0  0  0  0  0  0  0  0  0  0  0  0
    1.7179    0.3735   -0.3411 C   0  0  0  0  0  0  0  0  0  0  0  0
    2.4955   -0.7614   -0.2070 O   0  0  0  0  0  0  0  0  0  0  0  0
    3.3806   -0.7982   -1.2846 C   0  0  0  0  0  0  0  0  0  0  0  0
   -0.4884    1.2732    0.5697 C   0  0  0  0  0  0  0  0  0  0  0  0
   -1.8659   -0.8659   -1.2859 H   0  0  0  0  0  0  0  0  0  0  0  0
   -3.5925   -0.4746   -1.2197 H   0  0  0  0  0  0  0  0  0  0  0  0
   -2.4432    0.8684   -1.3365 H   0  0  0  0  0  0  0  0  0  0  0  0
   -3.0274   -1.0784    0.9550 H   0  0  0  0  0  0  0  0  0  0  0  0
   -3.3236    0.6797    0.9401 H   0  0  0  0  0  0  0  0  0  0  0  0
   -1.3544    0.3471    2.3290 H   0  0  0  0  0  0  0  0  0  0  0  0
    0.0407   -1.4504    1.7634 H   0  0  0  0  0  0  0  0  0  0  0  0
   -0.2913   -1.2660   -0.0553 H   0  0  0  0  0  0  0  0  0  0  0  0
    1.2422    0.6012    1.8000 H   0  0  0  0  0  0  0  0  0  0  0  0
    1.1800    0.4385   -1.3052 H   0  0  0  0  0  0  0  0  0  0  0  0
    2.3698    1.2740   -0.2656 H   0  0  0  0  0  0  0  0  0  0  0  0
    4.0027   -1.6955   -1.1876 H   0  0  0  0  0  0  0  0  0  0  0  0
    4.0698    0.0914   -1.2847 H   0  0  0  0  0  0  0  0  0  0  0  0
    2.7970   -0.7412   -2.2155 H   0  0  0  0  0  0  0  0  0  0  0  0
   -0.6342    1.3464   -0.5249 H   0  0  0  0  0  0  0  0  0  0  0  0
   -0.3784    2.2308    1.1136 H   0  0  0  0  0  0  0  0  0  0  0  0
  1  2  1  0
  2  3  1  0
  3  4  1  0
  4  5  1  0
  5  6  1  0
  6  7  1  0
  7  8  1  0
  5  9  1  0
  9  3  1  0
  1 10  1  0
  1 11  1  0
  1 12  1  0
  2 13  1  0
  2 14  1  0
  3 15  1  0
  4 16  1  0
  4 17  1  0
  5 18  1  0
  6 19  1  0
  6 20  1  0
  8 21  1  0
  8 22  1  0
  8 23  1  0
  9 24  1  0
  9 25  1  0
M  END
