
     RDKit          3D

 19 19  0  0  0  0  0  0  0  0999 V2000
   -2.3561    0.0601   -0.1488 C   0  0  0  0  0  0  0  0  0  0  0  0
   -1.1162   -0.8106   -0.1607 C   0  0  0  0  0  0  0  0  0  0  0  0
    0.0911   -0.0631    0.3492 C   0  0  0  0  0  0  0  0  0  0  0  0
   -0.0841    0.3789    1.6527 O   0  0  0  0  0  0  0  0  0  0  0  0
    1.2606   -0.9767    0.2694 C   0  0  0  0  0  0  0  0  0  0  0  0
    2.3350   -0.2941   -0.1098 C   0  0  0  0  0  0  0  0  0  0  0  0
    1.9655    1.1132   -0.3097 C   0  0  0  0  0  0  0  0  0  0  0  0
    2.7615    2.0742   -0.2608 O   0  0  0  0  0  0  0  0  0  0  0  0
    0.4997    1.0630   -0.5641 C   0  0  0  0  0  0  0  0  0  0  0  0
   -2.8349   -0.0482   -1.1489 H   0  0  0  0  0  0  0  0  0  0  0  0
   -2.0551    1.1119    0.0519 H   0  0  0  0  0  0  0  0  0  0  0  0
   -3.1100   -0.3127    0.5826 H   0  0  0  0  0  0  0  0  0  0  0  0
   -0.8835   -1.1893   -1.1731 H   0  0  0  0  0  0  0  0  0  0  0  0
   -1.2983   -1.6925    0.4786 H   0  0  0  0  0  0  0  0  0  0  0  0
   -0.1719   -0.4364    2.2207 H   0  0  0  0  0  0  0  0  0  0  0  0
    1.2764   -2.0466    0.4809 H   0  0  0  0  0  0  0  0  0  0  0  0
    3.3467   -0.7019   -0.2555 H   0  0  0  0  0  0  0  0  0  0  0  0
   -0.0033    2.0142   -0.3312 H   0  0  0  0  0  0  0  0  0  0  0  0
    0.3770    0.7563   -1.6235 H   0  0  0  0  0  0  0  0  0  0  0  0
  1  2  1  0
  2  3  1  0
  3  4  1  0
  3  5  1  0
  5  6  2  0
  6  7  1  0
  7  8  2  0
  7  9  1  0
  9  3  1  0
  1 10  1  0
  1 11  1  0
  1 12  1  0
  2 13  1  0
  2 14  1  0
  4 15  1  0
  5 16  1  0
  6 17  1  0
  9 18  1  0
  9 19  1  0
M  END
