
     RDKit          3D

 21 22  0  0  0  0  0  0  0  0999 V2000
   -2.3731   -0.9314    0.3374 C   0  0  0  0  0  0  0  0  0  0  0  0
   -1.5156   -0.3036   -0.7646 C   0  0  0  0  0  0  0  0  0  0  0  0
   -0.5538    0.6207   -0.1059 C   0  0  0  0  0  0  0  0  0  0  0  0
    0.3971    1.3541   -1.0074 C   0  0  0  0  0  0  0  0  0  0  0  0
    1.4941    0.8900   -0.0410 C   0  0  0  0  0  0  0  0  0  0  0  0
    1.7837   -0.5402   -0.1584 C   0  0  0  0  0  0  0  0  0  0  0  0
    2.8210   -1.0270    0.6302 O   0  0  0  0  0  0  0  0  0  0  0  0
    0.5835   -0.0872    0.5584 C   0  0  0  0  0  0  0  0  0  0  0  0
    0.4936   -0.3518    1.8959 O   0  0  0  0  0  0  0  0  0  0  0  0
   -3.0684   -0.1546    0.7147 H   0  0  0  0  0  0  0  0  0  0  0  0
   -1.7299   -1.2423    1.1929 H   0  0  0  0  0  0  0  0  0  0  0  0
   -2.9154   -1.7991   -0.0436 H   0  0  0  0  0  0  0  0  0  0  0  0
   -0.9387   -1.1369   -1.2457 H   0  0  0  0  0  0  0  0  0  0  0  0
   -2.2142    0.1838   -1.4554 H   0  0  0  0  0  0  0  0  0  0  0  0
   -1.0590    1.3677    0.5704 H   0  0  0  0  0  0  0  0  0  0  0  0
    0.2955    2.4461   -1.0409 H   0  0  0  0  0  0  0  0  0  0  0  0
    0.5189    0.8823   -2.0010 H   0  0  0  0  0  0  0  0  0  0  0  0
    2.0834    1.6184    0.4945 H   0  0  0  0  0  0  0  0  0  0  0  0
    1.6519   -1.0576   -1.1444 H   0  0  0  0  0  0  0  0  0  0  0  0
    3.6570   -1.1362    0.1187 H   0  0  0  0  0  0  0  0  0  0  0  0
    0.5884    0.4047    2.4954 H   0  0  0  0  0  0  0  0  0  0  0  0
  1  2  1  0
  2  3  1  0
  3  4  1  0
  4  5  1  0
  5  6  1  0
  6  7  1  0
  6  8  1  0
  8  9  1  0
  8  3  1  0
  8  5  1  0
  1 10  1  0
  1 11  1  0
  1 12  1  0
  2 13  1  0
  2 14  1  0
  3 15  1  0
  4 16  1  0
  4 17  1  0
  5 18  1  0
  6 19  1  0
  7 20  1  0
  9 21  1  0
M  END
