
     RDKit          3D

 22 23  0  0  0  0  0  0  0  0999 V2000
    2.4414   -0.1987   -0.5827 C   0  0  0  0  0  0  0  0  0  0  0  0
    1.4171   -1.0410    0.1698 C   0  0  0  0  0  0  0  0  0  0  0  0
    0.1082   -0.3101    0.2979 C   0  0  0  0  0  0  0  0  0  0  0  0
   -0.9620   -1.0530    1.0210 C   0  0  0  0  0  0  0  0  0  0  0  0
   -1.9508   -0.6984   -0.0727 C   0  0  0  0  0  0  0  0  0  0  0  0
   -0.8015   -0.1556   -0.8645 C   0  0  0  0  0  0  0  0  0  0  0  0
   -0.0784    1.0082   -0.3078 C   0  0  0  0  0  0  0  0  0  0  0  0
   -0.9417    2.0765    0.3124 C   0  0  0  0  0  0  0  0  0  0  0  0
    2.5307    0.7845   -0.0802 H   0  0  0  0  0  0  0  0  0  0  0  0
    3.4034   -0.7357   -0.6298 H   0  0  0  0  0  0  0  0  0  0  0  0
    2.0990    0.0064   -1.6219 H   0  0  0  0  0  0  0  0  0  0  0  0
    1.8269   -1.1469    1.2147 H   0  0  0  0  0  0  0  0  0  0  0  0
    1.3252   -2.0368   -0.2878 H   0  0  0  0  0  0  0  0  0  0  0  0
   -0.8020   -2.1681    1.0217 H   0  0  0  0  0  0  0  0  0  0  0  0
   -1.2104   -0.7054    2.0200 H   0  0  0  0  0  0  0  0  0  0  0  0
   -2.4626   -1.5628   -0.5402 H   0  0  0  0  0  0  0  0  0  0  0  0
   -2.6853    0.0142    0.3050 H   0  0  0  0  0  0  0  0  0  0  0  0
   -0.5905   -0.5809   -1.8489 H   0  0  0  0  0  0  0  0  0  0  0  0
    0.7699    1.3829   -0.9165 H   0  0  0  0  0  0  0  0  0  0  0  0
   -0.5239    3.0841    0.1078 H   0  0  0  0  0  0  0  0  0  0  0  0
   -0.9531    1.9604    1.4140 H   0  0  0  0  0  0  0  0  0  0  0  0
   -1.9596    2.0764   -0.1314 H   0  0  0  0  0  0  0  0  0  0  0  0
  1  2  1  0
  2  3  1  0
  3  4  1  0
  4  5  1  0
  5  6  1  0
  6  7  1  0
  7  8  1  0
  6  3  1  0
  7  3  1  0
  1  9  1  0
  1 10  1  0
  1 11  1  0
  2 12  1  0
  2 13  1  0
  4 14  1  0
  4 15  1  0
  5 16  1  0
  5 17  1  0
  6 18  1  0
  7 19  1  0
  8 20  1  0
  8 21  1  0
  8 22  1  0
M  END
