
     RDKit          3D

 23 24  0  0  0  0  0  0  0  0999 V2000
    2.7529    0.7951    0.0188 C   0  0  0  0  0  0  0  0  0  0  0  0
    1.8608   -0.3756    0.2514 C   0  0  0  0  0  0  0  0  0  0  0  0
    0.5464   -0.2956   -0.4870 C   0  0  0  0  0  0  0  0  0  0  0  0
   -0.2229   -1.5731   -0.1260 C   0  0  0  0  0  0  0  0  0  0  0  0
   -1.6596   -1.1624   -0.3278 C   0  0  0  0  0  0  0  0  0  0  0  0
   -1.6788    0.2039    0.3408 C   0  0  0  0  0  0  0  0  0  0  0  0
   -2.2572    1.2774   -0.5186 C   0  0  0  0  0  0  0  0  0  0  0  0
   -0.9649    1.4840   -1.0466 O   0  0  0  0  0  0  0  0  0  0  0  0
   -0.3470    0.8009    0.0231 C   0  0  0  0  0  0  0  0  0  0  0  0
    2.9269    1.3047    0.9854 H   0  0  0  0  0  0  0  0  0  0  0  0
    3.7761    0.4502   -0.3140 H   0  0  0  0  0  0  0  0  0  0  0  0
    2.4041    1.4927   -0.7638 H   0  0  0  0  0  0  0  0  0  0  0  0
    2.3600   -1.3098   -0.0723 H   0  0  0  0  0  0  0  0  0  0  0  0
    1.6091   -0.4983    1.3326 H   0  0  0  0  0  0  0  0  0  0  0  0
    0.6526   -0.3082   -1.5775 H   0  0  0  0  0  0  0  0  0  0  0  0
    0.0941   -2.4183   -0.7327 H   0  0  0  0  0  0  0  0  0  0  0  0
   -0.0592   -1.7137    0.9645 H   0  0  0  0  0  0  0  0  0  0  0  0
   -1.8896   -1.0198   -1.3973 H   0  0  0  0  0  0  0  0  0  0  0  0
   -2.3150   -1.8884    0.1550 H   0  0  0  0  0  0  0  0  0  0  0  0
   -2.0158    0.2157    1.3749 H   0  0  0  0  0  0  0  0  0  0  0  0
   -2.6742    2.1455    0.0211 H   0  0  0  0  0  0  0  0  0  0  0  0
   -2.9937    0.9326   -1.2694 H   0  0  0  0  0  0  0  0  0  0  0  0
    0.0947    1.4604    0.7824 H   0  0  0  0  0  0  0  0  0  0  0  0
  1  2  1  0
  2  3  1  0
  3  4  1  0
  4  5  1  0
  5  6  1  0
  6  7  1  0
  7  8  1  0
  8  9  1  0
  9  3  1  0
  9  6  1  0
  1 10  1  0
  1 11  1  0
  1 12  1  0
  2 13  1  0
  2 14  1  0
  3 15  1  0
  4 16  1  0
  4 17  1  0
  5 18  1  0
  5 19  1  0
  6 20  1  0
  7 21  1  0
  7 22  1  0
  9 23  1  0
M  END
