
     RDKit          3D

 21 22  0  0  0  0  0  0  0  0999 V2000
    2.7695    0.1411    0.3550 C   0  0  0  0  0  0  0  0  0  0  0  0
    1.5636   -0.7953    0.1668 C   0  0  0  0  0  0  0  0  0  0  0  0
    0.4225    0.0608   -0.2286 C   0  0  0  0  0  0  0  0  0  0  0  0
   -0.9035   -0.5342   -0.4978 C   0  0  0  0  0  0  0  0  0  0  0  0
   -1.4250    0.8696   -0.2798 C   0  0  0  0  0  0  0  0  0  0  0  0
   -2.7479    0.9942    0.0364 O   0  0  0  0  0  0  0  0  0  0  0  0
   -0.4488    0.6436    0.8524 C   0  0  0  0  0  0  0  0  0  0  0  0
   -1.0670   -0.6968    0.9714 C   0  0  0  0  0  0  0  0  0  0  0  0
   -2.4299   -0.6946    1.3083 O   0  0  0  0  0  0  0  0  0  0  0  0
    2.6362    1.0546   -0.2757 H   0  0  0  0  0  0  0  0  0  0  0  0
    3.6855   -0.3577   -0.0098 H   0  0  0  0  0  0  0  0  0  0  0  0
    2.8547    0.4704    1.4068 H   0  0  0  0  0  0  0  0  0  0  0  0
    1.4210   -1.2982    1.1170 H   0  0  0  0  0  0  0  0  0  0  0  0
    1.8063   -1.5738   -0.6116 H   0  0  0  0  0  0  0  0  0  0  0  0
    0.6601    0.8173   -1.0432 H   0  0  0  0  0  0  0  0  0  0  0  0
   -1.1846   -1.1589   -1.2293 H   0  0  0  0  0  0  0  0  0  0  0  0
   -1.0189    1.5960   -1.0248 H   0  0  0  0  0  0  0  0  0  0  0  0
   -3.0092    1.9337   -0.0633 H   0  0  0  0  0  0  0  0  0  0  0  0
   -0.1866    1.3012    1.5535 H   0  0  0  0  0  0  0  0  0  0  0  0
   -0.4922   -1.4742    1.4880 H   0  0  0  0  0  0  0  0  0  0  0  0
   -2.9059   -1.2986    0.6807 H   0  0  0  0  0  0  0  0  0  0  0  0
  1  2  1  0
  2  3  1  0
  3  4  1  0
  4  5  1  0
  5  6  1  0
  5  7  1  0
  7  8  1  0
  8  9  1  0
  7  3  1  0
  8  4  1  0
  1 10  1  0
  1 11  1  0
  1 12  1  0
  2 13  1  0
  2 14  1  0
  3 15  1  0
  4 16  1  0
  5 17  1  0
  6 18  1  0
  7 19  1  0
  8 20  1  0
  9 21  1  0
M  END
