
     RDKit          3D

 23 24  0  0  0  0  0  0  0  0999 V2000
    3.1443   -0.4935   -0.0971 C   0  0  0  0  0  0  0  0  0  0  0  0
    2.0939    0.5713    0.1648 C   0  0  0  0  0  0  0  0  0  0  0  0
    0.7701    0.0430   -0.3487 C   0  0  0  0  0  0  0  0  0  0  0  0
    0.3705   -1.2007    0.3210 C   0  0  0  0  0  0  0  0  0  0  0  0
   -0.9244   -1.1741    0.5547 C   0  0  0  0  0  0  0  0  0  0  0  0
   -1.5131    0.0777    0.0695 C   0  0  0  0  0  0  0  0  0  0  0  0
   -2.7698    0.5283    0.6551 C   0  0  0  0  0  0  0  0  0  0  0  0
   -2.6932    0.1113   -0.8218 C   0  0  0  0  0  0  0  0  0  0  0  0
   -0.3498    1.0185   -0.1609 C   0  0  0  0  0  0  0  0  0  0  0  0
    4.1688   -0.0902   -0.0172 H   0  0  0  0  0  0  0  0  0  0  0  0
    2.9512   -1.3061    0.6542 H   0  0  0  0  0  0  0  0  0  0  0  0
    2.9800   -0.9838   -1.0982 H   0  0  0  0  0  0  0  0  0  0  0  0
    2.3289    1.5055   -0.3861 H   0  0  0  0  0  0  0  0  0  0  0  0
    2.0847    0.7755    1.2302 H   0  0  0  0  0  0  0  0  0  0  0  0
    0.8391   -0.1900   -1.4473 H   0  0  0  0  0  0  0  0  0  0  0  0
    1.0245   -2.0109    0.5834 H   0  0  0  0  0  0  0  0  0  0  0  0
   -1.5413   -1.9526    1.0422 H   0  0  0  0  0  0  0  0  0  0  0  0
   -3.3441   -0.1728    1.3053 H   0  0  0  0  0  0  0  0  0  0  0  0
   -2.9424    1.6013    0.8718 H   0  0  0  0  0  0  0  0  0  0  0  0
   -2.8121    0.9277   -1.5541 H   0  0  0  0  0  0  0  0  0  0  0  0
   -3.1210   -0.8748   -1.0942 H   0  0  0  0  0  0  0  0  0  0  0  0
   -0.2016    1.7141    0.6761 H   0  0  0  0  0  0  0  0  0  0  0  0
   -0.5432    1.5754   -1.1026 H   0  0  0  0  0  0  0  0  0  0  0  0
  1  2  1  0
  2  3  1  0
  3  4  1  0
  4  5  2  0
  5  6  1  0
  6  7  1  0
  7  8  1  0
  6  9  1  0
  9  3  1  0
  8  6  1  0
  1 10  1  0
  1 11  1  0
  1 12  1  0
  2 13  1  0
  2 14  1  0
  3 15  1  0
  4 16  1  0
  5 17  1  0
  7 18  1  0
  7 19  1  0
  8 20  1  0
  8 21  1  0
  9 22  1  0
  9 23  1  0
M  END
