
     RDKit          3D

 23 23  0  0  0  0  0  0  0  0999 V2000
    2.8623   -0.3340    0.5335 C   0  0  0  0  0  0  0  0  0  0  0  0
    1.7518   -0.5766   -0.4422 C   0  0  0  0  0  0  0  0  0  0  0  0
    0.4052   -0.2698    0.1292 C   0  0  0  0  0  0  0  0  0  0  0  0
   -0.4897    0.6079   -0.2899 C   0  0  0  0  0  0  0  0  0  0  0  0
   -0.2838    1.4865   -1.4749 C   0  0  0  0  0  0  0  0  0  0  0  0
   -1.6815    0.5649    0.5905 C   0  0  0  0  0  0  0  0  0  0  0  0
   -2.7306   -0.2569   -0.1343 C   0  0  0  0  0  0  0  0  0  0  0  0
   -1.2695   -0.1495    1.7098 O   0  0  0  0  0  0  0  0  0  0  0  0
   -0.1975   -0.9231    1.3216 C   0  0  0  0  0  0  0  0  0  0  0  0
    3.8055   -0.0001    0.0284 H   0  0  0  0  0  0  0  0  0  0  0  0
    3.1405   -1.3002    1.0345 H   0  0  0  0  0  0  0  0  0  0  0  0
    2.6291    0.4114    1.3012 H   0  0  0  0  0  0  0  0  0  0  0  0
    1.7118   -1.6590   -0.7332 H   0  0  0  0  0  0  0  0  0  0  0  0
    1.9645   -0.0168   -1.3555 H   0  0  0  0  0  0  0  0  0  0  0  0
   -0.8372    2.4439   -1.3426 H   0  0  0  0  0  0  0  0  0  0  0  0
   -0.6233    0.9453   -2.3846 H   0  0  0  0  0  0  0  0  0  0  0  0
    0.7779    1.7531   -1.5792 H   0  0  0  0  0  0  0  0  0  0  0  0
   -2.0777    1.5621    0.8364 H   0  0  0  0  0  0  0  0  0  0  0  0
   -3.6556   -0.3834    0.4418 H   0  0  0  0  0  0  0  0  0  0  0  0
   -2.9572    0.2300   -1.1213 H   0  0  0  0  0  0  0  0  0  0  0  0
   -2.2970   -1.2499   -0.3863 H   0  0  0  0  0  0  0  0  0  0  0  0
    0.5331   -0.9054    2.1829 H   0  0  0  0  0  0  0  0  0  0  0  0
   -0.4808   -1.9805    1.1343 H   0  0  0  0  0  0  0  0  0  0  0  0
  1  2  1  0
  2  3  1  0
  3  4  2  0
  4  5  1  0
  4  6  1  0
  6  7  1  0
  6  8  1  0
  8  9  1  0
  9  3  1  0
  1 10  1  0
  1 11  1  0
  1 12  1  0
  2 13  1  0
  2 14  1  0
  5 15  1  0
  5 16  1  0
  5 17  1  0
  6 18  1  0
  7 19  1  0
  7 20  1  0
  7 21  1  0
  9 22  1  0
  9 23  1  0
M  END
