
     RDKit          3D

 25 25  0  0  0  0  0  0  0  0999 V2000
    2.9204    0.5183    0.0471 C   0  0  0  0  0  0  0  0  0  0  0  0
    1.6110    0.4314    0.8278 C   0  0  0  0  0  0  0  0  0  0  0  0
    0.6432   -0.3429   -0.0375 C   0  0  0  0  0  0  0  0  0  0  0  0
    0.4051    0.3436   -1.3637 C   0  0  0  0  0  0  0  0  0  0  0  0
   -0.7685   -0.2797   -1.7912 O   0  0  0  0  0  0  0  0  0  0  0  0
   -1.6050   -0.2265   -0.6967 C   0  0  0  0  0  0  0  0  0  0  0  0
   -2.3372    1.0839   -0.5754 C   0  0  0  0  0  0  0  0  0  0  0  0
   -0.7405   -0.4072    0.5387 C   0  0  0  0  0  0  0  0  0  0  0  0
   -1.0655   -1.7083    1.1997 C   0  0  0  0  0  0  0  0  0  0  0  0
    2.9609   -0.2399   -0.7561 H   0  0  0  0  0  0  0  0  0  0  0  0
    3.0692    1.5003   -0.4039 H   0  0  0  0  0  0  0  0  0  0  0  0
    3.7919    0.3175    0.7129 H   0  0  0  0  0  0  0  0  0  0  0  0
    1.2876    1.4726    0.9913 H   0  0  0  0  0  0  0  0  0  0  0  0
    1.7363   -0.0394    1.8109 H   0  0  0  0  0  0  0  0  0  0  0  0
    1.0220   -1.3602   -0.2603 H   0  0  0  0  0  0  0  0  0  0  0  0
    0.2246    1.4206   -1.2444 H   0  0  0  0  0  0  0  0  0  0  0  0
    1.2428    0.1512   -2.0810 H   0  0  0  0  0  0  0  0  0  0  0  0
   -2.3193   -1.0949   -0.8015 H   0  0  0  0  0  0  0  0  0  0  0  0
   -3.2273    0.8799    0.0892 H   0  0  0  0  0  0  0  0  0  0  0  0
   -2.7070    1.4609   -1.5491 H   0  0  0  0  0  0  0  0  0  0  0  0
   -1.6641    1.8263   -0.0980 H   0  0  0  0  0  0  0  0  0  0  0  0
   -0.8961    0.4250    1.2670 H   0  0  0  0  0  0  0  0  0  0  0  0
   -1.8166   -1.5096    2.0040 H   0  0  0  0  0  0  0  0  0  0  0  0
   -0.2107   -2.2070    1.6740 H   0  0  0  0  0  0  0  0  0  0  0  0
   -1.5573   -2.4155    0.4963 H   0  0  0  0  0  0  0  0  0  0  0  0
  1  2  1  0
  2  3  1  0
  3  4  1  0
  4  5  1  0
  5  6  1  0
  6  7  1  0
  6  8  1  0
  8  9  1  0
  8  3  1  0
  1 10  1  0
  1 11  1  0
  1 12  1  0
  2 13  1  0
  2 14  1  0
  3 15  1  0
  4 16  1  0
  4 17  1  0
  6 18  1  0
  7 19  1  0
  7 20  1  0
  7 21  1  0
  8 22  1  0
  9 23  1  0
  9 24  1  0
  9 25  1  0
M  END
