
     RDKit          3D

 25 25  0  0  0  0  0  0  0  0999 V2000
   -2.3038   -1.1862    0.1634 C   0  0  0  0  0  0  0  0  0  0  0  0
   -1.2882   -0.4882   -0.7514 C   0  0  0  0  0  0  0  0  0  0  0  0
   -0.2755    0.1589    0.1316 C   0  0  0  0  0  0  0  0  0  0  0  0
   -0.8114    1.0868    0.9854 O   0  0  0  0  0  0  0  0  0  0  0  0
   -1.4285    2.0979    0.2676 C   0  0  0  0  0  0  0  0  0  0  0  0
    0.6325   -0.8745    0.7516 C   0  0  0  0  0  0  0  0  0  0  0  0
    1.8372   -0.0444    0.3902 C   0  0  0  0  0  0  0  0  0  0  0  0
    2.9226   -0.7402   -0.3589 C   0  0  0  0  0  0  0  0  0  0  0  0
    0.9373    0.7268   -0.5721 C   0  0  0  0  0  0  0  0  0  0  0  0
   -1.8893   -2.1510    0.5278 H   0  0  0  0  0  0  0  0  0  0  0  0
   -3.2371   -1.3171   -0.4179 H   0  0  0  0  0  0  0  0  0  0  0  0
   -2.5443   -0.5858    1.0463 H   0  0  0  0  0  0  0  0  0  0  0  0
   -1.7712    0.1893   -1.4642 H   0  0  0  0  0  0  0  0  0  0  0  0
   -0.8191   -1.3367   -1.3320 H   0  0  0  0  0  0  0  0  0  0  0  0
   -1.8417    2.8195    1.0316 H   0  0  0  0  0  0  0  0  0  0  0  0
   -0.7857    2.5849   -0.4713 H   0  0  0  0  0  0  0  0  0  0  0  0
   -2.3397    1.7470   -0.2817 H   0  0  0  0  0  0  0  0  0  0  0  0
    0.6017   -1.8601    0.2228 H   0  0  0  0  0  0  0  0  0  0  0  0
    0.4185   -0.9609    1.8374 H   0  0  0  0  0  0  0  0  0  0  0  0
    2.2076    0.5313    1.2403 H   0  0  0  0  0  0  0  0  0  0  0  0
    2.6958   -0.7826   -1.4578 H   0  0  0  0  0  0  0  0  0  0  0  0
    3.8374   -0.0823   -0.2969 H   0  0  0  0  0  0  0  0  0  0  0  0
    3.1516   -1.7572   -0.0052 H   0  0  0  0  0  0  0  0  0  0  0  0
    1.1104    1.8200   -0.3917 H   0  0  0  0  0  0  0  0  0  0  0  0
    0.9829    0.4047   -1.6127 H   0  0  0  0  0  0  0  0  0  0  0  0
  1  2  1  0
  2  3  1  0
  3  4  1  0
  4  5  1  0
  3  6  1  0
  6  7  1  0
  7  8  1  0
  7  9  1  0
  9  3  1  0
  1 10  1  0
  1 11  1  0
  1 12  1  0
  2 13  1  0
  2 14  1  0
  5 15  1  0
  5 16  1  0
  5 17  1  0
  6 18  1  0
  6 19  1  0
  7 20  1  0
  8 21  1  0
  8 22  1  0
  8 23  1  0
  9 24  1  0
  9 25  1  0
M  END
