
     RDKit          3D

 22 23  0  0  0  0  0  0  0  0999 V2000
   -2.2993   -0.4786    0.5006 C   0  0  0  0  0  0  0  0  0  0  0  0
   -0.8479   -0.7503    0.3799 C   0  0  0  0  0  0  0  0  0  0  0  0
   -0.0347    0.3190   -0.2672 C   0  0  0  0  0  0  0  0  0  0  0  0
    1.4350    0.0195   -0.3779 C   0  0  0  0  0  0  0  0  0  0  0  0
    2.0953   -0.2041    0.9889 C   0  0  0  0  0  0  0  0  0  0  0  0
    2.0182   -1.2763   -0.0303 C   0  0  0  0  0  0  0  0  0  0  0  0
   -0.3895    1.7509   -0.2132 C   0  0  0  0  0  0  0  0  0  0  0  0
   -0.7056    0.9746   -1.4480 C   0  0  0  0  0  0  0  0  0  0  0  0
   -2.8839   -0.8447   -0.3947 H   0  0  0  0  0  0  0  0  0  0  0  0
   -2.7474   -1.0230    1.3662 H   0  0  0  0  0  0  0  0  0  0  0  0
   -2.5778    0.5760    0.6199 H   0  0  0  0  0  0  0  0  0  0  0  0
   -0.7075   -1.6896   -0.1986 H   0  0  0  0  0  0  0  0  0  0  0  0
   -0.4503   -0.9719    1.4006 H   0  0  0  0  0  0  0  0  0  0  0  0
    1.9803    0.6702   -1.0902 H   0  0  0  0  0  0  0  0  0  0  0  0
    3.0173    0.3854    1.1525 H   0  0  0  0  0  0  0  0  0  0  0  0
    1.4684   -0.3057    1.8732 H   0  0  0  0  0  0  0  0  0  0  0  0
    2.9484   -1.5605   -0.5706 H   0  0  0  0  0  0  0  0  0  0  0  0
    1.4048   -2.1666    0.2245 H   0  0  0  0  0  0  0  0  0  0  0  0
   -1.1972    2.1361    0.4381 H   0  0  0  0  0  0  0  0  0  0  0  0
    0.4170    2.5022   -0.3453 H   0  0  0  0  0  0  0  0  0  0  0  0
   -1.7940    0.7863   -1.6299 H   0  0  0  0  0  0  0  0  0  0  0  0
   -0.1496    1.1508   -2.3786 H   0  0  0  0  0  0  0  0  0  0  0  0
  1  2  1  0
  2  3  1  0
  3  4  1  0
  4  5  1  0
  5  6  1  0
  3  7  1  0
  7  8  1  0
  8  3  1  0
  6  4  1  0
  1  9  1  0
  1 10  1  0
  1 11  1  0
  2 12  1  0
  2 13  1  0
  4 14  1  0
  5 15  1  0
  5 16  1  0
  6 17  1  0
  6 18  1  0
  7 19  1  0
  7 20  1  0
  8 21  1  0
  8 22  1  0
M  END
