
     RDKit          3D

 23 23  0  0  0  0  0  0  0  0999 V2000
    2.2090    1.2335   -0.4739 C   0  0  0  0  0  0  0  0  0  0  0  0
    1.2078    0.8150    0.5836 C   0  0  0  0  0  0  0  0  0  0  0  0
    0.3042   -0.3137    0.0687 C   0  0  0  0  0  0  0  0  0  0  0  0
    1.2667   -1.4633   -0.2680 C   0  0  0  0  0  0  0  0  0  0  0  0
   -0.5367   -0.7550    1.1656 C   0  0  0  0  0  0  0  0  0  0  0  0
   -1.8245   -0.5106    1.2219 C   0  0  0  0  0  0  0  0  0  0  0  0
   -2.4082    0.2548    0.0929 C   0  0  0  0  0  0  0  0  0  0  0  0
   -1.6216    0.1734   -1.1594 C   0  0  0  0  0  0  0  0  0  0  0  0
   -0.2803    0.0952   -1.0631 O   0  0  0  0  0  0  0  0  0  0  0  0
    2.4534    2.3105   -0.2865 H   0  0  0  0  0  0  0  0  0  0  0  0
    3.1150    0.5978   -0.4568 H   0  0  0  0  0  0  0  0  0  0  0  0
    1.7161    1.1808   -1.4692 H   0  0  0  0  0  0  0  0  0  0  0  0
    0.6200    1.6976    0.8868 H   0  0  0  0  0  0  0  0  0  0  0  0
    1.7896    0.4855    1.4629 H   0  0  0  0  0  0  0  0  0  0  0  0
    1.7324   -1.8718    0.6442 H   0  0  0  0  0  0  0  0  0  0  0  0
    1.9984   -1.0309   -0.9817 H   0  0  0  0  0  0  0  0  0  0  0  0
    0.6688   -2.2043   -0.8320 H   0  0  0  0  0  0  0  0  0  0  0  0
   -0.0935   -1.3144    1.9844 H   0  0  0  0  0  0  0  0  0  0  0  0
   -2.4426   -0.8479    2.0511 H   0  0  0  0  0  0  0  0  0  0  0  0
   -3.4467   -0.1600   -0.0642 H   0  0  0  0  0  0  0  0  0  0  0  0
   -2.5630    1.2963    0.4484 H   0  0  0  0  0  0  0  0  0  0  0  0
   -1.8812    1.0499   -1.8024 H   0  0  0  0  0  0  0  0  0  0  0  0
   -1.9829   -0.7185   -1.7535 H   0  0  0  0  0  0  0  0  0  0  0  0
  1  2  1  0
  2  3  1  0
  3  4  1  0
  3  5  1  0
  5  6  2  0
  6  7  1  0
  7  8  1  0
  8  9  1  0
  9  3  1  0
  1 10  1  0
  1 11  1  0
  1 12  1  0
  2 13  1  0
  2 14  1  0
  4 15  1  0
  4 16  1  0
  4 17  1  0
  5 18  1  0
  6 19  1  0
  7 20  1  0
  7 21  1  0
  8 22  1  0
  8 23  1  0
M  END
