
     RDKit          3D

 21 21  0  0  0  0  0  0  0  0999 V2000
    2.6529   -0.0591   -0.5249 C   0  0  0  0  0  0  0  0  0  0  0  0
    1.2769   -0.5988   -0.7853 C   0  0  0  0  0  0  0  0  0  0  0  0
    0.3008    0.1963    0.0764 C   0  0  0  0  0  0  0  0  0  0  0  0
    0.5718    0.0921    1.4106 O   0  0  0  0  0  0  0  0  0  0  0  0
   -0.5917   -0.0454    2.1153 C   0  0  0  0  0  0  0  0  0  0  0  0
   -1.7279   -0.0025    1.1724 C   0  0  0  0  0  0  0  0  0  0  0  0
   -2.8822    0.1791    1.4608 O   0  0  0  0  0  0  0  0  0  0  0  0
   -1.1260   -0.2278   -0.1573 C   0  0  0  0  0  0  0  0  0  0  0  0
   -1.7908    0.5818   -1.2438 C   0  0  0  0  0  0  0  0  0  0  0  0
    2.7225    0.5371    0.4067 H   0  0  0  0  0  0  0  0  0  0  0  0
    3.4248   -0.8641   -0.4491 H   0  0  0  0  0  0  0  0  0  0  0  0
    2.9430    0.6254   -1.3506 H   0  0  0  0  0  0  0  0  0  0  0  0
    1.2071   -1.6765   -0.5343 H   0  0  0  0  0  0  0  0  0  0  0  0
    0.9440   -0.4369   -1.8483 H   0  0  0  0  0  0  0  0  0  0  0  0
    0.3735    1.2672   -0.2245 H   0  0  0  0  0  0  0  0  0  0  0  0
   -0.6999    0.6655    2.9572 H   0  0  0  0  0  0  0  0  0  0  0  0
   -0.5889   -1.0854    2.5549 H   0  0  0  0  0  0  0  0  0  0  0  0
   -1.1825   -1.2964   -0.4764 H   0  0  0  0  0  0  0  0  0  0  0  0
   -2.7647    0.0818   -1.4631 H   0  0  0  0  0  0  0  0  0  0  0  0
   -1.1685    0.4442   -2.1632 H   0  0  0  0  0  0  0  0  0  0  0  0
   -1.8943    1.6224   -0.9336 H   0  0  0  0  0  0  0  0  0  0  0  0
  1  2  1  0
  2  3  1  0
  3  4  1  0
  4  5  1  0
  5  6  1  0
  6  7  2  0
  6  8  1  0
  8  9  1  0
  8  3  1  0
  1 10  1  0
  1 11  1  0
  1 12  1  0
  2 13  1  0
  2 14  1  0
  3 15  1  0
  5 16  1  0
  5 17  1  0
  8 18  1  0
  9 19  1  0
  9 20  1  0
  9 21  1  0
M  END
