
     RDKit          3D

 23 24  0  0  0  0  0  0  0  0999 V2000
   -2.9976   -0.6950   -0.1573 C   0  0  0  0  0  0  0  0  0  0  0  0
   -1.5811   -1.0051    0.1981 C   0  0  0  0  0  0  0  0  0  0  0  0
   -0.7693    0.2386    0.5007 C   0  0  0  0  0  0  0  0  0  0  0  0
   -0.6896    1.2067   -0.6409 C   0  0  0  0  0  0  0  0  0  0  0  0
    0.5626    1.7345   -0.0068 C   0  0  0  0  0  0  0  0  0  0  0  0
    0.6242    0.2267    0.0096 C   0  0  0  0  0  0  0  0  0  0  0  0
    1.6918   -0.5217    0.4772 C   0  0  0  0  0  0  0  0  0  0  0  0
    3.0301   -0.3406   -0.2149 C   0  0  0  0  0  0  0  0  0  0  0  0
    0.1221    0.2730   -1.2672 O   0  0  0  0  0  0  0  0  0  0  0  0
   -3.1391   -0.7972   -1.2670 H   0  0  0  0  0  0  0  0  0  0  0  0
   -3.3082    0.3313    0.1133 H   0  0  0  0  0  0  0  0  0  0  0  0
   -3.7321   -1.3941    0.2955 H   0  0  0  0  0  0  0  0  0  0  0  0
   -1.0875   -1.5212   -0.6465 H   0  0  0  0  0  0  0  0  0  0  0  0
   -1.5702   -1.6942    1.0657 H   0  0  0  0  0  0  0  0  0  0  0  0
   -0.9859    0.6971    1.4738 H   0  0  0  0  0  0  0  0  0  0  0  0
   -1.4411    1.7377   -1.0480 H   0  0  0  0  0  0  0  0  0  0  0  0
    0.4195    2.1866    0.9836 H   0  0  0  0  0  0  0  0  0  0  0  0
    1.2888    2.2265   -0.6775 H   0  0  0  0  0  0  0  0  0  0  0  0
    1.4941   -1.6184    0.4640 H   0  0  0  0  0  0  0  0  0  0  0  0
    1.9052   -0.3031    1.5671 H   0  0  0  0  0  0  0  0  0  0  0  0
    3.0734    0.6204   -0.7679 H   0  0  0  0  0  0  0  0  0  0  0  0
    3.2058   -1.1832   -0.9473 H   0  0  0  0  0  0  0  0  0  0  0  0
    3.8842   -0.4055    0.4927 H   0  0  0  0  0  0  0  0  0  0  0  0
  1  2  1  0
  2  3  1  0
  3  4  1  0
  4  5  1  0
  5  6  1  0
  6  7  1  0
  7  8  1  0
  6  9  1  0
  6  3  1  0
  9  4  1  0
  1 10  1  0
  1 11  1  0
  1 12  1  0
  2 13  1  0
  2 14  1  0
  3 15  1  0
  4 16  1  0
  5 17  1  0
  5 18  1  0
  7 19  1  0
  7 20  1  0
  8 21  1  0
  8 22  1  0
  8 23  1  0
M  END
