
     RDKit          3D

 25 26  0  0  0  0  0  0  0  0999 V2000
    2.4488   -1.0691   -0.6074 C   0  0  0  0  0  0  0  0  0  0  0  0
    1.0706   -0.5307   -1.0057 C   0  0  0  0  0  0  0  0  0  0  0  0
    0.3449   -0.1664    0.2283 C   0  0  0  0  0  0  0  0  0  0  0  0
    1.0085    0.8904    1.0821 C   0  0  0  0  0  0  0  0  0  0  0  0
   -0.3126    1.1081    0.4847 C   0  0  0  0  0  0  0  0  0  0  0  0
   -0.6293    2.1247   -0.5340 C   0  0  0  0  0  0  0  0  0  0  0  0
   -1.4430    0.4279    1.2722 C   0  0  0  0  0  0  0  0  0  0  0  0
   -0.8651   -0.8796    0.7078 C   0  0  0  0  0  0  0  0  0  0  0  0
   -1.7997   -1.4304   -0.3119 C   0  0  0  0  0  0  0  0  0  0  0  0
    2.3215   -2.1677   -0.4216 H   0  0  0  0  0  0  0  0  0  0  0  0
    3.1958   -0.8709   -1.3958 H   0  0  0  0  0  0  0  0  0  0  0  0
    2.7202   -0.6073    0.3621 H   0  0  0  0  0  0  0  0  0  0  0  0
    1.2573    0.4129   -1.5977 H   0  0  0  0  0  0  0  0  0  0  0  0
    0.5759   -1.2237   -1.6822 H   0  0  0  0  0  0  0  0  0  0  0  0
    1.8516    1.4265    0.6602 H   0  0  0  0  0  0  0  0  0  0  0  0
    1.1339    0.5871    2.1358 H   0  0  0  0  0  0  0  0  0  0  0  0
    0.0119    2.1165   -1.4303 H   0  0  0  0  0  0  0  0  0  0  0  0
   -1.6791    1.9529   -0.8910 H   0  0  0  0  0  0  0  0  0  0  0  0
   -0.5670    3.1742   -0.1277 H   0  0  0  0  0  0  0  0  0  0  0  0
   -1.2544    0.4942    2.3614 H   0  0  0  0  0  0  0  0  0  0  0  0
   -2.4405    0.6803    0.9162 H   0  0  0  0  0  0  0  0  0  0  0  0
   -0.6327   -1.6216    1.5131 H   0  0  0  0  0  0  0  0  0  0  0  0
   -1.4055   -1.5351   -1.3185 H   0  0  0  0  0  0  0  0  0  0  0  0
   -2.7573   -0.8385   -0.4029 H   0  0  0  0  0  0  0  0  0  0  0  0
   -2.1546   -2.4548    0.0030 H   0  0  0  0  0  0  0  0  0  0  0  0
  1  2  1  0
  2  3  1  0
  3  4  1  0
  4  5  1  0
  5  6  1  0
  5  7  1  0
  7  8  1  0
  8  9  1  0
  5  3  1  0
  8  3  1  0
  1 10  1  0
  1 11  1  0
  1 12  1  0
  2 13  1  0
  2 14  1  0
  4 15  1  0
  4 16  1  0
  6 17  1  0
  6 18  1  0
  6 19  1  0
  7 20  1  0
  7 21  1  0
  8 22  1  0
  9 23  1  0
  9 24  1  0
  9 25  1  0
M  END
