
     RDKit          3D

 20 21  0  0  0  0  0  0  0  0999 V2000
    2.2989   -0.0585   -0.5973 C   0  0  0  0  0  0  0  0  0  0  0  0
    1.5118    0.5111    0.5901 C   0  0  0  0  0  0  0  0  0  0  0  0
    0.1036    0.3082    0.3730 C   0  0  0  0  0  0  0  0  0  0  0  0
   -0.3961   -1.1366    0.2146 C   0  0  0  0  0  0  0  0  0  0  0  0
   -1.7079   -0.5081    0.6175 C   0  0  0  0  0  0  0  0  0  0  0  0
   -1.9051    0.4517   -0.5219 C   0  0  0  0  0  0  0  0  0  0  0  0
   -0.5791    0.9519   -0.6237 O   0  0  0  0  0  0  0  0  0  0  0  0
   -0.8591    0.3795    1.5403 C   0  0  0  0  0  0  0  0  0  0  0  0
    2.5894   -1.1224   -0.3556 H   0  0  0  0  0  0  0  0  0  0  0  0
    1.6292   -0.0990   -1.4606 H   0  0  0  0  0  0  0  0  0  0  0  0
    3.1777    0.5849   -0.7347 H   0  0  0  0  0  0  0  0  0  0  0  0
    1.7744    1.5558    0.7379 H   0  0  0  0  0  0  0  0  0  0  0  0
    1.8431   -0.0392    1.5002 H   0  0  0  0  0  0  0  0  0  0  0  0
   -0.4175   -1.3828   -0.8579 H   0  0  0  0  0  0  0  0  0  0  0  0
    0.0413   -1.8488    0.9045 H   0  0  0  0  0  0  0  0  0  0  0  0
   -2.4868   -1.0711    1.0228 H   0  0  0  0  0  0  0  0  0  0  0  0
   -2.1798   -0.0522   -1.4673 H   0  0  0  0  0  0  0  0  0  0  0  0
   -2.5960    1.2687   -0.2616 H   0  0  0  0  0  0  0  0  0  0  0  0
   -1.2971    1.3919    1.5907 H   0  0  0  0  0  0  0  0  0  0  0  0
   -0.5451   -0.0852    2.4663 H   0  0  0  0  0  0  0  0  0  0  0  0
  1  2  1  0
  2  3  1  0
  3  4  1  0
  4  5  1  0
  5  6  1  0
  6  7  1  0
  5  8  1  0
  7  3  1  0
  8  3  1  0
  1  9  1  0
  1 10  1  0
  1 11  1  0
  2 12  1  0
  2 13  1  0
  4 14  1  0
  4 15  1  0
  5 16  1  0
  6 17  1  0
  6 18  1  0
  8 19  1  0
  8 20  1  0
M  END
