
     RDKit          3D

 19 21  0  0  0  0  0  0  0  0999 V2000
    2.4947   -0.4652    0.3749 C   0  0  0  0  0  0  0  0  0  0  0  0
    1.3126   -0.6195   -0.5853 C   0  0  0  0  0  0  0  0  0  0  0  0
    0.1450    0.0993   -0.0338 C   0  0  0  0  0  0  0  0  0  0  0  0
   -0.3007   -0.3357    1.2161 O   0  0  0  0  0  0  0  0  0  0  0  0
   -1.1659   -0.0569    0.0432 C   0  0  0  0  0  0  0  0  0  0  0  0
   -2.2213   -1.0439   -0.0918 C   0  0  0  0  0  0  0  0  0  0  0  0
   -1.4770    1.4180   -0.0448 C   0  0  0  0  0  0  0  0  0  0  0  0
   -0.9065    2.1101   -1.0867 O   0  0  0  0  0  0  0  0  0  0  0  0
    0.0386    1.6115   -0.2113 C   0  0  0  0  0  0  0  0  0  0  0  0
    2.6463   -1.4396    0.9048 H   0  0  0  0  0  0  0  0  0  0  0  0
    2.2887    0.3136    1.1336 H   0  0  0  0  0  0  0  0  0  0  0  0
    3.4275   -0.2347   -0.1490 H   0  0  0  0  0  0  0  0  0  0  0  0
    1.1435   -1.6551   -0.8813 H   0  0  0  0  0  0  0  0  0  0  0  0
    1.6404   -0.0704   -1.5178 H   0  0  0  0  0  0  0  0  0  0  0  0
   -3.1371   -0.6868    0.4668 H   0  0  0  0  0  0  0  0  0  0  0  0
   -1.9923   -2.0309    0.3133 H   0  0  0  0  0  0  0  0  0  0  0  0
   -2.5683   -1.0798   -1.1645 H   0  0  0  0  0  0  0  0  0  0  0  0
   -1.9282    1.9236    0.8085 H   0  0  0  0  0  0  0  0  0  0  0  0
    0.5600    2.2423    0.5051 H   0  0  0  0  0  0  0  0  0  0  0  0
  1  2  1  0
  2  3  1  0
  3  4  1  0
  4  5  1  0
  5  6  1  0
  5  7  1  0
  7  8  1  0
  8  9  1  0
  5  3  1  0
  9  7  1  0
  9  3  1  0
  1 10  1  0
  1 11  1  0
  1 12  1  0
  2 13  1  0
  2 14  1  0
  6 15  1  0
  6 16  1  0
  6 17  1  0
  7 18  1  0
  9 19  1  0
M  END
