
     RDKit          3D

 23 24  0  0  0  0  0  0  0  0999 V2000
    2.4125    0.6899   -0.0851 C   0  0  0  0  0  0  0  0  0  0  0  0
    1.5168   -0.4666   -0.4193 C   0  0  0  0  0  0  0  0  0  0  0  0
    0.0679   -0.2089   -0.2019 C   0  0  0  0  0  0  0  0  0  0  0  0
   -0.7667   -1.4050   -0.5556 C   0  0  0  0  0  0  0  0  0  0  0  0
   -1.8801   -1.3355    0.4675 C   0  0  0  0  0  0  0  0  0  0  0  0
   -1.3338   -0.7419    1.5841 O   0  0  0  0  0  0  0  0  0  0  0  0
   -0.3984    0.2006    1.1359 C   0  0  0  0  0  0  0  0  0  0  0  0
   -1.1544    1.3877    0.5250 C   0  0  0  0  0  0  0  0  0  0  0  0
   -0.4282    1.1019   -0.7667 C   0  0  0  0  0  0  0  0  0  0  0  0
    2.2711    1.0641    0.9514 H   0  0  0  0  0  0  0  0  0  0  0  0
    3.4640    0.2799   -0.1025 H   0  0  0  0  0  0  0  0  0  0  0  0
    2.3953    1.4844   -0.8445 H   0  0  0  0  0  0  0  0  0  0  0  0
    1.8554   -1.3314    0.1865 H   0  0  0  0  0  0  0  0  0  0  0  0
    1.6796   -0.7274   -1.4745 H   0  0  0  0  0  0  0  0  0  0  0  0
   -1.1232   -1.3854   -1.5836 H   0  0  0  0  0  0  0  0  0  0  0  0
   -0.1456   -2.3138   -0.3221 H   0  0  0  0  0  0  0  0  0  0  0  0
   -2.1797   -2.3890    0.7041 H   0  0  0  0  0  0  0  0  0  0  0  0
   -2.7463   -0.7813    0.0649 H   0  0  0  0  0  0  0  0  0  0  0  0
    0.3241    0.4701    1.9030 H   0  0  0  0  0  0  0  0  0  0  0  0
   -2.2285    1.2403    0.4161 H   0  0  0  0  0  0  0  0  0  0  0  0
   -0.8896    2.3614    0.9857 H   0  0  0  0  0  0  0  0  0  0  0  0
    0.3873    1.8371   -0.9125 H   0  0  0  0  0  0  0  0  0  0  0  0
   -1.0996    0.9686   -1.6559 H   0  0  0  0  0  0  0  0  0  0  0  0
  1  2  1  0
  2  3  1  0
  3  4  1  0
  4  5  1  0
  5  6  1  0
  6  7  1  0
  7  8  1  0
  8  9  1  0
  7  3  1  0
  9  3  1  0
  1 10  1  0
  1 11  1  0
  1 12  1  0
  2 13  1  0
  2 14  1  0
  4 15  1  0
  4 16  1  0
  5 17  1  0
  5 18  1  0
  7 19  1  0
  8 20  1  0
  8 21  1  0
  9 22  1  0
  9 23  1  0
M  END
