
     RDKit          3D

 19 19  0  0  0  0  0  0  0  0999 V2000
    2.2485   -0.6844   -0.1517 C   0  0  0  0  0  0  0  0  0  0  0  0
    1.6591    0.4730    0.5745 C   0  0  0  0  0  0  0  0  0  0  0  0
    0.1719    0.6124    0.3891 C   0  0  0  0  0  0  0  0  0  0  0  0
   -0.5221   -0.6086    0.8838 C   0  0  0  0  0  0  0  0  0  0  0  0
   -1.6347   -1.0496    0.3281 C   0  0  0  0  0  0  0  0  0  0  0  0
   -2.1587   -0.2842   -0.7988 C   0  0  0  0  0  0  0  0  0  0  0  0
   -3.0356   -0.7292   -1.5658 O   0  0  0  0  0  0  0  0  0  0  0  0
   -1.5585    1.0839   -0.9633 C   0  0  0  0  0  0  0  0  0  0  0  0
   -0.1792    0.9037   -0.9210 O   0  0  0  0  0  0  0  0  0  0  0  0
    2.3016   -1.5945    0.4960 H   0  0  0  0  0  0  0  0  0  0  0  0
    1.6476   -0.9780   -1.0404 H   0  0  0  0  0  0  0  0  0  0  0  0
    3.2894   -0.5063   -0.5114 H   0  0  0  0  0  0  0  0  0  0  0  0
    2.1530    1.4063    0.2263 H   0  0  0  0  0  0  0  0  0  0  0  0
    1.8501    0.3667    1.6593 H   0  0  0  0  0  0  0  0  0  0  0  0
   -0.1860    1.4507    1.0214 H   0  0  0  0  0  0  0  0  0  0  0  0
   -0.0800   -1.1372    1.7304 H   0  0  0  0  0  0  0  0  0  0  0  0
   -2.1396   -1.9220    0.6739 H   0  0  0  0  0  0  0  0  0  0  0  0
   -1.9367    1.6715   -0.0933 H   0  0  0  0  0  0  0  0  0  0  0  0
   -1.8900    1.5257   -1.9372 H   0  0  0  0  0  0  0  0  0  0  0  0
  1  2  1  0
  2  3  1  0
  3  4  1  0
  4  5  2  0
  5  6  1  0
  6  7  2  0
  6  8  1  0
  8  9  1  0
  9  3  1  0
  1 10  1  0
  1 11  1  0
  1 12  1  0
  2 13  1  0
  2 14  1  0
  3 15  1  0
  4 16  1  0
  5 17  1  0
  8 18  1  0
  8 19  1  0
M  END
