
     RDKit          3D

 20 21  0  0  0  0  0  0  0  0999 V2000
    2.2610    0.2627    0.6579 C   0  0  0  0  0  0  0  0  0  0  0  0
    1.2721   -0.5840   -0.1658 C   0  0  0  0  0  0  0  0  0  0  0  0
    0.3066    0.3315   -0.7301 C   0  0  0  0  0  0  0  0  0  0  0  0
   -0.8295   -0.1733   -1.6141 C   0  0  0  0  0  0  0  0  0  0  0  0
   -1.4689   -0.5303   -0.2965 C   0  0  0  0  0  0  0  0  0  0  0  0
   -1.8355    0.2781    0.8268 C   0  0  0  0  0  0  0  0  0  0  0  0
   -1.4692   -0.0051    2.1720 O   0  0  0  0  0  0  0  0  0  0  0  0
   -0.8287    0.8775    0.0394 C   0  0  0  0  0  0  0  0  0  0  0  0
    3.2524   -0.2172    0.6118 H   0  0  0  0  0  0  0  0  0  0  0  0
    1.9529    0.2005    1.7427 H   0  0  0  0  0  0  0  0  0  0  0  0
    2.2371    1.3113    0.3652 H   0  0  0  0  0  0  0  0  0  0  0  0
    1.8976   -1.0090   -1.0072 H   0  0  0  0  0  0  0  0  0  0  0  0
    1.0144   -1.4087    0.4652 H   0  0  0  0  0  0  0  0  0  0  0  0
    0.8594    1.1164   -1.3321 H   0  0  0  0  0  0  0  0  0  0  0  0
   -1.3563    0.6911   -2.0568 H   0  0  0  0  0  0  0  0  0  0  0  0
   -0.6131   -1.0108   -2.2587 H   0  0  0  0  0  0  0  0  0  0  0  0
   -0.9546   -1.4383    0.0744 H   0  0  0  0  0  0  0  0  0  0  0  0
   -2.9293    0.5792    0.8416 H   0  0  0  0  0  0  0  0  0  0  0  0
   -1.4762   -0.9928    2.2454 H   0  0  0  0  0  0  0  0  0  0  0  0
   -1.2920    1.7211   -0.5811 H   0  0  0  0  0  0  0  0  0  0  0  0
  1  2  1  0
  2  3  1  0
  3  4  1  0
  4  5  1  0
  5  6  1  0
  6  7  1  0
  6  8  1  0
  8  3  1  0
  8  5  1  0
  1  9  1  0
  1 10  1  0
  1 11  1  0
  2 12  1  0
  2 13  1  0
  3 14  1  0
  4 15  1  0
  4 16  1  0
  5 17  1  0
  6 18  1  0
  7 19  1  0
  8 20  1  0
M  END
