
     RDKit          3D

 23 24  0  0  0  0  0  0  0  0999 V2000
   -1.8716   -1.3567   -0.7194 C   0  0  0  0  0  0  0  0  0  0  0  0
   -0.4009   -1.2467   -0.4948 C   0  0  0  0  0  0  0  0  0  0  0  0
    0.0789    0.1598   -0.1913 C   0  0  0  0  0  0  0  0  0  0  0  0
    1.5509    0.1548    0.0136 C   0  0  0  0  0  0  0  0  0  0  0  0
    1.9507   -0.7573    1.1872 C   0  0  0  0  0  0  0  0  0  0  0  0
   -0.6852    0.9295    0.7915 C   0  0  0  0  0  0  0  0  0  0  0  0
   -0.2449    2.1926    0.1522 C   0  0  0  0  0  0  0  0  0  0  0  0
   -0.5770    1.2445   -0.9326 C   0  0  0  0  0  0  0  0  0  0  0  0
   -1.7152    0.9615   -0.1593 O   0  0  0  0  0  0  0  0  0  0  0  0
   -2.2424   -0.7925   -1.6013 H   0  0  0  0  0  0  0  0  0  0  0  0
   -2.4863   -1.2108    0.1905 H   0  0  0  0  0  0  0  0  0  0  0  0
   -2.0499   -2.4390   -0.9988 H   0  0  0  0  0  0  0  0  0  0  0  0
   -0.1243   -1.9614    0.3022 H   0  0  0  0  0  0  0  0  0  0  0  0
    0.1065   -1.5524   -1.4340 H   0  0  0  0  0  0  0  0  0  0  0  0
    2.0227    1.1187    0.2338 H   0  0  0  0  0  0  0  0  0  0  0  0
    2.0269   -0.3361   -0.8885 H   0  0  0  0  0  0  0  0  0  0  0  0
    1.9013   -1.8270    0.8848 H   0  0  0  0  0  0  0  0  0  0  0  0
    3.0227   -0.5456    1.3779 H   0  0  0  0  0  0  0  0  0  0  0  0
    1.3876   -0.5227    2.0956 H   0  0  0  0  0  0  0  0  0  0  0  0
   -0.8303    0.7600    1.7778 H   0  0  0  0  0  0  0  0  0  0  0  0
    0.7571    2.5726    0.2813 H   0  0  0  0  0  0  0  0  0  0  0  0
   -0.9775    3.0369    0.2839 H   0  0  0  0  0  0  0  0  0  0  0  0
   -0.5997    1.4173   -1.9279 H   0  0  0  0  0  0  0  0  0  0  0  0
  1  2  1  0
  2  3  1  0
  3  4  1  0
  4  5  1  0
  3  6  1  0
  6  7  1  0
  7  8  1  0
  8  9  1  0
  8  3  1  0
  9  6  1  0
  1 10  1  0
  1 11  1  0
  1 12  1  0
  2 13  1  0
  2 14  1  0
  4 15  1  0
  4 16  1  0
  5 17  1  0
  5 18  1  0
  5 19  1  0
  6 20  1  0
  7 21  1  0
  7 22  1  0
  8 23  1  0
M  END
