
     RDKit          3D

 21 22  0  0  0  0  0  0  0  0999 V2000
    1.8110   -0.8951   -0.5235 C   0  0  0  0  0  0  0  0  0  0  0  0
    1.2904   -0.1172    0.6387 C   0  0  0  0  0  0  0  0  0  0  0  0
   -0.0688    0.4595    0.4583 C   0  0  0  0  0  0  0  0  0  0  0  0
   -1.2704   -0.3815    0.1952 C   0  0  0  0  0  0  0  0  0  0  0  0
   -1.0634   -1.8234   -0.1038 C   0  0  0  0  0  0  0  0  0  0  0  0
   -1.5719    0.4445   -0.8881 O   0  0  0  0  0  0  0  0  0  0  0  0
   -0.4589    1.2329   -0.7373 C   0  0  0  0  0  0  0  0  0  0  0  0
   -0.2706    1.9429    0.5217 C   0  0  0  0  0  0  0  0  0  0  0  0
   -1.3244    2.3538    1.3209 O   0  0  0  0  0  0  0  0  0  0  0  0
    1.0259   -0.9526   -1.2982 H   0  0  0  0  0  0  0  0  0  0  0  0
    2.1632   -1.9203   -0.2023 H   0  0  0  0  0  0  0  0  0  0  0  0
    2.7434   -0.4292   -0.9601 H   0  0  0  0  0  0  0  0  0  0  0  0
    1.2602   -0.7491    1.5742 H   0  0  0  0  0  0  0  0  0  0  0  0
    1.9955    0.7117    0.8446 H   0  0  0  0  0  0  0  0  0  0  0  0
   -2.0384   -0.2188    1.0053 H   0  0  0  0  0  0  0  0  0  0  0  0
   -1.9407   -2.4061    0.3044 H   0  0  0  0  0  0  0  0  0  0  0  0
   -0.1502   -2.2636    0.3318 H   0  0  0  0  0  0  0  0  0  0  0  0
   -1.1274   -2.0067   -1.2168 H   0  0  0  0  0  0  0  0  0  0  0  0
    0.2075    1.3715   -1.6075 H   0  0  0  0  0  0  0  0  0  0  0  0
    0.6453    2.5598    0.6427 H   0  0  0  0  0  0  0  0  0  0  0  0
   -1.8573    3.0867    0.9178 H   0  0  0  0  0  0  0  0  0  0  0  0
  1  2  1  0
  2  3  1  0
  3  4  1  0
  4  5  1  0
  4  6  1  0
  6  7  1  0
  7  8  1  0
  8  9  1  0
  7  3  1  0
  8  3  1  0
  1 10  1  0
  1 11  1  0
  1 12  1  0
  2 13  1  0
  2 14  1  0
  4 15  1  0
  5 16  1  0
  5 17  1  0
  5 18  1  0
  7 19  1  0
  8 20  1  0
  9 21  1  0
M  END
