
     RDKit          3D

 19 20  0  0  0  0  0  0  0  0999 V2000
    2.4234   -0.2384   -0.2939 C   0  0  0  0  0  0  0  0  0  0  0  0
    1.2664    0.7338   -0.5171 C   0  0  0  0  0  0  0  0  0  0  0  0
    0.1239    0.2812    0.3055 C   0  0  0  0  0  0  0  0  0  0  0  0
   -0.3447   -1.1015   -0.0447 C   0  0  0  0  0  0  0  0  0  0  0  0
   -1.7478   -0.5825   -0.0992 C   0  0  0  0  0  0  0  0  0  0  0  0
   -2.3096    0.2847    0.9564 C   0  0  0  0  0  0  0  0  0  0  0  0
   -1.2325    0.7970    0.0052 C   0  0  0  0  0  0  0  0  0  0  0  0
    3.3031    0.3626    0.0321 H   0  0  0  0  0  0  0  0  0  0  0  0
    2.7091   -0.7652   -1.2104 H   0  0  0  0  0  0  0  0  0  0  0  0
    2.1971   -0.9629    0.5172 H   0  0  0  0  0  0  0  0  0  0  0  0
    0.9989    0.7254   -1.5964 H   0  0  0  0  0  0  0  0  0  0  0  0
    1.5741    1.7744   -0.2883 H   0  0  0  0  0  0  0  0  0  0  0  0
    0.3463    0.3651    1.3939 H   0  0  0  0  0  0  0  0  0  0  0  0
   -0.1234   -1.8529    0.7228 H   0  0  0  0  0  0  0  0  0  0  0  0
   -0.0127   -1.3754   -1.0840 H   0  0  0  0  0  0  0  0  0  0  0  0
   -2.4146   -0.8721   -0.9388 H   0  0  0  0  0  0  0  0  0  0  0  0
   -3.3371    0.6136    0.8291 H   0  0  0  0  0  0  0  0  0  0  0  0
   -1.9726    0.2286    2.0109 H   0  0  0  0  0  0  0  0  0  0  0  0
   -1.4472    1.5846   -0.7003 H   0  0  0  0  0  0  0  0  0  0  0  0
  1  2  1  0
  2  3  1  0
  3  4  1  0
  4  5  1  0
  5  6  1  0
  6  7  1  0
  7  3  1  0
  7  5  1  0
  1  8  1  0
  1  9  1  0
  1 10  1  0
  2 11  1  0
  2 12  1  0
  3 13  1  0
  4 14  1  0
  4 15  1  0
  5 16  1  0
  6 17  1  0
  6 18  1  0
  7 19  1  0
M  END
