
     RDKit          3D

 20 20  0  0  0  0  0  0  0  0999 V2000
    1.0124   -1.6978    0.7241 C   0  0  0  0  0  0  0  0  0  0  0  0
    1.3927   -0.3128    0.4365 C   0  0  0  0  0  0  0  0  0  0  0  0
    0.3659    0.7093    0.1874 C   0  0  0  0  0  0  0  0  0  0  0  0
    1.0590    2.0691   -0.0857 C   0  0  0  0  0  0  0  0  0  0  0  0
   -0.4305    0.8720    1.4605 O   0  0  0  0  0  0  0  0  0  0  0  0
   -1.0085    0.6824    0.1047 C   0  0  0  0  0  0  0  0  0  0  0  0
   -1.9889   -0.4583    0.0774 C   0  0  0  0  0  0  0  0  0  0  0  0
   -2.5355   -0.6482   -1.1905 O   0  0  0  0  0  0  0  0  0  0  0  0
    0.4567   -1.8710    1.6513 H   0  0  0  0  0  0  0  0  0  0  0  0
    0.5583   -2.2146   -0.1685 H   0  0  0  0  0  0  0  0  0  0  0  0
    1.9755   -2.2798    0.8695 H   0  0  0  0  0  0  0  0  0  0  0  0
    2.0342    0.0548    1.2941 H   0  0  0  0  0  0  0  0  0  0  0  0
    2.0940   -0.3216   -0.4472 H   0  0  0  0  0  0  0  0  0  0  0  0
    1.6835    1.9363   -0.9703 H   0  0  0  0  0  0  0  0  0  0  0  0
    0.3177    2.8747   -0.1441 H   0  0  0  0  0  0  0  0  0  0  0  0
    1.7390    2.2178    0.7840 H   0  0  0  0  0  0  0  0  0  0  0  0
   -1.5600    1.6527   -0.1003 H   0  0  0  0  0  0  0  0  0  0  0  0
   -2.8868   -0.2393    0.7347 H   0  0  0  0  0  0  0  0  0  0  0  0
   -1.5816   -1.3957    0.5034 H   0  0  0  0  0  0  0  0  0  0  0  0
   -2.6969   -1.6298   -1.2733 H   0  0  0  0  0  0  0  0  0  0  0  0
  1  2  1  0
  2  3  1  0
  3  4  1  0
  3  5  1  0
  5  6  1  0
  6  7  1  0
  7  8  1  0
  6  3  1  0
  1  9  1  0
  1 10  1  0
  1 11  1  0
  2 12  1  0
  2 13  1  0
  4 14  1  0
  4 15  1  0
  4 16  1  0
  6 17  1  0
  7 18  1  0
  7 19  1  0
  8 20  1  0
M  END
