
     RDKit          3D

 15 15  0  0  0  0  0  0  0  0999 V2000
   -1.7883    0.0799   -0.6708 C   0  0  0  0  0  0  0  0  0  0  0  0
   -0.3513    0.6059   -0.7007 C   0  0  0  0  0  0  0  0  0  0  0  0
    0.4776   -0.0582    0.3785 C   0  0  0  0  0  0  0  0  0  0  0  0
    0.5715   -1.5214    0.2651 C   0  0  0  0  0  0  0  0  0  0  0  0
    1.2117   -2.1658    1.0764 O   0  0  0  0  0  0  0  0  0  0  0  0
    1.6688    0.6678    0.8319 C   0  0  0  0  0  0  0  0  0  0  0  0
    0.4492    0.5186    1.6460 O   0  0  0  0  0  0  0  0  0  0  0  0
   -2.3872    0.7203   -1.3308 H   0  0  0  0  0  0  0  0  0  0  0  0
   -2.1192    0.1714    0.4033 H   0  0  0  0  0  0  0  0  0  0  0  0
   -1.8480   -0.9674   -1.0105 H   0  0  0  0  0  0  0  0  0  0  0  0
    0.1134    0.4189   -1.6823 H   0  0  0  0  0  0  0  0  0  0  0  0
   -0.4237    1.6820   -0.4517 H   0  0  0  0  0  0  0  0  0  0  0  0
    0.0881   -2.0633   -0.5219 H   0  0  0  0  0  0  0  0  0  0  0  0
    2.5491    0.1938    1.2638 H   0  0  0  0  0  0  0  0  0  0  0  0
    1.7883    1.7173    0.5039 H   0  0  0  0  0  0  0  0  0  0  0  0
  1  2  1  0
  2  3  1  0
  3  4  1  0
  4  5  2  0
  3  6  1  0
  6  7  1  0
  7  3  1  0
  1  8  1  0
  1  9  1  0
  1 10  1  0
  2 11  1  0
  2 12  1  0
  4 13  1  0
  6 14  1  0
  6 15  1  0
M  END
