
     RDKit          3D

 20 20  0  0  0  0  0  0  0  0999 V2000
   -2.5381    0.7312   -0.0315 C   0  0  0  0  0  0  0  0  0  0  0  0
   -1.6787   -0.3942    0.4941 C   0  0  0  0  0  0  0  0  0  0  0  0
   -0.6764   -0.8839   -0.5006 C   0  0  0  0  0  0  0  0  0  0  0  0
    0.2728    0.1600   -0.9421 C   0  0  0  0  0  0  0  0  0  0  0  0
    1.3987    0.0626   -0.2503 C   0  0  0  0  0  0  0  0  0  0  0  0
    2.6223    0.9228   -0.3776 C   0  0  0  0  0  0  0  0  0  0  0  0
    1.2102   -1.0772    0.6862 C   0  0  0  0  0  0  0  0  0  0  0  0
    0.1673   -1.7857    0.1443 O   0  0  0  0  0  0  0  0  0  0  0  0
   -2.1692    1.7141    0.3328 H   0  0  0  0  0  0  0  0  0  0  0  0
   -3.5621    0.6070    0.3938 H   0  0  0  0  0  0  0  0  0  0  0  0
   -2.5897    0.7310   -1.1417 H   0  0  0  0  0  0  0  0  0  0  0  0
   -2.3242   -1.2500    0.7732 H   0  0  0  0  0  0  0  0  0  0  0  0
   -1.1193   -0.0975    1.4136 H   0  0  0  0  0  0  0  0  0  0  0  0
   -1.1446   -1.3984   -1.3650 H   0  0  0  0  0  0  0  0  0  0  0  0
    0.1309    0.9228   -1.7122 H   0  0  0  0  0  0  0  0  0  0  0  0
    3.2883    0.7191    0.4879 H   0  0  0  0  0  0  0  0  0  0  0  0
    3.1793    0.6682   -1.3195 H   0  0  0  0  0  0  0  0  0  0  0  0
    2.3865    1.9963   -0.3458 H   0  0  0  0  0  0  0  0  0  0  0  0
    2.1318   -1.6962    0.6569 H   0  0  0  0  0  0  0  0  0  0  0  0
    1.0142   -0.6520    1.6824 H   0  0  0  0  0  0  0  0  0  0  0  0
  1  2  1  0
  2  3  1  0
  3  4  1  0
  4  5  2  0
  5  6  1  0
  5  7  1  0
  7  8  1  0
  8  3  1  0
  1  9  1  0
  1 10  1  0
  1 11  1  0
  2 12  1  0
  2 13  1  0
  3 14  1  0
  4 15  1  0
  6 16  1  0
  6 17  1  0
  6 18  1  0
  7 19  1  0
  7 20  1  0
M  END
