
     RDKit          3D

 23 23  0  0  0  0  0  0  0  0999 V2000
   -2.0454   -1.1637    0.3280 C   0  0  0  0  0  0  0  0  0  0  0  0
   -0.6678   -1.2387   -0.2850 C   0  0  0  0  0  0  0  0  0  0  0  0
    0.1107    0.0139   -0.1930 C   0  0  0  0  0  0  0  0  0  0  0  0
    1.4672   -0.0545   -0.7949 C   0  0  0  0  0  0  0  0  0  0  0  0
    2.2934   -1.0646   -0.1168 C   0  0  0  0  0  0  0  0  0  0  0  0
    1.9368   -1.6893    0.8454 O   0  0  0  0  0  0  0  0  0  0  0  0
    0.1199    0.6876    1.1735 C   0  0  0  0  0  0  0  0  0  0  0  0
    0.0730    2.0033    0.4311 C   0  0  0  0  0  0  0  0  0  0  0  0
   -0.6031    1.2640   -0.7020 C   0  0  0  0  0  0  0  0  0  0  0  0
   -2.0036   -1.0461    1.4159 H   0  0  0  0  0  0  0  0  0  0  0  0
   -2.5018   -2.1822    0.1565 H   0  0  0  0  0  0  0  0  0  0  0  0
   -2.7108   -0.4606   -0.1688 H   0  0  0  0  0  0  0  0  0  0  0  0
   -0.8199   -1.4493   -1.3768 H   0  0  0  0  0  0  0  0  0  0  0  0
   -0.1368   -2.0846    0.1181 H   0  0  0  0  0  0  0  0  0  0  0  0
    1.3995   -0.3634   -1.8854 H   0  0  0  0  0  0  0  0  0  0  0  0
    1.9904    0.9391   -0.7939 H   0  0  0  0  0  0  0  0  0  0  0  0
    3.2896   -1.2523   -0.5180 H   0  0  0  0  0  0  0  0  0  0  0  0
   -0.7566    0.5184    1.7960 H   0  0  0  0  0  0  0  0  0  0  0  0
    1.0865    0.5623    1.7029 H   0  0  0  0  0  0  0  0  0  0  0  0
   -0.5690    2.7793    0.8965 H   0  0  0  0  0  0  0  0  0  0  0  0
    1.0698    2.4377    0.2013 H   0  0  0  0  0  0  0  0  0  0  0  0
   -0.3186    1.5743   -1.7177 H   0  0  0  0  0  0  0  0  0  0  0  0
   -1.7032    1.2694   -0.5128 H   0  0  0  0  0  0  0  0  0  0  0  0
  1  2  1  0
  2  3  1  0
  3  4  1  0
  4  5  1  0
  5  6  2  0
  3  7  1  0
  7  8  1  0
  8  9  1  0
  9  3  1  0
  1 10  1  0
  1 11  1  0
  1 12  1  0
  2 13  1  0
  2 14  1  0
  4 15  1  0
  4 16  1  0
  5 17  1  0
  7 18  1  0
  7 19  1  0
  8 20  1  0
  8 21  1  0
  9 22  1  0
  9 23  1  0
M  END
