
     RDKit          3D

 23 24  0  0  0  0  0  0  0  0999 V2000
    3.2104    0.4639    0.9714 C   0  0  0  0  0  0  0  0  0  0  0  0
    2.4181   -0.3616   -0.0477 C   0  0  0  0  0  0  0  0  0  0  0  0
    1.0451    0.2457   -0.1141 C   0  0  0  0  0  0  0  0  0  0  0  0
    0.0708   -0.3880   -1.0493 C   0  0  0  0  0  0  0  0  0  0  0  0
    0.0452   -1.4701   -0.1844 O   0  0  0  0  0  0  0  0  0  0  0  0
   -0.0120   -0.4114    0.7078 C   0  0  0  0  0  0  0  0  0  0  0  0
   -1.0132    0.2110   -0.2156 C   0  0  0  0  0  0  0  0  0  0  0  0
   -2.3572   -0.4407   -0.2919 C   0  0  0  0  0  0  0  0  0  0  0  0
   -3.2994    0.3173    0.6217 C   0  0  0  0  0  0  0  0  0  0  0  0
    2.9241    1.5306    0.8727 H   0  0  0  0  0  0  0  0  0  0  0  0
    4.2971    0.4127    0.7803 H   0  0  0  0  0  0  0  0  0  0  0  0
    2.9122    0.1083    1.9632 H   0  0  0  0  0  0  0  0  0  0  0  0
    2.9602   -0.3311   -1.0133 H   0  0  0  0  0  0  0  0  0  0  0  0
    2.3931   -1.4045    0.3098 H   0  0  0  0  0  0  0  0  0  0  0  0
    0.9854    1.3305   -0.0946 H   0  0  0  0  0  0  0  0  0  0  0  0
    0.1203   -0.4211   -2.0558 H   0  0  0  0  0  0  0  0  0  0  0  0
   -0.0657   -0.4675    1.7126 H   0  0  0  0  0  0  0  0  0  0  0  0
   -0.9840    1.3094   -0.2039 H   0  0  0  0  0  0  0  0  0  0  0  0
   -2.2566   -1.4970   -0.0346 H   0  0  0  0  0  0  0  0  0  0  0  0
   -2.7548   -0.2856   -1.3315 H   0  0  0  0  0  0  0  0  0  0  0  0
   -2.9585    1.3665    0.7468 H   0  0  0  0  0  0  0  0  0  0  0  0
   -4.3100    0.3602    0.1683 H   0  0  0  0  0  0  0  0  0  0  0  0
   -3.3706   -0.1776    1.6170 H   0  0  0  0  0  0  0  0  0  0  0  0
  1  2  1  0
  2  3  1  0
  3  4  1  0
  4  5  1  0
  5  6  1  0
  6  7  1  0
  7  8  1  0
  8  9  1  0
  6  3  1  0
  7  4  1  0
  1 10  1  0
  1 11  1  0
  1 12  1  0
  2 13  1  0
  2 14  1  0
  3 15  1  0
  4 16  1  0
  6 17  1  0
  7 18  1  0
  8 19  1  0
  8 20  1  0
  9 21  1  0
  9 22  1  0
  9 23  1  0
M  END
