
     RDKit          3D

 18 19  0  0  0  0  0  0  0  0999 V2000
    2.2478    0.4860    0.0419 C   0  0  0  0  0  0  0  0  0  0  0  0
    1.5274   -0.3895    1.0525 C   0  0  0  0  0  0  0  0  0  0  0  0
    0.0778   -0.5951    0.6826 C   0  0  0  0  0  0  0  0  0  0  0  0
   -0.8065    0.5823    0.5699 C   0  0  0  0  0  0  0  0  0  0  0  0
   -2.1819    0.4671    0.7006 O   0  0  0  0  0  0  0  0  0  0  0  0
   -2.6577   -0.2487   -0.3656 C   0  0  0  0  0  0  0  0  0  0  0  0
   -1.6016   -0.7289   -1.0968 O   0  0  0  0  0  0  0  0  0  0  0  0
   -0.4400   -0.1577   -0.6353 C   0  0  0  0  0  0  0  0  0  0  0  0
    3.2039    0.8251    0.5178 H   0  0  0  0  0  0  0  0  0  0  0  0
    2.4578   -0.1258   -0.8787 H   0  0  0  0  0  0  0  0  0  0  0  0
    1.6783    1.3665   -0.2518 H   0  0  0  0  0  0  0  0  0  0  0  0
    1.6100    0.0924    2.0552 H   0  0  0  0  0  0  0  0  0  0  0  0
    2.0708   -1.3566    1.0769 H   0  0  0  0  0  0  0  0  0  0  0  0
   -0.3727   -1.5157    1.1070 H   0  0  0  0  0  0  0  0  0  0  0  0
   -0.4215    1.6112    0.7932 H   0  0  0  0  0  0  0  0  0  0  0  0
   -3.3003    0.4149   -1.0130 H   0  0  0  0  0  0  0  0  0  0  0  0
   -3.2799   -1.0902    0.0594 H   0  0  0  0  0  0  0  0  0  0  0  0
    0.1885    0.3626   -1.3746 H   0  0  0  0  0  0  0  0  0  0  0  0
  1  2  1  0
  2  3  1  0
  3  4  1  0
  4  5  1  0
  5  6  1  0
  6  7  1  0
  7  8  1  0
  8  3  1  0
  8  4  1  0
  1  9  1  0
  1 10  1  0
  1 11  1  0
  2 12  1  0
  2 13  1  0
  3 14  1  0
  4 15  1  0
  6 16  1  0
  6 17  1  0
  8 18  1  0
M  END
