
     RDKit          3D

 21 23  0  0  0  0  0  0  0  0999 V2000
    2.0129   -0.5450    0.9433 C   0  0  0  0  0  0  0  0  0  0  0  0
    1.3774    0.6764    0.3627 C   0  0  0  0  0  0  0  0  0  0  0  0
    0.1111    0.3204   -0.3204 C   0  0  0  0  0  0  0  0  0  0  0  0
   -0.6579    1.4249   -0.9596 C   0  0  0  0  0  0  0  0  0  0  0  0
   -0.2907    2.7276   -0.6091 O   0  0  0  0  0  0  0  0  0  0  0  0
   -1.2217    0.6251    0.1749 C   0  0  0  0  0  0  0  0  0  0  0  0
   -1.7383   -0.7420   -0.2111 C   0  0  0  0  0  0  0  0  0  0  0  0
   -1.0402   -1.9007    0.3579 C   0  0  0  0  0  0  0  0  0  0  0  0
   -0.2809   -1.0778   -0.6208 C   0  0  0  0  0  0  0  0  0  0  0  0
    1.4530   -0.9698    1.7935 H   0  0  0  0  0  0  0  0  0  0  0  0
    3.0833   -0.3304    1.2284 H   0  0  0  0  0  0  0  0  0  0  0  0
    2.0716   -1.3379    0.1605 H   0  0  0  0  0  0  0  0  0  0  0  0
    1.2811    1.4663    1.1378 H   0  0  0  0  0  0  0  0  0  0  0  0
    2.0869    1.0702   -0.4197 H   0  0  0  0  0  0  0  0  0  0  0  0
   -1.1021    1.2257   -1.9466 H   0  0  0  0  0  0  0  0  0  0  0  0
   -1.0162    3.3142   -0.9886 H   0  0  0  0  0  0  0  0  0  0  0  0
   -1.4654    1.0703    1.1374 H   0  0  0  0  0  0  0  0  0  0  0  0
   -2.4458   -0.7984   -1.0389 H   0  0  0  0  0  0  0  0  0  0  0  0
   -0.7680   -1.8105    1.4427 H   0  0  0  0  0  0  0  0  0  0  0  0
   -1.3162   -2.9197    0.0161 H   0  0  0  0  0  0  0  0  0  0  0  0
   -0.1338   -1.4887   -1.6405 H   0  0  0  0  0  0  0  0  0  0  0  0
  1  2  1  0
  2  3  1  0
  3  4  1  0
  4  5  1  0
  4  6  1  0
  6  7  1  0
  7  8  1  0
  8  9  1  0
  6  3  1  0
  9  7  1  0
  9  3  1  0
  1 10  1  0
  1 11  1  0
  1 12  1  0
  2 13  1  0
  2 14  1  0
  4 15  1  0
  5 16  1  0
  6 17  1  0
  7 18  1  0
  8 19  1  0
  8 20  1  0
  9 21  1  0
M  END
