
     RDKit          3D

 23 23  0  0  0  0  0  0  0  0999 V2000
    2.2632    0.9907   -0.1894 C   0  0  0  0  0  0  0  0  0  0  0  0
    1.7028   -0.3717    0.0395 C   0  0  0  0  0  0  0  0  0  0  0  0
    0.3105   -0.3561    0.6286 C   0  0  0  0  0  0  0  0  0  0  0  0
   -0.1314   -1.7713    0.8070 C   0  0  0  0  0  0  0  0  0  0  0  0
   -1.2410   -2.0227    0.1681 C   0  0  0  0  0  0  0  0  0  0  0  0
   -1.7444   -0.8071   -0.5594 C   0  0  0  0  0  0  0  0  0  0  0  0
   -0.7100    0.2323   -0.2934 C   0  0  0  0  0  0  0  0  0  0  0  0
   -1.3723    1.4732    0.2786 C   0  0  0  0  0  0  0  0  0  0  0  0
   -0.0952    0.5956   -1.4893 O   0  0  0  0  0  0  0  0  0  0  0  0
    3.3500    1.0061    0.1211 H   0  0  0  0  0  0  0  0  0  0  0  0
    2.3016    1.2424   -1.2879 H   0  0  0  0  0  0  0  0  0  0  0  0
    1.7079    1.8092    0.2895 H   0  0  0  0  0  0  0  0  0  0  0  0
    1.6979   -1.0003   -0.8891 H   0  0  0  0  0  0  0  0  0  0  0  0
    2.3487   -0.9368    0.7577 H   0  0  0  0  0  0  0  0  0  0  0  0
    0.3274    0.1164    1.6200 H   0  0  0  0  0  0  0  0  0  0  0  0
    0.4175   -2.4932    1.4017 H   0  0  0  0  0  0  0  0  0  0  0  0
   -1.7413   -2.9970    0.1635 H   0  0  0  0  0  0  0  0  0  0  0  0
   -1.8998   -1.0417   -1.6177 H   0  0  0  0  0  0  0  0  0  0  0  0
   -2.7381   -0.5828   -0.0962 H   0  0  0  0  0  0  0  0  0  0  0  0
   -0.6327    2.2203    0.6248 H   0  0  0  0  0  0  0  0  0  0  0  0
   -2.0347    1.8806   -0.5219 H   0  0  0  0  0  0  0  0  0  0  0  0
   -2.0328    1.2318    1.1301 H   0  0  0  0  0  0  0  0  0  0  0  0
   -0.0538    1.5822   -1.5994 H   0  0  0  0  0  0  0  0  0  0  0  0
  1  2  1  0
  2  3  1  0
  3  4  1  0
  4  5  2  0
  5  6  1  0
  6  7  1  0
  7  8  1  0
  7  9  1  0
  7  3  1  0
  1 10  1  0
  1 11  1  0
  1 12  1  0
  2 13  1  0
  2 14  1  0
  3 15  1  0
  4 16  1  0
  5 17  1  0
  6 18  1  0
  6 19  1  0
  8 20  1  0
  8 21  1  0
  8 22  1  0
  9 23  1  0
M  END
