
     RDKit          3D

 23 24  0  0  0  0  0  0  0  0999 V2000
   -2.6351   -0.7426    0.4701 C   0  0  0  0  0  0  0  0  0  0  0  0
   -1.4218   -0.7707   -0.4341 C   0  0  0  0  0  0  0  0  0  0  0  0
   -0.2364   -0.1636    0.2715 C   0  0  0  0  0  0  0  0  0  0  0  0
    0.9930   -0.1620   -0.5695 C   0  0  0  0  0  0  0  0  0  0  0  0
    2.0635   -1.1493   -0.2492 C   0  0  0  0  0  0  0  0  0  0  0  0
    2.5839   -1.0254    1.0266 O   0  0  0  0  0  0  0  0  0  0  0  0
    1.2415    1.2571   -0.1834 C   0  0  0  0  0  0  0  0  0  0  0  0
    0.1982    2.2203   -0.6820 C   0  0  0  0  0  0  0  0  0  0  0  0
   -0.2100    1.3113    0.3977 C   0  0  0  0  0  0  0  0  0  0  0  0
   -3.0888    0.2769    0.4574 H   0  0  0  0  0  0  0  0  0  0  0  0
   -2.3187   -0.8986    1.5364 H   0  0  0  0  0  0  0  0  0  0  0  0
   -3.3925   -1.4976    0.1528 H   0  0  0  0  0  0  0  0  0  0  0  0
   -1.1727   -1.8613   -0.5788 H   0  0  0  0  0  0  0  0  0  0  0  0
   -1.6389   -0.3255   -1.4075 H   0  0  0  0  0  0  0  0  0  0  0  0
   -0.1517   -0.6495    1.2764 H   0  0  0  0  0  0  0  0  0  0  0  0
    0.7246   -0.2246   -1.6457 H   0  0  0  0  0  0  0  0  0  0  0  0
    1.6714   -2.1836   -0.3412 H   0  0  0  0  0  0  0  0  0  0  0  0
    2.8806   -1.0159   -0.9883 H   0  0  0  0  0  0  0  0  0  0  0  0
    1.9224   -1.0646    1.7335 H   0  0  0  0  0  0  0  0  0  0  0  0
    2.0230    1.5595    0.5000 H   0  0  0  0  0  0  0  0  0  0  0  0
   -0.1544    2.0818   -1.7344 H   0  0  0  0  0  0  0  0  0  0  0  0
    0.4161    3.2687   -0.4242 H   0  0  0  0  0  0  0  0  0  0  0  0
   -0.2972    1.7592    1.4158 H   0  0  0  0  0  0  0  0  0  0  0  0
  1  2  1  0
  2  3  1  0
  3  4  1  0
  4  5  1  0
  5  6  1  0
  4  7  1  0
  7  8  1  0
  8  9  1  0
  9  3  1  0
  9  7  1  0
  1 10  1  0
  1 11  1  0
  1 12  1  0
  2 13  1  0
  2 14  1  0
  3 15  1  0
  4 16  1  0
  5 17  1  0
  5 18  1  0
  6 19  1  0
  7 20  1  0
  8 21  1  0
  8 22  1  0
  9 23  1  0
M  END
