
     RDKit          3D

 23 24  0  0  0  0  0  0  0  0999 V2000
    2.9649    0.1175    0.0746 C   0  0  0  0  0  0  0  0  0  0  0  0
    1.7756   -0.0780    1.0096 C   0  0  0  0  0  0  0  0  0  0  0  0
    0.5646   -0.2370    0.1230 C   0  0  0  0  0  0  0  0  0  0  0  0
    0.2922    0.8976   -0.7436 C   0  0  0  0  0  0  0  0  0  0  0  0
   -0.9940    1.0727   -0.9674 C   0  0  0  0  0  0  0  0  0  0  0  0
   -1.7434    0.0458   -0.2559 C   0  0  0  0  0  0  0  0  0  0  0  0
   -2.9126    0.5820    0.5326 C   0  0  0  0  0  0  0  0  0  0  0  0
   -0.7361   -0.6559    0.6049 C   0  0  0  0  0  0  0  0  0  0  0  0
    0.1375   -1.6166   -0.1337 C   0  0  0  0  0  0  0  0  0  0  0  0
    3.2236    1.1854    0.0459 H   0  0  0  0  0  0  0  0  0  0  0  0
    2.7248   -0.1825   -0.9668 H   0  0  0  0  0  0  0  0  0  0  0  0
    3.8478   -0.4514    0.4185 H   0  0  0  0  0  0  0  0  0  0  0  0
    1.6841    0.7367    1.7386 H   0  0  0  0  0  0  0  0  0  0  0  0
    1.9742   -1.0129    1.5726 H   0  0  0  0  0  0  0  0  0  0  0  0
    1.0633    1.5582   -1.1813 H   0  0  0  0  0  0  0  0  0  0  0  0
   -1.4195    1.8774   -1.5982 H   0  0  0  0  0  0  0  0  0  0  0  0
   -2.1672   -0.6469   -1.0410 H   0  0  0  0  0  0  0  0  0  0  0  0
   -2.6415    0.9083    1.5346 H   0  0  0  0  0  0  0  0  0  0  0  0
   -3.6386   -0.2679    0.6335 H   0  0  0  0  0  0  0  0  0  0  0  0
   -3.3964    1.3565   -0.0934 H   0  0  0  0  0  0  0  0  0  0  0  0
   -0.9710   -0.8034    1.6718 H   0  0  0  0  0  0  0  0  0  0  0  0
    0.5680   -2.4156    0.4839 H   0  0  0  0  0  0  0  0  0  0  0  0
   -0.2003   -1.9698   -1.1258 H   0  0  0  0  0  0  0  0  0  0  0  0
  1  2  1  0
  2  3  1  0
  3  4  1  0
  4  5  2  0
  5  6  1  0
  6  7  1  0
  6  8  1  0
  8  9  1  0
  8  3  1  0
  9  3  1  0
  1 10  1  0
  1 11  1  0
  1 12  1  0
  2 13  1  0
  2 14  1  0
  4 15  1  0
  5 16  1  0
  6 17  1  0
  7 18  1  0
  7 19  1  0
  7 20  1  0
  8 21  1  0
  9 22  1  0
  9 23  1  0
M  END
