
     RDKit          3D

 20 21  0  0  0  0  0  0  0  0999 V2000
    2.2644    1.2361    0.5137 C   0  0  0  0  0  0  0  0  0  0  0  0
    1.8445   -0.2132    0.2635 C   0  0  0  0  0  0  0  0  0  0  0  0
    0.5323   -0.2468   -0.4371 C   0  0  0  0  0  0  0  0  0  0  0  0
   -0.1409   -1.4952   -0.8184 C   0  0  0  0  0  0  0  0  0  0  0  0
   -1.4182   -1.3501   -1.3716 O   0  0  0  0  0  0  0  0  0  0  0  0
   -1.9555   -0.6511   -0.2847 C   0  0  0  0  0  0  0  0  0  0  0  0
   -2.2771    0.8088   -0.5888 C   0  0  0  0  0  0  0  0  0  0  0  0
   -0.6160   -0.7451    0.3647 C   0  0  0  0  0  0  0  0  0  0  0  0
    2.3009    1.4834    1.5840 H   0  0  0  0  0  0  0  0  0  0  0  0
    3.2775    1.3755    0.0452 H   0  0  0  0  0  0  0  0  0  0  0  0
    1.5427    1.9037    0.0094 H   0  0  0  0  0  0  0  0  0  0  0  0
    2.6442   -0.7613   -0.2766 H   0  0  0  0  0  0  0  0  0  0  0  0
    1.7518   -0.6771    1.2644 H   0  0  0  0  0  0  0  0  0  0  0  0
    0.3517    0.6167   -1.1420 H   0  0  0  0  0  0  0  0  0  0  0  0
    0.3177   -2.4894   -0.7547 H   0  0  0  0  0  0  0  0  0  0  0  0
   -2.7788   -1.1717    0.2419 H   0  0  0  0  0  0  0  0  0  0  0  0
   -3.3406    0.8552   -0.9010 H   0  0  0  0  0  0  0  0  0  0  0  0
   -2.1313    1.4184    0.3407 H   0  0  0  0  0  0  0  0  0  0  0  0
   -1.6748    1.2098   -1.4009 H   0  0  0  0  0  0  0  0  0  0  0  0
   -0.4944   -1.1065    1.3945 H   0  0  0  0  0  0  0  0  0  0  0  0
  1  2  1  0
  2  3  1  0
  3  4  1  0
  4  5  1  0
  5  6  1  0
  6  7  1  0
  6  8  1  0
  8  3  1  0
  8  4  1  0
  1  9  1  0
  1 10  1  0
  1 11  1  0
  2 12  1  0
  2 13  1  0
  3 14  1  0
  4 15  1  0
  6 16  1  0
  7 17  1  0
  7 18  1  0
  7 19  1  0
  8 20  1  0
M  END
