
     RDKit          3D

 21 21  0  0  0  0  0  0  0  0999 V2000
   -2.7432   -0.1415    0.6764 C   0  0  0  0  0  0  0  0  0  0  0  0
   -1.4782    0.6454    0.4014 C   0  0  0  0  0  0  0  0  0  0  0  0
   -0.4222   -0.1868   -0.1999 C   0  0  0  0  0  0  0  0  0  0  0  0
   -0.4634   -1.4760   -0.5062 C   0  0  0  0  0  0  0  0  0  0  0  0
    0.8869   -1.8214   -1.0957 C   0  0  0  0  0  0  0  0  0  0  0  0
    1.2398   -0.5892   -1.6459 O   0  0  0  0  0  0  0  0  0  0  0  0
    0.9290    0.2692   -0.5897 C   0  0  0  0  0  0  0  0  0  0  0  0
    1.8429    0.2673    0.4150 O   0  0  0  0  0  0  0  0  0  0  0  0
    2.4224    1.5054    0.6627 C   0  0  0  0  0  0  0  0  0  0  0  0
   -3.5614    0.5852    0.7975 H   0  0  0  0  0  0  0  0  0  0  0  0
   -2.5655   -0.6976    1.6263 H   0  0  0  0  0  0  0  0  0  0  0  0
   -2.9374   -0.8794   -0.1295 H   0  0  0  0  0  0  0  0  0  0  0  0
   -1.7155    1.5499   -0.2217 H   0  0  0  0  0  0  0  0  0  0  0  0
   -1.1682    1.0734    1.3962 H   0  0  0  0  0  0  0  0  0  0  0  0
   -1.2837   -2.1717   -0.3741 H   0  0  0  0  0  0  0  0  0  0  0  0
    1.5813   -2.1933   -0.3521 H   0  0  0  0  0  0  0  0  0  0  0  0
    0.7290   -2.5138   -1.9616 H   0  0  0  0  0  0  0  0  0  0  0  0
    0.8322    1.2851   -1.0153 H   0  0  0  0  0  0  0  0  0  0  0  0
    2.9320    1.8042   -0.2983 H   0  0  0  0  0  0  0  0  0  0  0  0
    3.2244    1.4184    1.4240 H   0  0  0  0  0  0  0  0  0  0  0  0
    1.7188    2.2672    0.9905 H   0  0  0  0  0  0  0  0  0  0  0  0
  1  2  1  0
  2  3  1  0
  3  4  2  0
  4  5  1  0
  5  6  1  0
  6  7  1  0
  7  8  1  0
  8  9  1  0
  7  3  1  0
  1 10  1  0
  1 11  1  0
  1 12  1  0
  2 13  1  0
  2 14  1  0
  4 15  1  0
  5 16  1  0
  5 17  1  0
  7 18  1  0
  9 19  1  0
  9 20  1  0
  9 21  1  0
M  END
