
     RDKit          3D

 23 24  0  0  0  0  0  0  0  0999 V2000
    2.7588    0.5583   -0.4912 C   0  0  0  0  0  0  0  0  0  0  0  0
    1.7684   -0.4392    0.0207 C   0  0  0  0  0  0  0  0  0  0  0  0
    0.4260    0.1522    0.3289 C   0  0  0  0  0  0  0  0  0  0  0  0
   -0.5002   -0.9591    0.8430 C   0  0  0  0  0  0  0  0  0  0  0  0
   -1.6422   -0.2852    1.4832 C   0  0  0  0  0  0  0  0  0  0  0  0
   -2.0982    0.8325    0.8978 C   0  0  0  0  0  0  0  0  0  0  0  0
   -1.7359    1.0141   -0.5384 C   0  0  0  0  0  0  0  0  0  0  0  0
   -0.4931    0.2489   -0.8656 C   0  0  0  0  0  0  0  0  0  0  0  0
   -0.8217   -1.2325   -0.6262 C   0  0  0  0  0  0  0  0  0  0  0  0
    2.7671    1.4931    0.0954 H   0  0  0  0  0  0  0  0  0  0  0  0
    3.7654    0.0733   -0.4562 H   0  0  0  0  0  0  0  0  0  0  0  0
    2.5394    0.8322   -1.5573 H   0  0  0  0  0  0  0  0  0  0  0  0
    2.1785   -0.8260    0.9985 H   0  0  0  0  0  0  0  0  0  0  0  0
    1.7294   -1.3042   -0.6478 H   0  0  0  0  0  0  0  0  0  0  0  0
    0.4896    1.0242    0.9757 H   0  0  0  0  0  0  0  0  0  0  0  0
   -0.0084   -1.7622    1.3782 H   0  0  0  0  0  0  0  0  0  0  0  0
   -2.0771   -0.6939    2.3866 H   0  0  0  0  0  0  0  0  0  0  0  0
   -2.6954    1.5677    1.4260 H   0  0  0  0  0  0  0  0  0  0  0  0
   -2.5684    0.5575   -1.1347 H   0  0  0  0  0  0  0  0  0  0  0  0
   -1.7022    2.0735   -0.8329 H   0  0  0  0  0  0  0  0  0  0  0  0
   -0.0376    0.4699   -1.8258 H   0  0  0  0  0  0  0  0  0  0  0  0
   -1.8860   -1.4623   -0.7285 H   0  0  0  0  0  0  0  0  0  0  0  0
   -0.1563   -1.9328   -1.1294 H   0  0  0  0  0  0  0  0  0  0  0  0
  1  2  1  0
  2  3  1  0
  3  4  1  0
  4  5  1  0
  5  6  2  0
  6  7  1  0
  7  8  1  0
  8  9  1  0
  8  3  1  0
  9  4  1  0
  1 10  1  0
  1 11  1  0
  1 12  1  0
  2 13  1  0
  2 14  1  0
  3 15  1  0
  4 16  1  0
  5 17  1  0
  6 18  1  0
  7 19  1  0
  7 20  1  0
  8 21  1  0
  9 22  1  0
  9 23  1  0
M  END
