
     RDKit          3D

 23 24  0  0  0  0  0  0  0  0999 V2000
    2.6151    0.0790   -0.6217 C   0  0  0  0  0  0  0  0  0  0  0  0
    1.1783    0.6081   -0.7111 C   0  0  0  0  0  0  0  0  0  0  0  0
    0.6102    0.5368    0.6731 C   0  0  0  0  0  0  0  0  0  0  0  0
    0.6068   -0.8855    1.1988 C   0  0  0  0  0  0  0  0  0  0  0  0
   -0.9000   -0.8610    1.0848 C   0  0  0  0  0  0  0  0  0  0  0  0
   -1.3060   -1.4603   -0.0815 O   0  0  0  0  0  0  0  0  0  0  0  0
   -2.2841   -0.5958   -0.6124 C   0  0  0  0  0  0  0  0  0  0  0  0
   -1.6871    0.7841   -0.4072 C   0  0  0  0  0  0  0  0  0  0  0  0
   -0.8619    0.6376    0.8195 C   0  0  0  0  0  0  0  0  0  0  0  0
    3.3170    0.9498   -0.5387 H   0  0  0  0  0  0  0  0  0  0  0  0
    2.7650   -0.5043    0.3099 H   0  0  0  0  0  0  0  0  0  0  0  0
    2.8601   -0.5754   -1.4688 H   0  0  0  0  0  0  0  0  0  0  0  0
    1.1794    1.6410   -1.1031 H   0  0  0  0  0  0  0  0  0  0  0  0
    0.6043   -0.0364   -1.4250 H   0  0  0  0  0  0  0  0  0  0  0  0
    1.1828    1.1807    1.3639 H   0  0  0  0  0  0  0  0  0  0  0  0
    0.9546   -0.9942    2.2422 H   0  0  0  0  0  0  0  0  0  0  0  0
    1.0763   -1.6269    0.5324 H   0  0  0  0  0  0  0  0  0  0  0  0
   -1.4630   -1.0644    1.9967 H   0  0  0  0  0  0  0  0  0  0  0  0
   -3.1935   -0.7617   -0.0225 H   0  0  0  0  0  0  0  0  0  0  0  0
   -2.3820   -0.8632   -1.6780 H   0  0  0  0  0  0  0  0  0  0  0  0
   -1.1669    1.1000   -1.3045 H   0  0  0  0  0  0  0  0  0  0  0  0
   -2.5601    1.4499   -0.1517 H   0  0  0  0  0  0  0  0  0  0  0  0
   -1.1452    1.2621    1.6895 H   0  0  0  0  0  0  0  0  0  0  0  0
  1  2  1  0
  2  3  1  0
  3  4  1  0
  4  5  1  0
  5  6  1  0
  6  7  1  0
  7  8  1  0
  8  9  1  0
  9  3  1  0
  9  5  1  0
  1 10  1  0
  1 11  1  0
  1 12  1  0
  2 13  1  0
  2 14  1  0
  3 15  1  0
  4 16  1  0
  4 17  1  0
  5 18  1  0
  7 19  1  0
  7 20  1  0
  8 21  1  0
  8 22  1  0
  9 23  1  0
M  END
