
     RDKit          3D

 23 23  0  0  0  0  0  0  0  0999 V2000
    2.5392   -0.1982   -0.7217 C   0  0  0  0  0  0  0  0  0  0  0  0
    1.4906   -0.2908    0.3238 C   0  0  0  0  0  0  0  0  0  0  0  0
    0.0842   -0.2207   -0.1844 C   0  0  0  0  0  0  0  0  0  0  0  0
   -0.1135   -1.2869   -1.0719 O   0  0  0  0  0  0  0  0  0  0  0  0
   -0.2821    1.0612   -0.8419 C   0  0  0  0  0  0  0  0  0  0  0  0
   -0.9427    1.8287    0.2790 C   0  0  0  0  0  0  0  0  0  0  0  0
   -1.3892    0.9365    1.2081 O   0  0  0  0  0  0  0  0  0  0  0  0
   -0.8430   -0.2931    0.9884 C   0  0  0  0  0  0  0  0  0  0  0  0
   -1.9729   -1.2986    0.7286 C   0  0  0  0  0  0  0  0  0  0  0  0
    3.4995   -0.5845   -0.2679 H   0  0  0  0  0  0  0  0  0  0  0  0
    2.7916    0.8670   -0.9970 H   0  0  0  0  0  0  0  0  0  0  0  0
    2.3579   -0.8253   -1.6014 H   0  0  0  0  0  0  0  0  0  0  0  0
    1.6423    0.5264    1.0520 H   0  0  0  0  0  0  0  0  0  0  0  0
    1.6156   -1.2485    0.8689 H   0  0  0  0  0  0  0  0  0  0  0  0
   -0.9385   -1.2082   -1.5776 H   0  0  0  0  0  0  0  0  0  0  0  0
    0.6163    1.5482   -1.2380 H   0  0  0  0  0  0  0  0  0  0  0  0
   -1.0603    0.8970   -1.6435 H   0  0  0  0  0  0  0  0  0  0  0  0
   -1.8166    2.4271   -0.0702 H   0  0  0  0  0  0  0  0  0  0  0  0
   -0.1946    2.5515    0.7188 H   0  0  0  0  0  0  0  0  0  0  0  0
   -0.3357   -0.6236    1.9208 H   0  0  0  0  0  0  0  0  0  0  0  0
   -1.5460   -2.2927    0.5026 H   0  0  0  0  0  0  0  0  0  0  0  0
   -2.5464   -1.3491    1.6877 H   0  0  0  0  0  0  0  0  0  0  0  0
   -2.6557   -0.9232   -0.0631 H   0  0  0  0  0  0  0  0  0  0  0  0
  1  2  1  0
  2  3  1  0
  3  4  1  0
  3  5  1  0
  5  6  1  0
  6  7  1  0
  7  8  1  0
  8  9  1  0
  8  3  1  0
  1 10  1  0
  1 11  1  0
  1 12  1  0
  2 13  1  0
  2 14  1  0
  4 15  1  0
  5 16  1  0
  5 17  1  0
  6 18  1  0
  6 19  1  0
  8 20  1  0
  9 21  1  0
  9 22  1  0
  9 23  1  0
M  END
