
     RDKit          3D

 19 19  0  0  0  0  0  0  0  0999 V2000
   -2.0982    0.1163    0.0957 C   0  0  0  0  0  0  0  0  0  0  0  0
   -0.9598   -0.7091   -0.4355 C   0  0  0  0  0  0  0  0  0  0  0  0
    0.3909   -0.1455   -0.0934 C   0  0  0  0  0  0  0  0  0  0  0  0
    0.7513    1.2374   -0.5744 C   0  0  0  0  0  0  0  0  0  0  0  0
   -0.0837    2.2237   -0.1148 O   0  0  0  0  0  0  0  0  0  0  0  0
    1.0532   -0.7164    1.1213 C   0  0  0  0  0  0  0  0  0  0  0  0
    1.5156   -1.1686   -0.2081 C   0  0  0  0  0  0  0  0  0  0  0  0
   -2.1346    1.1221   -0.3231 H   0  0  0  0  0  0  0  0  0  0  0  0
   -2.0666    0.0923    1.2149 H   0  0  0  0  0  0  0  0  0  0  0  0
   -3.0373   -0.4130   -0.1844 H   0  0  0  0  0  0  0  0  0  0  0  0
   -1.0549   -1.7452   -0.0540 H   0  0  0  0  0  0  0  0  0  0  0  0
   -1.0735   -0.7826   -1.5415 H   0  0  0  0  0  0  0  0  0  0  0  0
    0.7373    1.1920   -1.7012 H   0  0  0  0  0  0  0  0  0  0  0  0
    1.7928    1.4895   -0.2878 H   0  0  0  0  0  0  0  0  0  0  0  0
    0.2796    2.6479    0.7160 H   0  0  0  0  0  0  0  0  0  0  0  0
    0.5055   -1.4488    1.7390 H   0  0  0  0  0  0  0  0  0  0  0  0
    1.6702   -0.0140    1.7214 H   0  0  0  0  0  0  0  0  0  0  0  0
    2.5222   -0.8005   -0.5256 H   0  0  0  0  0  0  0  0  0  0  0  0
    1.2900   -2.1775   -0.5645 H   0  0  0  0  0  0  0  0  0  0  0  0
  1  2  1  0
  2  3  1  0
  3  4  1  0
  4  5  1  0
  3  6  1  0
  6  7  1  0
  7  3  1  0
  1  8  1  0
  1  9  1  0
  1 10  1  0
  2 11  1  0
  2 12  1  0
  4 13  1  0
  4 14  1  0
  5 15  1  0
  6 16  1  0
  6 17  1  0
  7 18  1  0
  7 19  1  0
M  END
