
     RDKit          3D

 18 18  0  0  0  0  0  0  0  0999 V2000
   -2.0505   -0.1446   -0.5963 C   0  0  0  0  0  0  0  0  0  0  0  0
   -0.8977   -1.0256   -0.2739 C   0  0  0  0  0  0  0  0  0  0  0  0
    0.3213   -0.3225    0.2063 C   0  0  0  0  0  0  0  0  0  0  0  0
    0.2033    0.4927    1.4511 C   0  0  0  0  0  0  0  0  0  0  0  0
    1.1732    0.3602   -0.8171 C   0  0  0  0  0  0  0  0  0  0  0  0
    2.3105   -0.4034   -0.2321 C   0  0  0  0  0  0  0  0  0  0  0  0
    3.5659   -0.3721   -0.2097 O   0  0  0  0  0  0  0  0  0  0  0  0
    1.3997   -1.2527    0.3409 O   0  0  0  0  0  0  0  0  0  0  0  0
   -2.3261    0.5753    0.1804 H   0  0  0  0  0  0  0  0  0  0  0  0
   -1.8427    0.4018   -1.5208 H   0  0  0  0  0  0  0  0  0  0  0  0
   -2.9406   -0.8006   -0.7725 H   0  0  0  0  0  0  0  0  0  0  0  0
   -1.1839   -1.7868    0.5077 H   0  0  0  0  0  0  0  0  0  0  0  0
   -0.6378   -1.6121   -1.1697 H   0  0  0  0  0  0  0  0  0  0  0  0
    0.8809    1.3838    1.4377 H   0  0  0  0  0  0  0  0  0  0  0  0
    0.5231   -0.1268    2.3156 H   0  0  0  0  0  0  0  0  0  0  0  0
   -0.8104    0.8804    1.6394 H   0  0  0  0  0  0  0  0  0  0  0  0
    1.3454    1.4469   -0.6111 H   0  0  0  0  0  0  0  0  0  0  0  0
    0.9663    0.1310   -1.8758 H   0  0  0  0  0  0  0  0  0  0  0  0
  1  2  1  0
  2  3  1  0
  3  4  1  0
  3  5  1  0
  5  6  1  0
  6  7  2  0
  6  8  1  0
  8  3  1  0
  1  9  1  0
  1 10  1  0
  1 11  1  0
  2 12  1  0
  2 13  1  0
  4 14  1  0
  4 15  1  0
  4 16  1  0
  5 17  1  0
  5 18  1  0
M  END
