
     RDKit          3D

 23 24  0  0  0  0  0  0  0  0999 V2000
    2.6922   -0.0261    0.2565 C   0  0  0  0  0  0  0  0  0  0  0  0
    1.3049   -0.5633    0.6061 C   0  0  0  0  0  0  0  0  0  0  0  0
    0.3655   -0.2691   -0.4982 C   0  0  0  0  0  0  0  0  0  0  0  0
    0.1562    1.1817   -0.8555 C   0  0  0  0  0  0  0  0  0  0  0  0
   -0.7086    1.2638    0.4102 C   0  0  0  0  0  0  0  0  0  0  0  0
   -1.0879   -0.1283   -0.0192 C   0  0  0  0  0  0  0  0  0  0  0  0
   -1.6301   -1.0824    0.8907 C   0  0  0  0  0  0  0  0  0  0  0  0
   -1.7350    0.1650   -1.3512 C   0  0  0  0  0  0  0  0  0  0  0  0
   -0.8017    1.1149   -1.8454 O   0  0  0  0  0  0  0  0  0  0  0  0
    2.9709   -0.4074   -0.7271 H   0  0  0  0  0  0  0  0  0  0  0  0
    3.3746   -0.4294    1.0546 H   0  0  0  0  0  0  0  0  0  0  0  0
    2.7200    1.0725    0.3289 H   0  0  0  0  0  0  0  0  0  0  0  0
    1.4361   -1.6803    0.6412 H   0  0  0  0  0  0  0  0  0  0  0  0
    0.9995   -0.2624    1.6054 H   0  0  0  0  0  0  0  0  0  0  0  0
    0.4347   -0.9632   -1.3377 H   0  0  0  0  0  0  0  0  0  0  0  0
    0.9808    1.8339   -0.9344 H   0  0  0  0  0  0  0  0  0  0  0  0
   -1.5186    1.9938    0.2149 H   0  0  0  0  0  0  0  0  0  0  0  0
   -0.1713    1.3839    1.3394 H   0  0  0  0  0  0  0  0  0  0  0  0
   -1.3848   -0.8131    1.9537 H   0  0  0  0  0  0  0  0  0  0  0  0
   -2.7274   -1.2163    0.7439 H   0  0  0  0  0  0  0  0  0  0  0  0
   -1.1978   -2.1113    0.7137 H   0  0  0  0  0  0  0  0  0  0  0  0
   -1.7798   -0.7135   -2.0081 H   0  0  0  0  0  0  0  0  0  0  0  0
   -2.6923    0.6566   -1.1824 H   0  0  0  0  0  0  0  0  0  0  0  0
  1  2  1  0
  2  3  1  0
  3  4  1  0
  4  5  1  0
  5  6  1  0
  6  7  1  0
  6  8  1  0
  8  9  1  0
  6  3  1  0
  9  4  1  0
  1 10  1  0
  1 11  1  0
  1 12  1  0
  2 13  1  0
  2 14  1  0
  3 15  1  0
  4 16  1  0
  5 17  1  0
  5 18  1  0
  7 19  1  0
  7 20  1  0
  7 21  1  0
  8 22  1  0
  8 23  1  0
M  END
