
     RDKit          3D

 19 19  0  0  0  0  0  0  0  0999 V2000
   -1.9711   -0.7096   -0.0996 C   0  0  0  0  0  0  0  0  0  0  0  0
   -0.7477   -0.3070   -0.8699 C   0  0  0  0  0  0  0  0  0  0  0  0
    0.4214    0.0070   -0.0036 C   0  0  0  0  0  0  0  0  0  0  0  0
    0.8623   -1.1611    0.8568 C   0  0  0  0  0  0  0  0  0  0  0  0
    1.2859   -2.1708   -0.0374 O   0  0  0  0  0  0  0  0  0  0  0  0
    1.4946    0.5466   -0.8715 O   0  0  0  0  0  0  0  0  0  0  0  0
    1.0107    1.2744    0.2133 C   0  0  0  0  0  0  0  0  0  0  0  0
    0.2550    2.5146    0.0447 C   0  0  0  0  0  0  0  0  0  0  0  0
   -0.6310    2.6753   -0.7641 O   0  0  0  0  0  0  0  0  0  0  0  0
   -1.8437   -1.7628    0.2436 H   0  0  0  0  0  0  0  0  0  0  0  0
   -2.8432   -0.6317   -0.7724 H   0  0  0  0  0  0  0  0  0  0  0  0
   -2.1408   -0.1074    0.8074 H   0  0  0  0  0  0  0  0  0  0  0  0
   -0.4450   -1.2279   -1.4579 H   0  0  0  0  0  0  0  0  0  0  0  0
   -0.9496    0.5393   -1.5445 H   0  0  0  0  0  0  0  0  0  0  0  0
    1.7384   -0.8438    1.4422 H   0  0  0  0  0  0  0  0  0  0  0  0
   -0.0011   -1.4700    1.4422 H   0  0  0  0  0  0  0  0  0  0  0  0
    2.1918   -1.8548   -0.3503 H   0  0  0  0  0  0  0  0  0  0  0  0
    1.8078    1.3185    1.0216 H   0  0  0  0  0  0  0  0  0  0  0  0
    0.5054    3.3713    0.6994 H   0  0  0  0  0  0  0  0  0  0  0  0
  1  2  1  0
  2  3  1  0
  3  4  1  0
  4  5  1  0
  3  6  1  0
  6  7  1  0
  7  8  1  0
  8  9  2  0
  7  3  1  0
  1 10  1  0
  1 11  1  0
  1 12  1  0
  2 13  1  0
  2 14  1  0
  4 15  1  0
  4 16  1  0
  5 17  1  0
  7 18  1  0
  8 19  1  0
M  END
