
     RDKit          3D

 21 22  0  0  0  0  0  0  0  0999 V2000
    2.7674    0.5371    0.0384 C   0  0  0  0  0  0  0  0  0  0  0  0
    1.8288   -0.6255   -0.2783 C   0  0  0  0  0  0  0  0  0  0  0  0
    0.4415   -0.0543   -0.3615 C   0  0  0  0  0  0  0  0  0  0  0  0
   -0.0152    0.5667    0.8036 O   0  0  0  0  0  0  0  0  0  0  0  0
   -1.2604    0.1255    0.4598 C   0  0  0  0  0  0  0  0  0  0  0  0
   -2.1549    1.0631   -0.2253 C   0  0  0  0  0  0  0  0  0  0  0  0
   -2.5096    0.3413    1.0779 C   0  0  0  0  0  0  0  0  0  0  0  0
   -0.6761   -1.0834   -0.1319 C   0  0  0  0  0  0  0  0  0  0  0  0
   -0.2450   -1.9913    0.8463 O   0  0  0  0  0  0  0  0  0  0  0  0
    2.8079    0.6157    1.1479 H   0  0  0  0  0  0  0  0  0  0  0  0
    3.7515    0.3999   -0.4226 H   0  0  0  0  0  0  0  0  0  0  0  0
    2.3295    1.4640   -0.3780 H   0  0  0  0  0  0  0  0  0  0  0  0
    2.1066   -0.9646   -1.2971 H   0  0  0  0  0  0  0  0  0  0  0  0
    1.9302   -1.4526    0.4223 H   0  0  0  0  0  0  0  0  0  0  0  0
    0.2778    0.5828   -1.2268 H   0  0  0  0  0  0  0  0  0  0  0  0
   -2.0057    2.1507   -0.1065 H   0  0  0  0  0  0  0  0  0  0  0  0
   -2.6189    0.7305   -1.1584 H   0  0  0  0  0  0  0  0  0  0  0  0
   -3.3131   -0.4135    1.0196 H   0  0  0  0  0  0  0  0  0  0  0  0
   -2.5852    0.9646    2.0008 H   0  0  0  0  0  0  0  0  0  0  0  0
   -1.0816   -1.5083   -1.0428 H   0  0  0  0  0  0  0  0  0  0  0  0
    0.2245   -1.4485    1.5436 H   0  0  0  0  0  0  0  0  0  0  0  0
  1  2  1  0
  2  3  1  0
  3  4  1  0
  4  5  1  0
  5  6  1  0
  6  7  1  0
  5  8  1  0
  8  9  1  0
  8  3  1  0
  7  5  1  0
  1 10  1  0
  1 11  1  0
  1 12  1  0
  2 13  1  0
  2 14  1  0
  3 15  1  0
  6 16  1  0
  6 17  1  0
  7 18  1  0
  7 19  1  0
  8 20  1  0
  9 21  1  0
M  END
