
     RDKit          3D

 21 22  0  0  0  0  0  0  0  0999 V2000
    2.6151    0.3695    0.7486 C   0  0  0  0  0  0  0  0  0  0  0  0
    1.7780   -0.8448    0.3919 C   0  0  0  0  0  0  0  0  0  0  0  0
    0.5712   -0.3347   -0.3773 C   0  0  0  0  0  0  0  0  0  0  0  0
    0.8614    0.3462   -1.5493 O   0  0  0  0  0  0  0  0  0  0  0  0
   -0.7224   -1.0361   -0.2883 C   0  0  0  0  0  0  0  0  0  0  0  0
   -1.8864   -0.3777   -0.9643 C   0  0  0  0  0  0  0  0  0  0  0  0
   -1.7168    0.8694   -0.1282 C   0  0  0  0  0  0  0  0  0  0  0  0
   -2.7059    1.0681    0.8338 O   0  0  0  0  0  0  0  0  0  0  0  0
   -0.4984    0.2555    0.4888 C   0  0  0  0  0  0  0  0  0  0  0  0
    2.3552    1.2485    0.1215 H   0  0  0  0  0  0  0  0  0  0  0  0
    2.4362    0.6737    1.8122 H   0  0  0  0  0  0  0  0  0  0  0  0
    3.7054    0.1352    0.5919 H   0  0  0  0  0  0  0  0  0  0  0  0
    1.4831   -1.3515    1.3269 H   0  0  0  0  0  0  0  0  0  0  0  0
    2.3545   -1.5939   -0.1972 H   0  0  0  0  0  0  0  0  0  0  0  0
    0.2853    1.1288   -1.6965 H   0  0  0  0  0  0  0  0  0  0  0  0
   -0.8543   -1.9740    0.2617 H   0  0  0  0  0  0  0  0  0  0  0  0
   -2.8175   -0.9209   -0.7896 H   0  0  0  0  0  0  0  0  0  0  0  0
   -1.6840   -0.2549   -2.0494 H   0  0  0  0  0  0  0  0  0  0  0  0
   -1.5160    1.8015   -0.6944 H   0  0  0  0  0  0  0  0  0  0  0  0
   -3.5829    0.7017    0.5671 H   0  0  0  0  0  0  0  0  0  0  0  0
   -0.4608    0.0906    1.5905 H   0  0  0  0  0  0  0  0  0  0  0  0
  1  2  1  0
  2  3  1  0
  3  4  1  0
  3  5  1  0
  5  6  1  0
  6  7  1  0
  7  8  1  0
  7  9  1  0
  9  3  1  0
  9  5  1  0
  1 10  1  0
  1 11  1  0
  1 12  1  0
  2 13  1  0
  2 14  1  0
  4 15  1  0
  5 16  1  0
  6 17  1  0
  6 18  1  0
  7 19  1  0
  8 20  1  0
  9 21  1  0
M  END
