
     RDKit          3D

 21 22  0  0  0  0  0  0  0  0999 V2000
    2.3331    0.5009    0.7132 C   0  0  0  0  0  0  0  0  0  0  0  0
    1.4315   -0.7107    0.5409 C   0  0  0  0  0  0  0  0  0  0  0  0
    0.3380   -0.3081   -0.4288 C   0  0  0  0  0  0  0  0  0  0  0  0
   -0.6339   -1.4101   -0.6975 C   0  0  0  0  0  0  0  0  0  0  0  0
   -1.8829   -0.6748   -1.0092 C   0  0  0  0  0  0  0  0  0  0  0  0
   -2.8622   -1.1752   -1.5052 O   0  0  0  0  0  0  0  0  0  0  0  0
   -1.7438    0.7488   -0.6225 C   0  0  0  0  0  0  0  0  0  0  0  0
   -1.5496    0.9740    0.8287 C   0  0  0  0  0  0  0  0  0  0  0  0
   -0.3838    0.9223   -0.0369 C   0  0  0  0  0  0  0  0  0  0  0  0
    3.4000    0.1977    0.8349 H   0  0  0  0  0  0  0  0  0  0  0  0
    2.0427    1.0610    1.6285 H   0  0  0  0  0  0  0  0  0  0  0  0
    2.2592    1.1601   -0.1664 H   0  0  0  0  0  0  0  0  0  0  0  0
    1.0263   -1.0535    1.4981 H   0  0  0  0  0  0  0  0  0  0  0  0
    1.9999   -1.5413    0.0320 H   0  0  0  0  0  0  0  0  0  0  0  0
    0.8679   -0.0983   -1.4036 H   0  0  0  0  0  0  0  0  0  0  0  0
   -0.2988   -2.0199   -1.5784 H   0  0  0  0  0  0  0  0  0  0  0  0
   -0.7715   -2.1014    0.1587 H   0  0  0  0  0  0  0  0  0  0  0  0
   -2.0587    1.5472   -1.3071 H   0  0  0  0  0  0  0  0  0  0  0  0
   -1.8613    1.9602    1.2089 H   0  0  0  0  0  0  0  0  0  0  0  0
   -1.8251    0.1483    1.5372 H   0  0  0  0  0  0  0  0  0  0  0  0
    0.1728    1.8728   -0.2254 H   0  0  0  0  0  0  0  0  0  0  0  0
  1  2  1  0
  2  3  1  0
  3  4  1  0
  4  5  1  0
  5  6  2  0
  5  7  1  0
  7  8  1  0
  8  9  1  0
  9  3  1  0
  9  7  1  0
  1 10  1  0
  1 11  1  0
  1 12  1  0
  2 13  1  0
  2 14  1  0
  3 15  1  0
  4 16  1  0
  4 17  1  0
  7 18  1  0
  8 19  1  0
  8 20  1  0
  9 21  1  0
M  END
