
     RDKit          3D

 23 23  0  0  0  0  0  0  0  0999 V2000
    3.5600   -0.1102   -0.2110 C   0  0  0  0  0  0  0  0  0  0  0  0
    2.4655    0.9367   -0.1558 C   0  0  0  0  0  0  0  0  0  0  0  0
    1.2714    0.3214    0.4902 C   0  0  0  0  0  0  0  0  0  0  0  0
    0.1940    1.3788    0.5356 O   0  0  0  0  0  0  0  0  0  0  0  0
   -0.0015    0.1532   -0.1009 C   0  0  0  0  0  0  0  0  0  0  0  0
   -1.0341   -0.7061    0.5909 C   0  0  0  0  0  0  0  0  0  0  0  0
   -2.3094   -0.7186   -0.2533 C   0  0  0  0  0  0  0  0  0  0  0  0
   -2.8492    0.6898   -0.4109 C   0  0  0  0  0  0  0  0  0  0  0  0
   -3.2737   -1.5353    0.2935 O   0  0  0  0  0  0  0  0  0  0  0  0
    3.0605   -1.0927   -0.3606 H   0  0  0  0  0  0  0  0  0  0  0  0
    4.0244   -0.1357    0.7959 H   0  0  0  0  0  0  0  0  0  0  0  0
    4.2827    0.0609   -1.0176 H   0  0  0  0  0  0  0  0  0  0  0  0
    2.2782    1.3960   -1.1262 H   0  0  0  0  0  0  0  0  0  0  0  0
    2.8290    1.7615    0.5195 H   0  0  0  0  0  0  0  0  0  0  0  0
    1.4647   -0.0671    1.5190 H   0  0  0  0  0  0  0  0  0  0  0  0
   -0.1090    0.1455   -1.2080 H   0  0  0  0  0  0  0  0  0  0  0  0
   -1.2695   -0.3298    1.6082 H   0  0  0  0  0  0  0  0  0  0  0  0
   -0.7074   -1.7774    0.6316 H   0  0  0  0  0  0  0  0  0  0  0  0
   -2.0295   -1.0581   -1.2753 H   0  0  0  0  0  0  0  0  0  0  0  0
   -2.1951    1.2798   -1.0916 H   0  0  0  0  0  0  0  0  0  0  0  0
   -3.8355    0.6361   -0.8827 H   0  0  0  0  0  0  0  0  0  0  0  0
   -2.9737    1.1899    0.5744 H   0  0  0  0  0  0  0  0  0  0  0  0
   -2.8430   -2.4186    0.4765 H   0  0  0  0  0  0  0  0  0  0  0  0
  1  2  1  0
  2  3  1  0
  3  4  1  0
  4  5  1  0
  5  6  1  0
  6  7  1  0
  7  8  1  0
  7  9  1  0
  5  3  1  0
  1 10  1  0
  1 11  1  0
  1 12  1  0
  2 13  1  0
  2 14  1  0
  3 15  1  0
  5 16  1  0
  6 17  1  0
  6 18  1  0
  7 19  1  0
  8 20  1  0
  8 21  1  0
  8 22  1  0
  9 23  1  0
M  END
