
     RDKit          3D

 23 24  0  0  0  0  0  0  0  0999 V2000
    1.9691   -1.2375    0.2214 C   0  0  0  0  0  0  0  0  0  0  0  0
    1.8887   -0.0700   -0.6849 C   0  0  0  0  0  0  0  0  0  0  0  0
    0.6666    0.7698   -0.6316 C   0  0  0  0  0  0  0  0  0  0  0  0
   -0.6995    0.2867   -0.9135 C   0  0  0  0  0  0  0  0  0  0  0  0
   -1.1848   -1.0887   -0.6245 C   0  0  0  0  0  0  0  0  0  0  0  0
   -1.4565   -1.0709    0.8497 C   0  0  0  0  0  0  0  0  0  0  0  0
   -0.5667   -0.1698    1.3577 O   0  0  0  0  0  0  0  0  0  0  0  0
   -0.3068    0.8219    0.4540 C   0  0  0  0  0  0  0  0  0  0  0  0
   -0.9833    2.1570    0.7910 C   0  0  0  0  0  0  0  0  0  0  0  0
    1.4922   -1.1509    1.1906 H   0  0  0  0  0  0  0  0  0  0  0  0
    3.0738   -1.3897    0.4600 H   0  0  0  0  0  0  0  0  0  0  0  0
    1.7286   -2.2011   -0.3170 H   0  0  0  0  0  0  0  0  0  0  0  0
    1.9985   -0.4782   -1.7388 H   0  0  0  0  0  0  0  0  0  0  0  0
    2.8255    0.5621   -0.5887 H   0  0  0  0  0  0  0  0  0  0  0  0
    0.8623    1.7951   -1.0991 H   0  0  0  0  0  0  0  0  0  0  0  0
   -1.3786    0.9141   -1.5493 H   0  0  0  0  0  0  0  0  0  0  0  0
   -0.5258   -1.9095   -0.9616 H   0  0  0  0  0  0  0  0  0  0  0  0
   -2.1873   -1.2364   -1.1162 H   0  0  0  0  0  0  0  0  0  0  0  0
   -2.4838   -0.6997    1.0541 H   0  0  0  0  0  0  0  0  0  0  0  0
   -1.2693   -2.0540    1.3268 H   0  0  0  0  0  0  0  0  0  0  0  0
   -0.2820    2.9577    0.5065 H   0  0  0  0  0  0  0  0  0  0  0  0
   -1.8934    2.3033    0.1573 H   0  0  0  0  0  0  0  0  0  0  0  0
   -1.2876    2.1887    1.8561 H   0  0  0  0  0  0  0  0  0  0  0  0
  1  2  1  0
  2  3  1  0
  3  4  1  0
  4  5  1  0
  5  6  1  0
  6  7  1  0
  7  8  1  0
  8  9  1  0
  8  3  1  0
  8  4  1  0
  1 10  1  0
  1 11  1  0
  1 12  1  0
  2 13  1  0
  2 14  1  0
  3 15  1  0
  4 16  1  0
  5 17  1  0
  5 18  1  0
  6 19  1  0
  6 20  1  0
  9 21  1  0
  9 22  1  0
  9 23  1  0
M  END
