
     RDKit          3D

 21 21  0  0  0  0  0  0  0  0999 V2000
    2.7301   -0.1587   -0.1320 C   0  0  0  0  0  0  0  0  0  0  0  0
    1.5974    0.6256    0.4470 C   0  0  0  0  0  0  0  0  0  0  0  0
    0.2660    0.2476   -0.1580 C   0  0  0  0  0  0  0  0  0  0  0  0
   -0.0657   -1.2079    0.0593 C   0  0  0  0  0  0  0  0  0  0  0  0
   -1.3870   -1.4222    0.4040 O   0  0  0  0  0  0  0  0  0  0  0  0
   -2.2880   -0.6967   -0.3501 C   0  0  0  0  0  0  0  0  0  0  0  0
   -2.2103    0.7973   -0.0100 C   0  0  0  0  0  0  0  0  0  0  0  0
   -0.8231    1.0508    0.4369 C   0  0  0  0  0  0  0  0  0  0  0  0
   -0.5553    1.8876    1.2666 O   0  0  0  0  0  0  0  0  0  0  0  0
    3.6674    0.1639    0.3404 H   0  0  0  0  0  0  0  0  0  0  0  0
    2.6149   -1.2442    0.0118 H   0  0  0  0  0  0  0  0  0  0  0  0
    2.8382    0.0460   -1.2248 H   0  0  0  0  0  0  0  0  0  0  0  0
    1.6059    0.5838    1.5411 H   0  0  0  0  0  0  0  0  0  0  0  0
    1.7672    1.7003    0.1699 H   0  0  0  0  0  0  0  0  0  0  0  0
    0.3610    0.4467   -1.2654 H   0  0  0  0  0  0  0  0  0  0  0  0
    0.5621   -1.5816    0.9158 H   0  0  0  0  0  0  0  0  0  0  0  0
    0.1581   -1.8038   -0.8360 H   0  0  0  0  0  0  0  0  0  0  0  0
   -2.1826   -0.8651   -1.4294 H   0  0  0  0  0  0  0  0  0  0  0  0
   -3.3052   -1.0366   -0.0604 H   0  0  0  0  0  0  0  0  0  0  0  0
   -2.4079    1.4125   -0.9162 H   0  0  0  0  0  0  0  0  0  0  0  0
   -2.9431    1.0550    0.7892 H   0  0  0  0  0  0  0  0  0  0  0  0
  1  2  1  0
  2  3  1  0
  3  4  1  0
  4  5  1  0
  5  6  1  0
  6  7  1  0
  7  8  1  0
  8  9  2  0
  8  3  1  0
  1 10  1  0
  1 11  1  0
  1 12  1  0
  2 13  1  0
  2 14  1  0
  3 15  1  0
  4 16  1  0
  4 17  1  0
  6 18  1  0
  6 19  1  0
  7 20  1  0
  7 21  1  0
M  END
