
     RDKit          3D

 21 22  0  0  0  0  0  0  0  0999 V2000
    2.5148    0.4771    0.3099 C   0  0  0  0  0  0  0  0  0  0  0  0
    1.7071   -0.6671   -0.2515 C   0  0  0  0  0  0  0  0  0  0  0  0
    0.2710   -0.2952   -0.2126 C   0  0  0  0  0  0  0  0  0  0  0  0
   -0.7072   -1.2850   -0.7218 C   0  0  0  0  0  0  0  0  0  0  0  0
   -1.9697   -0.8951   -0.7663 C   0  0  0  0  0  0  0  0  0  0  0  0
   -2.3119    0.5066   -0.3046 C   0  0  0  0  0  0  0  0  0  0  0  0
   -1.0088    1.1175    0.1720 C   0  0  0  0  0  0  0  0  0  0  0  0
   -0.2773    0.1941    1.1077 C   0  0  0  0  0  0  0  0  0  0  0  0
    0.0080    0.9706   -0.7410 O   0  0  0  0  0  0  0  0  0  0  0  0
    1.9119    1.3522    0.5809 H   0  0  0  0  0  0  0  0  0  0  0  0
    3.3037    0.8287   -0.4142 H   0  0  0  0  0  0  0  0  0  0  0  0
    3.1021    0.0690    1.1755 H   0  0  0  0  0  0  0  0  0  0  0  0
    1.9282   -1.6121    0.2384 H   0  0  0  0  0  0  0  0  0  0  0  0
    2.0038   -0.7742   -1.3199 H   0  0  0  0  0  0  0  0  0  0  0  0
   -0.4025   -2.2573   -1.0338 H   0  0  0  0  0  0  0  0  0  0  0  0
   -2.7670   -1.5334   -1.1177 H   0  0  0  0  0  0  0  0  0  0  0  0
   -3.0317    0.5001    0.5172 H   0  0  0  0  0  0  0  0  0  0  0  0
   -2.6686    1.0311   -1.2132 H   0  0  0  0  0  0  0  0  0  0  0  0
   -1.0989    2.1449    0.5729 H   0  0  0  0  0  0  0  0  0  0  0  0
   -0.9367   -0.5197    1.6241 H   0  0  0  0  0  0  0  0  0  0  0  0
    0.4297    0.6472    1.7978 H   0  0  0  0  0  0  0  0  0  0  0  0
  1  2  1  0
  2  3  1  0
  3  4  1  0
  4  5  2  0
  5  6  1  0
  6  7  1  0
  7  8  1  0
  7  9  1  0
  8  3  1  0
  9  3  1  0
  1 10  1  0
  1 11  1  0
  1 12  1  0
  2 13  1  0
  2 14  1  0
  4 15  1  0
  5 16  1  0
  6 17  1  0
  6 18  1  0
  7 19  1  0
  8 20  1  0
  8 21  1  0
M  END
