
     RDKit          3D

 23 23  0  0  0  0  0  0  0  0999 V2000
    3.1943   -0.4730   -0.4596 C   0  0  0  0  0  0  0  0  0  0  0  0
    2.3704   -0.0324    0.7342 C   0  0  0  0  0  0  0  0  0  0  0  0
    1.1254    0.6199    0.2122 C   0  0  0  0  0  0  0  0  0  0  0  0
    0.2736   -0.3168   -0.6517 C   0  0  0  0  0  0  0  0  0  0  0  0
   -0.7904    0.5112   -0.0060 C   0  0  0  0  0  0  0  0  0  0  0  0
   -2.0857   -0.1992    0.3079 C   0  0  0  0  0  0  0  0  0  0  0  0
   -2.9973   -0.2695   -0.8752 C   0  0  0  0  0  0  0  0  0  0  0  0
   -2.7392    0.5777    1.2912 O   0  0  0  0  0  0  0  0  0  0  0  0
    0.0442    0.6463    1.1022 O   0  0  0  0  0  0  0  0  0  0  0  0
    3.1451   -1.5709   -0.6192 H   0  0  0  0  0  0  0  0  0  0  0  0
    2.8406    0.0011   -1.3955 H   0  0  0  0  0  0  0  0  0  0  0  0
    4.2461   -0.1678   -0.3181 H   0  0  0  0  0  0  0  0  0  0  0  0
    2.0707   -0.8838    1.3752 H   0  0  0  0  0  0  0  0  0  0  0  0
    2.9129    0.7228    1.3387 H   0  0  0  0  0  0  0  0  0  0  0  0
    1.2845    1.5576   -0.3411 H   0  0  0  0  0  0  0  0  0  0  0  0
    0.4490   -0.1658   -1.7211 H   0  0  0  0  0  0  0  0  0  0  0  0
    0.3072   -1.3321   -0.2554 H   0  0  0  0  0  0  0  0  0  0  0  0
   -0.9598    1.4777   -0.4874 H   0  0  0  0  0  0  0  0  0  0  0  0
   -1.9159   -1.2289    0.6741 H   0  0  0  0  0  0  0  0  0  0  0  0
   -3.0846    0.6809   -1.4334 H   0  0  0  0  0  0  0  0  0  0  0  0
   -4.0325   -0.4984   -0.5006 H   0  0  0  0  0  0  0  0  0  0  0  0
   -2.7517   -1.1215   -1.5686 H   0  0  0  0  0  0  0  0  0  0  0  0
   -2.9072    1.4649    0.8868 H   0  0  0  0  0  0  0  0  0  0  0  0
  1  2  1  0
  2  3  1  0
  3  4  1  0
  4  5  1  0
  5  6  1  0
  6  7  1  0
  6  8  1  0
  5  9  1  0
  9  3  1  0
  1 10  1  0
  1 11  1  0
  1 12  1  0
  2 13  1  0
  2 14  1  0
  3 15  1  0
  4 16  1  0
  4 17  1  0
  5 18  1  0
  6 19  1  0
  7 20  1  0
  7 21  1  0
  7 22  1  0
  8 23  1  0
M  END
