
     RDKit          3D

 23 24  0  0  0  0  0  0  0  0999 V2000
   -2.5329    1.0589    0.4103 C   0  0  0  0  0  0  0  0  0  0  0  0
   -1.5469    0.1324    1.0263 C   0  0  0  0  0  0  0  0  0  0  0  0
   -0.5725   -0.4623    0.0082 C   0  0  0  0  0  0  0  0  0  0  0  0
   -1.1837   -1.2749   -1.1111 C   0  0  0  0  0  0  0  0  0  0  0  0
    0.7281   -0.6953    0.4026 C   0  0  0  0  0  0  0  0  0  0  0  0
    1.6196   -1.3655   -0.4543 O   0  0  0  0  0  0  0  0  0  0  0  0
    1.9920   -0.0425   -0.6704 C   0  0  0  0  0  0  0  0  0  0  0  0
    2.9815    0.4674    0.3676 C   0  0  0  0  0  0  0  0  0  0  0  0
    0.6266    0.4695   -0.3766 C   0  0  0  0  0  0  0  0  0  0  0  0
   -2.1919    1.5339   -0.5313 H   0  0  0  0  0  0  0  0  0  0  0  0
   -3.4961    0.5531    0.1685 H   0  0  0  0  0  0  0  0  0  0  0  0
   -2.8167    1.9009    1.1038 H   0  0  0  0  0  0  0  0  0  0  0  0
   -1.0268    0.6413    1.8396 H   0  0  0  0  0  0  0  0  0  0  0  0
   -2.0900   -0.7260    1.4597 H   0  0  0  0  0  0  0  0  0  0  0  0
   -1.2955   -2.3473   -0.7838 H   0  0  0  0  0  0  0  0  0  0  0  0
   -0.5231   -1.2299   -2.0061 H   0  0  0  0  0  0  0  0  0  0  0  0
   -2.2039   -0.8976   -1.3788 H   0  0  0  0  0  0  0  0  0  0  0  0
    1.1361   -0.5871    1.4439 H   0  0  0  0  0  0  0  0  0  0  0  0
    2.4065    0.0751   -1.6661 H   0  0  0  0  0  0  0  0  0  0  0  0
    3.3868   -0.3803    0.9746 H   0  0  0  0  0  0  0  0  0  0  0  0
    3.8563    0.9641   -0.0962 H   0  0  0  0  0  0  0  0  0  0  0  0
    2.5153    1.2096    1.0545 H   0  0  0  0  0  0  0  0  0  0  0  0
    0.2312    1.0025   -1.1849 H   0  0  0  0  0  0  0  0  0  0  0  0
  1  2  1  0
  2  3  1  0
  3  4  1  0
  3  5  1  0
  5  6  1  0
  6  7  1  0
  7  8  1  0
  7  9  1  0
  9  3  1  0
  9  5  1  0
  1 10  1  0
  1 11  1  0
  1 12  1  0
  2 13  1  0
  2 14  1  0
  4 15  1  0
  4 16  1  0
  4 17  1  0
  5 18  1  0
  7 19  1  0
  8 20  1  0
  8 21  1  0
  8 22  1  0
  9 23  1  0
M  END
