
     RDKit          3D

 23 23  0  0  0  0  0  0  0  0999 V2000
    2.5378   -0.7514    0.3119 C   0  0  0  0  0  0  0  0  0  0  0  0
    1.4754    0.2862   -0.0261 C   0  0  0  0  0  0  0  0  0  0  0  0
    0.1277   -0.1046    0.5319 C   0  0  0  0  0  0  0  0  0  0  0  0
   -0.8971    0.9534    0.1730 C   0  0  0  0  0  0  0  0  0  0  0  0
   -0.6378    1.6450   -1.1496 C   0  0  0  0  0  0  0  0  0  0  0  0
   -1.8834   -0.1839   -0.0623 C   0  0  0  0  0  0  0  0  0  0  0  0
   -2.5616   -0.4494    1.1164 O   0  0  0  0  0  0  0  0  0  0  0  0
   -0.6614   -1.0805   -0.2862 C   0  0  0  0  0  0  0  0  0  0  0  0
   -0.8925   -2.3168    0.2646 O   0  0  0  0  0  0  0  0  0  0  0  0
    3.1408   -0.4361    1.1891 H   0  0  0  0  0  0  0  0  0  0  0  0
    3.2532   -0.8231   -0.5370 H   0  0  0  0  0  0  0  0  0  0  0  0
    2.0874   -1.7287    0.5684 H   0  0  0  0  0  0  0  0  0  0  0  0
    1.8153    1.2321    0.4473 H   0  0  0  0  0  0  0  0  0  0  0  0
    1.4642    0.4693   -1.1132 H   0  0  0  0  0  0  0  0  0  0  0  0
    0.2098   -0.3389    1.5909 H   0  0  0  0  0  0  0  0  0  0  0  0
   -1.0992    1.5990    1.0194 H   0  0  0  0  0  0  0  0  0  0  0  0
    0.0705    2.4574   -0.9502 H   0  0  0  0  0  0  0  0  0  0  0  0
   -0.3382    0.9474   -1.9382 H   0  0  0  0  0  0  0  0  0  0  0  0
   -1.6099    2.1016   -1.4986 H   0  0  0  0  0  0  0  0  0  0  0  0
   -2.5223   -0.0742   -0.9501 H   0  0  0  0  0  0  0  0  0  0  0  0
   -2.4726    0.2970    1.7730 H   0  0  0  0  0  0  0  0  0  0  0  0
   -0.3890   -1.0745   -1.3701 H   0  0  0  0  0  0  0  0  0  0  0  0
   -0.2169   -2.6263    0.8957 H   0  0  0  0  0  0  0  0  0  0  0  0
  1  2  1  0
  2  3  1  0
  3  4  1  0
  4  5  1  0
  4  6  1  0
  6  7  1  0
  6  8  1  0
  8  9  1  0
  8  3  1  0
  1 10  1  0
  1 11  1  0
  1 12  1  0
  2 13  1  0
  2 14  1  0
  3 15  1  0
  4 16  1  0
  5 17  1  0
  5 18  1  0
  5 19  1  0
  6 20  1  0
  7 21  1  0
  8 22  1  0
  9 23  1  0
M  END
