
     RDKit          3D

 25 25  0  0  0  0  0  0  0  0999 V2000
   -1.7938    1.4362    0.1636 C   0  0  0  0  0  0  0  0  0  0  0  0
   -1.7897   -0.0094   -0.2073 C   0  0  0  0  0  0  0  0  0  0  0  0
   -0.4219   -0.6296   -0.2459 C   0  0  0  0  0  0  0  0  0  0  0  0
   -0.5260   -2.0951   -0.6312 C   0  0  0  0  0  0  0  0  0  0  0  0
    0.5903    0.0530   -1.1196 C   0  0  0  0  0  0  0  0  0  0  0  0
    1.5126    0.1232    0.0875 C   0  0  0  0  0  0  0  0  0  0  0  0
    1.9232    1.5506    0.3990 C   0  0  0  0  0  0  0  0  0  0  0  0
    0.4363   -0.4204    0.9490 C   0  0  0  0  0  0  0  0  0  0  0  0
    0.7189   -1.5538    1.6882 O   0  0  0  0  0  0  0  0  0  0  0  0
   -0.8967    1.9945   -0.1121 H   0  0  0  0  0  0  0  0  0  0  0  0
   -2.6421    1.9162   -0.4086 H   0  0  0  0  0  0  0  0  0  0  0  0
   -2.0794    1.5620    1.2338 H   0  0  0  0  0  0  0  0  0  0  0  0
   -2.3822   -0.5652    0.5514 H   0  0  0  0  0  0  0  0  0  0  0  0
   -2.2730   -0.1634   -1.2010 H   0  0  0  0  0  0  0  0  0  0  0  0
   -0.5606   -2.1607   -1.7354 H   0  0  0  0  0  0  0  0  0  0  0  0
   -1.4663   -2.4770   -0.1946 H   0  0  0  0  0  0  0  0  0  0  0  0
    0.3717   -2.6594   -0.2974 H   0  0  0  0  0  0  0  0  0  0  0  0
    0.9765   -0.5589   -1.9568 H   0  0  0  0  0  0  0  0  0  0  0  0
    0.2487    1.0181   -1.4884 H   0  0  0  0  0  0  0  0  0  0  0  0
    2.3958   -0.5099   -0.0909 H   0  0  0  0  0  0  0  0  0  0  0  0
    1.2064    1.9748    1.1425 H   0  0  0  0  0  0  0  0  0  0  0  0
    1.8982    2.2042   -0.4842 H   0  0  0  0  0  0  0  0  0  0  0  0
    2.9449    1.5253    0.8599 H   0  0  0  0  0  0  0  0  0  0  0  0
    0.0051    0.3900    1.6025 H   0  0  0  0  0  0  0  0  0  0  0  0
    1.6032   -1.9454    1.4958 H   0  0  0  0  0  0  0  0  0  0  0  0
  1  2  1  0
  2  3  1  0
  3  4  1  0
  3  5  1  0
  5  6  1  0
  6  7  1  0
  6  8  1  0
  8  9  1  0
  8  3  1  0
  1 10  1  0
  1 11  1  0
  1 12  1  0
  2 13  1  0
  2 14  1  0
  4 15  1  0
  4 16  1  0
  4 17  1  0
  5 18  1  0
  5 19  1  0
  6 20  1  0
  7 21  1  0
  7 22  1  0
  7 23  1  0
  8 24  1  0
  9 25  1  0
M  END
