
     RDKit          3D

 21 22  0  0  0  0  0  0  0  0999 V2000
    2.9812    0.2166   -0.0885 C   0  0  0  0  0  0  0  0  0  0  0  0
    1.9097    0.2603    0.9491 C   0  0  0  0  0  0  0  0  0  0  0  0
    0.5491    0.5879    0.3851 C   0  0  0  0  0  0  0  0  0  0  0  0
    0.0426   -0.3932   -0.6488 C   0  0  0  0  0  0  0  0  0  0  0  0
   -0.9658   -0.8445    0.4068 C   0  0  0  0  0  0  0  0  0  0  0  0
   -2.3699   -0.7027   -0.1249 C   0  0  0  0  0  0  0  0  0  0  0  0
   -3.1333    0.5413    0.2149 C   0  0  0  0  0  0  0  0  0  0  0  0
   -3.3494   -0.6008    0.9668 O   0  0  0  0  0  0  0  0  0  0  0  0
   -0.5192    0.1923    1.1953 O   0  0  0  0  0  0  0  0  0  0  0  0
    2.9060    1.0680   -0.8020 H   0  0  0  0  0  0  0  0  0  0  0  0
    3.0327   -0.7362   -0.6475 H   0  0  0  0  0  0  0  0  0  0  0  0
    3.9704    0.3008    0.4505 H   0  0  0  0  0  0  0  0  0  0  0  0
    2.1628    1.1059    1.6486 H   0  0  0  0  0  0  0  0  0  0  0  0
    1.9285   -0.6570    1.5361 H   0  0  0  0  0  0  0  0  0  0  0  0
    0.4335    1.6596    0.1222 H   0  0  0  0  0  0  0  0  0  0  0  0
   -0.4000    0.1071   -1.5212 H   0  0  0  0  0  0  0  0  0  0  0  0
    0.7291   -1.2065   -0.8846 H   0  0  0  0  0  0  0  0  0  0  0  0
   -0.7238   -1.8203    0.8742 H   0  0  0  0  0  0  0  0  0  0  0  0
   -2.6947   -1.2783   -0.9894 H   0  0  0  0  0  0  0  0  0  0  0  0
   -2.5049    1.3631    0.6296 H   0  0  0  0  0  0  0  0  0  0  0  0
   -3.9846    0.8365   -0.4112 H   0  0  0  0  0  0  0  0  0  0  0  0
  1  2  1  0
  2  3  1  0
  3  4  1  0
  4  5  1  0
  5  6  1  0
  6  7  1  0
  7  8  1  0
  5  9  1  0
  9  3  1  0
  8  6  1  0
  1 10  1  0
  1 11  1  0
  1 12  1  0
  2 13  1  0
  2 14  1  0
  3 15  1  0
  4 16  1  0
  4 17  1  0
  5 18  1  0
  6 19  1  0
  7 20  1  0
  7 21  1  0
M  END
