
     RDKit          3D

 25 25  0  0  0  0  0  0  0  0999 V2000
    2.0894    1.1579    0.0552 C   0  0  0  0  0  0  0  0  0  0  0  0
    0.7236    0.9849    0.6492 C   0  0  0  0  0  0  0  0  0  0  0  0
    0.1520   -0.3572    0.2801 C   0  0  0  0  0  0  0  0  0  0  0  0
    1.0107   -1.4660    0.7756 C   0  0  0  0  0  0  0  0  0  0  0  0
   -0.0663   -0.3903   -1.2213 C   0  0  0  0  0  0  0  0  0  0  0  0
   -1.2036    0.6120   -1.3678 C   0  0  0  0  0  0  0  0  0  0  0  0
   -1.9579    0.6023   -0.0724 C   0  0  0  0  0  0  0  0  0  0  0  0
   -1.2886   -0.4569    0.7672 C   0  0  0  0  0  0  0  0  0  0  0  0
   -1.8077   -1.6946    0.3419 O   0  0  0  0  0  0  0  0  0  0  0  0
    2.8416    1.2692    0.8776 H   0  0  0  0  0  0  0  0  0  0  0  0
    2.1801    2.0953   -0.5436 H   0  0  0  0  0  0  0  0  0  0  0  0
    2.4238    0.2649   -0.5324 H   0  0  0  0  0  0  0  0  0  0  0  0
    0.0885    1.8077    0.2886 H   0  0  0  0  0  0  0  0  0  0  0  0
    0.7637    1.0848    1.7689 H   0  0  0  0  0  0  0  0  0  0  0  0
    0.6443   -1.7391    1.8066 H   0  0  0  0  0  0  0  0  0  0  0  0
    0.9842   -2.3756    0.1494 H   0  0  0  0  0  0  0  0  0  0  0  0
    2.0504   -1.0983    0.9385 H   0  0  0  0  0  0  0  0  0  0  0  0
   -0.4035   -1.4189   -1.5289 H   0  0  0  0  0  0  0  0  0  0  0  0
    0.8041   -0.0738   -1.7867 H   0  0  0  0  0  0  0  0  0  0  0  0
   -1.8039    0.2677   -2.2315 H   0  0  0  0  0  0  0  0  0  0  0  0
   -0.7429    1.6144   -1.5764 H   0  0  0  0  0  0  0  0  0  0  0  0
   -3.0189    0.3762   -0.2949 H   0  0  0  0  0  0  0  0  0  0  0  0
   -1.9548    1.5983    0.4290 H   0  0  0  0  0  0  0  0  0  0  0  0
   -1.3852   -0.3002    1.8380 H   0  0  0  0  0  0  0  0  0  0  0  0
   -1.1232   -2.3646    0.1901 H   0  0  0  0  0  0  0  0  0  0  0  0
  1  2  1  0
  2  3  1  0
  3  4  1  0
  3  5  1  0
  5  6  1  0
  6  7  1  0
  7  8  1  0
  8  9  1  0
  8  3  1  0
  1 10  1  0
  1 11  1  0
  1 12  1  0
  2 13  1  0
  2 14  1  0
  4 15  1  0
  4 16  1  0
  4 17  1  0
  5 18  1  0
  5 19  1  0
  6 20  1  0
  6 21  1  0
  7 22  1  0
  7 23  1  0
  8 24  1  0
  9 25  1  0
M  END
