
     RDKit          3D

 21 22  0  0  0  0  0  0  0  0999 V2000
   -2.7086    0.4371    0.3119 C   0  0  0  0  0  0  0  0  0  0  0  0
   -1.6800   -0.0745   -0.6351 C   0  0  0  0  0  0  0  0  0  0  0  0
   -0.2983    0.4595   -0.3712 C   0  0  0  0  0  0  0  0  0  0  0  0
    0.2758    0.1494    0.9810 C   0  0  0  0  0  0  0  0  0  0  0  0
    1.0208   -1.0214    0.3624 C   0  0  0  0  0  0  0  0  0  0  0  0
    2.3642   -0.9690    0.6205 O   0  0  0  0  0  0  0  0  0  0  0  0
    2.8124    0.1212   -0.0810 C   0  0  0  0  0  0  0  0  0  0  0  0
    2.0047    0.3205   -1.1715 O   0  0  0  0  0  0  0  0  0  0  0  0
    0.8224   -0.3574   -0.9809 C   0  0  0  0  0  0  0  0  0  0  0  0
   -3.7179    0.2651   -0.1619 H   0  0  0  0  0  0  0  0  0  0  0  0
   -2.7407   -0.1199    1.2696 H   0  0  0  0  0  0  0  0  0  0  0  0
   -2.6104    1.5400    0.4626 H   0  0  0  0  0  0  0  0  0  0  0  0
   -1.6821   -1.1765   -0.6077 H   0  0  0  0  0  0  0  0  0  0  0  0
   -1.9704    0.2356   -1.6601 H   0  0  0  0  0  0  0  0  0  0  0  0
   -0.1678    1.5251   -0.6527 H   0  0  0  0  0  0  0  0  0  0  0  0
   -0.4033   -0.1911    1.7555 H   0  0  0  0  0  0  0  0  0  0  0  0
    0.9373    0.9573    1.3661 H   0  0  0  0  0  0  0  0  0  0  0  0
    0.5147   -1.9934    0.4476 H   0  0  0  0  0  0  0  0  0  0  0  0
    3.8749   -0.0996   -0.3836 H   0  0  0  0  0  0  0  0  0  0  0  0
    2.8404    1.0269    0.5610 H   0  0  0  0  0  0  0  0  0  0  0  0
    0.5120   -1.0350   -1.7984 H   0  0  0  0  0  0  0  0  0  0  0  0
  1  2  1  0
  2  3  1  0
  3  4  1  0
  4  5  1  0
  5  6  1  0
  6  7  1  0
  7  8  1  0
  8  9  1  0
  9  3  1  0
  9  5  1  0
  1 10  1  0
  1 11  1  0
  1 12  1  0
  2 13  1  0
  2 14  1  0
  3 15  1  0
  4 16  1  0
  4 17  1  0
  5 18  1  0
  7 19  1  0
  7 20  1  0
  9 21  1  0
M  END
