
     RDKit          3D

 23 24  0  0  0  0  0  0  0  0999 V2000
   -1.3474    2.0159   -0.3997 C   0  0  0  0  0  0  0  0  0  0  0  0
   -0.0635    1.5811    0.2067 C   0  0  0  0  0  0  0  0  0  0  0  0
    0.4305    0.2277   -0.2259 C   0  0  0  0  0  0  0  0  0  0  0  0
   -0.3524   -1.0156    0.0016 C   0  0  0  0  0  0  0  0  0  0  0  0
   -1.7360   -1.2030   -0.5813 C   0  0  0  0  0  0  0  0  0  0  0  0
   -1.4822   -1.1291    0.9245 C   0  0  0  0  0  0  0  0  0  0  0  0
    1.2173    0.1661   -1.4002 O   0  0  0  0  0  0  0  0  0  0  0  0
    1.9562    0.1380   -0.2462 C   0  0  0  0  0  0  0  0  0  0  0  0
    2.6084   -1.1329    0.2200 C   0  0  0  0  0  0  0  0  0  0  0  0
   -1.3807    3.1438   -0.3059 H   0  0  0  0  0  0  0  0  0  0  0  0
   -2.2577    1.6833    0.1306 H   0  0  0  0  0  0  0  0  0  0  0  0
   -1.4301    1.8124   -1.4859 H   0  0  0  0  0  0  0  0  0  0  0  0
   -0.2200    1.5230    1.3132 H   0  0  0  0  0  0  0  0  0  0  0  0
    0.7007    2.3714    0.0683 H   0  0  0  0  0  0  0  0  0  0  0  0
    0.2719   -1.9415   -0.1101 H   0  0  0  0  0  0  0  0  0  0  0  0
   -2.2674   -0.3879   -1.0693 H   0  0  0  0  0  0  0  0  0  0  0  0
   -2.0524   -2.2087   -0.9312 H   0  0  0  0  0  0  0  0  0  0  0  0
   -1.5940   -2.0922    1.5055 H   0  0  0  0  0  0  0  0  0  0  0  0
   -1.9732   -0.3019    1.4312 H   0  0  0  0  0  0  0  0  0  0  0  0
    2.5515    1.0393   -0.0535 H   0  0  0  0  0  0  0  0  0  0  0  0
    3.6989   -1.0278    0.0447 H   0  0  0  0  0  0  0  0  0  0  0  0
    2.2941   -2.0286   -0.3493 H   0  0  0  0  0  0  0  0  0  0  0  0
    2.4275   -1.2330    1.3120 H   0  0  0  0  0  0  0  0  0  0  0  0
  1  2  1  0
  2  3  1  0
  3  4  1  0
  4  5  1  0
  5  6  1  0
  3  7  1  0
  7  8  1  0
  8  9  1  0
  8  3  1  0
  6  4  1  0
  1 10  1  0
  1 11  1  0
  1 12  1  0
  2 13  1  0
  2 14  1  0
  4 15  1  0
  5 16  1  0
  5 17  1  0
  6 18  1  0
  6 19  1  0
  8 20  1  0
  9 21  1  0
  9 22  1  0
  9 23  1  0
M  END
