
     RDKit          3D

 23 24  0  0  0  0  0  0  0  0999 V2000
    2.9249    0.5897   -0.5564 C   0  0  0  0  0  0  0  0  0  0  0  0
    2.1391   -0.4278    0.2438 C   0  0  0  0  0  0  0  0  0  0  0  0
    0.7026   -0.0235    0.4148 C   0  0  0  0  0  0  0  0  0  0  0  0
    0.5256    1.2017    1.0823 O   0  0  0  0  0  0  0  0  0  0  0  0
   -0.2163   -1.1649    0.7897 C   0  0  0  0  0  0  0  0  0  0  0  0
   -0.3567   -0.4863   -0.5013 C   0  0  0  0  0  0  0  0  0  0  0  0
   -1.5475    0.3639   -0.8267 C   0  0  0  0  0  0  0  0  0  0  0  0
   -2.4906    0.8327    0.2103 C   0  0  0  0  0  0  0  0  0  0  0  0
   -2.9031   -0.3798   -0.6298 C   0  0  0  0  0  0  0  0  0  0  0  0
    2.1730    1.1356   -1.1917 H   0  0  0  0  0  0  0  0  0  0  0  0
    3.6459    0.0628   -1.2013 H   0  0  0  0  0  0  0  0  0  0  0  0
    3.4048    1.2749    0.1778 H   0  0  0  0  0  0  0  0  0  0  0  0
    2.5647   -0.5240    1.2850 H   0  0  0  0  0  0  0  0  0  0  0  0
    2.2491   -1.4171   -0.2149 H   0  0  0  0  0  0  0  0  0  0  0  0
    1.1878    1.2892    1.8236 H   0  0  0  0  0  0  0  0  0  0  0  0
   -0.8479   -0.9559    1.6674 H   0  0  0  0  0  0  0  0  0  0  0  0
    0.2046   -2.2056    0.8150 H   0  0  0  0  0  0  0  0  0  0  0  0
    0.0140   -1.0715   -1.3920 H   0  0  0  0  0  0  0  0  0  0  0  0
   -1.4957    0.9550   -1.7649 H   0  0  0  0  0  0  0  0  0  0  0  0
   -2.3048    0.6931    1.2828 H   0  0  0  0  0  0  0  0  0  0  0  0
   -3.0301    1.7991    0.0006 H   0  0  0  0  0  0  0  0  0  0  0  0
   -2.8763   -1.3319   -0.0944 H   0  0  0  0  0  0  0  0  0  0  0  0
   -3.6673   -0.2092   -1.4198 H   0  0  0  0  0  0  0  0  0  0  0  0
  1  2  1  0
  2  3  1  0
  3  4  1  0
  3  5  1  0
  5  6  1  0
  6  7  1  0
  7  8  1  0
  8  9  1  0
  6  3  1  0
  9  7  1  0
  1 10  1  0
  1 11  1  0
  1 12  1  0
  2 13  1  0
  2 14  1  0
  4 15  1  0
  5 16  1  0
  5 17  1  0
  6 18  1  0
  7 19  1  0
  8 20  1  0
  8 21  1  0
  9 22  1  0
  9 23  1  0
M  END
