
     RDKit          3D

 23 24  0  0  0  0  0  0  0  0999 V2000
    3.1194    0.5638    0.1082 C   0  0  0  0  0  0  0  0  0  0  0  0
    2.0872   -0.5340    0.1356 C   0  0  0  0  0  0  0  0  0  0  0  0
    0.8362   -0.1629   -0.5786 C   0  0  0  0  0  0  0  0  0  0  0  0
    0.1600    1.0473   -0.0007 C   0  0  0  0  0  0  0  0  0  0  0  0
   -1.1409    0.8903    0.0225 C   0  0  0  0  0  0  0  0  0  0  0  0
   -2.6340    1.0138    0.1837 C   0  0  0  0  0  0  0  0  0  0  0  0
   -2.7124   -0.5280    0.1209 C   0  0  0  0  0  0  0  0  0  0  0  0
   -1.4358   -0.4577   -0.6466 C   0  0  0  0  0  0  0  0  0  0  0  0
   -0.2402   -1.2133   -0.1841 C   0  0  0  0  0  0  0  0  0  0  0  0
    2.6845    1.5632    0.2106 H   0  0  0  0  0  0  0  0  0  0  0  0
    3.8168    0.3979    0.9569 H   0  0  0  0  0  0  0  0  0  0  0  0
    3.7368    0.5159   -0.8100 H   0  0  0  0  0  0  0  0  0  0  0  0
    2.5115   -1.4253   -0.3434 H   0  0  0  0  0  0  0  0  0  0  0  0
    1.8633   -0.7700    1.1867 H   0  0  0  0  0  0  0  0  0  0  0  0
    0.9320   -0.0806   -1.6683 H   0  0  0  0  0  0  0  0  0  0  0  0
    0.6826    1.9276    0.3479 H   0  0  0  0  0  0  0  0  0  0  0  0
   -2.9768    1.4149    1.1386 H   0  0  0  0  0  0  0  0  0  0  0  0
   -3.1715    1.4429   -0.6573 H   0  0  0  0  0  0  0  0  0  0  0  0
   -3.5956   -0.8865   -0.4467 H   0  0  0  0  0  0  0  0  0  0  0  0
   -2.6561   -0.9768    1.1154 H   0  0  0  0  0  0  0  0  0  0  0  0
   -1.5712   -0.3405   -1.7355 H   0  0  0  0  0  0  0  0  0  0  0  0
   -0.2378   -1.2442    0.9099 H   0  0  0  0  0  0  0  0  0  0  0  0
   -0.0577   -2.1576   -0.6892 H   0  0  0  0  0  0  0  0  0  0  0  0
  1  2  1  0
  2  3  1  0
  3  4  1  0
  4  5  2  0
  5  6  1  0
  6  7  1  0
  7  8  1  0
  8  9  1  0
  9  3  1  0
  8  5  1  0
  1 10  1  0
  1 11  1  0
  1 12  1  0
  2 13  1  0
  2 14  1  0
  3 15  1  0
  4 16  1  0
  6 17  1  0
  6 18  1  0
  7 19  1  0
  7 20  1  0
  8 21  1  0
  9 22  1  0
  9 23  1  0
M  END
