
     RDKit          3D

 21 21  0  0  0  0  0  0  0  0999 V2000
    2.4943    0.3822   -0.4925 C   0  0  0  0  0  0  0  0  0  0  0  0
    1.4334    0.5479    0.5707 C   0  0  0  0  0  0  0  0  0  0  0  0
    0.3829   -0.5631    0.4637 C   0  0  0  0  0  0  0  0  0  0  0  0
   -0.2826   -0.5395   -0.8538 C   0  0  0  0  0  0  0  0  0  0  0  0
   -1.7256   -0.2375   -0.8779 C   0  0  0  0  0  0  0  0  0  0  0  0
   -2.2986    0.4627    0.2863 C   0  0  0  0  0  0  0  0  0  0  0  0
   -1.7114    0.1903    1.5191 O   0  0  0  0  0  0  0  0  0  0  0  0
   -0.5087   -0.4421    1.6237 C   0  0  0  0  0  0  0  0  0  0  0  0
   -0.1879   -0.9202    2.7525 O   0  0  0  0  0  0  0  0  0  0  0  0
    2.2886    0.9937   -1.3981 H   0  0  0  0  0  0  0  0  0  0  0  0
    3.5013    0.6708   -0.1347 H   0  0  0  0  0  0  0  0  0  0  0  0
    2.5768   -0.6689   -0.8408 H   0  0  0  0  0  0  0  0  0  0  0  0
    0.9473    1.5299    0.4017 H   0  0  0  0  0  0  0  0  0  0  0  0
    1.9304    0.4762    1.5519 H   0  0  0  0  0  0  0  0  0  0  0  0
    0.9755   -1.5139    0.6129 H   0  0  0  0  0  0  0  0  0  0  0  0
    0.2836    0.1702   -1.5247 H   0  0  0  0  0  0  0  0  0  0  0  0
   -0.1310   -1.5438   -1.3515 H   0  0  0  0  0  0  0  0  0  0  0  0
   -1.9443    0.3893   -1.7930 H   0  0  0  0  0  0  0  0  0  0  0  0
   -2.3349   -1.1731   -1.0539 H   0  0  0  0  0  0  0  0  0  0  0  0
   -2.2945    1.5822    0.1540 H   0  0  0  0  0  0  0  0  0  0  0  0
   -3.3947    0.2068    0.3844 H   0  0  0  0  0  0  0  0  0  0  0  0
  1  2  1  0
  2  3  1  0
  3  4  1  0
  4  5  1  0
  5  6  1  0
  6  7  1  0
  7  8  1  0
  8  9  2  0
  8  3  1  0
  1 10  1  0
  1 11  1  0
  1 12  1  0
  2 13  1  0
  2 14  1  0
  3 15  1  0
  4 16  1  0
  4 17  1  0
  5 18  1  0
  5 19  1  0
  6 20  1  0
  6 21  1  0
M  END
