
     RDKit          3D

 21 21  0  0  0  0  0  0  0  0999 V2000
    2.1259   -0.3949   -0.2148 C   0  0  0  0  0  0  0  0  0  0  0  0
    1.3906    0.2298    0.9325 C   0  0  0  0  0  0  0  0  0  0  0  0
    0.0337    0.7176    0.5263 C   0  0  0  0  0  0  0  0  0  0  0  0
    0.0481    1.7311   -0.5320 C   0  0  0  0  0  0  0  0  0  0  0  0
    0.9708    2.5617   -0.7386 O   0  0  0  0  0  0  0  0  0  0  0  0
   -1.1482    1.5763   -1.2363 O   0  0  0  0  0  0  0  0  0  0  0  0
   -1.8833    0.4849   -0.7447 C   0  0  0  0  0  0  0  0  0  0  0  0
   -0.7664   -0.3894   -0.1602 C   0  0  0  0  0  0  0  0  0  0  0  0
   -1.2776   -1.3975    0.8003 C   0  0  0  0  0  0  0  0  0  0  0  0
    2.1583    0.3180   -1.0665 H   0  0  0  0  0  0  0  0  0  0  0  0
    3.1961   -0.5434    0.0885 H   0  0  0  0  0  0  0  0  0  0  0  0
    1.7384   -1.3912   -0.5061 H   0  0  0  0  0  0  0  0  0  0  0  0
    1.2440   -0.5330    1.7253 H   0  0  0  0  0  0  0  0  0  0  0  0
    1.9831    1.0618    1.3120 H   0  0  0  0  0  0  0  0  0  0  0  0
   -0.5451    1.0629    1.3842 H   0  0  0  0  0  0  0  0  0  0  0  0
   -2.4727    0.8331    0.1256 H   0  0  0  0  0  0  0  0  0  0  0  0
   -2.4668   -0.0488   -1.4969 H   0  0  0  0  0  0  0  0  0  0  0  0
   -0.1482   -0.7706   -0.9722 H   0  0  0  0  0  0  0  0  0  0  0  0
   -0.9997   -1.1671    1.8609 H   0  0  0  0  0  0  0  0  0  0  0  0
   -0.8171   -2.4015    0.6022 H   0  0  0  0  0  0  0  0  0  0  0  0
   -2.3639   -1.5397    0.6882 H   0  0  0  0  0  0  0  0  0  0  0  0
  1  2  1  0
  2  3  1  0
  3  4  1  0
  4  5  2  0
  4  6  1  0
  6  7  1  0
  7  8  1  0
  8  9  1  0
  8  3  1  0
  1 10  1  0
  1 11  1  0
  1 12  1  0
  2 13  1  0
  2 14  1  0
  3 15  1  0
  7 16  1  0
  7 17  1  0
  8 18  1  0
  9 19  1  0
  9 20  1  0
  9 21  1  0
M  END
