
     RDKit          3D

 20 20  0  0  0  0  0  0  0  0999 V2000
    2.2162   -0.4427   -0.3065 C   0  0  0  0  0  0  0  0  0  0  0  0
    1.2841    0.5950    0.2127 C   0  0  0  0  0  0  0  0  0  0  0  0
   -0.1719    0.2483    0.0599 C   0  0  0  0  0  0  0  0  0  0  0  0
   -0.9769    1.3994    0.6333 C   0  0  0  0  0  0  0  0  0  0  0  0
   -0.5213   -1.0706    0.6684 C   0  0  0  0  0  0  0  0  0  0  0  0
   -1.5567   -1.5598   -0.1236 O   0  0  0  0  0  0  0  0  0  0  0  0
   -1.7364   -0.6498   -1.1625 C   0  0  0  0  0  0  0  0  0  0  0  0
   -0.5628    0.0927   -1.2591 O   0  0  0  0  0  0  0  0  0  0  0  0
    2.4214   -1.2279    0.4654 H   0  0  0  0  0  0  0  0  0  0  0  0
    3.2107    0.0516   -0.4717 H   0  0  0  0  0  0  0  0  0  0  0  0
    1.9287   -0.8714   -1.2835 H   0  0  0  0  0  0  0  0  0  0  0  0
    1.4766    0.7346    1.2925 H   0  0  0  0  0  0  0  0  0  0  0  0
    1.4843    1.5546   -0.2883 H   0  0  0  0  0  0  0  0  0  0  0  0
   -1.3519    1.1450    1.6398 H   0  0  0  0  0  0  0  0  0  0  0  0
   -1.8331    1.6745   -0.0051 H   0  0  0  0  0  0  0  0  0  0  0  0
   -0.3415    2.3285    0.7087 H   0  0  0  0  0  0  0  0  0  0  0  0
   -0.7504   -1.0448    1.7352 H   0  0  0  0  0  0  0  0  0  0  0  0
    0.3485   -1.7660    0.4841 H   0  0  0  0  0  0  0  0  0  0  0  0
   -2.6029   -0.0060   -0.8700 H   0  0  0  0  0  0  0  0  0  0  0  0
   -1.9647   -1.1850   -2.1296 H   0  0  0  0  0  0  0  0  0  0  0  0
  1  2  1  0
  2  3  1  0
  3  4  1  0
  3  5  1  0
  5  6  1  0
  6  7  1  0
  7  8  1  0
  8  3  1  0
  1  9  1  0
  1 10  1  0
  1 11  1  0
  2 12  1  0
  2 13  1  0
  4 14  1  0
  4 15  1  0
  4 16  1  0
  5 17  1  0
  5 18  1  0
  7 19  1  0
  7 20  1  0
M  END
