
     RDKit          3D

 21 22  0  0  0  0  0  0  0  0999 V2000
    2.9558    0.4373   -0.4620 C   0  0  0  0  0  0  0  0  0  0  0  0
    2.3802   -0.4428    0.6459 C   0  0  0  0  0  0  0  0  0  0  0  0
    0.8785   -0.5892    0.4914 C   0  0  0  0  0  0  0  0  0  0  0  0
    0.4671   -1.1938   -0.7712 O   0  0  0  0  0  0  0  0  0  0  0  0
    0.2005    0.1493   -0.5653 C   0  0  0  0  0  0  0  0  0  0  0  0
   -1.2011    0.6404   -0.4736 C   0  0  0  0  0  0  0  0  0  0  0  0
   -2.2075   -0.4659   -0.2694 C   0  0  0  0  0  0  0  0  0  0  0  0
   -3.6352    0.0184   -0.1744 C   0  0  0  0  0  0  0  0  0  0  0  0
   -2.8954   -0.5425    0.9254 O   0  0  0  0  0  0  0  0  0  0  0  0
    4.0581    0.4221   -0.3670 H   0  0  0  0  0  0  0  0  0  0  0  0
    2.6131    1.4864   -0.3603 H   0  0  0  0  0  0  0  0  0  0  0  0
    2.7264    0.0371   -1.4686 H   0  0  0  0  0  0  0  0  0  0  0  0
    2.9117   -1.4031    0.5866 H   0  0  0  0  0  0  0  0  0  0  0  0
    2.5812    0.0822    1.5879 H   0  0  0  0  0  0  0  0  0  0  0  0
    0.3847   -1.1044    1.3145 H   0  0  0  0  0  0  0  0  0  0  0  0
    0.8677    0.8227   -1.1792 H   0  0  0  0  0  0  0  0  0  0  0  0
   -1.4412    1.2382   -1.3588 H   0  0  0  0  0  0  0  0  0  0  0  0
   -1.2663    1.3193    0.4125 H   0  0  0  0  0  0  0  0  0  0  0  0
   -2.0882   -1.3924   -0.8592 H   0  0  0  0  0  0  0  0  0  0  0  0
   -3.8359    1.0985   -0.0313 H   0  0  0  0  0  0  0  0  0  0  0  0
   -4.4542   -0.6177   -0.5692 H   0  0  0  0  0  0  0  0  0  0  0  0
  1  2  1  0
  2  3  1  0
  3  4  1  0
  4  5  1  0
  5  6  1  0
  6  7  1  0
  7  8  1  0
  8  9  1  0
  5  3  1  0
  9  7  1  0
  1 10  1  0
  1 11  1  0
  1 12  1  0
  2 13  1  0
  2 14  1  0
  3 15  1  0
  5 16  1  0
  6 17  1  0
  6 18  1  0
  7 19  1  0
  8 20  1  0
  8 21  1  0
M  END
