
     RDKit          3D

 23 24  0  0  0  0  0  0  0  0999 V2000
    2.1523    0.3675    0.9241 C   0  0  0  0  0  0  0  0  0  0  0  0
    1.2101    0.7174   -0.2025 C   0  0  0  0  0  0  0  0  0  0  0  0
    0.1843   -0.2885   -0.4908 C   0  0  0  0  0  0  0  0  0  0  0  0
    0.5088   -1.6976   -0.8959 C   0  0  0  0  0  0  0  0  0  0  0  0
   -0.5497   -2.2197    0.0670 C   0  0  0  0  0  0  0  0  0  0  0  0
   -0.7784   -0.7962    0.5072 C   0  0  0  0  0  0  0  0  0  0  0  0
   -1.2477    0.1226   -0.5359 C   0  0  0  0  0  0  0  0  0  0  0  0
   -1.6951    1.4799   -0.1414 C   0  0  0  0  0  0  0  0  0  0  0  0
   -1.1481    2.4977   -0.9033 O   0  0  0  0  0  0  0  0  0  0  0  0
    1.8434    0.8457    1.8787 H   0  0  0  0  0  0  0  0  0  0  0  0
    2.2998   -0.7053    1.0585 H   0  0  0  0  0  0  0  0  0  0  0  0
    3.1593    0.8076    0.6914 H   0  0  0  0  0  0  0  0  0  0  0  0
    1.7901    0.9423   -1.1329 H   0  0  0  0  0  0  0  0  0  0  0  0
    0.7319    1.6764    0.0834 H   0  0  0  0  0  0  0  0  0  0  0  0
    1.4907   -2.0889   -0.5899 H   0  0  0  0  0  0  0  0  0  0  0  0
    0.2673   -1.8483   -1.9666 H   0  0  0  0  0  0  0  0  0  0  0  0
   -0.1963   -2.9147    0.8300 H   0  0  0  0  0  0  0  0  0  0  0  0
   -1.4349   -2.6019   -0.5071 H   0  0  0  0  0  0  0  0  0  0  0  0
   -0.7310   -0.5339    1.5776 H   0  0  0  0  0  0  0  0  0  0  0  0
   -1.9022   -0.3208   -1.3490 H   0  0  0  0  0  0  0  0  0  0  0  0
   -2.8166    1.5260   -0.2294 H   0  0  0  0  0  0  0  0  0  0  0  0
   -1.5045    1.7105    0.9267 H   0  0  0  0  0  0  0  0  0  0  0  0
   -1.6335    3.3221   -0.6816 H   0  0  0  0  0  0  0  0  0  0  0  0
  1  2  1  0
  2  3  1  0
  3  4  1  0
  4  5  1  0
  5  6  1  0
  6  7  1  0
  7  8  1  0
  8  9  1  0
  6  3  1  0
  7  3  1  0
  1 10  1  0
  1 11  1  0
  1 12  1  0
  2 13  1  0
  2 14  1  0
  4 15  1  0
  4 16  1  0
  5 17  1  0
  5 18  1  0
  6 19  1  0
  7 20  1  0
  8 21  1  0
  8 22  1  0
  9 23  1  0
M  END
