
     RDKit          3D

 25 26  0  0  0  0  0  0  0  0999 V2000
   -2.8943    0.5732    0.3470 C   0  0  0  0  0  0  0  0  0  0  0  0
   -1.8739    0.0402   -0.6649 C   0  0  0  0  0  0  0  0  0  0  0  0
   -0.4801    0.1740   -0.1241 C   0  0  0  0  0  0  0  0  0  0  0  0
   -0.0269    1.5373    0.2008 C   0  0  0  0  0  0  0  0  0  0  0  0
    0.5462    0.9455   -1.0239 C   0  0  0  0  0  0  0  0  0  0  0  0
    1.5746   -0.1414   -0.7645 C   0  0  0  0  0  0  0  0  0  0  0  0
    2.4509    0.2204    0.4320 C   0  0  0  0  0  0  0  0  0  0  0  0
    0.4241   -0.9841   -0.3090 C   0  0  0  0  0  0  0  0  0  0  0  0
    0.7697   -1.8166    0.8725 C   0  0  0  0  0  0  0  0  0  0  0  0
   -2.4509    0.5432    1.3546 H   0  0  0  0  0  0  0  0  0  0  0  0
   -3.2027    1.6017    0.0424 H   0  0  0  0  0  0  0  0  0  0  0  0
   -3.7808   -0.0833    0.3026 H   0  0  0  0  0  0  0  0  0  0  0  0
   -2.0050    0.5551   -1.6374 H   0  0  0  0  0  0  0  0  0  0  0  0
   -2.0828   -1.0331   -0.8367 H   0  0  0  0  0  0  0  0  0  0  0  0
    0.6704    1.7301    1.0526 H   0  0  0  0  0  0  0  0  0  0  0  0
   -0.7297    2.3719    0.0197 H   0  0  0  0  0  0  0  0  0  0  0  0
    0.1760    1.1231   -2.0256 H   0  0  0  0  0  0  0  0  0  0  0  0
    2.1218   -0.4962   -1.6413 H   0  0  0  0  0  0  0  0  0  0  0  0
    1.9103    0.0995    1.3802 H   0  0  0  0  0  0  0  0  0  0  0  0
    2.7700    1.2992    0.3579 H   0  0  0  0  0  0  0  0  0  0  0  0
    3.3529   -0.4005    0.4545 H   0  0  0  0  0  0  0  0  0  0  0  0
    0.0774   -1.6266   -1.1658 H   0  0  0  0  0  0  0  0  0  0  0  0
    0.2672   -2.8219    0.7900 H   0  0  0  0  0  0  0  0  0  0  0  0
    0.5500   -1.3506    1.8478 H   0  0  0  0  0  0  0  0  0  0  0  0
    1.8655   -2.0600    0.8053 H   0  0  0  0  0  0  0  0  0  0  0  0
  1  2  1  0
  2  3  1  0
  3  4  1  0
  4  5  1  0
  5  6  1  0
  6  7  1  0
  6  8  1  0
  8  9  1  0
  5  3  1  0
  8  3  1  0
  1 10  1  0
  1 11  1  0
  1 12  1  0
  2 13  1  0
  2 14  1  0
  4 15  1  0
  4 16  1  0
  5 17  1  0
  6 18  1  0
  7 19  1  0
  7 20  1  0
  7 21  1  0
  8 22  1  0
  9 23  1  0
  9 24  1  0
  9 25  1  0
M  END
