
     RDKit          3D

 21 21  0  0  0  0  0  0  0  0999 V2000
    2.2968   -0.6578    0.6795 C   0  0  0  0  0  0  0  0  0  0  0  0
    1.5684   -0.4344   -0.6280 C   0  0  0  0  0  0  0  0  0  0  0  0
    0.3357    0.3583   -0.4605 C   0  0  0  0  0  0  0  0  0  0  0  0
    0.0880    1.5302   -1.0455 C   0  0  0  0  0  0  0  0  0  0  0  0
   -1.2659    1.9456   -0.5834 C   0  0  0  0  0  0  0  0  0  0  0  0
   -1.8667    0.7063   -0.3657 O   0  0  0  0  0  0  0  0  0  0  0  0
   -0.8711    0.0536    0.3637 C   0  0  0  0  0  0  0  0  0  0  0  0
   -1.2020   -1.4194    0.3611 C   0  0  0  0  0  0  0  0  0  0  0  0
   -2.4588   -1.5512    0.9645 O   0  0  0  0  0  0  0  0  0  0  0  0
    2.8713    0.2379    0.9998 H   0  0  0  0  0  0  0  0  0  0  0  0
    3.0304   -1.4734    0.5090 H   0  0  0  0  0  0  0  0  0  0  0  0
    1.6091   -1.0036    1.4750 H   0  0  0  0  0  0  0  0  0  0  0  0
    2.2729    0.0854   -1.3005 H   0  0  0  0  0  0  0  0  0  0  0  0
    1.3782   -1.4479   -1.0595 H   0  0  0  0  0  0  0  0  0  0  0  0
    0.7382    2.0736   -1.7214 H   0  0  0  0  0  0  0  0  0  0  0  0
   -1.2286    2.4566    0.4106 H   0  0  0  0  0  0  0  0  0  0  0  0
   -1.8042    2.5442   -1.3370 H   0  0  0  0  0  0  0  0  0  0  0  0
   -0.8250    0.4637    1.3744 H   0  0  0  0  0  0  0  0  0  0  0  0
   -0.4697   -2.0420    0.8751 H   0  0  0  0  0  0  0  0  0  0  0  0
   -1.3350   -1.7381   -0.7129 H   0  0  0  0  0  0  0  0  0  0  0  0
   -2.8621   -0.6877    1.2017 H   0  0  0  0  0  0  0  0  0  0  0  0
  1  2  1  0
  2  3  1  0
  3  4  2  0
  4  5  1  0
  5  6  1  0
  6  7  1  0
  7  8  1  0
  8  9  1  0
  7  3  1  0
  1 10  1  0
  1 11  1  0
  1 12  1  0
  2 13  1  0
  2 14  1  0
  4 15  1  0
  5 16  1  0
  5 17  1  0
  7 18  1  0
  8 19  1  0
  8 20  1  0
  9 21  1  0
M  END
