
     RDKit          3D

 20 21  0  0  0  0  0  0  0  0999 V2000
    3.2688   -0.0187   -0.2382 C   0  0  0  0  0  0  0  0  0  0  0  0
    2.0044    0.5093    0.4229 C   0  0  0  0  0  0  0  0  0  0  0  0
    0.8396   -0.4089    0.2669 C   0  0  0  0  0  0  0  0  0  0  0  0
    0.3538   -0.7588   -0.9717 O   0  0  0  0  0  0  0  0  0  0  0  0
   -0.3723    0.2433   -0.3912 C   0  0  0  0  0  0  0  0  0  0  0  0
   -1.6579   -0.0333    0.3335 C   0  0  0  0  0  0  0  0  0  0  0  0
   -2.8802    0.5617   -0.2381 C   0  0  0  0  0  0  0  0  0  0  0  0
   -2.6852   -0.9432   -0.1786 C   0  0  0  0  0  0  0  0  0  0  0  0
    4.0869    0.6608    0.0481 H   0  0  0  0  0  0  0  0  0  0  0  0
    3.1071   -0.0941   -1.3190 H   0  0  0  0  0  0  0  0  0  0  0  0
    3.4758   -1.0083    0.2466 H   0  0  0  0  0  0  0  0  0  0  0  0
    1.7869    1.5543    0.1253 H   0  0  0  0  0  0  0  0  0  0  0  0
    2.2408    0.5599    1.5212 H   0  0  0  0  0  0  0  0  0  0  0  0
    0.6756   -1.1584    1.0527 H   0  0  0  0  0  0  0  0  0  0  0  0
   -0.2628    1.2437   -0.8212 H   0  0  0  0  0  0  0  0  0  0  0  0
   -1.5356    0.0319    1.4530 H   0  0  0  0  0  0  0  0  0  0  0  0
   -2.9180    0.9711   -1.2599 H   0  0  0  0  0  0  0  0  0  0  0  0
   -3.5768    1.0500    0.4602 H   0  0  0  0  0  0  0  0  0  0  0  0
   -3.3477   -1.4382    0.5890 H   0  0  0  0  0  0  0  0  0  0  0  0
   -2.6029   -1.5241   -1.1015 H   0  0  0  0  0  0  0  0  0  0  0  0
  1  2  1  0
  2  3  1  0
  3  4  1  0
  4  5  1  0
  5  6  1  0
  6  7  1  0
  7  8  1  0
  5  3  1  0
  8  6  1  0
  1  9  1  0
  1 10  1  0
  1 11  1  0
  2 12  1  0
  2 13  1  0
  3 14  1  0
  5 15  1  0
  6 16  1  0
  7 17  1  0
  7 18  1  0
  8 19  1  0
  8 20  1  0
M  END
