
     RDKit          3D

 20 21  0  0  0  0  0  0  0  0999 V2000
    1.9788    0.6319    0.1254 C   0  0  0  0  0  0  0  0  0  0  0  0
    1.4572   -0.7708    0.0786 C   0  0  0  0  0  0  0  0  0  0  0  0
    0.0241   -0.9244   -0.1436 C   0  0  0  0  0  0  0  0  0  0  0  0
   -0.5003   -0.3271   -1.4705 C   0  0  0  0  0  0  0  0  0  0  0  0
   -1.0269    0.0406   -0.1534 C   0  0  0  0  0  0  0  0  0  0  0  0
   -1.0106    1.4215    0.3836 C   0  0  0  0  0  0  0  0  0  0  0  0
   -1.7769   -0.9884    0.6487 C   0  0  0  0  0  0  0  0  0  0  0  0
   -0.7422   -1.9188    0.4287 O   0  0  0  0  0  0  0  0  0  0  0  0
    3.0590    0.5861   -0.1783 H   0  0  0  0  0  0  0  0  0  0  0  0
    1.4969    1.3178   -0.5952 H   0  0  0  0  0  0  0  0  0  0  0  0
    1.9544    0.9910    1.1691 H   0  0  0  0  0  0  0  0  0  0  0  0
    1.7429   -1.2644    1.0411 H   0  0  0  0  0  0  0  0  0  0  0  0
    2.0191   -1.3542   -0.7077 H   0  0  0  0  0  0  0  0  0  0  0  0
    0.1630    0.3576   -1.9962 H   0  0  0  0  0  0  0  0  0  0  0  0
   -1.0015   -1.0631   -2.1315 H   0  0  0  0  0  0  0  0  0  0  0  0
   -0.8274    2.1248   -0.4640 H   0  0  0  0  0  0  0  0  0  0  0  0
   -2.0628    1.6460    0.7258 H   0  0  0  0  0  0  0  0  0  0  0  0
   -0.3724    1.5975    1.2483 H   0  0  0  0  0  0  0  0  0  0  0  0
   -1.8457   -0.7646    1.7453 H   0  0  0  0  0  0  0  0  0  0  0  0
   -2.7284   -1.3392    0.2459 H   0  0  0  0  0  0  0  0  0  0  0  0
  1  2  1  0
  2  3  1  0
  3  4  1  0
  4  5  1  0
  5  6  1  0
  5  7  1  0
  7  8  1  0
  5  3  1  0
  8  3  1  0
  1  9  1  0
  1 10  1  0
  1 11  1  0
  2 12  1  0
  2 13  1  0
  4 14  1  0
  4 15  1  0
  6 16  1  0
  6 17  1  0
  6 18  1  0
  7 19  1  0
  7 20  1  0
M  END
