
     RDKit          3D

 23 24  0  0  0  0  0  0  0  0999 V2000
    2.6822   -0.1377   -0.2376 C   0  0  0  0  0  0  0  0  0  0  0  0
    1.3204    0.1307   -0.8872 C   0  0  0  0  0  0  0  0  0  0  0  0
    0.2882    0.3196    0.1634 C   0  0  0  0  0  0  0  0  0  0  0  0
    0.5766    1.4064    1.0138 O   0  0  0  0  0  0  0  0  0  0  0  0
   -0.1144   -0.8559    0.9988 C   0  0  0  0  0  0  0  0  0  0  0  0
   -0.9115   -1.3398   -0.1459 C   0  0  0  0  0  0  0  0  0  0  0  0
   -1.1438    0.1571   -0.1668 C   0  0  0  0  0  0  0  0  0  0  0  0
   -1.9519    0.8490   -1.0147 C   0  0  0  0  0  0  0  0  0  0  0  0
   -1.3334   -0.0200    1.3360 C   0  0  0  0  0  0  0  0  0  0  0  0
    2.5107   -0.5777    0.7784 H   0  0  0  0  0  0  0  0  0  0  0  0
    3.2171   -0.8298   -0.8925 H   0  0  0  0  0  0  0  0  0  0  0  0
    3.2094    0.8052   -0.0856 H   0  0  0  0  0  0  0  0  0  0  0  0
    1.4192    1.1293   -1.4171 H   0  0  0  0  0  0  0  0  0  0  0  0
    1.0460   -0.6402   -1.6028 H   0  0  0  0  0  0  0  0  0  0  0  0
    1.0917    1.0352    1.7800 H   0  0  0  0  0  0  0  0  0  0  0  0
    0.4478   -1.3620    1.6538 H   0  0  0  0  0  0  0  0  0  0  0  0
   -1.8496   -1.8457    0.2045 H   0  0  0  0  0  0  0  0  0  0  0  0
   -0.4453   -1.7887   -1.0140 H   0  0  0  0  0  0  0  0  0  0  0  0
   -1.5243    1.8178   -1.4098 H   0  0  0  0  0  0  0  0  0  0  0  0
   -2.2550    0.3018   -1.9576 H   0  0  0  0  0  0  0  0  0  0  0  0
   -2.9448    1.1660   -0.5758 H   0  0  0  0  0  0  0  0  0  0  0  0
   -1.0776    0.8400    1.9517 H   0  0  0  0  0  0  0  0  0  0  0  0
   -2.2575   -0.5605    1.5270 H   0  0  0  0  0  0  0  0  0  0  0  0
  1  2  1  0
  2  3  1  0
  3  4  1  0
  3  5  1  0
  5  6  1  0
  6  7  1  0
  7  8  1  0
  7  9  1  0
  7  3  1  0
  9  5  1  0
  1 10  1  0
  1 11  1  0
  1 12  1  0
  2 13  1  0
  2 14  1  0
  4 15  1  0
  5 16  1  0
  6 17  1  0
  6 18  1  0
  8 19  1  0
  8 20  1  0
  8 21  1  0
  9 22  1  0
  9 23  1  0
M  END
