
     RDKit          3D

 25 25  0  0  0  0  0  0  0  0999 V2000
    2.7518    0.2074   -0.0620 C   0  0  0  0  0  0  0  0  0  0  0  0
    1.6310   -0.3693   -0.9049 C   0  0  0  0  0  0  0  0  0  0  0  0
    0.4280   -0.5192   -0.0273 C   0  0  0  0  0  0  0  0  0  0  0  0
   -0.6986   -1.0900   -0.8413 C   0  0  0  0  0  0  0  0  0  0  0  0
   -2.0051   -1.1309   -0.0944 C   0  0  0  0  0  0  0  0  0  0  0  0
   -1.9436   -0.4853    1.2265 C   0  0  0  0  0  0  0  0  0  0  0  0
   -1.0550    0.3825    1.6283 C   0  0  0  0  0  0  0  0  0  0  0  0
    0.0167    0.7648    0.6459 C   0  0  0  0  0  0  0  0  0  0  0  0
   -0.6126    1.7505   -0.3089 C   0  0  0  0  0  0  0  0  0  0  0  0
    2.7339   -0.3113    0.9231 H   0  0  0  0  0  0  0  0  0  0  0  0
    3.7338    0.0475   -0.5490 H   0  0  0  0  0  0  0  0  0  0  0  0
    2.6411    1.2869    0.1131 H   0  0  0  0  0  0  0  0  0  0  0  0
    1.9513   -1.3968   -1.2022 H   0  0  0  0  0  0  0  0  0  0  0  0
    1.4335    0.2451   -1.8075 H   0  0  0  0  0  0  0  0  0  0  0  0
    0.6797   -1.2466    0.7714 H   0  0  0  0  0  0  0  0  0  0  0  0
   -0.7944   -0.5047   -1.7804 H   0  0  0  0  0  0  0  0  0  0  0  0
   -0.4108   -2.1245   -1.1198 H   0  0  0  0  0  0  0  0  0  0  0  0
   -2.7914   -0.6535   -0.7202 H   0  0  0  0  0  0  0  0  0  0  0  0
   -2.3491   -2.1950    0.0294 H   0  0  0  0  0  0  0  0  0  0  0  0
   -2.7286   -0.7635    1.9501 H   0  0  0  0  0  0  0  0  0  0  0  0
   -1.0526    0.8290    2.6102 H   0  0  0  0  0  0  0  0  0  0  0  0
    0.8706    1.2424    1.1256 H   0  0  0  0  0  0  0  0  0  0  0  0
    0.1075    2.2651   -0.9525 H   0  0  0  0  0  0  0  0  0  0  0  0
   -1.3716    1.2742   -0.9635 H   0  0  0  0  0  0  0  0  0  0  0  0
   -1.1656    2.4952    0.3103 H   0  0  0  0  0  0  0  0  0  0  0  0
  1  2  1  0
  2  3  1  0
  3  4  1  0
  4  5  1  0
  5  6  1  0
  6  7  2  0
  7  8  1  0
  8  9  1  0
  8  3  1  0
  1 10  1  0
  1 11  1  0
  1 12  1  0
  2 13  1  0
  2 14  1  0
  3 15  1  0
  4 16  1  0
  4 17  1  0
  5 18  1  0
  5 19  1  0
  6 20  1  0
  7 21  1  0
  8 22  1  0
  9 23  1  0
  9 24  1  0
  9 25  1  0
M  END
