
     RDKit          3D

 23 24  0  0  0  0  0  0  0  0999 V2000
    2.4968    0.3631   -0.4079 C   0  0  0  0  0  0  0  0  0  0  0  0
    1.6702   -0.7968    0.1429 C   0  0  0  0  0  0  0  0  0  0  0  0
    0.4077   -0.2223    0.6976 C   0  0  0  0  0  0  0  0  0  0  0  0
   -0.5339   -1.2094    1.2842 C   0  0  0  0  0  0  0  0  0  0  0  0
   -1.7587   -0.5968    1.4875 O   0  0  0  0  0  0  0  0  0  0  0  0
   -2.1618    0.1934    0.4457 C   0  0  0  0  0  0  0  0  0  0  0  0
   -1.4929   -0.2470   -0.8633 C   0  0  0  0  0  0  0  0  0  0  0  0
   -0.2907    0.5435   -0.3856 C   0  0  0  0  0  0  0  0  0  0  0  0
   -1.2929    1.4546    0.3400 C   0  0  0  0  0  0  0  0  0  0  0  0
    2.1696    1.3339    0.0535 H   0  0  0  0  0  0  0  0  0  0  0  0
    2.3560    0.4887   -1.4984 H   0  0  0  0  0  0  0  0  0  0  0  0
    3.5683    0.2618   -0.1358 H   0  0  0  0  0  0  0  0  0  0  0  0
    2.2874   -1.3292    0.8936 H   0  0  0  0  0  0  0  0  0  0  0  0
    1.4620   -1.4513   -0.7449 H   0  0  0  0  0  0  0  0  0  0  0  0
    0.6925    0.5123    1.4868 H   0  0  0  0  0  0  0  0  0  0  0  0
   -0.6059   -2.1686    0.7337 H   0  0  0  0  0  0  0  0  0  0  0  0
   -0.1380   -1.4934    2.3036 H   0  0  0  0  0  0  0  0  0  0  0  0
   -3.2224    0.4064    0.3770 H   0  0  0  0  0  0  0  0  0  0  0  0
   -1.3525   -1.3252   -0.9672 H   0  0  0  0  0  0  0  0  0  0  0  0
   -1.9557    0.2452   -1.7259 H   0  0  0  0  0  0  0  0  0  0  0  0
    0.3113    1.0264   -1.1433 H   0  0  0  0  0  0  0  0  0  0  0  0
   -0.9158    1.8048    1.3125 H   0  0  0  0  0  0  0  0  0  0  0  0
   -1.7004    2.2060   -0.3466 H   0  0  0  0  0  0  0  0  0  0  0  0
  1  2  1  0
  2  3  1  0
  3  4  1  0
  4  5  1  0
  5  6  1  0
  6  7  1  0
  7  8  1  0
  8  9  1  0
  8  3  1  0
  9  6  1  0
  1 10  1  0
  1 11  1  0
  1 12  1  0
  2 13  1  0
  2 14  1  0
  3 15  1  0
  4 16  1  0
  4 17  1  0
  6 18  1  0
  7 19  1  0
  7 20  1  0
  8 21  1  0
  9 22  1  0
  9 23  1  0
M  END
