
     RDKit          3D

 21 21  0  0  0  0  0  0  0  0999 V2000
    2.4658   -0.2696   -0.7077 C   0  0  0  0  0  0  0  0  0  0  0  0
    1.3929    0.8022   -0.8266 C   0  0  0  0  0  0  0  0  0  0  0  0
    0.2877    0.5051    0.1581 C   0  0  0  0  0  0  0  0  0  0  0  0
   -0.6797    1.4681    0.0536 O   0  0  0  0  0  0  0  0  0  0  0  0
   -1.8429    0.8929   -0.4047 C   0  0  0  0  0  0  0  0  0  0  0  0
   -1.8062   -0.4692    0.2652 C   0  0  0  0  0  0  0  0  0  0  0  0
   -1.8266   -0.3107    1.6438 O   0  0  0  0  0  0  0  0  0  0  0  0
   -0.3669   -0.8326   -0.1187 C   0  0  0  0  0  0  0  0  0  0  0  0
    0.1374   -1.8566    0.6317 O   0  0  0  0  0  0  0  0  0  0  0  0
    3.2067   -0.0621   -1.4969 H   0  0  0  0  0  0  0  0  0  0  0  0
    2.9319   -0.2073    0.3150 H   0  0  0  0  0  0  0  0  0  0  0  0
    2.0556   -1.2889   -0.8878 H   0  0  0  0  0  0  0  0  0  0  0  0
    1.0454    0.8246   -1.8678 H   0  0  0  0  0  0  0  0  0  0  0  0
    1.8631    1.7564   -0.5213 H   0  0  0  0  0  0  0  0  0  0  0  0
    0.7402    0.5327    1.1680 H   0  0  0  0  0  0  0  0  0  0  0  0
   -1.7734    0.7111   -1.4994 H   0  0  0  0  0  0  0  0  0  0  0  0
   -2.7417    1.4618   -0.1132 H   0  0  0  0  0  0  0  0  0  0  0  0
   -2.5347   -1.1682   -0.1225 H   0  0  0  0  0  0  0  0  0  0  0  0
   -1.8113    0.6529    1.8691 H   0  0  0  0  0  0  0  0  0  0  0  0
   -0.3534   -1.0360   -1.2028 H   0  0  0  0  0  0  0  0  0  0  0  0
   -0.3897   -2.1065    1.4067 H   0  0  0  0  0  0  0  0  0  0  0  0
  1  2  1  0
  2  3  1  0
  3  4  1  0
  4  5  1  0
  5  6  1  0
  6  7  1  0
  6  8  1  0
  8  9  1  0
  8  3  1  0
  1 10  1  0
  1 11  1  0
  1 12  1  0
  2 13  1  0
  2 14  1  0
  3 15  1  0
  5 16  1  0
  5 17  1  0
  6 18  1  0
  7 19  1  0
  8 20  1  0
  9 21  1  0
M  END
