
     RDKit          3D

 23 23  0  0  0  0  0  0  0  0999 V2000
   -2.8261   -0.0737   -0.3815 C   0  0  0  0  0  0  0  0  0  0  0  0
   -1.8079    0.9986   -0.0879 C   0  0  0  0  0  0  0  0  0  0  0  0
   -0.5672    0.4211    0.5436 C   0  0  0  0  0  0  0  0  0  0  0  0
    0.3744    1.4133    0.8153 O   0  0  0  0  0  0  0  0  0  0  0  0
    1.3598    0.4492    0.6026 C   0  0  0  0  0  0  0  0  0  0  0  0
    2.5812    1.0874    0.0008 C   0  0  0  0  0  0  0  0  0  0  0  0
    0.4197   -0.1947   -0.4030 C   0  0  0  0  0  0  0  0  0  0  0  0
    0.4732   -1.7017   -0.4096 C   0  0  0  0  0  0  0  0  0  0  0  0
    0.8097   -2.2175    0.8284 O   0  0  0  0  0  0  0  0  0  0  0  0
   -3.1958   -0.4698    0.5846 H   0  0  0  0  0  0  0  0  0  0  0  0
   -3.7100    0.4489   -0.8451 H   0  0  0  0  0  0  0  0  0  0  0  0
   -2.4823   -0.8396   -1.0806 H   0  0  0  0  0  0  0  0  0  0  0  0
   -2.2864    1.7039    0.6328 H   0  0  0  0  0  0  0  0  0  0  0  0
   -1.6118    1.5389   -1.0121 H   0  0  0  0  0  0  0  0  0  0  0  0
   -0.7175   -0.2099    1.4173 H   0  0  0  0  0  0  0  0  0  0  0  0
    1.5132   -0.1663    1.4864 H   0  0  0  0  0  0  0  0  0  0  0  0
    3.4240    0.3970   -0.1148 H   0  0  0  0  0  0  0  0  0  0  0  0
    2.9253    1.8838    0.7164 H   0  0  0  0  0  0  0  0  0  0  0  0
    2.2736    1.5913   -0.9287 H   0  0  0  0  0  0  0  0  0  0  0  0
    0.4739    0.2176   -1.4065 H   0  0  0  0  0  0  0  0  0  0  0  0
    1.2645   -1.9795   -1.1593 H   0  0  0  0  0  0  0  0  0  0  0  0
   -0.4646   -2.1061   -0.7899 H   0  0  0  0  0  0  0  0  0  0  0  0
    1.7771   -2.1922    0.9905 H   0  0  0  0  0  0  0  0  0  0  0  0
  1  2  1  0
  2  3  1  0
  3  4  1  0
  4  5  1  0
  5  6  1  0
  5  7  1  0
  7  8  1  0
  8  9  1  0
  7  3  1  0
  1 10  1  0
  1 11  1  0
  1 12  1  0
  2 13  1  0
  2 14  1  0
  3 15  1  0
  5 16  1  0
  6 17  1  0
  6 18  1  0
  6 19  1  0
  7 20  1  0
  8 21  1  0
  8 22  1  0
  9 23  1  0
M  END
