
     RDKit          3D

 21 21  0  0  0  0  0  0  0  0999 V2000
   -1.5439   -1.1929    0.3822 C   0  0  0  0  0  0  0  0  0  0  0  0
   -1.4929    0.2117   -0.1514 C   0  0  0  0  0  0  0  0  0  0  0  0
   -0.0903    0.6812   -0.4650 C   0  0  0  0  0  0  0  0  0  0  0  0
   -0.1054    2.0830   -0.9873 C   0  0  0  0  0  0  0  0  0  0  0  0
   -1.0297    2.8579   -0.8469 O   0  0  0  0  0  0  0  0  0  0  0  0
    0.7910    0.6905    0.7260 C   0  0  0  0  0  0  0  0  0  0  0  0
    1.6803   -0.2771    0.6741 C   0  0  0  0  0  0  0  0  0  0  0  0
    1.4920   -1.0474   -0.5637 C   0  0  0  0  0  0  0  0  0  0  0  0
    0.6457   -0.1760   -1.4401 C   0  0  0  0  0  0  0  0  0  0  0  0
   -2.5559   -1.3559    0.8616 H   0  0  0  0  0  0  0  0  0  0  0  0
   -0.8045   -1.3705    1.2042 H   0  0  0  0  0  0  0  0  0  0  0  0
   -1.5000   -1.9701   -0.4065 H   0  0  0  0  0  0  0  0  0  0  0  0
   -2.1442    0.2448   -1.0462 H   0  0  0  0  0  0  0  0  0  0  0  0
   -1.9725    0.9068    0.5801 H   0  0  0  0  0  0  0  0  0  0  0  0
    0.7764    2.4056   -1.5223 H   0  0  0  0  0  0  0  0  0  0  0  0
    0.7327    1.3996    1.5579 H   0  0  0  0  0  0  0  0  0  0  0  0
    2.4626   -0.5023    1.4301 H   0  0  0  0  0  0  0  0  0  0  0  0
    2.4646   -1.3163   -1.0394 H   0  0  0  0  0  0  0  0  0  0  0  0
    0.8875   -1.9754   -0.3639 H   0  0  0  0  0  0  0  0  0  0  0  0
   -0.0245   -0.7687   -2.1001 H   0  0  0  0  0  0  0  0  0  0  0  0
    1.3308    0.4716   -2.0298 H   0  0  0  0  0  0  0  0  0  0  0  0
  1  2  1  0
  2  3  1  0
  3  4  1  0
  4  5  2  0
  3  6  1  0
  6  7  2  0
  7  8  1  0
  8  9  1  0
  9  3  1  0
  1 10  1  0
  1 11  1  0
  1 12  1  0
  2 13  1  0
  2 14  1  0
  4 15  1  0
  6 16  1  0
  7 17  1  0
  8 18  1  0
  8 19  1  0
  9 20  1  0
  9 21  1  0
M  END
