
     RDKit          3D

 23 23  0  0  0  0  0  0  0  0999 V2000
    2.0012    0.8860   -0.9879 C   0  0  0  0  0  0  0  0  0  0  0  0
    2.0778    0.2361    0.3424 C   0  0  0  0  0  0  0  0  0  0  0  0
    0.8691   -0.3572    0.9268 C   0  0  0  0  0  0  0  0  0  0  0  0
    0.2757   -1.4807    0.0370 C   0  0  0  0  0  0  0  0  0  0  0  0
   -0.5111   -0.3168    0.5302 C   0  0  0  0  0  0  0  0  0  0  0  0
   -1.4611   -0.6891    1.5226 O   0  0  0  0  0  0  0  0  0  0  0  0
   -1.1671    0.5923   -0.4666 C   0  0  0  0  0  0  0  0  0  0  0  0
   -2.4227   -0.1052   -1.0187 C   0  0  0  0  0  0  0  0  0  0  0  0
   -1.6499    1.7650    0.1399 O   0  0  0  0  0  0  0  0  0  0  0  0
    1.6768    0.2099   -1.8038 H   0  0  0  0  0  0  0  0  0  0  0  0
    3.0802    1.1113   -1.2692 H   0  0  0  0  0  0  0  0  0  0  0  0
    1.5366    1.8875   -1.0031 H   0  0  0  0  0  0  0  0  0  0  0  0
    2.8373   -0.5990    0.2064 H   0  0  0  0  0  0  0  0  0  0  0  0
    2.6244    0.9371    1.0349 H   0  0  0  0  0  0  0  0  0  0  0  0
    1.0633   -0.6824    2.0045 H   0  0  0  0  0  0  0  0  0  0  0  0
    0.2401   -2.4636    0.5003 H   0  0  0  0  0  0  0  0  0  0  0  0
    0.5141   -1.4508   -1.0417 H   0  0  0  0  0  0  0  0  0  0  0  0
   -1.7959   -1.5960    1.3724 H   0  0  0  0  0  0  0  0  0  0  0  0
   -0.5714    0.8404   -1.3481 H   0  0  0  0  0  0  0  0  0  0  0  0
   -3.3479    0.4177   -0.7765 H   0  0  0  0  0  0  0  0  0  0  0  0
   -2.3837   -0.2525   -2.1000 H   0  0  0  0  0  0  0  0  0  0  0  0
   -2.5126   -1.1276   -0.5681 H   0  0  0  0  0  0  0  0  0  0  0  0
   -0.9732    2.2377    0.6425 H   0  0  0  0  0  0  0  0  0  0  0  0
  1  2  1  0
  2  3  1  0
  3  4  1  0
  4  5  1  0
  5  6  1  0
  5  7  1  0
  7  8  1  0
  7  9  1  0
  5  3  1  0
  1 10  1  0
  1 11  1  0
  1 12  1  0
  2 13  1  0
  2 14  1  0
  3 15  1  0
  4 16  1  0
  4 17  1  0
  6 18  1  0
  7 19  1  0
  8 20  1  0
  8 21  1  0
  8 22  1  0
  9 23  1  0
M  END
