
     RDKit          3D

 25 26  0  0  0  0  0  0  0  0999 V2000
   -2.2870    0.3169    1.1933 C   0  0  0  0  0  0  0  0  0  0  0  0
   -1.6380    0.3727   -0.1239 C   0  0  0  0  0  0  0  0  0  0  0  0
   -0.3633   -0.3510   -0.2977 C   0  0  0  0  0  0  0  0  0  0  0  0
   -0.4006   -1.8411   -0.0638 C   0  0  0  0  0  0  0  0  0  0  0  0
    0.9603   -1.7252    0.5890 C   0  0  0  0  0  0  0  0  0  0  0  0
    0.7498   -0.2103    0.6205 C   0  0  0  0  0  0  0  0  0  0  0  0
    1.5807    0.4505   -0.4318 C   0  0  0  0  0  0  0  0  0  0  0  0
    1.7246    1.9434   -0.3246 C   0  0  0  0  0  0  0  0  0  0  0  0
    0.4931    0.0877   -1.4435 C   0  0  0  0  0  0  0  0  0  0  0  0
   -2.5839    1.3426    1.5547 H   0  0  0  0  0  0  0  0  0  0  0  0
   -1.6980   -0.1311    2.0111 H   0  0  0  0  0  0  0  0  0  0  0  0
   -3.2526   -0.2600    1.1776 H   0  0  0  0  0  0  0  0  0  0  0  0
   -1.4813    1.4348   -0.4111 H   0  0  0  0  0  0  0  0  0  0  0  0
   -2.3641   -0.0274   -0.8917 H   0  0  0  0  0  0  0  0  0  0  0  0
   -1.2093   -2.1651    0.6030 H   0  0  0  0  0  0  0  0  0  0  0  0
   -0.3980   -2.3592   -1.0575 H   0  0  0  0  0  0  0  0  0  0  0  0
    1.7646   -2.0474   -0.1126 H   0  0  0  0  0  0  0  0  0  0  0  0
    1.0687   -2.1868    1.5716 H   0  0  0  0  0  0  0  0  0  0  0  0
    0.6661    0.2432    1.5879 H   0  0  0  0  0  0  0  0  0  0  0  0
    2.5204   -0.0579   -0.6529 H   0  0  0  0  0  0  0  0  0  0  0  0
    2.6535    2.2378    0.1913 H   0  0  0  0  0  0  0  0  0  0  0  0
    0.8370    2.4156    0.1376 H   0  0  0  0  0  0  0  0  0  0  0  0
    1.7893    2.3437   -1.3610 H   0  0  0  0  0  0  0  0  0  0  0  0
    0.7777   -0.7812   -2.0795 H   0  0  0  0  0  0  0  0  0  0  0  0
    0.0903    0.9550   -1.9862 H   0  0  0  0  0  0  0  0  0  0  0  0
  1  2  1  0
  2  3  1  0
  3  4  1  0
  4  5  1  0
  5  6  1  0
  6  7  1  0
  7  8  1  0
  7  9  1  0
  6  3  1  0
  9  3  1  0
  1 10  1  0
  1 11  1  0
  1 12  1  0
  2 13  1  0
  2 14  1  0
  4 15  1  0
  4 16  1  0
  5 17  1  0
  5 18  1  0
  6 19  1  0
  7 20  1  0
  8 21  1  0
  8 22  1  0
  8 23  1  0
  9 24  1  0
  9 25  1  0
M  END
