
     RDKit          3D

 23 24  0  0  0  0  0  0  0  0999 V2000
   -2.6177   -0.3352   -0.6161 C   0  0  0  0  0  0  0  0  0  0  0  0
   -1.5081    0.7159   -0.5039 C   0  0  0  0  0  0  0  0  0  0  0  0
   -0.4643    0.1539    0.3996 C   0  0  0  0  0  0  0  0  0  0  0  0
    0.1349   -1.1418   -0.1146 C   0  0  0  0  0  0  0  0  0  0  0  0
    1.5738   -1.0845    0.3432 C   0  0  0  0  0  0  0  0  0  0  0  0
    1.5472   -0.0027    1.4427 C   0  0  0  0  0  0  0  0  0  0  0  0
    0.7691    0.9802    0.5416 C   0  0  0  0  0  0  0  0  0  0  0  0
    1.6603    0.8673   -0.7012 C   0  0  0  0  0  0  0  0  0  0  0  0
    2.2833   -0.3774   -0.6149 O   0  0  0  0  0  0  0  0  0  0  0  0
   -3.4220    0.0082   -1.3003 H   0  0  0  0  0  0  0  0  0  0  0  0
   -3.1100   -0.4490    0.3885 H   0  0  0  0  0  0  0  0  0  0  0  0
   -2.1888   -1.3030   -0.9489 H   0  0  0  0  0  0  0  0  0  0  0  0
   -1.1536    0.9555   -1.5062 H   0  0  0  0  0  0  0  0  0  0  0  0
   -1.9656    1.6011   -0.0401 H   0  0  0  0  0  0  0  0  0  0  0  0
   -0.8735   -0.0730    1.4054 H   0  0  0  0  0  0  0  0  0  0  0  0
    0.1276   -1.1586   -1.2266 H   0  0  0  0  0  0  0  0  0  0  0  0
   -0.4062   -2.0213    0.2406 H   0  0  0  0  0  0  0  0  0  0  0  0
    2.0049   -2.0049    0.6599 H   0  0  0  0  0  0  0  0  0  0  0  0
    0.9225   -0.2950    2.2828 H   0  0  0  0  0  0  0  0  0  0  0  0
    2.5421    0.3660    1.6759 H   0  0  0  0  0  0  0  0  0  0  0  0
    0.6795    1.9586    0.9436 H   0  0  0  0  0  0  0  0  0  0  0  0
    1.0273    0.9895   -1.5757 H   0  0  0  0  0  0  0  0  0  0  0  0
    2.4372    1.6502   -0.5729 H   0  0  0  0  0  0  0  0  0  0  0  0
  1  2  1  0
  2  3  1  0
  3  4  1  0
  4  5  1  0
  5  6  1  0
  6  7  1  0
  7  8  1  0
  8  9  1  0
  7  3  1  0
  9  5  1  0
  1 10  1  0
  1 11  1  0
  1 12  1  0
  2 13  1  0
  2 14  1  0
  3 15  1  0
  4 16  1  0
  4 17  1  0
  5 18  1  0
  6 19  1  0
  6 20  1  0
  7 21  1  0
  8 22  1  0
  8 23  1  0
M  END
