
     RDKit          3D

 19 20  0  0  0  0  0  0  0  0999 V2000
   -2.4983    0.1767   -0.5144 C   0  0  0  0  0  0  0  0  0  0  0  0
   -1.2074    0.8933   -0.2020 C   0  0  0  0  0  0  0  0  0  0  0  0
   -0.0748   -0.0769   -0.1713 C   0  0  0  0  0  0  0  0  0  0  0  0
    0.1845   -0.7997   -1.3497 O   0  0  0  0  0  0  0  0  0  0  0  0
   -0.0149   -1.4275   -0.0892 C   0  0  0  0  0  0  0  0  0  0  0  0
    1.1908   -1.4008    0.8053 C   0  0  0  0  0  0  0  0  0  0  0  0
    1.8931   -2.2331    1.3528 O   0  0  0  0  0  0  0  0  0  0  0  0
    1.1147    0.1044    0.7016 C   0  0  0  0  0  0  0  0  0  0  0  0
    2.2957    0.7119   -0.0135 C   0  0  0  0  0  0  0  0  0  0  0  0
   -3.1965    0.8131   -1.1068 H   0  0  0  0  0  0  0  0  0  0  0  0
   -3.0096    0.0086    0.4639 H   0  0  0  0  0  0  0  0  0  0  0  0
   -2.3271   -0.7722   -1.0658 H   0  0  0  0  0  0  0  0  0  0  0  0
   -1.3043    1.5151    0.6844 H   0  0  0  0  0  0  0  0  0  0  0  0
   -1.0226    1.5837   -1.0746 H   0  0  0  0  0  0  0  0  0  0  0  0
   -0.7309   -2.2425   -0.0153 H   0  0  0  0  0  0  0  0  0  0  0  0
    0.9418    0.5126    1.7108 H   0  0  0  0  0  0  0  0  0  0  0  0
    1.9841    1.5035   -0.7462 H   0  0  0  0  0  0  0  0  0  0  0  0
    2.9372    1.2454    0.7336 H   0  0  0  0  0  0  0  0  0  0  0  0
    2.8444   -0.1156   -0.5140 H   0  0  0  0  0  0  0  0  0  0  0  0
  1  2  1  0
  2  3  1  0
  3  4  1  0
  4  5  1  0
  5  6  1  0
  6  7  2  0
  6  8  1  0
  8  9  1  0
  5  3  1  0
  8  3  1  0
  1 10  1  0
  1 11  1  0
  1 12  1  0
  2 13  1  0
  2 14  1  0
  5 15  1  0
  8 16  1  0
  9 17  1  0
  9 18  1  0
  9 19  1  0
M  END
