
     RDKit          3D

 21 23  0  0  0  0  0  0  0  0999 V2000
    1.9726   -0.8446   -0.7002 C   0  0  0  0  0  0  0  0  0  0  0  0
    1.4382   -0.5027    0.6292 C   0  0  0  0  0  0  0  0  0  0  0  0
    0.1074    0.0075    0.7800 C   0  0  0  0  0  0  0  0  0  0  0  0
   -0.2210    0.2735    2.1157 O   0  0  0  0  0  0  0  0  0  0  0  0
   -1.1052    1.2868    1.6637 C   0  0  0  0  0  0  0  0  0  0  0  0
   -1.6723    0.8912    0.3631 C   0  0  0  0  0  0  0  0  0  0  0  0
   -1.0623   -0.4832    0.0023 C   0  0  0  0  0  0  0  0  0  0  0  0
   -0.9704   -0.5756   -1.4664 C   0  0  0  0  0  0  0  0  0  0  0  0
   -0.2995    1.3775    0.4716 C   0  0  0  0  0  0  0  0  0  0  0  0
    2.1517    0.0613   -1.3436 H   0  0  0  0  0  0  0  0  0  0  0  0
    3.0061   -1.2787   -0.5560 H   0  0  0  0  0  0  0  0  0  0  0  0
    1.4277   -1.5649   -1.2919 H   0  0  0  0  0  0  0  0  0  0  0  0
    2.1563    0.2514    1.0784 H   0  0  0  0  0  0  0  0  0  0  0  0
    1.5827   -1.4032    1.3004 H   0  0  0  0  0  0  0  0  0  0  0  0
   -1.4530    2.0576    2.3146 H   0  0  0  0  0  0  0  0  0  0  0  0
   -2.4874    1.3039   -0.1652 H   0  0  0  0  0  0  0  0  0  0  0  0
   -1.6895   -1.2548    0.4391 H   0  0  0  0  0  0  0  0  0  0  0  0
   -0.9138   -1.6352   -1.8142 H   0  0  0  0  0  0  0  0  0  0  0  0
   -0.2062    0.0721   -1.9327 H   0  0  0  0  0  0  0  0  0  0  0  0
   -1.9526   -0.2018   -1.8867 H   0  0  0  0  0  0  0  0  0  0  0  0
    0.1902    2.1618   -0.0012 H   0  0  0  0  0  0  0  0  0  0  0  0
  1  2  1  0
  2  3  1  0
  3  4  1  0
  4  5  1  0
  5  6  1  0
  6  7  1  0
  7  8  1  0
  6  9  1  0
  7  3  1  0
  9  3  1  0
  9  5  1  0
  1 10  1  0
  1 11  1  0
  1 12  1  0
  2 13  1  0
  2 14  1  0
  5 15  1  0
  6 16  1  0
  7 17  1  0
  8 18  1  0
  8 19  1  0
  8 20  1  0
  9 21  1  0
M  END
