
     RDKit          3D

 23 23  0  0  0  0  0  0  0  0999 V2000
   -2.4293    0.9454   -0.4011 C   0  0  0  0  0  0  0  0  0  0  0  0
   -1.2336    0.1995   -0.9296 C   0  0  0  0  0  0  0  0  0  0  0  0
   -0.4362   -0.3669    0.2110 C   0  0  0  0  0  0  0  0  0  0  0  0
   -1.2522   -1.3228    1.0432 C   0  0  0  0  0  0  0  0  0  0  0  0
    0.8978   -0.9454   -0.1672 C   0  0  0  0  0  0  0  0  0  0  0  0
    1.4644    0.0633    0.8184 C   0  0  0  0  0  0  0  0  0  0  0  0
    2.5299    0.9238    0.1566 C   0  0  0  0  0  0  0  0  0  0  0  0
    2.1248    1.2139   -1.1453 O   0  0  0  0  0  0  0  0  0  0  0  0
    0.2136    0.6343    0.9068 O   0  0  0  0  0  0  0  0  0  0  0  0
   -3.3380    0.2967   -0.5586 H   0  0  0  0  0  0  0  0  0  0  0  0
   -2.6137    1.8738   -0.9708 H   0  0  0  0  0  0  0  0  0  0  0  0
   -2.3786    1.1570    0.6694 H   0  0  0  0  0  0  0  0  0  0  0  0
   -0.6010    0.9439   -1.4905 H   0  0  0  0  0  0  0  0  0  0  0  0
   -1.4883   -0.5853   -1.6450 H   0  0  0  0  0  0  0  0  0  0  0  0
   -2.2647   -0.9432    1.2287 H   0  0  0  0  0  0  0  0  0  0  0  0
   -0.7560   -1.6270    1.9730 H   0  0  0  0  0  0  0  0  0  0  0  0
   -1.3854   -2.2611    0.4349 H   0  0  0  0  0  0  0  0  0  0  0  0
    1.1201   -1.9573    0.1788 H   0  0  0  0  0  0  0  0  0  0  0  0
    1.2187   -0.8018   -1.2077 H   0  0  0  0  0  0  0  0  0  0  0  0
    1.7745   -0.3572    1.7934 H   0  0  0  0  0  0  0  0  0  0  0  0
    3.4559    0.3056    0.1314 H   0  0  0  0  0  0  0  0  0  0  0  0
    2.6740    1.8882    0.6733 H   0  0  0  0  0  0  0  0  0  0  0  0
    2.7034    0.7226   -1.8096 H   0  0  0  0  0  0  0  0  0  0  0  0
  1  2  1  0
  2  3  1  0
  3  4  1  0
  3  5  1  0
  5  6  1  0
  6  7  1  0
  7  8  1  0
  6  9  1  0
  9  3  1  0
  1 10  1  0
  1 11  1  0
  1 12  1  0
  2 13  1  0
  2 14  1  0
  4 15  1  0
  4 16  1  0
  4 17  1  0
  5 18  1  0
  5 19  1  0
  6 20  1  0
  7 21  1  0
  7 22  1  0
  8 23  1  0
M  END
