
     RDKit          3D

 23 24  0  0  0  0  0  0  0  0999 V2000
    2.0482   -1.2756    0.0246 C   0  0  0  0  0  0  0  0  0  0  0  0
    1.5432    0.1054   -0.3083 C   0  0  0  0  0  0  0  0  0  0  0  0
    0.4287    0.5138    0.6127 C   0  0  0  0  0  0  0  0  0  0  0  0
   -0.0238    1.9286    0.2097 C   0  0  0  0  0  0  0  0  0  0  0  0
   -1.5334    1.7865    0.2731 C   0  0  0  0  0  0  0  0  0  0  0  0
   -1.7724    0.6509    1.0530 O   0  0  0  0  0  0  0  0  0  0  0  0
   -0.8311   -0.2363    0.4999 C   0  0  0  0  0  0  0  0  0  0  0  0
   -1.0596   -1.6593    0.6404 C   0  0  0  0  0  0  0  0  0  0  0  0
   -1.2718   -0.9388   -0.7213 C   0  0  0  0  0  0  0  0  0  0  0  0
    1.8282   -1.5309    1.0743 H   0  0  0  0  0  0  0  0  0  0  0  0
    1.6010   -2.0132   -0.6800 H   0  0  0  0  0  0  0  0  0  0  0  0
    3.1516   -1.3400   -0.0877 H   0  0  0  0  0  0  0  0  0  0  0  0
    1.2790    0.1540   -1.3679 H   0  0  0  0  0  0  0  0  0  0  0  0
    2.3887    0.8041   -0.1498 H   0  0  0  0  0  0  0  0  0  0  0  0
    0.8034    0.5360    1.6492 H   0  0  0  0  0  0  0  0  0  0  0  0
    0.3685    2.6707    0.9150 H   0  0  0  0  0  0  0  0  0  0  0  0
    0.2712    2.1317   -0.8535 H   0  0  0  0  0  0  0  0  0  0  0  0
   -1.9420    1.5390   -0.7481 H   0  0  0  0  0  0  0  0  0  0  0  0
   -2.0223    2.6792    0.7061 H   0  0  0  0  0  0  0  0  0  0  0  0
   -2.0351   -1.9548    1.1323 H   0  0  0  0  0  0  0  0  0  0  0  0
   -0.3332   -2.4624    0.6524 H   0  0  0  0  0  0  0  0  0  0  0  0
   -0.5663   -1.2562   -1.5160 H   0  0  0  0  0  0  0  0  0  0  0  0
   -2.3209   -0.8323   -1.0662 H   0  0  0  0  0  0  0  0  0  0  0  0
  1  2  1  0
  2  3  1  0
  3  4  1  0
  4  5  1  0
  5  6  1  0
  6  7  1  0
  7  8  1  0
  8  9  1  0
  7  3  1  0
  9  7  1  0
  1 10  1  0
  1 11  1  0
  1 12  1  0
  2 13  1  0
  2 14  1  0
  3 15  1  0
  4 16  1  0
  4 17  1  0
  5 18  1  0
  5 19  1  0
  8 20  1  0
  8 21  1  0
  9 22  1  0
  9 23  1  0
M  END
