
     RDKit          3D

 21 21  0  0  0  0  0  0  0  0999 V2000
    2.2768   -0.7693    0.6179 C   0  0  0  0  0  0  0  0  0  0  0  0
    1.5508   -0.2706   -0.5735 C   0  0  0  0  0  0  0  0  0  0  0  0
    0.3327    0.5506   -0.2460 C   0  0  0  0  0  0  0  0  0  0  0  0
   -0.7974   -0.0401    0.5438 C   0  0  0  0  0  0  0  0  0  0  0  0
   -1.6709    1.0025    0.8569 O   0  0  0  0  0  0  0  0  0  0  0  0
   -1.5967   -0.9979   -0.3451 C   0  0  0  0  0  0  0  0  0  0  0  0
   -2.7032   -1.4405    0.3926 O   0  0  0  0  0  0  0  0  0  0  0  0
    0.3594    2.0067   -0.4993 C   0  0  0  0  0  0  0  0  0  0  0  0
   -0.1851    1.1725   -1.4761 O   0  0  0  0  0  0  0  0  0  0  0  0
    2.0334   -0.2057    1.5414 H   0  0  0  0  0  0  0  0  0  0  0  0
    3.3672   -0.6990    0.4336 H   0  0  0  0  0  0  0  0  0  0  0  0
    2.0676   -1.8485    0.7944 H   0  0  0  0  0  0  0  0  0  0  0  0
    2.2204    0.3686   -1.1878 H   0  0  0  0  0  0  0  0  0  0  0  0
    1.3093   -1.1520   -1.2251 H   0  0  0  0  0  0  0  0  0  0  0  0
   -0.4957   -0.5044    1.4781 H   0  0  0  0  0  0  0  0  0  0  0  0
   -2.4933    0.7013    1.2957 H   0  0  0  0  0  0  0  0  0  0  0  0
   -2.0037   -0.3330   -1.1615 H   0  0  0  0  0  0  0  0  0  0  0  0
   -0.9961   -1.8229   -0.7209 H   0  0  0  0  0  0  0  0  0  0  0  0
   -3.4865   -0.8189    0.2471 H   0  0  0  0  0  0  0  0  0  0  0  0
    1.3170    2.4844   -0.8033 H   0  0  0  0  0  0  0  0  0  0  0  0
   -0.4059    2.6161    0.0370 H   0  0  0  0  0  0  0  0  0  0  0  0
  1  2  1  0
  2  3  1  0
  3  4  1  0
  4  5  1  0
  4  6  1  0
  6  7  1  0
  3  8  1  0
  8  9  1  0
  9  3  1  0
  1 10  1  0
  1 11  1  0
  1 12  1  0
  2 13  1  0
  2 14  1  0
  4 15  1  0
  5 16  1  0
  6 17  1  0
  6 18  1  0
  7 19  1  0
  8 20  1  0
  8 21  1  0
M  END
