
     RDKit          3D

 21 23  0  0  0  0  0  0  0  0999 V2000
    2.5625   -0.2992    0.2062 C   0  0  0  0  0  0  0  0  0  0  0  0
    1.5706    0.8087    0.0134 C   0  0  0  0  0  0  0  0  0  0  0  0
    0.1528    0.3861    0.0505 C   0  0  0  0  0  0  0  0  0  0  0  0
   -0.4358   -0.2746    1.2701 C   0  0  0  0  0  0  0  0  0  0  0  0
   -1.3892   -1.0055    0.3210 C   0  0  0  0  0  0  0  0  0  0  0  0
   -2.5283   -0.0862    0.0096 C   0  0  0  0  0  0  0  0  0  0  0  0
   -2.1333    0.8672   -0.8350 C   0  0  0  0  0  0  0  0  0  0  0  0
   -0.6891    0.6523   -1.1520 C   0  0  0  0  0  0  0  0  0  0  0  0
   -0.4000   -0.7217   -0.7518 C   0  0  0  0  0  0  0  0  0  0  0  0
    3.5659    0.1260    0.3098 H   0  0  0  0  0  0  0  0  0  0  0  0
    2.3060   -0.8227    1.1407 H   0  0  0  0  0  0  0  0  0  0  0  0
    2.5110   -1.0509   -0.6106 H   0  0  0  0  0  0  0  0  0  0  0  0
    1.7687    1.3369   -0.9405 H   0  0  0  0  0  0  0  0  0  0  0  0
    1.7408    1.5539    0.8176 H   0  0  0  0  0  0  0  0  0  0  0  0
   -0.9179    0.4276    1.9499 H   0  0  0  0  0  0  0  0  0  0  0  0
    0.2475   -1.0253    1.7113 H   0  0  0  0  0  0  0  0  0  0  0  0
   -1.6315   -2.0239    0.5748 H   0  0  0  0  0  0  0  0  0  0  0  0
   -3.5103   -0.2224    0.4364 H   0  0  0  0  0  0  0  0  0  0  0  0
   -2.7226    1.6772   -1.2462 H   0  0  0  0  0  0  0  0  0  0  0  0
   -0.2299    1.1536   -1.9895 H   0  0  0  0  0  0  0  0  0  0  0  0
    0.1622   -1.4572   -1.2855 H   0  0  0  0  0  0  0  0  0  0  0  0
  1  2  1  0
  2  3  1  0
  3  4  1  0
  4  5  1  0
  5  6  1  0
  6  7  2  0
  7  8  1  0
  8  9  1  0
  8  3  1  0
  9  3  1  0
  9  5  1  0
  1 10  1  0
  1 11  1  0
  1 12  1  0
  2 13  1  0
  2 14  1  0
  4 15  1  0
  4 16  1  0
  5 17  1  0
  6 18  1  0
  7 19  1  0
  8 20  1  0
  9 21  1  0
M  END
