
     RDKit          3D

 25 25  0  0  0  0  0  0  0  0999 V2000
    2.3382    1.0021    0.1623 C   0  0  0  0  0  0  0  0  0  0  0  0
    1.8920   -0.4253    0.2989 C   0  0  0  0  0  0  0  0  0  0  0  0
    0.4560   -0.5896   -0.1949 C   0  0  0  0  0  0  0  0  0  0  0  0
    0.2874   -0.2090   -1.6432 C   0  0  0  0  0  0  0  0  0  0  0  0
   -0.2466   -1.7722    0.3015 C   0  0  0  0  0  0  0  0  0  0  0  0
   -0.6138   -0.3486    0.7928 C   0  0  0  0  0  0  0  0  0  0  0  0
   -0.2128   -0.0610    2.1056 O   0  0  0  0  0  0  0  0  0  0  0  0
   -1.9918    0.0940    0.3890 C   0  0  0  0  0  0  0  0  0  0  0  0
   -2.0317    1.3908   -0.3380 C   0  0  0  0  0  0  0  0  0  0  0  0
    2.8915    1.2938    1.0810 H   0  0  0  0  0  0  0  0  0  0  0  0
    2.9816    1.1815   -0.7144 H   0  0  0  0  0  0  0  0  0  0  0  0
    1.4327    1.6588    0.0671 H   0  0  0  0  0  0  0  0  0  0  0  0
    2.0300   -0.8378    1.3142 H   0  0  0  0  0  0  0  0  0  0  0  0
    2.5062   -1.0750   -0.3866 H   0  0  0  0  0  0  0  0  0  0  0  0
    1.0506   -0.7892   -2.2151 H   0  0  0  0  0  0  0  0  0  0  0  0
   -0.6894   -0.4879   -2.0513 H   0  0  0  0  0  0  0  0  0  0  0  0
    0.5398    0.8748   -1.8216 H   0  0  0  0  0  0  0  0  0  0  0  0
   -0.9698   -2.2769   -0.3614 H   0  0  0  0  0  0  0  0  0  0  0  0
    0.1702   -2.4462    1.0752 H   0  0  0  0  0  0  0  0  0  0  0  0
   -0.4430   -0.8481    2.6707 H   0  0  0  0  0  0  0  0  0  0  0  0
   -2.5413   -0.7025   -0.1731 H   0  0  0  0  0  0  0  0  0  0  0  0
   -2.5809    0.2285    1.3432 H   0  0  0  0  0  0  0  0  0  0  0  0
   -1.0668    1.9384   -0.3239 H   0  0  0  0  0  0  0  0  0  0  0  0
   -2.3091    1.1695   -1.4085 H   0  0  0  0  0  0  0  0  0  0  0  0
   -2.8791    2.0372    0.0303 H   0  0  0  0  0  0  0  0  0  0  0  0
  1  2  1  0
  2  3  1  0
  3  4  1  0
  3  5  1  0
  5  6  1  0
  6  7  1  0
  6  8  1  0
  8  9  1  0
  6  3  1  0
  1 10  1  0
  1 11  1  0
  1 12  1  0
  2 13  1  0
  2 14  1  0
  4 15  1  0
  4 16  1  0
  4 17  1  0
  5 18  1  0
  5 19  1  0
  7 20  1  0
  8 21  1  0
  8 22  1  0
  9 23  1  0
  9 24  1  0
  9 25  1  0
M  END
