
     RDKit          3D

 23 23  0  0  0  0  0  0  0  0999 V2000
   -2.9630   -0.4027   -0.5755 C   0  0  0  0  0  0  0  0  0  0  0  0
   -2.2346    0.6697    0.2014 C   0  0  0  0  0  0  0  0  0  0  0  0
   -0.7938    0.4254    0.3296 C   0  0  0  0  0  0  0  0  0  0  0  0
    0.0442    1.3135   -0.1611 C   0  0  0  0  0  0  0  0  0  0  0  0
    1.4961    1.0533   -0.0243 C   0  0  0  0  0  0  0  0  0  0  0  0
    1.6487   -0.4455   -0.2801 C   0  0  0  0  0  0  0  0  0  0  0  0
    3.0942   -0.7683   -0.3864 C   0  0  0  0  0  0  0  0  0  0  0  0
    1.0343   -1.0878    0.7606 O   0  0  0  0  0  0  0  0  0  0  0  0
   -0.2692   -0.7883    0.9945 C   0  0  0  0  0  0  0  0  0  0  0  0
   -2.7075   -1.4201   -0.2756 H   0  0  0  0  0  0  0  0  0  0  0  0
   -4.0460   -0.2139   -0.4192 H   0  0  0  0  0  0  0  0  0  0  0  0
   -2.7743   -0.2036   -1.6640 H   0  0  0  0  0  0  0  0  0  0  0  0
   -2.4267    1.6273   -0.3207 H   0  0  0  0  0  0  0  0  0  0  0  0
   -2.6726    0.7682    1.2381 H   0  0  0  0  0  0  0  0  0  0  0  0
   -0.3236    2.1990   -0.6453 H   0  0  0  0  0  0  0  0  0  0  0  0
    1.7599    1.2904    1.0442 H   0  0  0  0  0  0  0  0  0  0  0  0
    2.0873    1.6539   -0.7256 H   0  0  0  0  0  0  0  0  0  0  0  0
    1.0759   -0.6752   -1.2070 H   0  0  0  0  0  0  0  0  0  0  0  0
    3.7331    0.0064    0.0467 H   0  0  0  0  0  0  0  0  0  0  0  0
    3.3592   -0.8498   -1.4802 H   0  0  0  0  0  0  0  0  0  0  0  0
    3.2835   -1.7896    0.0307 H   0  0  0  0  0  0  0  0  0  0  0  0
   -0.5196   -0.6994    2.0870 H   0  0  0  0  0  0  0  0  0  0  0  0
   -0.8856   -1.6631    0.6498 H   0  0  0  0  0  0  0  0  0  0  0  0
  1  2  1  0
  2  3  1  0
  3  4  2  0
  4  5  1  0
  5  6  1  0
  6  7  1  0
  6  8  1  0
  8  9  1  0
  9  3  1  0
  1 10  1  0
  1 11  1  0
  1 12  1  0
  2 13  1  0
  2 14  1  0
  4 15  1  0
  5 16  1  0
  5 17  1  0
  6 18  1  0
  7 19  1  0
  7 20  1  0
  7 21  1  0
  9 22  1  0
  9 23  1  0
M  END
