
     RDKit          3D

 23 24  0  0  0  0  0  0  0  0999 V2000
    2.4363    0.9138    0.5251 C   0  0  0  0  0  0  0  0  0  0  0  0
    1.8117    0.4058   -0.7750 C   0  0  0  0  0  0  0  0  0  0  0  0
    0.4965   -0.2140   -0.3869 C   0  0  0  0  0  0  0  0  0  0  0  0
   -0.4668    0.7215    0.2766 C   0  0  0  0  0  0  0  0  0  0  0  0
   -1.8038    0.2555   -0.1840 C   0  0  0  0  0  0  0  0  0  0  0  0
   -2.5966   -0.1558    1.0417 C   0  0  0  0  0  0  0  0  0  0  0  0
   -1.6539   -0.7395   -1.1022 O   0  0  0  0  0  0  0  0  0  0  0  0
   -0.3328   -0.9597   -1.3531 C   0  0  0  0  0  0  0  0  0  0  0  0
    0.4235   -1.6732   -0.2415 C   0  0  0  0  0  0  0  0  0  0  0  0
    3.5213    0.9936    0.4654 H   0  0  0  0  0  0  0  0  0  0  0  0
    2.1638    0.1980    1.3298 H   0  0  0  0  0  0  0  0  0  0  0  0
    1.9795    1.9104    0.7997 H   0  0  0  0  0  0  0  0  0  0  0  0
    1.6066    1.2378   -1.4757 H   0  0  0  0  0  0  0  0  0  0  0  0
    2.5181   -0.3240   -1.2079 H   0  0  0  0  0  0  0  0  0  0  0  0
   -0.3004    1.7418   -0.1035 H   0  0  0  0  0  0  0  0  0  0  0  0
   -0.3296    0.6418    1.3829 H   0  0  0  0  0  0  0  0  0  0  0  0
   -2.4077    1.0748   -0.6734 H   0  0  0  0  0  0  0  0  0  0  0  0
   -2.5912    0.7499    1.7158 H   0  0  0  0  0  0  0  0  0  0  0  0
   -3.6298   -0.4150    0.8332 H   0  0  0  0  0  0  0  0  0  0  0  0
   -2.0081   -0.9205    1.5709 H   0  0  0  0  0  0  0  0  0  0  0  0
    0.0694   -1.0135   -2.3891 H   0  0  0  0  0  0  0  0  0  0  0  0
   -0.1894   -2.1751    0.5345 H   0  0  0  0  0  0  0  0  0  0  0  0
    1.2834   -2.2542   -0.5831 H   0  0  0  0  0  0  0  0  0  0  0  0
  1  2  1  0
  2  3  1  0
  3  4  1  0
  4  5  1  0
  5  6  1  0
  5  7  1  0
  7  8  1  0
  8  9  1  0
  8  3  1  0
  9  3  1  0
  1 10  1  0
  1 11  1  0
  1 12  1  0
  2 13  1  0
  2 14  1  0
  4 15  1  0
  4 16  1  0
  5 17  1  0
  6 18  1  0
  6 19  1  0
  6 20  1  0
  8 21  1  0
  9 22  1  0
  9 23  1  0
M  END
