
     RDKit          3D

 19 19  0  0  0  0  0  0  0  0999 V2000
   -1.8647    0.7519   -0.1900 C   0  0  0  0  0  0  0  0  0  0  0  0
   -0.7034   -0.0312   -0.7329 C   0  0  0  0  0  0  0  0  0  0  0  0
    0.2863   -0.4201    0.3365 C   0  0  0  0  0  0  0  0  0  0  0  0
    0.8620    0.6288    1.0150 O   0  0  0  0  0  0  0  0  0  0  0  0
    1.5673    1.4898    0.2169 C   0  0  0  0  0  0  0  0  0  0  0  0
   -0.3207   -1.4882    1.2214 C   0  0  0  0  0  0  0  0  0  0  0  0
    0.1081   -2.3913    0.2079 O   0  0  0  0  0  0  0  0  0  0  0  0
    1.1749   -1.5459   -0.0011 C   0  0  0  0  0  0  0  0  0  0  0  0
    2.3607   -1.6836   -0.3297 O   0  0  0  0  0  0  0  0  0  0  0  0
   -2.1260    1.5298   -0.9364 H   0  0  0  0  0  0  0  0  0  0  0  0
   -1.6454    1.2202    0.7844 H   0  0  0  0  0  0  0  0  0  0  0  0
   -2.7535    0.0977   -0.0866 H   0  0  0  0  0  0  0  0  0  0  0  0
   -1.1123   -0.9135   -1.2548 H   0  0  0  0  0  0  0  0  0  0  0  0
   -0.1595    0.5604   -1.4950 H   0  0  0  0  0  0  0  0  0  0  0  0
    1.9811    2.2917    0.8981 H   0  0  0  0  0  0  0  0  0  0  0  0
    2.4410    0.9730   -0.2144 H   0  0  0  0  0  0  0  0  0  0  0  0
    0.9695    1.9838   -0.5766 H   0  0  0  0  0  0  0  0  0  0  0  0
   -1.3916   -1.4303    1.3805 H   0  0  0  0  0  0  0  0  0  0  0  0
    0.3262   -1.6230    2.1151 H   0  0  0  0  0  0  0  0  0  0  0  0
  1  2  1  0
  2  3  1  0
  3  4  1  0
  4  5  1  0
  3  6  1  0
  6  7  1  0
  7  8  1  0
  8  9  2  0
  8  3  1  0
  1 10  1  0
  1 11  1  0
  1 12  1  0
  2 13  1  0
  2 14  1  0
  5 15  1  0
  5 16  1  0
  5 17  1  0
  6 18  1  0
  6 19  1  0
M  END
