
     RDKit          3D

 25 25  0  0  0  0  0  0  0  0999 V2000
    0.5322    2.3302   -0.2473 C   0  0  0  0  0  0  0  0  0  0  0  0
    1.0001    1.0606    0.3058 C   0  0  0  0  0  0  0  0  0  0  0  0
    0.2363   -0.1793    0.1081 C   0  0  0  0  0  0  0  0  0  0  0  0
   -1.1549   -0.1798    0.6668 C   0  0  0  0  0  0  0  0  0  0  0  0
   -2.0992    0.8247    0.1280 C   0  0  0  0  0  0  0  0  0  0  0  0
    0.9539   -1.3040    0.8866 C   0  0  0  0  0  0  0  0  0  0  0  0
    0.7357   -2.4584   -0.0720 C   0  0  0  0  0  0  0  0  0  0  0  0
    1.1599   -1.8396   -1.2723 O   0  0  0  0  0  0  0  0  0  0  0  0
    0.3018   -0.7419   -1.2890 C   0  0  0  0  0  0  0  0  0  0  0  0
   -0.2227    2.3251   -1.0321 H   0  0  0  0  0  0  0  0  0  0  0  0
    0.1191    2.9811    0.5821 H   0  0  0  0  0  0  0  0  0  0  0  0
    1.4449    2.9356   -0.5594 H   0  0  0  0  0  0  0  0  0  0  0  0
    2.0770    0.8873   -0.0206 H   0  0  0  0  0  0  0  0  0  0  0  0
    1.1270    1.1881    1.4293 H   0  0  0  0  0  0  0  0  0  0  0  0
   -1.5709   -1.2338    0.6092 H   0  0  0  0  0  0  0  0  0  0  0  0
   -1.0197   -0.0336    1.7843 H   0  0  0  0  0  0  0  0  0  0  0  0
   -2.0684    0.8735   -0.9715 H   0  0  0  0  0  0  0  0  0  0  0  0
   -1.9287    1.8265    0.5602 H   0  0  0  0  0  0  0  0  0  0  0  0
   -3.1434    0.5240    0.4423 H   0  0  0  0  0  0  0  0  0  0  0  0
    2.0265   -1.0881    0.9339 H   0  0  0  0  0  0  0  0  0  0  0  0
    0.4997   -1.4734    1.8652 H   0  0  0  0  0  0  0  0  0  0  0  0
   -0.3236   -2.7076   -0.2092 H   0  0  0  0  0  0  0  0  0  0  0  0
    1.3763   -3.3289    0.1691 H   0  0  0  0  0  0  0  0  0  0  0  0
   -0.7146   -1.1477   -1.5273 H   0  0  0  0  0  0  0  0  0  0  0  0
    0.6556   -0.0407   -2.0384 H   0  0  0  0  0  0  0  0  0  0  0  0
  1  2  1  0
  2  3  1  0
  3  4  1  0
  4  5  1  0
  3  6  1  0
  6  7  1  0
  7  8  1  0
  8  9  1  0
  9  3  1  0
  1 10  1  0
  1 11  1  0
  1 12  1  0
  2 13  1  0
  2 14  1  0
  4 15  1  0
  4 16  1  0
  5 17  1  0
  5 18  1  0
  5 19  1  0
  6 20  1  0
  6 21  1  0
  7 22  1  0
  7 23  1  0
  9 24  1  0
  9 25  1  0
M  END
