
     RDKit          3D

 21 21  0  0  0  0  0  0  0  0999 V2000
    2.6369   -0.0990   -0.1238 C   0  0  0  0  0  0  0  0  0  0  0  0
    1.4342   -0.8413    0.4652 C   0  0  0  0  0  0  0  0  0  0  0  0
    0.1940   -0.2598   -0.1156 C   0  0  0  0  0  0  0  0  0  0  0  0
    0.1093   -0.3553   -1.5077 O   0  0  0  0  0  0  0  0  0  0  0  0
   -0.5564    0.7970    0.6044 C   0  0  0  0  0  0  0  0  0  0  0  0
   -1.4742    1.7384   -0.1086 C   0  0  0  0  0  0  0  0  0  0  0  0
   -1.0840   -0.6426    0.6503 C   0  0  0  0  0  0  0  0  0  0  0  0
   -2.2591   -0.9788   -0.1812 C   0  0  0  0  0  0  0  0  0  0  0  0
   -2.4244   -0.5029   -1.2798 O   0  0  0  0  0  0  0  0  0  0  0  0
    3.1312   -0.7210   -0.8939 H   0  0  0  0  0  0  0  0  0  0  0  0
    3.3785    0.1394    0.6575 H   0  0  0  0  0  0  0  0  0  0  0  0
    2.3251    0.8679   -0.5747 H   0  0  0  0  0  0  0  0  0  0  0  0
    1.4873   -0.7928    1.5632 H   0  0  0  0  0  0  0  0  0  0  0  0
    1.4939   -1.9407    0.2124 H   0  0  0  0  0  0  0  0  0  0  0  0
    0.8285   -0.8925   -1.8837 H   0  0  0  0  0  0  0  0  0  0  0  0
   -0.0644    1.2145    1.4888 H   0  0  0  0  0  0  0  0  0  0  0  0
   -1.4693    1.6315   -1.2092 H   0  0  0  0  0  0  0  0  0  0  0  0
   -1.2173    2.8018    0.1260 H   0  0  0  0  0  0  0  0  0  0  0  0
   -2.5108    1.5982    0.2679 H   0  0  0  0  0  0  0  0  0  0  0  0
   -0.9654   -1.0950    1.6465 H   0  0  0  0  0  0  0  0  0  0  0  0
   -2.9937   -1.6672    0.1960 H   0  0  0  0  0  0  0  0  0  0  0  0
  1  2  1  0
  2  3  1  0
  3  4  1  0
  3  5  1  0
  5  6  1  0
  5  7  1  0
  7  8  1  0
  8  9  2  0
  7  3  1  0
  1 10  1  0
  1 11  1  0
  1 12  1  0
  2 13  1  0
  2 14  1  0
  4 15  1  0
  5 16  1  0
  6 17  1  0
  6 18  1  0
  6 19  1  0
  7 20  1  0
  8 21  1  0
M  END
