
     RDKit          3D

 23 23  0  0  0  0  0  0  0  0999 V2000
    3.0897    0.1332   -0.3588 C   0  0  0  0  0  0  0  0  0  0  0  0
    2.1301   -0.5511    0.6142 C   0  0  0  0  0  0  0  0  0  0  0  0
    1.0058    0.4264    0.8430 C   0  0  0  0  0  0  0  0  0  0  0  0
    0.0070    0.0134    1.7024 O   0  0  0  0  0  0  0  0  0  0  0  0
   -0.8609   -0.3401    0.6981 C   0  0  0  0  0  0  0  0  0  0  0  0
   -2.2080    0.3619    0.7302 C   0  0  0  0  0  0  0  0  0  0  0  0
   -3.0945   -0.0767   -0.3938 C   0  0  0  0  0  0  0  0  0  0  0  0
    0.0312    0.3840   -0.2990 C   0  0  0  0  0  0  0  0  0  0  0  0
    0.3437   -0.4272   -1.3544 O   0  0  0  0  0  0  0  0  0  0  0  0
    3.7795   -0.6112   -0.7588 H   0  0  0  0  0  0  0  0  0  0  0  0
    3.6013    0.9262    0.2584 H   0  0  0  0  0  0  0  0  0  0  0  0
    2.5437    0.6840   -1.1481 H   0  0  0  0  0  0  0  0  0  0  0  0
    1.6894   -1.4631    0.1693 H   0  0  0  0  0  0  0  0  0  0  0  0
    2.6884   -0.8123    1.5108 H   0  0  0  0  0  0  0  0  0  0  0  0
    1.4115    1.4291    1.0969 H   0  0  0  0  0  0  0  0  0  0  0  0
   -0.9225   -1.4355    0.5378 H   0  0  0  0  0  0  0  0  0  0  0  0
   -2.6530    0.1874    1.7299 H   0  0  0  0  0  0  0  0  0  0  0  0
   -2.0644    1.4577    0.6307 H   0  0  0  0  0  0  0  0  0  0  0  0
   -4.1507    0.0678   -0.0669 H   0  0  0  0  0  0  0  0  0  0  0  0
   -2.9398    0.5441   -1.3109 H   0  0  0  0  0  0  0  0  0  0  0  0
   -2.8807   -1.1161   -0.6926 H   0  0  0  0  0  0  0  0  0  0  0  0
   -0.2994    1.4027   -0.5540 H   0  0  0  0  0  0  0  0  0  0  0  0
   -0.2476   -1.1846   -1.5087 H   0  0  0  0  0  0  0  0  0  0  0  0
  1  2  1  0
  2  3  1  0
  3  4  1  0
  4  5  1  0
  5  6  1  0
  6  7  1  0
  5  8  1  0
  8  9  1  0
  8  3  1  0
  1 10  1  0
  1 11  1  0
  1 12  1  0
  2 13  1  0
  2 14  1  0
  3 15  1  0
  5 16  1  0
  6 17  1  0
  6 18  1  0
  7 19  1  0
  7 20  1  0
  7 21  1  0
  8 22  1  0
  9 23  1  0
M  END
