
     RDKit          3D

 24 24  0  0  0  0  0  0  0  0999 V2000
   -2.5203   -0.4671   -0.7529 C   0  0  0  0  0  0  0  0  0  0  0  0
   -1.3412   -1.1107   -0.0530 C   0  0  0  0  0  0  0  0  0  0  0  0
   -0.7580   -0.2437    1.0124 C   0  0  0  0  0  0  0  0  0  0  0  0
   -0.2015    1.0922    0.7344 C   0  0  0  0  0  0  0  0  0  0  0  0
   -0.4471    1.7465   -0.5943 C   0  0  0  0  0  0  0  0  0  0  0  0
    0.7278   -0.0093    0.9383 C   0  0  0  0  0  0  0  0  0  0  0  0
    1.5137   -0.6581   -0.1761 C   0  0  0  0  0  0  0  0  0  0  0  0
    2.9836   -0.3047   -0.0803 C   0  0  0  0  0  0  0  0  0  0  0  0
   -2.2171   -0.0215   -1.7243 H   0  0  0  0  0  0  0  0  0  0  0  0
   -3.0625    0.2492   -0.1059 H   0  0  0  0  0  0  0  0  0  0  0  0
   -3.2386   -1.2892   -1.0319 H   0  0  0  0  0  0  0  0  0  0  0  0
   -0.5727   -1.3334   -0.8434 H   0  0  0  0  0  0  0  0  0  0  0  0
   -1.6863   -2.0625    0.3994 H   0  0  0  0  0  0  0  0  0  0  0  0
   -1.2164   -0.4273    2.0289 H   0  0  0  0  0  0  0  0  0  0  0  0
   -0.2854    1.8305    1.5865 H   0  0  0  0  0  0  0  0  0  0  0  0
   -0.1502    1.1660   -1.4614 H   0  0  0  0  0  0  0  0  0  0  0  0
    0.0827    2.7338   -0.6554 H   0  0  0  0  0  0  0  0  0  0  0  0
   -1.5363    2.0169   -0.6570 H   0  0  0  0  0  0  0  0  0  0  0  0
    1.2594   -0.0864    1.9275 H   0  0  0  0  0  0  0  0  0  0  0  0
    1.4643   -1.7801   -0.1078 H   0  0  0  0  0  0  0  0  0  0  0  0
    1.1822   -0.3508   -1.1851 H   0  0  0  0  0  0  0  0  0  0  0  0
    3.1192    0.7786    0.1872 H   0  0  0  0  0  0  0  0  0  0  0  0
    3.4333   -0.4963   -1.0661 H   0  0  0  0  0  0  0  0  0  0  0  0
    3.4674   -0.9726    0.6716 H   0  0  0  0  0  0  0  0  0  0  0  0
  1  2  1  0
  2  3  1  0
  3  4  1  0
  4  5  1  0
  4  6  1  0
  6  7  1  0
  7  8  1  0
  6  3  1  0
  1  9  1  0
  1 10  1  0
  1 11  1  0
  2 12  1  0
  2 13  1  0
  3 14  1  0
  4 15  1  0
  5 16  1  0
  5 17  1  0
  5 18  1  0
  6 19  1  0
  7 20  1  0
  7 21  1  0
  8 22  1  0
  8 23  1  0
  8 24  1  0
M  END
