
     RDKit          3D

 21 21  0  0  0  0  0  0  0  0999 V2000
   -3.2518    0.0586    0.4712 C   0  0  0  0  0  0  0  0  0  0  0  0
   -1.9467    0.8149    0.4835 C   0  0  0  0  0  0  0  0  0  0  0  0
   -0.9495    0.2018   -0.4873 C   0  0  0  0  0  0  0  0  0  0  0  0
    0.2671    0.8688   -0.5072 O   0  0  0  0  0  0  0  0  0  0  0  0
    0.9020   -0.3408   -0.6588 C   0  0  0  0  0  0  0  0  0  0  0  0
    2.1698   -0.5398    0.1330 C   0  0  0  0  0  0  0  0  0  0  0  0
    3.2394    0.4458   -0.1812 C   0  0  0  0  0  0  0  0  0  0  0  0
   -0.2518   -0.9713    0.0785 C   0  0  0  0  0  0  0  0  0  0  0  0
   -0.4504   -1.9490    0.7712 O   0  0  0  0  0  0  0  0  0  0  0  0
   -3.8506    0.2813   -0.4447 H   0  0  0  0  0  0  0  0  0  0  0  0
   -3.8563    0.4308    1.3249 H   0  0  0  0  0  0  0  0  0  0  0  0
   -3.1121   -1.0366    0.6221 H   0  0  0  0  0  0  0  0  0  0  0  0
   -1.5530    0.7697    1.5225 H   0  0  0  0  0  0  0  0  0  0  0  0
   -2.1473    1.8409    0.1426 H   0  0  0  0  0  0  0  0  0  0  0  0
   -1.3997   -0.0143   -1.4627 H   0  0  0  0  0  0  0  0  0  0  0  0
    0.9461   -0.7045   -1.6990 H   0  0  0  0  0  0  0  0  0  0  0  0
    1.9955   -0.5919    1.2166 H   0  0  0  0  0  0  0  0  0  0  0  0
    2.5593   -1.5565   -0.1608 H   0  0  0  0  0  0  0  0  0  0  0  0
    3.2275    1.3526    0.4364 H   0  0  0  0  0  0  0  0  0  0  0  0
    4.2290   -0.0466   -0.0066 H   0  0  0  0  0  0  0  0  0  0  0  0
    3.2336    0.6861   -1.2788 H   0  0  0  0  0  0  0  0  0  0  0  0
  1  2  1  0
  2  3  1  0
  3  4  1  0
  4  5  1  0
  5  6  1  0
  6  7  1  0
  5  8  1  0
  8  9  2  0
  8  3  1  0
  1 10  1  0
  1 11  1  0
  1 12  1  0
  2 13  1  0
  2 14  1  0
  3 15  1  0
  5 16  1  0
  6 17  1  0
  6 18  1  0
  7 19  1  0
  7 20  1  0
  7 21  1  0
M  END
