
     RDKit          3D

 21 22  0  0  0  0  0  0  0  0999 V2000
    2.4265    0.6105   -0.4211 C   0  0  0  0  0  0  0  0  0  0  0  0
    1.4517   -0.2898    0.2702 C   0  0  0  0  0  0  0  0  0  0  0  0
    0.1603   -0.4736   -0.4666 C   0  0  0  0  0  0  0  0  0  0  0  0
    0.2397   -1.0270   -1.7541 O   0  0  0  0  0  0  0  0  0  0  0  0
   -0.9922   -0.9704    0.3463 C   0  0  0  0  0  0  0  0  0  0  0  0
   -2.3189   -1.0691   -0.3219 C   0  0  0  0  0  0  0  0  0  0  0  0
   -2.2002    0.2491   -0.7202 O   0  0  0  0  0  0  0  0  0  0  0  0
   -0.9587    0.4468   -0.1699 C   0  0  0  0  0  0  0  0  0  0  0  0
   -0.8347    1.5980    0.7657 C   0  0  0  0  0  0  0  0  0  0  0  0
    2.7954    1.3693    0.3271 H   0  0  0  0  0  0  0  0  0  0  0  0
    1.9974    1.1037   -1.3120 H   0  0  0  0  0  0  0  0  0  0  0  0
    3.3513    0.0818   -0.7566 H   0  0  0  0  0  0  0  0  0  0  0  0
    1.2515    0.0398    1.3028 H   0  0  0  0  0  0  0  0  0  0  0  0
    1.9307   -1.3096    0.3443 H   0  0  0  0  0  0  0  0  0  0  0  0
    0.6414   -1.9454   -1.6568 H   0  0  0  0  0  0  0  0  0  0  0  0
   -0.8865   -1.1099    1.4411 H   0  0  0  0  0  0  0  0  0  0  0  0
   -2.2975   -1.7288   -1.2176 H   0  0  0  0  0  0  0  0  0  0  0  0
   -3.1422   -1.3209    0.3510 H   0  0  0  0  0  0  0  0  0  0  0  0
   -1.6013    1.4485    1.5783 H   0  0  0  0  0  0  0  0  0  0  0  0
    0.1699    1.7705    1.1503 H   0  0  0  0  0  0  0  0  0  0  0  0
   -1.1834    2.5266    0.2345 H   0  0  0  0  0  0  0  0  0  0  0  0
  1  2  1  0
  2  3  1  0
  3  4  1  0
  3  5  1  0
  5  6  1  0
  6  7  1  0
  7  8  1  0
  8  9  1  0
  8  3  1  0
  8  5  1  0
  1 10  1  0
  1 11  1  0
  1 12  1  0
  2 13  1  0
  2 14  1  0
  4 15  1  0
  5 16  1  0
  6 17  1  0
  6 18  1  0
  9 19  1  0
  9 20  1  0
  9 21  1  0
M  END
