
     RDKit          3D

 23 24  0  0  0  0  0  0  0  0999 V2000
    2.3255   -0.3922    0.5343 C   0  0  0  0  0  0  0  0  0  0  0  0
    1.5046    0.8791    0.4921 C   0  0  0  0  0  0  0  0  0  0  0  0
    0.3607    0.6578   -0.4588 C   0  0  0  0  0  0  0  0  0  0  0  0
   -0.5183    1.8245   -0.6012 C   0  0  0  0  0  0  0  0  0  0  0  0
   -1.7678    1.4185   -0.6062 C   0  0  0  0  0  0  0  0  0  0  0  0
   -1.9395   -0.0223   -0.4733 C   0  0  0  0  0  0  0  0  0  0  0  0
   -1.2904   -1.0520   -1.2844 C   0  0  0  0  0  0  0  0  0  0  0  0
   -0.5064   -0.4888   -0.1423 C   0  0  0  0  0  0  0  0  0  0  0  0
   -0.3916   -1.2821    1.1274 C   0  0  0  0  0  0  0  0  0  0  0  0
    3.4057   -0.1522    0.3815 H   0  0  0  0  0  0  0  0  0  0  0  0
    2.0079   -1.0968   -0.2778 H   0  0  0  0  0  0  0  0  0  0  0  0
    2.1771   -0.8366    1.5294 H   0  0  0  0  0  0  0  0  0  0  0  0
    2.1518    1.6903    0.1078 H   0  0  0  0  0  0  0  0  0  0  0  0
    1.1795    1.1839    1.4967 H   0  0  0  0  0  0  0  0  0  0  0  0
    0.8135    0.4941   -1.4873 H   0  0  0  0  0  0  0  0  0  0  0  0
   -0.1891    2.8958   -0.6917 H   0  0  0  0  0  0  0  0  0  0  0  0
   -2.6300    2.1115   -0.7036 H   0  0  0  0  0  0  0  0  0  0  0  0
   -2.7417   -0.3235    0.2537 H   0  0  0  0  0  0  0  0  0  0  0  0
   -0.9039   -0.8490   -2.2866 H   0  0  0  0  0  0  0  0  0  0  0  0
   -1.7441   -2.0748   -1.2022 H   0  0  0  0  0  0  0  0  0  0  0  0
   -0.1603   -0.6817    2.0147 H   0  0  0  0  0  0  0  0  0  0  0  0
    0.2630   -2.1566    0.9638 H   0  0  0  0  0  0  0  0  0  0  0  0
   -1.4062   -1.7468    1.3140 H   0  0  0  0  0  0  0  0  0  0  0  0
  1  2  1  0
  2  3  1  0
  3  4  1  0
  4  5  2  0
  5  6  1  0
  6  7  1  0
  7  8  1  0
  8  9  1  0
  8  3  1  0
  8  6  1  0
  1 10  1  0
  1 11  1  0
  1 12  1  0
  2 13  1  0
  2 14  1  0
  3 15  1  0
  4 16  1  0
  5 17  1  0
  6 18  1  0
  7 19  1  0
  7 20  1  0
  9 21  1  0
  9 22  1  0
  9 23  1  0
M  END
