
     RDKit          3D

 25 25  0  0  0  0  0  0  0  0999 V2000
    2.9913   -0.6823   -0.5498 C   0  0  0  0  0  0  0  0  0  0  0  0
    2.3377    0.2396    0.4267 C   0  0  0  0  0  0  0  0  0  0  0  0
    0.8872    0.4987    0.1304 C   0  0  0  0  0  0  0  0  0  0  0  0
    0.2386    1.4487    1.1479 C   0  0  0  0  0  0  0  0  0  0  0  0
   -0.1679   -0.0076    1.0316 C   0  0  0  0  0  0  0  0  0  0  0  0
   -1.5643   -0.2400    0.5801 C   0  0  0  0  0  0  0  0  0  0  0  0
   -2.2522    0.9951    0.0591 C   0  0  0  0  0  0  0  0  0  0  0  0
   -1.6809   -1.3222   -0.4720 C   0  0  0  0  0  0  0  0  0  0  0  0
   -2.3122   -0.6780    1.6825 O   0  0  0  0  0  0  0  0  0  0  0  0
    2.6978   -1.7350   -0.3906 H   0  0  0  0  0  0  0  0  0  0  0  0
    4.0951   -0.6398   -0.3557 H   0  0  0  0  0  0  0  0  0  0  0  0
    2.8642   -0.3630   -1.6016 H   0  0  0  0  0  0  0  0  0  0  0  0
    2.4969   -0.1594    1.4485 H   0  0  0  0  0  0  0  0  0  0  0  0
    2.8836    1.2198    0.3937 H   0  0  0  0  0  0  0  0  0  0  0  0
    0.6695    0.6576   -0.9403 H   0  0  0  0  0  0  0  0  0  0  0  0
    0.7995    1.7535    2.0282 H   0  0  0  0  0  0  0  0  0  0  0  0
   -0.4496    2.2238    0.7391 H   0  0  0  0  0  0  0  0  0  0  0  0
    0.1650   -0.6623    1.8719 H   0  0  0  0  0  0  0  0  0  0  0  0
   -2.4909    1.7058    0.8645 H   0  0  0  0  0  0  0  0  0  0  0  0
   -3.2076    0.6539   -0.4362 H   0  0  0  0  0  0  0  0  0  0  0  0
   -1.6891    1.5211   -0.7207 H   0  0  0  0  0  0  0  0  0  0  0  0
   -2.7632   -1.4167   -0.7085 H   0  0  0  0  0  0  0  0  0  0  0  0
   -1.1407   -1.0784   -1.4024 H   0  0  0  0  0  0  0  0  0  0  0  0
   -1.3862   -2.3251   -0.0568 H   0  0  0  0  0  0  0  0  0  0  0  0
   -2.0216   -1.6077    1.8726 H   0  0  0  0  0  0  0  0  0  0  0  0
  1  2  1  0
  2  3  1  0
  3  4  1  0
  4  5  1  0
  5  6  1  0
  6  7  1  0
  6  8  1  0
  6  9  1  0
  5  3  1  0
  1 10  1  0
  1 11  1  0
  1 12  1  0
  2 13  1  0
  2 14  1  0
  3 15  1  0
  4 16  1  0
  4 17  1  0
  5 18  1  0
  7 19  1  0
  7 20  1  0
  7 21  1  0
  8 22  1  0
  8 23  1  0
  8 24  1  0
  9 25  1  0
M  END
