
     RDKit          3D

 19 21  0  0  0  0  0  0  0  0999 V2000
   -2.6245    0.3796   -0.3899 C   0  0  0  0  0  0  0  0  0  0  0  0
   -1.5994   -0.6280    0.0607 C   0  0  0  0  0  0  0  0  0  0  0  0
   -0.2052   -0.1270   -0.0377 C   0  0  0  0  0  0  0  0  0  0  0  0
    0.3502    0.2699   -1.2256 O   0  0  0  0  0  0  0  0  0  0  0  0
    1.6216   -0.1607   -0.8298 C   0  0  0  0  0  0  0  0  0  0  0  0
    2.3396    0.9016    0.0072 C   0  0  0  0  0  0  0  0  0  0  0  0
    1.5063    1.1902    1.0530 O   0  0  0  0  0  0  0  0  0  0  0  0
    0.6135    0.1250    1.2216 C   0  0  0  0  0  0  0  0  0  0  0  0
    0.9580   -0.9249    0.2758 C   0  0  0  0  0  0  0  0  0  0  0  0
   -3.4915    0.4335    0.3226 H   0  0  0  0  0  0  0  0  0  0  0  0
   -2.1994    1.3984   -0.4542 H   0  0  0  0  0  0  0  0  0  0  0  0
   -3.0363    0.1046   -1.4046 H   0  0  0  0  0  0  0  0  0  0  0  0
   -1.8244   -0.9263    1.0993 H   0  0  0  0  0  0  0  0  0  0  0  0
   -1.6843   -1.5384   -0.5782 H   0  0  0  0  0  0  0  0  0  0  0  0
    2.2179   -0.6914   -1.5488 H   0  0  0  0  0  0  0  0  0  0  0  0
    3.2639    0.4031    0.4237 H   0  0  0  0  0  0  0  0  0  0  0  0
    2.6078    1.7825   -0.6167 H   0  0  0  0  0  0  0  0  0  0  0  0
    0.1398   -0.0206    2.1887 H   0  0  0  0  0  0  0  0  0  0  0  0
    1.0462   -1.9712    0.4328 H   0  0  0  0  0  0  0  0  0  0  0  0
  1  2  1  0
  2  3  1  0
  3  4  1  0
  4  5  1  0
  5  6  1  0
  6  7  1  0
  7  8  1  0
  8  9  1  0
  8  3  1  0
  9  3  1  0
  9  5  1  0
  1 10  1  0
  1 11  1  0
  1 12  1  0
  2 13  1  0
  2 14  1  0
  5 15  1  0
  6 16  1  0
  6 17  1  0
  8 18  1  0
  9 19  1  0
M  END
