
     RDKit          3D

 19 19  0  0  0  0  0  0  0  0999 V2000
   -2.4757   -0.1767   -0.4483 C   0  0  0  0  0  0  0  0  0  0  0  0
   -1.5634    0.1186    0.6799 C   0  0  0  0  0  0  0  0  0  0  0  0
   -0.0981   -0.0499    0.4483 C   0  0  0  0  0  0  0  0  0  0  0  0
    0.2968   -1.4230    0.0551 C   0  0  0  0  0  0  0  0  0  0  0  0
    1.0076   -2.0466    0.8071 O   0  0  0  0  0  0  0  0  0  0  0  0
    0.6703    0.5558    1.5371 O   0  0  0  0  0  0  0  0  0  0  0  0
    0.7288    1.0155    0.0843 C   0  0  0  0  0  0  0  0  0  0  0  0
    2.1578    0.8156   -0.3346 C   0  0  0  0  0  0  0  0  0  0  0  0
    2.6339   -0.4682   -0.2165 O   0  0  0  0  0  0  0  0  0  0  0  0
   -2.8892    0.7560   -0.8936 H   0  0  0  0  0  0  0  0  0  0  0  0
   -1.9860   -0.8563   -1.1655 H   0  0  0  0  0  0  0  0  0  0  0  0
   -3.3555   -0.7725   -0.0365 H   0  0  0  0  0  0  0  0  0  0  0  0
   -1.8043   -0.6375    1.5145 H   0  0  0  0  0  0  0  0  0  0  0  0
   -1.8168    1.0897    1.2023 H   0  0  0  0  0  0  0  0  0  0  0  0
   -0.0618   -1.7833   -0.8767 H   0  0  0  0  0  0  0  0  0  0  0  0
    0.3889    2.0606    0.0201 H   0  0  0  0  0  0  0  0  0  0  0  0
    2.3543    1.1990   -1.3706 H   0  0  0  0  0  0  0  0  0  0  0  0
    2.7902    1.4536    0.3175 H   0  0  0  0  0  0  0  0  0  0  0  0
    3.0221   -0.8505   -1.0200 H   0  0  0  0  0  0  0  0  0  0  0  0
  1  2  1  0
  2  3  1  0
  3  4  1  0
  4  5  2  0
  3  6  1  0
  6  7  1  0
  7  8  1  0
  8  9  1  0
  7  3  1  0
  1 10  1  0
  1 11  1  0
  1 12  1  0
  2 13  1  0
  2 14  1  0
  4 15  1  0
  7 16  1  0
  8 17  1  0
  8 18  1  0
  9 19  1  0
M  END
