
     RDKit          3D

 23 23  0  0  0  0  0  0  0  0999 V2000
    2.3405    0.2791   -0.1154 C   0  0  0  0  0  0  0  0  0  0  0  0
    1.3141   -0.2240    0.8452 C   0  0  0  0  0  0  0  0  0  0  0  0
   -0.0303   -0.4925    0.2426 C   0  0  0  0  0  0  0  0  0  0  0  0
   -0.9135   -0.9408    1.1420 O   0  0  0  0  0  0  0  0  0  0  0  0
   -2.1736   -1.2350    0.7785 C   0  0  0  0  0  0  0  0  0  0  0  0
    0.0408   -1.0625   -1.1298 C   0  0  0  0  0  0  0  0  0  0  0  0
    0.3408    0.2554   -1.5648 O   0  0  0  0  0  0  0  0  0  0  0  0
   -0.6044    0.6398   -0.5832 C   0  0  0  0  0  0  0  0  0  0  0  0
   -0.4408    2.0100   -0.0428 C   0  0  0  0  0  0  0  0  0  0  0  0
    2.5150   -0.3766   -0.9845 H   0  0  0  0  0  0  0  0  0  0  0  0
    2.1373    1.3067   -0.4847 H   0  0  0  0  0  0  0  0  0  0  0  0
    3.3064    0.3390    0.4298 H   0  0  0  0  0  0  0  0  0  0  0  0
    1.2630    0.4971    1.6876 H   0  0  0  0  0  0  0  0  0  0  0  0
    1.6896   -1.1771    1.2734 H   0  0  0  0  0  0  0  0  0  0  0  0
   -2.2386   -2.0408   -0.0100 H   0  0  0  0  0  0  0  0  0  0  0  0
   -2.8350   -0.4270    0.4826 H   0  0  0  0  0  0  0  0  0  0  0  0
   -2.6778   -1.7222    1.6688 H   0  0  0  0  0  0  0  0  0  0  0  0
    0.8300   -1.7934   -1.3419 H   0  0  0  0  0  0  0  0  0  0  0  0
   -0.8843   -1.3649   -1.6118 H   0  0  0  0  0  0  0  0  0  0  0  0
   -1.6212    0.3757   -0.9367 H   0  0  0  0  0  0  0  0  0  0  0  0
    0.1460    2.6211   -0.7531 H   0  0  0  0  0  0  0  0  0  0  0  0
   -1.4689    2.4738    0.0237 H   0  0  0  0  0  0  0  0  0  0  0  0
   -0.0351    2.0590    0.9846 H   0  0  0  0  0  0  0  0  0  0  0  0
  1  2  1  0
  2  3  1  0
  3  4  1  0
  4  5  1  0
  3  6  1  0
  6  7  1  0
  7  8  1  0
  8  9  1  0
  8  3  1  0
  1 10  1  0
  1 11  1  0
  1 12  1  0
  2 13  1  0
  2 14  1  0
  5 15  1  0
  5 16  1  0
  5 17  1  0
  6 18  1  0
  6 19  1  0
  8 20  1  0
  9 21  1  0
  9 22  1  0
  9 23  1  0
M  END
