
     RDKit          3D

 23 25  0  0  0  0  0  0  0  0999 V2000
    2.6458   -0.1159    0.8836 C   0  0  0  0  0  0  0  0  0  0  0  0
    1.6178   -0.1925   -0.2552 C   0  0  0  0  0  0  0  0  0  0  0  0
    0.3210   -0.6887    0.3107 C   0  0  0  0  0  0  0  0  0  0  0  0
   -0.7471   -0.8050   -0.7216 C   0  0  0  0  0  0  0  0  0  0  0  0
   -0.8661    0.6187   -1.2089 C   0  0  0  0  0  0  0  0  0  0  0  0
   -0.9499    1.3139    0.1473 C   0  0  0  0  0  0  0  0  0  0  0  0
   -1.7092    0.3637    1.0187 C   0  0  0  0  0  0  0  0  0  0  0  0
   -1.9859   -0.8709    0.1531 C   0  0  0  0  0  0  0  0  0  0  0  0
   -0.2583    0.4714    1.1404 C   0  0  0  0  0  0  0  0  0  0  0  0
    3.5721    0.2671    0.4131 H   0  0  0  0  0  0  0  0  0  0  0  0
    2.7582   -1.1098    1.3370 H   0  0  0  0  0  0  0  0  0  0  0  0
    2.2782    0.6302    1.5863 H   0  0  0  0  0  0  0  0  0  0  0  0
    1.5469    0.8814   -0.5840 H   0  0  0  0  0  0  0  0  0  0  0  0
    1.9938   -0.7639   -1.1119 H   0  0  0  0  0  0  0  0  0  0  0  0
    0.4372   -1.5907    0.9399 H   0  0  0  0  0  0  0  0  0  0  0  0
   -0.6557   -1.5579   -1.4598 H   0  0  0  0  0  0  0  0  0  0  0  0
   -0.0400    0.9805   -1.8126 H   0  0  0  0  0  0  0  0  0  0  0  0
   -1.8541    0.7267   -1.7069 H   0  0  0  0  0  0  0  0  0  0  0  0
   -1.0513    2.3864    0.2106 H   0  0  0  0  0  0  0  0  0  0  0  0
   -2.4361    0.6848    1.7501 H   0  0  0  0  0  0  0  0  0  0  0  0
   -2.0508   -1.7843    0.7474 H   0  0  0  0  0  0  0  0  0  0  0  0
   -2.8563   -0.6853   -0.4993 H   0  0  0  0  0  0  0  0  0  0  0  0
    0.2898    0.8403    1.9954 H   0  0  0  0  0  0  0  0  0  0  0  0
  1  2  1  0
  2  3  1  0
  3  4  1  0
  4  5  1  0
  5  6  1  0
  6  7  1  0
  7  8  1  0
  7  9  1  0
  9  3  1  0
  8  4  1  0
  9  6  1  0
  1 10  1  0
  1 11  1  0
  1 12  1  0
  2 13  1  0
  2 14  1  0
  3 15  1  0
  4 16  1  0
  5 17  1  0
  5 18  1  0
  6 19  1  0
  7 20  1  0
  8 21  1  0
  8 22  1  0
  9 23  1  0
M  END
