
     RDKit          3D

 23 23  0  0  0  0  0  0  0  0999 V2000
    2.4697   -0.7037   -0.8551 C   0  0  0  0  0  0  0  0  0  0  0  0
    1.8367   -0.5740    0.5053 C   0  0  0  0  0  0  0  0  0  0  0  0
    0.3559   -0.4097    0.3980 C   0  0  0  0  0  0  0  0  0  0  0  0
   -0.4913   -1.2707    0.9482 C   0  0  0  0  0  0  0  0  0  0  0  0
   -1.8841   -0.8332    0.6663 C   0  0  0  0  0  0  0  0  0  0  0  0
   -1.7126   -0.0544   -0.5915 C   0  0  0  0  0  0  0  0  0  0  0  0
   -0.3927    0.6757   -0.3000 C   0  0  0  0  0  0  0  0  0  0  0  0
   -0.7071    1.8371    0.5805 C   0  0  0  0  0  0  0  0  0  0  0  0
    0.1611    1.0251   -1.5092 O   0  0  0  0  0  0  0  0  0  0  0  0
    2.0132   -1.4999   -1.4648 H   0  0  0  0  0  0  0  0  0  0  0  0
    2.5014    0.2541   -1.3902 H   0  0  0  0  0  0  0  0  0  0  0  0
    3.5365   -1.0213   -0.6748 H   0  0  0  0  0  0  0  0  0  0  0  0
    2.3046    0.3055    0.9985 H   0  0  0  0  0  0  0  0  0  0  0  0
    2.1186   -1.4528    1.1037 H   0  0  0  0  0  0  0  0  0  0  0  0
   -0.2283   -2.1679    1.5230 H   0  0  0  0  0  0  0  0  0  0  0  0
   -2.5855   -1.6831    0.5935 H   0  0  0  0  0  0  0  0  0  0  0  0
   -2.1608   -0.1219    1.4809 H   0  0  0  0  0  0  0  0  0  0  0  0
   -2.4809    0.7213   -0.7639 H   0  0  0  0  0  0  0  0  0  0  0  0
   -1.6355   -0.6690   -1.4994 H   0  0  0  0  0  0  0  0  0  0  0  0
   -0.6586    1.5387    1.6545 H   0  0  0  0  0  0  0  0  0  0  0  0
   -0.0360    2.7058    0.3924 H   0  0  0  0  0  0  0  0  0  0  0  0
   -1.7431    2.1855    0.3495 H   0  0  0  0  0  0  0  0  0  0  0  0
   -0.5812    1.2129   -2.1452 H   0  0  0  0  0  0  0  0  0  0  0  0
  1  2  1  0
  2  3  1  0
  3  4  2  0
  4  5  1  0
  5  6  1  0
  6  7  1  0
  7  8  1  0
  7  9  1  0
  7  3  1  0
  1 10  1  0
  1 11  1  0
  1 12  1  0
  2 13  1  0
  2 14  1  0
  4 15  1  0
  5 16  1  0
  5 17  1  0
  6 18  1  0
  6 19  1  0
  8 20  1  0
  8 21  1  0
  8 22  1  0
  9 23  1  0
M  END
