
     RDKit          3D

 23 24  0  0  0  0  0  0  0  0999 V2000
   -2.7909    0.6882    0.5143 C   0  0  0  0  0  0  0  0  0  0  0  0
   -1.3356    1.0371    0.4301 C   0  0  0  0  0  0  0  0  0  0  0  0
   -0.4804   -0.0566   -0.1361 C   0  0  0  0  0  0  0  0  0  0  0  0
    0.9817    0.3319   -0.2055 C   0  0  0  0  0  0  0  0  0  0  0  0
    1.4199    0.6294    1.1870 O   0  0  0  0  0  0  0  0  0  0  0  0
    2.0505   -0.3238    0.4057 C   0  0  0  0  0  0  0  0  0  0  0  0
    3.4611    0.0635    0.0128 C   0  0  0  0  0  0  0  0  0  0  0  0
   -0.8655   -1.4814    0.0003 C   0  0  0  0  0  0  0  0  0  0  0  0
   -0.9867   -0.7989   -1.3536 C   0  0  0  0  0  0  0  0  0  0  0  0
   -3.0147   -0.0385    1.3262 H   0  0  0  0  0  0  0  0  0  0  0  0
   -3.3352    1.6315    0.7761 H   0  0  0  0  0  0  0  0  0  0  0  0
   -3.2326    0.3159   -0.4064 H   0  0  0  0  0  0  0  0  0  0  0  0
   -0.9791    1.3450    1.4153 H   0  0  0  0  0  0  0  0  0  0  0  0
   -1.2437    1.9158   -0.2432 H   0  0  0  0  0  0  0  0  0  0  0  0
    1.1405    1.2757   -0.7927 H   0  0  0  0  0  0  0  0  0  0  0  0
    1.9790   -1.3935    0.7267 H   0  0  0  0  0  0  0  0  0  0  0  0
    4.2160   -0.3838    0.6824 H   0  0  0  0  0  0  0  0  0  0  0  0
    3.6335   -0.2516   -1.0421 H   0  0  0  0  0  0  0  0  0  0  0  0
    3.5753    1.1859    0.0000 H   0  0  0  0  0  0  0  0  0  0  0  0
   -1.8248   -1.6976    0.5352 H   0  0  0  0  0  0  0  0  0  0  0  0
   -0.1107   -2.2709    0.0342 H   0  0  0  0  0  0  0  0  0  0  0  0
   -1.9995   -0.6399   -1.7206 H   0  0  0  0  0  0  0  0  0  0  0  0
   -0.2580   -1.0835   -2.1462 H   0  0  0  0  0  0  0  0  0  0  0  0
  1  2  1  0
  2  3  1  0
  3  4  1  0
  4  5  1  0
  5  6  1  0
  6  7  1  0
  3  8  1  0
  8  9  1  0
  9  3  1  0
  6  4  1  0
  1 10  1  0
  1 11  1  0
  1 12  1  0
  2 13  1  0
  2 14  1  0
  4 15  1  0
  6 16  1  0
  7 17  1  0
  7 18  1  0
  7 19  1  0
  8 20  1  0
  8 21  1  0
  9 22  1  0
  9 23  1  0
M  END
