
     RDKit          3D

 17 17  0  0  0  0  0  0  0  0999 V2000
    2.5589   -0.0095    0.5533 C   0  0  0  0  0  0  0  0  0  0  0  0
    1.4351   -0.3109   -0.3768 C   0  0  0  0  0  0  0  0  0  0  0  0
    0.1705    0.4397   -0.0588 C   0  0  0  0  0  0  0  0  0  0  0  0
   -0.8344    0.0239   -1.0735 O   0  0  0  0  0  0  0  0  0  0  0  0
   -1.0152   -0.3050    0.2848 C   0  0  0  0  0  0  0  0  0  0  0  0
   -2.2481    0.3176    0.8628 C   0  0  0  0  0  0  0  0  0  0  0  0
   -3.4157   -0.1021    0.1825 O   0  0  0  0  0  0  0  0  0  0  0  0
    3.3637   -0.7674    0.3605 H   0  0  0  0  0  0  0  0  0  0  0  0
    2.2955   -0.1330    1.6251 H   0  0  0  0  0  0  0  0  0  0  0  0
    3.0392    0.9745    0.3600 H   0  0  0  0  0  0  0  0  0  0  0  0
    1.2483   -1.3991   -0.4277 H   0  0  0  0  0  0  0  0  0  0  0  0
    1.7486   -0.0038   -1.3990 H   0  0  0  0  0  0  0  0  0  0  0  0
    0.2893    1.5342    0.0030 H   0  0  0  0  0  0  0  0  0  0  0  0
   -0.8776   -1.3775    0.5801 H   0  0  0  0  0  0  0  0  0  0  0  0
   -2.4191    0.0151    1.9265 H   0  0  0  0  0  0  0  0  0  0  0  0
   -2.2304    1.4251    0.8492 H   0  0  0  0  0  0  0  0  0  0  0  0
   -3.1086   -0.3218   -0.7472 H   0  0  0  0  0  0  0  0  0  0  0  0
  1  2  1  0
  2  3  1  0
  3  4  1  0
  4  5  1  0
  5  6  1  0
  6  7  1  0
  5  3  1  0
  1  8  1  0
  1  9  1  0
  1 10  1  0
  2 11  1  0
  2 12  1  0
  3 13  1  0
  5 14  1  0
  6 15  1  0
  6 16  1  0
  7 17  1  0
M  END
