
     RDKit          3D

 23 24  0  0  0  0  0  0  0  0999 V2000
    2.8143    0.1629   -0.6645 C   0  0  0  0  0  0  0  0  0  0  0  0
    1.5033   -0.5141   -0.2975 C   0  0  0  0  0  0  0  0  0  0  0  0
    0.5902    0.3304    0.4884 C   0  0  0  0  0  0  0  0  0  0  0  0
   -0.7036   -0.2209    0.8978 C   0  0  0  0  0  0  0  0  0  0  0  0
   -1.3199   -1.4623    0.3740 C   0  0  0  0  0  0  0  0  0  0  0  0
   -1.5329    0.6167    1.8166 C   0  0  0  0  0  0  0  0  0  0  0  0
   -1.4659    1.6219    0.8365 O   0  0  0  0  0  0  0  0  0  0  0  0
   -0.6542    0.9252   -0.0415 C   0  0  0  0  0  0  0  0  0  0  0  0
   -1.0656    0.8211   -1.4650 C   0  0  0  0  0  0  0  0  0  0  0  0
    3.4511    0.3201    0.2388 H   0  0  0  0  0  0  0  0  0  0  0  0
    2.6845    1.0545   -1.2710 H   0  0  0  0  0  0  0  0  0  0  0  0
    3.3889   -0.5781   -1.2896 H   0  0  0  0  0  0  0  0  0  0  0  0
    1.8018   -1.3902    0.3537 H   0  0  0  0  0  0  0  0  0  0  0  0
    1.1007   -0.9465   -1.2162 H   0  0  0  0  0  0  0  0  0  0  0  0
    1.1019    0.9756    1.2566 H   0  0  0  0  0  0  0  0  0  0  0  0
   -0.6555   -2.1186   -0.1913 H   0  0  0  0  0  0  0  0  0  0  0  0
   -1.7433   -2.0621    1.2068 H   0  0  0  0  0  0  0  0  0  0  0  0
   -2.1643   -1.1879   -0.2891 H   0  0  0  0  0  0  0  0  0  0  0  0
   -0.9513    0.9336    2.7230 H   0  0  0  0  0  0  0  0  0  0  0  0
   -2.5373    0.2247    2.0181 H   0  0  0  0  0  0  0  0  0  0  0  0
   -0.5377    1.5791   -2.1050 H   0  0  0  0  0  0  0  0  0  0  0  0
   -0.9572   -0.1959   -1.8523 H   0  0  0  0  0  0  0  0  0  0  0  0
   -2.1482    1.1106   -1.5272 H   0  0  0  0  0  0  0  0  0  0  0  0
  1  2  1  0
  2  3  1  0
  3  4  1  0
  4  5  1  0
  4  6  1  0
  6  7  1  0
  7  8  1  0
  8  9  1  0
  8  3  1  0
  8  4  1  0
  1 10  1  0
  1 11  1  0
  1 12  1  0
  2 13  1  0
  2 14  1  0
  3 15  1  0
  5 16  1  0
  5 17  1  0
  5 18  1  0
  6 19  1  0
  6 20  1  0
  9 21  1  0
  9 22  1  0
  9 23  1  0
M  END
