
     RDKit          3D

 21 22  0  0  0  0  0  0  0  0999 V2000
    2.6617   -0.4481    0.3638 C   0  0  0  0  0  0  0  0  0  0  0  0
    1.4647    0.3538    0.8122 C   0  0  0  0  0  0  0  0  0  0  0  0
    0.3903    0.3192   -0.2868 C   0  0  0  0  0  0  0  0  0  0  0  0
    0.9389    0.8822   -1.4696 O   0  0  0  0  0  0  0  0  0  0  0  0
   -0.9080    0.7567    0.0244 C   0  0  0  0  0  0  0  0  0  0  0  0
   -2.2397    0.6356   -0.6213 C   0  0  0  0  0  0  0  0  0  0  0  0
   -2.7378   -0.5536   -0.0620 O   0  0  0  0  0  0  0  0  0  0  0  0
   -1.6354   -1.2474    0.4965 C   0  0  0  0  0  0  0  0  0  0  0  0
   -0.5250   -0.7379   -0.3424 C   0  0  0  0  0  0  0  0  0  0  0  0
    3.3511    0.2407   -0.1880 H   0  0  0  0  0  0  0  0  0  0  0  0
    3.1781   -0.9627    1.1933 H   0  0  0  0  0  0  0  0  0  0  0  0
    2.2956   -1.1681   -0.4104 H   0  0  0  0  0  0  0  0  0  0  0  0
    1.0633    0.0155    1.7795 H   0  0  0  0  0  0  0  0  0  0  0  0
    1.7537    1.4287    0.8777 H   0  0  0  0  0  0  0  0  0  0  0  0
    1.2001    1.8128   -1.1856 H   0  0  0  0  0  0  0  0  0  0  0  0
   -1.0871    0.9498    1.1282 H   0  0  0  0  0  0  0  0  0  0  0  0
   -2.0963    0.5531   -1.7154 H   0  0  0  0  0  0  0  0  0  0  0  0
   -2.9114    1.4890   -0.4026 H   0  0  0  0  0  0  0  0  0  0  0  0
   -1.5961   -0.9337    1.5606 H   0  0  0  0  0  0  0  0  0  0  0  0
   -1.7844   -2.3376    0.3843 H   0  0  0  0  0  0  0  0  0  0  0  0
   -0.7763   -1.0481   -1.4095 H   0  0  0  0  0  0  0  0  0  0  0  0
  1  2  1  0
  2  3  1  0
  3  4  1  0
  3  5  1  0
  5  6  1  0
  6  7  1  0
  7  8  1  0
  8  9  1  0
  9  3  1  0
  9  5  1  0
  1 10  1  0
  1 11  1  0
  1 12  1  0
  2 13  1  0
  2 14  1  0
  4 15  1  0
  5 16  1  0
  6 17  1  0
  6 18  1  0
  8 19  1  0
  8 20  1  0
  9 21  1  0
M  END
