
     RDKit          3D

 25 25  0  0  0  0  0  0  0  0999 V2000
   -2.4929    0.9834    0.2714 C   0  0  0  0  0  0  0  0  0  0  0  0
   -2.2172   -0.4433    0.6023 C   0  0  0  0  0  0  0  0  0  0  0  0
   -0.7696   -0.8284    0.5299 C   0  0  0  0  0  0  0  0  0  0  0  0
    0.1619   -0.0962    1.4294 C   0  0  0  0  0  0  0  0  0  0  0  0
    1.1701   -0.0120    0.2901 C   0  0  0  0  0  0  0  0  0  0  0  0
    1.6524    1.2474    0.0520 O   0  0  0  0  0  0  0  0  0  0  0  0
    3.0247    1.2871   -0.1730 C   0  0  0  0  0  0  0  0  0  0  0  0
   -0.0027   -0.2994   -0.6549 C   0  0  0  0  0  0  0  0  0  0  0  0
    0.2656   -1.3649   -1.6725 C   0  0  0  0  0  0  0  0  0  0  0  0
   -3.3437    1.3231    0.9047 H   0  0  0  0  0  0  0  0  0  0  0  0
   -1.6608    1.6717    0.4736 H   0  0  0  0  0  0  0  0  0  0  0  0
   -2.7844    1.1052   -0.8047 H   0  0  0  0  0  0  0  0  0  0  0  0
   -2.7936   -1.0776   -0.1023 H   0  0  0  0  0  0  0  0  0  0  0  0
   -2.5754   -0.6668    1.6361 H   0  0  0  0  0  0  0  0  0  0  0  0
   -0.6653   -1.9262    0.6400 H   0  0  0  0  0  0  0  0  0  0  0  0
    0.5258   -0.7023    2.3065 H   0  0  0  0  0  0  0  0  0  0  0  0
   -0.1698    0.9046    1.7764 H   0  0  0  0  0  0  0  0  0  0  0  0
    1.9137   -0.8331    0.2758 H   0  0  0  0  0  0  0  0  0  0  0  0
    3.2739    2.3707   -0.3512 H   0  0  0  0  0  0  0  0  0  0  0  0
    3.3224    0.7687   -1.1114 H   0  0  0  0  0  0  0  0  0  0  0  0
    3.6230    0.9002    0.6533 H   0  0  0  0  0  0  0  0  0  0  0  0
   -0.4312    0.5985   -1.1100 H   0  0  0  0  0  0  0  0  0  0  0  0
    0.0681   -0.9833   -2.7119 H   0  0  0  0  0  0  0  0  0  0  0  0
    1.3060   -1.6806   -1.5930 H   0  0  0  0  0  0  0  0  0  0  0  0
   -0.4011   -2.2465   -1.5565 H   0  0  0  0  0  0  0  0  0  0  0  0
  1  2  1  0
  2  3  1  0
  3  4  1  0
  4  5  1  0
  5  6  1  0
  6  7  1  0
  5  8  1  0
  8  9  1  0
  8  3  1  0
  1 10  1  0
  1 11  1  0
  1 12  1  0
  2 13  1  0
  2 14  1  0
  3 15  1  0
  4 16  1  0
  4 17  1  0
  5 18  1  0
  7 19  1  0
  7 20  1  0
  7 21  1  0
  8 22  1  0
  9 23  1  0
  9 24  1  0
  9 25  1  0
M  END
