
     RDKit          3D

 19 20  0  0  0  0  0  0  0  0999 V2000
    2.5059   -0.1290   -0.4497 C   0  0  0  0  0  0  0  0  0  0  0  0
    1.4442    0.5937    0.2860 C   0  0  0  0  0  0  0  0  0  0  0  0
    0.0471    0.2648   -0.0920 C   0  0  0  0  0  0  0  0  0  0  0  0
   -1.0276    0.9972    0.6535 C   0  0  0  0  0  0  0  0  0  0  0  0
   -2.1371    0.0202    0.7927 C   0  0  0  0  0  0  0  0  0  0  0  0
   -3.0054   -0.0181    1.6427 O   0  0  0  0  0  0  0  0  0  0  0  0
   -1.9890   -0.9272   -0.3255 C   0  0  0  0  0  0  0  0  0  0  0  0
   -0.4904   -0.9110   -0.5913 C   0  0  0  0  0  0  0  0  0  0  0  0
   -0.1309    0.0913   -1.4971 O   0  0  0  0  0  0  0  0  0  0  0  0
    2.1948   -0.5694   -1.4174 H   0  0  0  0  0  0  0  0  0  0  0  0
    2.9925   -0.9209    0.1938 H   0  0  0  0  0  0  0  0  0  0  0  0
    3.3226    0.5890   -0.6761 H   0  0  0  0  0  0  0  0  0  0  0  0
    1.5744    0.3669    1.3849 H   0  0  0  0  0  0  0  0  0  0  0  0
    1.5725    1.6987    0.2161 H   0  0  0  0  0  0  0  0  0  0  0  0
   -0.6298    1.2807    1.6409 H   0  0  0  0  0  0  0  0  0  0  0  0
   -1.3643    1.9189    0.1470 H   0  0  0  0  0  0  0  0  0  0  0  0
   -2.5618   -0.5433   -1.1980 H   0  0  0  0  0  0  0  0  0  0  0  0
   -2.3721   -1.9347   -0.1139 H   0  0  0  0  0  0  0  0  0  0  0  0
    0.0545   -1.8677   -0.5965 H   0  0  0  0  0  0  0  0  0  0  0  0
  1  2  1  0
  2  3  1  0
  3  4  1  0
  4  5  1  0
  5  6  2  0
  5  7  1  0
  7  8  1  0
  8  9  1  0
  8  3  1  0
  9  3  1  0
  1 10  1  0
  1 11  1  0
  1 12  1  0
  2 13  1  0
  2 14  1  0
  4 15  1  0
  4 16  1  0
  7 17  1  0
  7 18  1  0
  8 19  1  0
M  END
