
     RDKit          3D

 17 17  0  0  0  0  0  0  0  0999 V2000
    1.9080   -0.6613    0.4369 C   0  0  0  0  0  0  0  0  0  0  0  0
    1.0242   -0.2687   -0.7345 C   0  0  0  0  0  0  0  0  0  0  0  0
    0.1178    0.8411   -0.2623 C   0  0  0  0  0  0  0  0  0  0  0  0
   -0.7246    1.2242   -1.3580 O   0  0  0  0  0  0  0  0  0  0  0  0
   -1.8032    1.3047   -0.4950 C   0  0  0  0  0  0  0  0  0  0  0  0
   -2.9048    1.8952   -0.5996 O   0  0  0  0  0  0  0  0  0  0  0  0
   -1.0937    0.4510    0.4907 C   0  0  0  0  0  0  0  0  0  0  0  0
   -1.4741   -0.9763    0.4796 C   0  0  0  0  0  0  0  0  0  0  0  0
   -1.8483   -1.5509   -0.5288 O   0  0  0  0  0  0  0  0  0  0  0  0
    2.5404    0.2140    0.7098 H   0  0  0  0  0  0  0  0  0  0  0  0
    1.3205   -0.9444    1.3262 H   0  0  0  0  0  0  0  0  0  0  0  0
    2.6021   -1.4732    0.1194 H   0  0  0  0  0  0  0  0  0  0  0  0
    1.7048    0.1053   -1.5270 H   0  0  0  0  0  0  0  0  0  0  0  0
    0.4990   -1.1310   -1.1312 H   0  0  0  0  0  0  0  0  0  0  0  0
    0.6647    1.6894    0.1470 H   0  0  0  0  0  0  0  0  0  0  0  0
   -1.1010    0.8519    1.5406 H   0  0  0  0  0  0  0  0  0  0  0  0
   -1.4319   -1.5709    1.3862 H   0  0  0  0  0  0  0  0  0  0  0  0
  1  2  1  0
  2  3  1  0
  3  4  1  0
  4  5  1  0
  5  6  2  0
  5  7  1  0
  7  8  1  0
  8  9  2  0
  7  3  1  0
  1 10  1  0
  1 11  1  0
  1 12  1  0
  2 13  1  0
  2 14  1  0
  3 15  1  0
  7 16  1  0
  8 17  1  0
M  END
