
     RDKit          3D

 19 20  0  0  0  0  0  0  0  0999 V2000
    2.5802    0.8219    0.5175 C   0  0  0  0  0  0  0  0  0  0  0  0
    1.6893    0.1440   -0.5290 C   0  0  0  0  0  0  0  0  0  0  0  0
    0.3334    0.0151    0.0501 C   0  0  0  0  0  0  0  0  0  0  0  0
    0.1795   -0.7190    1.2107 O   0  0  0  0  0  0  0  0  0  0  0  0
   -0.3936   -1.2926    0.1045 C   0  0  0  0  0  0  0  0  0  0  0  0
   -1.6550   -0.6165   -0.3737 C   0  0  0  0  0  0  0  0  0  0  0  0
   -2.6049   -0.2013    0.7437 C   0  0  0  0  0  0  0  0  0  0  0  0
   -0.7976    0.5924   -0.6611 C   0  0  0  0  0  0  0  0  0  0  0  0
   -1.0399    1.6004   -1.2575 O   0  0  0  0  0  0  0  0  0  0  0  0
    2.0659    1.7087    0.9540 H   0  0  0  0  0  0  0  0  0  0  0  0
    3.5283    1.1454    0.0417 H   0  0  0  0  0  0  0  0  0  0  0  0
    2.8245    0.1233    1.3477 H   0  0  0  0  0  0  0  0  0  0  0  0
    1.6872    0.7745   -1.4244 H   0  0  0  0  0  0  0  0  0  0  0  0
    2.1750   -0.8104   -0.7935 H   0  0  0  0  0  0  0  0  0  0  0  0
    0.0478   -2.1241   -0.4346 H   0  0  0  0  0  0  0  0  0  0  0  0
   -2.1517   -1.0481   -1.2398 H   0  0  0  0  0  0  0  0  0  0  0  0
   -3.4529   -0.8701    0.8586 H   0  0  0  0  0  0  0  0  0  0  0  0
   -3.0000    0.8075    0.4741 H   0  0  0  0  0  0  0  0  0  0  0  0
   -2.0154   -0.0511    1.6718 H   0  0  0  0  0  0  0  0  0  0  0  0
  1  2  1  0
  2  3  1  0
  3  4  1  0
  4  5  1  0
  5  6  1  0
  6  7  1  0
  6  8  1  0
  8  9  2  0
  5  3  1  0
  8  3  1  0
  1 10  1  0
  1 11  1  0
  1 12  1  0
  2 13  1  0
  2 14  1  0
  5 15  1  0
  6 16  1  0
  7 17  1  0
  7 18  1  0
  7 19  1  0
M  END
