
     RDKit          3D

 23 24  0  0  0  0  0  0  0  0999 V2000
    2.0634    1.3496    0.4091 C   0  0  0  0  0  0  0  0  0  0  0  0
    1.2202    0.6649   -0.6503 C   0  0  0  0  0  0  0  0  0  0  0  0
    0.6939   -0.6214   -0.1452 C   0  0  0  0  0  0  0  0  0  0  0  0
   -0.1698   -1.4298   -1.0839 C   0  0  0  0  0  0  0  0  0  0  0  0
   -0.7717   -2.0070    0.1832 C   0  0  0  0  0  0  0  0  0  0  0  0
   -0.3502   -0.6975    0.8626 C   0  0  0  0  0  0  0  0  0  0  0  0
   -1.5258    0.1864    0.9296 C   0  0  0  0  0  0  0  0  0  0  0  0
   -1.6086    1.5880    1.0647 C   0  0  0  0  0  0  0  0  0  0  0  0
   -1.9735    0.8851   -0.2198 O   0  0  0  0  0  0  0  0  0  0  0  0
    3.1537    1.1312    0.2592 H   0  0  0  0  0  0  0  0  0  0  0  0
    1.8620    2.4320    0.4840 H   0  0  0  0  0  0  0  0  0  0  0  0
    1.7979    0.8924    1.3860 H   0  0  0  0  0  0  0  0  0  0  0  0
    0.4732    1.4027   -0.9627 H   0  0  0  0  0  0  0  0  0  0  0  0
    1.8920    0.5113   -1.5236 H   0  0  0  0  0  0  0  0  0  0  0  0
    1.5510   -1.2820    0.1444 H   0  0  0  0  0  0  0  0  0  0  0  0
    0.3673   -2.1936   -1.6775 H   0  0  0  0  0  0  0  0  0  0  0  0
   -0.8647   -0.8504   -1.7129 H   0  0  0  0  0  0  0  0  0  0  0  0
   -1.8381   -2.2001    0.1672 H   0  0  0  0  0  0  0  0  0  0  0  0
   -0.1746   -2.8806    0.5168 H   0  0  0  0  0  0  0  0  0  0  0  0
    0.0401   -0.9019    1.8899 H   0  0  0  0  0  0  0  0  0  0  0  0
   -2.3957   -0.3995    1.3422 H   0  0  0  0  0  0  0  0  0  0  0  0
   -2.5450    2.0543    1.4429 H   0  0  0  0  0  0  0  0  0  0  0  0
   -0.8971    2.3659    0.7507 H   0  0  0  0  0  0  0  0  0  0  0  0
  1  2  1  0
  2  3  1  0
  3  4  1  0
  4  5  1  0
  5  6  1  0
  6  7  1  0
  7  8  1  0
  8  9  1  0
  6  3  1  0
  9  7  1  0
  1 10  1  0
  1 11  1  0
  1 12  1  0
  2 13  1  0
  2 14  1  0
  3 15  1  0
  4 16  1  0
  4 17  1  0
  5 18  1  0
  5 19  1  0
  6 20  1  0
  7 21  1  0
  8 22  1  0
  8 23  1  0
M  END
