
     RDKit          3D

 19 21  0  0  0  0  0  0  0  0999 V2000
    2.2272   -0.5439   -0.0984 C   0  0  0  0  0  0  0  0  0  0  0  0
    1.3043    0.6131    0.0883 C   0  0  0  0  0  0  0  0  0  0  0  0
   -0.1008    0.2299    0.4201 C   0  0  0  0  0  0  0  0  0  0  0  0
   -1.0768    1.3342    0.6201 C   0  0  0  0  0  0  0  0  0  0  0  0
   -1.2252    0.3737   -0.4957 C   0  0  0  0  0  0  0  0  0  0  0  0
   -1.0910    0.7936   -1.8098 O   0  0  0  0  0  0  0  0  0  0  0  0
   -1.6506   -1.0427   -0.2066 C   0  0  0  0  0  0  0  0  0  0  0  0
   -0.7111   -2.0728   -0.3547 O   0  0  0  0  0  0  0  0  0  0  0  0
   -0.4791   -1.1904    0.6910 C   0  0  0  0  0  0  0  0  0  0  0  0
    2.4344   -0.7001   -1.1760 H   0  0  0  0  0  0  0  0  0  0  0  0
    3.2035   -0.3205    0.3745 H   0  0  0  0  0  0  0  0  0  0  0  0
    1.8564   -1.4770    0.3944 H   0  0  0  0  0  0  0  0  0  0  0  0
    1.6816    1.2451    0.9334 H   0  0  0  0  0  0  0  0  0  0  0  0
    1.3277    1.2640   -0.8050 H   0  0  0  0  0  0  0  0  0  0  0  0
   -0.7404    2.3403    0.3511 H   0  0  0  0  0  0  0  0  0  0  0  0
   -1.7583    1.3241    1.4983 H   0  0  0  0  0  0  0  0  0  0  0  0
   -1.9770    0.6732   -2.2727 H   0  0  0  0  0  0  0  0  0  0  0  0
   -2.6660   -1.2719    0.1306 H   0  0  0  0  0  0  0  0  0  0  0  0
   -0.5588   -1.5720    1.7171 H   0  0  0  0  0  0  0  0  0  0  0  0
  1  2  1  0
  2  3  1  0
  3  4  1  0
  4  5  1  0
  5  6  1  0
  5  7  1  0
  7  8  1  0
  8  9  1  0
  5  3  1  0
  9  7  1  0
  9  3  1  0
  1 10  1  0
  1 11  1  0
  1 12  1  0
  2 13  1  0
  2 14  1  0
  4 15  1  0
  4 16  1  0
  6 17  1  0
  7 18  1  0
  9 19  1  0
M  END
