
     RDKit          3D

 21 22  0  0  0  0  0  0  0  0999 V2000
   -2.4838    0.4293    0.8639 C   0  0  0  0  0  0  0  0  0  0  0  0
   -0.9815    0.2088    0.9480 C   0  0  0  0  0  0  0  0  0  0  0  0
   -0.5115   -0.2168   -0.4209 C   0  0  0  0  0  0  0  0  0  0  0  0
   -1.0982   -1.4683   -0.9870 C   0  0  0  0  0  0  0  0  0  0  0  0
   -0.1522    0.8328   -1.2457 O   0  0  0  0  0  0  0  0  0  0  0  0
    0.9227    0.0652   -0.8113 C   0  0  0  0  0  0  0  0  0  0  0  0
    1.7931    0.5434    0.2977 C   0  0  0  0  0  0  0  0  0  0  0  0
    3.2486    0.5567    0.2317 C   0  0  0  0  0  0  0  0  0  0  0  0
    2.4704    1.7719    0.1111 O   0  0  0  0  0  0  0  0  0  0  0  0
   -2.9989   -0.5263    1.1339 H   0  0  0  0  0  0  0  0  0  0  0  0
   -2.8314    1.1821    1.6073 H   0  0  0  0  0  0  0  0  0  0  0  0
   -2.7953    0.8069   -0.1342 H   0  0  0  0  0  0  0  0  0  0  0  0
   -0.8008   -0.5631    1.7262 H   0  0  0  0  0  0  0  0  0  0  0  0
   -0.5358    1.1460    1.2873 H   0  0  0  0  0  0  0  0  0  0  0  0
   -2.1953   -1.4663   -1.0617 H   0  0  0  0  0  0  0  0  0  0  0  0
   -0.6243   -1.6921   -1.9748 H   0  0  0  0  0  0  0  0  0  0  0  0
   -0.8170   -2.3245   -0.3209 H   0  0  0  0  0  0  0  0  0  0  0  0
    1.3564   -0.5704   -1.6181 H   0  0  0  0  0  0  0  0  0  0  0  0
    1.3674    0.4110    1.3145 H   0  0  0  0  0  0  0  0  0  0  0  0
    3.8391    0.4693    1.1517 H   0  0  0  0  0  0  0  0  0  0  0  0
    3.8284    0.4045   -0.6968 H   0  0  0  0  0  0  0  0  0  0  0  0
  1  2  1  0
  2  3  1  0
  3  4  1  0
  3  5  1  0
  5  6  1  0
  6  7  1  0
  7  8  1  0
  8  9  1  0
  6  3  1  0
  9  7  1  0
  1 10  1  0
  1 11  1  0
  1 12  1  0
  2 13  1  0
  2 14  1  0
  4 15  1  0
  4 16  1  0
  4 17  1  0
  6 18  1  0
  7 19  1  0
  8 20  1  0
  8 21  1  0
M  END
