
     RDKit          3D

 21 23  0  0  0  0  0  0  0  0999 V2000
    2.8345    0.1616    0.1613 C   0  0  0  0  0  0  0  0  0  0  0  0
    1.4855   -0.2239    0.7305 C   0  0  0  0  0  0  0  0  0  0  0  0
    0.3702   -0.0948   -0.2289 C   0  0  0  0  0  0  0  0  0  0  0  0
    0.3658   -0.8205   -1.4150 O   0  0  0  0  0  0  0  0  0  0  0  0
   -0.5478   -1.3024   -0.4980 C   0  0  0  0  0  0  0  0  0  0  0  0
   -1.8768   -0.5942   -0.4560 C   0  0  0  0  0  0  0  0  0  0  0  0
   -1.6167    0.7135   -1.1588 C   0  0  0  0  0  0  0  0  0  0  0  0
   -0.6586    0.9483    0.0185 C   0  0  0  0  0  0  0  0  0  0  0  0
   -1.7233    0.2184    0.8353 C   0  0  0  0  0  0  0  0  0  0  0  0
    2.7840    0.3446   -0.9448 H   0  0  0  0  0  0  0  0  0  0  0  0
    3.2599    1.0648    0.6480 H   0  0  0  0  0  0  0  0  0  0  0  0
    3.5216   -0.6917    0.2993 H   0  0  0  0  0  0  0  0  0  0  0  0
    1.5350   -1.2489    1.2041 H   0  0  0  0  0  0  0  0  0  0  0  0
    1.2966    0.4634    1.5806 H   0  0  0  0  0  0  0  0  0  0  0  0
   -0.3760   -2.2193    0.0651 H   0  0  0  0  0  0  0  0  0  0  0  0
   -2.7758   -1.1195   -0.6130 H   0  0  0  0  0  0  0  0  0  0  0  0
   -2.4717    1.4113   -1.0891 H   0  0  0  0  0  0  0  0  0  0  0  0
   -1.0958    0.6698   -2.1112 H   0  0  0  0  0  0  0  0  0  0  0  0
   -0.4153    1.9413    0.2708 H   0  0  0  0  0  0  0  0  0  0  0  0
   -1.2944   -0.4323    1.6139 H   0  0  0  0  0  0  0  0  0  0  0  0
   -2.6009    0.8106    1.0877 H   0  0  0  0  0  0  0  0  0  0  0  0
  1  2  1  0
  2  3  1  0
  3  4  1  0
  4  5  1  0
  5  6  1  0
  6  7  1  0
  7  8  1  0
  8  9  1  0
  5  3  1  0
  9  6  1  0
  8  3  1  0
  1 10  1  0
  1 11  1  0
  1 12  1  0
  2 13  1  0
  2 14  1  0
  5 15  1  0
  6 16  1  0
  7 17  1  0
  7 18  1  0
  8 19  1  0
  9 20  1  0
  9 21  1  0
M  END
