
     RDKit          3D

 25 25  0  0  0  0  0  0  0  0999 V2000
    2.2399    0.3322   -0.9137 C   0  0  0  0  0  0  0  0  0  0  0  0
    1.7263   -0.0632    0.4255 C   0  0  0  0  0  0  0  0  0  0  0  0
    0.2530    0.0481    0.6030 C   0  0  0  0  0  0  0  0  0  0  0  0
   -0.0580   -0.3571    1.9014 O   0  0  0  0  0  0  0  0  0  0  0  0
   -0.1253    1.5083    0.4688 C   0  0  0  0  0  0  0  0  0  0  0  0
   -1.4911    1.5272   -0.1775 C   0  0  0  0  0  0  0  0  0  0  0  0
   -1.9335    0.1070   -0.3055 C   0  0  0  0  0  0  0  0  0  0  0  0
   -0.5899   -0.6360   -0.3928 C   0  0  0  0  0  0  0  0  0  0  0  0
   -0.8959   -2.0761   -0.0950 C   0  0  0  0  0  0  0  0  0  0  0  0
    3.3106   -0.0278   -0.9700 H   0  0  0  0  0  0  0  0  0  0  0  0
    2.3107    1.4321   -1.0575 H   0  0  0  0  0  0  0  0  0  0  0  0
    1.7356   -0.1829   -1.7570 H   0  0  0  0  0  0  0  0  0  0  0  0
    2.1157   -1.0933    0.6620 H   0  0  0  0  0  0  0  0  0  0  0  0
    2.2107    0.5989    1.1788 H   0  0  0  0  0  0  0  0  0  0  0  0
    0.6282   -1.0256    2.1830 H   0  0  0  0  0  0  0  0  0  0  0  0
    0.5629    2.0543   -0.2099 H   0  0  0  0  0  0  0  0  0  0  0  0
   -0.1252    1.9675    1.4720 H   0  0  0  0  0  0  0  0  0  0  0  0
   -1.4713    2.0000   -1.1866 H   0  0  0  0  0  0  0  0  0  0  0  0
   -2.1651    2.1235    0.4482 H   0  0  0  0  0  0  0  0  0  0  0  0
   -2.5090   -0.2532    0.5696 H   0  0  0  0  0  0  0  0  0  0  0  0
   -2.4971   -0.0495   -1.2490 H   0  0  0  0  0  0  0  0  0  0  0  0
   -0.2502   -0.5057   -1.4211 H   0  0  0  0  0  0  0  0  0  0  0  0
   -0.5328   -2.4141    0.8822 H   0  0  0  0  0  0  0  0  0  0  0  0
   -1.9921   -2.3064   -0.1409 H   0  0  0  0  0  0  0  0  0  0  0  0
   -0.4569   -2.7083   -0.9178 H   0  0  0  0  0  0  0  0  0  0  0  0
  1  2  1  0
  2  3  1  0
  3  4  1  0
  3  5  1  0
  5  6  1  0
  6  7  1  0
  7  8  1  0
  8  9  1  0
  8  3  1  0
  1 10  1  0
  1 11  1  0
  1 12  1  0
  2 13  1  0
  2 14  1  0
  4 15  1  0
  5 16  1  0
  5 17  1  0
  6 18  1  0
  6 19  1  0
  7 20  1  0
  7 21  1  0
  8 22  1  0
  9 23  1  0
  9 24  1  0
  9 25  1  0
M  END
