
     RDKit          3D

 19 20  0  0  0  0  0  0  0  0999 V2000
    2.3412    0.4652    0.1420 C   0  0  0  0  0  0  0  0  0  0  0  0
    1.2261    0.5952   -0.8655 C   0  0  0  0  0  0  0  0  0  0  0  0
   -0.0094   -0.1426   -0.4010 C   0  0  0  0  0  0  0  0  0  0  0  0
    0.3108   -1.5525   -0.2312 O   0  0  0  0  0  0  0  0  0  0  0  0
   -0.7808   -1.0276   -1.1282 C   0  0  0  0  0  0  0  0  0  0  0  0
   -2.0462   -1.2078   -0.3742 C   0  0  0  0  0  0  0  0  0  0  0  0
   -2.1110   -0.3593    0.6302 C   0  0  0  0  0  0  0  0  0  0  0  0
   -0.8904    0.4690    0.6388 C   0  0  0  0  0  0  0  0  0  0  0  0
   -0.2881    0.5197    1.8939 O   0  0  0  0  0  0  0  0  0  0  0  0
    3.0588   -0.3444   -0.1436 H   0  0  0  0  0  0  0  0  0  0  0  0
    2.8927    1.4134    0.2982 H   0  0  0  0  0  0  0  0  0  0  0  0
    1.8837    0.1242    1.1028 H   0  0  0  0  0  0  0  0  0  0  0  0
    0.9979    1.6846   -0.9478 H   0  0  0  0  0  0  0  0  0  0  0  0
    1.5876    0.1982   -1.8347 H   0  0  0  0  0  0  0  0  0  0  0  0
   -0.6584   -1.4725   -2.1173 H   0  0  0  0  0  0  0  0  0  0  0  0
   -2.7999   -1.9424   -0.6315 H   0  0  0  0  0  0  0  0  0  0  0  0
   -2.9549   -0.2773    1.3614 H   0  0  0  0  0  0  0  0  0  0  0  0
   -1.1123    1.5137    0.2643 H   0  0  0  0  0  0  0  0  0  0  0  0
   -0.6472    1.3432    2.3435 H   0  0  0  0  0  0  0  0  0  0  0  0
  1  2  1  0
  2  3  1  0
  3  4  1  0
  4  5  1  0
  5  6  1  0
  6  7  2  0
  7  8  1  0
  8  9  1  0
  5  3  1  0
  8  3  1  0
  1 10  1  0
  1 11  1  0
  1 12  1  0
  2 13  1  0
  2 14  1  0
  5 15  1  0
  6 16  1  0
  7 17  1  0
  8 18  1  0
  9 19  1  0
M  END
