
     RDKit          3D

 20 20  0  0  0  0  0  0  0  0999 V2000
    2.5407    0.9463    0.1576 C   0  0  0  0  0  0  0  0  0  0  0  0
    1.8546   -0.3689   -0.1554 C   0  0  0  0  0  0  0  0  0  0  0  0
    0.3863   -0.2692   -0.0924 C   0  0  0  0  0  0  0  0  0  0  0  0
   -0.3240    0.7976    0.1943 C   0  0  0  0  0  0  0  0  0  0  0  0
   -1.7912    0.5007    0.1576 C   0  0  0  0  0  0  0  0  0  0  0  0
   -2.3872    0.9604   -1.0020 O   0  0  0  0  0  0  0  0  0  0  0  0
   -1.8841   -1.0131    0.1412 C   0  0  0  0  0  0  0  0  0  0  0  0
   -0.5279   -1.3987   -0.3528 C   0  0  0  0  0  0  0  0  0  0  0  0
    2.2442    1.3300    1.1552 H   0  0  0  0  0  0  0  0  0  0  0  0
    2.3324    1.6962   -0.6316 H   0  0  0  0  0  0  0  0  0  0  0  0
    3.6354    0.7677    0.1482 H   0  0  0  0  0  0  0  0  0  0  0  0
    2.1927   -0.7130   -1.1437 H   0  0  0  0  0  0  0  0  0  0  0  0
    2.2595   -1.0979    0.6060 H   0  0  0  0  0  0  0  0  0  0  0  0
    0.0260    1.8133    0.4407 H   0  0  0  0  0  0  0  0  0  0  0  0
   -2.3265    0.8572    1.0365 H   0  0  0  0  0  0  0  0  0  0  0  0
   -2.8179    1.8252   -0.9357 H   0  0  0  0  0  0  0  0  0  0  0  0
   -2.6428   -1.3840   -0.5783 H   0  0  0  0  0  0  0  0  0  0  0  0
   -2.0756   -1.4246    1.1655 H   0  0  0  0  0  0  0  0  0  0  0  0
   -0.5755   -1.5188   -1.4652 H   0  0  0  0  0  0  0  0  0  0  0  0
   -0.1192   -2.3066    0.1394 H   0  0  0  0  0  0  0  0  0  0  0  0
  1  2  1  0
  2  3  1  0
  3  4  2  0
  4  5  1  0
  5  6  1  0
  5  7  1  0
  7  8  1  0
  8  3  1  0
  1  9  1  0
  1 10  1  0
  1 11  1  0
  2 12  1  0
  2 13  1  0
  4 14  1  0
  5 15  1  0
  6 16  1  0
  7 17  1  0
  7 18  1  0
  8 19  1  0
  8 20  1  0
M  END
