
     RDKit          3D

 25 25  0  0  0  0  0  0  0  0999 V2000
   -2.4415    1.6809    0.1665 C   0  0  0  0  0  0  0  0  0  0  0  0
   -2.2699    0.2304   -0.2309 C   0  0  0  0  0  0  0  0  0  0  0  0
   -0.8714   -0.2684    0.0780 C   0  0  0  0  0  0  0  0  0  0  0  0
   -0.6751   -1.7237   -0.3126 C   0  0  0  0  0  0  0  0  0  0  0  0
   -0.4122    0.1755    1.3063 O   0  0  0  0  0  0  0  0  0  0  0  0
    0.2028    0.6832    0.0662 C   0  0  0  0  0  0  0  0  0  0  0  0
    1.6524    0.3818    0.0677 C   0  0  0  0  0  0  0  0  0  0  0  0
    2.1414   -0.4064    1.2618 C   0  0  0  0  0  0  0  0  0  0  0  0
    2.1181   -0.2932   -1.2174 C   0  0  0  0  0  0  0  0  0  0  0  0
   -1.7499    1.9775    0.9771 H   0  0  0  0  0  0  0  0  0  0  0  0
   -3.4691    1.9030    0.5208 H   0  0  0  0  0  0  0  0  0  0  0  0
   -2.2802    2.3407   -0.7189 H   0  0  0  0  0  0  0  0  0  0  0  0
   -2.9576   -0.3701    0.4219 H   0  0  0  0  0  0  0  0  0  0  0  0
   -2.5704    0.0303   -1.2620 H   0  0  0  0  0  0  0  0  0  0  0  0
   -1.6328   -2.3050   -0.1585 H   0  0  0  0  0  0  0  0  0  0  0  0
   -0.4610   -1.8383   -1.4006 H   0  0  0  0  0  0  0  0  0  0  0  0
    0.0673   -2.2385    0.3299 H   0  0  0  0  0  0  0  0  0  0  0  0
   -0.0640    1.7488   -0.1482 H   0  0  0  0  0  0  0  0  0  0  0  0
    2.2240    1.3552    0.0952 H   0  0  0  0  0  0  0  0  0  0  0  0
    2.2303   -1.4884    1.0414 H   0  0  0  0  0  0  0  0  0  0  0  0
    3.0980   -0.0213    1.6329 H   0  0  0  0  0  0  0  0  0  0  0  0
    1.3783   -0.2615    2.0786 H   0  0  0  0  0  0  0  0  0  0  0  0
    1.6461    0.2012   -2.0811 H   0  0  0  0  0  0  0  0  0  0  0  0
    3.2109   -0.1191   -1.2891 H   0  0  0  0  0  0  0  0  0  0  0  0
    1.8858   -1.3748   -1.2250 H   0  0  0  0  0  0  0  0  0  0  0  0
  1  2  1  0
  2  3  1  0
  3  4  1  0
  3  5  1  0
  5  6  1  0
  6  7  1  0
  7  8  1  0
  7  9  1  0
  6  3  1  0
  1 10  1  0
  1 11  1  0
  1 12  1  0
  2 13  1  0
  2 14  1  0
  4 15  1  0
  4 16  1  0
  4 17  1  0
  6 18  1  0
  7 19  1  0
  8 20  1  0
  8 21  1  0
  8 22  1  0
  9 23  1  0
  9 24  1  0
  9 25  1  0
M  END
