
     RDKit          3D

 23 23  0  0  0  0  0  0  0  0999 V2000
    2.6821    0.8897   -0.4680 C   0  0  0  0  0  0  0  0  0  0  0  0
    2.1246   -0.3157    0.2252 C   0  0  0  0  0  0  0  0  0  0  0  0
    0.6546   -0.4948   -0.0421 C   0  0  0  0  0  0  0  0  0  0  0  0
    0.1529   -1.7189    0.6792 C   0  0  0  0  0  0  0  0  0  0  0  0
   -1.2027   -1.8878    0.5464 O   0  0  0  0  0  0  0  0  0  0  0  0
   -1.9412   -0.7424    0.6690 C   0  0  0  0  0  0  0  0  0  0  0  0
   -1.3956    0.3925   -0.1264 C   0  0  0  0  0  0  0  0  0  0  0  0
   -2.2657    1.6011   -0.0598 C   0  0  0  0  0  0  0  0  0  0  0  0
   -0.0805    0.6470    0.3150 O   0  0  0  0  0  0  0  0  0  0  0  0
    1.9202    1.3966   -1.0821 H   0  0  0  0  0  0  0  0  0  0  0  0
    3.5396    0.5444   -1.1082 H   0  0  0  0  0  0  0  0  0  0  0  0
    3.1017    1.6254    0.2309 H   0  0  0  0  0  0  0  0  0  0  0  0
    2.6295   -1.2502   -0.0689 H   0  0  0  0  0  0  0  0  0  0  0  0
    2.3079   -0.1885    1.3128 H   0  0  0  0  0  0  0  0  0  0  0  0
    0.4905   -0.6458   -1.1250 H   0  0  0  0  0  0  0  0  0  0  0  0
    0.4246   -1.6798    1.7485 H   0  0  0  0  0  0  0  0  0  0  0  0
    0.6416   -2.5996    0.1713 H   0  0  0  0  0  0  0  0  0  0  0  0
   -2.0627   -0.3977    1.7218 H   0  0  0  0  0  0  0  0  0  0  0  0
   -2.9726   -0.9675    0.2699 H   0  0  0  0  0  0  0  0  0  0  0  0
   -1.2833    0.0815   -1.1942 H   0  0  0  0  0  0  0  0  0  0  0  0
   -3.1840    1.4051   -0.6252 H   0  0  0  0  0  0  0  0  0  0  0  0
   -2.5411    1.8710    0.9671 H   0  0  0  0  0  0  0  0  0  0  0  0
   -1.7406    2.4342   -0.5624 H   0  0  0  0  0  0  0  0  0  0  0  0
  1  2  1  0
  2  3  1  0
  3  4  1  0
  4  5  1  0
  5  6  1  0
  6  7  1  0
  7  8  1  0
  7  9  1  0
  9  3  1  0
  1 10  1  0
  1 11  1  0
  1 12  1  0
  2 13  1  0
  2 14  1  0
  3 15  1  0
  4 16  1  0
  4 17  1  0
  6 18  1  0
  6 19  1  0
  7 20  1  0
  8 21  1  0
  8 22  1  0
  8 23  1  0
M  END
