
     RDKit          3D

 23 24  0  0  0  0  0  0  0  0999 V2000
    2.4555    0.1596   -0.2994 C   0  0  0  0  0  0  0  0  0  0  0  0
    1.0722    0.7156   -0.5671 C   0  0  0  0  0  0  0  0  0  0  0  0
   -0.0014   -0.2793   -0.3061 C   0  0  0  0  0  0  0  0  0  0  0  0
    0.1735   -1.4995   -1.1919 C   0  0  0  0  0  0  0  0  0  0  0  0
   -0.1189   -0.7481    1.1413 C   0  0  0  0  0  0  0  0  0  0  0  0
   -1.5949   -0.5621    1.0941 C   0  0  0  0  0  0  0  0  0  0  0  0
   -2.3402   -0.8179   -0.0254 O   0  0  0  0  0  0  0  0  0  0  0  0
   -1.4004    0.1575   -0.2366 C   0  0  0  0  0  0  0  0  0  0  0  0
   -1.8378    1.5812   -0.2164 C   0  0  0  0  0  0  0  0  0  0  0  0
    3.1746    0.6881   -0.9857 H   0  0  0  0  0  0  0  0  0  0  0  0
    2.7456    0.2940    0.7478 H   0  0  0  0  0  0  0  0  0  0  0  0
    2.4793   -0.9176   -0.6053 H   0  0  0  0  0  0  0  0  0  0  0  0
    1.0373    0.9759   -1.6451 H   0  0  0  0  0  0  0  0  0  0  0  0
    0.9874    1.6531   -0.0046 H   0  0  0  0  0  0  0  0  0  0  0  0
   -0.8136   -1.9205   -1.5042 H   0  0  0  0  0  0  0  0  0  0  0  0
    0.7584   -1.2888   -2.1004 H   0  0  0  0  0  0  0  0  0  0  0  0
    0.6773   -2.3313   -0.6259 H   0  0  0  0  0  0  0  0  0  0  0  0
    0.2581   -1.7760    1.3217 H   0  0  0  0  0  0  0  0  0  0  0  0
    0.3672    0.0293    1.7915 H   0  0  0  0  0  0  0  0  0  0  0  0
   -2.1359   -0.0475    1.9047 H   0  0  0  0  0  0  0  0  0  0  0  0
   -2.2605    1.8980    0.7782 H   0  0  0  0  0  0  0  0  0  0  0  0
   -2.6456    1.7494   -0.9595 H   0  0  0  0  0  0  0  0  0  0  0  0
   -1.0371    2.2865   -0.4435 H   0  0  0  0  0  0  0  0  0  0  0  0
  1  2  1  0
  2  3  1  0
  3  4  1  0
  3  5  1  0
  5  6  1  0
  6  7  1  0
  7  8  1  0
  8  9  1  0
  8  3  1  0
  8  6  1  0
  1 10  1  0
  1 11  1  0
  1 12  1  0
  2 13  1  0
  2 14  1  0
  4 15  1  0
  4 16  1  0
  4 17  1  0
  5 18  1  0
  5 19  1  0
  6 20  1  0
  9 21  1  0
  9 22  1  0
  9 23  1  0
M  END
