
     RDKit          3D

 23 23  0  0  0  0  0  0  0  0999 V2000
    2.3653    0.8055   -0.1468 C   0  0  0  0  0  0  0  0  0  0  0  0
    1.9317   -0.1318    0.9405 C   0  0  0  0  0  0  0  0  0  0  0  0
    0.8523   -1.0657    0.5062 C   0  0  0  0  0  0  0  0  0  0  0  0
    1.1156   -1.9079   -0.5379 O   0  0  0  0  0  0  0  0  0  0  0  0
   -0.2033   -1.7215   -0.9641 C   0  0  0  0  0  0  0  0  0  0  0  0
   -0.1206   -0.3292   -0.4029 C   0  0  0  0  0  0  0  0  0  0  0  0
   -1.2785    0.1488    0.3954 C   0  0  0  0  0  0  0  0  0  0  0  0
   -2.3021    0.8953   -0.4274 C   0  0  0  0  0  0  0  0  0  0  0  0
   -3.3721    1.3292    0.3468 O   0  0  0  0  0  0  0  0  0  0  0  0
    3.4000    1.1312    0.0871 H   0  0  0  0  0  0  0  0  0  0  0  0
    1.7029    1.6792   -0.2283 H   0  0  0  0  0  0  0  0  0  0  0  0
    2.3832    0.2563   -1.1019 H   0  0  0  0  0  0  0  0  0  0  0  0
    2.7775   -0.7070    1.3863 H   0  0  0  0  0  0  0  0  0  0  0  0
    1.4967    0.5051    1.7627 H   0  0  0  0  0  0  0  0  0  0  0  0
    0.3306   -1.5588    1.3413 H   0  0  0  0  0  0  0  0  0  0  0  0
   -0.9531   -2.3305   -0.4382 H   0  0  0  0  0  0  0  0  0  0  0  0
   -0.2417   -1.7906   -2.0756 H   0  0  0  0  0  0  0  0  0  0  0  0
    0.3451    0.3857   -1.0955 H   0  0  0  0  0  0  0  0  0  0  0  0
   -1.7035   -0.6754    0.9713 H   0  0  0  0  0  0  0  0  0  0  0  0
   -0.8844    0.8922    1.1419 H   0  0  0  0  0  0  0  0  0  0  0  0
   -2.7019    0.1765   -1.1710 H   0  0  0  0  0  0  0  0  0  0  0  0
   -1.7746    1.7422   -0.9284 H   0  0  0  0  0  0  0  0  0  0  0  0
   -3.1649    2.2711    0.6385 H   0  0  0  0  0  0  0  0  0  0  0  0
  1  2  1  0
  2  3  1  0
  3  4  1  0
  4  5  1  0
  5  6  1  0
  6  7  1  0
  7  8  1  0
  8  9  1  0
  6  3  1  0
  1 10  1  0
  1 11  1  0
  1 12  1  0
  2 13  1  0
  2 14  1  0
  3 15  1  0
  5 16  1  0
  5 17  1  0
  6 18  1  0
  7 19  1  0
  7 20  1  0
  8 21  1  0
  8 22  1  0
  9 23  1  0
M  END
