
     RDKit          3D

 20 20  0  0  0  0  0  0  0  0999 V2000
    2.6406    0.0487   -0.4582 C   0  0  0  0  0  0  0  0  0  0  0  0
    1.4670    0.8363    0.0803 C   0  0  0  0  0  0  0  0  0  0  0  0
    0.1576    0.4138   -0.5854 C   0  0  0  0  0  0  0  0  0  0  0  0
   -0.1077   -1.0194   -0.3437 C   0  0  0  0  0  0  0  0  0  0  0  0
   -1.4688   -1.3620    0.0533 C   0  0  0  0  0  0  0  0  0  0  0  0
   -2.3986   -0.4521    0.1222 C   0  0  0  0  0  0  0  0  0  0  0  0
   -2.0853    0.9453   -0.2024 C   0  0  0  0  0  0  0  0  0  0  0  0
   -0.8039    1.3032   -0.2376 O   0  0  0  0  0  0  0  0  0  0  0  0
    2.2164   -0.8332   -1.0033 H   0  0  0  0  0  0  0  0  0  0  0  0
    3.3169   -0.3008    0.3615 H   0  0  0  0  0  0  0  0  0  0  0  0
    3.2644    0.6351   -1.1490 H   0  0  0  0  0  0  0  0  0  0  0  0
    1.6821    1.9081   -0.1107 H   0  0  0  0  0  0  0  0  0  0  0  0
    1.3730    0.6819    1.1938 H   0  0  0  0  0  0  0  0  0  0  0  0
    0.3323    0.5445   -1.6902 H   0  0  0  0  0  0  0  0  0  0  0  0
    0.1691   -1.6612   -1.2293 H   0  0  0  0  0  0  0  0  0  0  0  0
    0.5808   -1.3828    0.4756 H   0  0  0  0  0  0  0  0  0  0  0  0
   -1.7128   -2.3877    0.2950 H   0  0  0  0  0  0  0  0  0  0  0  0
   -3.4203   -0.6835    0.4157 H   0  0  0  0  0  0  0  0  0  0  0  0
   -2.6417    1.5976    0.5320 H   0  0  0  0  0  0  0  0  0  0  0  0
   -2.5610    1.1680   -1.1912 H   0  0  0  0  0  0  0  0  0  0  0  0
  1  2  1  0
  2  3  1  0
  3  4  1  0
  4  5  1  0
  5  6  2  0
  6  7  1  0
  7  8  1  0
  8  3  1  0
  1  9  1  0
  1 10  1  0
  1 11  1  0
  2 12  1  0
  2 13  1  0
  3 14  1  0
  4 15  1  0
  4 16  1  0
  5 17  1  0
  6 18  1  0
  7 19  1  0
  7 20  1  0
M  END
