
     RDKit          3D

 23 24  0  0  0  0  0  0  0  0999 V2000
    2.4204    0.9254    0.2675 C   0  0  0  0  0  0  0  0  0  0  0  0
    1.2932    0.1336    0.8753 C   0  0  0  0  0  0  0  0  0  0  0  0
    0.2997   -0.1911   -0.1904 C   0  0  0  0  0  0  0  0  0  0  0  0
   -0.3821    0.9528   -0.9372 C   0  0  0  0  0  0  0  0  0  0  0  0
   -1.7091    0.9921   -0.1779 C   0  0  0  0  0  0  0  0  0  0  0  0
   -2.0623   -0.4993   -0.2231 C   0  0  0  0  0  0  0  0  0  0  0  0
   -0.7799   -1.1531    0.1946 C   0  0  0  0  0  0  0  0  0  0  0  0
   -0.7164   -1.8697    1.3698 O   0  0  0  0  0  0  0  0  0  0  0  0
    0.2421   -1.5119   -0.8482 C   0  0  0  0  0  0  0  0  0  0  0  0
    3.3079    0.2645    0.2394 H   0  0  0  0  0  0  0  0  0  0  0  0
    2.1377    1.2864   -0.7333 H   0  0  0  0  0  0  0  0  0  0  0  0
    2.6941    1.7890    0.9043 H   0  0  0  0  0  0  0  0  0  0  0  0
    0.8289    0.7697    1.6795 H   0  0  0  0  0  0  0  0  0  0  0  0
    1.6066   -0.7931    1.3608 H   0  0  0  0  0  0  0  0  0  0  0  0
    0.1795    1.8830   -0.8524 H   0  0  0  0  0  0  0  0  0  0  0  0
   -0.6252    0.6602   -1.9852 H   0  0  0  0  0  0  0  0  0  0  0  0
   -2.4597    1.6092   -0.6704 H   0  0  0  0  0  0  0  0  0  0  0  0
   -1.4705    1.3034    0.8633 H   0  0  0  0  0  0  0  0  0  0  0  0
   -2.2629   -0.7466   -1.2743 H   0  0  0  0  0  0  0  0  0  0  0  0
   -2.9102   -0.7386    0.4387 H   0  0  0  0  0  0  0  0  0  0  0  0
   -0.5197   -1.2835    2.1430 H   0  0  0  0  0  0  0  0  0  0  0  0
   -0.1398   -1.5511   -1.8873 H   0  0  0  0  0  0  0  0  0  0  0  0
    1.0278   -2.2313   -0.5564 H   0  0  0  0  0  0  0  0  0  0  0  0
  1  2  1  0
  2  3  1  0
  3  4  1  0
  4  5  1  0
  5  6  1  0
  6  7  1  0
  7  8  1  0
  7  9  1  0
  7  3  1  0
  9  3  1  0
  1 10  1  0
  1 11  1  0
  1 12  1  0
  2 13  1  0
  2 14  1  0
  4 15  1  0
  4 16  1  0
  5 17  1  0
  5 18  1  0
  6 19  1  0
  6 20  1  0
  8 21  1  0
  9 22  1  0
  9 23  1  0
M  END
