
     RDKit          3D

 19 19  0  0  0  0  0  0  0  0999 V2000
   -2.4549    0.0525    0.0918 C   0  0  0  0  0  0  0  0  0  0  0  0
   -1.2329   -0.6015   -0.4668 C   0  0  0  0  0  0  0  0  0  0  0  0
    0.0352    0.1426   -0.0640 C   0  0  0  0  0  0  0  0  0  0  0  0
    1.3024   -0.4887   -0.6109 C   0  0  0  0  0  0  0  0  0  0  0  0
    1.5829   -0.0570   -1.8999 O   0  0  0  0  0  0  0  0  0  0  0  0
    2.4368   -0.3094    0.3124 C   0  0  0  0  0  0  0  0  0  0  0  0
    3.4836    0.1714   -0.0458 O   0  0  0  0  0  0  0  0  0  0  0  0
    0.1261    0.6997    1.2807 C   0  0  0  0  0  0  0  0  0  0  0  0
   -0.0334    1.5157    0.0453 O   0  0  0  0  0  0  0  0  0  0  0  0
   -3.2798   -0.0693   -0.6152 H   0  0  0  0  0  0  0  0  0  0  0  0
   -2.7368   -0.4616    1.0320 H   0  0  0  0  0  0  0  0  0  0  0  0
   -2.3173    1.1190    0.3413 H   0  0  0  0  0  0  0  0  0  0  0  0
   -1.3072   -0.5909   -1.5747 H   0  0  0  0  0  0  0  0  0  0  0  0
   -1.1469   -1.6791   -0.1677 H   0  0  0  0  0  0  0  0  0  0  0  0
    1.1305   -1.5979   -0.6929 H   0  0  0  0  0  0  0  0  0  0  0  0
    1.7522    0.9062   -1.9669 H   0  0  0  0  0  0  0  0  0  0  0  0
    2.3241   -0.6177    1.3348 H   0  0  0  0  0  0  0  0  0  0  0  0
   -0.7553    0.9201    1.9140 H   0  0  0  0  0  0  0  0  0  0  0  0
    1.0906    0.9458    1.7523 H   0  0  0  0  0  0  0  0  0  0  0  0
  1  2  1  0
  2  3  1  0
  3  4  1  0
  4  5  1  0
  4  6  1  0
  6  7  2  0
  3  8  1  0
  8  9  1  0
  9  3  1  0
  1 10  1  0
  1 11  1  0
  1 12  1  0
  2 13  1  0
  2 14  1  0
  4 15  1  0
  5 16  1  0
  6 17  1  0
  8 18  1  0
  8 19  1  0
M  END
