
     RDKit          3D

 22 22  0  0  0  0  0  0  0  0999 V2000
    2.8591    0.1826    0.4608 C   0  0  0  0  0  0  0  0  0  0  0  0
    1.8840   -0.2659   -0.5925 C   0  0  0  0  0  0  0  0  0  0  0  0
    0.4854   -0.2751   -0.1248 C   0  0  0  0  0  0  0  0  0  0  0  0
   -0.2935   -1.3502   -0.0881 C   0  0  0  0  0  0  0  0  0  0  0  0
   -1.7123   -1.2613    0.4068 C   0  0  0  0  0  0  0  0  0  0  0  0
   -2.3109   -0.0691   -0.3520 C   0  0  0  0  0  0  0  0  0  0  0  0
   -1.5197    1.1829   -0.1719 C   0  0  0  0  0  0  0  0  0  0  0  0
   -0.1317    0.9960    0.3490 C   0  0  0  0  0  0  0  0  0  0  0  0
    3.7442    0.6096   -0.0787 H   0  0  0  0  0  0  0  0  0  0  0  0
    3.1878   -0.6443    1.1162 H   0  0  0  0  0  0  0  0  0  0  0  0
    2.4104    1.0204    1.0344 H   0  0  0  0  0  0  0  0  0  0  0  0
    2.2313   -1.2289   -0.9829 H   0  0  0  0  0  0  0  0  0  0  0  0
    1.9645    0.4580   -1.4560 H   0  0  0  0  0  0  0  0  0  0  0  0
    0.1131   -2.2886   -0.4209 H   0  0  0  0  0  0  0  0  0  0  0  0
   -1.7657   -1.1143    1.4840 H   0  0  0  0  0  0  0  0  0  0  0  0
   -2.2685   -2.1517    0.0378 H   0  0  0  0  0  0  0  0  0  0  0  0
   -3.3572    0.0880   -0.0186 H   0  0  0  0  0  0  0  0  0  0  0  0
   -2.3062   -0.3689   -1.4140 H   0  0  0  0  0  0  0  0  0  0  0  0
   -2.0842    1.8887    0.4719 H   0  0  0  0  0  0  0  0  0  0  0  0
   -1.4489    1.6943   -1.1669 H   0  0  0  0  0  0  0  0  0  0  0  0
   -0.1855    1.0313    1.4692 H   0  0  0  0  0  0  0  0  0  0  0  0
    0.5043    1.8663    0.0371 H   0  0  0  0  0  0  0  0  0  0  0  0
  1  2  1  0
  2  3  1  0
  3  4  2  0
  4  5  1  0
  5  6  1  0
  6  7  1  0
  7  8  1  0
  8  3  1  0
  1  9  1  0
  1 10  1  0
  1 11  1  0
  2 12  1  0
  2 13  1  0
  4 14  1  0
  5 15  1  0
  5 16  1  0
  6 17  1  0
  6 18  1  0
  7 19  1  0
  7 20  1  0
  8 21  1  0
  8 22  1  0
M  END
