
     RDKit          3D

 19 19  0  0  0  0  0  0  0  0999 V2000
    1.8921   -0.9346    0.4233 C   0  0  0  0  0  0  0  0  0  0  0  0
    1.3637    0.4486    0.2019 C   0  0  0  0  0  0  0  0  0  0  0  0
   -0.1470    0.5030    0.2276 C   0  0  0  0  0  0  0  0  0  0  0  0
   -0.6854    1.8662    0.0099 C   0  0  0  0  0  0  0  0  0  0  0  0
   -1.5109    2.3747    0.7394 O   0  0  0  0  0  0  0  0  0  0  0  0
   -0.7228   -0.0650    1.3570 O   0  0  0  0  0  0  0  0  0  0  0  0
   -1.7517   -0.6066    0.5723 C   0  0  0  0  0  0  0  0  0  0  0  0
   -0.7852   -0.5815   -0.5923 C   0  0  0  0  0  0  0  0  0  0  0  0
   -1.3698   -0.1615   -1.7816 O   0  0  0  0  0  0  0  0  0  0  0  0
    2.9957   -0.8270    0.6348 H   0  0  0  0  0  0  0  0  0  0  0  0
    1.8309   -1.5149   -0.5114 H   0  0  0  0  0  0  0  0  0  0  0  0
    1.4480   -1.4538    1.2943 H   0  0  0  0  0  0  0  0  0  0  0  0
    1.8079    1.1825    0.8848 H   0  0  0  0  0  0  0  0  0  0  0  0
    1.6737    0.7552   -0.8294 H   0  0  0  0  0  0  0  0  0  0  0  0
   -0.3349    2.4432   -0.8328 H   0  0  0  0  0  0  0  0  0  0  0  0
   -2.0515   -1.6123    0.9208 H   0  0  0  0  0  0  0  0  0  0  0  0
   -2.6320    0.0451    0.4568 H   0  0  0  0  0  0  0  0  0  0  0  0
   -0.2061   -1.5031   -0.6213 H   0  0  0  0  0  0  0  0  0  0  0  0
   -0.8146   -0.3582   -2.5542 H   0  0  0  0  0  0  0  0  0  0  0  0
  1  2  1  0
  2  3  1  0
  3  4  1  0
  4  5  2  0
  3  6  1  0
  6  7  1  0
  7  8  1  0
  8  9  1  0
  8  3  1  0
  1 10  1  0
  1 11  1  0
  1 12  1  0
  2 13  1  0
  2 14  1  0
  4 15  1  0
  7 16  1  0
  7 17  1  0
  8 18  1  0
  9 19  1  0
M  END
