
     RDKit          3D

 20 21  0  0  0  0  0  0  0  0999 V2000
   -2.2686    0.4755   -1.3077 C   0  0  0  0  0  0  0  0  0  0  0  0
   -1.9189    0.7381    0.1232 C   0  0  0  0  0  0  0  0  0  0  0  0
   -0.4809    0.4853    0.4498 C   0  0  0  0  0  0  0  0  0  0  0  0
   -0.0181   -0.9431    0.2038 C   0  0  0  0  0  0  0  0  0  0  0  0
    1.1955   -0.1961   -0.1895 C   0  0  0  0  0  0  0  0  0  0  0  0
    2.3730   -0.6960   -0.8263 C   0  0  0  0  0  0  0  0  0  0  0  0
    2.4171   -0.1045    0.6101 C   0  0  0  0  0  0  0  0  0  0  0  0
    0.4324    0.8687   -0.5606 O   0  0  0  0  0  0  0  0  0  0  0  0
   -2.6320    1.4259   -1.7928 H   0  0  0  0  0  0  0  0  0  0  0  0
   -1.4661    0.0154   -1.8845 H   0  0  0  0  0  0  0  0  0  0  0  0
   -3.1671   -0.2027   -1.3395 H   0  0  0  0  0  0  0  0  0  0  0  0
   -2.1477    1.7852    0.3875 H   0  0  0  0  0  0  0  0  0  0  0  0
   -2.5302    0.1095    0.8196 H   0  0  0  0  0  0  0  0  0  0  0  0
   -0.1599    0.9234    1.3966 H   0  0  0  0  0  0  0  0  0  0  0  0
    0.0434   -1.5488    1.1487 H   0  0  0  0  0  0  0  0  0  0  0  0
   -0.6281   -1.3899   -0.5969 H   0  0  0  0  0  0  0  0  0  0  0  0
    2.9201   -0.0964   -1.5824 H   0  0  0  0  0  0  0  0  0  0  0  0
    2.6279   -1.7716   -0.8562 H   0  0  0  0  0  0  0  0  0  0  0  0
    2.8668    0.9270    0.6843 H   0  0  0  0  0  0  0  0  0  0  0  0
    2.5414   -0.8049    1.4399 H   0  0  0  0  0  0  0  0  0  0  0  0
  1  2  1  0
  2  3  1  0
  3  4  1  0
  4  5  1  0
  5  6  1  0
  6  7  1  0
  5  8  1  0
  8  3  1  0
  7  5  1  0
  1  9  1  0
  1 10  1  0
  1 11  1  0
  2 12  1  0
  2 13  1  0
  3 14  1  0
  4 15  1  0
  4 16  1  0
  6 17  1  0
  6 18  1  0
  7 19  1  0
  7 20  1  0
M  END
