
     RDKit          3D

 21 22  0  0  0  0  0  0  0  0999 V2000
   -2.5751    0.2148    0.2988 C   0  0  0  0  0  0  0  0  0  0  0  0
   -1.6754   -0.8506   -0.2982 C   0  0  0  0  0  0  0  0  0  0  0  0
   -0.4656   -0.1162   -0.8408 C   0  0  0  0  0  0  0  0  0  0  0  0
    0.2476    0.6250    0.2583 C   0  0  0  0  0  0  0  0  0  0  0  0
    0.7097    1.8515   -0.2559 O   0  0  0  0  0  0  0  0  0  0  0  0
    1.3111   -0.4331    0.2919 C   0  0  0  0  0  0  0  0  0  0  0  0
    2.7406   -0.0883    0.4805 C   0  0  0  0  0  0  0  0  0  0  0  0
    1.0381   -1.7548    0.0749 O   0  0  0  0  0  0  0  0  0  0  0  0
    0.7733   -0.9584   -0.9983 C   0  0  0  0  0  0  0  0  0  0  0  0
   -3.6408   -0.0660    0.1877 H   0  0  0  0  0  0  0  0  0  0  0  0
   -2.3057    0.4541    1.3326 H   0  0  0  0  0  0  0  0  0  0  0  0
   -2.4577    1.1673   -0.2975 H   0  0  0  0  0  0  0  0  0  0  0  0
   -2.2026   -1.4117   -1.0982 H   0  0  0  0  0  0  0  0  0  0  0  0
   -1.3596   -1.5889    0.4703 H   0  0  0  0  0  0  0  0  0  0  0  0
   -0.7052    0.4770   -1.7436 H   0  0  0  0  0  0  0  0  0  0  0  0
   -0.2966    0.7766    1.1923 H   0  0  0  0  0  0  0  0  0  0  0  0
    0.0894    2.5721    0.0445 H   0  0  0  0  0  0  0  0  0  0  0  0
    2.7970    0.7406    1.2354 H   0  0  0  0  0  0  0  0  0  0  0  0
    3.2729    0.2105   -0.4395 H   0  0  0  0  0  0  0  0  0  0  0  0
    3.2721   -0.9717    0.8915 H   0  0  0  0  0  0  0  0  0  0  0  0
    1.4325   -0.8501   -1.8556 H   0  0  0  0  0  0  0  0  0  0  0  0
  1  2  1  0
  2  3  1  0
  3  4  1  0
  4  5  1  0
  4  6  1  0
  6  7  1  0
  6  8  1  0
  8  9  1  0
  9  3  1  0
  9  6  1  0
  1 10  1  0
  1 11  1  0
  1 12  1  0
  2 13  1  0
  2 14  1  0
  3 15  1  0
  4 16  1  0
  5 17  1  0
  7 18  1  0
  7 19  1  0
  7 20  1  0
  9 21  1  0
M  END
