
     RDKit          3D

 20 20  0  0  0  0  0  0  0  0999 V2000
   -2.3494    0.2026    0.6200 C   0  0  0  0  0  0  0  0  0  0  0  0
   -1.3757   -0.7044   -0.1036 C   0  0  0  0  0  0  0  0  0  0  0  0
   -0.1669    0.1618   -0.4797 C   0  0  0  0  0  0  0  0  0  0  0  0
    0.8506   -0.6838   -1.2090 C   0  0  0  0  0  0  0  0  0  0  0  0
    2.0879   -0.0729   -1.2406 O   0  0  0  0  0  0  0  0  0  0  0  0
    2.4915    0.1780    0.0679 C   0  0  0  0  0  0  0  0  0  0  0  0
    1.7196    1.1857    0.6294 O   0  0  0  0  0  0  0  0  0  0  0  0
    0.3776    0.8485    0.7190 C   0  0  0  0  0  0  0  0  0  0  0  0
   -2.6497    1.0070   -0.0906 H   0  0  0  0  0  0  0  0  0  0  0  0
   -1.7835    0.6549    1.4566 H   0  0  0  0  0  0  0  0  0  0  0  0
   -3.2459   -0.3377    0.9701 H   0  0  0  0  0  0  0  0  0  0  0  0
   -1.8147   -1.1882   -0.9710 H   0  0  0  0  0  0  0  0  0  0  0  0
   -1.0588   -1.4974    0.6036 H   0  0  0  0  0  0  0  0  0  0  0  0
   -0.4993    0.9410   -1.1970 H   0  0  0  0  0  0  0  0  0  0  0  0
    0.9298   -1.7073   -0.8159 H   0  0  0  0  0  0  0  0  0  0  0  0
    0.5142   -0.7766   -2.2794 H   0  0  0  0  0  0  0  0  0  0  0  0
    2.4003   -0.7271    0.6824 H   0  0  0  0  0  0  0  0  0  0  0  0
    3.5463    0.5334    0.0894 H   0  0  0  0  0  0  0  0  0  0  0  0
   -0.1708    1.7936    0.9417 H   0  0  0  0  0  0  0  0  0  0  0  0
    0.1969    0.1890    1.6066 H   0  0  0  0  0  0  0  0  0  0  0  0
  1  2  1  0
  2  3  1  0
  3  4  1  0
  4  5  1  0
  5  6  1  0
  6  7  1  0
  7  8  1  0
  8  3  1  0
  1  9  1  0
  1 10  1  0
  1 11  1  0
  2 12  1  0
  2 13  1  0
  3 14  1  0
  4 15  1  0
  4 16  1  0
  6 17  1  0
  6 18  1  0
  8 19  1  0
  8 20  1  0
M  END
