
     RDKit          3D

 20 21  0  0  0  0  0  0  0  0999 V2000
    2.4973   -0.2690    0.6466 C   0  0  0  0  0  0  0  0  0  0  0  0
    1.4924    0.5644   -0.0772 C   0  0  0  0  0  0  0  0  0  0  0  0
    0.3564   -0.2607   -0.6538 C   0  0  0  0  0  0  0  0  0  0  0  0
   -0.6776    0.6086   -1.4002 C   0  0  0  0  0  0  0  0  0  0  0  0
   -0.9735   -0.1013   -0.1557 C   0  0  0  0  0  0  0  0  0  0  0  0
   -2.0326   -1.1122   -0.0114 C   0  0  0  0  0  0  0  0  0  0  0  0
   -2.3600   -0.5175    1.2297 O   0  0  0  0  0  0  0  0  0  0  0  0
   -1.4112    0.5171    1.1024 C   0  0  0  0  0  0  0  0  0  0  0  0
    2.0716   -0.8662    1.4696 H   0  0  0  0  0  0  0  0  0  0  0  0
    2.9684   -0.9561   -0.0912 H   0  0  0  0  0  0  0  0  0  0  0  0
    3.3025    0.3995    0.9996 H   0  0  0  0  0  0  0  0  0  0  0  0
    1.0716    1.3727    0.5588 H   0  0  0  0  0  0  0  0  0  0  0  0
    2.0088    1.0686   -0.9200 H   0  0  0  0  0  0  0  0  0  0  0  0
    0.6818   -1.1768   -1.2043 H   0  0  0  0  0  0  0  0  0  0  0  0
   -0.5155    1.6819   -1.4677 H   0  0  0  0  0  0  0  0  0  0  0  0
   -1.1289    0.1490   -2.3278 H   0  0  0  0  0  0  0  0  0  0  0  0
   -2.8847   -0.9005   -0.7065 H   0  0  0  0  0  0  0  0  0  0  0  0
   -1.7534   -2.1721    0.0606 H   0  0  0  0  0  0  0  0  0  0  0  0
   -1.9656    1.4765    0.9731 H   0  0  0  0  0  0  0  0  0  0  0  0
   -0.7480    0.4939    1.9753 H   0  0  0  0  0  0  0  0  0  0  0  0
  1  2  1  0
  2  3  1  0
  3  4  1  0
  4  5  1  0
  5  6  1  0
  6  7  1  0
  7  8  1  0
  5  3  1  0
  8  5  1  0
  1  9  1  0
  1 10  1  0
  1 11  1  0
  2 12  1  0
  2 13  1  0
  3 14  1  0
  4 15  1  0
  4 16  1  0
  6 17  1  0
  6 18  1  0
  8 19  1  0
  8 20  1  0
M  END
