
     RDKit          3D

 21 22  0  0  0  0  0  0  0  0999 V2000
   -2.7424    0.2639    0.1285 C   0  0  0  0  0  0  0  0  0  0  0  0
   -1.4414    0.0615   -0.6694 C   0  0  0  0  0  0  0  0  0  0  0  0
   -0.3246    0.2776    0.2137 C   0  0  0  0  0  0  0  0  0  0  0  0
   -0.4554    1.5438    0.6545 O   0  0  0  0  0  0  0  0  0  0  0  0
    0.5069   -0.1856    1.2897 C   0  0  0  0  0  0  0  0  0  0  0  0
    1.8650    0.4001    1.3978 C   0  0  0  0  0  0  0  0  0  0  0  0
    2.5890   -0.0144    0.3795 C   0  0  0  0  0  0  0  0  0  0  0  0
    1.8045   -0.9076   -0.5046 C   0  0  0  0  0  0  0  0  0  0  0  0
    0.4244   -0.9281    0.1768 C   0  0  0  0  0  0  0  0  0  0  0  0
   -3.3036   -0.6623    0.2471 H   0  0  0  0  0  0  0  0  0  0  0  0
   -2.5235    0.6489    1.1499 H   0  0  0  0  0  0  0  0  0  0  0  0
   -3.3910    1.0133   -0.3514 H   0  0  0  0  0  0  0  0  0  0  0  0
   -1.4473    0.8526   -1.4823 H   0  0  0  0  0  0  0  0  0  0  0  0
   -1.6139   -0.8557   -1.2294 H   0  0  0  0  0  0  0  0  0  0  0  0
    0.0758    2.1710    0.1014 H   0  0  0  0  0  0  0  0  0  0  0  0
    0.1486   -0.6224    2.2684 H   0  0  0  0  0  0  0  0  0  0  0  0
    2.1952    1.0513    2.1774 H   0  0  0  0  0  0  0  0  0  0  0  0
    3.6181    0.2675    0.2217 H   0  0  0  0  0  0  0  0  0  0  0  0
    1.7193   -0.5070   -1.5387 H   0  0  0  0  0  0  0  0  0  0  0  0
    2.2871   -1.9028   -0.4691 H   0  0  0  0  0  0  0  0  0  0  0  0
    0.0094   -1.9655    0.1746 H   0  0  0  0  0  0  0  0  0  0  0  0
  1  2  1  0
  2  3  1  0
  3  4  1  0
  3  5  1  0
  5  6  1  0
  6  7  2  0
  7  8  1  0
  8  9  1  0
  9  3  1  0
  9  5  1  0
  1 10  1  0
  1 11  1  0
  1 12  1  0
  2 13  1  0
  2 14  1  0
  4 15  1  0
  5 16  1  0
  6 17  1  0
  7 18  1  0
  8 19  1  0
  8 20  1  0
  9 21  1  0
M  END
