
     RDKit          3D

 21 21  0  0  0  0  0  0  0  0999 V2000
   -2.6267   -0.4735    0.2943 C   0  0  0  0  0  0  0  0  0  0  0  0
   -1.4622    0.3054    0.8575 C   0  0  0  0  0  0  0  0  0  0  0  0
   -0.1757   -0.4049    0.4409 C   0  0  0  0  0  0  0  0  0  0  0  0
   -0.1505   -0.4199   -1.0436 C   0  0  0  0  0  0  0  0  0  0  0  0
    1.0610   -0.1339   -1.4709 C   0  0  0  0  0  0  0  0  0  0  0  0
    1.9568    0.0966   -0.3244 C   0  0  0  0  0  0  0  0  0  0  0  0
    2.5662   -1.1230   -0.0319 O   0  0  0  0  0  0  0  0  0  0  0  0
    1.0223    0.4739    0.7998 C   0  0  0  0  0  0  0  0  0  0  0  0
    0.6947    1.8208    0.6805 O   0  0  0  0  0  0  0  0  0  0  0  0
   -3.2397   -0.8139    1.1523 H   0  0  0  0  0  0  0  0  0  0  0  0
   -2.3039   -1.3834   -0.2537 H   0  0  0  0  0  0  0  0  0  0  0  0
   -3.2203    0.1228   -0.4328 H   0  0  0  0  0  0  0  0  0  0  0  0
   -1.5392    0.4247    1.9357 H   0  0  0  0  0  0  0  0  0  0  0  0
   -1.4425    1.2902    0.3134 H   0  0  0  0  0  0  0  0  0  0  0  0
   -0.0928   -1.4102    0.8558 H   0  0  0  0  0  0  0  0  0  0  0  0
   -1.0241   -0.6392   -1.6565 H   0  0  0  0  0  0  0  0  0  0  0  0
    1.3541   -0.0774   -2.5560 H   0  0  0  0  0  0  0  0  0  0  0  0
    2.7118    0.8902   -0.5191 H   0  0  0  0  0  0  0  0  0  0  0  0
    2.9899   -1.1452    0.8537 H   0  0  0  0  0  0  0  0  0  0  0  0
    1.4364    0.2173    1.7812 H   0  0  0  0  0  0  0  0  0  0  0  0
    1.4844    2.3826    0.4309 H   0  0  0  0  0  0  0  0  0  0  0  0
  1  2  1  0
  2  3  1  0
  3  4  1  0
  4  5  2  0
  5  6  1  0
  6  7  1  0
  6  8  1  0
  8  9  1  0
  8  3  1  0
  1 10  1  0
  1 11  1  0
  1 12  1  0
  2 13  1  0
  2 14  1  0
  3 15  1  0
  4 16  1  0
  5 17  1  0
  6 18  1  0
  7 19  1  0
  8 20  1  0
  9 21  1  0
M  END
