
     RDKit          3D

 25 25  0  0  0  0  0  0  0  0999 V2000
    3.1055    0.6624   -0.2167 C   0  0  0  0  0  0  0  0  0  0  0  0
    2.1703   -0.4535   -0.5972 C   0  0  0  0  0  0  0  0  0  0  0  0
    0.9986   -0.4108    0.3778 C   0  0  0  0  0  0  0  0  0  0  0  0
    0.2938    0.9221    0.2806 C   0  0  0  0  0  0  0  0  0  0  0  0
   -1.1525    0.5885    0.2174 C   0  0  0  0  0  0  0  0  0  0  0  0
   -2.1876    1.6713    0.3943 C   0  0  0  0  0  0  0  0  0  0  0  0
   -1.3619   -0.6995   -0.0002 C   0  0  0  0  0  0  0  0  0  0  0  0
   -2.6659   -1.3890   -0.1225 C   0  0  0  0  0  0  0  0  0  0  0  0
   -0.0367   -1.3595   -0.1048 C   0  0  0  0  0  0  0  0  0  0  0  0
    2.6565    1.6391   -0.4156 H   0  0  0  0  0  0  0  0  0  0  0  0
    4.1106    0.5338   -0.6689 H   0  0  0  0  0  0  0  0  0  0  0  0
    3.2717    0.5777    0.8961 H   0  0  0  0  0  0  0  0  0  0  0  0
    2.6935   -1.4285   -0.4431 H   0  0  0  0  0  0  0  0  0  0  0  0
    1.8450   -0.4153   -1.6402 H   0  0  0  0  0  0  0  0  0  0  0  0
    1.3815   -0.5957    1.3858 H   0  0  0  0  0  0  0  0  0  0  0  0
    0.4977    1.4871    1.2321 H   0  0  0  0  0  0  0  0  0  0  0  0
    0.6293    1.5039   -0.6025 H   0  0  0  0  0  0  0  0  0  0  0  0
   -1.9774    2.4301   -0.3935 H   0  0  0  0  0  0  0  0  0  0  0  0
   -3.2019    1.2875    0.2327 H   0  0  0  0  0  0  0  0  0  0  0  0
   -2.0644    2.1913    1.3674 H   0  0  0  0  0  0  0  0  0  0  0  0
   -3.4260   -0.7718   -0.6439 H   0  0  0  0  0  0  0  0  0  0  0  0
   -2.5824   -2.3292   -0.7303 H   0  0  0  0  0  0  0  0  0  0  0  0
   -3.0266   -1.7260    0.8758 H   0  0  0  0  0  0  0  0  0  0  0  0
    0.0951   -1.6351   -1.1912 H   0  0  0  0  0  0  0  0  0  0  0  0
   -0.0660   -2.2809    0.5104 H   0  0  0  0  0  0  0  0  0  0  0  0
  1  2  1  0
  2  3  1  0
  3  4  1  0
  4  5  1  0
  5  6  1  0
  5  7  2  0
  7  8  1  0
  7  9  1  0
  9  3  1  0
  1 10  1  0
  1 11  1  0
  1 12  1  0
  2 13  1  0
  2 14  1  0
  3 15  1  0
  4 16  1  0
  4 17  1  0
  6 18  1  0
  6 19  1  0
  6 20  1  0
  8 21  1  0
  8 22  1  0
  8 23  1  0
  9 24  1  0
  9 25  1  0
M  END
