
     RDKit          3D

 23 23  0  0  0  0  0  0  0  0999 V2000
   -2.8127    0.1150   -0.0354 C   0  0  0  0  0  0  0  0  0  0  0  0
   -1.5628   -0.1457   -0.8095 C   0  0  0  0  0  0  0  0  0  0  0  0
   -0.3425    0.5223   -0.2454 C   0  0  0  0  0  0  0  0  0  0  0  0
    0.8269    0.1445   -1.1611 C   0  0  0  0  0  0  0  0  0  0  0  0
    1.9993    0.3341   -0.2550 C   0  0  0  0  0  0  0  0  0  0  0  0
    3.0714   -0.4267   -0.7227 O   0  0  0  0  0  0  0  0  0  0  0  0
    1.5258   -0.3160    1.0487 C   0  0  0  0  0  0  0  0  0  0  0  0
    0.0362    0.0456    1.1183 C   0  0  0  0  0  0  0  0  0  0  0  0
   -0.7086   -1.0492    1.5519 O   0  0  0  0  0  0  0  0  0  0  0  0
   -3.5547   -0.6808   -0.3387 H   0  0  0  0  0  0  0  0  0  0  0  0
   -3.2614    1.0799   -0.4114 H   0  0  0  0  0  0  0  0  0  0  0  0
   -2.6848    0.1680    1.0498 H   0  0  0  0  0  0  0  0  0  0  0  0
   -1.7095    0.2590   -1.8374 H   0  0  0  0  0  0  0  0  0  0  0  0
   -1.3993   -1.2517   -0.9567 H   0  0  0  0  0  0  0  0  0  0  0  0
   -0.4929    1.6028   -0.2616 H   0  0  0  0  0  0  0  0  0  0  0  0
    0.8487    0.8577   -1.9863 H   0  0  0  0  0  0  0  0  0  0  0  0
    0.7382   -0.9147   -1.4857 H   0  0  0  0  0  0  0  0  0  0  0  0
    2.2448    1.3900   -0.1181 H   0  0  0  0  0  0  0  0  0  0  0  0
    3.7085    0.1794   -1.1345 H   0  0  0  0  0  0  0  0  0  0  0  0
    1.6821   -1.3995    1.0351 H   0  0  0  0  0  0  0  0  0  0  0  0
    2.0989    0.1931    1.8534 H   0  0  0  0  0  0  0  0  0  0  0  0
   -0.0546    0.8608    1.8702 H   0  0  0  0  0  0  0  0  0  0  0  0
   -0.1969   -1.5676    2.2321 H   0  0  0  0  0  0  0  0  0  0  0  0
  1  2  1  0
  2  3  1  0
  3  4  1  0
  4  5  1  0
  5  6  1  0
  5  7  1  0
  7  8  1  0
  8  9  1  0
  8  3  1  0
  1 10  1  0
  1 11  1  0
  1 12  1  0
  2 13  1  0
  2 14  1  0
  3 15  1  0
  4 16  1  0
  4 17  1  0
  5 18  1  0
  6 19  1  0
  7 20  1  0
  7 21  1  0
  8 22  1  0
  9 23  1  0
M  END
