
     RDKit          3D

 19 20  0  0  0  0  0  0  0  0999 V2000
   -2.2278   -0.8478   -0.1408 C   0  0  0  0  0  0  0  0  0  0  0  0
   -1.4480    0.2304    0.6266 C   0  0  0  0  0  0  0  0  0  0  0  0
   -0.1231    0.3485   -0.0667 C   0  0  0  0  0  0  0  0  0  0  0  0
   -0.0461    0.7083   -1.4066 O   0  0  0  0  0  0  0  0  0  0  0  0
    0.7703    1.7756   -1.0093 C   0  0  0  0  0  0  0  0  0  0  0  0
    1.1651    2.7811   -1.6204 O   0  0  0  0  0  0  0  0  0  0  0  0
    0.9468    1.2283    0.3538 C   0  0  0  0  0  0  0  0  0  0  0  0
    1.0646   -0.2171    0.5953 C   0  0  0  0  0  0  0  0  0  0  0  0
    1.9982   -1.0818   -0.2127 C   0  0  0  0  0  0  0  0  0  0  0  0
   -2.6967   -0.4142   -1.0471 H   0  0  0  0  0  0  0  0  0  0  0  0
   -1.4932   -1.6491   -0.4353 H   0  0  0  0  0  0  0  0  0  0  0  0
   -2.9629   -1.3419    0.5226 H   0  0  0  0  0  0  0  0  0  0  0  0
   -2.0697    1.1529    0.5341 H   0  0  0  0  0  0  0  0  0  0  0  0
   -1.3008   -0.0770    1.6703 H   0  0  0  0  0  0  0  0  0  0  0  0
    0.9113    1.9295    1.1936 H   0  0  0  0  0  0  0  0  0  0  0  0
    0.9311   -0.5597    1.6333 H   0  0  0  0  0  0  0  0  0  0  0  0
    1.5271   -2.1073   -0.2458 H   0  0  0  0  0  0  0  0  0  0  0  0
    2.9758   -1.1046    0.3181 H   0  0  0  0  0  0  0  0  0  0  0  0
    2.0781   -0.7540   -1.2632 H   0  0  0  0  0  0  0  0  0  0  0  0
  1  2  1  0
  2  3  1  0
  3  4  1  0
  4  5  1  0
  5  6  2  0
  5  7  1  0
  7  8  1  0
  8  9  1  0
  7  3  1  0
  8  3  1  0
  1 10  1  0
  1 11  1  0
  1 12  1  0
  2 13  1  0
  2 14  1  0
  7 15  1  0
  8 16  1  0
  9 17  1  0
  9 18  1  0
  9 19  1  0
M  END
