
     RDKit          3D

 23 24  0  0  0  0  0  0  0  0999 V2000
    2.6851    0.4535   -0.2803 C   0  0  0  0  0  0  0  0  0  0  0  0
    1.5239    0.8794    0.5678 C   0  0  0  0  0  0  0  0  0  0  0  0
    0.2907    0.0933    0.2972 C   0  0  0  0  0  0  0  0  0  0  0  0
   -0.8888    0.5590   -0.1280 C   0  0  0  0  0  0  0  0  0  0  0  0
   -1.3269    1.9419   -0.4486 C   0  0  0  0  0  0  0  0  0  0  0  0
   -1.7165   -0.6549   -0.2193 C   0  0  0  0  0  0  0  0  0  0  0  0
   -0.7373   -1.6374   -0.8605 C   0  0  0  0  0  0  0  0  0  0  0  0
    0.0551   -1.3486    0.4221 C   0  0  0  0  0  0  0  0  0  0  0  0
   -1.3309   -1.3706    1.0842 C   0  0  0  0  0  0  0  0  0  0  0  0
    3.5128   -0.0164    0.3248 H   0  0  0  0  0  0  0  0  0  0  0  0
    2.4205   -0.2012   -1.1107 H   0  0  0  0  0  0  0  0  0  0  0  0
    3.1577    1.3700   -0.7233 H   0  0  0  0  0  0  0  0  0  0  0  0
    1.8358    0.7334    1.6361 H   0  0  0  0  0  0  0  0  0  0  0  0
    1.3352    1.9674    0.4625 H   0  0  0  0  0  0  0  0  0  0  0  0
   -0.4628    2.5725   -0.7277 H   0  0  0  0  0  0  0  0  0  0  0  0
   -1.8988    2.4193    0.3633 H   0  0  0  0  0  0  0  0  0  0  0  0
   -2.0062    1.9191   -1.3380 H   0  0  0  0  0  0  0  0  0  0  0  0
   -2.7161   -0.6445   -0.5189 H   0  0  0  0  0  0  0  0  0  0  0  0
   -1.0903   -2.6816   -0.8764 H   0  0  0  0  0  0  0  0  0  0  0  0
   -0.2634   -1.2684   -1.7746 H   0  0  0  0  0  0  0  0  0  0  0  0
    0.7810   -2.0284    0.7375 H   0  0  0  0  0  0  0  0  0  0  0  0
   -1.4201   -0.6794    1.9206 H   0  0  0  0  0  0  0  0  0  0  0  0
   -1.7398   -2.3774    1.1904 H   0  0  0  0  0  0  0  0  0  0  0  0
  1  2  1  0
  2  3  1  0
  3  4  2  0
  4  5  1  0
  4  6  1  0
  6  7  1  0
  7  8  1  0
  8  9  1  0
  8  3  1  0
  9  6  1  0
  1 10  1  0
  1 11  1  0
  1 12  1  0
  2 13  1  0
  2 14  1  0
  5 15  1  0
  5 16  1  0
  5 17  1  0
  6 18  1  0
  7 19  1  0
  7 20  1  0
  8 21  1  0
  9 22  1  0
  9 23  1  0
M  END
