
     RDKit          3D

 25 26  0  0  0  0  0  0  0  0999 V2000
    2.7351    0.1708   -0.1108 C   0  0  0  0  0  0  0  0  0  0  0  0
    1.3791    0.8012   -0.4108 C   0  0  0  0  0  0  0  0  0  0  0  0
    0.3244   -0.0280    0.2331 C   0  0  0  0  0  0  0  0  0  0  0  0
    0.2691   -1.4618   -0.2380 C   0  0  0  0  0  0  0  0  0  0  0  0
   -1.1015   -1.4791   -0.9278 C   0  0  0  0  0  0  0  0  0  0  0  0
   -1.9362   -0.8172    0.1723 C   0  0  0  0  0  0  0  0  0  0  0  0
   -1.0553    0.4110    0.4395 C   0  0  0  0  0  0  0  0  0  0  0  0
   -1.5058    1.6931   -0.1713 C   0  0  0  0  0  0  0  0  0  0  0  0
   -0.1626    0.3254    1.5951 C   0  0  0  0  0  0  0  0  0  0  0  0
    3.3507    0.8818    0.5043 H   0  0  0  0  0  0  0  0  0  0  0  0
    3.3047   -0.0585   -1.0180 H   0  0  0  0  0  0  0  0  0  0  0  0
    2.6199   -0.7322    0.5343 H   0  0  0  0  0  0  0  0  0  0  0  0
    1.2852    0.8051   -1.5285 H   0  0  0  0  0  0  0  0  0  0  0  0
    1.3487    1.8697   -0.1133 H   0  0  0  0  0  0  0  0  0  0  0  0
    1.0654   -1.7320   -0.9315 H   0  0  0  0  0  0  0  0  0  0  0  0
    0.2177   -2.1106    0.6499 H   0  0  0  0  0  0  0  0  0  0  0  0
   -1.4361   -2.4825   -1.1669 H   0  0  0  0  0  0  0  0  0  0  0  0
   -1.0793   -0.7654   -1.7607 H   0  0  0  0  0  0  0  0  0  0  0  0
   -2.9322   -0.5379   -0.1659 H   0  0  0  0  0  0  0  0  0  0  0  0
   -1.9332   -1.4785    1.0779 H   0  0  0  0  0  0  0  0  0  0  0  0
   -1.3606    1.6156   -1.2754 H   0  0  0  0  0  0  0  0  0  0  0  0
   -2.5523    1.8920    0.1104 H   0  0  0  0  0  0  0  0  0  0  0  0
   -0.8129    2.4979    0.1623 H   0  0  0  0  0  0  0  0  0  0  0  0
   -0.2587   -0.5350    2.2932 H   0  0  0  0  0  0  0  0  0  0  0  0
    0.2267    1.2552    2.0464 H   0  0  0  0  0  0  0  0  0  0  0  0
  1  2  1  0
  2  3  1  0
  3  4  1  0
  4  5  1  0
  5  6  1  0
  6  7  1  0
  7  8  1  0
  7  9  1  0
  7  3  1  0
  9  3  1  0
  1 10  1  0
  1 11  1  0
  1 12  1  0
  2 13  1  0
  2 14  1  0
  4 15  1  0
  4 16  1  0
  5 17  1  0
  5 18  1  0
  6 19  1  0
  6 20  1  0
  8 21  1  0
  8 22  1  0
  8 23  1  0
  9 24  1  0
  9 25  1  0
M  END
