
     RDKit          3D

 27 27  0  0  0  0  0  0  0  0999 V2000
    2.5149    0.9258   -0.9115 C   0  0  0  0  0  0  0  0  0  0  0  0
    1.8541   -0.0049    0.0869 C   0  0  0  0  0  0  0  0  0  0  0  0
    0.4035   -0.2358   -0.2018 C   0  0  0  0  0  0  0  0  0  0  0  0
   -0.4340    0.9948   -0.1888 C   0  0  0  0  0  0  0  0  0  0  0  0
   -1.1313    1.2072   -1.5205 C   0  0  0  0  0  0  0  0  0  0  0  0
   -1.5185    0.7501    0.8382 C   0  0  0  0  0  0  0  0  0  0  0  0
   -0.9129   -0.2878    1.7570 C   0  0  0  0  0  0  0  0  0  0  0  0
   -0.1305   -1.1764    0.8496 C   0  0  0  0  0  0  0  0  0  0  0  0
   -0.9340   -2.2583    0.1982 C   0  0  0  0  0  0  0  0  0  0  0  0
    3.5913    0.9931   -0.5907 H   0  0  0  0  0  0  0  0  0  0  0  0
    2.4898    0.5010   -1.9365 H   0  0  0  0  0  0  0  0  0  0  0  0
    2.1036    1.9410   -0.8396 H   0  0  0  0  0  0  0  0  0  0  0  0
    2.3650   -0.9859    0.0649 H   0  0  0  0  0  0  0  0  0  0  0  0
    2.0375    0.4289    1.0895 H   0  0  0  0  0  0  0  0  0  0  0  0
    0.3345   -0.6983   -1.2103 H   0  0  0  0  0  0  0  0  0  0  0  0
    0.1138    1.9187    0.1018 H   0  0  0  0  0  0  0  0  0  0  0  0
   -0.6156    0.6272   -2.3192 H   0  0  0  0  0  0  0  0  0  0  0  0
   -2.2048    0.8677   -1.4798 H   0  0  0  0  0  0  0  0  0  0  0  0
   -1.1531    2.2871   -1.7946 H   0  0  0  0  0  0  0  0  0  0  0  0
   -1.7459    1.6337    1.4506 H   0  0  0  0  0  0  0  0  0  0  0  0
   -2.4474    0.4046    0.3762 H   0  0  0  0  0  0  0  0  0  0  0  0
   -1.6712   -0.8115    2.3588 H   0  0  0  0  0  0  0  0  0  0  0  0
   -0.1664    0.2609    2.4014 H   0  0  0  0  0  0  0  0  0  0  0  0
    0.6789   -1.6485    1.4393 H   0  0  0  0  0  0  0  0  0  0  0  0
   -1.8627   -2.4587    0.7534 H   0  0  0  0  0  0  0  0  0  0  0  0
   -1.2255   -1.9721   -0.8455 H   0  0  0  0  0  0  0  0  0  0  0  0
   -0.3332   -3.2036    0.0730 H   0  0  0  0  0  0  0  0  0  0  0  0
  1  2  1  0
  2  3  1  0
  3  4  1  0
  4  5  1  0
  4  6  1  0
  6  7  1  0
  7  8  1  0
  8  9  1  0
  8  3  1  0
  1 10  1  0
  1 11  1  0
  1 12  1  0
  2 13  1  0
  2 14  1  0
  3 15  1  0
  4 16  1  0
  5 17  1  0
  5 18  1  0
  5 19  1  0
  6 20  1  0
  6 21  1  0
  7 22  1  0
  7 23  1  0
  8 24  1  0
  9 25  1  0
  9 26  1  0
  9 27  1  0
M  END
