
     RDKit          3D

 23 24  0  0  0  0  0  0  0  0999 V2000
    2.9044    0.6424    0.5915 C   0  0  0  0  0  0  0  0  0  0  0  0
    1.5405    0.9314    0.0386 C   0  0  0  0  0  0  0  0  0  0  0  0
    0.8998   -0.2311   -0.6463 C   0  0  0  0  0  0  0  0  0  0  0  0
    1.6224   -0.7200   -1.7394 O   0  0  0  0  0  0  0  0  0  0  0  0
    0.0535   -1.2063    0.0488 C   0  0  0  0  0  0  0  0  0  0  0  0
   -1.0013   -0.8409    1.0370 C   0  0  0  0  0  0  0  0  0  0  0  0
   -1.4555    0.3440    0.2274 C   0  0  0  0  0  0  0  0  0  0  0  0
   -2.9156    0.3493   -0.1138 C   0  0  0  0  0  0  0  0  0  0  0  0
   -0.5670   -0.1340   -0.8868 C   0  0  0  0  0  0  0  0  0  0  0  0
    3.1559    1.3561    1.4070 H   0  0  0  0  0  0  0  0  0  0  0  0
    2.9739   -0.3827    1.0549 H   0  0  0  0  0  0  0  0  0  0  0  0
    3.6873    0.7832   -0.1937 H   0  0  0  0  0  0  0  0  0  0  0  0
    1.6664    1.7623   -0.7121 H   0  0  0  0  0  0  0  0  0  0  0  0
    0.9176    1.3593    0.8497 H   0  0  0  0  0  0  0  0  0  0  0  0
    1.1556   -1.5063   -2.1367 H   0  0  0  0  0  0  0  0  0  0  0  0
    0.0190   -2.2451   -0.3210 H   0  0  0  0  0  0  0  0  0  0  0  0
   -1.8366   -1.5741    1.1184 H   0  0  0  0  0  0  0  0  0  0  0  0
   -0.6657   -0.5826    2.0586 H   0  0  0  0  0  0  0  0  0  0  0  0
   -1.1672    1.2874    0.7096 H   0  0  0  0  0  0  0  0  0  0  0  0
   -3.0840    0.4948   -1.2008 H   0  0  0  0  0  0  0  0  0  0  0  0
   -3.4635    1.1888    0.3952 H   0  0  0  0  0  0  0  0  0  0  0  0
   -3.4358   -0.5778    0.2469 H   0  0  0  0  0  0  0  0  0  0  0  0
   -1.0043   -0.4979   -1.8326 H   0  0  0  0  0  0  0  0  0  0  0  0
  1  2  1  0
  2  3  1  0
  3  4  1  0
  3  5  1  0
  5  6  1  0
  6  7  1  0
  7  8  1  0
  7  9  1  0
  9  3  1  0
  9  5  1  0
  1 10  1  0
  1 11  1  0
  1 12  1  0
  2 13  1  0
  2 14  1  0
  4 15  1  0
  5 16  1  0
  6 17  1  0
  6 18  1  0
  7 19  1  0
  8 20  1  0
  8 21  1  0
  8 22  1  0
  9 23  1  0
M  END
