
     RDKit          3D

 23 24  0  0  0  0  0  0  0  0999 V2000
   -3.0827    1.0756    0.2646 C   0  0  0  0  0  0  0  0  0  0  0  0
   -2.5693   -0.1701   -0.4276 C   0  0  0  0  0  0  0  0  0  0  0  0
   -1.2312   -0.4933    0.1485 C   0  0  0  0  0  0  0  0  0  0  0  0
   -0.4409   -1.6611   -0.3067 C   0  0  0  0  0  0  0  0  0  0  0  0
    0.0113   -0.3155   -0.7017 C   0  0  0  0  0  0  0  0  0  0  0  0
    1.2001    0.3484   -0.0411 C   0  0  0  0  0  0  0  0  0  0  0  0
    1.6759   -0.4094    1.1413 O   0  0  0  0  0  0  0  0  0  0  0  0
    2.4881   -0.1756   -0.0783 C   0  0  0  0  0  0  0  0  0  0  0  0
    3.6808    0.6784    0.3127 C   0  0  0  0  0  0  0  0  0  0  0  0
   -2.2436    1.7997    0.4125 H   0  0  0  0  0  0  0  0  0  0  0  0
   -3.9162    1.5531   -0.2503 H   0  0  0  0  0  0  0  0  0  0  0  0
   -3.3882    0.7790    1.3085 H   0  0  0  0  0  0  0  0  0  0  0  0
   -2.5650   -0.0667   -1.5295 H   0  0  0  0  0  0  0  0  0  0  0  0
   -3.2749   -1.0103   -0.2007 H   0  0  0  0  0  0  0  0  0  0  0  0
   -1.1188   -0.2149    1.2330 H   0  0  0  0  0  0  0  0  0  0  0  0
   -0.8501   -2.3576   -1.0704 H   0  0  0  0  0  0  0  0  0  0  0  0
    0.1859   -2.1861    0.4435 H   0  0  0  0  0  0  0  0  0  0  0  0
   -0.1535   -0.0349   -1.7570 H   0  0  0  0  0  0  0  0  0  0  0  0
    0.9920    1.3839    0.3057 H   0  0  0  0  0  0  0  0  0  0  0  0
    2.7202   -1.1687   -0.5005 H   0  0  0  0  0  0  0  0  0  0  0  0
    3.3325    1.7130    0.5153 H   0  0  0  0  0  0  0  0  0  0  0  0
    4.4619    0.6621   -0.4686 H   0  0  0  0  0  0  0  0  0  0  0  0
    4.0857    0.2711    1.2467 H   0  0  0  0  0  0  0  0  0  0  0  0
  1  2  1  0
  2  3  1  0
  3  4  1  0
  4  5  1  0
  5  6  1  0
  6  7  1  0
  7  8  1  0
  8  9  1  0
  5  3  1  0
  8  6  1  0
  1 10  1  0
  1 11  1  0
  1 12  1  0
  2 13  1  0
  2 14  1  0
  3 15  1  0
  4 16  1  0
  4 17  1  0
  5 18  1  0
  6 19  1  0
  8 20  1  0
  9 21  1  0
  9 22  1  0
  9 23  1  0
M  END
