
     RDKit          3D

 23 24  0  0  0  0  0  0  0  0999 V2000
    2.4212    0.7291    0.5344 C   0  0  0  0  0  0  0  0  0  0  0  0
    1.9590   -0.1053   -0.6328 C   0  0  0  0  0  0  0  0  0  0  0  0
    0.4860   -0.3034   -0.6034 C   0  0  0  0  0  0  0  0  0  0  0  0
   -0.4478    0.0436   -1.5061 C   0  0  0  0  0  0  0  0  0  0  0  0
   -1.6972   -0.4115   -0.8618 C   0  0  0  0  0  0  0  0  0  0  0  0
   -1.2609   -1.8003   -0.3695 C   0  0  0  0  0  0  0  0  0  0  0  0
   -0.2875   -0.9442    0.4576 C   0  0  0  0  0  0  0  0  0  0  0  0
   -1.4756    0.0004    0.5916 C   0  0  0  0  0  0  0  0  0  0  0  0
   -1.1334    1.4327    0.8081 C   0  0  0  0  0  0  0  0  0  0  0  0
    1.7756    0.6260    1.4275 H   0  0  0  0  0  0  0  0  0  0  0  0
    3.4649    0.3885    0.7947 H   0  0  0  0  0  0  0  0  0  0  0  0
    2.4993    1.8217    0.2568 H   0  0  0  0  0  0  0  0  0  0  0  0
    2.4609   -1.1109   -0.6420 H   0  0  0  0  0  0  0  0  0  0  0  0
    2.2778    0.4298   -1.5628 H   0  0  0  0  0  0  0  0  0  0  0  0
   -0.3490    0.5305   -2.4652 H   0  0  0  0  0  0  0  0  0  0  0  0
   -2.6359   -0.2980   -1.3029 H   0  0  0  0  0  0  0  0  0  0  0  0
   -0.7576   -2.4057   -1.1464 H   0  0  0  0  0  0  0  0  0  0  0  0
   -2.0294   -2.3064    0.2133 H   0  0  0  0  0  0  0  0  0  0  0  0
    0.1434   -1.3636    1.3151 H   0  0  0  0  0  0  0  0  0  0  0  0
   -2.2381   -0.4303    1.2394 H   0  0  0  0  0  0  0  0  0  0  0  0
   -0.7029    1.9195   -0.0762 H   0  0  0  0  0  0  0  0  0  0  0  0
   -2.0618    1.9676    1.0923 H   0  0  0  0  0  0  0  0  0  0  0  0
   -0.4110    1.5902    1.6442 H   0  0  0  0  0  0  0  0  0  0  0  0
  1  2  1  0
  2  3  1  0
  3  4  2  0
  4  5  1  0
  5  6  1  0
  6  7  1  0
  7  8  1  0
  8  9  1  0
  7  3  1  0
  8  5  1  0
  1 10  1  0
  1 11  1  0
  1 12  1  0
  2 13  1  0
  2 14  1  0
  4 15  1  0
  5 16  1  0
  6 17  1  0
  6 18  1  0
  7 19  1  0
  8 20  1  0
  9 21  1  0
  9 22  1  0
  9 23  1  0
M  END
