
     RDKit          3D

 23 23  0  0  0  0  0  0  0  0999 V2000
    1.8335    0.5305    1.0487 C   0  0  0  0  0  0  0  0  0  0  0  0
    1.8547    0.0742   -0.3593 C   0  0  0  0  0  0  0  0  0  0  0  0
    0.4950   -0.0954   -0.9889 C   0  0  0  0  0  0  0  0  0  0  0  0
   -0.3060    1.1630   -1.0157 C   0  0  0  0  0  0  0  0  0  0  0  0
   -1.1499    1.3696    0.1765 C   0  0  0  0  0  0  0  0  0  0  0  0
   -1.8077    0.3268    0.6615 C   0  0  0  0  0  0  0  0  0  0  0  0
   -1.6529   -0.9691   -0.0212 C   0  0  0  0  0  0  0  0  0  0  0  0
   -2.0364   -1.9656    0.9028 O   0  0  0  0  0  0  0  0  0  0  0  0
   -0.2529   -1.2779   -0.4418 C   0  0  0  0  0  0  0  0  0  0  0  0
    1.0191    1.1919    1.3336 H   0  0  0  0  0  0  0  0  0  0  0  0
    1.8942   -0.3291    1.7791 H   0  0  0  0  0  0  0  0  0  0  0  0
    2.7861    1.1099    1.2322 H   0  0  0  0  0  0  0  0  0  0  0  0
    2.3654   -0.9164   -0.4391 H   0  0  0  0  0  0  0  0  0  0  0  0
    2.4292    0.7780   -1.0019 H   0  0  0  0  0  0  0  0  0  0  0  0
    0.7182   -0.3454   -2.0717 H   0  0  0  0  0  0  0  0  0  0  0  0
    0.3674    2.0110   -1.2313 H   0  0  0  0  0  0  0  0  0  0  0  0
   -1.0071    1.0943   -1.8923 H   0  0  0  0  0  0  0  0  0  0  0  0
   -1.1889    2.3680    0.5963 H   0  0  0  0  0  0  0  0  0  0  0  0
   -2.4418    0.4608    1.5494 H   0  0  0  0  0  0  0  0  0  0  0  0
   -2.3873   -1.0226   -0.8568 H   0  0  0  0  0  0  0  0  0  0  0  0
   -1.5418   -1.7366    1.7465 H   0  0  0  0  0  0  0  0  0  0  0  0
   -0.3000   -2.1352   -1.1541 H   0  0  0  0  0  0  0  0  0  0  0  0
    0.3099   -1.6847    0.4473 H   0  0  0  0  0  0  0  0  0  0  0  0
  1  2  1  0
  2  3  1  0
  3  4  1  0
  4  5  1  0
  5  6  2  0
  6  7  1  0
  7  8  1  0
  7  9  1  0
  9  3  1  0
  1 10  1  0
  1 11  1  0
  1 12  1  0
  2 13  1  0
  2 14  1  0
  3 15  1  0
  4 16  1  0
  4 17  1  0
  5 18  1  0
  6 19  1  0
  7 20  1  0
  8 21  1  0
  9 22  1  0
  9 23  1  0
M  END
