
     RDKit          3D

 23 24  0  0  0  0  0  0  0  0999 V2000
    2.6255   -0.1173   -0.4938 C   0  0  0  0  0  0  0  0  0  0  0  0
    1.6770    0.4068    0.5513 C   0  0  0  0  0  0  0  0  0  0  0  0
    0.2574    0.1576    0.1081 C   0  0  0  0  0  0  0  0  0  0  0  0
   -0.1712    0.7835   -1.1728 C   0  0  0  0  0  0  0  0  0  0  0  0
   -1.5964    1.2168   -0.9855 C   0  0  0  0  0  0  0  0  0  0  0  0
   -1.9657    1.0481    0.2672 C   0  0  0  0  0  0  0  0  0  0  0  0
   -0.8640    0.4935    1.0634 C   0  0  0  0  0  0  0  0  0  0  0  0
   -0.5006   -0.9211    0.7731 C   0  0  0  0  0  0  0  0  0  0  0  0
   -1.4260   -1.7777   -0.0305 C   0  0  0  0  0  0  0  0  0  0  0  0
    2.0990   -0.1704   -1.4705 H   0  0  0  0  0  0  0  0  0  0  0  0
    3.5465    0.4800   -0.5368 H   0  0  0  0  0  0  0  0  0  0  0  0
    2.9173   -1.1812   -0.2701 H   0  0  0  0  0  0  0  0  0  0  0  0
    1.8431   -0.1606    1.4925 H   0  0  0  0  0  0  0  0  0  0  0  0
    1.8541    1.4917    0.6779 H   0  0  0  0  0  0  0  0  0  0  0  0
   -0.0389    0.1520   -2.0592 H   0  0  0  0  0  0  0  0  0  0  0  0
    0.4260    1.7222   -1.3283 H   0  0  0  0  0  0  0  0  0  0  0  0
   -2.2072    1.6087   -1.7895 H   0  0  0  0  0  0  0  0  0  0  0  0
   -2.9509    1.2898    0.6434 H   0  0  0  0  0  0  0  0  0  0  0  0
   -0.5193    1.0053    1.9813 H   0  0  0  0  0  0  0  0  0  0  0  0
    0.0267   -1.4459    1.5910 H   0  0  0  0  0  0  0  0  0  0  0  0
   -0.9233   -2.2492   -0.9153 H   0  0  0  0  0  0  0  0  0  0  0  0
   -1.7735   -2.6257    0.5957 H   0  0  0  0  0  0  0  0  0  0  0  0
   -2.3357   -1.2067   -0.3552 H   0  0  0  0  0  0  0  0  0  0  0  0
  1  2  1  0
  2  3  1  0
  3  4  1  0
  4  5  1  0
  5  6  2  0
  6  7  1  0
  7  8  1  0
  8  9  1  0
  7  3  1  0
  8  3  1  0
  1 10  1  0
  1 11  1  0
  1 12  1  0
  2 13  1  0
  2 14  1  0
  4 15  1  0
  4 16  1  0
  5 17  1  0
  6 18  1  0
  7 19  1  0
  8 20  1  0
  9 21  1  0
  9 22  1  0
  9 23  1  0
M  END
