
     RDKit          3D

 23 24  0  0  0  0  0  0  0  0999 V2000
    2.9025    0.6419   -0.4519 C   0  0  0  0  0  0  0  0  0  0  0  0
    1.9038   -0.4678   -0.3423 C   0  0  0  0  0  0  0  0  0  0  0  0
    0.6473   -0.0300    0.4285 C   0  0  0  0  0  0  0  0  0  0  0  0
   -0.2511   -1.2262    0.4588 C   0  0  0  0  0  0  0  0  0  0  0  0
   -1.6885   -0.9208    0.8321 C   0  0  0  0  0  0  0  0  0  0  0  0
   -1.8636    0.5235    0.5672 C   0  0  0  0  0  0  0  0  0  0  0  0
   -2.3631    1.2330   -0.5548 C   0  0  0  0  0  0  0  0  0  0  0  0
   -1.0652    0.7054   -0.7616 C   0  0  0  0  0  0  0  0  0  0  0  0
    0.1580    1.0490   -0.3211 O   0  0  0  0  0  0  0  0  0  0  0  0
    3.1060    0.7986   -1.5372 H   0  0  0  0  0  0  0  0  0  0  0  0
    2.4487    1.5485    0.0117 H   0  0  0  0  0  0  0  0  0  0  0  0
    3.8162    0.3696    0.1030 H   0  0  0  0  0  0  0  0  0  0  0  0
    2.3392   -1.3412    0.1797 H   0  0  0  0  0  0  0  0  0  0  0  0
    1.5458   -0.8265   -1.3489 H   0  0  0  0  0  0  0  0  0  0  0  0
    0.9849    0.2898    1.4217 H   0  0  0  0  0  0  0  0  0  0  0  0
    0.1367   -1.8991    1.2522 H   0  0  0  0  0  0  0  0  0  0  0  0
   -0.1952   -1.8070   -0.4854 H   0  0  0  0  0  0  0  0  0  0  0  0
   -1.9144   -1.1671    1.8896 H   0  0  0  0  0  0  0  0  0  0  0  0
   -2.3509   -1.5414    0.2059 H   0  0  0  0  0  0  0  0  0  0  0  0
   -1.5207    1.1359    1.4532 H   0  0  0  0  0  0  0  0  0  0  0  0
   -3.2221    0.7883   -1.1267 H   0  0  0  0  0  0  0  0  0  0  0  0
   -2.5610    2.3374   -0.4289 H   0  0  0  0  0  0  0  0  0  0  0  0
   -0.9934   -0.1939   -1.4446 H   0  0  0  0  0  0  0  0  0  0  0  0
  1  2  1  0
  2  3  1  0
  3  4  1  0
  4  5  1  0
  5  6  1  0
  6  7  1  0
  7  8  1  0
  8  9  1  0
  9  3  1  0
  8  6  1  0
  1 10  1  0
  1 11  1  0
  1 12  1  0
  2 13  1  0
  2 14  1  0
  3 15  1  0
  4 16  1  0
  4 17  1  0
  5 18  1  0
  5 19  1  0
  6 20  1  0
  7 21  1  0
  7 22  1  0
  8 23  1  0
M  END
