
     RDKit          3D

 25 26  0  0  0  0  0  0  0  0999 V2000
   -3.3325   -0.0938   -0.0963 C   0  0  0  0  0  0  0  0  0  0  0  0
   -2.2113    0.8518    0.3157 C   0  0  0  0  0  0  0  0  0  0  0  0
   -1.0863    0.0176    0.8316 C   0  0  0  0  0  0  0  0  0  0  0  0
   -0.4800   -0.9746   -0.0988 C   0  0  0  0  0  0  0  0  0  0  0  0
    0.9058   -0.4801    0.2729 C   0  0  0  0  0  0  0  0  0  0  0  0
    1.8980   -0.2733   -0.8167 C   0  0  0  0  0  0  0  0  0  0  0  0
    3.1955    0.2149   -0.2169 C   0  0  0  0  0  0  0  0  0  0  0  0
    1.2671   -0.1610    1.6474 C   0  0  0  0  0  0  0  0  0  0  0  0
    0.2469    0.6710    0.9611 C   0  0  0  0  0  0  0  0  0  0  0  0
   -3.4387   -0.8399    0.7330 H   0  0  0  0  0  0  0  0  0  0  0  0
   -4.2722    0.4981   -0.1317 H   0  0  0  0  0  0  0  0  0  0  0  0
   -3.0953   -0.5926   -1.0395 H   0  0  0  0  0  0  0  0  0  0  0  0
   -1.9499    1.5167   -0.5068 H   0  0  0  0  0  0  0  0  0  0  0  0
   -2.6132    1.4386    1.1807 H   0  0  0  0  0  0  0  0  0  0  0  0
   -1.3899   -0.4851    1.7881 H   0  0  0  0  0  0  0  0  0  0  0  0
   -0.7174   -0.7380   -1.1608 H   0  0  0  0  0  0  0  0  0  0  0  0
   -0.6572   -2.0415    0.1118 H   0  0  0  0  0  0  0  0  0  0  0  0
    1.5580    0.5031   -1.5496 H   0  0  0  0  0  0  0  0  0  0  0  0
    2.1399   -1.2057   -1.3715 H   0  0  0  0  0  0  0  0  0  0  0  0
    3.4930   -0.5255    0.5673 H   0  0  0  0  0  0  0  0  0  0  0  0
    3.0086    1.1941    0.2440 H   0  0  0  0  0  0  0  0  0  0  0  0
    3.9946    0.3047   -0.9932 H   0  0  0  0  0  0  0  0  0  0  0  0
    0.8740   -0.7846    2.4869 H   0  0  0  0  0  0  0  0  0  0  0  0
    2.2081    0.3175    1.8733 H   0  0  0  0  0  0  0  0  0  0  0  0
    0.4544    1.6676    0.5643 H   0  0  0  0  0  0  0  0  0  0  0  0
  1  2  1  0
  2  3  1  0
  3  4  1  0
  4  5  1  0
  5  6  1  0
  6  7  1  0
  5  8  1  0
  8  9  1  0
  9  3  1  0
  9  5  1  0
  1 10  1  0
  1 11  1  0
  1 12  1  0
  2 13  1  0
  2 14  1  0
  3 15  1  0
  4 16  1  0
  4 17  1  0
  6 18  1  0
  6 19  1  0
  7 20  1  0
  7 21  1  0
  7 22  1  0
  8 23  1  0
  8 24  1  0
  9 25  1  0
M  END
