
     RDKit          3D

 23 24  0  0  0  0  0  0  0  0999 V2000
   -2.6271   -0.3392    0.3927 C   0  0  0  0  0  0  0  0  0  0  0  0
   -1.4674   -0.6891   -0.4901 C   0  0  0  0  0  0  0  0  0  0  0  0
   -0.3359    0.3250   -0.3979 C   0  0  0  0  0  0  0  0  0  0  0  0
   -0.8355    1.7157   -0.8199 C   0  0  0  0  0  0  0  0  0  0  0  0
    0.5610    0.1944    0.6732 C   0  0  0  0  0  0  0  0  0  0  0  0
    1.5360   -0.8344    1.1095 C   0  0  0  0  0  0  0  0  0  0  0  0
    2.7467   -0.3404    0.2883 C   0  0  0  0  0  0  0  0  0  0  0  0
    2.1963    0.5283   -0.6916 O   0  0  0  0  0  0  0  0  0  0  0  0
    0.9573   -0.0002   -0.8480 C   0  0  0  0  0  0  0  0  0  0  0  0
   -3.5531   -0.3818   -0.2263 H   0  0  0  0  0  0  0  0  0  0  0  0
   -2.4975    0.6541    0.8842 H   0  0  0  0  0  0  0  0  0  0  0  0
   -2.7568   -1.1275    1.1757 H   0  0  0  0  0  0  0  0  0  0  0  0
   -1.0956   -1.6918   -0.2395 H   0  0  0  0  0  0  0  0  0  0  0  0
   -1.7741   -0.7331   -1.5661 H   0  0  0  0  0  0  0  0  0  0  0  0
   -0.2106    2.4909   -0.3353 H   0  0  0  0  0  0  0  0  0  0  0  0
   -1.9081    1.8331   -0.6723 H   0  0  0  0  0  0  0  0  0  0  0  0
   -0.6217    1.7735   -1.9136 H   0  0  0  0  0  0  0  0  0  0  0  0
    0.8948    1.1836    1.1242 H   0  0  0  0  0  0  0  0  0  0  0  0
    1.7487   -0.7678    2.1949 H   0  0  0  0  0  0  0  0  0  0  0  0
    1.3457   -1.8533    0.7585 H   0  0  0  0  0  0  0  0  0  0  0  0
    3.2878   -1.1699   -0.1604 H   0  0  0  0  0  0  0  0  0  0  0  0
    3.3409    0.3062    0.9462 H   0  0  0  0  0  0  0  0  0  0  0  0
    1.0682   -1.0762   -1.1865 H   0  0  0  0  0  0  0  0  0  0  0  0
  1  2  1  0
  2  3  1  0
  3  4  1  0
  3  5  1  0
  5  6  1  0
  6  7  1  0
  7  8  1  0
  8  9  1  0
  9  3  1  0
  9  5  1  0
  1 10  1  0
  1 11  1  0
  1 12  1  0
  2 13  1  0
  2 14  1  0
  4 15  1  0
  4 16  1  0
  4 17  1  0
  5 18  1  0
  6 19  1  0
  6 20  1  0
  7 21  1  0
  7 22  1  0
  9 23  1  0
M  END
