
     RDKit          3D

 21 22  0  0  0  0  0  0  0  0999 V2000
    2.4886   -0.0912    0.6207 C   0  0  0  0  0  0  0  0  0  0  0  0
    1.4804   -0.3152   -0.4857 C   0  0  0  0  0  0  0  0  0  0  0  0
    0.1485    0.2348   -0.0318 C   0  0  0  0  0  0  0  0  0  0  0  0
   -0.3920   -0.4049    1.2132 C   0  0  0  0  0  0  0  0  0  0  0  0
   -1.0959   -1.5054    0.6717 O   0  0  0  0  0  0  0  0  0  0  0  0
   -1.8998   -0.8817   -0.2833 C   0  0  0  0  0  0  0  0  0  0  0  0
   -0.9778    0.0355   -1.0147 C   0  0  0  0  0  0  0  0  0  0  0  0
   -1.2406    1.4734   -0.6848 C   0  0  0  0  0  0  0  0  0  0  0  0
    0.0428    1.6012   -0.1282 O   0  0  0  0  0  0  0  0  0  0  0  0
    2.3601    0.9450    1.0394 H   0  0  0  0  0  0  0  0  0  0  0  0
    3.5234   -0.1605    0.1774 H   0  0  0  0  0  0  0  0  0  0  0  0
    2.3617   -0.8269    1.4387 H   0  0  0  0  0  0  0  0  0  0  0  0
    1.8349    0.2347   -1.3658 H   0  0  0  0  0  0  0  0  0  0  0  0
    1.4170   -1.4080   -0.6511 H   0  0  0  0  0  0  0  0  0  0  0  0
   -1.1444    0.2605    1.6972 H   0  0  0  0  0  0  0  0  0  0  0  0
    0.3798   -0.7468    1.9176 H   0  0  0  0  0  0  0  0  0  0  0  0
   -2.4278   -1.6049   -0.9194 H   0  0  0  0  0  0  0  0  0  0  0  0
   -2.6861   -0.3249    0.3000 H   0  0  0  0  0  0  0  0  0  0  0  0
   -0.7058   -0.2111   -2.0391 H   0  0  0  0  0  0  0  0  0  0  0  0
   -1.4375    2.0773   -1.5707 H   0  0  0  0  0  0  0  0  0  0  0  0
   -2.0294    1.6192    0.0989 H   0  0  0  0  0  0  0  0  0  0  0  0
  1  2  1  0
  2  3  1  0
  3  4  1  0
  4  5  1  0
  5  6  1  0
  6  7  1  0
  7  8  1  0
  8  9  1  0
  7  3  1  0
  9  3  1  0
  1 10  1  0
  1 11  1  0
  1 12  1  0
  2 13  1  0
  2 14  1  0
  4 15  1  0
  4 16  1  0
  6 17  1  0
  6 18  1  0
  7 19  1  0
  8 20  1  0
  8 21  1  0
M  END
