
     RDKit          3D

 13 13  0  0  0  0  0  0  0  0999 V2000
    1.5136    0.0853   -0.3700 C   0  0  0  0  0  0  0  0  0  0  0  0
    0.5686   -0.2591    0.7453 C   0  0  0  0  0  0  0  0  0  0  0  0
   -0.8309   -0.4731    0.3157 C   0  0  0  0  0  0  0  0  0  0  0  0
   -1.6599    0.5120   -0.3449 C   0  0  0  0  0  0  0  0  0  0  0  0
   -0.9599   -0.3958   -1.1413 O   0  0  0  0  0  0  0  0  0  0  0  0
    2.4795    0.4301    0.0394 H   0  0  0  0  0  0  0  0  0  0  0  0
    1.1366    0.9188   -1.0067 H   0  0  0  0  0  0  0  0  0  0  0  0
    1.6162   -0.7918   -1.0418 H   0  0  0  0  0  0  0  0  0  0  0  0
    0.6230    0.5644    1.5127 H   0  0  0  0  0  0  0  0  0  0  0  0
    0.9730   -1.1532    1.2575 H   0  0  0  0  0  0  0  0  0  0  0  0
   -1.3345   -1.3602    0.7549 H   0  0  0  0  0  0  0  0  0  0  0  0
   -1.3742    1.5739   -0.3561 H   0  0  0  0  0  0  0  0  0  0  0  0
   -2.7510    0.3488   -0.3647 H   0  0  0  0  0  0  0  0  0  0  0  0
  1  2  1  0
  2  3  1  0
  3  4  1  0
  4  5  1  0
  5  3  1  0
  1  6  1  0
  1  7  1  0
  1  8  1  0
  2  9  1  0
  2 10  1  0
  3 11  1  0
  4 12  1  0
  4 13  1  0
M  END
