
     RDKit          3D

 25 26  0  0  0  0  0  0  0  0999 V2000
    2.7542    1.0541   -0.3465 C   0  0  0  0  0  0  0  0  0  0  0  0
    1.8825    0.2385    0.5820 C   0  0  0  0  0  0  0  0  0  0  0  0
    0.7248   -0.3620   -0.1834 C   0  0  0  0  0  0  0  0  0  0  0  0
   -0.1419   -1.1749    0.7468 C   0  0  0  0  0  0  0  0  0  0  0  0
   -0.2273   -2.6363    0.4616 C   0  0  0  0  0  0  0  0  0  0  0  0
   -1.3356   -0.4366    0.2109 C   0  0  0  0  0  0  0  0  0  0  0  0
   -1.3635    1.0231    0.4926 C   0  0  0  0  0  0  0  0  0  0  0  0
   -2.6088    1.7196    0.0608 C   0  0  0  0  0  0  0  0  0  0  0  0
   -0.3857    0.5652   -0.5262 C   0  0  0  0  0  0  0  0  0  0  0  0
    3.6045    1.4810    0.2112 H   0  0  0  0  0  0  0  0  0  0  0  0
    3.1785    0.4317   -1.1770 H   0  0  0  0  0  0  0  0  0  0  0  0
    2.1847    1.8679   -0.8198 H   0  0  0  0  0  0  0  0  0  0  0  0
    2.5218   -0.5587    1.0130 H   0  0  0  0  0  0  0  0  0  0  0  0
    1.5702    0.8890    1.3999 H   0  0  0  0  0  0  0  0  0  0  0  0
    1.1013   -0.9393   -1.0540 H   0  0  0  0  0  0  0  0  0  0  0  0
   -0.0192   -0.9716    1.8200 H   0  0  0  0  0  0  0  0  0  0  0  0
   -1.1831   -3.0056    0.9315 H   0  0  0  0  0  0  0  0  0  0  0  0
    0.5886   -3.2102    0.9884 H   0  0  0  0  0  0  0  0  0  0  0  0
   -0.2475   -2.8893   -0.6012 H   0  0  0  0  0  0  0  0  0  0  0  0
   -2.0887   -0.9215   -0.4026 H   0  0  0  0  0  0  0  0  0  0  0  0
   -0.9117    1.3959    1.4423 H   0  0  0  0  0  0  0  0  0  0  0  0
   -3.2874    1.0561   -0.5518 H   0  0  0  0  0  0  0  0  0  0  0  0
   -3.2239    1.9502    0.9785 H   0  0  0  0  0  0  0  0  0  0  0  0
   -2.4370    2.6549   -0.5090 H   0  0  0  0  0  0  0  0  0  0  0  0
   -0.6496    0.7785   -1.5772 H   0  0  0  0  0  0  0  0  0  0  0  0
  1  2  1  0
  2  3  1  0
  3  4  1  0
  4  5  1  0
  4  6  1  0
  6  7  1  0
  7  8  1  0
  7  9  1  0
  9  3  1  0
  9  6  1  0
  1 10  1  0
  1 11  1  0
  1 12  1  0
  2 13  1  0
  2 14  1  0
  3 15  1  0
  4 16  1  0
  5 17  1  0
  5 18  1  0
  5 19  1  0
  6 20  1  0
  7 21  1  0
  8 22  1  0
  8 23  1  0
  8 24  1  0
  9 25  1  0
M  END
