
     RDKit          3D

 21 22  0  0  0  0  0  0  0  0999 V2000
    2.0508   -0.8918    0.2820 C   0  0  0  0  0  0  0  0  0  0  0  0
    1.4146    0.3967   -0.1124 C   0  0  0  0  0  0  0  0  0  0  0  0
    0.0742    0.2590   -0.7957 C   0  0  0  0  0  0  0  0  0  0  0  0
   -0.8560   -0.4106    0.1240 C   0  0  0  0  0  0  0  0  0  0  0  0
   -0.8794   -1.8837    0.4822 C   0  0  0  0  0  0  0  0  0  0  0  0
   -1.7095    0.4852    0.5997 C   0  0  0  0  0  0  0  0  0  0  0  0
   -1.4455    1.8302    0.0533 C   0  0  0  0  0  0  0  0  0  0  0  0
   -0.2528    2.4731    0.1050 O   0  0  0  0  0  0  0  0  0  0  0  0
   -0.5318    1.6344   -0.9766 C   0  0  0  0  0  0  0  0  0  0  0  0
    1.5589   -1.3800    1.1208 H   0  0  0  0  0  0  0  0  0  0  0  0
    2.0010   -1.5888   -0.6044 H   0  0  0  0  0  0  0  0  0  0  0  0
    3.1347   -0.7100    0.4705 H   0  0  0  0  0  0  0  0  0  0  0  0
    1.3167    1.0453    0.7731 H   0  0  0  0  0  0  0  0  0  0  0  0
    2.0859    0.9238   -0.8502 H   0  0  0  0  0  0  0  0  0  0  0  0
    0.1750   -0.2700   -1.7705 H   0  0  0  0  0  0  0  0  0  0  0  0
   -0.1789   -2.4118   -0.1531 H   0  0  0  0  0  0  0  0  0  0  0  0
   -1.8870   -2.3103    0.2716 H   0  0  0  0  0  0  0  0  0  0  0  0
   -0.6901   -2.0006    1.5522 H   0  0  0  0  0  0  0  0  0  0  0  0
   -2.5128    0.2223    1.3208 H   0  0  0  0  0  0  0  0  0  0  0  0
   -2.3358    2.4932    0.1013 H   0  0  0  0  0  0  0  0  0  0  0  0
   -0.5322    2.0947   -1.9935 H   0  0  0  0  0  0  0  0  0  0  0  0
  1  2  1  0
  2  3  1  0
  3  4  1  0
  4  5  1  0
  4  6  2  0
  6  7  1  0
  7  8  1  0
  8  9  1  0
  9  3  1  0
  9  7  1  0
  1 10  1  0
  1 11  1  0
  1 12  1  0
  2 13  1  0
  2 14  1  0
  3 15  1  0
  5 16  1  0
  5 17  1  0
  5 18  1  0
  6 19  1  0
  7 20  1  0
  9 21  1  0
M  END
