
     RDKit          3D

 25 25  0  0  0  0  0  0  0  0999 V2000
   -2.5423    0.8453    0.5118 C   0  0  0  0  0  0  0  0  0  0  0  0
   -1.3909    0.7647   -0.4682 C   0  0  0  0  0  0  0  0  0  0  0  0
   -0.5200   -0.4478   -0.1971 C   0  0  0  0  0  0  0  0  0  0  0  0
   -1.2273   -1.7613   -0.2950 C   0  0  0  0  0  0  0  0  0  0  0  0
    0.2770   -0.2624    1.1012 C   0  0  0  0  0  0  0  0  0  0  0  0
    1.5688   -0.5136    0.3983 C   0  0  0  0  0  0  0  0  0  0  0  0
    2.5903    0.5867    0.4372 C   0  0  0  0  0  0  0  0  0  0  0  0
    2.1641    1.7612   -0.1194 O   0  0  0  0  0  0  0  0  0  0  0  0
    0.7890   -0.4731   -0.9200 C   0  0  0  0  0  0  0  0  0  0  0  0
   -2.7614    1.9157    0.7214 H   0  0  0  0  0  0  0  0  0  0  0  0
   -2.2283    0.4019    1.4731 H   0  0  0  0  0  0  0  0  0  0  0  0
   -3.4648    0.3920    0.1045 H   0  0  0  0  0  0  0  0  0  0  0  0
   -1.7221    0.8177   -1.5158 H   0  0  0  0  0  0  0  0  0  0  0  0
   -0.7608    1.6638   -0.2873 H   0  0  0  0  0  0  0  0  0  0  0  0
   -2.0447   -1.6773   -1.0416 H   0  0  0  0  0  0  0  0  0  0  0  0
   -1.6755   -2.0568    0.6964 H   0  0  0  0  0  0  0  0  0  0  0  0
   -0.5572   -2.5730   -0.6739 H   0  0  0  0  0  0  0  0  0  0  0  0
    0.1917    0.7653    1.4974 H   0  0  0  0  0  0  0  0  0  0  0  0
   -0.0314   -0.9915    1.8645 H   0  0  0  0  0  0  0  0  0  0  0  0
    1.9863   -1.5003    0.6520 H   0  0  0  0  0  0  0  0  0  0  0  0
    3.4776    0.2232   -0.1366 H   0  0  0  0  0  0  0  0  0  0  0  0
    2.9633    0.7929    1.4637 H   0  0  0  0  0  0  0  0  0  0  0  0
    2.8797    2.3138   -0.5126 H   0  0  0  0  0  0  0  0  0  0  0  0
    1.0237    0.4180   -1.5469 H   0  0  0  0  0  0  0  0  0  0  0  0
    1.0151   -1.4052   -1.4805 H   0  0  0  0  0  0  0  0  0  0  0  0
  1  2  1  0
  2  3  1  0
  3  4  1  0
  3  5  1  0
  5  6  1  0
  6  7  1  0
  7  8  1  0
  6  9  1  0
  9  3  1  0
  1 10  1  0
  1 11  1  0
  1 12  1  0
  2 13  1  0
  2 14  1  0
  4 15  1  0
  4 16  1  0
  4 17  1  0
  5 18  1  0
  5 19  1  0
  6 20  1  0
  7 21  1  0
  7 22  1  0
  8 23  1  0
  9 24  1  0
  9 25  1  0
M  END
