
     RDKit          3D

 21 22  0  0  0  0  0  0  0  0999 V2000
    2.4549    0.2836    0.2447 C   0  0  0  0  0  0  0  0  0  0  0  0
    1.2036    0.3467   -0.5718 C   0  0  0  0  0  0  0  0  0  0  0  0
    0.1352   -0.5957   -0.1535 C   0  0  0  0  0  0  0  0  0  0  0  0
    0.5078   -1.9080   -0.2112 O   0  0  0  0  0  0  0  0  0  0  0  0
   -0.7222   -0.1774    1.0154 C   0  0  0  0  0  0  0  0  0  0  0  0
   -0.9735    1.2580    0.6802 C   0  0  0  0  0  0  0  0  0  0  0  0
   -1.2419    1.1952   -0.6485 C   0  0  0  0  0  0  0  0  0  0  0  0
   -1.1581   -0.2683   -0.9216 C   0  0  0  0  0  0  0  0  0  0  0  0
   -1.8731   -0.8324    0.2709 C   0  0  0  0  0  0  0  0  0  0  0  0
    2.6501    1.2936    0.6656 H   0  0  0  0  0  0  0  0  0  0  0  0
    3.3359    0.0834   -0.4324 H   0  0  0  0  0  0  0  0  0  0  0  0
    2.4431   -0.4648    1.0478 H   0  0  0  0  0  0  0  0  0  0  0  0
    0.7776    1.3907   -0.5907 H   0  0  0  0  0  0  0  0  0  0  0  0
    1.4397    0.1310   -1.6512 H   0  0  0  0  0  0  0  0  0  0  0  0
   -0.0232   -2.5351    0.3091 H   0  0  0  0  0  0  0  0  0  0  0  0
   -0.4900   -0.4650    1.9925 H   0  0  0  0  0  0  0  0  0  0  0  0
   -0.9428    2.1023    1.3410 H   0  0  0  0  0  0  0  0  0  0  0  0
   -1.4609    2.0050   -1.3328 H   0  0  0  0  0  0  0  0  0  0  0  0
   -1.2845   -0.6507   -1.8840 H   0  0  0  0  0  0  0  0  0  0  0  0
   -1.9633   -1.9045    0.3587 H   0  0  0  0  0  0  0  0  0  0  0  0
   -2.8144   -0.2874    0.4718 H   0  0  0  0  0  0  0  0  0  0  0  0
  1  2  1  0
  2  3  1  0
  3  4  1  0
  3  5  1  0
  5  6  1  0
  6  7  2  0
  7  8  1  0
  8  9  1  0
  8  3  1  0
  9  5  1  0
  1 10  1  0
  1 11  1  0
  1 12  1  0
  2 13  1  0
  2 14  1  0
  4 15  1  0
  5 16  1  0
  6 17  1  0
  7 18  1  0
  8 19  1  0
  9 20  1  0
  9 21  1  0
M  END
