
     RDKit          3D

 23 24  0  0  0  0  0  0  0  0999 V2000
   -2.9225    0.5401    0.8112 C   0  0  0  0  0  0  0  0  0  0  0  0
   -2.3158   -0.2427   -0.3536 C   0  0  0  0  0  0  0  0  0  0  0  0
   -0.8635    0.1074   -0.4118 C   0  0  0  0  0  0  0  0  0  0  0  0
   -0.0502   -0.5445   -1.4854 C   0  0  0  0  0  0  0  0  0  0  0  0
    1.0412   -0.6480   -0.4422 C   0  0  0  0  0  0  0  0  0  0  0  0
    2.1368    0.3572   -0.3946 C   0  0  0  0  0  0  0  0  0  0  0  0
    3.0659   -0.0104    0.7454 C   0  0  0  0  0  0  0  0  0  0  0  0
    0.7909   -1.5408    0.5494 O   0  0  0  0  0  0  0  0  0  0  0  0
    0.0045   -0.4348    0.6562 C   0  0  0  0  0  0  0  0  0  0  0  0
   -2.1119    0.8550    1.5272 H   0  0  0  0  0  0  0  0  0  0  0  0
   -3.6203   -0.0746    1.3928 H   0  0  0  0  0  0  0  0  0  0  0  0
   -3.3728    1.4808    0.4330 H   0  0  0  0  0  0  0  0  0  0  0  0
   -2.5092   -1.3192   -0.2801 H   0  0  0  0  0  0  0  0  0  0  0  0
   -2.7837    0.1053   -1.3174 H   0  0  0  0  0  0  0  0  0  0  0  0
   -0.7554    1.2244   -0.4953 H   0  0  0  0  0  0  0  0  0  0  0  0
    0.1807    0.0310   -2.3758 H   0  0  0  0  0  0  0  0  0  0  0  0
   -0.4539   -1.5718   -1.7096 H   0  0  0  0  0  0  0  0  0  0  0  0
    1.7470    1.3866   -0.1476 H   0  0  0  0  0  0  0  0  0  0  0  0
    2.6808    0.4801   -1.3591 H   0  0  0  0  0  0  0  0  0  0  0  0
    2.5738   -0.7297    1.4529 H   0  0  0  0  0  0  0  0  0  0  0  0
    3.3520    0.8700    1.3539 H   0  0  0  0  0  0  0  0  0  0  0  0
    3.9601   -0.5545    0.3586 H   0  0  0  0  0  0  0  0  0  0  0  0
    0.2254    0.2330    1.4921 H   0  0  0  0  0  0  0  0  0  0  0  0
  1  2  1  0
  2  3  1  0
  3  4  1  0
  4  5  1  0
  5  6  1  0
  6  7  1  0
  5  8  1  0
  8  9  1  0
  9  3  1  0
  9  5  1  0
  1 10  1  0
  1 11  1  0
  1 12  1  0
  2 13  1  0
  2 14  1  0
  3 15  1  0
  4 16  1  0
  4 17  1  0
  6 18  1  0
  6 19  1  0
  7 20  1  0
  7 21  1  0
  7 22  1  0
  9 23  1  0
M  END
