
     RDKit          3D

 25 25  0  0  0  0  0  0  0  0999 V2000
    2.2582   -0.0142   -0.3478 C   0  0  0  0  0  0  0  0  0  0  0  0
    1.0327   -0.6704    0.1870 C   0  0  0  0  0  0  0  0  0  0  0  0
   -0.2634   -0.0870   -0.3251 C   0  0  0  0  0  0  0  0  0  0  0  0
   -0.4475   -0.1425   -1.8085 C   0  0  0  0  0  0  0  0  0  0  0  0
   -0.7121    1.2085    0.2865 C   0  0  0  0  0  0  0  0  0  0  0  0
    0.3257    2.2335    0.6097 C   0  0  0  0  0  0  0  0  0  0  0  0
   -1.1417    0.4469    1.4006 O   0  0  0  0  0  0  0  0  0  0  0  0
   -1.4653   -0.5381    0.4699 C   0  0  0  0  0  0  0  0  0  0  0  0
   -1.4261   -1.9439    0.9812 C   0  0  0  0  0  0  0  0  0  0  0  0
    2.8487   -0.7300   -0.9714 H   0  0  0  0  0  0  0  0  0  0  0  0
    2.9021    0.2669    0.5133 H   0  0  0  0  0  0  0  0  0  0  0  0
    2.0687    0.9171   -0.9212 H   0  0  0  0  0  0  0  0  0  0  0  0
    1.0135   -0.6254    1.3164 H   0  0  0  0  0  0  0  0  0  0  0  0
    1.1026   -1.7553   -0.0313 H   0  0  0  0  0  0  0  0  0  0  0  0
   -0.0305   -1.1267   -2.1533 H   0  0  0  0  0  0  0  0  0  0  0  0
    0.0647    0.7121   -2.3108 H   0  0  0  0  0  0  0  0  0  0  0  0
   -1.5288   -0.1796   -2.0508 H   0  0  0  0  0  0  0  0  0  0  0  0
   -1.5982    1.5851   -0.2386 H   0  0  0  0  0  0  0  0  0  0  0  0
    0.6281    2.7320   -0.3256 H   0  0  0  0  0  0  0  0  0  0  0  0
   -0.0824    3.0299    1.2875 H   0  0  0  0  0  0  0  0  0  0  0  0
    1.2055    1.8437    1.1088 H   0  0  0  0  0  0  0  0  0  0  0  0
   -2.4076   -0.3034   -0.0201 H   0  0  0  0  0  0  0  0  0  0  0  0
   -2.3446   -2.1011    1.5855 H   0  0  0  0  0  0  0  0  0  0  0  0
   -1.4263   -2.6173    0.0955 H   0  0  0  0  0  0  0  0  0  0  0  0
   -0.5758   -2.1406    1.6624 H   0  0  0  0  0  0  0  0  0  0  0  0
  1  2  1  0
  2  3  1  0
  3  4  1  0
  3  5  1  0
  5  6  1  0
  5  7  1  0
  7  8  1  0
  8  9  1  0
  8  3  1  0
  1 10  1  0
  1 11  1  0
  1 12  1  0
  2 13  1  0
  2 14  1  0
  4 15  1  0
  4 16  1  0
  4 17  1  0
  5 18  1  0
  6 19  1  0
  6 20  1  0
  6 21  1  0
  8 22  1  0
  9 23  1  0
  9 24  1  0
  9 25  1  0
M  END
