
     RDKit          3D

 19 19  0  0  0  0  0  0  0  0999 V2000
   -2.9723   -0.3308   -0.2569 C   0  0  0  0  0  0  0  0  0  0  0  0
   -2.0832    0.8661   -0.3371 C   0  0  0  0  0  0  0  0  0  0  0  0
   -0.6294    0.5282   -0.3844 C   0  0  0  0  0  0  0  0  0  0  0  0
   -0.2416   -0.2884   -1.5106 O   0  0  0  0  0  0  0  0  0  0  0  0
   -0.0610   -0.7626   -0.0967 C   0  0  0  0  0  0  0  0  0  0  0  0
    1.3982   -0.8380    0.1588 C   0  0  0  0  0  0  0  0  0  0  0  0
    1.9882   -1.9079    0.4876 O   0  0  0  0  0  0  0  0  0  0  0  0
    2.1782    0.3002    0.0398 O   0  0  0  0  0  0  0  0  0  0  0  0
    3.5702    0.3284    0.2619 C   0  0  0  0  0  0  0  0  0  0  0  0
   -4.0315    0.0498   -0.2307 H   0  0  0  0  0  0  0  0  0  0  0  0
   -2.8374   -0.9043    0.6764 H   0  0  0  0  0  0  0  0  0  0  0  0
   -2.8544   -0.9361   -1.1740 H   0  0  0  0  0  0  0  0  0  0  0  0
   -2.3377    1.4233   -1.2670 H   0  0  0  0  0  0  0  0  0  0  0  0
   -2.2506    1.5395    0.5224 H   0  0  0  0  0  0  0  0  0  0  0  0
    0.0363    1.4283   -0.2354 H   0  0  0  0  0  0  0  0  0  0  0  0
   -0.6515   -1.6750    0.0044 H   0  0  0  0  0  0  0  0  0  0  0  0
    4.0037    1.1831   -0.3202 H   0  0  0  0  0  0  0  0  0  0  0  0
    4.0701   -0.6277    0.0389 H   0  0  0  0  0  0  0  0  0  0  0  0
    3.7057    0.6240    1.3436 H   0  0  0  0  0  0  0  0  0  0  0  0
  1  2  1  0
  2  3  1  0
  3  4  1  0
  4  5  1  0
  5  6  1  0
  6  7  2  0
  6  8  1  0
  8  9  1  0
  5  3  1  0
  1 10  1  0
  1 11  1  0
  1 12  1  0
  2 13  1  0
  2 14  1  0
  3 15  1  0
  5 16  1  0
  9 17  1  0
  9 18  1  0
  9 19  1  0
M  END
