
     RDKit          3D

 21 21  0  0  0  0  0  0  0  0999 V2000
   -2.9017   -0.4803    0.3152 C   0  0  0  0  0  0  0  0  0  0  0  0
   -1.9598   -0.0667   -0.7945 C   0  0  0  0  0  0  0  0  0  0  0  0
   -0.5672    0.0939   -0.3127 C   0  0  0  0  0  0  0  0  0  0  0  0
   -0.0084    1.2937   -0.4511 C   0  0  0  0  0  0  0  0  0  0  0  0
    1.3268    1.7387   -0.0741 C   0  0  0  0  0  0  0  0  0  0  0  0
    2.3716    0.9567    0.1732 C   0  0  0  0  0  0  0  0  0  0  0  0
    2.5674   -0.4848    0.1648 C   0  0  0  0  0  0  0  0  0  0  0  0
    1.3740   -1.2952    0.4695 C   0  0  0  0  0  0  0  0  0  0  0  0
    0.0895   -1.0549    0.2722 C   0  0  0  0  0  0  0  0  0  0  0  0
   -3.0051    0.3560    1.0636 H   0  0  0  0  0  0  0  0  0  0  0  0
   -2.5440   -1.3540    0.8813 H   0  0  0  0  0  0  0  0  0  0  0  0
   -3.9003   -0.6204   -0.1282 H   0  0  0  0  0  0  0  0  0  0  0  0
   -2.0632   -0.7601   -1.6333 H   0  0  0  0  0  0  0  0  0  0  0  0
   -2.3157    0.9369   -1.1455 H   0  0  0  0  0  0  0  0  0  0  0  0
   -0.6369    2.0378   -0.9070 H   0  0  0  0  0  0  0  0  0  0  0  0
    1.5094    2.8023    0.0193 H   0  0  0  0  0  0  0  0  0  0  0  0
    3.2683    1.5408    0.4386 H   0  0  0  0  0  0  0  0  0  0  0  0
    3.3589   -0.7553    0.9257 H   0  0  0  0  0  0  0  0  0  0  0  0
    3.0382   -0.7772   -0.8167 H   0  0  0  0  0  0  0  0  0  0  0  0
    1.5776   -2.2727    0.9442 H   0  0  0  0  0  0  0  0  0  0  0  0
   -0.5792   -1.8350    0.5956 H   0  0  0  0  0  0  0  0  0  0  0  0
  1  2  1  0
  2  3  1  0
  3  4  2  0
  4  5  1  0
  5  6  2  0
  6  7  1  0
  7  8  1  0
  8  9  2  0
  9  3  1  0
  1 10  1  0
  1 11  1  0
  1 12  1  0
  2 13  1  0
  2 14  1  0
  4 15  1  0
  5 16  1  0
  6 17  1  0
  7 18  1  0
  7 19  1  0
  8 20  1  0
  9 21  1  0
M  END
