
     RDKit          3D

 21 21  0  0  0  0  0  0  0  0999 V2000
    2.1926    0.1984   -0.0707 C   0  0  0  0  0  0  0  0  0  0  0  0
    0.9645    0.4679   -0.9258 C   0  0  0  0  0  0  0  0  0  0  0  0
   -0.2284    0.0758   -0.1082 C   0  0  0  0  0  0  0  0  0  0  0  0
   -0.3703    0.8383    1.1880 C   0  0  0  0  0  0  0  0  0  0  0  0
   -0.4893    2.1912    0.8754 O   0  0  0  0  0  0  0  0  0  0  0  0
   -0.2630   -1.4282    0.0681 C   0  0  0  0  0  0  0  0  0  0  0  0
   -1.7747   -1.2713   -0.0392 C   0  0  0  0  0  0  0  0  0  0  0  0
   -1.5079   -0.0451   -0.8414 C   0  0  0  0  0  0  0  0  0  0  0  0
   -2.1494    0.5169   -1.7042 O   0  0  0  0  0  0  0  0  0  0  0  0
    2.2505    0.9564    0.7433 H   0  0  0  0  0  0  0  0  0  0  0  0
    3.1274    0.2597   -0.6615 H   0  0  0  0  0  0  0  0  0  0  0  0
    2.0416   -0.7824    0.4181 H   0  0  0  0  0  0  0  0  0  0  0  0
    0.8675    1.5447   -1.1701 H   0  0  0  0  0  0  0  0  0  0  0  0
    1.0388   -0.1619   -1.8182 H   0  0  0  0  0  0  0  0  0  0  0  0
    0.5330    0.6552    1.8025 H   0  0  0  0  0  0  0  0  0  0  0  0
   -1.2344    0.5039    1.7802 H   0  0  0  0  0  0  0  0  0  0  0  0
   -0.7309    2.3117   -0.0734 H   0  0  0  0  0  0  0  0  0  0  0  0
    0.1489   -1.9638   -0.8087 H   0  0  0  0  0  0  0  0  0  0  0  0
    0.0916   -1.7723    1.0504 H   0  0  0  0  0  0  0  0  0  0  0  0
   -2.2714   -2.0296   -0.6550 H   0  0  0  0  0  0  0  0  0  0  0  0
   -2.2369   -1.0656    0.9506 H   0  0  0  0  0  0  0  0  0  0  0  0
  1  2  1  0
  2  3  1  0
  3  4  1  0
  4  5  1  0
  3  6  1  0
  6  7  1  0
  7  8  1  0
  8  9  2  0
  8  3  1  0
  1 10  1  0
  1 11  1  0
  1 12  1  0
  2 13  1  0
  2 14  1  0
  4 15  1  0
  4 16  1  0
  5 17  1  0
  6 18  1  0
  6 19  1  0
  7 20  1  0
  7 21  1  0
M  END
