
     RDKit          3D

 23 23  0  0  0  0  0  0  0  0999 V2000
    2.6958    0.5356    0.5878 C   0  0  0  0  0  0  0  0  0  0  0  0
    1.3787    0.8144   -0.1250 C   0  0  0  0  0  0  0  0  0  0  0  0
    0.3900   -0.2360    0.3424 C   0  0  0  0  0  0  0  0  0  0  0  0
    0.8151   -1.6470    0.0346 C   0  0  0  0  0  0  0  0  0  0  0  0
   -0.5783   -1.9336   -0.3653 C   0  0  0  0  0  0  0  0  0  0  0  0
   -1.3210   -2.8904   -0.5219 O   0  0  0  0  0  0  0  0  0  0  0  0
   -0.7882   -0.4680   -0.5318 C   0  0  0  0  0  0  0  0  0  0  0  0
   -2.1257   -0.0281   -0.0100 C   0  0  0  0  0  0  0  0  0  0  0  0
   -2.2040    1.4436    0.2791 C   0  0  0  0  0  0  0  0  0  0  0  0
    3.2584   -0.2568    0.0522 H   0  0  0  0  0  0  0  0  0  0  0  0
    3.2660    1.4990    0.6104 H   0  0  0  0  0  0  0  0  0  0  0  0
    2.4674    0.2871    1.6358 H   0  0  0  0  0  0  0  0  0  0  0  0
    1.5354    0.6919   -1.2146 H   0  0  0  0  0  0  0  0  0  0  0  0
    0.9861    1.8154    0.0821 H   0  0  0  0  0  0  0  0  0  0  0  0
    0.1602   -0.1305    1.4334 H   0  0  0  0  0  0  0  0  0  0  0  0
    1.1827   -2.2293    0.9045 H   0  0  0  0  0  0  0  0  0  0  0  0
    1.4959   -1.7699   -0.8266 H   0  0  0  0  0  0  0  0  0  0  0  0
   -0.5993   -0.1593   -1.5712 H   0  0  0  0  0  0  0  0  0  0  0  0
   -2.8977   -0.2737   -0.7610 H   0  0  0  0  0  0  0  0  0  0  0  0
   -2.3543   -0.5596    0.9399 H   0  0  0  0  0  0  0  0  0  0  0  0
   -1.9075    2.0658   -0.5988 H   0  0  0  0  0  0  0  0  0  0  0  0
   -3.2636    1.6793    0.5033 H   0  0  0  0  0  0  0  0  0  0  0  0
   -1.5920    1.7503    1.1450 H   0  0  0  0  0  0  0  0  0  0  0  0
  1  2  1  0
  2  3  1  0
  3  4  1  0
  4  5  1  0
  5  6  2  0
  5  7  1  0
  7  8  1  0
  8  9  1  0
  7  3  1  0
  1 10  1  0
  1 11  1  0
  1 12  1  0
  2 13  1  0
  2 14  1  0
  3 15  1  0
  4 16  1  0
  4 17  1  0
  7 18  1  0
  8 19  1  0
  8 20  1  0
  9 21  1  0
  9 22  1  0
  9 23  1  0
M  END
