
     RDKit          3D

 21 22  0  0  0  0  0  0  0  0999 V2000
    2.3032    0.4986   -0.3675 C   0  0  0  0  0  0  0  0  0  0  0  0
    1.6587   -0.8487   -0.1874 C   0  0  0  0  0  0  0  0  0  0  0  0
    0.1608   -0.7964   -0.2368 C   0  0  0  0  0  0  0  0  0  0  0  0
   -0.3316   -0.3040   -1.4470 O   0  0  0  0  0  0  0  0  0  0  0  0
   -1.5452    0.3018   -1.0322 C   0  0  0  0  0  0  0  0  0  0  0  0
   -0.9332    1.2308    0.0399 C   0  0  0  0  0  0  0  0  0  0  0  0
   -0.4577    0.0116    0.8496 C   0  0  0  0  0  0  0  0  0  0  0  0
   -1.8666   -0.5750    1.0259 C   0  0  0  0  0  0  0  0  0  0  0  0
   -2.3206   -0.5537   -0.2937 O   0  0  0  0  0  0  0  0  0  0  0  0
    2.2617    1.1225    0.5452 H   0  0  0  0  0  0  0  0  0  0  0  0
    3.4003    0.2970   -0.5448 H   0  0  0  0  0  0  0  0  0  0  0  0
    1.9549    1.0244   -1.2669 H   0  0  0  0  0  0  0  0  0  0  0  0
    1.9358   -1.2053    0.8282 H   0  0  0  0  0  0  0  0  0  0  0  0
    2.0472   -1.5684   -0.9210 H   0  0  0  0  0  0  0  0  0  0  0  0
   -0.1978   -1.8570   -0.2050 H   0  0  0  0  0  0  0  0  0  0  0  0
   -2.0366    0.8485   -1.8194 H   0  0  0  0  0  0  0  0  0  0  0  0
   -0.1169    1.8171   -0.3511 H   0  0  0  0  0  0  0  0  0  0  0  0
   -1.7402    1.7654    0.5391 H   0  0  0  0  0  0  0  0  0  0  0  0
    0.0729    0.2204    1.7264 H   0  0  0  0  0  0  0  0  0  0  0  0
   -1.8293   -1.5857    1.4555 H   0  0  0  0  0  0  0  0  0  0  0  0
   -2.4200    0.1560    1.6627 H   0  0  0  0  0  0  0  0  0  0  0  0
  1  2  1  0
  2  3  1  0
  3  4  1  0
  4  5  1  0
  5  6  1  0
  6  7  1  0
  7  8  1  0
  8  9  1  0
  7  3  1  0
  9  5  1  0
  1 10  1  0
  1 11  1  0
  1 12  1  0
  2 13  1  0
  2 14  1  0
  3 15  1  0
  5 16  1  0
  6 17  1  0
  6 18  1  0
  7 19  1  0
  8 20  1  0
  8 21  1  0
M  END
