
     RDKit          3D

 23 23  0  0  0  0  0  0  0  0999 V2000
    2.6577   -1.1257    0.3321 C   0  0  0  0  0  0  0  0  0  0  0  0
    1.8738   -0.0505   -0.3383 C   0  0  0  0  0  0  0  0  0  0  0  0
    0.8402    0.5947    0.5432 C   0  0  0  0  0  0  0  0  0  0  0  0
    0.1463    1.6622   -0.3145 C   0  0  0  0  0  0  0  0  0  0  0  0
   -0.7302    0.8369   -1.0524 O   0  0  0  0  0  0  0  0  0  0  0  0
   -1.2148   -0.0028   -0.0836 C   0  0  0  0  0  0  0  0  0  0  0  0
   -2.4466    0.6414    0.5197 C   0  0  0  0  0  0  0  0  0  0  0  0
   -1.6434   -1.3504   -0.6291 C   0  0  0  0  0  0  0  0  0  0  0  0
   -0.2194   -0.2324    0.8459 O   0  0  0  0  0  0  0  0  0  0  0  0
    3.5347   -0.7547    0.9026 H   0  0  0  0  0  0  0  0  0  0  0  0
    2.0624   -1.7499    1.0248 H   0  0  0  0  0  0  0  0  0  0  0  0
    3.0974   -1.7965   -0.4624 H   0  0  0  0  0  0  0  0  0  0  0  0
    2.5908    0.7641   -0.6369 H   0  0  0  0  0  0  0  0  0  0  0  0
    1.4408   -0.4472   -1.2701 H   0  0  0  0  0  0  0  0  0  0  0  0
    1.3125    1.0800    1.3949 H   0  0  0  0  0  0  0  0  0  0  0  0
    0.8526    2.1969   -0.9491 H   0  0  0  0  0  0  0  0  0  0  0  0
   -0.4106    2.3095    0.3940 H   0  0  0  0  0  0  0  0  0  0  0  0
   -3.3783    0.1702    0.1013 H   0  0  0  0  0  0  0  0  0  0  0  0
   -2.5077    0.5488    1.6017 H   0  0  0  0  0  0  0  0  0  0  0  0
   -2.5237    1.7184    0.2135 H   0  0  0  0  0  0  0  0  0  0  0  0
   -2.3319   -1.7908    0.1453 H   0  0  0  0  0  0  0  0  0  0  0  0
   -2.2277   -1.2001   -1.5425 H   0  0  0  0  0  0  0  0  0  0  0  0
   -0.7749   -2.0221   -0.7403 H   0  0  0  0  0  0  0  0  0  0  0  0
  1  2  1  0
  2  3  1  0
  3  4  1  0
  4  5  1  0
  5  6  1  0
  6  7  1  0
  6  8  1  0
  6  9  1  0
  9  3  1  0
  1 10  1  0
  1 11  1  0
  1 12  1  0
  2 13  1  0
  2 14  1  0
  3 15  1  0
  4 16  1  0
  4 17  1  0
  7 18  1  0
  7 19  1  0
  7 20  1  0
  8 21  1  0
  8 22  1  0
  8 23  1  0
M  END
