
     RDKit          3D

 23 24  0  0  0  0  0  0  0  0999 V2000
    2.6626    0.4998   -0.2017 C   0  0  0  0  0  0  0  0  0  0  0  0
    1.2542    0.9860   -0.4299 C   0  0  0  0  0  0  0  0  0  0  0  0
    0.3005    0.1440    0.0852 C   0  0  0  0  0  0  0  0  0  0  0  0
    0.1372   -0.2632    1.5244 C   0  0  0  0  0  0  0  0  0  0  0  0
   -1.0238   -0.9245    0.8160 C   0  0  0  0  0  0  0  0  0  0  0  0
   -1.9047   -1.6634    1.3087 O   0  0  0  0  0  0  0  0  0  0  0  0
   -0.0274   -1.2489   -0.2677 C   0  0  0  0  0  0  0  0  0  0  0  0
   -1.1851    0.4056    0.1327 C   0  0  0  0  0  0  0  0  0  0  0  0
   -1.9062    0.4289   -1.1571 C   0  0  0  0  0  0  0  0  0  0  0  0
    3.3419    1.2595   -0.6868 H   0  0  0  0  0  0  0  0  0  0  0  0
    2.9030    0.4367    0.8778 H   0  0  0  0  0  0  0  0  0  0  0  0
    2.7788   -0.4686   -0.6904 H   0  0  0  0  0  0  0  0  0  0  0  0
    1.2073    2.0159    0.0068 H   0  0  0  0  0  0  0  0  0  0  0  0
    1.1479    1.1415   -1.5273 H   0  0  0  0  0  0  0  0  0  0  0  0
    0.8617   -0.9612    1.9348 H   0  0  0  0  0  0  0  0  0  0  0  0
   -0.1314    0.6121    2.1556 H   0  0  0  0  0  0  0  0  0  0  0  0
   -2.8068   -1.5575    0.9134 H   0  0  0  0  0  0  0  0  0  0  0  0
   -0.4316   -1.4627   -1.2587 H   0  0  0  0  0  0  0  0  0  0  0  0
    0.6462   -2.0489    0.0585 H   0  0  0  0  0  0  0  0  0  0  0  0
   -1.4349    1.2100    0.8460 H   0  0  0  0  0  0  0  0  0  0  0  0
   -2.8537    1.0269   -1.0090 H   0  0  0  0  0  0  0  0  0  0  0  0
   -1.2925    0.9862   -1.9003 H   0  0  0  0  0  0  0  0  0  0  0  0
   -2.2434   -0.5543   -1.5309 H   0  0  0  0  0  0  0  0  0  0  0  0
  1  2  1  0
  2  3  1  0
  3  4  1  0
  4  5  1  0
  5  6  1  0
  5  7  1  0
  5  8  1  0
  8  9  1  0
  7  3  1  0
  8  3  1  0
  1 10  1  0
  1 11  1  0
  1 12  1  0
  2 13  1  0
  2 14  1  0
  4 15  1  0
  4 16  1  0
  6 17  1  0
  7 18  1  0
  7 19  1  0
  8 20  1  0
  9 21  1  0
  9 22  1  0
  9 23  1  0
M  END
