
     RDKit          3D

 27 27  0  0  0  0  0  0  0  0999 V2000
    2.9331   -0.2563    0.5602 C   0  0  0  0  0  0  0  0  0  0  0  0
    2.3181    0.2678   -0.6933 C   0  0  0  0  0  0  0  0  0  0  0  0
    0.8191    0.3136   -0.6697 C   0  0  0  0  0  0  0  0  0  0  0  0
    0.2409    1.1657    0.3996 C   0  0  0  0  0  0  0  0  0  0  0  0
   -1.1812    0.6342    0.5131 C   0  0  0  0  0  0  0  0  0  0  0  0
   -2.1365    1.5777   -0.2302 C   0  0  0  0  0  0  0  0  0  0  0  0
   -1.2274   -0.6668   -0.2129 C   0  0  0  0  0  0  0  0  0  0  0  0
   -2.0703   -1.7133    0.4640 C   0  0  0  0  0  0  0  0  0  0  0  0
    0.2103   -1.0500   -0.3561 C   0  0  0  0  0  0  0  0  0  0  0  0
    2.5093    0.1256    1.4892 H   0  0  0  0  0  0  0  0  0  0  0  0
    2.9776   -1.3791    0.5194 H   0  0  0  0  0  0  0  0  0  0  0  0
    4.0186    0.0545    0.5460 H   0  0  0  0  0  0  0  0  0  0  0  0
    2.6903    1.2545   -0.9616 H   0  0  0  0  0  0  0  0  0  0  0  0
    2.6038   -0.4341   -1.5212 H   0  0  0  0  0  0  0  0  0  0  0  0
    0.4401    0.6181   -1.6421 H   0  0  0  0  0  0  0  0  0  0  0  0
    0.7018    1.0657    1.3894 H   0  0  0  0  0  0  0  0  0  0  0  0
    0.1624    2.2380    0.1374 H   0  0  0  0  0  0  0  0  0  0  0  0
   -1.4855    0.5376    1.5740 H   0  0  0  0  0  0  0  0  0  0  0  0
   -1.6583    1.7361   -1.2312 H   0  0  0  0  0  0  0  0  0  0  0  0
   -3.0751    1.0041   -0.3589 H   0  0  0  0  0  0  0  0  0  0  0  0
   -2.2442    2.5033    0.3390 H   0  0  0  0  0  0  0  0  0  0  0  0
   -1.6402   -0.5632   -1.2581 H   0  0  0  0  0  0  0  0  0  0  0  0
   -1.7735   -1.9283    1.4893 H   0  0  0  0  0  0  0  0  0  0  0  0
   -3.1225   -1.3647    0.4188 H   0  0  0  0  0  0  0  0  0  0  0  0
   -2.0260   -2.6248   -0.1728 H   0  0  0  0  0  0  0  0  0  0  0  0
    0.4208   -1.7493   -1.1637 H   0  0  0  0  0  0  0  0  0  0  0  0
    0.5945   -1.3664    0.6323 H   0  0  0  0  0  0  0  0  0  0  0  0
  1  2  1  0
  2  3  1  0
  3  4  1  0
  4  5  1  0
  5  6  1  0
  5  7  1  0
  7  8  1  0
  7  9  1  0
  9  3  1  0
  1 10  1  0
  1 11  1  0
  1 12  1  0
  2 13  1  0
  2 14  1  0
  3 15  1  0
  4 16  1  0
  4 17  1  0
  5 18  1  0
  6 19  1  0
  6 20  1  0
  6 21  1  0
  7 22  1  0
  8 23  1  0
  8 24  1  0
  8 25  1  0
  9 26  1  0
  9 27  1  0
M  END
