
     RDKit          3D

 23 23  0  0  0  0  0  0  0  0999 V2000
   -2.7151   -1.1468   -0.0206 C   0  0  0  0  0  0  0  0  0  0  0  0
   -2.0998    0.1669   -0.3605 C   0  0  0  0  0  0  0  0  0  0  0  0
   -0.7605    0.3984    0.3025 C   0  0  0  0  0  0  0  0  0  0  0  0
    0.2437   -0.6306   -0.0810 C   0  0  0  0  0  0  0  0  0  0  0  0
    1.5815   -0.0619   -0.3499 C   0  0  0  0  0  0  0  0  0  0  0  0
    2.5669   -0.9901   -1.0096 C   0  0  0  0  0  0  0  0  0  0  0  0
    1.8956    1.1776   -0.0340 C   0  0  0  0  0  0  0  0  0  0  0  0
    0.8543    2.0152    0.6139 C   0  0  0  0  0  0  0  0  0  0  0  0
   -0.3816    1.6938    0.0348 O   0  0  0  0  0  0  0  0  0  0  0  0
   -2.9885   -1.7428   -0.9225 H   0  0  0  0  0  0  0  0  0  0  0  0
   -2.1129   -1.7624    0.6761 H   0  0  0  0  0  0  0  0  0  0  0  0
   -3.6919   -0.9703    0.5094 H   0  0  0  0  0  0  0  0  0  0  0  0
   -2.7613    1.0075   -0.0520 H   0  0  0  0  0  0  0  0  0  0  0  0
   -2.0050    0.2069   -1.4838 H   0  0  0  0  0  0  0  0  0  0  0  0
   -0.9434    0.3219    1.4005 H   0  0  0  0  0  0  0  0  0  0  0  0
    0.3732   -1.3781    0.7327 H   0  0  0  0  0  0  0  0  0  0  0  0
   -0.0989   -1.1014   -1.0257 H   0  0  0  0  0  0  0  0  0  0  0  0
    2.6655   -1.8704   -0.3488 H   0  0  0  0  0  0  0  0  0  0  0  0
    3.5232   -0.4853   -1.2193 H   0  0  0  0  0  0  0  0  0  0  0  0
    2.0647   -1.3360   -1.9396 H   0  0  0  0  0  0  0  0  0  0  0  0
    2.8953    1.5356   -0.2578 H   0  0  0  0  0  0  0  0  0  0  0  0
    1.0490    3.0757    0.3671 H   0  0  0  0  0  0  0  0  0  0  0  0
    0.8460    1.8768    1.7085 H   0  0  0  0  0  0  0  0  0  0  0  0
  1  2  1  0
  2  3  1  0
  3  4  1  0
  4  5  1  0
  5  6  1  0
  5  7  2  0
  7  8  1  0
  8  9  1  0
  9  3  1  0
  1 10  1  0
  1 11  1  0
  1 12  1  0
  2 13  1  0
  2 14  1  0
  3 15  1  0
  4 16  1  0
  4 17  1  0
  6 18  1  0
  6 19  1  0
  6 20  1  0
  7 21  1  0
  8 22  1  0
  8 23  1  0
M  END
