
     RDKit          3D

 23 24  0  0  0  0  0  0  0  0999 V2000
    2.3333    0.4944   -0.1985 C   0  0  0  0  0  0  0  0  0  0  0  0
    1.4270    0.2694    0.9716 C   0  0  0  0  0  0  0  0  0  0  0  0
    0.1145   -0.3525    0.6068 C   0  0  0  0  0  0  0  0  0  0  0  0
   -0.6863    0.4722   -0.3549 C   0  0  0  0  0  0  0  0  0  0  0  0
   -1.1856    1.7572    0.2081 C   0  0  0  0  0  0  0  0  0  0  0  0
   -1.8231   -0.5077   -0.6723 C   0  0  0  0  0  0  0  0  0  0  0  0
   -1.1127   -1.8116   -0.7638 C   0  0  0  0  0  0  0  0  0  0  0  0
    0.0905   -1.7885   -1.4443 O   0  0  0  0  0  0  0  0  0  0  0  0
    0.2186   -1.6727   -0.0678 C   0  0  0  0  0  0  0  0  0  0  0  0
    2.7776   -0.4664   -0.5503 H   0  0  0  0  0  0  0  0  0  0  0  0
    1.8851    1.0914   -0.9927 H   0  0  0  0  0  0  0  0  0  0  0  0
    3.2101    1.0872    0.1836 H   0  0  0  0  0  0  0  0  0  0  0  0
    1.9314   -0.3469    1.7211 H   0  0  0  0  0  0  0  0  0  0  0  0
    1.2138    1.2579    1.4293 H   0  0  0  0  0  0  0  0  0  0  0  0
   -0.4718   -0.4729    1.5424 H   0  0  0  0  0  0  0  0  0  0  0  0
   -0.0820    0.6284   -1.2753 H   0  0  0  0  0  0  0  0  0  0  0  0
   -0.9569    1.7958    1.2941 H   0  0  0  0  0  0  0  0  0  0  0  0
   -2.3049    1.8293    0.1435 H   0  0  0  0  0  0  0  0  0  0  0  0
   -0.7880    2.6619   -0.2915 H   0  0  0  0  0  0  0  0  0  0  0  0
   -2.3228   -0.1722   -1.5794 H   0  0  0  0  0  0  0  0  0  0  0  0
   -2.5052   -0.4454    0.2151 H   0  0  0  0  0  0  0  0  0  0  0  0
   -1.6300   -2.7630   -0.5541 H   0  0  0  0  0  0  0  0  0  0  0  0
    0.6674   -2.5453    0.4294 H   0  0  0  0  0  0  0  0  0  0  0  0
  1  2  1  0
  2  3  1  0
  3  4  1  0
  4  5  1  0
  4  6  1  0
  6  7  1  0
  7  8  1  0
  8  9  1  0
  9  3  1  0
  9  7  1  0
  1 10  1  0
  1 11  1  0
  1 12  1  0
  2 13  1  0
  2 14  1  0
  3 15  1  0
  4 16  1  0
  5 17  1  0
  5 18  1  0
  5 19  1  0
  6 20  1  0
  6 21  1  0
  7 22  1  0
  9 23  1  0
M  END
