
     RDKit          3D

 23 23  0  0  0  0  0  0  0  0999 V2000
   -2.7222    0.7066    0.1791 C   0  0  0  0  0  0  0  0  0  0  0  0
   -1.7056   -0.3623   -0.1631 C   0  0  0  0  0  0  0  0  0  0  0  0
   -0.3376    0.2031    0.1009 C   0  0  0  0  0  0  0  0  0  0  0  0
   -0.0432    1.4118   -0.7081 C   0  0  0  0  0  0  0  0  0  0  0  0
    1.2600    1.4619   -0.9382 C   0  0  0  0  0  0  0  0  0  0  0  0
    1.9470    0.2849   -0.2994 C   0  0  0  0  0  0  0  0  0  0  0  0
    2.2195    0.6215    1.0054 O   0  0  0  0  0  0  0  0  0  0  0  0
    0.7759   -0.7093   -0.2987 C   0  0  0  0  0  0  0  0  0  0  0  0
    1.0096   -1.8518    0.6232 C   0  0  0  0  0  0  0  0  0  0  0  0
   -3.4934    0.8170   -0.6046 H   0  0  0  0  0  0  0  0  0  0  0  0
   -3.2306    0.4769    1.1593 H   0  0  0  0  0  0  0  0  0  0  0  0
   -2.2627    1.7044    0.3231 H   0  0  0  0  0  0  0  0  0  0  0  0
   -1.7908   -0.6173   -1.2249 H   0  0  0  0  0  0  0  0  0  0  0  0
   -1.8471   -1.2184    0.5167 H   0  0  0  0  0  0  0  0  0  0  0  0
   -0.2142    0.4920    1.1654 H   0  0  0  0  0  0  0  0  0  0  0  0
   -0.8002    2.1164   -1.0382 H   0  0  0  0  0  0  0  0  0  0  0  0
    1.7436    2.2312   -1.4980 H   0  0  0  0  0  0  0  0  0  0  0  0
    2.7955   -0.0752   -0.8802 H   0  0  0  0  0  0  0  0  0  0  0  0
    2.7488   -0.0592    1.4521 H   0  0  0  0  0  0  0  0  0  0  0  0
    0.6246   -1.1117   -1.3204 H   0  0  0  0  0  0  0  0  0  0  0  0
    2.0273   -2.2765    0.3786 H   0  0  0  0  0  0  0  0  0  0  0  0
    1.0001   -1.5919    1.6894 H   0  0  0  0  0  0  0  0  0  0  0  0
    0.2957   -2.6540    0.3807 H   0  0  0  0  0  0  0  0  0  0  0  0
  1  2  1  0
  2  3  1  0
  3  4  1  0
  4  5  2  0
  5  6  1  0
  6  7  1  0
  6  8  1  0
  8  9  1  0
  8  3  1  0
  1 10  1  0
  1 11  1  0
  1 12  1  0
  2 13  1  0
  2 14  1  0
  3 15  1  0
  4 16  1  0
  5 17  1  0
  6 18  1  0
  7 19  1  0
  8 20  1  0
  9 21  1  0
  9 22  1  0
  9 23  1  0
M  END
