
     RDKit          3D

 23 24  0  0  0  0  0  0  0  0999 V2000
    2.6136   -0.0316   -0.4143 C   0  0  0  0  0  0  0  0  0  0  0  0
    1.5195    0.4921    0.4694 C   0  0  0  0  0  0  0  0  0  0  0  0
    0.2646   -0.3537    0.3746 C   0  0  0  0  0  0  0  0  0  0  0  0
    0.5094   -1.6586    0.7541 O   0  0  0  0  0  0  0  0  0  0  0  0
   -0.8439    0.2500    1.2604 C   0  0  0  0  0  0  0  0  0  0  0  0
   -1.9120    0.4035    0.2110 C   0  0  0  0  0  0  0  0  0  0  0  0
   -1.7900   -0.8777   -0.6119 C   0  0  0  0  0  0  0  0  0  0  0  0
   -0.4086   -0.2981   -0.9470 C   0  0  0  0  0  0  0  0  0  0  0  0
   -1.1160    1.0464   -0.9252 C   0  0  0  0  0  0  0  0  0  0  0  0
    3.5897    0.0417    0.1025 H   0  0  0  0  0  0  0  0  0  0  0  0
    2.4514   -1.0997   -0.7017 H   0  0  0  0  0  0  0  0  0  0  0  0
    2.7076    0.5340   -1.3701 H   0  0  0  0  0  0  0  0  0  0  0  0
    1.3080    1.5389    0.2023 H   0  0  0  0  0  0  0  0  0  0  0  0
    1.8675    0.4813    1.5199 H   0  0  0  0  0  0  0  0  0  0  0  0
    0.0614   -1.8160    1.6199 H   0  0  0  0  0  0  0  0  0  0  0  0
   -1.1189   -0.4292    2.0716 H   0  0  0  0  0  0  0  0  0  0  0  0
   -0.4754    1.1995    1.6544 H   0  0  0  0  0  0  0  0  0  0  0  0
   -2.8659    0.7777    0.4450 H   0  0  0  0  0  0  0  0  0  0  0  0
   -1.7558   -1.7707    0.0227 H   0  0  0  0  0  0  0  0  0  0  0  0
   -2.4089   -0.8943   -1.5059 H   0  0  0  0  0  0  0  0  0  0  0  0
    0.0598   -0.6201   -1.8369 H   0  0  0  0  0  0  0  0  0  0  0  0
   -1.7029    1.1923   -1.8531 H   0  0  0  0  0  0  0  0  0  0  0  0
   -0.5542    1.8921   -0.5418 H   0  0  0  0  0  0  0  0  0  0  0  0
  1  2  1  0
  2  3  1  0
  3  4  1  0
  3  5  1  0
  5  6  1  0
  6  7  1  0
  7  8  1  0
  8  9  1  0
  8  3  1  0
  9  6  1  0
  1 10  1  0
  1 11  1  0
  1 12  1  0
  2 13  1  0
  2 14  1  0
  4 15  1  0
  5 16  1  0
  5 17  1  0
  6 18  1  0
  7 19  1  0
  7 20  1  0
  8 21  1  0
  9 22  1  0
  9 23  1  0
M  END
