
     RDKit          3D

 22 22  0  0  0  0  0  0  0  0999 V2000
    2.6727   -0.4235    0.3443 C   0  0  0  0  0  0  0  0  0  0  0  0
    1.2469   -0.7359    0.6324 C   0  0  0  0  0  0  0  0  0  0  0  0
    0.2748    0.0767   -0.1830 C   0  0  0  0  0  0  0  0  0  0  0  0
    0.3883    1.5234    0.0177 C   0  0  0  0  0  0  0  0  0  0  0  0
   -0.8150    2.0729    0.0799 C   0  0  0  0  0  0  0  0  0  0  0  0
   -1.8720    1.0248   -0.0766 C   0  0  0  0  0  0  0  0  0  0  0  0
   -1.1470   -0.2249    0.3013 C   0  0  0  0  0  0  0  0  0  0  0  0
   -1.6136   -1.4459   -0.4183 C   0  0  0  0  0  0  0  0  0  0  0  0
    3.2506   -1.2974   -0.0464 H   0  0  0  0  0  0  0  0  0  0  0  0
    2.7149    0.3373   -0.4714 H   0  0  0  0  0  0  0  0  0  0  0  0
    3.2380   -0.0740    1.2483 H   0  0  0  0  0  0  0  0  0  0  0  0
    1.0245   -0.6923    1.7145 H   0  0  0  0  0  0  0  0  0  0  0  0
    1.0766   -1.8101    0.3319 H   0  0  0  0  0  0  0  0  0  0  0  0
    0.3351   -0.1681   -1.2595 H   0  0  0  0  0  0  0  0  0  0  0  0
    1.3116    2.0712    0.1036 H   0  0  0  0  0  0  0  0  0  0  0  0
   -0.9827    3.1506    0.2267 H   0  0  0  0  0  0  0  0  0  0  0  0
   -2.7489    1.2265    0.5690 H   0  0  0  0  0  0  0  0  0  0  0  0
   -2.1725    1.0244   -1.1378 H   0  0  0  0  0  0  0  0  0  0  0  0
   -1.1060   -0.3394    1.4023 H   0  0  0  0  0  0  0  0  0  0  0  0
   -0.7607   -2.1537   -0.4830 H   0  0  0  0  0  0  0  0  0  0  0  0
   -2.4219   -1.9886    0.1108 H   0  0  0  0  0  0  0  0  0  0  0  0
   -1.8935   -1.1539   -1.4537 H   0  0  0  0  0  0  0  0  0  0  0  0
  1  2  1  0
  2  3  1  0
  3  4  1  0
  4  5  2  0
  5  6  1  0
  6  7  1  0
  7  8  1  0
  7  3  1  0
  1  9  1  0
  1 10  1  0
  1 11  1  0
  2 12  1  0
  2 13  1  0
  3 14  1  0
  4 15  1  0
  5 16  1  0
  6 17  1  0
  6 18  1  0
  7 19  1  0
  8 20  1  0
  8 21  1  0
  8 22  1  0
M  END
