
     RDKit          3D

 23 23  0  0  0  0  0  0  0  0999 V2000
   -2.8188   -0.4509    0.0340 C   0  0  0  0  0  0  0  0  0  0  0  0
   -1.6639    0.4178   -0.3223 C   0  0  0  0  0  0  0  0  0  0  0  0
   -0.3723    0.0174    0.3628 C   0  0  0  0  0  0  0  0  0  0  0  0
    0.0507   -1.3738    0.0239 C   0  0  0  0  0  0  0  0  0  0  0  0
    1.2050   -1.3780   -0.7564 O   0  0  0  0  0  0  0  0  0  0  0  0
    2.2640   -0.8854    0.0347 C   0  0  0  0  0  0  0  0  0  0  0  0
    2.0696    0.5914    0.3161 C   0  0  0  0  0  0  0  0  0  0  0  0
    0.6939    0.9885   -0.1226 C   0  0  0  0  0  0  0  0  0  0  0  0
    0.3583    2.2783    0.2290 O   0  0  0  0  0  0  0  0  0  0  0  0
   -2.6040   -1.2406    0.7664 H   0  0  0  0  0  0  0  0  0  0  0  0
   -3.6687    0.1762    0.4111 H   0  0  0  0  0  0  0  0  0  0  0  0
   -3.2106   -0.8919   -0.9277 H   0  0  0  0  0  0  0  0  0  0  0  0
   -1.4842    0.5017   -1.4237 H   0  0  0  0  0  0  0  0  0  0  0  0
   -1.8649    1.4756    0.0173 H   0  0  0  0  0  0  0  0  0  0  0  0
   -0.5146    0.1637    1.4631 H   0  0  0  0  0  0  0  0  0  0  0  0
   -0.7085   -1.9930   -0.4493 H   0  0  0  0  0  0  0  0  0  0  0  0
    0.3094   -1.8822    0.9976 H   0  0  0  0  0  0  0  0  0  0  0  0
    2.2959   -1.3966    1.0127 H   0  0  0  0  0  0  0  0  0  0  0  0
    3.2104   -1.0137   -0.5168 H   0  0  0  0  0  0  0  0  0  0  0  0
    2.7916    1.1975   -0.2898 H   0  0  0  0  0  0  0  0  0  0  0  0
    2.2648    0.8494    1.3680 H   0  0  0  0  0  0  0  0  0  0  0  0
    0.6485    0.9426   -1.2462 H   0  0  0  0  0  0  0  0  0  0  0  0
    0.7484    2.9059   -0.4313 H   0  0  0  0  0  0  0  0  0  0  0  0
  1  2  1  0
  2  3  1  0
  3  4  1  0
  4  5  1  0
  5  6  1  0
  6  7  1  0
  7  8  1  0
  8  9  1  0
  8  3  1  0
  1 10  1  0
  1 11  1  0
  1 12  1  0
  2 13  1  0
  2 14  1  0
  3 15  1  0
  4 16  1  0
  4 17  1  0
  6 18  1  0
  6 19  1  0
  7 20  1  0
  7 21  1  0
  8 22  1  0
  9 23  1  0
M  END
