
     RDKit          3D

 21 22  0  0  0  0  0  0  0  0999 V2000
   -2.4988   -0.4515    0.1670 C   0  0  0  0  0  0  0  0  0  0  0  0
   -1.2033   -0.1147    0.8894 C   0  0  0  0  0  0  0  0  0  0  0  0
   -0.3597    0.6822   -0.0403 C   0  0  0  0  0  0  0  0  0  0  0  0
    0.9927    1.1251    0.4925 C   0  0  0  0  0  0  0  0  0  0  0  0
    1.6050   -0.1506    1.0125 C   0  0  0  0  0  0  0  0  0  0  0  0
    1.2345   -1.0753   -0.1650 C   0  0  0  0  0  0  0  0  0  0  0  0
    0.5040   -0.0805   -1.0194 C   0  0  0  0  0  0  0  0  0  0  0  0
    1.4303    1.0961   -0.9315 C   0  0  0  0  0  0  0  0  0  0  0  0
    2.1531    1.6766   -1.7084 O   0  0  0  0  0  0  0  0  0  0  0  0
   -3.3699    0.0938    0.5859 H   0  0  0  0  0  0  0  0  0  0  0  0
   -2.7159   -1.5366    0.2180 H   0  0  0  0  0  0  0  0  0  0  0  0
   -2.4506   -0.1603   -0.9179 H   0  0  0  0  0  0  0  0  0  0  0  0
   -1.4940    0.5759    1.7366 H   0  0  0  0  0  0  0  0  0  0  0  0
   -0.7411   -1.0142    1.3044 H   0  0  0  0  0  0  0  0  0  0  0  0
   -0.9100    1.5200   -0.4694 H   0  0  0  0  0  0  0  0  0  0  0  0
    1.0640    2.0210    1.0459 H   0  0  0  0  0  0  0  0  0  0  0  0
    1.1098   -0.4408    1.9358 H   0  0  0  0  0  0  0  0  0  0  0  0
    2.7077   -0.1129    1.0724 H   0  0  0  0  0  0  0  0  0  0  0  0
    0.6566   -1.9391    0.1486 H   0  0  0  0  0  0  0  0  0  0  0  0
    2.1708   -1.3601   -0.7282 H   0  0  0  0  0  0  0  0  0  0  0  0
    0.1152   -0.3540   -1.9644 H   0  0  0  0  0  0  0  0  0  0  0  0
  1  2  1  0
  2  3  1  0
  3  4  1  0
  4  5  1  0
  5  6  1  0
  6  7  1  0
  7  8  1  0
  8  9  2  0
  7  3  1  0
  8  4  1  0
  1 10  1  0
  1 11  1  0
  1 12  1  0
  2 13  1  0
  2 14  1  0
  3 15  1  0
  4 16  1  0
  5 17  1  0
  5 18  1  0
  6 19  1  0
  6 20  1  0
  7 21  1  0
M  END
