
     RDKit          3D

 21 21  0  0  0  0  0  0  0  0999 V2000
    2.5342    0.3062    0.2231 C   0  0  0  0  0  0  0  0  0  0  0  0
    1.3226   -0.5417    0.0123 C   0  0  0  0  0  0  0  0  0  0  0  0
    0.0388    0.1301    0.4393 C   0  0  0  0  0  0  0  0  0  0  0  0
    0.1723    0.4028    1.7831 O   0  0  0  0  0  0  0  0  0  0  0  0
   -0.2461    1.3765   -0.2791 C   0  0  0  0  0  0  0  0  0  0  0  0
   -1.4251    1.3154   -0.8896 C   0  0  0  0  0  0  0  0  0  0  0  0
   -2.0987    0.0199   -0.6679 C   0  0  0  0  0  0  0  0  0  0  0  0
   -1.0941   -0.7807    0.1002 C   0  0  0  0  0  0  0  0  0  0  0  0
   -0.6749   -1.8377   -0.7220 O   0  0  0  0  0  0  0  0  0  0  0  0
    3.4370   -0.3468    0.2235 H   0  0  0  0  0  0  0  0  0  0  0  0
    2.6668    1.0429   -0.6110 H   0  0  0  0  0  0  0  0  0  0  0  0
    2.5230    0.8256    1.1987 H   0  0  0  0  0  0  0  0  0  0  0  0
    1.3008   -0.9417   -0.9989 H   0  0  0  0  0  0  0  0  0  0  0  0
    1.4305   -1.4348    0.6981 H   0  0  0  0  0  0  0  0  0  0  0  0
   -0.6240    0.2478    2.3148 H   0  0  0  0  0  0  0  0  0  0  0  0
    0.3871    2.2575   -0.3350 H   0  0  0  0  0  0  0  0  0  0  0  0
   -1.8714    2.1211   -1.4959 H   0  0  0  0  0  0  0  0  0  0  0  0
   -2.3275   -0.4174   -1.6708 H   0  0  0  0  0  0  0  0  0  0  0  0
   -3.0544    0.1350   -0.0844 H   0  0  0  0  0  0  0  0  0  0  0  0
   -1.5796   -1.1783    1.0296 H   0  0  0  0  0  0  0  0  0  0  0  0
   -0.8171   -2.7018   -0.2677 H   0  0  0  0  0  0  0  0  0  0  0  0
  1  2  1  0
  2  3  1  0
  3  4  1  0
  3  5  1  0
  5  6  2  0
  6  7  1  0
  7  8  1  0
  8  9  1  0
  8  3  1  0
  1 10  1  0
  1 11  1  0
  1 12  1  0
  2 13  1  0
  2 14  1  0
  4 15  1  0
  5 16  1  0
  6 17  1  0
  7 18  1  0
  7 19  1  0
  8 20  1  0
  9 21  1  0
M  END
