
     RDKit          3D

 19 19  0  0  0  0  0  0  0  0999 V2000
    2.0001   -0.5844    0.3419 C   0  0  0  0  0  0  0  0  0  0  0  0
    0.7813   -0.5711   -0.5245 C   0  0  0  0  0  0  0  0  0  0  0  0
   -0.4249    0.0067    0.1390 C   0  0  0  0  0  0  0  0  0  0  0  0
   -0.1959    1.4455    0.5613 C   0  0  0  0  0  0  0  0  0  0  0  0
    0.4684    2.0817   -0.4781 O   0  0  0  0  0  0  0  0  0  0  0  0
   -1.0784   -0.7861    1.0549 O   0  0  0  0  0  0  0  0  0  0  0  0
   -1.9164   -1.3310    0.0594 C   0  0  0  0  0  0  0  0  0  0  0  0
   -1.6200   -0.1504   -0.7671 C   0  0  0  0  0  0  0  0  0  0  0  0
   -1.9989    0.5011   -1.7002 O   0  0  0  0  0  0  0  0  0  0  0  0
    2.8158   -1.0781   -0.2506 H   0  0  0  0  0  0  0  0  0  0  0  0
    1.8989   -1.1713    1.2663 H   0  0  0  0  0  0  0  0  0  0  0  0
    2.3358    0.4612    0.5774 H   0  0  0  0  0  0  0  0  0  0  0  0
    0.5516   -1.6106   -0.8294 H   0  0  0  0  0  0  0  0  0  0  0  0
    1.0200    0.0001   -1.4384 H   0  0  0  0  0  0  0  0  0  0  0  0
    0.4519    1.4628    1.4595 H   0  0  0  0  0  0  0  0  0  0  0  0
   -1.1874    1.9412    0.7563 H   0  0  0  0  0  0  0  0  0  0  0  0
    0.5886    3.0471   -0.2915 H   0  0  0  0  0  0  0  0  0  0  0  0
   -2.9938   -1.3731    0.3606 H   0  0  0  0  0  0  0  0  0  0  0  0
   -1.4965   -2.2914   -0.2969 H   0  0  0  0  0  0  0  0  0  0  0  0
  1  2  1  0
  2  3  1  0
  3  4  1  0
  4  5  1  0
  3  6  1  0
  6  7  1  0
  7  8  1  0
  8  9  2  0
  8  3  1  0
  1 10  1  0
  1 11  1  0
  1 12  1  0
  2 13  1  0
  2 14  1  0
  4 15  1  0
  4 16  1  0
  5 17  1  0
  7 18  1  0
  7 19  1  0
M  END
