
     RDKit          3D

 23 23  0  0  0  0  0  0  0  0999 V2000
    2.4596   -0.3261    0.0511 C   0  0  0  0  0  0  0  0  0  0  0  0
    1.1628   -1.0249    0.2461 C   0  0  0  0  0  0  0  0  0  0  0  0
   -0.0668   -0.2403   -0.0783 C   0  0  0  0  0  0  0  0  0  0  0  0
   -1.3367   -1.0823    0.1626 C   0  0  0  0  0  0  0  0  0  0  0  0
   -2.5756   -0.2461    0.1154 C   0  0  0  0  0  0  0  0  0  0  0  0
   -1.2718   -1.6880    1.4159 O   0  0  0  0  0  0  0  0  0  0  0  0
   -0.0075    0.4198   -1.2989 O   0  0  0  0  0  0  0  0  0  0  0  0
   -0.2359    1.1656   -0.0958 C   0  0  0  0  0  0  0  0  0  0  0  0
    0.7431    2.2352    0.2618 C   0  0  0  0  0  0  0  0  0  0  0  0
    2.8158    0.0028    1.0721 H   0  0  0  0  0  0  0  0  0  0  0  0
    2.4507    0.5520   -0.5840 H   0  0  0  0  0  0  0  0  0  0  0  0
    3.2371   -1.0654   -0.2778 H   0  0  0  0  0  0  0  0  0  0  0  0
    1.0716   -1.4410    1.2782 H   0  0  0  0  0  0  0  0  0  0  0  0
    1.1803   -1.9435   -0.4140 H   0  0  0  0  0  0  0  0  0  0  0  0
   -1.4097   -1.8320   -0.6517 H   0  0  0  0  0  0  0  0  0  0  0  0
   -2.6980    0.2952   -0.8513 H   0  0  0  0  0  0  0  0  0  0  0  0
   -2.6606    0.4892    0.9364 H   0  0  0  0  0  0  0  0  0  0  0  0
   -3.4427   -0.9350    0.2425 H   0  0  0  0  0  0  0  0  0  0  0  0
   -1.0778   -2.6440    1.3684 H   0  0  0  0  0  0  0  0  0  0  0  0
   -1.2935    1.5664   -0.1147 H   0  0  0  0  0  0  0  0  0  0  0  0
    1.2932    2.6368   -0.6411 H   0  0  0  0  0  0  0  0  0  0  0  0
    0.2435    3.1705    0.6639 H   0  0  0  0  0  0  0  0  0  0  0  0
    1.4188    1.9351    1.0758 H   0  0  0  0  0  0  0  0  0  0  0  0
  1  2  1  0
  2  3  1  0
  3  4  1  0
  4  5  1  0
  4  6  1  0
  3  7  1  0
  7  8  1  0
  8  9  1  0
  8  3  1  0
  1 10  1  0
  1 11  1  0
  1 12  1  0
  2 13  1  0
  2 14  1  0
  4 15  1  0
  5 16  1  0
  5 17  1  0
  5 18  1  0
  6 19  1  0
  8 20  1  0
  9 21  1  0
  9 22  1  0
  9 23  1  0
M  END
