
     RDKit          3D

 21 22  0  0  0  0  0  0  0  0999 V2000
    2.8011   -0.0365    0.2217 C   0  0  0  0  0  0  0  0  0  0  0  0
    1.4271   -0.6519    0.3451 C   0  0  0  0  0  0  0  0  0  0  0  0
    0.3197    0.3072    0.2827 C   0  0  0  0  0  0  0  0  0  0  0  0
    0.1175    1.3426    1.1342 O   0  0  0  0  0  0  0  0  0  0  0  0
   -0.6420    0.2423    1.4546 C   0  0  0  0  0  0  0  0  0  0  0  0
   -1.6121   -0.3958    0.5359 C   0  0  0  0  0  0  0  0  0  0  0  0
   -1.5954   -1.8106    0.5278 O   0  0  0  0  0  0  0  0  0  0  0  0
   -0.8468    0.0855   -0.6841 C   0  0  0  0  0  0  0  0  0  0  0  0
   -1.4792    1.4014   -1.1411 C   0  0  0  0  0  0  0  0  0  0  0  0
    3.2616    0.1221    1.2285 H   0  0  0  0  0  0  0  0  0  0  0  0
    3.4466   -0.8225   -0.2600 H   0  0  0  0  0  0  0  0  0  0  0  0
    2.8224    0.8693   -0.3977 H   0  0  0  0  0  0  0  0  0  0  0  0
    1.2609   -1.4325   -0.4552 H   0  0  0  0  0  0  0  0  0  0  0  0
    1.4208   -1.2195    1.2954 H   0  0  0  0  0  0  0  0  0  0  0  0
   -0.3640   -0.2703    2.3728 H   0  0  0  0  0  0  0  0  0  0  0  0
   -2.6552   -0.0392    0.5667 H   0  0  0  0  0  0  0  0  0  0  0  0
   -2.0125   -2.1577    1.3624 H   0  0  0  0  0  0  0  0  0  0  0  0
   -0.6697   -0.6468   -1.4657 H   0  0  0  0  0  0  0  0  0  0  0  0
   -2.4940    1.1767   -1.5349 H   0  0  0  0  0  0  0  0  0  0  0  0
   -0.8489    1.9505   -1.8410 H   0  0  0  0  0  0  0  0  0  0  0  0
   -1.6579    1.9855   -0.1982 H   0  0  0  0  0  0  0  0  0  0  0  0
  1  2  1  0
  2  3  1  0
  3  4  1  0
  4  5  1  0
  5  6  1  0
  6  7  1  0
  6  8  1  0
  8  9  1  0
  5  3  1  0
  8  3  1  0
  1 10  1  0
  1 11  1  0
  1 12  1  0
  2 13  1  0
  2 14  1  0
  5 15  1  0
  6 16  1  0
  7 17  1  0
  8 18  1  0
  9 19  1  0
  9 20  1  0
  9 21  1  0
M  END
