
     RDKit          3D

 21 22  0  0  0  0  0  0  0  0999 V2000
   -2.4347    1.1809    0.3019 C   0  0  0  0  0  0  0  0  0  0  0  0
   -1.8253   -0.1910    0.0015 C   0  0  0  0  0  0  0  0  0  0  0  0
   -0.3963    0.0422   -0.4302 C   0  0  0  0  0  0  0  0  0  0  0  0
    0.2756   -1.2424   -0.7652 C   0  0  0  0  0  0  0  0  0  0  0  0
    0.4879   -1.3193    0.7351 C   0  0  0  0  0  0  0  0  0  0  0  0
    0.7248    0.1284    0.6118 C   0  0  0  0  0  0  0  0  0  0  0  0
    2.1666    0.3632    0.0781 C   0  0  0  0  0  0  0  0  0  0  0  0
    2.5233    1.6155    0.6388 O   0  0  0  0  0  0  0  0  0  0  0  0
    0.0391    1.1439    0.1411 O   0  0  0  0  0  0  0  0  0  0  0  0
   -3.5218    1.1291    0.4058 H   0  0  0  0  0  0  0  0  0  0  0  0
   -1.9226    1.6306    1.1649 H   0  0  0  0  0  0  0  0  0  0  0  0
   -2.1966    1.8359   -0.5749 H   0  0  0  0  0  0  0  0  0  0  0  0
   -2.4208   -0.6594   -0.8229 H   0  0  0  0  0  0  0  0  0  0  0  0
   -1.9420   -0.7375    0.9496 H   0  0  0  0  0  0  0  0  0  0  0  0
    1.2121   -1.2196   -1.3374 H   0  0  0  0  0  0  0  0  0  0  0  0
   -0.4028   -1.9744   -1.2049 H   0  0  0  0  0  0  0  0  0  0  0  0
   -0.3142   -1.7254    1.3381 H   0  0  0  0  0  0  0  0  0  0  0  0
    1.4108   -1.9051    0.9506 H   0  0  0  0  0  0  0  0  0  0  0  0
    2.8600   -0.3871    0.4592 H   0  0  0  0  0  0  0  0  0  0  0  0
    2.1771    0.5300   -1.0011 H   0  0  0  0  0  0  0  0  0  0  0  0
    3.4998    1.7616    0.5956 H   0  0  0  0  0  0  0  0  0  0  0  0
  1  2  1  0
  2  3  1  0
  3  4  1  0
  4  5  1  0
  5  6  1  0
  6  7  1  0
  7  8  1  0
  6  9  1  0
  6  3  1  0
  9  3  1  0
  1 10  1  0
  1 11  1  0
  1 12  1  0
  2 13  1  0
  2 14  1  0
  4 15  1  0
  4 16  1  0
  5 17  1  0
  5 18  1  0
  7 19  1  0
  7 20  1  0
  8 21  1  0
M  END
