
     RDKit          3D

 23 23  0  0  0  0  0  0  0  0999 V2000
    2.3926   -0.2308    0.4998 C   0  0  0  0  0  0  0  0  0  0  0  0
    1.4289   -0.2843   -0.6400 C   0  0  0  0  0  0  0  0  0  0  0  0
    0.0192    0.0200   -0.2172 C   0  0  0  0  0  0  0  0  0  0  0  0
   -0.1228    1.3924    0.3877 C   0  0  0  0  0  0  0  0  0  0  0  0
    0.2464    2.3921   -0.5032 O   0  0  0  0  0  0  0  0  0  0  0  0
   -0.9008   -0.0601   -1.3616 C   0  0  0  0  0  0  0  0  0  0  0  0
   -2.0423   -0.5807   -0.9820 C   0  0  0  0  0  0  0  0  0  0  0  0
   -1.9866   -0.9055    0.4910 C   0  0  0  0  0  0  0  0  0  0  0  0
   -0.4699   -1.0059    0.7352 C   0  0  0  0  0  0  0  0  0  0  0  0
    3.1659    0.5559    0.2678 H   0  0  0  0  0  0  0  0  0  0  0  0
    2.9873   -1.1845    0.5952 H   0  0  0  0  0  0  0  0  0  0  0  0
    1.9519    0.0403    1.4674 H   0  0  0  0  0  0  0  0  0  0  0  0
    1.4267   -1.3340   -1.0252 H   0  0  0  0  0  0  0  0  0  0  0  0
    1.7574    0.3460   -1.4809 H   0  0  0  0  0  0  0  0  0  0  0  0
   -1.1866    1.5255    0.6728 H   0  0  0  0  0  0  0  0  0  0  0  0
    0.4546    1.4189    1.3314 H   0  0  0  0  0  0  0  0  0  0  0  0
   -0.3051    3.1985   -0.2630 H   0  0  0  0  0  0  0  0  0  0  0  0
   -0.6713    0.2623   -2.3681 H   0  0  0  0  0  0  0  0  0  0  0  0
   -2.9512   -0.7859   -1.5710 H   0  0  0  0  0  0  0  0  0  0  0  0
   -2.4459   -0.1228    1.1018 H   0  0  0  0  0  0  0  0  0  0  0  0
   -2.4223   -1.9051    0.6049 H   0  0  0  0  0  0  0  0  0  0  0  0
   -0.2182   -0.7319    1.7709 H   0  0  0  0  0  0  0  0  0  0  0  0
   -0.1077   -2.0205    0.4861 H   0  0  0  0  0  0  0  0  0  0  0  0
  1  2  1  0
  2  3  1  0
  3  4  1  0
  4  5  1  0
  3  6  1  0
  6  7  2  0
  7  8  1  0
  8  9  1  0
  9  3  1  0
  1 10  1  0
  1 11  1  0
  1 12  1  0
  2 13  1  0
  2 14  1  0
  4 15  1  0
  4 16  1  0
  5 17  1  0
  6 18  1  0
  7 19  1  0
  8 20  1  0
  8 21  1  0
  9 22  1  0
  9 23  1  0
M  END
