
     RDKit          3D

 23 24  0  0  0  0  0  0  0  0999 V2000
    3.5824   -0.1647    0.4381 C   0  0  0  0  0  0  0  0  0  0  0  0
    2.3816   -0.5908   -0.3825 C   0  0  0  0  0  0  0  0  0  0  0  0
    1.1779   -0.5242    0.5270 C   0  0  0  0  0  0  0  0  0  0  0  0
    0.8907    0.8175    1.0965 C   0  0  0  0  0  0  0  0  0  0  0  0
   -0.0351    0.1832    0.0452 C   0  0  0  0  0  0  0  0  0  0  0  0
   -1.2861   -0.0951    0.5338 O   0  0  0  0  0  0  0  0  0  0  0  0
   -2.2286    0.1920   -0.4483 C   0  0  0  0  0  0  0  0  0  0  0  0
   -3.5754    0.6986   -0.0585 C   0  0  0  0  0  0  0  0  0  0  0  0
   -3.4328   -0.7571   -0.5657 C   0  0  0  0  0  0  0  0  0  0  0  0
    3.8809    0.8536    0.1516 H   0  0  0  0  0  0  0  0  0  0  0  0
    3.3684   -0.2074    1.5319 H   0  0  0  0  0  0  0  0  0  0  0  0
    4.4253   -0.8751    0.2646 H   0  0  0  0  0  0  0  0  0  0  0  0
    2.5548   -1.6126   -0.7880 H   0  0  0  0  0  0  0  0  0  0  0  0
    2.2913    0.0880   -1.2525 H   0  0  0  0  0  0  0  0  0  0  0  0
    1.0867   -1.4147    1.1900 H   0  0  0  0  0  0  0  0  0  0  0  0
    0.5646    0.8195    2.1492 H   0  0  0  0  0  0  0  0  0  0  0  0
    1.3892    1.7195    0.7460 H   0  0  0  0  0  0  0  0  0  0  0  0
    0.0310    0.5670   -0.9839 H   0  0  0  0  0  0  0  0  0  0  0  0
   -1.8445    0.5829   -1.4284 H   0  0  0  0  0  0  0  0  0  0  0  0
   -4.1017    1.3809   -0.7511 H   0  0  0  0  0  0  0  0  0  0  0  0
   -3.7525    0.8321    1.0274 H   0  0  0  0  0  0  0  0  0  0  0  0
   -3.5405   -1.5425    0.1992 H   0  0  0  0  0  0  0  0  0  0  0  0
   -3.8276   -0.9507   -1.5946 H   0  0  0  0  0  0  0  0  0  0  0  0
  1  2  1  0
  2  3  1  0
  3  4  1  0
  4  5  1  0
  5  6  1  0
  6  7  1  0
  7  8  1  0
  8  9  1  0
  5  3  1  0
  9  7  1  0
  1 10  1  0
  1 11  1  0
  1 12  1  0
  2 13  1  0
  2 14  1  0
  3 15  1  0
  4 16  1  0
  4 17  1  0
  5 18  1  0
  7 19  1  0
  8 20  1  0
  8 21  1  0
  9 22  1  0
  9 23  1  0
M  END
