
     RDKit          3D

 25 25  0  0  0  0  0  0  0  0999 V2000
    2.9440    0.5406    0.4408 C   0  0  0  0  0  0  0  0  0  0  0  0
    1.8950   -0.4704   -0.0289 C   0  0  0  0  0  0  0  0  0  0  0  0
    0.5375    0.0914    0.3329 C   0  0  0  0  0  0  0  0  0  0  0  0
    0.3778    1.2977   -0.3044 O   0  0  0  0  0  0  0  0  0  0  0  0
   -0.4363    1.0777   -1.4229 C   0  0  0  0  0  0  0  0  0  0  0  0
   -1.4985    0.1648   -0.7960 C   0  0  0  0  0  0  0  0  0  0  0  0
   -2.1622    0.9514    0.2868 C   0  0  0  0  0  0  0  0  0  0  0  0
   -0.5240   -0.8505   -0.1862 C   0  0  0  0  0  0  0  0  0  0  0  0
   -1.1649   -1.6764    0.8727 C   0  0  0  0  0  0  0  0  0  0  0  0
    2.8386    0.7339    1.5268 H   0  0  0  0  0  0  0  0  0  0  0  0
    2.8837    1.4492   -0.1669 H   0  0  0  0  0  0  0  0  0  0  0  0
    3.9313    0.0548    0.2666 H   0  0  0  0  0  0  0  0  0  0  0  0
    2.0761   -1.4632    0.3804 H   0  0  0  0  0  0  0  0  0  0  0  0
    1.9416   -0.5006   -1.1417 H   0  0  0  0  0  0  0  0  0  0  0  0
    0.4059    0.1748    1.4326 H   0  0  0  0  0  0  0  0  0  0  0  0
    0.1010    0.4488   -2.1538 H   0  0  0  0  0  0  0  0  0  0  0  0
   -0.8543    1.9968   -1.8109 H   0  0  0  0  0  0  0  0  0  0  0  0
   -2.1574   -0.2806   -1.5299 H   0  0  0  0  0  0  0  0  0  0  0  0
   -2.5620    0.3445    1.1153 H   0  0  0  0  0  0  0  0  0  0  0  0
   -2.9906    1.5450   -0.1307 H   0  0  0  0  0  0  0  0  0  0  0  0
   -1.4129    1.6784    0.7097 H   0  0  0  0  0  0  0  0  0  0  0  0
   -0.1679   -1.5062   -0.9909 H   0  0  0  0  0  0  0  0  0  0  0  0
   -2.1222   -2.0842    0.4439 H   0  0  0  0  0  0  0  0  0  0  0  0
   -1.3520   -1.1429    1.8139 H   0  0  0  0  0  0  0  0  0  0  0  0
   -0.5273   -2.5746    1.0409 H   0  0  0  0  0  0  0  0  0  0  0  0
  1  2  1  0
  2  3  1  0
  3  4  1  0
  4  5  1  0
  5  6  1  0
  6  7  1  0
  6  8  1  0
  8  9  1  0
  8  3  1  0
  1 10  1  0
  1 11  1  0
  1 12  1  0
  2 13  1  0
  2 14  1  0
  3 15  1  0
  5 16  1  0
  5 17  1  0
  6 18  1  0
  7 19  1  0
  7 20  1  0
  7 21  1  0
  8 22  1  0
  9 23  1  0
  9 24  1  0
  9 25  1  0
M  END
