
     RDKit          3D

 25 25  0  0  0  0  0  0  0  0999 V2000
    2.3157   -0.6089   -0.4114 C   0  0  0  0  0  0  0  0  0  0  0  0
    1.2489   -0.7744    0.5967 C   0  0  0  0  0  0  0  0  0  0  0  0
   -0.0660   -0.0903    0.3082 C   0  0  0  0  0  0  0  0  0  0  0  0
   -0.0702    1.3880    0.1615 C   0  0  0  0  0  0  0  0  0  0  0  0
    0.7563    1.9647   -0.9274 C   0  0  0  0  0  0  0  0  0  0  0  0
   -1.1244   -0.9479   -0.2512 C   0  0  0  0  0  0  0  0  0  0  0  0
   -2.2976   -0.3965   -1.0147 C   0  0  0  0  0  0  0  0  0  0  0  0
   -1.1709   -0.6070    1.2240 C   0  0  0  0  0  0  0  0  0  0  0  0
   -0.9394   -1.6918    2.0476 O   0  0  0  0  0  0  0  0  0  0  0  0
    2.8532   -1.6012   -0.5245 H   0  0  0  0  0  0  0  0  0  0  0  0
    3.1168    0.0778   -0.0615 H   0  0  0  0  0  0  0  0  0  0  0  0
    2.0285   -0.3313   -1.4204 H   0  0  0  0  0  0  0  0  0  0  0  0
    1.0579   -1.8667    0.7976 H   0  0  0  0  0  0  0  0  0  0  0  0
    1.5717   -0.3578    1.5991 H   0  0  0  0  0  0  0  0  0  0  0  0
    0.2767    1.8588    1.1228 H   0  0  0  0  0  0  0  0  0  0  0  0
   -1.1121    1.8050    0.0367 H   0  0  0  0  0  0  0  0  0  0  0  0
    0.5466    1.4488   -1.9089 H   0  0  0  0  0  0  0  0  0  0  0  0
    1.8490    1.9552   -0.7539 H   0  0  0  0  0  0  0  0  0  0  0  0
    0.5292    3.0724   -1.0479 H   0  0  0  0  0  0  0  0  0  0  0  0
   -0.8395   -1.9708   -0.5672 H   0  0  0  0  0  0  0  0  0  0  0  0
   -3.1694   -1.0752   -0.7759 H   0  0  0  0  0  0  0  0  0  0  0  0
   -2.6026    0.6015   -0.6676 H   0  0  0  0  0  0  0  0  0  0  0  0
   -2.1788   -0.4637   -2.1126 H   0  0  0  0  0  0  0  0  0  0  0  0
   -1.9204    0.0904    1.6010 H   0  0  0  0  0  0  0  0  0  0  0  0
   -0.6592   -1.4793    2.9499 H   0  0  0  0  0  0  0  0  0  0  0  0
  1  2  1  0
  2  3  1  0
  3  4  1  0
  4  5  1  0
  3  6  1  0
  6  7  1  0
  6  8  1  0
  8  9  1  0
  8  3  1  0
  1 10  1  0
  1 11  1  0
  1 12  1  0
  2 13  1  0
  2 14  1  0
  4 15  1  0
  4 16  1  0
  5 17  1  0
  5 18  1  0
  5 19  1  0
  6 20  1  0
  7 21  1  0
  7 22  1  0
  7 23  1  0
  8 24  1  0
  9 25  1  0
M  END
