
     RDKit          3D

 19 19  0  0  0  0  0  0  0  0999 V2000
    2.5258   -0.3070    0.2338 C   0  0  0  0  0  0  0  0  0  0  0  0
    1.5673    0.5293   -0.6133 C   0  0  0  0  0  0  0  0  0  0  0  0
    0.1485    0.3138   -0.1865 C   0  0  0  0  0  0  0  0  0  0  0  0
   -0.6884    1.2354    0.2652 C   0  0  0  0  0  0  0  0  0  0  0  0
   -1.9891    0.5981    0.5734 C   0  0  0  0  0  0  0  0  0  0  0  0
   -2.0004   -0.6293   -0.2699 C   0  0  0  0  0  0  0  0  0  0  0  0
   -0.5249   -1.0363   -0.2291 C   0  0  0  0  0  0  0  0  0  0  0  0
    3.3312    0.3463    0.6324 H   0  0  0  0  0  0  0  0  0  0  0  0
    1.9322   -0.6214    1.1333 H   0  0  0  0  0  0  0  0  0  0  0  0
    2.9002   -1.1728   -0.3187 H   0  0  0  0  0  0  0  0  0  0  0  0
    1.8094    1.5907   -0.4834 H   0  0  0  0  0  0  0  0  0  0  0  0
    1.6807    0.2417   -1.6741 H   0  0  0  0  0  0  0  0  0  0  0  0
   -0.4009    2.2847    0.3701 H   0  0  0  0  0  0  0  0  0  0  0  0
   -2.8485    1.2718    0.4056 H   0  0  0  0  0  0  0  0  0  0  0  0
   -1.9279    0.2783    1.6533 H   0  0  0  0  0  0  0  0  0  0  0  0
   -2.6037   -1.4074    0.2278 H   0  0  0  0  0  0  0  0  0  0  0  0
   -2.3359   -0.3853   -1.2793 H   0  0  0  0  0  0  0  0  0  0  0  0
   -0.2844   -1.5878   -1.1459 H   0  0  0  0  0  0  0  0  0  0  0  0
   -0.2910   -1.5428    0.7053 H   0  0  0  0  0  0  0  0  0  0  0  0
  1  2  1  0
  2  3  1  0
  3  4  2  0
  4  5  1  0
  5  6  1  0
  6  7  1  0
  7  3  1  0
  1  8  1  0
  1  9  1  0
  1 10  1  0
  2 11  1  0
  2 12  1  0
  4 13  1  0
  5 14  1  0
  5 15  1  0
  6 16  1  0
  6 17  1  0
  7 18  1  0
  7 19  1  0
M  END
