
     RDKit          3D

 23 23  0  0  0  0  0  0  0  0999 V2000
    2.1768   -1.3888    0.4057 C   0  0  0  0  0  0  0  0  0  0  0  0
    1.7628    0.0366    0.3165 C   0  0  0  0  0  0  0  0  0  0  0  0
    0.5328    0.2818   -0.4910 C   0  0  0  0  0  0  0  0  0  0  0  0
    0.2135    1.7752   -0.5062 C   0  0  0  0  0  0  0  0  0  0  0  0
   -1.0460    1.5586    0.2847 C   0  0  0  0  0  0  0  0  0  0  0  0
   -0.7797    0.0583    0.1906 C   0  0  0  0  0  0  0  0  0  0  0  0
   -0.7485   -0.5267    1.4369 O   0  0  0  0  0  0  0  0  0  0  0  0
   -1.8164   -0.5649   -0.7472 C   0  0  0  0  0  0  0  0  0  0  0  0
   -1.5625   -1.9046   -0.9481 O   0  0  0  0  0  0  0  0  0  0  0  0
    1.4317   -2.1050   -0.0073 H   0  0  0  0  0  0  0  0  0  0  0  0
    2.4351   -1.6644    1.4671 H   0  0  0  0  0  0  0  0  0  0  0  0
    3.1201   -1.5909   -0.1717 H   0  0  0  0  0  0  0  0  0  0  0  0
    2.6029    0.6038   -0.1789 H   0  0  0  0  0  0  0  0  0  0  0  0
    1.6304    0.4402    1.3556 H   0  0  0  0  0  0  0  0  0  0  0  0
    0.6156   -0.1365   -1.5131 H   0  0  0  0  0  0  0  0  0  0  0  0
   -0.0216    2.1726   -1.5254 H   0  0  0  0  0  0  0  0  0  0  0  0
    0.9155    2.4032    0.0653 H   0  0  0  0  0  0  0  0  0  0  0  0
   -1.0308    1.9311    1.3290 H   0  0  0  0  0  0  0  0  0  0  0  0
   -1.9594    1.9002   -0.2134 H   0  0  0  0  0  0  0  0  0  0  0  0
   -1.6376   -0.3336    1.8682 H   0  0  0  0  0  0  0  0  0  0  0  0
   -1.8239   -0.0659   -1.7199 H   0  0  0  0  0  0  0  0  0  0  0  0
   -2.8323   -0.4446   -0.3133 H   0  0  0  0  0  0  0  0  0  0  0  0
   -2.1785   -2.4357   -0.3839 H   0  0  0  0  0  0  0  0  0  0  0  0
  1  2  1  0
  2  3  1  0
  3  4  1  0
  4  5  1  0
  5  6  1  0
  6  7  1  0
  6  8  1  0
  8  9  1  0
  6  3  1  0
  1 10  1  0
  1 11  1  0
  1 12  1  0
  2 13  1  0
  2 14  1  0
  3 15  1  0
  4 16  1  0
  4 17  1  0
  5 18  1  0
  5 19  1  0
  7 20  1  0
  8 21  1  0
  8 22  1  0
  9 23  1  0
M  END
