
     RDKit          3D

 21 21  0  0  0  0  0  0  0  0999 V2000
    1.6700   -1.4849    0.2089 C   0  0  0  0  0  0  0  0  0  0  0  0
    1.0423   -0.5073   -0.7557 C   0  0  0  0  0  0  0  0  0  0  0  0
    0.4241    0.6249    0.0083 C   0  0  0  0  0  0  0  0  0  0  0  0
    1.3869    1.3950    0.8441 C   0  0  0  0  0  0  0  0  0  0  0  0
    1.0253    2.3504    1.5258 O   0  0  0  0  0  0  0  0  0  0  0  0
   -0.5836    1.4994   -0.6767 C   0  0  0  0  0  0  0  0  0  0  0  0
   -0.9631    0.5949    0.4855 C   0  0  0  0  0  0  0  0  0  0  0  0
   -1.9437   -0.4750    0.1163 C   0  0  0  0  0  0  0  0  0  0  0  0
   -2.1752   -0.5695   -1.2463 O   0  0  0  0  0  0  0  0  0  0  0  0
    2.4625   -0.9427    0.7590 H   0  0  0  0  0  0  0  0  0  0  0  0
    0.9232   -1.8113    0.9854 H   0  0  0  0  0  0  0  0  0  0  0  0
    2.0421   -2.3961   -0.2897 H   0  0  0  0  0  0  0  0  0  0  0  0
    1.8758   -0.1096   -1.3877 H   0  0  0  0  0  0  0  0  0  0  0  0
    0.3499   -1.0110   -1.4456 H   0  0  0  0  0  0  0  0  0  0  0  0
    2.4265    1.0947    0.8411 H   0  0  0  0  0  0  0  0  0  0  0  0
   -0.5832    2.5993   -0.5059 H   0  0  0  0  0  0  0  0  0  0  0  0
   -0.9417    1.2403   -1.6959 H   0  0  0  0  0  0  0  0  0  0  0  0
   -1.1743    1.0481    1.4769 H   0  0  0  0  0  0  0  0  0  0  0  0
   -2.9223   -0.2265    0.5764 H   0  0  0  0  0  0  0  0  0  0  0  0
   -1.6689   -1.4835    0.4828 H   0  0  0  0  0  0  0  0  0  0  0  0
   -2.6727   -1.4293   -1.3855 H   0  0  0  0  0  0  0  0  0  0  0  0
  1  2  1  0
  2  3  1  0
  3  4  1  0
  4  5  2  0
  3  6  1  0
  6  7  1  0
  7  8  1  0
  8  9  1  0
  7  3  1  0
  1 10  1  0
  1 11  1  0
  1 12  1  0
  2 13  1  0
  2 14  1  0
  4 15  1  0
  6 16  1  0
  6 17  1  0
  7 18  1  0
  8 19  1  0
  8 20  1  0
  9 21  1  0
M  END
