
     RDKit          3D

 21 22  0  0  0  0  0  0  0  0999 V2000
    2.1502    0.4884   -0.4728 C   0  0  0  0  0  0  0  0  0  0  0  0
    1.5132   -0.3860    0.5429 C   0  0  0  0  0  0  0  0  0  0  0  0
    0.0238   -0.3815    0.5362 C   0  0  0  0  0  0  0  0  0  0  0  0
   -0.4728   -1.2167    1.5067 O   0  0  0  0  0  0  0  0  0  0  0  0
   -0.5529   -0.8582   -0.8077 C   0  0  0  0  0  0  0  0  0  0  0  0
   -1.5113    0.3250   -1.0041 C   0  0  0  0  0  0  0  0  0  0  0  0
   -2.0770    0.6045    0.3697 C   0  0  0  0  0  0  0  0  0  0  0  0
   -0.6030    0.9724    0.5465 C   0  0  0  0  0  0  0  0  0  0  0  0
   -0.6647    1.3888   -0.8016 O   0  0  0  0  0  0  0  0  0  0  0  0
    3.0666   -0.0081   -0.9094 H   0  0  0  0  0  0  0  0  0  0  0  0
    1.5231    0.7582   -1.3303 H   0  0  0  0  0  0  0  0  0  0  0  0
    2.5701    1.3987    0.0465 H   0  0  0  0  0  0  0  0  0  0  0  0
    1.8541   -1.4276    0.3726 H   0  0  0  0  0  0  0  0  0  0  0  0
    1.8342   -0.1241    1.5722 H   0  0  0  0  0  0  0  0  0  0  0  0
   -0.0786   -2.1019    1.4376 H   0  0  0  0  0  0  0  0  0  0  0  0
   -1.0840   -1.8035   -0.7142 H   0  0  0  0  0  0  0  0  0  0  0  0
    0.1859   -0.8009   -1.6076 H   0  0  0  0  0  0  0  0  0  0  0  0
   -2.1653    0.2937   -1.8404 H   0  0  0  0  0  0  0  0  0  0  0  0
   -2.7578    1.4513    0.3346 H   0  0  0  0  0  0  0  0  0  0  0  0
   -2.3999   -0.2659    0.9393 H   0  0  0  0  0  0  0  0  0  0  0  0
   -0.3537    1.6933    1.2835 H   0  0  0  0  0  0  0  0  0  0  0  0
  1  2  1  0
  2  3  1  0
  3  4  1  0
  3  5  1  0
  5  6  1  0
  6  7  1  0
  7  8  1  0
  8  9  1  0
  8  3  1  0
  9  6  1  0
  1 10  1  0
  1 11  1  0
  1 12  1  0
  2 13  1  0
  2 14  1  0
  4 15  1  0
  5 16  1  0
  5 17  1  0
  6 18  1  0
  7 19  1  0
  7 20  1  0
  8 21  1  0
M  END
