
     RDKit          3D

 25 26  0  0  0  0  0  0  0  0999 V2000
   -3.0190    0.1789    0.5148 C   0  0  0  0  0  0  0  0  0  0  0  0
   -1.6143    0.5824    0.9019 C   0  0  0  0  0  0  0  0  0  0  0  0
   -0.5552   -0.3157    0.3254 C   0  0  0  0  0  0  0  0  0  0  0  0
    0.8449    0.1034    0.7228 C   0  0  0  0  0  0  0  0  0  0  0  0
    1.1880    1.5246    0.2552 C   0  0  0  0  0  0  0  0  0  0  0  0
    1.8969    0.2985   -0.2976 C   0  0  0  0  0  0  0  0  0  0  0  0
    3.3350    0.1856    0.1447 C   0  0  0  0  0  0  0  0  0  0  0  0
   -0.8113   -1.8144    0.3618 C   0  0  0  0  0  0  0  0  0  0  0  0
   -0.8070   -1.0381   -0.9292 C   0  0  0  0  0  0  0  0  0  0  0  0
   -3.7457    0.8837    0.9945 H   0  0  0  0  0  0  0  0  0  0  0  0
   -3.2024   -0.8220    0.9557 H   0  0  0  0  0  0  0  0  0  0  0  0
   -3.1976    0.2489   -0.5596 H   0  0  0  0  0  0  0  0  0  0  0  0
   -1.4931    0.5899    1.9935 H   0  0  0  0  0  0  0  0  0  0  0  0
   -1.4962    1.6382    0.5664 H   0  0  0  0  0  0  0  0  0  0  0  0
    1.0871   -0.0936    1.7862 H   0  0  0  0  0  0  0  0  0  0  0  0
    0.5253    2.0159   -0.4660 H   0  0  0  0  0  0  0  0  0  0  0  0
    1.7318    2.1796    0.9711 H   0  0  0  0  0  0  0  0  0  0  0  0
    1.6772   -0.0381   -1.3117 H   0  0  0  0  0  0  0  0  0  0  0  0
    3.4867    0.7164    1.1254 H   0  0  0  0  0  0  0  0  0  0  0  0
    3.6774   -0.8378    0.2750 H   0  0  0  0  0  0  0  0  0  0  0  0
    3.9412    0.7741   -0.5960 H   0  0  0  0  0  0  0  0  0  0  0  0
   -1.7395   -2.2179    0.7642 H   0  0  0  0  0  0  0  0  0  0  0  0
    0.0796   -2.4771    0.5674 H   0  0  0  0  0  0  0  0  0  0  0  0
    0.0069   -1.3155   -1.6279 H   0  0  0  0  0  0  0  0  0  0  0  0
   -1.7967   -0.9499   -1.4174 H   0  0  0  0  0  0  0  0  0  0  0  0
  1  2  1  0
  2  3  1  0
  3  4  1  0
  4  5  1  0
  5  6  1  0
  6  7  1  0
  3  8  1  0
  8  9  1  0
  9  3  1  0
  6  4  1  0
  1 10  1  0
  1 11  1  0
  1 12  1  0
  2 13  1  0
  2 14  1  0
  4 15  1  0
  5 16  1  0
  5 17  1  0
  6 18  1  0
  7 19  1  0
  7 20  1  0
  7 21  1  0
  8 22  1  0
  8 23  1  0
  9 24  1  0
  9 25  1  0
M  END
