
     RDKit          3D

 19 20  0  0  0  0  0  0  0  0999 V2000
    1.9734   -0.0020   -0.7760 C   0  0  0  0  0  0  0  0  0  0  0  0
    1.6898   -0.3364    0.6418 C   0  0  0  0  0  0  0  0  0  0  0  0
    0.2202   -0.3913    1.0117 C   0  0  0  0  0  0  0  0  0  0  0  0
   -0.6269    0.7709    0.8549 C   0  0  0  0  0  0  0  0  0  0  0  0
   -1.4267    1.1985   -0.3335 C   0  0  0  0  0  0  0  0  0  0  0  0
   -1.4978    2.0145   -1.1959 O   0  0  0  0  0  0  0  0  0  0  0  0
   -2.2295   -0.0262    0.0819 C   0  0  0  0  0  0  0  0  0  0  0  0
   -0.8063   -0.5918    0.0554 C   0  0  0  0  0  0  0  0  0  0  0  0
   -0.3697   -0.5183   -1.2956 O   0  0  0  0  0  0  0  0  0  0  0  0
    3.0717    0.2795   -0.8050 H   0  0  0  0  0  0  0  0  0  0  0  0
    1.9199   -0.8844   -1.4547 H   0  0  0  0  0  0  0  0  0  0  0  0
    1.4651    0.8954   -1.1463 H   0  0  0  0  0  0  0  0  0  0  0  0
    2.1601    0.4030    1.3391 H   0  0  0  0  0  0  0  0  0  0  0  0
    2.2060   -1.3091    0.8828 H   0  0  0  0  0  0  0  0  0  0  0  0
    0.1269   -1.0471    1.9414 H   0  0  0  0  0  0  0  0  0  0  0  0
   -1.3445    0.8851    1.7295 H   0  0  0  0  0  0  0  0  0  0  0  0
   -2.8513   -0.4284   -0.7139 H   0  0  0  0  0  0  0  0  0  0  0  0
   -2.6694    0.0573    1.0808 H   0  0  0  0  0  0  0  0  0  0  0  0
   -1.0113   -0.9690   -1.8986 H   0  0  0  0  0  0  0  0  0  0  0  0
  1  2  1  0
  2  3  1  0
  3  4  1  0
  4  5  1  0
  5  6  2  0
  5  7  1  0
  7  8  1  0
  8  9  1  0
  8  3  1  0
  8  4  1  0
  1 10  1  0
  1 11  1  0
  1 12  1  0
  2 13  1  0
  2 14  1  0
  3 15  1  0
  4 16  1  0
  7 17  1  0
  7 18  1  0
  9 19  1  0
M  END
