
     RDKit          3D

 20 20  0  0  0  0  0  0  0  0999 V2000
   -2.2766   -0.9641   -0.1260 C   0  0  0  0  0  0  0  0  0  0  0  0
   -1.4393   -0.0111    0.6880 C   0  0  0  0  0  0  0  0  0  0  0  0
   -0.1816    0.4090   -0.0244 C   0  0  0  0  0  0  0  0  0  0  0  0
    0.8270   -0.6289   -0.4308 C   0  0  0  0  0  0  0  0  0  0  0  0
    2.2161   -0.0215   -0.5987 C   0  0  0  0  0  0  0  0  0  0  0  0
    0.9551   -1.6383    0.5187 O   0  0  0  0  0  0  0  0  0  0  0  0
    0.3033    1.7759    0.2965 C   0  0  0  0  0  0  0  0  0  0  0  0
   -0.3009    1.4395   -1.0122 O   0  0  0  0  0  0  0  0  0  0  0  0
   -3.3133   -0.5693   -0.1719 H   0  0  0  0  0  0  0  0  0  0  0  0
   -2.2889   -1.9536    0.3611 H   0  0  0  0  0  0  0  0  0  0  0  0
   -1.8822   -0.9770   -1.1537 H   0  0  0  0  0  0  0  0  0  0  0  0
   -2.0162    0.8978    0.9562 H   0  0  0  0  0  0  0  0  0  0  0  0
   -1.1332   -0.4637    1.6691 H   0  0  0  0  0  0  0  0  0  0  0  0
    0.5799   -1.1254   -1.3898 H   0  0  0  0  0  0  0  0  0  0  0  0
    2.1025    0.8782   -1.2594 H   0  0  0  0  0  0  0  0  0  0  0  0
    2.9127   -0.7581   -1.0171 H   0  0  0  0  0  0  0  0  0  0  0  0
    2.6282    0.3510    0.3542 H   0  0  0  0  0  0  0  0  0  0  0  0
    1.3690   -1.1943    1.3244 H   0  0  0  0  0  0  0  0  0  0  0  0
    1.3402    2.0872    0.1953 H   0  0  0  0  0  0  0  0  0  0  0  0
   -0.4015    2.4668    0.8205 H   0  0  0  0  0  0  0  0  0  0  0  0
  1  2  1  0
  2  3  1  0
  3  4  1  0
  4  5  1  0
  4  6  1  0
  3  7  1  0
  7  8  1  0
  8  3  1  0
  1  9  1  0
  1 10  1  0
  1 11  1  0
  2 12  1  0
  2 13  1  0
  4 14  1  0
  5 15  1  0
  5 16  1  0
  5 17  1  0
  6 18  1  0
  7 19  1  0
  7 20  1  0
M  END
