
     RDKit          3D

 20 20  0  0  0  0  0  0  0  0999 V2000
    1.9416   -1.0324    0.4476 C   0  0  0  0  0  0  0  0  0  0  0  0
    1.1303   -0.2927   -0.5772 C   0  0  0  0  0  0  0  0  0  0  0  0
    0.2241    0.7422    0.0133 C   0  0  0  0  0  0  0  0  0  0  0  0
    0.8424    1.7379    0.7254 O   0  0  0  0  0  0  0  0  0  0  0  0
   -0.7449    1.2590   -1.0316 C   0  0  0  0  0  0  0  0  0  0  0  0
   -1.6590    1.4382    0.0210 O   0  0  0  0  0  0  0  0  0  0  0  0
   -1.0513    0.3041    0.6126 C   0  0  0  0  0  0  0  0  0  0  0  0
   -1.6992   -0.9313    0.0992 C   0  0  0  0  0  0  0  0  0  0  0  0
    1.5622   -2.0756    0.5294 H   0  0  0  0  0  0  0  0  0  0  0  0
    1.8604   -0.5928    1.4656 H   0  0  0  0  0  0  0  0  0  0  0  0
    3.0209   -1.1037    0.1808 H   0  0  0  0  0  0  0  0  0  0  0  0
    0.5879   -0.9418   -1.2778 H   0  0  0  0  0  0  0  0  0  0  0  0
    1.8769    0.2721   -1.2124 H   0  0  0  0  0  0  0  0  0  0  0  0
    0.4010    1.9862    1.5639 H   0  0  0  0  0  0  0  0  0  0  0  0
   -1.0265    0.4490   -1.7462 H   0  0  0  0  0  0  0  0  0  0  0  0
   -0.3572    2.1794   -1.4792 H   0  0  0  0  0  0  0  0  0  0  0  0
   -1.1575    0.4316    1.7257 H   0  0  0  0  0  0  0  0  0  0  0  0
   -2.3206   -1.4068    0.9083 H   0  0  0  0  0  0  0  0  0  0  0  0
   -2.4315   -0.7313   -0.7285 H   0  0  0  0  0  0  0  0  0  0  0  0
   -1.0000   -1.6913   -0.2399 H   0  0  0  0  0  0  0  0  0  0  0  0
  1  2  1  0
  2  3  1  0
  3  4  1  0
  3  5  1  0
  5  6  1  0
  6  7  1  0
  7  8  1  0
  7  3  1  0
  1  9  1  0
  1 10  1  0
  1 11  1  0
  2 12  1  0
  2 13  1  0
  4 14  1  0
  5 15  1  0
  5 16  1  0
  7 17  1  0
  8 18  1  0
  8 19  1  0
  8 20  1  0
M  END
