
     RDKit          3D

 18 18  0  0  0  0  0  0  0  0999 V2000
   -2.0979   -0.2580    0.3096 C   0  0  0  0  0  0  0  0  0  0  0  0
   -0.9054    0.6519    0.3326 C   0  0  0  0  0  0  0  0  0  0  0  0
    0.0461    0.4316   -0.7937 C   0  0  0  0  0  0  0  0  0  0  0  0
    0.5834   -0.9741   -0.7734 C   0  0  0  0  0  0  0  0  0  0  0  0
    1.4262   -0.9610    0.4333 C   0  0  0  0  0  0  0  0  0  0  0  0
    1.8421    0.2667    0.6413 C   0  0  0  0  0  0  0  0  0  0  0  0
    1.3094    1.1638   -0.4058 C   0  0  0  0  0  0  0  0  0  0  0  0
    1.7987    2.2136   -0.8169 O   0  0  0  0  0  0  0  0  0  0  0  0
   -1.8092   -1.3085    0.4379 H   0  0  0  0  0  0  0  0  0  0  0  0
   -2.7167    0.0056    1.2109 H   0  0  0  0  0  0  0  0  0  0  0  0
   -2.7531   -0.0754   -0.5705 H   0  0  0  0  0  0  0  0  0  0  0  0
   -0.3664    0.4707    1.2866 H   0  0  0  0  0  0  0  0  0  0  0  0
   -1.2583    1.7080    0.3315 H   0  0  0  0  0  0  0  0  0  0  0  0
   -0.3177    0.7521   -1.7744 H   0  0  0  0  0  0  0  0  0  0  0  0
    1.2562   -1.0722   -1.6497 H   0  0  0  0  0  0  0  0  0  0  0  0
   -0.2079   -1.7425   -0.7489 H   0  0  0  0  0  0  0  0  0  0  0  0
    1.6812   -1.8218    1.0727 H   0  0  0  0  0  0  0  0  0  0  0  0
    2.4893    0.5494    1.4768 H   0  0  0  0  0  0  0  0  0  0  0  0
  1  2  1  0
  2  3  1  0
  3  4  1  0
  4  5  1  0
  5  6  2  0
  6  7  1  0
  7  8  2  0
  7  3  1  0
  1  9  1  0
  1 10  1  0
  1 11  1  0
  2 12  1  0
  2 13  1  0
  3 14  1  0
  4 15  1  0
  4 16  1  0
  5 17  1  0
  6 18  1  0
M  END
