
     RDKit          3D

 17 17  0  0  0  0  0  0  0  0999 V2000
   -2.2062   -0.4812   -0.1640 C   0  0  0  0  0  0  0  0  0  0  0  0
   -1.3252    0.7492   -0.1672 C   0  0  0  0  0  0  0  0  0  0  0  0
    0.0745    0.3033   -0.0252 C   0  0  0  0  0  0  0  0  0  0  0  0
    0.5392   -0.9371    0.0888 C   0  0  0  0  0  0  0  0  0  0  0  0
    2.0412   -0.8398    0.2059 C   0  0  0  0  0  0  0  0  0  0  0  0
    2.2470    0.3372   -0.5521 O   0  0  0  0  0  0  0  0  0  0  0  0
    1.2902    1.1713    0.0217 C   0  0  0  0  0  0  0  0  0  0  0  0
   -3.2364   -0.2056   -0.4893 H   0  0  0  0  0  0  0  0  0  0  0  0
   -2.2144   -0.9042    0.8682 H   0  0  0  0  0  0  0  0  0  0  0  0
   -1.7433   -1.2155   -0.8478 H   0  0  0  0  0  0  0  0  0  0  0  0
   -1.5946    1.4625    0.6432 H   0  0  0  0  0  0  0  0  0  0  0  0
   -1.5188    1.2806   -1.1192 H   0  0  0  0  0  0  0  0  0  0  0  0
   -0.0509   -1.8530    0.0965 H   0  0  0  0  0  0  0  0  0  0  0  0
    2.5463   -1.6682   -0.3118 H   0  0  0  0  0  0  0  0  0  0  0  0
    2.3664   -0.6647    1.2330 H   0  0  0  0  0  0  0  0  0  0  0  0
    1.6294    1.3530    1.0694 H   0  0  0  0  0  0  0  0  0  0  0  0
    1.1554    2.1124   -0.5501 H   0  0  0  0  0  0  0  0  0  0  0  0
  1  2  1  0
  2  3  1  0
  3  4  2  0
  4  5  1  0
  5  6  1  0
  6  7  1  0
  7  3  1  0
  1  8  1  0
  1  9  1  0
  1 10  1  0
  2 11  1  0
  2 12  1  0
  4 13  1  0
  5 14  1  0
  5 15  1  0
  7 16  1  0
  7 17  1  0
M  END
