
     RDKit          3D

 19 19  0  0  0  0  0  0  0  0999 V2000
   -2.6166    0.3109   -0.2380 C   0  0  0  0  0  0  0  0  0  0  0  0
   -1.5627   -0.7342   -0.0013 C   0  0  0  0  0  0  0  0  0  0  0  0
   -0.2598   -0.1432    0.4715 C   0  0  0  0  0  0  0  0  0  0  0  0
    0.7411   -1.2216    0.6880 C   0  0  0  0  0  0  0  0  0  0  0  0
    1.1605   -1.7945    1.6931 O   0  0  0  0  0  0  0  0  0  0  0  0
    0.9126   -1.2171   -0.7074 O   0  0  0  0  0  0  0  0  0  0  0  0
    0.7206    0.1827   -0.6424 C   0  0  0  0  0  0  0  0  0  0  0  0
    1.9568    0.8363   -0.0583 C   0  0  0  0  0  0  0  0  0  0  0  0
    3.0925    0.6018   -0.8076 O   0  0  0  0  0  0  0  0  0  0  0  0
   -2.0732    1.2951   -0.3532 H   0  0  0  0  0  0  0  0  0  0  0  0
   -3.3322    0.3877    0.6097 H   0  0  0  0  0  0  0  0  0  0  0  0
   -3.2254    0.0984   -1.1474 H   0  0  0  0  0  0  0  0  0  0  0  0
   -1.3831   -1.3905   -0.8658 H   0  0  0  0  0  0  0  0  0  0  0  0
   -1.9320   -1.3976    0.8247 H   0  0  0  0  0  0  0  0  0  0  0  0
   -0.3281    0.5872    1.2717 H   0  0  0  0  0  0  0  0  0  0  0  0
    0.2948    0.6681   -1.5116 H   0  0  0  0  0  0  0  0  0  0  0  0
    1.8182    1.9554    0.0040 H   0  0  0  0  0  0  0  0  0  0  0  0
    2.1167    0.5142    0.9908 H   0  0  0  0  0  0  0  0  0  0  0  0
    3.8993    0.4609   -0.2205 H   0  0  0  0  0  0  0  0  0  0  0  0
  1  2  1  0
  2  3  1  0
  3  4  1  0
  4  5  2  0
  4  6  1  0
  6  7  1  0
  7  8  1  0
  8  9  1  0
  7  3  1  0
  1 10  1  0
  1 11  1  0
  1 12  1  0
  2 13  1  0
  2 14  1  0
  3 15  1  0
  7 16  1  0
  8 17  1  0
  8 18  1  0
  9 19  1  0
M  END
