
     RDKit          3D

 25 25  0  0  0  0  0  0  0  0999 V2000
   -2.3675    0.8752   -0.3653 C   0  0  0  0  0  0  0  0  0  0  0  0
   -1.5875   -0.3360   -0.8112 C   0  0  0  0  0  0  0  0  0  0  0  0
   -0.6382   -0.7213    0.2880 C   0  0  0  0  0  0  0  0  0  0  0  0
    0.2254   -1.9276   -0.0033 C   0  0  0  0  0  0  0  0  0  0  0  0
    1.3501   -1.1927    0.7003 C   0  0  0  0  0  0  0  0  0  0  0  0
    0.6388    0.0887    0.3154 C   0  0  0  0  0  0  0  0  0  0  0  0
    0.6349    1.1497    1.3804 C   0  0  0  0  0  0  0  0  0  0  0  0
    1.0800    0.6139   -1.0327 C   0  0  0  0  0  0  0  0  0  0  0  0
    2.2608    1.3363   -0.8647 O   0  0  0  0  0  0  0  0  0  0  0  0
   -2.9621    0.6085    0.5105 H   0  0  0  0  0  0  0  0  0  0  0  0
   -1.6089    1.6256   -0.0128 H   0  0  0  0  0  0  0  0  0  0  0  0
   -2.9772    1.3145   -1.1909 H   0  0  0  0  0  0  0  0  0  0  0  0
   -1.0045   -0.1582   -1.7386 H   0  0  0  0  0  0  0  0  0  0  0  0
   -2.3213   -1.1257   -1.0476 H   0  0  0  0  0  0  0  0  0  0  0  0
   -1.0640   -0.8026    1.2924 H   0  0  0  0  0  0  0  0  0  0  0  0
    0.3800   -2.0832   -1.0859 H   0  0  0  0  0  0  0  0  0  0  0  0
   -0.0967   -2.8661    0.4712 H   0  0  0  0  0  0  0  0  0  0  0  0
    2.3465   -1.3066    0.2532 H   0  0  0  0  0  0  0  0  0  0  0  0
    1.2894   -1.3502    1.7986 H   0  0  0  0  0  0  0  0  0  0  0  0
    0.5742    2.1405    0.8615 H   0  0  0  0  0  0  0  0  0  0  0  0
    1.5884    1.1364    1.9384 H   0  0  0  0  0  0  0  0  0  0  0  0
   -0.2390    0.9983    2.0252 H   0  0  0  0  0  0  0  0  0  0  0  0
    0.3241    1.3491   -1.4081 H   0  0  0  0  0  0  0  0  0  0  0  0
    1.1871   -0.1649   -1.7835 H   0  0  0  0  0  0  0  0  0  0  0  0
    2.9870    0.7983   -0.4906 H   0  0  0  0  0  0  0  0  0  0  0  0
  1  2  1  0
  2  3  1  0
  3  4  1  0
  4  5  1  0
  5  6  1  0
  6  7  1  0
  6  8  1  0
  8  9  1  0
  6  3  1  0
  1 10  1  0
  1 11  1  0
  1 12  1  0
  2 13  1  0
  2 14  1  0
  3 15  1  0
  4 16  1  0
  4 17  1  0
  5 18  1  0
  5 19  1  0
  7 20  1  0
  7 21  1  0
  7 22  1  0
  8 23  1  0
  8 24  1  0
  9 25  1  0
M  END
