
     RDKit          3D

 19 19  0  0  0  0  0  0  0  0999 V2000
   -1.7816    0.6186   -0.2614 C   0  0  0  0  0  0  0  0  0  0  0  0
   -1.3863   -0.8077   -0.5178 C   0  0  0  0  0  0  0  0  0  0  0  0
    0.0872   -1.0442   -0.2639 C   0  0  0  0  0  0  0  0  0  0  0  0
    0.4313   -0.7321    1.1387 C   0  0  0  0  0  0  0  0  0  0  0  0
   -0.0911   -1.3068    2.0959 O   0  0  0  0  0  0  0  0  0  0  0  0
    1.4538    0.3310    1.1535 C   0  0  0  0  0  0  0  0  0  0  0  0
    1.3895    0.9405   -0.2068 C   0  0  0  0  0  0  0  0  0  0  0  0
    0.9476   -0.1697   -1.0746 C   0  0  0  0  0  0  0  0  0  0  0  0
    1.2472   -0.3165   -2.2336 O   0  0  0  0  0  0  0  0  0  0  0  0
   -2.8851    0.6934   -0.0479 H   0  0  0  0  0  0  0  0  0  0  0  0
   -1.3048    1.0227    0.6743 H   0  0  0  0  0  0  0  0  0  0  0  0
   -1.6057    1.2821   -1.1346 H   0  0  0  0  0  0  0  0  0  0  0  0
   -1.9705   -1.4518    0.1709 H   0  0  0  0  0  0  0  0  0  0  0  0
   -1.6715   -1.0737   -1.5524 H   0  0  0  0  0  0  0  0  0  0  0  0
    0.3172   -2.1312   -0.4085 H   0  0  0  0  0  0  0  0  0  0  0  0
    2.4479   -0.1091    1.2999 H   0  0  0  0  0  0  0  0  0  0  0  0
    1.2175    1.1229    1.9092 H   0  0  0  0  0  0  0  0  0  0  0  0
    2.4173    1.2968   -0.4623 H   0  0  0  0  0  0  0  0  0  0  0  0
    0.7400    1.8346   -0.2788 H   0  0  0  0  0  0  0  0  0  0  0  0
  1  2  1  0
  2  3  1  0
  3  4  1  0
  4  5  2  0
  4  6  1  0
  6  7  1  0
  7  8  1  0
  8  9  2  0
  8  3  1  0
  1 10  1  0
  1 11  1  0
  1 12  1  0
  2 13  1  0
  2 14  1  0
  3 15  1  0
  6 16  1  0
  6 17  1  0
  7 18  1  0
  7 19  1  0
M  END
