
     RDKit          3D

 21 22  0  0  0  0  0  0  0  0999 V2000
   -2.6997    0.6700   -0.8545 C   0  0  0  0  0  0  0  0  0  0  0  0
   -1.7928    0.1913    0.2390 C   0  0  0  0  0  0  0  0  0  0  0  0
   -0.5995   -0.5632   -0.2874 C   0  0  0  0  0  0  0  0  0  0  0  0
    0.2387    0.1193   -1.1351 O   0  0  0  0  0  0  0  0  0  0  0  0
    1.3764   -0.0916   -0.4020 C   0  0  0  0  0  0  0  0  0  0  0  0
    2.3704    1.0120   -0.2760 C   0  0  0  0  0  0  0  0  0  0  0  0
    1.7080   -1.3940    0.2245 C   0  0  0  0  0  0  0  0  0  0  0  0
    0.5641   -0.6174    0.6952 C   0  0  0  0  0  0  0  0  0  0  0  0
    0.4455   -0.0530    1.9250 O   0  0  0  0  0  0  0  0  0  0  0  0
   -3.4328    1.3769   -0.3756 H   0  0  0  0  0  0  0  0  0  0  0  0
   -3.3207   -0.1404   -1.2842 H   0  0  0  0  0  0  0  0  0  0  0  0
   -2.1076    1.2109   -1.6304 H   0  0  0  0  0  0  0  0  0  0  0  0
   -1.5258    0.9799    0.9499 H   0  0  0  0  0  0  0  0  0  0  0  0
   -2.3901   -0.5606    0.8359 H   0  0  0  0  0  0  0  0  0  0  0  0
   -0.8198   -1.5795   -0.6678 H   0  0  0  0  0  0  0  0  0  0  0  0
    2.8699    1.0505    0.7072 H   0  0  0  0  0  0  0  0  0  0  0  0
    1.9575    1.9736   -0.6048 H   0  0  0  0  0  0  0  0  0  0  0  0
    3.2011    0.7598   -1.0025 H   0  0  0  0  0  0  0  0  0  0  0  0
    2.6028   -1.4201    0.8462 H   0  0  0  0  0  0  0  0  0  0  0  0
    1.5588   -2.3332   -0.3673 H   0  0  0  0  0  0  0  0  0  0  0  0
   -0.2045   -0.5913    2.4647 H   0  0  0  0  0  0  0  0  0  0  0  0
  1  2  1  0
  2  3  1  0
  3  4  1  0
  4  5  1  0
  5  6  1  0
  5  7  1  0
  7  8  1  0
  8  9  1  0
  8  3  1  0
  8  5  1  0
  1 10  1  0
  1 11  1  0
  1 12  1  0
  2 13  1  0
  2 14  1  0
  3 15  1  0
  6 16  1  0
  6 17  1  0
  6 18  1  0
  7 19  1  0
  7 20  1  0
  9 21  1  0
M  END
