
     RDKit          3D

 25 26  0  0  0  0  0  0  0  0999 V2000
   -2.0639    1.3803   -0.5175 C   0  0  0  0  0  0  0  0  0  0  0  0
   -0.9254    0.7007   -1.2177 C   0  0  0  0  0  0  0  0  0  0  0  0
    0.1002    0.2795   -0.1967 C   0  0  0  0  0  0  0  0  0  0  0  0
   -0.2758   -0.6657    0.8921 C   0  0  0  0  0  0  0  0  0  0  0  0
   -1.4959   -1.4991    0.4740 C   0  0  0  0  0  0  0  0  0  0  0  0
    0.9662   -1.5214    0.6660 C   0  0  0  0  0  0  0  0  0  0  0  0
    1.1591   -0.7538   -0.6279 C   0  0  0  0  0  0  0  0  0  0  0  0
    1.5061    0.6744   -0.4503 C   0  0  0  0  0  0  0  0  0  0  0  0
    2.3817    1.0871    0.7132 C   0  0  0  0  0  0  0  0  0  0  0  0
   -3.0483    0.9287   -0.7090 H   0  0  0  0  0  0  0  0  0  0  0  0
   -2.1674    2.4620   -0.8212 H   0  0  0  0  0  0  0  0  0  0  0  0
   -1.9219    1.3833    0.5975 H   0  0  0  0  0  0  0  0  0  0  0  0
   -1.2653   -0.1456   -1.8481 H   0  0  0  0  0  0  0  0  0  0  0  0
   -0.4668    1.4484   -1.8992 H   0  0  0  0  0  0  0  0  0  0  0  0
   -0.3265   -0.2806    1.9129 H   0  0  0  0  0  0  0  0  0  0  0  0
   -1.3416   -1.7549   -0.5970 H   0  0  0  0  0  0  0  0  0  0  0  0
   -2.4363   -0.9606    0.6384 H   0  0  0  0  0  0  0  0  0  0  0  0
   -1.4732   -2.4893    1.0099 H   0  0  0  0  0  0  0  0  0  0  0  0
    1.7830   -1.3356    1.3979 H   0  0  0  0  0  0  0  0  0  0  0  0
    0.7900   -2.5911    0.5591 H   0  0  0  0  0  0  0  0  0  0  0  0
    0.9998   -1.2287   -1.5901 H   0  0  0  0  0  0  0  0  0  0  0  0
    1.7046    1.2377   -1.3699 H   0  0  0  0  0  0  0  0  0  0  0  0
    2.3496    2.2058    0.7573 H   0  0  0  0  0  0  0  0  0  0  0  0
    2.0431    0.6980    1.6770 H   0  0  0  0  0  0  0  0  0  0  0  0
    3.4249    0.7405    0.5492 H   0  0  0  0  0  0  0  0  0  0  0  0
  1  2  1  0
  2  3  1  0
  3  4  1  0
  4  5  1  0
  4  6  1  0
  6  7  1  0
  7  8  1  0
  8  9  1  0
  7  3  1  0
  8  3  1  0
  1 10  1  0
  1 11  1  0
  1 12  1  0
  2 13  1  0
  2 14  1  0
  4 15  1  0
  5 16  1  0
  5 17  1  0
  5 18  1  0
  6 19  1  0
  6 20  1  0
  7 21  1  0
  8 22  1  0
  9 23  1  0
  9 24  1  0
  9 25  1  0
M  END
