
     RDKit          3D

 19 20  0  0  0  0  0  0  0  0999 V2000
    2.5095    0.4963    0.1378 C   0  0  0  0  0  0  0  0  0  0  0  0
    1.4795   -0.4929   -0.3507 C   0  0  0  0  0  0  0  0  0  0  0  0
    0.1752   -0.2918    0.3378 C   0  0  0  0  0  0  0  0  0  0  0  0
   -0.0615    0.6486    1.2755 C   0  0  0  0  0  0  0  0  0  0  0  0
   -1.5348    0.4927    1.5631 C   0  0  0  0  0  0  0  0  0  0  0  0
   -2.2296    0.9096    0.4570 O   0  0  0  0  0  0  0  0  0  0  0  0
   -2.1109   -0.1073   -0.5139 C   0  0  0  0  0  0  0  0  0  0  0  0
   -1.0903   -1.0137    0.1812 C   0  0  0  0  0  0  0  0  0  0  0  0
   -1.6156   -0.9208    1.4962 O   0  0  0  0  0  0  0  0  0  0  0  0
    2.0259    1.4997    0.2378 H   0  0  0  0  0  0  0  0  0  0  0  0
    3.3340    0.6261   -0.5848 H   0  0  0  0  0  0  0  0  0  0  0  0
    2.9483    0.1498    1.0981 H   0  0  0  0  0  0  0  0  0  0  0  0
    1.4007   -0.3799   -1.4479 H   0  0  0  0  0  0  0  0  0  0  0  0
    1.8474   -1.5257   -0.0805 H   0  0  0  0  0  0  0  0  0  0  0  0
    0.6242    1.3381    1.7112 H   0  0  0  0  0  0  0  0  0  0  0  0
   -1.8397    0.8974    2.5078 H   0  0  0  0  0  0  0  0  0  0  0  0
   -3.0849   -0.6006   -0.5688 H   0  0  0  0  0  0  0  0  0  0  0  0
   -1.7265    0.2838   -1.4559 H   0  0  0  0  0  0  0  0  0  0  0  0
   -1.0508   -2.0094   -0.2022 H   0  0  0  0  0  0  0  0  0  0  0  0
  1  2  1  0
  2  3  1  0
  3  4  2  0
  4  5  1  0
  5  6  1  0
  6  7  1  0
  7  8  1  0
  8  9  1  0
  8  3  1  0
  9  5  1  0
  1 10  1  0
  1 11  1  0
  1 12  1  0
  2 13  1  0
  2 14  1  0
  4 15  1  0
  5 16  1  0
  7 17  1  0
  7 18  1  0
  8 19  1  0
M  END
