
     RDKit          3D

 23 23  0  0  0  0  0  0  0  0999 V2000
   -1.6145    1.6279   -0.2282 C   0  0  0  0  0  0  0  0  0  0  0  0
   -1.6255    0.1469   -0.0370 C   0  0  0  0  0  0  0  0  0  0  0  0
   -0.4586   -0.3631    0.7794 C   0  0  0  0  0  0  0  0  0  0  0  0
   -0.6154   -1.8669    0.8803 C   0  0  0  0  0  0  0  0  0  0  0  0
    0.2474   -2.4446   -0.0053 O   0  0  0  0  0  0  0  0  0  0  0  0
    0.7175   -1.4930   -0.8778 C   0  0  0  0  0  0  0  0  0  0  0  0
    0.8439   -0.2781    0.0060 C   0  0  0  0  0  0  0  0  0  0  0  0
    1.0117    0.8957   -0.6662 O   0  0  0  0  0  0  0  0  0  0  0  0
    2.2124    1.4787   -0.2014 C   0  0  0  0  0  0  0  0  0  0  0  0
   -1.2862    2.2009    0.6576 H   0  0  0  0  0  0  0  0  0  0  0  0
   -1.0426    1.9004   -1.1532 H   0  0  0  0  0  0  0  0  0  0  0  0
   -2.6842    1.9412   -0.4120 H   0  0  0  0  0  0  0  0  0  0  0  0
   -1.6502   -0.3421   -1.0141 H   0  0  0  0  0  0  0  0  0  0  0  0
   -2.5471   -0.1435    0.5286 H   0  0  0  0  0  0  0  0  0  0  0  0
   -0.4040    0.1300    1.7558 H   0  0  0  0  0  0  0  0  0  0  0  0
   -1.6478   -2.1917    0.6186 H   0  0  0  0  0  0  0  0  0  0  0  0
   -0.4647   -2.2194    1.9392 H   0  0  0  0  0  0  0  0  0  0  0  0
   -0.0036   -1.3481   -1.7055 H   0  0  0  0  0  0  0  0  0  0  0  0
    1.6675   -1.8002   -1.3229 H   0  0  0  0  0  0  0  0  0  0  0  0
    1.6564   -0.5027    0.7384 H   0  0  0  0  0  0  0  0  0  0  0  0
    3.0013    0.7094   -0.4501 H   0  0  0  0  0  0  0  0  0  0  0  0
    2.2149    1.5708    0.9007 H   0  0  0  0  0  0  0  0  0  0  0  0
    2.4717    2.3914   -0.7310 H   0  0  0  0  0  0  0  0  0  0  0  0
  1  2  1  0
  2  3  1  0
  3  4  1  0
  4  5  1  0
  5  6  1  0
  6  7  1  0
  7  8  1  0
  8  9  1  0
  7  3  1  0
  1 10  1  0
  1 11  1  0
  1 12  1  0
  2 13  1  0
  2 14  1  0
  3 15  1  0
  4 16  1  0
  4 17  1  0
  6 18  1  0
  6 19  1  0
  7 20  1  0
  9 21  1  0
  9 22  1  0
  9 23  1  0
M  END
