
     RDKit          3D

 21 22  0  0  0  0  0  0  0  0999 V2000
    2.5026    0.2220    0.5551 C   0  0  0  0  0  0  0  0  0  0  0  0
    1.8224    0.1246   -0.8090 C   0  0  0  0  0  0  0  0  0  0  0  0
    0.3944    0.0327   -0.6077 C   0  0  0  0  0  0  0  0  0  0  0  0
   -0.5159   -0.0741   -1.7870 C   0  0  0  0  0  0  0  0  0  0  0  0
   -1.7197   -0.0118   -1.1600 C   0  0  0  0  0  0  0  0  0  0  0  0
   -1.2810    0.1450    0.2522 C   0  0  0  0  0  0  0  0  0  0  0  0
   -2.2515    0.3066    1.3084 C   0  0  0  0  0  0  0  0  0  0  0  0
   -0.1913   -0.9061    0.3849 C   0  0  0  0  0  0  0  0  0  0  0  0
   -0.2408    1.0730    0.1077 O   0  0  0  0  0  0  0  0  0  0  0  0
    1.7635    0.5061    1.3422 H   0  0  0  0  0  0  0  0  0  0  0  0
    2.9029   -0.7759    0.8754 H   0  0  0  0  0  0  0  0  0  0  0  0
    3.2790    1.0058    0.5555 H   0  0  0  0  0  0  0  0  0  0  0  0
    2.0667    1.0649   -1.3665 H   0  0  0  0  0  0  0  0  0  0  0  0
    2.1924   -0.7259   -1.3838 H   0  0  0  0  0  0  0  0  0  0  0  0
   -0.3057   -0.1733   -2.8449 H   0  0  0  0  0  0  0  0  0  0  0  0
   -2.7047   -0.0660   -1.6084 H   0  0  0  0  0  0  0  0  0  0  0  0
   -1.8185   -0.1079    2.2662 H   0  0  0  0  0  0  0  0  0  0  0  0
   -3.2056   -0.1878    1.0454 H   0  0  0  0  0  0  0  0  0  0  0  0
   -2.4561    1.3795    1.5046 H   0  0  0  0  0  0  0  0  0  0  0  0
    0.2840   -0.9260    1.3674 H   0  0  0  0  0  0  0  0  0  0  0  0
   -0.5173   -1.9053    0.0021 H   0  0  0  0  0  0  0  0  0  0  0  0
  1  2  1  0
  2  3  1  0
  3  4  1  0
  4  5  2  0
  5  6  1  0
  6  7  1  0
  6  8  1  0
  6  9  1  0
  8  3  1  0
  9  3  1  0
  1 10  1  0
  1 11  1  0
  1 12  1  0
  2 13  1  0
  2 14  1  0
  4 15  1  0
  5 16  1  0
  7 17  1  0
  7 18  1  0
  7 19  1  0
  8 20  1  0
  8 21  1  0
M  END
