
     RDKit          3D

 25 25  0  0  0  0  0  0  0  0999 V2000
    3.0659    0.0202   -0.6467 C   0  0  0  0  0  0  0  0  0  0  0  0
    1.9784   -0.7320    0.1345 C   0  0  0  0  0  0  0  0  0  0  0  0
    1.1396    0.1912    0.9294 C   0  0  0  0  0  0  0  0  0  0  0  0
    0.0284   -0.5486    1.7248 C   0  0  0  0  0  0  0  0  0  0  0  0
   -0.2489    0.5424    0.7634 C   0  0  0  0  0  0  0  0  0  0  0  0
   -1.1146    0.3404   -0.4222 C   0  0  0  0  0  0  0  0  0  0  0  0
   -1.2796   -1.0908   -0.8355 C   0  0  0  0  0  0  0  0  0  0  0  0
   -2.5333    0.8883   -0.1717 C   0  0  0  0  0  0  0  0  0  0  0  0
   -2.4987    2.2415    0.1030 O   0  0  0  0  0  0  0  0  0  0  0  0
    3.7528    0.4748    0.0973 H   0  0  0  0  0  0  0  0  0  0  0  0
    3.6641   -0.6977   -1.2291 H   0  0  0  0  0  0  0  0  0  0  0  0
    2.6430    0.8451   -1.2373 H   0  0  0  0  0  0  0  0  0  0  0  0
    1.4806   -1.4911   -0.4606 H   0  0  0  0  0  0  0  0  0  0  0  0
    2.5913   -1.3174    0.8933 H   0  0  0  0  0  0  0  0  0  0  0  0
    1.7886    0.8865    1.5564 H   0  0  0  0  0  0  0  0  0  0  0  0
    0.0698   -0.3539    2.8219 H   0  0  0  0  0  0  0  0  0  0  0  0
   -0.1287   -1.6001    1.5008 H   0  0  0  0  0  0  0  0  0  0  0  0
   -0.5534    1.4989    1.3245 H   0  0  0  0  0  0  0  0  0  0  0  0
   -0.7357    0.9184   -1.3239 H   0  0  0  0  0  0  0  0  0  0  0  0
   -1.3948   -1.7945   -0.0093 H   0  0  0  0  0  0  0  0  0  0  0  0
   -0.5562   -1.3960   -1.6232 H   0  0  0  0  0  0  0  0  0  0  0  0
   -2.2788   -1.1504   -1.3808 H   0  0  0  0  0  0  0  0  0  0  0  0
   -3.1588    0.6915   -1.0616 H   0  0  0  0  0  0  0  0  0  0  0  0
   -2.9302    0.2820    0.6836 H   0  0  0  0  0  0  0  0  0  0  0  0
   -2.7909    2.3514    1.0594 H   0  0  0  0  0  0  0  0  0  0  0  0
  1  2  1  0
  2  3  1  0
  3  4  1  0
  4  5  1  0
  5  6  1  0
  6  7  1  0
  6  8  1  0
  8  9  1  0
  5  3  1  0
  1 10  1  0
  1 11  1  0
  1 12  1  0
  2 13  1  0
  2 14  1  0
  3 15  1  0
  4 16  1  0
  4 17  1  0
  5 18  1  0
  6 19  1  0
  7 20  1  0
  7 21  1  0
  7 22  1  0
  8 23  1  0
  8 24  1  0
  9 25  1  0
M  END
