
     RDKit          3D

 20 21  0  0  0  0  0  0  0  0999 V2000
    2.3423   -0.3232    0.3415 C   0  0  0  0  0  0  0  0  0  0  0  0
    1.4766    0.4874   -0.5809 C   0  0  0  0  0  0  0  0  0  0  0  0
    0.0497    0.1141   -0.5636 C   0  0  0  0  0  0  0  0  0  0  0  0
   -0.4036   -1.2739   -0.9355 C   0  0  0  0  0  0  0  0  0  0  0  0
   -1.6672   -0.9720   -0.1142 C   0  0  0  0  0  0  0  0  0  0  0  0
   -1.0518    0.4122    0.1022 C   0  0  0  0  0  0  0  0  0  0  0  0
   -1.5054    1.2898    1.1797 C   0  0  0  0  0  0  0  0  0  0  0  0
   -0.8334    1.1086   -1.1681 O   0  0  0  0  0  0  0  0  0  0  0  0
    1.9253   -0.4312    1.3582 H   0  0  0  0  0  0  0  0  0  0  0  0
    2.6217   -1.3091   -0.1078 H   0  0  0  0  0  0  0  0  0  0  0  0
    3.3054    0.2255    0.4600 H   0  0  0  0  0  0  0  0  0  0  0  0
    1.8684    0.2962   -1.6220 H   0  0  0  0  0  0  0  0  0  0  0  0
    1.6303    1.5746   -0.4223 H   0  0  0  0  0  0  0  0  0  0  0  0
   -0.6732   -1.3460   -2.0159 H   0  0  0  0  0  0  0  0  0  0  0  0
    0.1934   -2.0861   -0.5278 H   0  0  0  0  0  0  0  0  0  0  0  0
   -1.6990   -1.5272    0.8204 H   0  0  0  0  0  0  0  0  0  0  0  0
   -2.5788   -0.8884   -0.7039 H   0  0  0  0  0  0  0  0  0  0  0  0
   -2.5016    0.9605    1.5423 H   0  0  0  0  0  0  0  0  0  0  0  0
   -1.6511    2.3667    0.8784 H   0  0  0  0  0  0  0  0  0  0  0  0
   -0.8479    1.3214    2.0792 H   0  0  0  0  0  0  0  0  0  0  0  0
  1  2  1  0
  2  3  1  0
  3  4  1  0
  4  5  1  0
  5  6  1  0
  6  7  1  0
  6  8  1  0
  6  3  1  0
  8  3  1  0
  1  9  1  0
  1 10  1  0
  1 11  1  0
  2 12  1  0
  2 13  1  0
  4 14  1  0
  4 15  1  0
  5 16  1  0
  5 17  1  0
  7 18  1  0
  7 19  1  0
  7 20  1  0
M  END
