
     RDKit          3D

 21 21  0  0  0  0  0  0  0  0999 V2000
   -2.4181    1.0890    0.0541 C   0  0  0  0  0  0  0  0  0  0  0  0
   -2.3986   -0.3686   -0.3058 C   0  0  0  0  0  0  0  0  0  0  0  0
   -1.0425   -0.9223   -0.5725 C   0  0  0  0  0  0  0  0  0  0  0  0
   -0.3593   -0.2975   -1.6521 O   0  0  0  0  0  0  0  0  0  0  0  0
    0.1819   -0.1505   -0.3939 C   0  0  0  0  0  0  0  0  0  0  0  0
    1.4413   -0.9424   -0.1426 C   0  0  0  0  0  0  0  0  0  0  0  0
    2.6336   -0.0734    0.0344 C   0  0  0  0  0  0  0  0  0  0  0  0
    2.3908    0.8409    1.1855 C   0  0  0  0  0  0  0  0  0  0  0  0
    2.0343    1.9900    0.9298 O   0  0  0  0  0  0  0  0  0  0  0  0
   -2.0318    1.2058    1.0919 H   0  0  0  0  0  0  0  0  0  0  0  0
   -1.8445    1.6906   -0.6759 H   0  0  0  0  0  0  0  0  0  0  0  0
   -3.4699    1.4212    0.0433 H   0  0  0  0  0  0  0  0  0  0  0  0
   -3.1231   -0.4801   -1.1579 H   0  0  0  0  0  0  0  0  0  0  0  0
   -2.8814   -0.9347    0.5345 H   0  0  0  0  0  0  0  0  0  0  0  0
   -0.9669   -2.0263   -0.5131 H   0  0  0  0  0  0  0  0  0  0  0  0
    0.1128    0.8579    0.0932 H   0  0  0  0  0  0  0  0  0  0  0  0
    1.2605   -1.5177    0.7955 H   0  0  0  0  0  0  0  0  0  0  0  0
    1.5677   -1.7158   -0.9313 H   0  0  0  0  0  0  0  0  0  0  0  0
    3.5353   -0.6513    0.2943 H   0  0  0  0  0  0  0  0  0  0  0  0
    2.8508    0.4963   -0.9063 H   0  0  0  0  0  0  0  0  0  0  0  0
    2.5270    0.4891    2.1950 H   0  0  0  0  0  0  0  0  0  0  0  0
  1  2  1  0
  2  3  1  0
  3  4  1  0
  4  5  1  0
  5  6  1  0
  6  7  1  0
  7  8  1  0
  8  9  2  0
  5  3  1  0
  1 10  1  0
  1 11  1  0
  1 12  1  0
  2 13  1  0
  2 14  1  0
  3 15  1  0
  5 16  1  0
  6 17  1  0
  6 18  1  0
  7 19  1  0
  7 20  1  0
  8 21  1  0
M  END
