
     RDKit          3D

 23 24  0  0  0  0  0  0  0  0999 V2000
   -3.0404   -0.0550   -0.6920 C   0  0  0  0  0  0  0  0  0  0  0  0
   -1.7156   -0.7760   -0.4294 C   0  0  0  0  0  0  0  0  0  0  0  0
   -0.8949    0.0546    0.5310 C   0  0  0  0  0  0  0  0  0  0  0  0
   -0.5300    1.4747    0.0707 C   0  0  0  0  0  0  0  0  0  0  0  0
    0.4720    0.4479    0.2823 C   0  0  0  0  0  0  0  0  0  0  0  0
    1.5433    0.5193    1.3314 C   0  0  0  0  0  0  0  0  0  0  0  0
    2.4315   -0.2892    0.3755 C   0  0  0  0  0  0  0  0  0  0  0  0
    3.6150    0.3709    0.1659 O   0  0  0  0  0  0  0  0  0  0  0  0
    1.3841   -0.1054   -0.7314 C   0  0  0  0  0  0  0  0  0  0  0  0
   -3.0231    0.4926   -1.6545 H   0  0  0  0  0  0  0  0  0  0  0  0
   -3.2086    0.7266    0.0951 H   0  0  0  0  0  0  0  0  0  0  0  0
   -3.8981   -0.7516   -0.5978 H   0  0  0  0  0  0  0  0  0  0  0  0
   -1.8570   -1.7702   -0.0069 H   0  0  0  0  0  0  0  0  0  0  0  0
   -1.1982   -0.8856   -1.4116 H   0  0  0  0  0  0  0  0  0  0  0  0
   -1.2239   -0.0455    1.5927 H   0  0  0  0  0  0  0  0  0  0  0  0
   -0.6040    2.2923    0.7994 H   0  0  0  0  0  0  0  0  0  0  0  0
   -0.9092    1.7384   -0.9363 H   0  0  0  0  0  0  0  0  0  0  0  0
    1.2522   -0.0036    2.2427 H   0  0  0  0  0  0  0  0  0  0  0  0
    1.8697    1.5537    1.4805 H   0  0  0  0  0  0  0  0  0  0  0  0
    2.4821   -1.3257    0.7464 H   0  0  0  0  0  0  0  0  0  0  0  0
    4.1262    0.0019   -0.5925 H   0  0  0  0  0  0  0  0  0  0  0  0
    1.7897    0.6298   -1.4726 H   0  0  0  0  0  0  0  0  0  0  0  0
    1.1372   -1.0765   -1.1888 H   0  0  0  0  0  0  0  0  0  0  0  0
  1  2  1  0
  2  3  1  0
  3  4  1  0
  4  5  1  0
  5  6  1  0
  6  7  1  0
  7  8  1  0
  7  9  1  0
  5  3  1  0
  9  5  1  0
  1 10  1  0
  1 11  1  0
  1 12  1  0
  2 13  1  0
  2 14  1  0
  3 15  1  0
  4 16  1  0
  4 17  1  0
  6 18  1  0
  6 19  1  0
  7 20  1  0
  8 21  1  0
  9 22  1  0
  9 23  1  0
M  END
