
     RDKit          3D

 25 25  0  0  0  0  0  0  0  0999 V2000
    2.8814    0.0532    0.4237 C   0  0  0  0  0  0  0  0  0  0  0  0
    1.7254   -0.6065   -0.2677 C   0  0  0  0  0  0  0  0  0  0  0  0
    0.4491   -0.0413    0.2758 C   0  0  0  0  0  0  0  0  0  0  0  0
    0.3308    1.4512    0.0664 C   0  0  0  0  0  0  0  0  0  0  0  0
   -1.1437    1.7288   -0.1836 C   0  0  0  0  0  0  0  0  0  0  0  0
   -1.8425    0.3987    0.1033 C   0  0  0  0  0  0  0  0  0  0  0  0
   -3.0442    0.2816   -0.5432 O   0  0  0  0  0  0  0  0  0  0  0  0
   -0.7801   -0.5534   -0.4300 C   0  0  0  0  0  0  0  0  0  0  0  0
   -1.0958   -1.9870   -0.0935 C   0  0  0  0  0  0  0  0  0  0  0  0
    3.7364    0.1418   -0.2774 H   0  0  0  0  0  0  0  0  0  0  0  0
    3.2253   -0.5564    1.3035 H   0  0  0  0  0  0  0  0  0  0  0  0
    2.6563    1.0701    0.7865 H   0  0  0  0  0  0  0  0  0  0  0  0
    1.7484   -1.6811   -0.0313 H   0  0  0  0  0  0  0  0  0  0  0  0
    1.7311   -0.4431   -1.3670 H   0  0  0  0  0  0  0  0  0  0  0  0
    0.3644   -0.2968    1.3731 H   0  0  0  0  0  0  0  0  0  0  0  0
    0.9535    1.7315   -0.8216 H   0  0  0  0  0  0  0  0  0  0  0  0
    0.6948    2.0272    0.9312 H   0  0  0  0  0  0  0  0  0  0  0  0
   -1.2702    1.9394   -1.2790 H   0  0  0  0  0  0  0  0  0  0  0  0
   -1.5289    2.5434    0.4236 H   0  0  0  0  0  0  0  0  0  0  0  0
   -1.8851    0.3024    1.1910 H   0  0  0  0  0  0  0  0  0  0  0  0
   -3.7545   -0.0333    0.1015 H   0  0  0  0  0  0  0  0  0  0  0  0
   -0.6353   -0.4597   -1.5074 H   0  0  0  0  0  0  0  0  0  0  0  0
   -0.2151   -2.5906   -0.3915 H   0  0  0  0  0  0  0  0  0  0  0  0
   -1.3655   -2.1252    0.9678 H   0  0  0  0  0  0  0  0  0  0  0  0
   -1.9360   -2.2946   -0.7544 H   0  0  0  0  0  0  0  0  0  0  0  0
  1  2  1  0
  2  3  1  0
  3  4  1  0
  4  5  1  0
  5  6  1  0
  6  7  1  0
  6  8  1  0
  8  9  1  0
  8  3  1  0
  1 10  1  0
  1 11  1  0
  1 12  1  0
  2 13  1  0
  2 14  1  0
  3 15  1  0
  4 16  1  0
  4 17  1  0
  5 18  1  0
  5 19  1  0
  6 20  1  0
  7 21  1  0
  8 22  1  0
  9 23  1  0
  9 24  1  0
  9 25  1  0
M  END
