
     RDKit          3D

 21 22  0  0  0  0  0  0  0  0999 V2000
    1.9323    1.6971   -0.3010 C   0  0  0  0  0  0  0  0  0  0  0  0
    1.4307    0.5704    0.5784 C   0  0  0  0  0  0  0  0  0  0  0  0
    0.6946   -0.3902   -0.2834 C   0  0  0  0  0  0  0  0  0  0  0  0
    1.4322   -0.9663   -1.3056 O   0  0  0  0  0  0  0  0  0  0  0  0
    0.8916   -1.7946   -0.3632 C   0  0  0  0  0  0  0  0  0  0  0  0
   -0.5908   -2.0382   -0.4837 C   0  0  0  0  0  0  0  0  0  0  0  0
   -0.7861   -0.5465   -0.2223 C   0  0  0  0  0  0  0  0  0  0  0  0
   -1.4955    0.1107   -1.2235 O   0  0  0  0  0  0  0  0  0  0  0  0
   -2.5428    0.8674   -0.7171 C   0  0  0  0  0  0  0  0  0  0  0  0
    1.0545    2.3954   -0.4278 H   0  0  0  0  0  0  0  0  0  0  0  0
    2.8077    2.2135    0.1411 H   0  0  0  0  0  0  0  0  0  0  0  0
    2.1631    1.2491   -1.2906 H   0  0  0  0  0  0  0  0  0  0  0  0
    2.2567    0.0401    1.0849 H   0  0  0  0  0  0  0  0  0  0  0  0
    0.7357    0.9872    1.3346 H   0  0  0  0  0  0  0  0  0  0  0  0
    1.4909   -2.3307    0.3766 H   0  0  0  0  0  0  0  0  0  0  0  0
   -0.8386   -2.2714   -1.5467 H   0  0  0  0  0  0  0  0  0  0  0  0
   -1.0447   -2.6957    0.2602 H   0  0  0  0  0  0  0  0  0  0  0  0
   -1.1749   -0.3537    0.7851 H   0  0  0  0  0  0  0  0  0  0  0  0
   -3.2729    0.2380   -0.1650 H   0  0  0  0  0  0  0  0  0  0  0  0
   -2.1080    1.6632   -0.0536 H   0  0  0  0  0  0  0  0  0  0  0  0
   -3.0359    1.3551   -1.5845 H   0  0  0  0  0  0  0  0  0  0  0  0
  1  2  1  0
  2  3  1  0
  3  4  1  0
  4  5  1  0
  5  6  1  0
  6  7  1  0
  7  8  1  0
  8  9  1  0
  5  3  1  0
  7  3  1  0
  1 10  1  0
  1 11  1  0
  1 12  1  0
  2 13  1  0
  2 14  1  0
  5 15  1  0
  6 16  1  0
  6 17  1  0
  7 18  1  0
  9 19  1  0
  9 20  1  0
  9 21  1  0
M  END
