
     RDKit          3D

 19 20  0  0  0  0  0  0  0  0999 V2000
    1.9567    0.3823   -0.0090 C   0  0  0  0  0  0  0  0  0  0  0  0
    1.2644   -0.7691    0.6251 C   0  0  0  0  0  0  0  0  0  0  0  0
   -0.2105   -0.8210    0.3862 C   0  0  0  0  0  0  0  0  0  0  0  0
   -0.8891    0.4499    0.9394 C   0  0  0  0  0  0  0  0  0  0  0  0
   -1.2694    1.0511   -0.3981 C   0  0  0  0  0  0  0  0  0  0  0  0
   -0.1999    0.7537   -1.2398 O   0  0  0  0  0  0  0  0  0  0  0  0
   -0.5954   -0.5961   -1.0667 C   0  0  0  0  0  0  0  0  0  0  0  0
   -1.9658   -0.0939   -1.0519 C   0  0  0  0  0  0  0  0  0  0  0  0
   -3.1232   -0.2717   -1.3237 O   0  0  0  0  0  0  0  0  0  0  0  0
    2.9961    0.4595    0.4284 H   0  0  0  0  0  0  0  0  0  0  0  0
    1.4838    1.3590    0.2590 H   0  0  0  0  0  0  0  0  0  0  0  0
    2.0898    0.3177   -1.0848 H   0  0  0  0  0  0  0  0  0  0  0  0
    1.4076   -0.7239    1.7347 H   0  0  0  0  0  0  0  0  0  0  0  0
    1.7241   -1.7085    0.2580 H   0  0  0  0  0  0  0  0  0  0  0  0
   -0.6734   -1.7199    0.8115 H   0  0  0  0  0  0  0  0  0  0  0  0
   -1.8123    0.1538    1.4411 H   0  0  0  0  0  0  0  0  0  0  0  0
   -0.2035    1.0604    1.5165 H   0  0  0  0  0  0  0  0  0  0  0  0
   -1.7136    2.0146   -0.4301 H   0  0  0  0  0  0  0  0  0  0  0  0
   -0.2663   -1.2981   -1.7956 H   0  0  0  0  0  0  0  0  0  0  0  0
  1  2  1  0
  2  3  1  0
  3  4  1  0
  4  5  1  0
  5  6  1  0
  6  7  1  0
  7  8  1  0
  8  9  2  0
  7  3  1  0
  8  5  1  0
  1 10  1  0
  1 11  1  0
  1 12  1  0
  2 13  1  0
  2 14  1  0
  3 15  1  0
  4 16  1  0
  4 17  1  0
  5 18  1  0
  7 19  1  0
M  END
