
     RDKit          3D

 19 20  0  0  0  0  0  0  0  0999 V2000
    2.0505    0.5595    0.6761 C   0  0  0  0  0  0  0  0  0  0  0  0
    0.8072   -0.3259    0.7715 C   0  0  0  0  0  0  0  0  0  0  0  0
    0.1282   -0.2816   -0.5623 C   0  0  0  0  0  0  0  0  0  0  0  0
    0.9307   -0.7397   -1.5686 O   0  0  0  0  0  0  0  0  0  0  0  0
   -0.7306    0.8969   -0.8313 C   0  0  0  0  0  0  0  0  0  0  0  0
   -1.6162    0.9809    0.3816 C   0  0  0  0  0  0  0  0  0  0  0  0
   -1.9749   -0.3173    0.5108 C   0  0  0  0  0  0  0  0  0  0  0  0
   -1.2333   -0.9149   -0.6346 C   0  0  0  0  0  0  0  0  0  0  0  0
   -1.5110    0.0422   -1.6406 O   0  0  0  0  0  0  0  0  0  0  0  0
    2.9400   -0.0955    0.4793 H   0  0  0  0  0  0  0  0  0  0  0  0
    1.9954    1.2347   -0.2132 H   0  0  0  0  0  0  0  0  0  0  0  0
    2.1695    1.1780    1.5668 H   0  0  0  0  0  0  0  0  0  0  0  0
    1.1469   -1.3658    0.9877 H   0  0  0  0  0  0  0  0  0  0  0  0
    0.1689   -0.0113    1.5986 H   0  0  0  0  0  0  0  0  0  0  0  0
    0.9433   -1.7443   -1.6285 H   0  0  0  0  0  0  0  0  0  0  0  0
   -0.3579    1.7894   -1.2516 H   0  0  0  0  0  0  0  0  0  0  0  0
   -1.8913    1.8378    0.9842 H   0  0  0  0  0  0  0  0  0  0  0  0
   -2.6189   -0.7872    1.2408 H   0  0  0  0  0  0  0  0  0  0  0  0
   -1.3465   -1.9360   -0.8669 H   0  0  0  0  0  0  0  0  0  0  0  0
  1  2  1  0
  2  3  1  0
  3  4  1  0
  3  5  1  0
  5  6  1  0
  6  7  2  0
  7  8  1  0
  8  9  1  0
  8  3  1  0
  9  5  1  0
  1 10  1  0
  1 11  1  0
  1 12  1  0
  2 13  1  0
  2 14  1  0
  4 15  1  0
  5 16  1  0
  6 17  1  0
  7 18  1  0
  8 19  1  0
M  END
