
     RDKit          3D

 22 23  0  0  0  0  0  0  0  0999 V2000
    2.7161    0.3343   -0.6827 C   0  0  0  0  0  0  0  0  0  0  0  0
    1.6736    0.4213    0.4355 C   0  0  0  0  0  0  0  0  0  0  0  0
    0.5113   -0.4416    0.0724 C   0  0  0  0  0  0  0  0  0  0  0  0
   -0.6028   -0.4563    1.0871 C   0  0  0  0  0  0  0  0  0  0  0  0
   -1.6066   -1.5530    0.8590 C   0  0  0  0  0  0  0  0  0  0  0  0
   -1.9314   -0.8689   -0.4697 C   0  0  0  0  0  0  0  0  0  0  0  0
   -0.8202    0.1253   -0.2378 C   0  0  0  0  0  0  0  0  0  0  0  0
   -1.0342    1.5787   -0.4856 C   0  0  0  0  0  0  0  0  0  0  0  0
    2.2639    0.5452   -1.6697 H   0  0  0  0  0  0  0  0  0  0  0  0
    3.6121    0.9137   -0.4598 H   0  0  0  0  0  0  0  0  0  0  0  0
    3.0261   -0.7442   -0.7112 H   0  0  0  0  0  0  0  0  0  0  0  0
    2.1865    0.1191    1.3701 H   0  0  0  0  0  0  0  0  0  0  0  0
    1.3479    1.4785    0.5912 H   0  0  0  0  0  0  0  0  0  0  0  0
    0.7498   -1.3983   -0.4514 H   0  0  0  0  0  0  0  0  0  0  0  0
   -0.5345    0.0849    2.0181 H   0  0  0  0  0  0  0  0  0  0  0  0
   -1.0538   -2.5035    0.6532 H   0  0  0  0  0  0  0  0  0  0  0  0
   -2.4337   -1.6181    1.5623 H   0  0  0  0  0  0  0  0  0  0  0  0
   -1.7613   -1.4842   -1.3593 H   0  0  0  0  0  0  0  0  0  0  0  0
   -2.9416   -0.4121   -0.3855 H   0  0  0  0  0  0  0  0  0  0  0  0
   -0.9797    2.1912    0.4546 H   0  0  0  0  0  0  0  0  0  0  0  0
   -2.0512    1.6873   -0.9368 H   0  0  0  0  0  0  0  0  0  0  0  0
   -0.3363    2.0008   -1.2538 H   0  0  0  0  0  0  0  0  0  0  0  0
  1  2  1  0
  2  3  1  0
  3  4  1  0
  4  5  1  0
  5  6  1  0
  6  7  1  0
  7  8  1  0
  7  3  1  0
  7  4  1  0
  1  9  1  0
  1 10  1  0
  1 11  1  0
  2 12  1  0
  2 13  1  0
  3 14  1  0
  4 15  1  0
  5 16  1  0
  5 17  1  0
  6 18  1  0
  6 19  1  0
  8 20  1  0
  8 21  1  0
  8 22  1  0
M  END
