
     RDKit          3D

 23 24  0  0  0  0  0  0  0  0999 V2000
    2.6031    0.4088   -0.0611 C   0  0  0  0  0  0  0  0  0  0  0  0
    1.2910    0.3620    0.6775 C   0  0  0  0  0  0  0  0  0  0  0  0
    0.2003   -0.3262   -0.0706 C   0  0  0  0  0  0  0  0  0  0  0  0
    0.2700   -1.7225   -0.5013 C   0  0  0  0  0  0  0  0  0  0  0  0
   -0.7077   -1.3064    0.5886 C   0  0  0  0  0  0  0  0  0  0  0  0
   -2.0806   -0.9814    0.0728 C   0  0  0  0  0  0  0  0  0  0  0  0
   -1.9071   -0.1641   -1.0334 O   0  0  0  0  0  0  0  0  0  0  0  0
   -0.7502    0.5742   -0.8158 C   0  0  0  0  0  0  0  0  0  0  0  0
   -1.1418    1.7967   -0.0112 C   0  0  0  0  0  0  0  0  0  0  0  0
    2.9054   -0.5336   -0.5066 H   0  0  0  0  0  0  0  0  0  0  0  0
    2.6251    1.2467   -0.7892 H   0  0  0  0  0  0  0  0  0  0  0  0
    3.3919    0.6708    0.7037 H   0  0  0  0  0  0  0  0  0  0  0  0
    1.3898   -0.1367    1.6647 H   0  0  0  0  0  0  0  0  0  0  0  0
    1.0021    1.4246    0.8568 H   0  0  0  0  0  0  0  0  0  0  0  0
   -0.1652   -2.0286   -1.4971 H   0  0  0  0  0  0  0  0  0  0  0  0
    1.0230   -2.4381   -0.1549 H   0  0  0  0  0  0  0  0  0  0  0  0
   -0.5717   -1.6528    1.6097 H   0  0  0  0  0  0  0  0  0  0  0  0
   -2.7516   -0.5637    0.8346 H   0  0  0  0  0  0  0  0  0  0  0  0
   -2.5369   -1.9429   -0.2839 H   0  0  0  0  0  0  0  0  0  0  0  0
   -0.3310    0.9389   -1.7731 H   0  0  0  0  0  0  0  0  0  0  0  0
   -0.4071    2.6246   -0.1151 H   0  0  0  0  0  0  0  0  0  0  0  0
   -2.0864    2.1739   -0.4585 H   0  0  0  0  0  0  0  0  0  0  0  0
   -1.2642    1.5760    1.0634 H   0  0  0  0  0  0  0  0  0  0  0  0
  1  2  1  0
  2  3  1  0
  3  4  1  0
  4  5  1  0
  5  6  1  0
  6  7  1  0
  7  8  1  0
  8  9  1  0
  5  3  1  0
  8  3  1  0
  1 10  1  0
  1 11  1  0
  1 12  1  0
  2 13  1  0
  2 14  1  0
  4 15  1  0
  4 16  1  0
  5 17  1  0
  6 18  1  0
  6 19  1  0
  8 20  1  0
  9 21  1  0
  9 22  1  0
  9 23  1  0
M  END
