
     RDKit          3D

 21 22  0  0  0  0  0  0  0  0999 V2000
    2.5356   -0.8204   -0.0519 C   0  0  0  0  0  0  0  0  0  0  0  0
    1.6275    0.2812    0.4460 C   0  0  0  0  0  0  0  0  0  0  0  0
    0.5147    0.5892   -0.5035 C   0  0  0  0  0  0  0  0  0  0  0  0
   -0.4801   -0.4351   -0.8962 C   0  0  0  0  0  0  0  0  0  0  0  0
   -0.4686   -1.6361   -0.1812 O   0  0  0  0  0  0  0  0  0  0  0  0
   -1.4923   -1.3832    0.7572 C   0  0  0  0  0  0  0  0  0  0  0  0
   -1.0646   -0.1589    1.2867 O   0  0  0  0  0  0  0  0  0  0  0  0
   -0.8639    0.5779    0.1139 C   0  0  0  0  0  0  0  0  0  0  0  0
   -1.8307    1.6843   -0.2186 C   0  0  0  0  0  0  0  0  0  0  0  0
    2.0019   -1.5666   -0.6746 H   0  0  0  0  0  0  0  0  0  0  0  0
    3.4102   -0.3897   -0.6075 H   0  0  0  0  0  0  0  0  0  0  0  0
    2.9708   -1.3261    0.8350 H   0  0  0  0  0  0  0  0  0  0  0  0
    1.2544    0.0022    1.4447 H   0  0  0  0  0  0  0  0  0  0  0  0
    2.2666    1.2042    0.5093 H   0  0  0  0  0  0  0  0  0  0  0  0
    0.6748    1.3985   -1.2458 H   0  0  0  0  0  0  0  0  0  0  0  0
   -0.9159   -0.4490   -1.9090 H   0  0  0  0  0  0  0  0  0  0  0  0
   -1.5741   -2.1730    1.5058 H   0  0  0  0  0  0  0  0  0  0  0  0
   -2.4149   -1.2339    0.1559 H   0  0  0  0  0  0  0  0  0  0  0  0
   -1.9181    1.7638   -1.3092 H   0  0  0  0  0  0  0  0  0  0  0  0
   -1.4483    2.6208    0.2524 H   0  0  0  0  0  0  0  0  0  0  0  0
   -2.7851    1.4498    0.2903 H   0  0  0  0  0  0  0  0  0  0  0  0
  1  2  1  0
  2  3  1  0
  3  4  1  0
  4  5  1  0
  5  6  1  0
  6  7  1  0
  7  8  1  0
  8  9  1  0
  8  3  1  0
  8  4  1  0
  1 10  1  0
  1 11  1  0
  1 12  1  0
  2 13  1  0
  2 14  1  0
  3 15  1  0
  4 16  1  0
  6 17  1  0
  6 18  1  0
  9 19  1  0
  9 20  1  0
  9 21  1  0
M  END
