
     RDKit          3D

 25 25  0  0  0  0  0  0  0  0999 V2000
    2.4807    1.2346   -1.0588 C   0  0  0  0  0  0  0  0  0  0  0  0
    1.6472    0.6839    0.0900 C   0  0  0  0  0  0  0  0  0  0  0  0
    0.7899   -0.4460   -0.3370 C   0  0  0  0  0  0  0  0  0  0  0  0
   -0.0622   -1.0131    0.8203 C   0  0  0  0  0  0  0  0  0  0  0  0
    0.0628   -2.3793    1.0504 O   0  0  0  0  0  0  0  0  0  0  0  0
   -0.6400   -0.5119   -0.4932 C   0  0  0  0  0  0  0  0  0  0  0  0
   -1.1418   -1.6947   -1.3581 C   0  0  0  0  0  0  0  0  0  0  0  0
   -1.6346    0.5551   -0.4550 C   0  0  0  0  0  0  0  0  0  0  0  0
   -1.7791    1.3803    0.7797 C   0  0  0  0  0  0  0  0  0  0  0  0
    2.5565    0.4749   -1.8758 H   0  0  0  0  0  0  0  0  0  0  0  0
    2.0504    2.1949   -1.4314 H   0  0  0  0  0  0  0  0  0  0  0  0
    3.5231    1.4556   -0.7499 H   0  0  0  0  0  0  0  0  0  0  0  0
    1.1924    1.4975    0.6396 H   0  0  0  0  0  0  0  0  0  0  0  0
    2.4185    0.2466    0.7995 H   0  0  0  0  0  0  0  0  0  0  0  0
    1.4067   -1.2279   -0.8776 H   0  0  0  0  0  0  0  0  0  0  0  0
   -0.2266   -0.3662    1.6935 H   0  0  0  0  0  0  0  0  0  0  0  0
    1.0174   -2.6062    0.8804 H   0  0  0  0  0  0  0  0  0  0  0  0
   -2.0294   -2.1246   -0.8345 H   0  0  0  0  0  0  0  0  0  0  0  0
   -1.5092   -1.2933   -2.3212 H   0  0  0  0  0  0  0  0  0  0  0  0
   -0.3385   -2.4394   -1.4964 H   0  0  0  0  0  0  0  0  0  0  0  0
   -1.4111    1.2768   -1.2968 H   0  0  0  0  0  0  0  0  0  0  0  0
   -2.6457    0.1672   -0.6964 H   0  0  0  0  0  0  0  0  0  0  0  0
   -2.7746    1.9170    0.6768 H   0  0  0  0  0  0  0  0  0  0  0  0
   -1.8892    0.7977    1.7077 H   0  0  0  0  0  0  0  0  0  0  0  0
   -1.0634    2.2205    0.8480 H   0  0  0  0  0  0  0  0  0  0  0  0
  1  2  1  0
  2  3  1  0
  3  4  1  0
  4  5  1  0
  4  6  1  0
  6  7  1  0
  6  8  1  0
  8  9  1  0
  6  3  1  0
  1 10  1  0
  1 11  1  0
  1 12  1  0
  2 13  1  0
  2 14  1  0
  3 15  1  0
  4 16  1  0
  5 17  1  0
  7 18  1  0
  7 19  1  0
  7 20  1  0
  8 21  1  0
  8 22  1  0
  9 23  1  0
  9 24  1  0
  9 25  1  0
M  END
