
     RDKit          3D

 21 22  0  0  0  0  0  0  0  0999 V2000
    2.7938    0.3179    0.0008 C   0  0  0  0  0  0  0  0  0  0  0  0
    1.4468    0.5743   -0.6637 C   0  0  0  0  0  0  0  0  0  0  0  0
    0.3858    0.3088    0.3417 C   0  0  0  0  0  0  0  0  0  0  0  0
    0.3674   -1.0855    0.8815 C   0  0  0  0  0  0  0  0  0  0  0  0
   -0.7327   -0.7124   -0.0251 C   0  0  0  0  0  0  0  0  0  0  0  0
   -0.7616   -0.9886   -1.3569 O   0  0  0  0  0  0  0  0  0  0  0  0
   -1.6928    0.2899    0.5796 C   0  0  0  0  0  0  0  0  0  0  0  0
   -2.8798    0.5765   -0.2812 C   0  0  0  0  0  0  0  0  0  0  0  0
   -0.6529    1.1781    0.5596 O   0  0  0  0  0  0  0  0  0  0  0  0
    2.6781    0.0173    1.0653 H   0  0  0  0  0  0  0  0  0  0  0  0
    3.4070    1.2569    0.0305 H   0  0  0  0  0  0  0  0  0  0  0  0
    3.3519   -0.4887   -0.4955 H   0  0  0  0  0  0  0  0  0  0  0  0
    1.3754   -0.0480   -1.5772 H   0  0  0  0  0  0  0  0  0  0  0  0
    1.4232    1.6466   -0.9859 H   0  0  0  0  0  0  0  0  0  0  0  0
    1.0786   -1.8118    0.5123 H   0  0  0  0  0  0  0  0  0  0  0  0
    0.1144   -1.1527    1.9567 H   0  0  0  0  0  0  0  0  0  0  0  0
   -0.1305   -1.6953   -1.5615 H   0  0  0  0  0  0  0  0  0  0  0  0
   -1.9802    0.0256    1.6122 H   0  0  0  0  0  0  0  0  0  0  0  0
   -3.5422   -0.3304   -0.2331 H   0  0  0  0  0  0  0  0  0  0  0  0
   -2.6130    0.7065   -1.3307 H   0  0  0  0  0  0  0  0  0  0  0  0
   -3.4366    1.4148    0.1551 H   0  0  0  0  0  0  0  0  0  0  0  0
  1  2  1  0
  2  3  1  0
  3  4  1  0
  4  5  1  0
  5  6  1  0
  5  7  1  0
  7  8  1  0
  7  9  1  0
  5  3  1  0
  9  3  1  0
  1 10  1  0
  1 11  1  0
  1 12  1  0
  2 13  1  0
  2 14  1  0
  4 15  1  0
  4 16  1  0
  6 17  1  0
  7 18  1  0
  8 19  1  0
  8 20  1  0
  8 21  1  0
M  END
