
     RDKit          3D

 22 22  0  0  0  0  0  0  0  0999 V2000
    2.0044   -0.0010    1.2550 C   0  0  0  0  0  0  0  0  0  0  0  0
    1.5882   -0.1379   -0.1614 C   0  0  0  0  0  0  0  0  0  0  0  0
    0.1285   -0.1496   -0.4377 C   0  0  0  0  0  0  0  0  0  0  0  0
   -0.1752   -0.2952   -1.9320 C   0  0  0  0  0  0  0  0  0  0  0  0
   -0.7785    0.5995    0.4326 C   0  0  0  0  0  0  0  0  0  0  0  0
   -1.9264    1.4122   -0.1420 C   0  0  0  0  0  0  0  0  0  0  0  0
   -0.8463   -0.8755    0.4293 C   0  0  0  0  0  0  0  0  0  0  0  0
   -0.3218   -1.6640    1.4127 O   0  0  0  0  0  0  0  0  0  0  0  0
    1.8769   -0.9825    1.7779 H   0  0  0  0  0  0  0  0  0  0  0  0
    1.6012    0.8498    1.8034 H   0  0  0  0  0  0  0  0  0  0  0  0
    3.1236    0.1656    1.2410 H   0  0  0  0  0  0  0  0  0  0  0  0
    2.0493   -1.0493   -0.5799 H   0  0  0  0  0  0  0  0  0  0  0  0
    2.0480    0.7156   -0.7339 H   0  0  0  0  0  0  0  0  0  0  0  0
    0.3499    0.4985   -2.4741 H   0  0  0  0  0  0  0  0  0  0  0  0
    0.2865   -1.2632   -2.2298 H   0  0  0  0  0  0  0  0  0  0  0  0
   -1.2443   -0.3709   -2.1317 H   0  0  0  0  0  0  0  0  0  0  0  0
   -0.3687    1.0541    1.3574 H   0  0  0  0  0  0  0  0  0  0  0  0
   -2.8955    1.1682    0.3781 H   0  0  0  0  0  0  0  0  0  0  0  0
   -1.7475    2.4884    0.0651 H   0  0  0  0  0  0  0  0  0  0  0  0
   -2.0029    1.3102   -1.2368 H   0  0  0  0  0  0  0  0  0  0  0  0
   -1.7803   -1.2964   -0.0286 H   0  0  0  0  0  0  0  0  0  0  0  0
   -0.9690   -2.1767    1.9354 H   0  0  0  0  0  0  0  0  0  0  0  0
  1  2  1  0
  2  3  1  0
  3  4  1  0
  3  5  1  0
  5  6  1  0
  5  7  1  0
  7  8  1  0
  7  3  1  0
  1  9  1  0
  1 10  1  0
  1 11  1  0
  2 12  1  0
  2 13  1  0
  4 14  1  0
  4 15  1  0
  4 16  1  0
  5 17  1  0
  6 18  1  0
  6 19  1  0
  6 20  1  0
  7 21  1  0
  8 22  1  0
M  END
