
     RDKit          3D

 19 19  0  0  0  0  0  0  0  0999 V2000
    2.0233   -0.0145    0.6969 C   0  0  0  0  0  0  0  0  0  0  0  0
    1.4478   -0.6913   -0.5045 C   0  0  0  0  0  0  0  0  0  0  0  0
    0.1026   -0.1510   -0.9118 C   0  0  0  0  0  0  0  0  0  0  0  0
    0.1088    1.1987   -1.2335 O   0  0  0  0  0  0  0  0  0  0  0  0
   -0.9416    1.4796   -0.3645 C   0  0  0  0  0  0  0  0  0  0  0  0
   -0.7724    0.1365    0.2578 C   0  0  0  0  0  0  0  0  0  0  0  0
   -2.0220   -0.6982    0.3767 C   0  0  0  0  0  0  0  0  0  0  0  0
    3.1223   -0.1703    0.6633 H   0  0  0  0  0  0  0  0  0  0  0  0
    1.6695   -0.4558    1.6620 H   0  0  0  0  0  0  0  0  0  0  0  0
    1.8536    1.0691    0.7122 H   0  0  0  0  0  0  0  0  0  0  0  0
    1.3002   -1.7688   -0.2386 H   0  0  0  0  0  0  0  0  0  0  0  0
    2.1730   -0.6426   -1.3247 H   0  0  0  0  0  0  0  0  0  0  0  0
   -0.3324   -0.7849   -1.7152 H   0  0  0  0  0  0  0  0  0  0  0  0
   -0.6259    2.3396    0.2931 H   0  0  0  0  0  0  0  0  0  0  0  0
   -1.9043    1.7085   -0.8385 H   0  0  0  0  0  0  0  0  0  0  0  0
   -0.2295    0.1366    1.2118 H   0  0  0  0  0  0  0  0  0  0  0  0
   -1.7136   -1.7627    0.4018 H   0  0  0  0  0  0  0  0  0  0  0  0
   -2.7601   -0.4907   -0.4158 H   0  0  0  0  0  0  0  0  0  0  0  0
   -2.4993   -0.4379    1.3448 H   0  0  0  0  0  0  0  0  0  0  0  0
  1  2  1  0
  2  3  1  0
  3  4  1  0
  4  5  1  0
  5  6  1  0
  6  7  1  0
  6  3  1  0
  1  8  1  0
  1  9  1  0
  1 10  1  0
  2 11  1  0
  2 12  1  0
  3 13  1  0
  5 14  1  0
  5 15  1  0
  6 16  1  0
  7 17  1  0
  7 18  1  0
  7 19  1  0
M  END
