
     RDKit          3D

 21 24  0  0  0  0  0  0  0  0999 V2000
    2.4985    0.6768    0.2510 C   0  0  0  0  0  0  0  0  0  0  0  0
    1.4672    0.1988   -0.7148 C   0  0  0  0  0  0  0  0  0  0  0  0
    0.3235   -0.4488   -0.0806 C   0  0  0  0  0  0  0  0  0  0  0  0
   -0.8081   -0.9835   -0.9910 C   0  0  0  0  0  0  0  0  0  0  0  0
   -2.1201   -0.5609   -0.3462 C   0  0  0  0  0  0  0  0  0  0  0  0
   -1.8816    0.1628    1.0540 C   0  0  0  0  0  0  0  0  0  0  0  0
   -1.4254    0.4738    0.0242 C   0  0  0  0  0  0  0  0  0  0  0  0
   -0.4890   -0.6355    0.8377 C   0  0  0  0  0  0  0  0  0  0  0  0
   -0.2940    0.4733    1.0891 C   0  0  0  0  0  0  0  0  0  0  0  0
    2.2115    0.2762    1.2631 H   0  0  0  0  0  0  0  0  0  0  0  0
    3.5075    0.2283    0.0439 H   0  0  0  0  0  0  0  0  0  0  0  0
    2.6429    1.7648    0.2623 H   0  0  0  0  0  0  0  0  0  0  0  0
    1.1383    1.0880   -1.3192 H   0  0  0  0  0  0  0  0  0  0  0  0
    1.9623   -0.4825   -1.4361 H   0  0  0  0  0  0  0  0  0  0  0  0
   -0.7783   -2.0932   -0.9695 H   0  0  0  0  0  0  0  0  0  0  0  0
   -0.7070   -0.5665   -2.0114 H   0  0  0  0  0  0  0  0  0  0  0  0
   -3.0512   -0.5221   -0.8025 H   0  0  0  0  0  0  0  0  0  0  0  0
   -2.2233   -0.4122    1.9334 H   0  0  0  0  0  0  0  0  0  0  0  0
   -1.0253    1.3191   -0.4692 H   0  0  0  0  0  0  0  0  0  0  0  0
   -0.9181   -1.4854    1.3269 H   0  0  0  0  0  0  0  0  0  0  0  0
   -0.0301    1.5285    1.0547 H   0  0  0  0  0  0  0  0  0  0  0  0
  1  2  1  0
  2  3  1  0
  3  4  1  0
  4  5  1  0
  5  6  1  0
  6  7  1  0
  7  8  1  0
  8  9  1  0
  8  3  1  0
  9  3  1  0
  7  5  1  0
  9  6  1  0
  1 10  1  0
  1 11  1  0
  1 12  1  0
  2 13  1  0
  2 14  1  0
  4 15  1  0
  4 16  1  0
  5 17  1  0
  6 18  1  0
  7 19  1  0
  8 20  1  0
  9 21  1  0
M  END
