
     RDKit          3D

 25 26  0  0  0  0  0  0  0  0999 V2000
    2.7121   -0.5801   -0.9793 C   0  0  0  0  0  0  0  0  0  0  0  0
    1.8348   -0.5299    0.2405 C   0  0  0  0  0  0  0  0  0  0  0  0
    0.5779    0.2614    0.0313 C   0  0  0  0  0  0  0  0  0  0  0  0
    0.7440    1.6945   -0.3379 C   0  0  0  0  0  0  0  0  0  0  0  0
   -0.4550   -0.4069   -0.8657 C   0  0  0  0  0  0  0  0  0  0  0  0
   -1.4267   -0.2696    0.2371 C   0  0  0  0  0  0  0  0  0  0  0  0
   -2.5965   -1.0700    0.4665 C   0  0  0  0  0  0  0  0  0  0  0  0
   -2.6958    0.4302    0.1821 C   0  0  0  0  0  0  0  0  0  0  0  0
   -0.3651    0.0681    1.2044 C   0  0  0  0  0  0  0  0  0  0  0  0
    2.4828    0.2292   -1.6998 H   0  0  0  0  0  0  0  0  0  0  0  0
    2.6078   -1.5966   -1.4517 H   0  0  0  0  0  0  0  0  0  0  0  0
    3.7770   -0.4590   -0.6895 H   0  0  0  0  0  0  0  0  0  0  0  0
    2.4016   -0.0382    1.0595 H   0  0  0  0  0  0  0  0  0  0  0  0
    1.5674   -1.5406    0.5973 H   0  0  0  0  0  0  0  0  0  0  0  0
    1.7094    1.9007   -0.8119 H   0  0  0  0  0  0  0  0  0  0  0  0
   -0.1193    2.0473   -0.9510 H   0  0  0  0  0  0  0  0  0  0  0  0
    0.6864    2.3040    0.6064 H   0  0  0  0  0  0  0  0  0  0  0  0
   -0.6446    0.0985   -1.8135 H   0  0  0  0  0  0  0  0  0  0  0  0
   -0.1815   -1.4796   -1.0352 H   0  0  0  0  0  0  0  0  0  0  0  0
   -3.0296   -1.6803   -0.3505 H   0  0  0  0  0  0  0  0  0  0  0  0
   -2.8422   -1.4415    1.4669 H   0  0  0  0  0  0  0  0  0  0  0  0
   -3.1819    0.7754   -0.7268 H   0  0  0  0  0  0  0  0  0  0  0  0
   -2.9954    1.0126    1.0967 H   0  0  0  0  0  0  0  0  0  0  0  0
   -0.0498   -0.7312    1.9134 H   0  0  0  0  0  0  0  0  0  0  0  0
   -0.5180    1.0018    1.7892 H   0  0  0  0  0  0  0  0  0  0  0  0
  1  2  1  0
  2  3  1  0
  3  4  1  0
  3  5  1  0
  5  6  1  0
  6  7  1  0
  7  8  1  0
  6  9  1  0
  9  3  1  0
  8  6  1  0
  1 10  1  0
  1 11  1  0
  1 12  1  0
  2 13  1  0
  2 14  1  0
  4 15  1  0
  4 16  1  0
  4 17  1  0
  5 18  1  0
  5 19  1  0
  7 20  1  0
  7 21  1  0
  8 22  1  0
  8 23  1  0
  9 24  1  0
  9 25  1  0
M  END
