
     RDKit          3D

 21 23  0  0  0  0  0  0  0  0999 V2000
    2.6162    0.5804    0.0293 C   0  0  0  0  0  0  0  0  0  0  0  0
    1.7371   -0.5916   -0.3355 C   0  0  0  0  0  0  0  0  0  0  0  0
    0.3264   -0.1797   -0.6648 C   0  0  0  0  0  0  0  0  0  0  0  0
   -0.3881   -1.3064   -0.9807 O   0  0  0  0  0  0  0  0  0  0  0  0
   -1.5178   -1.3788   -0.2078 C   0  0  0  0  0  0  0  0  0  0  0  0
   -2.3085   -0.1373    0.0234 C   0  0  0  0  0  0  0  0  0  0  0  0
   -1.6077    1.2170   -0.0501 C   0  0  0  0  0  0  0  0  0  0  0  0
   -0.3636    0.5101    0.4830 C   0  0  0  0  0  0  0  0  0  0  0  0
   -1.2858   -0.5626    0.9772 C   0  0  0  0  0  0  0  0  0  0  0  0
    2.6599    1.3538   -0.7470 H   0  0  0  0  0  0  0  0  0  0  0  0
    3.6509    0.1784    0.1379 H   0  0  0  0  0  0  0  0  0  0  0  0
    2.3409    0.9899    1.0220 H   0  0  0  0  0  0  0  0  0  0  0  0
    2.1646   -1.0423   -1.2567 H   0  0  0  0  0  0  0  0  0  0  0  0
    1.7982   -1.3423    0.4563 H   0  0  0  0  0  0  0  0  0  0  0  0
    0.3387    0.5053   -1.5216 H   0  0  0  0  0  0  0  0  0  0  0  0
   -2.0603   -2.3132   -0.2242 H   0  0  0  0  0  0  0  0  0  0  0  0
   -3.3829   -0.1845    0.1901 H   0  0  0  0  0  0  0  0  0  0  0  0
   -2.0252    1.9790    0.6024 H   0  0  0  0  0  0  0  0  0  0  0  0
   -1.5131    1.4979   -1.1300 H   0  0  0  0  0  0  0  0  0  0  0  0
    0.2368    1.0529    1.1935 H   0  0  0  0  0  0  0  0  0  0  0  0
   -1.4167   -0.8260    2.0033 H   0  0  0  0  0  0  0  0  0  0  0  0
  1  2  1  0
  2  3  1  0
  3  4  1  0
  4  5  1  0
  5  6  1  0
  6  7  1  0
  7  8  1  0
  8  9  1  0
  8  3  1  0
  9  5  1  0
  9  6  1  0
  1 10  1  0
  1 11  1  0
  1 12  1  0
  2 13  1  0
  2 14  1  0
  3 15  1  0
  5 16  1  0
  6 17  1  0
  7 18  1  0
  7 19  1  0
  8 20  1  0
  9 21  1  0
M  END
