
     RDKit          3D

 18 18  0  0  0  0  0  0  0  0999 V2000
    2.3485    0.3264    0.3948 C   0  0  0  0  0  0  0  0  0  0  0  0
    1.2255    0.6526   -0.5444 C   0  0  0  0  0  0  0  0  0  0  0  0
    0.2245   -0.4767   -0.6155 C   0  0  0  0  0  0  0  0  0  0  0  0
   -0.8466   -0.0850   -1.5549 O   0  0  0  0  0  0  0  0  0  0  0  0
   -1.1300   -0.3724   -0.1648 C   0  0  0  0  0  0  0  0  0  0  0  0
   -1.5235    0.8093    0.6741 C   0  0  0  0  0  0  0  0  0  0  0  0
   -1.9284   -1.6061   -0.0276 C   0  0  0  0  0  0  0  0  0  0  0  0
   -1.7039   -2.6262   -0.6552 O   0  0  0  0  0  0  0  0  0  0  0  0
    2.2068   -0.7016    0.7804 H   0  0  0  0  0  0  0  0  0  0  0  0
    2.3892    1.0872    1.2211 H   0  0  0  0  0  0  0  0  0  0  0  0
    3.3358    0.3072   -0.1420 H   0  0  0  0  0  0  0  0  0  0  0  0
    1.6407    0.7621   -1.5820 H   0  0  0  0  0  0  0  0  0  0  0  0
    0.7106    1.6139   -0.2961 H   0  0  0  0  0  0  0  0  0  0  0  0
    0.6648   -1.4616   -0.8509 H   0  0  0  0  0  0  0  0  0  0  0  0
   -2.5341    0.6509    1.1490 H   0  0  0  0  0  0  0  0  0  0  0  0
   -1.5328    1.7590    0.0675 H   0  0  0  0  0  0  0  0  0  0  0  0
   -0.7867    0.9739    1.4799 H   0  0  0  0  0  0  0  0  0  0  0  0
   -2.7605   -1.6130    0.6666 H   0  0  0  0  0  0  0  0  0  0  0  0
  1  2  1  0
  2  3  1  0
  3  4  1  0
  4  5  1  0
  5  6  1  0
  5  7  1  0
  7  8  2  0
  5  3  1  0
  1  9  1  0
  1 10  1  0
  1 11  1  0
  2 12  1  0
  2 13  1  0
  3 14  1  0
  6 15  1  0
  6 16  1  0
  6 17  1  0
  7 18  1  0
M  END
