
     RDKit          3D

 23 23  0  0  0  0  0  0  0  0999 V2000
   -1.6336   -1.7470    0.1767 C   0  0  0  0  0  0  0  0  0  0  0  0
   -0.5213   -0.8977    0.7005 C   0  0  0  0  0  0  0  0  0  0  0  0
   -0.1497    0.2512   -0.1578 C   0  0  0  0  0  0  0  0  0  0  0  0
   -1.2062    1.2758   -0.4469 C   0  0  0  0  0  0  0  0  0  0  0  0
   -1.6770    1.8685    0.7251 O   0  0  0  0  0  0  0  0  0  0  0  0
    1.0991    0.9371    0.3740 C   0  0  0  0  0  0  0  0  0  0  0  0
    1.9468    0.1957   -0.6499 C   0  0  0  0  0  0  0  0  0  0  0  0
    2.5579   -0.8877   -0.0524 O   0  0  0  0  0  0  0  0  0  0  0  0
    0.6595   -0.1131   -1.3929 C   0  0  0  0  0  0  0  0  0  0  0  0
   -2.6425   -1.3749    0.4675 H   0  0  0  0  0  0  0  0  0  0  0  0
   -1.5367   -2.7494    0.6560 H   0  0  0  0  0  0  0  0  0  0  0  0
   -1.5409   -1.8924   -0.9072 H   0  0  0  0  0  0  0  0  0  0  0  0
    0.3717   -1.5459    0.8182 H   0  0  0  0  0  0  0  0  0  0  0  0
   -0.8041   -0.5542    1.7145 H   0  0  0  0  0  0  0  0  0  0  0  0
   -2.0996    0.8424   -0.9518 H   0  0  0  0  0  0  0  0  0  0  0  0
   -0.7974    2.0276   -1.1538 H   0  0  0  0  0  0  0  0  0  0  0  0
   -1.3089    2.7531    0.8867 H   0  0  0  0  0  0  0  0  0  0  0  0
    1.1280    2.0219    0.1651 H   0  0  0  0  0  0  0  0  0  0  0  0
    1.3415    0.6960    1.4284 H   0  0  0  0  0  0  0  0  0  0  0  0
    2.6507    0.8638   -1.2124 H   0  0  0  0  0  0  0  0  0  0  0  0
    3.1458   -1.4054   -0.6265 H   0  0  0  0  0  0  0  0  0  0  0  0
    0.5299   -1.1680   -1.6871 H   0  0  0  0  0  0  0  0  0  0  0  0
    0.4867    0.6025   -2.2133 H   0  0  0  0  0  0  0  0  0  0  0  0
  1  2  1  0
  2  3  1  0
  3  4  1  0
  4  5  1  0
  3  6  1  0
  6  7  1  0
  7  8  1  0
  7  9  1  0
  9  3  1  0
  1 10  1  0
  1 11  1  0
  1 12  1  0
  2 13  1  0
  2 14  1  0
  4 15  1  0
  4 16  1  0
  5 17  1  0
  6 18  1  0
  6 19  1  0
  7 20  1  0
  8 21  1  0
  9 22  1  0
  9 23  1  0
M  END
