
     RDKit          3D

 21 22  0  0  0  0  0  0  0  0999 V2000
    2.7034    0.3070   -0.0653 C   0  0  0  0  0  0  0  0  0  0  0  0
    1.3700    0.3175   -0.7706 C   0  0  0  0  0  0  0  0  0  0  0  0
    0.3168   -0.5061   -0.0011 C   0  0  0  0  0  0  0  0  0  0  0  0
    0.1619    0.0897    1.3555 C   0  0  0  0  0  0  0  0  0  0  0  0
   -0.4679    1.0903    0.6154 O   0  0  0  0  0  0  0  0  0  0  0  0
   -1.1160    0.0652   -0.0226 C   0  0  0  0  0  0  0  0  0  0  0  0
   -2.2985   -0.3502    0.6919 C   0  0  0  0  0  0  0  0  0  0  0  0
   -3.1470    0.7939    0.7675 O   0  0  0  0  0  0  0  0  0  0  0  0
   -0.6524   -0.9775   -0.9171 C   0  0  0  0  0  0  0  0  0  0  0  0
    3.4407    0.6561   -0.8477 H   0  0  0  0  0  0  0  0  0  0  0  0
    3.0416   -0.6951    0.2295 H   0  0  0  0  0  0  0  0  0  0  0  0
    2.7766    1.0661    0.7407 H   0  0  0  0  0  0  0  0  0  0  0  0
    1.5521   -0.1760   -1.7459 H   0  0  0  0  0  0  0  0  0  0  0  0
    1.0673    1.3473   -0.9211 H   0  0  0  0  0  0  0  0  0  0  0  0
    1.1613    0.3991    1.7898 H   0  0  0  0  0  0  0  0  0  0  0  0
   -0.3568   -0.4292    2.1331 H   0  0  0  0  0  0  0  0  0  0  0  0
   -2.2803   -0.7407    1.6979 H   0  0  0  0  0  0  0  0  0  0  0  0
   -2.9731   -1.0800    0.1367 H   0  0  0  0  0  0  0  0  0  0  0  0
   -2.6160    1.6051    0.9588 H   0  0  0  0  0  0  0  0  0  0  0  0
   -0.7517   -0.7127   -2.0139 H   0  0  0  0  0  0  0  0  0  0  0  0
   -0.9321   -2.0699   -0.8059 H   0  0  0  0  0  0  0  0  0  0  0  0
  1  2  1  0
  2  3  1  0
  3  4  1  0
  4  5  1  0
  5  6  1  0
  6  7  1  0
  7  8  1  0
  6  9  1  0
  6  3  1  0
  9  3  1  0
  1 10  1  0
  1 11  1  0
  1 12  1  0
  2 13  1  0
  2 14  1  0
  4 15  1  0
  4 16  1  0
  7 17  1  0
  7 18  1  0
  8 19  1  0
  9 20  1  0
  9 21  1  0
M  END
