
     RDKit          3D

 25 25  0  0  0  0  0  0  0  0999 V2000
    3.0688   -0.8328    1.0333 C   0  0  0  0  0  0  0  0  0  0  0  0
    2.3080    0.3061    0.4146 C   0  0  0  0  0  0  0  0  0  0  0  0
    1.0155   -0.1306   -0.2249 C   0  0  0  0  0  0  0  0  0  0  0  0
    0.2220    1.0041   -0.8603 C   0  0  0  0  0  0  0  0  0  0  0  0
   -0.4234    0.7991   -2.0466 O   0  0  0  0  0  0  0  0  0  0  0  0
   -0.2205    0.3563    0.4202 C   0  0  0  0  0  0  0  0  0  0  0  0
   -1.4976   -0.4049    0.4097 C   0  0  0  0  0  0  0  0  0  0  0  0
   -2.0735   -0.7054   -0.9407 C   0  0  0  0  0  0  0  0  0  0  0  0
   -2.5290    0.4726    1.1349 C   0  0  0  0  0  0  0  0  0  0  0  0
    3.7363   -1.2625    0.2420 H   0  0  0  0  0  0  0  0  0  0  0  0
    2.3699   -1.5589    1.4568 H   0  0  0  0  0  0  0  0  0  0  0  0
    3.6936   -0.4156    1.8471 H   0  0  0  0  0  0  0  0  0  0  0  0
    2.9718    0.8314   -0.3225 H   0  0  0  0  0  0  0  0  0  0  0  0
    2.0709    1.0205    1.2249 H   0  0  0  0  0  0  0  0  0  0  0  0
    1.0518   -1.0729   -0.8009 H   0  0  0  0  0  0  0  0  0  0  0  0
    0.6564    2.0469   -0.7865 H   0  0  0  0  0  0  0  0  0  0  0  0
    0.0770    0.3184   -2.7285 H   0  0  0  0  0  0  0  0  0  0  0  0
   -0.0887    0.9604    1.3712 H   0  0  0  0  0  0  0  0  0  0  0  0
   -1.4017   -1.3283    1.0250 H   0  0  0  0  0  0  0  0  0  0  0  0
   -1.3986   -1.2635   -1.5950 H   0  0  0  0  0  0  0  0  0  0  0  0
   -2.5696    0.1715   -1.4011 H   0  0  0  0  0  0  0  0  0  0  0  0
   -2.9300   -1.4207   -0.7442 H   0  0  0  0  0  0  0  0  0  0  0  0
   -1.9959    0.8045    2.0644 H   0  0  0  0  0  0  0  0  0  0  0  0
   -2.6751    1.3766    0.5051 H   0  0  0  0  0  0  0  0  0  0  0  0
   -3.4383   -0.0723    1.3664 H   0  0  0  0  0  0  0  0  0  0  0  0
  1  2  1  0
  2  3  1  0
  3  4  1  0
  4  5  1  0
  4  6  1  0
  6  7  1  0
  7  8  1  0
  7  9  1  0
  6  3  1  0
  1 10  1  0
  1 11  1  0
  1 12  1  0
  2 13  1  0
  2 14  1  0
  3 15  1  0
  4 16  1  0
  5 17  1  0
  6 18  1  0
  7 19  1  0
  8 20  1  0
  8 21  1  0
  8 22  1  0
  9 23  1  0
  9 24  1  0
  9 25  1  0
M  END
