
     RDKit          3D

 21 22  0  0  0  0  0  0  0  0999 V2000
    3.1025   -0.0962   -0.0090 C   0  0  0  0  0  0  0  0  0  0  0  0
    1.9360    0.8401   -0.2936 C   0  0  0  0  0  0  0  0  0  0  0  0
    0.6392    0.1257    0.0205 C   0  0  0  0  0  0  0  0  0  0  0  0
    0.5404   -0.3039    1.4286 O   0  0  0  0  0  0  0  0  0  0  0  0
   -0.3692    0.7269    0.8095 C   0  0  0  0  0  0  0  0  0  0  0  0
   -1.7613    0.2035    0.9258 C   0  0  0  0  0  0  0  0  0  0  0  0
   -2.5616    0.1114   -0.3420 C   0  0  0  0  0  0  0  0  0  0  0  0
   -3.1326   -1.0730    0.1811 O   0  0  0  0  0  0  0  0  0  0  0  0
   -1.8992   -1.2781    0.8334 C   0  0  0  0  0  0  0  0  0  0  0  0
    3.9441    0.0599   -0.7144 H   0  0  0  0  0  0  0  0  0  0  0  0
    3.3821    0.0604    1.0501 H   0  0  0  0  0  0  0  0  0  0  0  0
    2.7051   -1.1283   -0.0930 H   0  0  0  0  0  0  0  0  0  0  0  0
    1.9927    1.0732   -1.3743 H   0  0  0  0  0  0  0  0  0  0  0  0
    2.0706    1.7455    0.3243 H   0  0  0  0  0  0  0  0  0  0  0  0
    0.4441   -0.7601   -0.6104 H   0  0  0  0  0  0  0  0  0  0  0  0
   -0.1573    1.7324    1.2797 H   0  0  0  0  0  0  0  0  0  0  0  0
   -2.3843    0.6588    1.7305 H   0  0  0  0  0  0  0  0  0  0  0  0
   -3.3236    0.9108   -0.4748 H   0  0  0  0  0  0  0  0  0  0  0  0
   -1.9845   -0.1571   -1.2455 H   0  0  0  0  0  0  0  0  0  0  0  0
   -1.9973   -1.7335    1.8352 H   0  0  0  0  0  0  0  0  0  0  0  0
   -1.1859   -1.7185    0.1399 H   0  0  0  0  0  0  0  0  0  0  0  0
  1  2  1  0
  2  3  1  0
  3  4  1  0
  4  5  1  0
  5  6  1  0
  6  7  1  0
  7  8  1  0
  8  9  1  0
  5  3  1  0
  9  6  1  0
  1 10  1  0
  1 11  1  0
  1 12  1  0
  2 13  1  0
  2 14  1  0
  3 15  1  0
  5 16  1  0
  6 17  1  0
  7 18  1  0
  7 19  1  0
  9 20  1  0
  9 21  1  0
M  END
