
     RDKit          3D

 20 20  0  0  0  0  0  0  0  0999 V2000
   -2.4314   -0.0066    1.2632 C   0  0  0  0  0  0  0  0  0  0  0  0
   -1.7439    0.7109    0.1482 C   0  0  0  0  0  0  0  0  0  0  0  0
   -0.2683    0.5032    0.2648 C   0  0  0  0  0  0  0  0  0  0  0  0
    0.6645    1.1175   -0.7322 C   0  0  0  0  0  0  0  0  0  0  0  0
    0.3886   -0.3424   -0.7628 C   0  0  0  0  0  0  0  0  0  0  0  0
    1.4888   -1.2574   -0.3705 C   0  0  0  0  0  0  0  0  0  0  0  0
    2.4356   -0.7967    0.6796 C   0  0  0  0  0  0  0  0  0  0  0  0
    1.5972   -2.3266   -0.8907 O   0  0  0  0  0  0  0  0  0  0  0  0
   -2.7232    0.6664    2.1034 H   0  0  0  0  0  0  0  0  0  0  0  0
   -3.3806   -0.4315    0.8750 H   0  0  0  0  0  0  0  0  0  0  0  0
   -1.7647   -0.8111    1.6806 H   0  0  0  0  0  0  0  0  0  0  0  0
   -2.1137    0.3096   -0.8363 H   0  0  0  0  0  0  0  0  0  0  0  0
   -1.9322    1.8136    0.1638 H   0  0  0  0  0  0  0  0  0  0  0  0
    0.1096    0.5299    1.3102 H   0  0  0  0  0  0  0  0  0  0  0  0
    1.6868    1.4081   -0.4213 H   0  0  0  0  0  0  0  0  0  0  0  0
    0.1696    1.8014   -1.4558 H   0  0  0  0  0  0  0  0  0  0  0  0
   -0.2773   -0.7584   -1.5540 H   0  0  0  0  0  0  0  0  0  0  0  0
    3.1305   -1.6392    0.9529 H   0  0  0  0  0  0  0  0  0  0  0  0
    3.1096    0.0070    0.2988 H   0  0  0  0  0  0  0  0  0  0  0  0
    1.8545   -0.4978    1.5559 H   0  0  0  0  0  0  0  0  0  0  0  0
  1  2  1  0
  2  3  1  0
  3  4  1  0
  4  5  1  0
  5  6  1  0
  6  7  1  0
  6  8  2  0
  5  3  1  0
  1  9  1  0
  1 10  1  0
  1 11  1  0
  2 12  1  0
  2 13  1  0
  3 14  1  0
  4 15  1  0
  4 16  1  0
  5 17  1  0
  7 18  1  0
  7 19  1  0
  7 20  1  0
M  END
