
     RDKit          3D

 19 21  0  0  0  0  0  0  0  0999 V2000
    2.8475    0.1127   -0.2805 C   0  0  0  0  0  0  0  0  0  0  0  0
    1.6282   -0.5838    0.3363 C   0  0  0  0  0  0  0  0  0  0  0  0
    0.4179   -0.0664   -0.3410 C   0  0  0  0  0  0  0  0  0  0  0  0
    0.3083   -0.2457   -1.6962 O   0  0  0  0  0  0  0  0  0  0  0  0
   -0.6937   -0.6954   -0.8473 C   0  0  0  0  0  0  0  0  0  0  0  0
   -1.6092    0.4012   -0.3369 C   0  0  0  0  0  0  0  0  0  0  0  0
   -2.8465    0.0600    0.4061 C   0  0  0  0  0  0  0  0  0  0  0  0
   -1.2612    1.7025   -0.5867 O   0  0  0  0  0  0  0  0  0  0  0  0
   -0.4271    1.0251    0.2729 C   0  0  0  0  0  0  0  0  0  0  0  0
    3.1313   -0.3559   -1.2451 H   0  0  0  0  0  0  0  0  0  0  0  0
    3.6851    0.1662    0.4256 H   0  0  0  0  0  0  0  0  0  0  0  0
    2.5031    1.1708   -0.4600 H   0  0  0  0  0  0  0  0  0  0  0  0
    1.7347   -1.6726    0.0942 H   0  0  0  0  0  0  0  0  0  0  0  0
    1.6300   -0.5063    1.4235 H   0  0  0  0  0  0  0  0  0  0  0  0
   -1.0273   -1.7267   -0.8502 H   0  0  0  0  0  0  0  0  0  0  0  0
   -3.7083    0.5799   -0.1063 H   0  0  0  0  0  0  0  0  0  0  0  0
   -3.0643   -1.0223    0.3093 H   0  0  0  0  0  0  0  0  0  0  0  0
   -2.8697    0.4193    1.4517 H   0  0  0  0  0  0  0  0  0  0  0  0
   -0.3785    1.2376    1.3372 H   0  0  0  0  0  0  0  0  0  0  0  0
  1  2  1  0
  2  3  1  0
  3  4  1  0
  4  5  1  0
  5  6  1  0
  6  7  1  0
  6  8  1  0
  8  9  1  0
  5  3  1  0
  9  6  1  0
  9  3  1  0
  1 10  1  0
  1 11  1  0
  1 12  1  0
  2 13  1  0
  2 14  1  0
  5 15  1  0
  7 16  1  0
  7 17  1  0
  7 18  1  0
  9 19  1  0
M  END
