
     RDKit          3D

 23 23  0  0  0  0  0  0  0  0999 V2000
   -3.1718    0.4075    0.0121 C   0  0  0  0  0  0  0  0  0  0  0  0
   -1.7653    0.9835    0.2054 C   0  0  0  0  0  0  0  0  0  0  0  0
   -0.9063    0.3528   -0.8943 C   0  0  0  0  0  0  0  0  0  0  0  0
   -0.9592   -1.1044   -0.6780 C   0  0  0  0  0  0  0  0  0  0  0  0
    0.0937   -1.4481    0.0290 C   0  0  0  0  0  0  0  0  0  0  0  0
    0.8725   -0.2135    0.2973 C   0  0  0  0  0  0  0  0  0  0  0  0
    2.3279   -0.5796    0.0005 C   0  0  0  0  0  0  0  0  0  0  0  0
    3.2468    0.5857    0.2300 C   0  0  0  0  0  0  0  0  0  0  0  0
    0.3902    0.7088   -0.6330 O   0  0  0  0  0  0  0  0  0  0  0  0
   -3.1202   -0.6529    0.3252 H   0  0  0  0  0  0  0  0  0  0  0  0
   -3.4220    0.5328   -1.0511 H   0  0  0  0  0  0  0  0  0  0  0  0
   -3.8614    1.0154    0.6369 H   0  0  0  0  0  0  0  0  0  0  0  0
   -1.7496    2.0730    0.1615 H   0  0  0  0  0  0  0  0  0  0  0  0
   -1.4108    0.6659    1.2066 H   0  0  0  0  0  0  0  0  0  0  0  0
   -1.2640    0.6570   -1.8960 H   0  0  0  0  0  0  0  0  0  0  0  0
   -1.7293   -1.8030   -1.0329 H   0  0  0  0  0  0  0  0  0  0  0  0
    0.4030   -2.4310    0.3876 H   0  0  0  0  0  0  0  0  0  0  0  0
    0.7456    0.1361    1.3397 H   0  0  0  0  0  0  0  0  0  0  0  0
    2.5578   -1.4256    0.7071 H   0  0  0  0  0  0  0  0  0  0  0  0
    2.3519   -0.9812   -1.0132 H   0  0  0  0  0  0  0  0  0  0  0  0
    2.8230    1.4543   -0.3123 H   0  0  0  0  0  0  0  0  0  0  0  0
    4.2394    0.3012   -0.1767 H   0  0  0  0  0  0  0  0  0  0  0  0
    3.3082    0.7651    1.3084 H   0  0  0  0  0  0  0  0  0  0  0  0
  1  2  1  0
  2  3  1  0
  3  4  1  0
  4  5  2  0
  5  6  1  0
  6  7  1  0
  7  8  1  0
  6  9  1  0
  9  3  1  0
  1 10  1  0
  1 11  1  0
  1 12  1  0
  2 13  1  0
  2 14  1  0
  3 15  1  0
  4 16  1  0
  5 17  1  0
  6 18  1  0
  7 19  1  0
  7 20  1  0
  8 21  1  0
  8 22  1  0
  8 23  1  0
M  END
