
     RDKit          3D

 21 22  0  0  0  0  0  0  0  0999 V2000
    3.0243    0.3980    0.1648 C   0  0  0  0  0  0  0  0  0  0  0  0
    1.8494    0.0089   -0.7064 C   0  0  0  0  0  0  0  0  0  0  0  0
    0.7442   -0.6271    0.0982 C   0  0  0  0  0  0  0  0  0  0  0  0
   -0.4950   -1.0809   -0.5586 C   0  0  0  0  0  0  0  0  0  0  0  0
   -1.4284   -1.6975    0.2690 O   0  0  0  0  0  0  0  0  0  0  0  0
   -1.7609   -0.4528    0.7880 C   0  0  0  0  0  0  0  0  0  0  0  0
   -2.9687    0.1245    0.0378 C   0  0  0  0  0  0  0  0  0  0  0  0
   -0.4601    0.1625    0.3419 C   0  0  0  0  0  0  0  0  0  0  0  0
   -0.6067    1.3566   -0.3783 O   0  0  0  0  0  0  0  0  0  0  0  0
    3.1945   -0.3959    0.9376 H   0  0  0  0  0  0  0  0  0  0  0  0
    3.9107    0.4356   -0.5013 H   0  0  0  0  0  0  0  0  0  0  0  0
    2.8366    1.3278    0.7012 H   0  0  0  0  0  0  0  0  0  0  0  0
    1.4555    0.9201   -1.1832 H   0  0  0  0  0  0  0  0  0  0  0  0
    2.1729   -0.6861   -1.5274 H   0  0  0  0  0  0  0  0  0  0  0  0
    1.1382   -1.3331    0.8874 H   0  0  0  0  0  0  0  0  0  0  0  0
   -0.7042   -0.9525   -1.6223 H   0  0  0  0  0  0  0  0  0  0  0  0
   -1.9563   -0.4196    1.8703 H   0  0  0  0  0  0  0  0  0  0  0  0
   -2.6031    0.8215   -0.7459 H   0  0  0  0  0  0  0  0  0  0  0  0
   -3.5047   -0.7019   -0.4992 H   0  0  0  0  0  0  0  0  0  0  0  0
   -3.6392    0.6721    0.7328 H   0  0  0  0  0  0  0  0  0  0  0  0
   -0.1992    2.1196    0.1008 H   0  0  0  0  0  0  0  0  0  0  0  0
  1  2  1  0
  2  3  1  0
  3  4  1  0
  4  5  1  0
  5  6  1  0
  6  7  1  0
  6  8  1  0
  8  9  1  0
  8  3  1  0
  8  4  1  0
  1 10  1  0
  1 11  1  0
  1 12  1  0
  2 13  1  0
  2 14  1  0
  3 15  1  0
  4 16  1  0
  6 17  1  0
  7 18  1  0
  7 19  1  0
  7 20  1  0
  9 21  1  0
M  END
