
     RDKit          3D

 21 22  0  0  0  0  0  0  0  0999 V2000
    2.6712   -0.2416   -0.0944 C   0  0  0  0  0  0  0  0  0  0  0  0
    1.3145   -0.9412   -0.1794 C   0  0  0  0  0  0  0  0  0  0  0  0
    0.2883   -0.0667    0.4883 C   0  0  0  0  0  0  0  0  0  0  0  0
   -1.1261   -0.4337    0.5887 C   0  0  0  0  0  0  0  0  0  0  0  0
   -1.9019   -0.0892    1.6748 O   0  0  0  0  0  0  0  0  0  0  0  0
   -1.7733   -1.2632   -0.5010 C   0  0  0  0  0  0  0  0  0  0  0  0
   -1.2975   -0.3072   -1.4227 O   0  0  0  0  0  0  0  0  0  0  0  0
   -0.7448    0.5021   -0.4594 C   0  0  0  0  0  0  0  0  0  0  0  0
   -0.9814    1.9656   -0.4225 C   0  0  0  0  0  0  0  0  0  0  0  0
    2.4699    0.8369   -0.1124 H   0  0  0  0  0  0  0  0  0  0  0  0
    3.1335   -0.4538    0.9056 H   0  0  0  0  0  0  0  0  0  0  0  0
    3.3302   -0.5271   -0.9243 H   0  0  0  0  0  0  0  0  0  0  0  0
    1.3874   -1.9542    0.2690 H   0  0  0  0  0  0  0  0  0  0  0  0
    1.1219   -1.0555   -1.2853 H   0  0  0  0  0  0  0  0  0  0  0  0
    0.6676    0.6488    1.2433 H   0  0  0  0  0  0  0  0  0  0  0  0
   -1.4225   -0.1428    2.5434 H   0  0  0  0  0  0  0  0  0  0  0  0
   -1.3216   -2.2754   -0.6353 H   0  0  0  0  0  0  0  0  0  0  0  0
   -2.8579   -1.2749   -0.3773 H   0  0  0  0  0  0  0  0  0  0  0  0
   -0.5295    2.3789    0.4977 H   0  0  0  0  0  0  0  0  0  0  0  0
   -0.3925    2.4232   -1.2708 H   0  0  0  0  0  0  0  0  0  0  0  0
   -2.0354    2.2709   -0.5260 H   0  0  0  0  0  0  0  0  0  0  0  0
  1  2  1  0
  2  3  1  0
  3  4  1  0
  4  5  1  0
  4  6  1  0
  6  7  1  0
  7  8  1  0
  8  9  1  0
  8  3  1  0
  8  4  1  0
  1 10  1  0
  1 11  1  0
  1 12  1  0
  2 13  1  0
  2 14  1  0
  3 15  1  0
  5 16  1  0
  6 17  1  0
  6 18  1  0
  9 19  1  0
  9 20  1  0
  9 21  1  0
M  END
