
     RDKit          3D

 25 25  0  0  0  0  0  0  0  0999 V2000
    3.0359    0.4238   -0.3302 C   0  0  0  0  0  0  0  0  0  0  0  0
    2.0711   -0.6930    0.0857 C   0  0  0  0  0  0  0  0  0  0  0  0
    0.7728    0.0015    0.4084 C   0  0  0  0  0  0  0  0  0  0  0  0
   -0.3528   -0.9070    0.8518 C   0  0  0  0  0  0  0  0  0  0  0  0
   -1.2762    0.0808    0.1205 C   0  0  0  0  0  0  0  0  0  0  0  0
   -2.4617   -0.5333   -0.5319 C   0  0  0  0  0  0  0  0  0  0  0  0
   -1.5817    1.3101    0.9285 C   0  0  0  0  0  0  0  0  0  0  0  0
   -0.0833    0.3168   -0.8166 C   0  0  0  0  0  0  0  0  0  0  0  0
    0.0722   -0.7060   -1.7530 O   0  0  0  0  0  0  0  0  0  0  0  0
    2.4359    1.1054   -0.9658 H   0  0  0  0  0  0  0  0  0  0  0  0
    3.9403    0.0454   -0.7967 H   0  0  0  0  0  0  0  0  0  0  0  0
    3.2298    0.9948    0.6248 H   0  0  0  0  0  0  0  0  0  0  0  0
    2.4777   -1.2186    0.9607 H   0  0  0  0  0  0  0  0  0  0  0  0
    1.9846   -1.4040   -0.7396 H   0  0  0  0  0  0  0  0  0  0  0  0
    0.8569    0.8528    1.1070 H   0  0  0  0  0  0  0  0  0  0  0  0
   -0.3858   -1.8850    0.3165 H   0  0  0  0  0  0  0  0  0  0  0  0
   -0.5536   -0.9418    1.9241 H   0  0  0  0  0  0  0  0  0  0  0  0
   -3.3453   -0.3570    0.1401 H   0  0  0  0  0  0  0  0  0  0  0  0
   -2.7176   -0.0532   -1.5035 H   0  0  0  0  0  0  0  0  0  0  0  0
   -2.3388   -1.6195   -0.6222 H   0  0  0  0  0  0  0  0  0  0  0  0
   -1.5307    1.1030    2.0305 H   0  0  0  0  0  0  0  0  0  0  0  0
   -0.8610    2.1379    0.6804 H   0  0  0  0  0  0  0  0  0  0  0  0
   -2.5807    1.7100    0.6826 H   0  0  0  0  0  0  0  0  0  0  0  0
    0.0052    1.3347   -1.2004 H   0  0  0  0  0  0  0  0  0  0  0  0
   -0.8131   -1.0986   -1.9480 H   0  0  0  0  0  0  0  0  0  0  0  0
  1  2  1  0
  2  3  1  0
  3  4  1  0
  4  5  1  0
  5  6  1  0
  5  7  1  0
  5  8  1  0
  8  9  1  0
  8  3  1  0
  1 10  1  0
  1 11  1  0
  1 12  1  0
  2 13  1  0
  2 14  1  0
  3 15  1  0
  4 16  1  0
  4 17  1  0
  6 18  1  0
  6 19  1  0
  6 20  1  0
  7 21  1  0
  7 22  1  0
  7 23  1  0
  8 24  1  0
  9 25  1  0
M  END
