
     RDKit          3D

 21 21  0  0  0  0  0  0  0  0999 V2000
    1.9113    0.1733    0.8529 C   0  0  0  0  0  0  0  0  0  0  0  0
    1.7258   -0.2874   -0.5728 C   0  0  0  0  0  0  0  0  0  0  0  0
    0.2640   -0.3641   -0.9569 C   0  0  0  0  0  0  0  0  0  0  0  0
   -0.4316    0.9740   -0.8388 C   0  0  0  0  0  0  0  0  0  0  0  0
   -1.1602    1.1383    0.4537 C   0  0  0  0  0  0  0  0  0  0  0  0
   -2.1006    0.0223    0.6963 C   0  0  0  0  0  0  0  0  0  0  0  0
   -1.7541   -1.1997    0.3584 C   0  0  0  0  0  0  0  0  0  0  0  0
   -0.4597   -1.4350   -0.2452 C   0  0  0  0  0  0  0  0  0  0  0  0
    0.0626   -2.5652   -0.1666 O   0  0  0  0  0  0  0  0  0  0  0  0
    1.8619    1.2562    0.9805 H   0  0  0  0  0  0  0  0  0  0  0  0
    1.2206   -0.3851    1.5198 H   0  0  0  0  0  0  0  0  0  0  0  0
    2.9565   -0.1260    1.1556 H   0  0  0  0  0  0  0  0  0  0  0  0
    2.2220    0.3755   -1.2880 H   0  0  0  0  0  0  0  0  0  0  0  0
    2.1439   -1.2958   -0.6750 H   0  0  0  0  0  0  0  0  0  0  0  0
    0.2532   -0.6490   -2.0463 H   0  0  0  0  0  0  0  0  0  0  0  0
    0.2815    1.8242   -0.9379 H   0  0  0  0  0  0  0  0  0  0  0  0
   -1.1800    1.0907   -1.6611 H   0  0  0  0  0  0  0  0  0  0  0  0
   -0.5115    1.2658    1.3356 H   0  0  0  0  0  0  0  0  0  0  0  0
   -1.7906    2.0622    0.3591 H   0  0  0  0  0  0  0  0  0  0  0  0
   -3.0884    0.1579    1.1502 H   0  0  0  0  0  0  0  0  0  0  0  0
   -2.4265   -2.0333    0.5264 H   0  0  0  0  0  0  0  0  0  0  0  0
  1  2  1  0
  2  3  1  0
  3  4  1  0
  4  5  1  0
  5  6  1  0
  6  7  2  0
  7  8  1  0
  8  9  2  0
  8  3  1  0
  1 10  1  0
  1 11  1  0
  1 12  1  0
  2 13  1  0
  2 14  1  0
  3 15  1  0
  4 16  1  0
  4 17  1  0
  5 18  1  0
  5 19  1  0
  6 20  1  0
  7 21  1  0
M  END
