
     RDKit          3D

 23 23  0  0  0  0  0  0  0  0999 V2000
    2.3066   -0.7002   -0.4984 C   0  0  0  0  0  0  0  0  0  0  0  0
    1.6834   -0.2968    0.7980 C   0  0  0  0  0  0  0  0  0  0  0  0
    0.3712    0.4010    0.6500 C   0  0  0  0  0  0  0  0  0  0  0  0
   -0.7869   -0.2942   -0.0205 C   0  0  0  0  0  0  0  0  0  0  0  0
   -1.7997    0.7311   -0.4874 C   0  0  0  0  0  0  0  0  0  0  0  0
   -1.5382   -1.2045    0.9444 C   0  0  0  0  0  0  0  0  0  0  0  0
   -0.3443   -0.9944   -1.1396 O   0  0  0  0  0  0  0  0  0  0  0  0
    0.3592    1.8931    0.5916 C   0  0  0  0  0  0  0  0  0  0  0  0
    0.0377    1.1621    1.8256 O   0  0  0  0  0  0  0  0  0  0  0  0
    3.4010   -0.4247   -0.5520 H   0  0  0  0  0  0  0  0  0  0  0  0
    2.2824   -1.8197   -0.5999 H   0  0  0  0  0  0  0  0  0  0  0  0
    1.8431   -0.2016   -1.3656 H   0  0  0  0  0  0  0  0  0  0  0  0
    2.3808    0.4022    1.3088 H   0  0  0  0  0  0  0  0  0  0  0  0
    1.5857   -1.1703    1.5076 H   0  0  0  0  0  0  0  0  0  0  0  0
   -1.4050    1.3765   -1.2915 H   0  0  0  0  0  0  0  0  0  0  0  0
   -2.6953    0.1732   -0.8854 H   0  0  0  0  0  0  0  0  0  0  0  0
   -2.1407    1.2798    0.4023 H   0  0  0  0  0  0  0  0  0  0  0  0
   -1.7417   -0.6114    1.8435 H   0  0  0  0  0  0  0  0  0  0  0  0
   -2.5277   -1.3963    0.4503 H   0  0  0  0  0  0  0  0  0  0  0  0
   -1.0289   -2.1535    1.1183 H   0  0  0  0  0  0  0  0  0  0  0  0
   -1.0879   -1.0294   -1.7939 H   0  0  0  0  0  0  0  0  0  0  0  0
    1.3317    2.4228    0.7752 H   0  0  0  0  0  0  0  0  0  0  0  0
   -0.4866    2.4550    0.1916 H   0  0  0  0  0  0  0  0  0  0  0  0
  1  2  1  0
  2  3  1  0
  3  4  1  0
  4  5  1  0
  4  6  1  0
  4  7  1  0
  3  8  1  0
  8  9  1  0
  9  3  1  0
  1 10  1  0
  1 11  1  0
  1 12  1  0
  2 13  1  0
  2 14  1  0
  5 15  1  0
  5 16  1  0
  5 17  1  0
  6 18  1  0
  6 19  1  0
  6 20  1  0
  7 21  1  0
  8 22  1  0
  8 23  1  0
M  END
