
     RDKit          3D

 19 19  0  0  0  0  0  0  0  0999 V2000
    2.5326   -0.3509    0.2267 C   0  0  0  0  0  0  0  0  0  0  0  0
    1.0703   -0.6496    0.5905 C   0  0  0  0  0  0  0  0  0  0  0  0
    0.2555    0.0629   -0.4978 C   0  0  0  0  0  0  0  0  0  0  0  0
    0.5996    1.4346   -0.3905 O   0  0  0  0  0  0  0  0  0  0  0  0
   -0.5204    2.1743   -0.0931 C   0  0  0  0  0  0  0  0  0  0  0  0
   -0.5520    3.4292    0.0686 O   0  0  0  0  0  0  0  0  0  0  0  0
   -1.6228    1.2177   -0.0096 C   0  0  0  0  0  0  0  0  0  0  0  0
   -1.1860   -0.0038   -0.2415 C   0  0  0  0  0  0  0  0  0  0  0  0
   -2.0180   -1.2224   -0.2401 C   0  0  0  0  0  0  0  0  0  0  0  0
    2.6244   -0.5915   -0.8464 H   0  0  0  0  0  0  0  0  0  0  0  0
    3.2332   -0.8899    0.8769 H   0  0  0  0  0  0  0  0  0  0  0  0
    2.6412    0.7590    0.3033 H   0  0  0  0  0  0  0  0  0  0  0  0
    0.8392   -0.2425    1.5894 H   0  0  0  0  0  0  0  0  0  0  0  0
    0.9245   -1.7470    0.5325 H   0  0  0  0  0  0  0  0  0  0  0  0
    0.5750   -0.3889   -1.4506 H   0  0  0  0  0  0  0  0  0  0  0  0
   -2.6406    1.5539    0.2190 H   0  0  0  0  0  0  0  0  0  0  0  0
   -2.4471   -1.3251    0.7877 H   0  0  0  0  0  0  0  0  0  0  0  0
   -1.4361   -2.1206   -0.4987 H   0  0  0  0  0  0  0  0  0  0  0  0
   -2.8726   -1.0993   -0.9263 H   0  0  0  0  0  0  0  0  0  0  0  0
  1  2  1  0
  2  3  1  0
  3  4  1  0
  4  5  1  0
  5  6  2  0
  5  7  1  0
  7  8  2  0
  8  9  1  0
  8  3  1  0
  1 10  1  0
  1 11  1  0
  1 12  1  0
  2 13  1  0
  2 14  1  0
  3 15  1  0
  7 16  1  0
  9 17  1  0
  9 18  1  0
  9 19  1  0
M  END
