
     RDKit          3D

 23 23  0  0  0  0  0  0  0  0999 V2000
    2.7724    1.0802   -0.1709 C   0  0  0  0  0  0  0  0  0  0  0  0
    1.9825   -0.1552   -0.5142 C   0  0  0  0  0  0  0  0  0  0  0  0
    0.7165   -0.2780    0.2998 C   0  0  0  0  0  0  0  0  0  0  0  0
    0.0377   -1.5733   -0.1664 C   0  0  0  0  0  0  0  0  0  0  0  0
   -1.4426   -1.4903    0.0851 C   0  0  0  0  0  0  0  0  0  0  0  0
   -1.6310   -0.6353    1.1671 O   0  0  0  0  0  0  0  0  0  0  0  0
   -1.2879    0.6582    0.8081 C   0  0  0  0  0  0  0  0  0  0  0  0
   -2.5212    1.2487    0.1122 C   0  0  0  0  0  0  0  0  0  0  0  0
   -0.1645    0.7502    0.0286 O   0  0  0  0  0  0  0  0  0  0  0  0
    3.0730    1.1215    0.8907 H   0  0  0  0  0  0  0  0  0  0  0  0
    2.2603    2.0014   -0.4851 H   0  0  0  0  0  0  0  0  0  0  0  0
    3.7181    1.0281   -0.7568 H   0  0  0  0  0  0  0  0  0  0  0  0
    1.7686   -0.1030   -1.6013 H   0  0  0  0  0  0  0  0  0  0  0  0
    2.6172   -1.0499   -0.3548 H   0  0  0  0  0  0  0  0  0  0  0  0
    0.9593   -0.2968    1.3607 H   0  0  0  0  0  0  0  0  0  0  0  0
    0.5146   -2.4113    0.3779 H   0  0  0  0  0  0  0  0  0  0  0  0
    0.1902   -1.6536   -1.2621 H   0  0  0  0  0  0  0  0  0  0  0  0
   -2.0174   -1.1628   -0.8131 H   0  0  0  0  0  0  0  0  0  0  0  0
   -1.8038   -2.5058    0.3576 H   0  0  0  0  0  0  0  0  0  0  0  0
   -1.2100    1.2370    1.7730 H   0  0  0  0  0  0  0  0  0  0  0  0
   -2.5526    2.3471    0.2224 H   0  0  0  0  0  0  0  0  0  0  0  0
   -3.4311    0.8531    0.5963 H   0  0  0  0  0  0  0  0  0  0  0  0
   -2.5485    0.9897   -0.9540 H   0  0  0  0  0  0  0  0  0  0  0  0
  1  2  1  0
  2  3  1  0
  3  4  1  0
  4  5  1  0
  5  6  1  0
  6  7  1  0
  7  8  1  0
  7  9  1  0
  9  3  1  0
  1 10  1  0
  1 11  1  0
  1 12  1  0
  2 13  1  0
  2 14  1  0
  3 15  1  0
  4 16  1  0
  4 17  1  0
  5 18  1  0
  5 19  1  0
  7 20  1  0
  8 21  1  0
  8 22  1  0
  8 23  1  0
M  END
