
     RDKit          3D

 19 19  0  0  0  0  0  0  0  0999 V2000
    2.2941    0.7544    0.1606 C   0  0  0  0  0  0  0  0  0  0  0  0
    1.1037    0.2491    0.9876 C   0  0  0  0  0  0  0  0  0  0  0  0
    0.4683   -0.8528    0.1787 C   0  0  0  0  0  0  0  0  0  0  0  0
   -0.0347   -0.3947   -1.2033 C   0  0  0  0  0  0  0  0  0  0  0  0
   -0.9716   -0.8907   -0.1107 C   0  0  0  0  0  0  0  0  0  0  0  0
   -1.9323    0.1331    0.3753 C   0  0  0  0  0  0  0  0  0  0  0  0
   -3.2042   -0.2099   -0.0811 O   0  0  0  0  0  0  0  0  0  0  0  0
    3.1525    1.0197    0.8316 H   0  0  0  0  0  0  0  0  0  0  0  0
    2.6667   -0.0631   -0.4939 H   0  0  0  0  0  0  0  0  0  0  0  0
    2.0222    1.6557   -0.4130 H   0  0  0  0  0  0  0  0  0  0  0  0
    1.5466   -0.1344    1.9276 H   0  0  0  0  0  0  0  0  0  0  0  0
    0.4142    1.0582    1.2420 H   0  0  0  0  0  0  0  0  0  0  0  0
    1.0297   -1.8065    0.1950 H   0  0  0  0  0  0  0  0  0  0  0  0
   -0.0036    0.6787   -1.4295 H   0  0  0  0  0  0  0  0  0  0  0  0
    0.1402   -1.0866   -2.0512 H   0  0  0  0  0  0  0  0  0  0  0  0
   -1.4132   -1.9186   -0.2343 H   0  0  0  0  0  0  0  0  0  0  0  0
   -1.6555    1.1776    0.1369 H   0  0  0  0  0  0  0  0  0  0  0  0
   -1.9949    0.0992    1.5020 H   0  0  0  0  0  0  0  0  0  0  0  0
   -3.6280    0.5315   -0.6075 H   0  0  0  0  0  0  0  0  0  0  0  0
  1  2  1  0
  2  3  1  0
  3  4  1  0
  4  5  1  0
  5  6  1  0
  6  7  1  0
  5  3  1  0
  1  8  1  0
  1  9  1  0
  1 10  1  0
  2 11  1  0
  2 12  1  0
  3 13  1  0
  4 14  1  0
  4 15  1  0
  5 16  1  0
  6 17  1  0
  6 18  1  0
  7 19  1  0
M  END
