
     RDKit          3D

 21 21  0  0  0  0  0  0  0  0999 V2000
    2.2340   -0.8307   -0.0123 C   0  0  0  0  0  0  0  0  0  0  0  0
    1.8436    0.5620   -0.2879 C   0  0  0  0  0  0  0  0  0  0  0  0
    0.4052    0.8976   -0.1158 C   0  0  0  0  0  0  0  0  0  0  0  0
   -0.4529    0.0466   -1.0497 C   0  0  0  0  0  0  0  0  0  0  0  0
   -1.3919   -0.2659    0.0955 C   0  0  0  0  0  0  0  0  0  0  0  0
   -1.5191   -1.6480    0.2370 O   0  0  0  0  0  0  0  0  0  0  0  0
   -2.6800    0.4358    0.0611 C   0  0  0  0  0  0  0  0  0  0  0  0
   -2.7195    1.6455   -0.0587 O   0  0  0  0  0  0  0  0  0  0  0  0
   -0.3432    0.3496    1.0257 C   0  0  0  0  0  0  0  0  0  0  0  0
    3.3168   -0.8903    0.2755 H   0  0  0  0  0  0  0  0  0  0  0  0
    2.1457   -1.4570   -0.9466 H   0  0  0  0  0  0  0  0  0  0  0  0
    1.6793   -1.3560    0.7670 H   0  0  0  0  0  0  0  0  0  0  0  0
    2.4370    1.2393    0.3956 H   0  0  0  0  0  0  0  0  0  0  0  0
    2.1796    0.8364   -1.3102 H   0  0  0  0  0  0  0  0  0  0  0  0
    0.1699    1.9658   -0.2903 H   0  0  0  0  0  0  0  0  0  0  0  0
   -0.9658    0.6004   -1.8333 H   0  0  0  0  0  0  0  0  0  0  0  0
    0.0792   -0.8297   -1.4558 H   0  0  0  0  0  0  0  0  0  0  0  0
   -2.0522   -1.8747    1.0611 H   0  0  0  0  0  0  0  0  0  0  0  0
   -3.5966   -0.1255    0.1426 H   0  0  0  0  0  0  0  0  0  0  0  0
    0.0923   -0.4251    1.6481 H   0  0  0  0  0  0  0  0  0  0  0  0
   -0.8614    1.1243    1.6515 H   0  0  0  0  0  0  0  0  0  0  0  0
  1  2  1  0
  2  3  1  0
  3  4  1  0
  4  5  1  0
  5  6  1  0
  5  7  1  0
  7  8  2  0
  5  9  1  0
  9  3  1  0
  1 10  1  0
  1 11  1  0
  1 12  1  0
  2 13  1  0
  2 14  1  0
  3 15  1  0
  4 16  1  0
  4 17  1  0
  6 18  1  0
  7 19  1  0
  9 20  1  0
  9 21  1  0
M  END
