
     RDKit          3D

 23 24  0  0  0  0  0  0  0  0999 V2000
   -2.7289    0.2153   -0.6345 C   0  0  0  0  0  0  0  0  0  0  0  0
   -1.2580    0.5078   -0.5769 C   0  0  0  0  0  0  0  0  0  0  0  0
   -0.5440   -0.2765    0.4858 C   0  0  0  0  0  0  0  0  0  0  0  0
    0.9146   -0.1363    0.7104 C   0  0  0  0  0  0  0  0  0  0  0  0
    1.6999   -0.5089   -0.5336 C   0  0  0  0  0  0  0  0  0  0  0  0
    2.7298    0.5034   -0.0251 C   0  0  0  0  0  0  0  0  0  0  0  0
    1.5018    1.2549    0.5112 C   0  0  0  0  0  0  0  0  0  0  0  0
   -1.1512   -1.5670    0.9638 C   0  0  0  0  0  0  0  0  0  0  0  0
   -1.3156   -0.3939    1.6811 O   0  0  0  0  0  0  0  0  0  0  0  0
   -3.2702    1.1315   -0.9505 H   0  0  0  0  0  0  0  0  0  0  0  0
   -2.8788   -0.6036   -1.3790 H   0  0  0  0  0  0  0  0  0  0  0  0
   -3.1511   -0.0631    0.3579 H   0  0  0  0  0  0  0  0  0  0  0  0
   -0.8404    0.3416   -1.5793 H   0  0  0  0  0  0  0  0  0  0  0  0
   -1.1394    1.5840   -0.3293 H   0  0  0  0  0  0  0  0  0  0  0  0
    1.3132   -0.6197    1.5986 H   0  0  0  0  0  0  0  0  0  0  0  0
    2.0593   -1.5377   -0.5849 H   0  0  0  0  0  0  0  0  0  0  0  0
    1.1507   -0.1401   -1.4236 H   0  0  0  0  0  0  0  0  0  0  0  0
    3.2795    1.0262   -0.8049 H   0  0  0  0  0  0  0  0  0  0  0  0
    3.3273    0.0122    0.7692 H   0  0  0  0  0  0  0  0  0  0  0  0
    1.0535    1.8120   -0.3214 H   0  0  0  0  0  0  0  0  0  0  0  0
    1.7382    1.8062    1.4155 H   0  0  0  0  0  0  0  0  0  0  0  0
   -2.0029   -2.0121    0.4158 H   0  0  0  0  0  0  0  0  0  0  0  0
   -0.4872   -2.3361    1.4161 H   0  0  0  0  0  0  0  0  0  0  0  0
  1  2  1  0
  2  3  1  0
  3  4  1  0
  4  5  1  0
  5  6  1  0
  6  7  1  0
  3  8  1  0
  8  9  1  0
  9  3  1  0
  7  4  1  0
  1 10  1  0
  1 11  1  0
  1 12  1  0
  2 13  1  0
  2 14  1  0
  4 15  1  0
  5 16  1  0
  5 17  1  0
  6 18  1  0
  6 19  1  0
  7 20  1  0
  7 21  1  0
  8 22  1  0
  8 23  1  0
M  END
