
     RDKit          3D

 25 25  0  0  0  0  0  0  0  0999 V2000
    2.7767    0.2621    0.2301 C   0  0  0  0  0  0  0  0  0  0  0  0
    1.5396   -0.4264    0.7754 C   0  0  0  0  0  0  0  0  0  0  0  0
    0.3716    0.0464   -0.0592 C   0  0  0  0  0  0  0  0  0  0  0  0
    0.1909    1.5184    0.0114 C   0  0  0  0  0  0  0  0  0  0  0  0
   -1.2136    1.9636   -0.2240 C   0  0  0  0  0  0  0  0  0  0  0  0
   -2.1797    1.1614   -0.6186 C   0  0  0  0  0  0  0  0  0  0  0  0
   -1.8870   -0.2633   -0.8492 C   0  0  0  0  0  0  0  0  0  0  0  0
   -0.9039   -0.6735    0.2573 C   0  0  0  0  0  0  0  0  0  0  0  0
   -0.7592   -2.1676    0.2175 C   0  0  0  0  0  0  0  0  0  0  0  0
    3.3286    0.7880    1.0393 H   0  0  0  0  0  0  0  0  0  0  0  0
    2.5533    0.9934   -0.5527 H   0  0  0  0  0  0  0  0  0  0  0  0
    3.5063   -0.4894   -0.1806 H   0  0  0  0  0  0  0  0  0  0  0  0
    1.3451   -0.0551    1.8187 H   0  0  0  0  0  0  0  0  0  0  0  0
    1.6703   -1.5036    0.7233 H   0  0  0  0  0  0  0  0  0  0  0  0
    0.6324   -0.2263   -1.1246 H   0  0  0  0  0  0  0  0  0  0  0  0
    0.8059    2.0195   -0.7887 H   0  0  0  0  0  0  0  0  0  0  0  0
    0.5665    1.8810    0.9838 H   0  0  0  0  0  0  0  0  0  0  0  0
   -1.3955    3.0339   -0.0419 H   0  0  0  0  0  0  0  0  0  0  0  0
   -3.1637    1.5486   -0.7677 H   0  0  0  0  0  0  0  0  0  0  0  0
   -2.7826   -0.9095   -0.8381 H   0  0  0  0  0  0  0  0  0  0  0  0
   -1.3643   -0.3382   -1.8354 H   0  0  0  0  0  0  0  0  0  0  0  0
   -1.3424   -0.3991    1.2265 H   0  0  0  0  0  0  0  0  0  0  0  0
   -1.5836   -2.6240   -0.4024 H   0  0  0  0  0  0  0  0  0  0  0  0
   -0.8913   -2.6223    1.2311 H   0  0  0  0  0  0  0  0  0  0  0  0
    0.1797   -2.5179   -0.2312 H   0  0  0  0  0  0  0  0  0  0  0  0
  1  2  1  0
  2  3  1  0
  3  4  1  0
  4  5  1  0
  5  6  2  0
  6  7  1  0
  7  8  1  0
  8  9  1  0
  8  3  1  0
  1 10  1  0
  1 11  1  0
  1 12  1  0
  2 13  1  0
  2 14  1  0
  3 15  1  0
  4 16  1  0
  4 17  1  0
  5 18  1  0
  6 19  1  0
  7 20  1  0
  7 21  1  0
  8 22  1  0
  9 23  1  0
  9 24  1  0
  9 25  1  0
M  END
