
     RDKit          3D

 23 23  0  0  0  0  0  0  0  0999 V2000
    0.7419    1.4243    1.4460 C   0  0  0  0  0  0  0  0  0  0  0  0
    0.1719    1.2348    0.1080 C   0  0  0  0  0  0  0  0  0  0  0  0
    0.1514   -0.1374   -0.4832 C   0  0  0  0  0  0  0  0  0  0  0  0
    1.3513   -0.7497   -0.6868 O   0  0  0  0  0  0  0  0  0  0  0  0
    2.1839   -0.9942    0.3471 C   0  0  0  0  0  0  0  0  0  0  0  0
   -0.5096    0.0006   -1.8016 C   0  0  0  0  0  0  0  0  0  0  0  0
   -1.7835   -0.2099   -1.7104 C   0  0  0  0  0  0  0  0  0  0  0  0
   -2.1259   -0.5189   -0.3027 C   0  0  0  0  0  0  0  0  0  0  0  0
   -0.8140   -1.0518    0.2644 C   0  0  0  0  0  0  0  0  0  0  0  0
    1.7156    1.9503    1.3824 H   0  0  0  0  0  0  0  0  0  0  0  0
    0.8220    0.5337    2.0995 H   0  0  0  0  0  0  0  0  0  0  0  0
    0.1084    2.1672    2.0492 H   0  0  0  0  0  0  0  0  0  0  0  0
   -0.8558    1.7101    0.0858 H   0  0  0  0  0  0  0  0  0  0  0  0
    0.7461    1.8747   -0.6301 H   0  0  0  0  0  0  0  0  0  0  0  0
    1.6675   -1.6086    1.1136 H   0  0  0  0  0  0  0  0  0  0  0  0
    2.6217   -0.1032    0.7736 H   0  0  0  0  0  0  0  0  0  0  0  0
    3.0470   -1.6001   -0.0892 H   0  0  0  0  0  0  0  0  0  0  0  0
    0.0128    0.2474   -2.7254 H   0  0  0  0  0  0  0  0  0  0  0  0
   -2.5292   -0.1787   -2.5001 H   0  0  0  0  0  0  0  0  0  0  0  0
   -2.9053   -1.3053   -0.3142 H   0  0  0  0  0  0  0  0  0  0  0  0
   -2.4064    0.3807    0.2679 H   0  0  0  0  0  0  0  0  0  0  0  0
   -0.7744   -0.9732    1.3424 H   0  0  0  0  0  0  0  0  0  0  0  0
   -0.6375   -2.0929   -0.0363 H   0  0  0  0  0  0  0  0  0  0  0  0
  1  2  1  0
  2  3  1  0
  3  4  1  0
  4  5  1  0
  3  6  1  0
  6  7  2  0
  7  8  1  0
  8  9  1  0
  9  3  1  0
  1 10  1  0
  1 11  1  0
  1 12  1  0
  2 13  1  0
  2 14  1  0
  5 15  1  0
  5 16  1  0
  5 17  1  0
  6 18  1  0
  7 19  1  0
  8 20  1  0
  8 21  1  0
  9 22  1  0
  9 23  1  0
M  END
