
     RDKit          3D

 25 25  0  0  0  0  0  0  0  0999 V2000
    2.3436   -0.8930    0.2151 C   0  0  0  0  0  0  0  0  0  0  0  0
    1.3546   -0.2580   -0.7278 C   0  0  0  0  0  0  0  0  0  0  0  0
    0.1012    0.2066   -0.0606 C   0  0  0  0  0  0  0  0  0  0  0  0
   -0.7261   -0.7967    0.6383 C   0  0  0  0  0  0  0  0  0  0  0  0
   -1.2445   -1.9143   -0.2198 C   0  0  0  0  0  0  0  0  0  0  0  0
   -1.8602   -0.1375    1.1549 O   0  0  0  0  0  0  0  0  0  0  0  0
    0.2998    1.4347    0.8287 C   0  0  0  0  0  0  0  0  0  0  0  0
   -0.7847    2.1596    0.0715 C   0  0  0  0  0  0  0  0  0  0  0  0
   -0.6907    1.0917   -0.9946 C   0  0  0  0  0  0  0  0  0  0  0  0
    3.2076   -1.2261   -0.4062 H   0  0  0  0  0  0  0  0  0  0  0  0
    1.9282   -1.8167    0.6773 H   0  0  0  0  0  0  0  0  0  0  0  0
    2.7550   -0.1917    0.9612 H   0  0  0  0  0  0  0  0  0  0  0  0
    1.8608    0.5952   -1.2240 H   0  0  0  0  0  0  0  0  0  0  0  0
    1.1163   -0.9885   -1.5053 H   0  0  0  0  0  0  0  0  0  0  0  0
   -0.2181   -1.2373    1.5256 H   0  0  0  0  0  0  0  0  0  0  0  0
   -1.9996   -1.5335   -0.9281 H   0  0  0  0  0  0  0  0  0  0  0  0
   -0.4518   -2.5120   -0.6991 H   0  0  0  0  0  0  0  0  0  0  0  0
   -1.7851   -2.6205    0.4650 H   0  0  0  0  0  0  0  0  0  0  0  0
   -2.5600   -0.0683    0.4346 H   0  0  0  0  0  0  0  0  0  0  0  0
    1.3091    1.8550    0.7476 H   0  0  0  0  0  0  0  0  0  0  0  0
   -0.0174    1.2852    1.8832 H   0  0  0  0  0  0  0  0  0  0  0  0
   -0.4341    3.1724   -0.2502 H   0  0  0  0  0  0  0  0  0  0  0  0
   -1.7514    2.2566    0.5761 H   0  0  0  0  0  0  0  0  0  0  0  0
   -1.6439    0.6406   -1.2999 H   0  0  0  0  0  0  0  0  0  0  0  0
   -0.1083    1.4965   -1.8635 H   0  0  0  0  0  0  0  0  0  0  0  0
  1  2  1  0
  2  3  1  0
  3  4  1  0
  4  5  1  0
  4  6  1  0
  3  7  1  0
  7  8  1  0
  8  9  1  0
  9  3  1  0
  1 10  1  0
  1 11  1  0
  1 12  1  0
  2 13  1  0
  2 14  1  0
  4 15  1  0
  5 16  1  0
  5 17  1  0
  5 18  1  0
  6 19  1  0
  7 20  1  0
  7 21  1  0
  8 22  1  0
  8 23  1  0
  9 24  1  0
  9 25  1  0
M  END
