
     RDKit          3D

 25 26  0  0  0  0  0  0  0  0999 V2000
    2.5703    1.1682    0.6266 C   0  0  0  0  0  0  0  0  0  0  0  0
    2.0281    0.1542   -0.3159 C   0  0  0  0  0  0  0  0  0  0  0  0
    0.5757    0.3175   -0.6351 C   0  0  0  0  0  0  0  0  0  0  0  0
    0.0505   -0.7402   -1.6056 C   0  0  0  0  0  0  0  0  0  0  0  0
   -0.4140   -0.6794   -0.1654 C   0  0  0  0  0  0  0  0  0  0  0  0
    0.1229   -1.7117    0.8058 C   0  0  0  0  0  0  0  0  0  0  0  0
   -1.8591   -0.3542    0.0131 C   0  0  0  0  0  0  0  0  0  0  0  0
   -2.2816    0.7089    0.9601 C   0  0  0  0  0  0  0  0  0  0  0  0
   -2.4518    0.8928   -0.5254 C   0  0  0  0  0  0  0  0  0  0  0  0
    2.1103    2.1672    0.5453 H   0  0  0  0  0  0  0  0  0  0  0  0
    3.6582    1.3196    0.3604 H   0  0  0  0  0  0  0  0  0  0  0  0
    2.5880    0.7679    1.6606 H   0  0  0  0  0  0  0  0  0  0  0  0
    2.2628   -0.8586    0.0986 H   0  0  0  0  0  0  0  0  0  0  0  0
    2.5880    0.2085   -1.2941 H   0  0  0  0  0  0  0  0  0  0  0  0
    0.2688    1.3749   -0.8105 H   0  0  0  0  0  0  0  0  0  0  0  0
   -0.5841   -0.3478   -2.4017 H   0  0  0  0  0  0  0  0  0  0  0  0
    0.6812   -1.6194   -1.8230 H   0  0  0  0  0  0  0  0  0  0  0  0
    0.8956   -2.3528    0.3766 H   0  0  0  0  0  0  0  0  0  0  0  0
   -0.7158   -2.3628    1.1672 H   0  0  0  0  0  0  0  0  0  0  0  0
    0.4692   -1.1727    1.7353 H   0  0  0  0  0  0  0  0  0  0  0  0
   -2.5331   -1.2530   -0.0572 H   0  0  0  0  0  0  0  0  0  0  0  0
   -3.1710    0.5001    1.5886 H   0  0  0  0  0  0  0  0  0  0  0  0
   -1.4995    1.2705    1.5058 H   0  0  0  0  0  0  0  0  0  0  0  0
   -3.5113    0.8953   -0.8602 H   0  0  0  0  0  0  0  0  0  0  0  0
   -1.8483    1.7069   -0.9499 H   0  0  0  0  0  0  0  0  0  0  0  0
  1  2  1  0
  2  3  1  0
  3  4  1  0
  4  5  1  0
  5  6  1  0
  5  7  1  0
  7  8  1  0
  8  9  1  0
  5  3  1  0
  9  7  1  0
  1 10  1  0
  1 11  1  0
  1 12  1  0
  2 13  1  0
  2 14  1  0
  3 15  1  0
  4 16  1  0
  4 17  1  0
  6 18  1  0
  6 19  1  0
  6 20  1  0
  7 21  1  0
  8 22  1  0
  8 23  1  0
  9 24  1  0
  9 25  1  0
M  END
