
     RDKit          3D

 27 27  0  0  0  0  0  0  0  0999 V2000
   -1.4897    2.1301   -0.1445 C   0  0  0  0  0  0  0  0  0  0  0  0
   -0.1136    1.6128    0.1695 C   0  0  0  0  0  0  0  0  0  0  0  0
    0.1109    0.2984   -0.5315 C   0  0  0  0  0  0  0  0  0  0  0  0
    1.4357   -0.3449   -0.3182 C   0  0  0  0  0  0  0  0  0  0  0  0
    2.5934    0.5074    0.0339 C   0  0  0  0  0  0  0  0  0  0  0  0
    0.8225   -1.0098    0.9244 C   0  0  0  0  0  0  0  0  0  0  0  0
   -0.4870   -0.9091    0.1572 C   0  0  0  0  0  0  0  0  0  0  0  0
   -1.6934   -0.6547    1.0015 C   0  0  0  0  0  0  0  0  0  0  0  0
   -0.6462   -2.0945   -0.7419 C   0  0  0  0  0  0  0  0  0  0  0  0
   -1.4621    3.1041   -0.7082 H   0  0  0  0  0  0  0  0  0  0  0  0
   -2.0701    2.3750    0.7881 H   0  0  0  0  0  0  0  0  0  0  0  0
   -2.0771    1.4448   -0.7951 H   0  0  0  0  0  0  0  0  0  0  0  0
    0.6122    2.3442   -0.2578 H   0  0  0  0  0  0  0  0  0  0  0  0
    0.0890    1.5286    1.2570 H   0  0  0  0  0  0  0  0  0  0  0  0
   -0.2558    0.3567   -1.5703 H   0  0  0  0  0  0  0  0  0  0  0  0
    1.6970   -1.0774   -1.1043 H   0  0  0  0  0  0  0  0  0  0  0  0
    3.3367   -0.1235    0.5887 H   0  0  0  0  0  0  0  0  0  0  0  0
    2.3674    1.3618    0.6781 H   0  0  0  0  0  0  0  0  0  0  0  0
    3.1153    0.7986   -0.9137 H   0  0  0  0  0  0  0  0  0  0  0  0
    1.2263   -2.0158    1.0478 H   0  0  0  0  0  0  0  0  0  0  0  0
    0.9006   -0.3205    1.7868 H   0  0  0  0  0  0  0  0  0  0  0  0
   -1.6075    0.1938    1.6770 H   0  0  0  0  0  0  0  0  0  0  0  0
   -2.5714   -0.6087    0.3442 H   0  0  0  0  0  0  0  0  0  0  0  0
   -1.8399   -1.5679    1.6424 H   0  0  0  0  0  0  0  0  0  0  0  0
   -0.1161   -2.9664   -0.2730 H   0  0  0  0  0  0  0  0  0  0  0  0
   -1.6835   -2.4126   -0.9021 H   0  0  0  0  0  0  0  0  0  0  0  0
   -0.1936   -1.9503   -1.7506 H   0  0  0  0  0  0  0  0  0  0  0  0
  1  2  1  0
  2  3  1  0
  3  4  1  0
  4  5  1  0
  4  6  1  0
  6  7  1  0
  7  8  1  0
  7  9  1  0
  7  3  1  0
  1 10  1  0
  1 11  1  0
  1 12  1  0
  2 13  1  0
  2 14  1  0
  3 15  1  0
  4 16  1  0
  5 17  1  0
  5 18  1  0
  5 19  1  0
  6 20  1  0
  6 21  1  0
  8 22  1  0
  8 23  1  0
  8 24  1  0
  9 25  1  0
  9 26  1  0
  9 27  1  0
M  END
