
     RDKit          3D

 19 21  0  0  0  0  0  0  0  0999 V2000
    2.5232    0.5573    0.3595 C   0  0  0  0  0  0  0  0  0  0  0  0
    1.5826   -0.6133    0.5517 C   0  0  0  0  0  0  0  0  0  0  0  0
    0.1528   -0.2384    0.5515 C   0  0  0  0  0  0  0  0  0  0  0  0
   -0.3843    0.6483    1.4753 O   0  0  0  0  0  0  0  0  0  0  0  0
   -1.3388    1.0693    0.5827 C   0  0  0  0  0  0  0  0  0  0  0  0
   -2.5283    0.1466    0.6075 C   0  0  0  0  0  0  0  0  0  0  0  0
   -2.2185   -1.0170    0.0582 C   0  0  0  0  0  0  0  0  0  0  0  0
   -0.7911   -0.9694   -0.3804 C   0  0  0  0  0  0  0  0  0  0  0  0
   -0.5435    0.4575   -0.5221 C   0  0  0  0  0  0  0  0  0  0  0  0
    2.1740    1.1578   -0.5287 H   0  0  0  0  0  0  0  0  0  0  0  0
    2.5811    1.2113    1.2327 H   0  0  0  0  0  0  0  0  0  0  0  0
    3.5217    0.1185    0.1491 H   0  0  0  0  0  0  0  0  0  0  0  0
    1.7746   -1.3153   -0.2839 H   0  0  0  0  0  0  0  0  0  0  0  0
    1.8419   -1.0668    1.5351 H   0  0  0  0  0  0  0  0  0  0  0  0
   -1.5715    2.1261    0.5326 H   0  0  0  0  0  0  0  0  0  0  0  0
   -3.5058    0.3882    1.0145 H   0  0  0  0  0  0  0  0  0  0  0  0
   -2.8496   -1.8802   -0.0736 H   0  0  0  0  0  0  0  0  0  0  0  0
   -0.3689   -1.7658   -0.9735 H   0  0  0  0  0  0  0  0  0  0  0  0
   -0.0515    0.9855   -1.3022 H   0  0  0  0  0  0  0  0  0  0  0  0
  1  2  1  0
  2  3  1  0
  3  4  1  0
  4  5  1  0
  5  6  1  0
  6  7  2  0
  7  8  1  0
  8  9  1  0
  8  3  1  0
  9  3  1  0
  9  5  1  0
  1 10  1  0
  1 11  1  0
  1 12  1  0
  2 13  1  0
  2 14  1  0
  5 15  1  0
  6 16  1  0
  7 17  1  0
  8 18  1  0
  9 19  1  0
M  END
