
     RDKit          3D

 15 15  0  0  0  0  0  0  0  0999 V2000
    1.8547   -0.2337   -0.3100 C   0  0  0  0  0  0  0  0  0  0  0  0
    0.6915    0.7146   -0.4958 C   0  0  0  0  0  0  0  0  0  0  0  0
   -0.4245    0.3922    0.4649 C   0  0  0  0  0  0  0  0  0  0  0  0
   -1.0776   -0.9421    0.4364 C   0  0  0  0  0  0  0  0  0  0  0  0
   -1.7741    0.2240   -0.1839 C   0  0  0  0  0  0  0  0  0  0  0  0
    2.0845   -0.6584   -1.3006 H   0  0  0  0  0  0  0  0  0  0  0  0
    2.7009    0.3180    0.1391 H   0  0  0  0  0  0  0  0  0  0  0  0
    1.5521   -1.0020    0.4164 H   0  0  0  0  0  0  0  0  0  0  0  0
    0.3218    0.7321   -1.5349 H   0  0  0  0  0  0  0  0  0  0  0  0
    1.0367    1.7700   -0.2941 H   0  0  0  0  0  0  0  0  0  0  0  0
   -0.4051    0.8693    1.4726 H   0  0  0  0  0  0  0  0  0  0  0  0
   -1.4662   -1.3833    1.3821 H   0  0  0  0  0  0  0  0  0  0  0  0
   -0.6068   -1.7013   -0.2155 H   0  0  0  0  0  0  0  0  0  0  0  0
   -2.6397    0.6997    0.2983 H   0  0  0  0  0  0  0  0  0  0  0  0
   -1.8480    0.2010   -1.2879 H   0  0  0  0  0  0  0  0  0  0  0  0
  1  2  1  0
  2  3  1  0
  3  4  1  0
  4  5  1  0
  5  3  1  0
  1  6  1  0
  1  7  1  0
  1  8  1  0
  2  9  1  0
  2 10  1  0
  3 11  1  0
  4 12  1  0
  4 13  1  0
  5 14  1  0
  5 15  1  0
M  END
