
     RDKit          3D

 23 24  0  0  0  0  0  0  0  0999 V2000
    2.1292   -1.0109    0.3462 C   0  0  0  0  0  0  0  0  0  0  0  0
    1.5458   -0.1029   -0.6894 C   0  0  0  0  0  0  0  0  0  0  0  0
    0.2694    0.5397   -0.3254 C   0  0  0  0  0  0  0  0  0  0  0  0
    0.0947    1.4353    0.8409 C   0  0  0  0  0  0  0  0  0  0  0  0
   -1.2231    0.7405    1.1384 C   0  0  0  0  0  0  0  0  0  0  0  0
   -0.9864   -0.1324   -0.0654 C   0  0  0  0  0  0  0  0  0  0  0  0
   -1.1796   -1.6037   -0.0040 C   0  0  0  0  0  0  0  0  0  0  0  0
   -0.8018    0.5798   -1.3611 C   0  0  0  0  0  0  0  0  0  0  0  0
   -1.5567    1.7007   -1.5891 O   0  0  0  0  0  0  0  0  0  0  0  0
    3.2296   -1.1051    0.1081 H   0  0  0  0  0  0  0  0  0  0  0  0
    1.7171   -2.0309    0.3321 H   0  0  0  0  0  0  0  0  0  0  0  0
    2.0941   -0.5261    1.3435 H   0  0  0  0  0  0  0  0  0  0  0  0
    2.3057    0.7131   -0.8710 H   0  0  0  0  0  0  0  0  0  0  0  0
    1.4458   -0.6201   -1.6614 H   0  0  0  0  0  0  0  0  0  0  0  0
   -0.0752    2.4901    0.5189 H   0  0  0  0  0  0  0  0  0  0  0  0
    0.7660    1.3368    1.6894 H   0  0  0  0  0  0  0  0  0  0  0  0
   -1.2081    0.1249    2.0826 H   0  0  0  0  0  0  0  0  0  0  0  0
   -2.1073    1.3793    1.1245 H   0  0  0  0  0  0  0  0  0  0  0  0
   -2.2026   -1.8385   -0.3978 H   0  0  0  0  0  0  0  0  0  0  0  0
   -0.4804   -2.1926   -0.6178 H   0  0  0  0  0  0  0  0  0  0  0  0
   -1.1921   -1.9137    1.0693 H   0  0  0  0  0  0  0  0  0  0  0  0
   -0.6544   -0.0781   -2.2416 H   0  0  0  0  0  0  0  0  0  0  0  0
   -1.9297    2.1148   -0.7701 H   0  0  0  0  0  0  0  0  0  0  0  0
  1  2  1  0
  2  3  1  0
  3  4  1  0
  4  5  1  0
  5  6  1  0
  6  7  1  0
  6  8  1  0
  8  9  1  0
  6  3  1  0
  8  3  1  0
  1 10  1  0
  1 11  1  0
  1 12  1  0
  2 13  1  0
  2 14  1  0
  4 15  1  0
  4 16  1  0
  5 17  1  0
  5 18  1  0
  7 19  1  0
  7 20  1  0
  7 21  1  0
  8 22  1  0
  9 23  1  0
M  END
