
     RDKit          3D

 21 22  0  0  0  0  0  0  0  0999 V2000
    2.5489   -1.2273    0.1103 C   0  0  0  0  0  0  0  0  0  0  0  0
    2.1099    0.0718   -0.5174 C   0  0  0  0  0  0  0  0  0  0  0  0
    0.6659    0.3355   -0.3155 C   0  0  0  0  0  0  0  0  0  0  0  0
   -0.1674   -0.4566    0.3352 C   0  0  0  0  0  0  0  0  0  0  0  0
   -1.5387    0.1429    0.3295 C   0  0  0  0  0  0  0  0  0  0  0  0
   -2.6916   -0.7606    0.6586 C   0  0  0  0  0  0  0  0  0  0  0  0
   -1.6151    1.4176    1.0380 O   0  0  0  0  0  0  0  0  0  0  0  0
   -1.5031    1.2962   -0.4047 C   0  0  0  0  0  0  0  0  0  0  0  0
   -0.0476    1.5327   -0.8192 C   0  0  0  0  0  0  0  0  0  0  0  0
    2.6617   -1.0622    1.2094 H   0  0  0  0  0  0  0  0  0  0  0  0
    1.8102   -2.0419   -0.0207 H   0  0  0  0  0  0  0  0  0  0  0  0
    3.5528   -1.5022   -0.2707 H   0  0  0  0  0  0  0  0  0  0  0  0
    2.3497   -0.0101   -1.6136 H   0  0  0  0  0  0  0  0  0  0  0  0
    2.7551    0.8728   -0.1199 H   0  0  0  0  0  0  0  0  0  0  0  0
    0.0618   -1.4200    0.8244 H   0  0  0  0  0  0  0  0  0  0  0  0
   -3.3652   -0.9395   -0.2282 H   0  0  0  0  0  0  0  0  0  0  0  0
   -3.3091   -0.3861    1.5140 H   0  0  0  0  0  0  0  0  0  0  0  0
   -2.2846   -1.7601    0.9362 H   0  0  0  0  0  0  0  0  0  0  0  0
   -2.2544    1.9130   -0.9026 H   0  0  0  0  0  0  0  0  0  0  0  0
    0.3021    2.4768   -0.3879 H   0  0  0  0  0  0  0  0  0  0  0  0
   -0.0413    1.5072   -1.9235 H   0  0  0  0  0  0  0  0  0  0  0  0
  1  2  1  0
  2  3  1  0
  3  4  2  0
  4  5  1  0
  5  6  1  0
  5  7  1  0
  7  8  1  0
  8  9  1  0
  9  3  1  0
  8  5  1  0
  1 10  1  0
  1 11  1  0
  1 12  1  0
  2 13  1  0
  2 14  1  0
  4 15  1  0
  6 16  1  0
  6 17  1  0
  6 18  1  0
  8 19  1  0
  9 20  1  0
  9 21  1  0
M  END
