
     RDKit          3D

 23 23  0  0  0  0  0  0  0  0999 V2000
   -1.6992   -1.4806    0.6581 C   0  0  0  0  0  0  0  0  0  0  0  0
   -0.2384   -1.3560    0.3830 C   0  0  0  0  0  0  0  0  0  0  0  0
    0.0778   -0.1783   -0.4787 C   0  0  0  0  0  0  0  0  0  0  0  0
   -0.5534   -0.2467   -1.7165 O   0  0  0  0  0  0  0  0  0  0  0  0
   -0.0141    1.1721    0.1309 C   0  0  0  0  0  0  0  0  0  0  0  0
   -1.1410    2.0486   -0.3598 C   0  0  0  0  0  0  0  0  0  0  0  0
    1.1737    1.5440   -0.5348 O   0  0  0  0  0  0  0  0  0  0  0  0
    1.5039    0.1950   -0.6222 C   0  0  0  0  0  0  0  0  0  0  0  0
    2.4397   -0.1907    0.4717 C   0  0  0  0  0  0  0  0  0  0  0  0
   -2.1438   -0.6272    1.1807 H   0  0  0  0  0  0  0  0  0  0  0  0
   -1.8342   -2.4064    1.2915 H   0  0  0  0  0  0  0  0  0  0  0  0
   -2.3057   -1.6796   -0.2543 H   0  0  0  0  0  0  0  0  0  0  0  0
    0.0939   -2.2780   -0.1318 H   0  0  0  0  0  0  0  0  0  0  0  0
    0.2912   -1.3022    1.3499 H   0  0  0  0  0  0  0  0  0  0  0  0
   -1.5212   -0.4172   -1.6526 H   0  0  0  0  0  0  0  0  0  0  0  0
    0.0924    1.2486    1.2301 H   0  0  0  0  0  0  0  0  0  0  0  0
   -1.9089    1.4385   -0.8966 H   0  0  0  0  0  0  0  0  0  0  0  0
   -1.6517    2.5453    0.4709 H   0  0  0  0  0  0  0  0  0  0  0  0
   -0.8083    2.8166   -1.0864 H   0  0  0  0  0  0  0  0  0  0  0  0
    1.9262   -0.0770   -1.6278 H   0  0  0  0  0  0  0  0  0  0  0  0
    3.4624    0.1748    0.1762 H   0  0  0  0  0  0  0  0  0  0  0  0
    2.2013    0.3428    1.4106 H   0  0  0  0  0  0  0  0  0  0  0  0
    2.5575   -1.2866    0.6076 H   0  0  0  0  0  0  0  0  0  0  0  0
  1  2  1  0
  2  3  1  0
  3  4  1  0
  3  5  1  0
  5  6  1  0
  5  7  1  0
  7  8  1  0
  8  9  1  0
  8  3  1  0
  1 10  1  0
  1 11  1  0
  1 12  1  0
  2 13  1  0
  2 14  1  0
  4 15  1  0
  5 16  1  0
  6 17  1  0
  6 18  1  0
  6 19  1  0
  8 20  1  0
  9 21  1  0
  9 22  1  0
  9 23  1  0
M  END
