
     RDKit          3D

 23 23  0  0  0  0  0  0  0  0999 V2000
    2.8698   -0.4020    0.5165 C   0  0  0  0  0  0  0  0  0  0  0  0
    1.8869    0.4575   -0.2093 C   0  0  0  0  0  0  0  0  0  0  0  0
    0.4791    0.3110    0.2683 C   0  0  0  0  0  0  0  0  0  0  0  0
   -0.3688    1.2378   -0.5621 C   0  0  0  0  0  0  0  0  0  0  0  0
   -1.6810    1.3897   -0.5134 C   0  0  0  0  0  0  0  0  0  0  0  0
   -2.6249    0.6610    0.3932 C   0  0  0  0  0  0  0  0  0  0  0  0
   -1.9597   -0.3036    1.1449 O   0  0  0  0  0  0  0  0  0  0  0  0
   -1.4248   -1.3198    0.3977 C   0  0  0  0  0  0  0  0  0  0  0  0
    0.0329   -1.1168    0.0481 C   0  0  0  0  0  0  0  0  0  0  0  0
    3.7355    0.1912    0.8680 H   0  0  0  0  0  0  0  0  0  0  0  0
    2.4308   -0.9683    1.3659 H   0  0  0  0  0  0  0  0  0  0  0  0
    3.2383   -1.1805   -0.2051 H   0  0  0  0  0  0  0  0  0  0  0  0
    1.8783    0.2501   -1.3163 H   0  0  0  0  0  0  0  0  0  0  0  0
    2.1778    1.5332   -0.0606 H   0  0  0  0  0  0  0  0  0  0  0  0
    0.3321    0.5447    1.3261 H   0  0  0  0  0  0  0  0  0  0  0  0
    0.1105    1.8618   -1.2866 H   0  0  0  0  0  0  0  0  0  0  0  0
   -2.1588    2.0915   -1.1680 H   0  0  0  0  0  0  0  0  0  0  0  0
   -3.4345    0.2685   -0.2210 H   0  0  0  0  0  0  0  0  0  0  0  0
   -2.9807    1.4322    1.1273 H   0  0  0  0  0  0  0  0  0  0  0  0
   -2.0216   -1.5723   -0.5069 H   0  0  0  0  0  0  0  0  0  0  0  0
   -1.4612   -2.2504    1.0323 H   0  0  0  0  0  0  0  0  0  0  0  0
    0.2341   -1.3416   -1.0350 H   0  0  0  0  0  0  0  0  0  0  0  0
    0.7098   -1.7747    0.6240 H   0  0  0  0  0  0  0  0  0  0  0  0
  1  2  1  0
  2  3  1  0
  3  4  1  0
  4  5  2  0
  5  6  1  0
  6  7  1  0
  7  8  1  0
  8  9  1  0
  9  3  1  0
  1 10  1  0
  1 11  1  0
  1 12  1  0
  2 13  1  0
  2 14  1  0
  3 15  1  0
  4 16  1  0
  5 17  1  0
  6 18  1  0
  6 19  1  0
  8 20  1  0
  8 21  1  0
  9 22  1  0
  9 23  1  0
M  END
