
     RDKit          3D

 27 27  0  0  0  0  0  0  0  0999 V2000
    2.5750    0.0308   -0.8157 C   0  0  0  0  0  0  0  0  0  0  0  0
    1.5090   -0.8686   -0.2530 C   0  0  0  0  0  0  0  0  0  0  0  0
    0.3841   -0.0645    0.4156 C   0  0  0  0  0  0  0  0  0  0  0  0
    1.0384    0.7428    1.5459 C   0  0  0  0  0  0  0  0  0  0  0  0
   -0.6196   -1.0034    0.9335 C   0  0  0  0  0  0  0  0  0  0  0  0
   -1.9031   -1.1446    0.2201 C   0  0  0  0  0  0  0  0  0  0  0  0
   -2.2596   -0.0810   -0.7475 C   0  0  0  0  0  0  0  0  0  0  0  0
   -1.5431    1.2223   -0.5431 C   0  0  0  0  0  0  0  0  0  0  0  0
   -0.0684    0.9200   -0.6032 C   0  0  0  0  0  0  0  0  0  0  0  0
    3.3821    0.2586   -0.0800 H   0  0  0  0  0  0  0  0  0  0  0  0
    2.1771    0.9549   -1.2589 H   0  0  0  0  0  0  0  0  0  0  0  0
    3.0744   -0.5404   -1.6328 H   0  0  0  0  0  0  0  0  0  0  0  0
    1.9684   -1.4821    0.5416 H   0  0  0  0  0  0  0  0  0  0  0  0
    1.0956   -1.5016   -1.0588 H   0  0  0  0  0  0  0  0  0  0  0  0
    1.4639    0.0921    2.3134 H   0  0  0  0  0  0  0  0  0  0  0  0
    0.1770    1.2823    2.0388 H   0  0  0  0  0  0  0  0  0  0  0  0
    1.7041    1.5089    1.1530 H   0  0  0  0  0  0  0  0  0  0  0  0
   -0.1756   -2.0392    1.0324 H   0  0  0  0  0  0  0  0  0  0  0  0
   -0.8387   -0.7271    2.0091 H   0  0  0  0  0  0  0  0  0  0  0  0
   -2.7651   -1.2266    0.9495 H   0  0  0  0  0  0  0  0  0  0  0  0
   -1.9619   -2.1268   -0.3403 H   0  0  0  0  0  0  0  0  0  0  0  0
   -3.3618    0.1233   -0.7550 H   0  0  0  0  0  0  0  0  0  0  0  0
   -2.0325   -0.4093   -1.7993 H   0  0  0  0  0  0  0  0  0  0  0  0
   -1.7722    1.8601   -1.4379 H   0  0  0  0  0  0  0  0  0  0  0  0
   -1.8478    1.7686    0.3588 H   0  0  0  0  0  0  0  0  0  0  0  0
    0.4704    1.8883   -0.5304 H   0  0  0  0  0  0  0  0  0  0  0  0
    0.1301    0.5621   -1.6557 H   0  0  0  0  0  0  0  0  0  0  0  0
  1  2  1  0
  2  3  1  0
  3  4  1  0
  3  5  1  0
  5  6  1  0
  6  7  1  0
  7  8  1  0
  8  9  1  0
  9  3  1  0
  1 10  1  0
  1 11  1  0
  1 12  1  0
  2 13  1  0
  2 14  1  0
  4 15  1  0
  4 16  1  0
  4 17  1  0
  5 18  1  0
  5 19  1  0
  6 20  1  0
  6 21  1  0
  7 22  1  0
  7 23  1  0
  8 24  1  0
  8 25  1  0
  9 26  1  0
  9 27  1  0
M  END
