
     RDKit          3D

 21 23  0  0  0  0  0  0  0  0999 V2000
    3.0953   -0.7237    0.1402 C   0  0  0  0  0  0  0  0  0  0  0  0
    2.0279    0.2269    0.6121 C   0  0  0  0  0  0  0  0  0  0  0  0
    0.6369   -0.3194    0.4350 C   0  0  0  0  0  0  0  0  0  0  0  0
   -0.4351    0.6430    0.9122 C   0  0  0  0  0  0  0  0  0  0  0  0
   -1.8658    0.2022    0.9316 C   0  0  0  0  0  0  0  0  0  0  0  0
   -2.7493    0.8488   -0.0840 C   0  0  0  0  0  0  0  0  0  0  0  0
   -1.7098   -0.1578   -0.5560 C   0  0  0  0  0  0  0  0  0  0  0  0
   -2.0905   -1.4445   -0.8506 O   0  0  0  0  0  0  0  0  0  0  0  0
   -0.2837    0.2629   -0.5548 C   0  0  0  0  0  0  0  0  0  0  0  0
    3.5594   -0.3885   -0.8229 H   0  0  0  0  0  0  0  0  0  0  0  0
    2.6862   -1.7391    0.0890 H   0  0  0  0  0  0  0  0  0  0  0  0
    3.9215   -0.6888    0.8884 H   0  0  0  0  0  0  0  0  0  0  0  0
    2.1575    1.2252    0.1327 H   0  0  0  0  0  0  0  0  0  0  0  0
    2.1482    0.4297    1.7167 H   0  0  0  0  0  0  0  0  0  0  0  0
    0.5355   -1.3757    0.7625 H   0  0  0  0  0  0  0  0  0  0  0  0
   -0.1654    1.6820    1.1611 H   0  0  0  0  0  0  0  0  0  0  0  0
   -2.2283   -0.5610    1.6162 H   0  0  0  0  0  0  0  0  0  0  0  0
   -2.5286    1.9137   -0.2664 H   0  0  0  0  0  0  0  0  0  0  0  0
   -3.7960    0.5356   -0.0697 H   0  0  0  0  0  0  0  0  0  0  0  0
   -2.9695   -1.6055   -0.3835 H   0  0  0  0  0  0  0  0  0  0  0  0
    0.0536    1.0339   -1.2601 H   0  0  0  0  0  0  0  0  0  0  0  0
  1  2  1  0
  2  3  1  0
  3  4  1  0
  4  5  1  0
  5  6  1  0
  6  7  1  0
  7  8  1  0
  7  9  1  0
  9  3  1  0
  9  4  1  0
  7  5  1  0
  1 10  1  0
  1 11  1  0
  1 12  1  0
  2 13  1  0
  2 14  1  0
  3 15  1  0
  4 16  1  0
  5 17  1  0
  6 18  1  0
  6 19  1  0
  8 20  1  0
  9 21  1  0
M  END
