
     RDKit          3D

 23 24  0  0  0  0  0  0  0  0999 V2000
    2.2320    0.1525    1.1764 C   0  0  0  0  0  0  0  0  0  0  0  0
    0.8180   -0.4009    1.3276 C   0  0  0  0  0  0  0  0  0  0  0  0
    0.0291    0.0582    0.1477 C   0  0  0  0  0  0  0  0  0  0  0  0
   -0.1149    1.5239   -0.0639 C   0  0  0  0  0  0  0  0  0  0  0  0
    0.5812    2.0074   -1.1499 O   0  0  0  0  0  0  0  0  0  0  0  0
   -1.6188    1.4229   -0.2750 C   0  0  0  0  0  0  0  0  0  0  0  0
   -1.5192   -0.0060    0.2411 C   0  0  0  0  0  0  0  0  0  0  0  0
   -0.7534   -0.9263   -0.6264 C   0  0  0  0  0  0  0  0  0  0  0  0
   -0.7366   -2.3609   -0.2331 C   0  0  0  0  0  0  0  0  0  0  0  0
    2.9914   -0.6768    1.2057 H   0  0  0  0  0  0  0  0  0  0  0  0
    2.4879    0.8360    2.0007 H   0  0  0  0  0  0  0  0  0  0  0  0
    2.3590    0.7073    0.2252 H   0  0  0  0  0  0  0  0  0  0  0  0
    0.3612   -0.0649    2.3024 H   0  0  0  0  0  0  0  0  0  0  0  0
    0.8983   -1.4936    1.4024 H   0  0  0  0  0  0  0  0  0  0  0  0
    0.0652    2.1420    0.8616 H   0  0  0  0  0  0  0  0  0  0  0  0
    1.0846    2.8208   -0.8953 H   0  0  0  0  0  0  0  0  0  0  0  0
   -2.2255    2.0925    0.3621 H   0  0  0  0  0  0  0  0  0  0  0  0
   -1.9025    1.4352   -1.3685 H   0  0  0  0  0  0  0  0  0  0  0  0
   -1.8799   -0.2578    1.2340 H   0  0  0  0  0  0  0  0  0  0  0  0
   -0.8397   -0.7346   -1.7160 H   0  0  0  0  0  0  0  0  0  0  0  0
    0.2258   -2.8787   -0.4931 H   0  0  0  0  0  0  0  0  0  0  0  0
   -0.9696   -2.5298    0.8441 H   0  0  0  0  0  0  0  0  0  0  0  0
   -1.5736   -2.8686   -0.7866 H   0  0  0  0  0  0  0  0  0  0  0  0
  1  2  1  0
  2  3  1  0
  3  4  1  0
  4  5  1  0
  4  6  1  0
  6  7  1  0
  7  8  1  0
  8  9  1  0
  7  3  1  0
  8  3  1  0
  1 10  1  0
  1 11  1  0
  1 12  1  0
  2 13  1  0
  2 14  1  0
  4 15  1  0
  5 16  1  0
  6 17  1  0
  6 18  1  0
  7 19  1  0
  8 20  1  0
  9 21  1  0
  9 22  1  0
  9 23  1  0
M  END
