
     RDKit          3D

 25 25  0  0  0  0  0  0  0  0999 V2000
    3.2448   -0.2893    0.2722 C   0  0  0  0  0  0  0  0  0  0  0  0
    2.2818   -0.1028   -0.9007 C   0  0  0  0  0  0  0  0  0  0  0  0
    1.0230    0.4883   -0.3534 C   0  0  0  0  0  0  0  0  0  0  0  0
    0.4079   -0.4298    0.6793 C   0  0  0  0  0  0  0  0  0  0  0  0
   -0.9201   -0.3781   -0.0715 C   0  0  0  0  0  0  0  0  0  0  0  0
   -1.3071   -1.6467   -0.4269 O   0  0  0  0  0  0  0  0  0  0  0  0
   -1.9131    0.4155    0.7216 C   0  0  0  0  0  0  0  0  0  0  0  0
   -3.2542    0.5199    0.0567 C   0  0  0  0  0  0  0  0  0  0  0  0
   -0.2090    0.3684   -1.1747 C   0  0  0  0  0  0  0  0  0  0  0  0
    4.1285    0.3519    0.0703 H   0  0  0  0  0  0  0  0  0  0  0  0
    3.4995   -1.3527    0.4188 H   0  0  0  0  0  0  0  0  0  0  0  0
    2.8101    0.0680    1.2232 H   0  0  0  0  0  0  0  0  0  0  0  0
    2.7336    0.4562   -1.7269 H   0  0  0  0  0  0  0  0  0  0  0  0
    2.0615   -1.1315   -1.3037 H   0  0  0  0  0  0  0  0  0  0  0  0
    1.2073    1.5270   -0.0003 H   0  0  0  0  0  0  0  0  0  0  0  0
    0.8717   -1.4385    0.7119 H   0  0  0  0  0  0  0  0  0  0  0  0
    0.4055    0.0721    1.6601 H   0  0  0  0  0  0  0  0  0  0  0  0
   -1.8787   -1.6880   -1.2287 H   0  0  0  0  0  0  0  0  0  0  0  0
   -1.5013    1.3896    0.9879 H   0  0  0  0  0  0  0  0  0  0  0  0
   -2.0647   -0.1384    1.6908 H   0  0  0  0  0  0  0  0  0  0  0  0
   -3.8778   -0.3834    0.2143 H   0  0  0  0  0  0  0  0  0  0  0  0
   -3.8101    1.3571    0.5704 H   0  0  0  0  0  0  0  0  0  0  0  0
   -3.1731    0.8151   -1.0085 H   0  0  0  0  0  0  0  0  0  0  0  0
   -0.6664    1.3713   -1.4068 H   0  0  0  0  0  0  0  0  0  0  0  0
   -0.0995   -0.2212   -2.1051 H   0  0  0  0  0  0  0  0  0  0  0  0
  1  2  1  0
  2  3  1  0
  3  4  1  0
  4  5  1  0
  5  6  1  0
  5  7  1  0
  7  8  1  0
  5  9  1  0
  9  3  1  0
  1 10  1  0
  1 11  1  0
  1 12  1  0
  2 13  1  0
  2 14  1  0
  3 15  1  0
  4 16  1  0
  4 17  1  0
  6 18  1  0
  7 19  1  0
  7 20  1  0
  8 21  1  0
  8 22  1  0
  8 23  1  0
  9 24  1  0
  9 25  1  0
M  END
