
     RDKit          3D

 19 19  0  0  0  0  0  0  0  0999 V2000
    2.1095   -0.2589    1.0089 C   0  0  0  0  0  0  0  0  0  0  0  0
    1.8696    0.2606   -0.3653 C   0  0  0  0  0  0  0  0  0  0  0  0
    0.4408    0.3972   -0.7523 C   0  0  0  0  0  0  0  0  0  0  0  0
   -0.3428    1.3608    0.1667 C   0  0  0  0  0  0  0  0  0  0  0  0
   -0.6833   -0.1164    0.0418 C   0  0  0  0  0  0  0  0  0  0  0  0
   -1.9743   -0.3457   -0.6843 C   0  0  0  0  0  0  0  0  0  0  0  0
   -2.2619    0.3004   -1.7245 O   0  0  0  0  0  0  0  0  0  0  0  0
   -2.9493   -1.3212   -0.2217 C   0  0  0  0  0  0  0  0  0  0  0  0
   -2.7056   -1.9971    0.8216 O   0  0  0  0  0  0  0  0  0  0  0  0
    1.2592   -0.2234    1.6836 H   0  0  0  0  0  0  0  0  0  0  0  0
    2.5010   -1.3165    0.9403 H   0  0  0  0  0  0  0  0  0  0  0  0
    2.9465    0.2950    1.5290 H   0  0  0  0  0  0  0  0  0  0  0  0
    2.4419   -0.3423   -1.1135 H   0  0  0  0  0  0  0  0  0  0  0  0
    2.3456    1.2849   -0.4170 H   0  0  0  0  0  0  0  0  0  0  0  0
    0.2730    0.5111   -1.8509 H   0  0  0  0  0  0  0  0  0  0  0  0
    0.1081    1.6410    1.1242 H   0  0  0  0  0  0  0  0  0  0  0  0
   -0.9481    2.1037   -0.3826 H   0  0  0  0  0  0  0  0  0  0  0  0
   -0.5627   -0.7455    0.9294 H   0  0  0  0  0  0  0  0  0  0  0  0
   -3.8671   -1.4877   -0.7334 H   0  0  0  0  0  0  0  0  0  0  0  0
  1  2  1  0
  2  3  1  0
  3  4  1  0
  4  5  1  0
  5  6  1  0
  6  7  2  0
  6  8  1  0
  8  9  2  0
  5  3  1  0
  1 10  1  0
  1 11  1  0
  1 12  1  0
  2 13  1  0
  2 14  1  0
  3 15  1  0
  4 16  1  0
  4 17  1  0
  5 18  1  0
  8 19  1  0
M  END
