
     RDKit          3D

 21 22  0  0  0  0  0  0  0  0999 V2000
   -2.8528    0.7374   -0.2368 C   0  0  0  0  0  0  0  0  0  0  0  0
   -1.6592   -0.1437    0.1622 C   0  0  0  0  0  0  0  0  0  0  0  0
   -0.8390   -0.3823   -1.0492 C   0  0  0  0  0  0  0  0  0  0  0  0
    0.3669   -1.2178   -0.8954 C   0  0  0  0  0  0  0  0  0  0  0  0
    0.8083   -0.6136   -2.0818 O   0  0  0  0  0  0  0  0  0  0  0  0
    0.3243    0.4763   -1.3489 C   0  0  0  0  0  0  0  0  0  0  0  0
    1.0456   -0.1134   -0.2021 C   0  0  0  0  0  0  0  0  0  0  0  0
    2.4297   -0.2225   -0.3267 O   0  0  0  0  0  0  0  0  0  0  0  0
    3.0906    0.0634    0.8589 C   0  0  0  0  0  0  0  0  0  0  0  0
   -2.5758    1.8173   -0.1980 H   0  0  0  0  0  0  0  0  0  0  0  0
   -3.1803    0.4305   -1.2539 H   0  0  0  0  0  0  0  0  0  0  0  0
   -3.6545    0.5552    0.4954 H   0  0  0  0  0  0  0  0  0  0  0  0
   -1.1596    0.3588    1.0013 H   0  0  0  0  0  0  0  0  0  0  0  0
   -2.1148   -1.0973    0.5620 H   0  0  0  0  0  0  0  0  0  0  0  0
   -1.4522   -0.5801   -1.9626 H   0  0  0  0  0  0  0  0  0  0  0  0
    0.4210   -2.2127   -0.7181 H   0  0  0  0  0  0  0  0  0  0  0  0
    0.3327    1.4323   -1.6740 H   0  0  0  0  0  0  0  0  0  0  0  0
    0.7922    0.1750    0.8092 H   0  0  0  0  0  0  0  0  0  0  0  0
    2.8267    1.1107    1.1352 H   0  0  0  0  0  0  0  0  0  0  0  0
    2.8743   -0.6169    1.6775 H   0  0  0  0  0  0  0  0  0  0  0  0
    4.1757    0.0434    0.6348 H   0  0  0  0  0  0  0  0  0  0  0  0
  1  2  1  0
  2  3  1  0
  3  4  1  0
  4  5  1  0
  5  6  1  0
  6  7  1  0
  7  8  1  0
  8  9  1  0
  6  3  1  0
  7  4  1  0
  1 10  1  0
  1 11  1  0
  1 12  1  0
  2 13  1  0
  2 14  1  0
  3 15  1  0
  4 16  1  0
  6 17  1  0
  7 18  1  0
  9 19  1  0
  9 20  1  0
  9 21  1  0
M  END
