
     RDKit          3D

 20 21  0  0  0  0  0  0  0  0999 V2000
    2.6989    0.0884   -0.2468 C   0  0  0  0  0  0  0  0  0  0  0  0
    1.5032    0.9587    0.0764 C   0  0  0  0  0  0  0  0  0  0  0  0
    0.2418    0.1880    0.0242 C   0  0  0  0  0  0  0  0  0  0  0  0
    0.1627   -1.0922   -0.2660 C   0  0  0  0  0  0  0  0  0  0  0  0
   -1.2328   -1.5272   -0.2256 C   0  0  0  0  0  0  0  0  0  0  0  0
   -2.0824   -0.3317   -0.0783 C   0  0  0  0  0  0  0  0  0  0  0  0
   -1.9847    0.8894   -0.8960 C   0  0  0  0  0  0  0  0  0  0  0  0
   -1.0940    0.7604    0.2848 C   0  0  0  0  0  0  0  0  0  0  0  0
    2.9506   -0.6107    0.5655 H   0  0  0  0  0  0  0  0  0  0  0  0
    2.5115   -0.5002   -1.1670 H   0  0  0  0  0  0  0  0  0  0  0  0
    3.5841    0.7329   -0.4312 H   0  0  0  0  0  0  0  0  0  0  0  0
    1.4685    1.7419   -0.7323 H   0  0  0  0  0  0  0  0  0  0  0  0
    1.6586    1.4258    1.0663 H   0  0  0  0  0  0  0  0  0  0  0  0
    1.0352   -1.7441   -0.5066 H   0  0  0  0  0  0  0  0  0  0  0  0
   -1.5135   -2.1866   -1.0800 H   0  0  0  0  0  0  0  0  0  0  0  0
   -1.3285   -2.1622    0.7111 H   0  0  0  0  0  0  0  0  0  0  0  0
   -2.9973   -0.4314    0.5661 H   0  0  0  0  0  0  0  0  0  0  0  0
   -2.7936    1.6224   -0.7994 H   0  0  0  0  0  0  0  0  0  0  0  0
   -1.4814    0.9105   -1.8762 H   0  0  0  0  0  0  0  0  0  0  0  0
   -1.3067    1.2680    1.2365 H   0  0  0  0  0  0  0  0  0  0  0  0
  1  2  1  0
  2  3  1  0
  3  4  2  0
  4  5  1  0
  5  6  1  0
  6  7  1  0
  7  8  1  0
  8  3  1  0
  8  6  1  0
  1  9  1  0
  1 10  1  0
  1 11  1  0
  2 12  1  0
  2 13  1  0
  4 14  1  0
  5 15  1  0
  5 16  1  0
  6 17  1  0
  7 18  1  0
  7 19  1  0
  8 20  1  0
M  END
