
     RDKit          3D

 21 21  0  0  0  0  0  0  0  0999 V2000
    2.7025   -0.1984    0.3611 C   0  0  0  0  0  0  0  0  0  0  0  0
    1.2267   -0.4729    0.5702 C   0  0  0  0  0  0  0  0  0  0  0  0
    0.4016   -0.0652   -0.5999 C   0  0  0  0  0  0  0  0  0  0  0  0
    0.4925    1.2742   -0.8977 O   0  0  0  0  0  0  0  0  0  0  0  0
   -0.8694    1.4835   -0.7237 C   0  0  0  0  0  0  0  0  0  0  0  0
   -1.0612    0.0553   -0.2800 C   0  0  0  0  0  0  0  0  0  0  0  0
   -1.4243   -0.1007    1.1737 C   0  0  0  0  0  0  0  0  0  0  0  0
   -1.8647   -0.7928   -1.1769 C   0  0  0  0  0  0  0  0  0  0  0  0
   -1.8179   -0.6814   -2.3777 O   0  0  0  0  0  0  0  0  0  0  0  0
    2.8552    0.7392   -0.2379 H   0  0  0  0  0  0  0  0  0  0  0  0
    3.1072   -1.0432   -0.2340 H   0  0  0  0  0  0  0  0  0  0  0  0
    3.1927   -0.1536    1.3435 H   0  0  0  0  0  0  0  0  0  0  0  0
    1.1340   -1.5682    0.7311 H   0  0  0  0  0  0  0  0  0  0  0  0
    0.9392    0.0977    1.4934 H   0  0  0  0  0  0  0  0  0  0  0  0
    0.6256   -0.6784   -1.4879 H   0  0  0  0  0  0  0  0  0  0  0  0
   -1.0232    2.1810    0.1429 H   0  0  0  0  0  0  0  0  0  0  0  0
   -1.4281    1.7930   -1.6111 H   0  0  0  0  0  0  0  0  0  0  0  0
   -1.2840    0.8902    1.6615 H   0  0  0  0  0  0  0  0  0  0  0  0
   -0.8725   -0.8825    1.6958 H   0  0  0  0  0  0  0  0  0  0  0  0
   -2.5184   -0.3422    1.2083 H   0  0  0  0  0  0  0  0  0  0  0  0
   -2.5136   -1.5345   -0.7547 H   0  0  0  0  0  0  0  0  0  0  0  0
  1  2  1  0
  2  3  1  0
  3  4  1  0
  4  5  1  0
  5  6  1  0
  6  7  1  0
  6  8  1  0
  8  9  2  0
  6  3  1  0
  1 10  1  0
  1 11  1  0
  1 12  1  0
  2 13  1  0
  2 14  1  0
  3 15  1  0
  5 16  1  0
  5 17  1  0
  7 18  1  0
  7 19  1  0
  7 20  1  0
  8 21  1  0
M  END
