
     RDKit          3D

 21 21  0  0  0  0  0  0  0  0999 V2000
   -2.5273    0.1685    1.1424 C   0  0  0  0  0  0  0  0  0  0  0  0
   -1.4661   -0.8402    0.8989 C   0  0  0  0  0  0  0  0  0  0  0  0
   -0.4035   -0.4227   -0.0842 C   0  0  0  0  0  0  0  0  0  0  0  0
   -0.7581   -0.0714   -1.4914 C   0  0  0  0  0  0  0  0  0  0  0  0
    0.6746   -1.4685    0.0031 O   0  0  0  0  0  0  0  0  0  0  0  0
    0.9221   -0.1006    0.3807 C   0  0  0  0  0  0  0  0  0  0  0  0
    1.9766    0.5125   -0.5376 C   0  0  0  0  0  0  0  0  0  0  0  0
    3.1906    0.6844    0.2975 C   0  0  0  0  0  0  0  0  0  0  0  0
    3.4804    1.7591    0.7370 O   0  0  0  0  0  0  0  0  0  0  0  0
   -3.4992   -0.2605    0.7596 H   0  0  0  0  0  0  0  0  0  0  0  0
   -2.6745    0.2764    2.2580 H   0  0  0  0  0  0  0  0  0  0  0  0
   -2.3410    1.1718    0.6779 H   0  0  0  0  0  0  0  0  0  0  0  0
   -1.9103   -1.8245    0.5987 H   0  0  0  0  0  0  0  0  0  0  0  0
   -0.9210   -1.0630    1.8660 H   0  0  0  0  0  0  0  0  0  0  0  0
   -1.8359   -0.1164   -1.7045 H   0  0  0  0  0  0  0  0  0  0  0  0
   -0.1484   -0.6620   -2.2054 H   0  0  0  0  0  0  0  0  0  0  0  0
   -0.4456    0.9966   -1.6524 H   0  0  0  0  0  0  0  0  0  0  0  0
    1.0533    0.0785    1.4587 H   0  0  0  0  0  0  0  0  0  0  0  0
    1.6056    1.5031   -0.9135 H   0  0  0  0  0  0  0  0  0  0  0  0
    2.2278   -0.1287   -1.3889 H   0  0  0  0  0  0  0  0  0  0  0  0
    3.7999   -0.1925    0.4912 H   0  0  0  0  0  0  0  0  0  0  0  0
  1  2  1  0
  2  3  1  0
  3  4  1  0
  3  5  1  0
  5  6  1  0
  6  7  1  0
  7  8  1  0
  8  9  2  0
  6  3  1  0
  1 10  1  0
  1 11  1  0
  1 12  1  0
  2 13  1  0
  2 14  1  0
  4 15  1  0
  4 16  1  0
  4 17  1  0
  6 18  1  0
  7 19  1  0
  7 20  1  0
  8 21  1  0
M  END
