
     RDKit          3D

 21 23  0  0  0  0  0  0  0  0999 V2000
    2.4152    0.1325    0.4047 C   0  0  0  0  0  0  0  0  0  0  0  0
    1.3667   -0.6246   -0.3797 C   0  0  0  0  0  0  0  0  0  0  0  0
    0.0844    0.0327   -0.2736 C   0  0  0  0  0  0  0  0  0  0  0  0
   -0.0594    1.4309   -0.7524 C   0  0  0  0  0  0  0  0  0  0  0  0
   -1.3735    1.6810   -0.5404 C   0  0  0  0  0  0  0  0  0  0  0  0
   -1.8514    0.4427    0.0837 C   0  0  0  0  0  0  0  0  0  0  0  0
   -1.1753   -0.6356   -0.7242 C   0  0  0  0  0  0  0  0  0  0  0  0
   -1.1533   -1.4098    0.5589 C   0  0  0  0  0  0  0  0  0  0  0  0
   -0.7245   -0.0346    0.9668 C   0  0  0  0  0  0  0  0  0  0  0  0
    2.2654    0.0142    1.5011 H   0  0  0  0  0  0  0  0  0  0  0  0
    3.3904   -0.3965    0.1939 H   0  0  0  0  0  0  0  0  0  0  0  0
    2.4978    1.1835    0.1125 H   0  0  0  0  0  0  0  0  0  0  0  0
    1.3453   -1.6409    0.0025 H   0  0  0  0  0  0  0  0  0  0  0  0
    1.7321   -0.6796   -1.4279 H   0  0  0  0  0  0  0  0  0  0  0  0
    0.6592    2.1234   -1.1720 H   0  0  0  0  0  0  0  0  0  0  0  0
   -1.9449    2.5559   -0.7634 H   0  0  0  0  0  0  0  0  0  0  0  0
   -2.8560    0.3229    0.3948 H   0  0  0  0  0  0  0  0  0  0  0  0
   -1.4241   -0.9521   -1.6381 H   0  0  0  0  0  0  0  0  0  0  0  0
   -2.2093   -1.6006    0.8954 H   0  0  0  0  0  0  0  0  0  0  0  0
   -0.4740   -2.2408    0.6710 H   0  0  0  0  0  0  0  0  0  0  0  0
   -0.5109    0.2953    1.8864 H   0  0  0  0  0  0  0  0  0  0  0  0
  1  2  1  0
  2  3  1  0
  3  4  1  0
  4  5  2  0
  5  6  1  0
  6  7  1  0
  7  8  1  0
  8  9  1  0
  7  3  1  0
  9  3  1  0
  9  6  1  0
  1 10  1  0
  1 11  1  0
  1 12  1  0
  2 13  1  0
  2 14  1  0
  4 15  1  0
  5 16  1  0
  6 17  1  0
  7 18  1  0
  8 19  1  0
  8 20  1  0
  9 21  1  0
M  END
