
     RDKit          3D

 25 25  0  0  0  0  0  0  0  0999 V2000
   -2.7742    1.2405    0.1232 C   0  0  0  0  0  0  0  0  0  0  0  0
   -2.1807   -0.1093   -0.1698 C   0  0  0  0  0  0  0  0  0  0  0  0
   -0.7915   -0.0161   -0.7581 C   0  0  0  0  0  0  0  0  0  0  0  0
   -0.3092   -1.4370   -1.0059 C   0  0  0  0  0  0  0  0  0  0  0  0
    0.3212   -1.9566    0.1389 O   0  0  0  0  0  0  0  0  0  0  0  0
    1.5927   -1.3752    0.2462 C   0  0  0  0  0  0  0  0  0  0  0  0
    1.5659    0.0607   -0.2029 C   0  0  0  0  0  0  0  0  0  0  0  0
    2.6863    0.8416    0.3899 C   0  0  0  0  0  0  0  0  0  0  0  0
    0.1913    0.6142    0.1970 C   0  0  0  0  0  0  0  0  0  0  0  0
   -2.3692    1.9839   -0.5677 H   0  0  0  0  0  0  0  0  0  0  0  0
   -3.8790    1.1790    0.0348 H   0  0  0  0  0  0  0  0  0  0  0  0
   -2.5220    1.4949    1.1693 H   0  0  0  0  0  0  0  0  0  0  0  0
   -2.8207   -0.5711   -0.9677 H   0  0  0  0  0  0  0  0  0  0  0  0
   -2.1993   -0.7881    0.6840 H   0  0  0  0  0  0  0  0  0  0  0  0
   -0.8001    0.5883   -1.6745 H   0  0  0  0  0  0  0  0  0  0  0  0
    0.4087   -1.5022   -1.8240 H   0  0  0  0  0  0  0  0  0  0  0  0
   -1.1931   -2.1014   -1.1763 H   0  0  0  0  0  0  0  0  0  0  0  0
    1.9159   -1.4036    1.3202 H   0  0  0  0  0  0  0  0  0  0  0  0
    2.2945   -1.9891   -0.3627 H   0  0  0  0  0  0  0  0  0  0  0  0
    1.5687    0.1169   -1.3289 H   0  0  0  0  0  0  0  0  0  0  0  0
    3.4294    1.0345   -0.4386 H   0  0  0  0  0  0  0  0  0  0  0  0
    3.2650    0.1958    1.1136 H   0  0  0  0  0  0  0  0  0  0  0  0
    2.4134    1.8105    0.8072 H   0  0  0  0  0  0  0  0  0  0  0  0
    0.1729    1.7306    0.0516 H   0  0  0  0  0  0  0  0  0  0  0  0
    0.0131    0.3584    1.2485 H   0  0  0  0  0  0  0  0  0  0  0  0
  1  2  1  0
  2  3  1  0
  3  4  1  0
  4  5  1  0
  5  6  1  0
  6  7  1  0
  7  8  1  0
  7  9  1  0
  9  3  1  0
  1 10  1  0
  1 11  1  0
  1 12  1  0
  2 13  1  0
  2 14  1  0
  3 15  1  0
  4 16  1  0
  4 17  1  0
  6 18  1  0
  6 19  1  0
  7 20  1  0
  8 21  1  0
  8 22  1  0
  8 23  1  0
  9 24  1  0
  9 25  1  0
M  END
