
     RDKit          3D

 23 23  0  0  0  0  0  0  0  0999 V2000
   -2.5813    0.5074    0.3708 C   0  0  0  0  0  0  0  0  0  0  0  0
   -1.0643    0.5709    0.6242 C   0  0  0  0  0  0  0  0  0  0  0  0
   -0.3208    0.2583   -0.6323 C   0  0  0  0  0  0  0  0  0  0  0  0
   -0.6305   -1.1199   -1.2119 C   0  0  0  0  0  0  0  0  0  0  0  0
    0.8143   -1.4483   -1.0596 C   0  0  0  0  0  0  0  0  0  0  0  0
    1.1209   -0.0095   -0.6023 C   0  0  0  0  0  0  0  0  0  0  0  0
    1.9104   -0.0508    0.6406 C   0  0  0  0  0  0  0  0  0  0  0  0
    1.8693    1.2324    1.3813 C   0  0  0  0  0  0  0  0  0  0  0  0
    1.3828    1.3083    2.4900 O   0  0  0  0  0  0  0  0  0  0  0  0
   -2.9934   -0.4745    0.6182 H   0  0  0  0  0  0  0  0  0  0  0  0
   -2.8082    0.7261   -0.6986 H   0  0  0  0  0  0  0  0  0  0  0  0
   -3.0484    1.2472    1.0482 H   0  0  0  0  0  0  0  0  0  0  0  0
   -0.8102   -0.1758    1.3868 H   0  0  0  0  0  0  0  0  0  0  0  0
   -0.8268    1.5861    1.0064 H   0  0  0  0  0  0  0  0  0  0  0  0
   -0.5819    1.0210   -1.4146 H   0  0  0  0  0  0  0  0  0  0  0  0
   -1.3412   -1.6319   -0.5584 H   0  0  0  0  0  0  0  0  0  0  0  0
   -0.9924   -1.1087   -2.2648 H   0  0  0  0  0  0  0  0  0  0  0  0
    0.9514   -2.2052   -0.2522 H   0  0  0  0  0  0  0  0  0  0  0  0
    1.2879   -1.7205   -2.0119 H   0  0  0  0  0  0  0  0  0  0  0  0
    1.6955    0.5005   -1.4279 H   0  0  0  0  0  0  0  0  0  0  0  0
    2.9917   -0.2049    0.3396 H   0  0  0  0  0  0  0  0  0  0  0  0
    1.6975   -0.9202    1.2975 H   0  0  0  0  0  0  0  0  0  0  0  0
    2.2776    2.1118    0.9310 H   0  0  0  0  0  0  0  0  0  0  0  0
  1  2  1  0
  2  3  1  0
  3  4  1  0
  4  5  1  0
  5  6  1  0
  6  7  1  0
  7  8  1  0
  8  9  2  0
  6  3  1  0
  1 10  1  0
  1 11  1  0
  1 12  1  0
  2 13  1  0
  2 14  1  0
  3 15  1  0
  4 16  1  0
  4 17  1  0
  5 18  1  0
  5 19  1  0
  6 20  1  0
  7 21  1  0
  7 22  1  0
  8 23  1  0
M  END
