
     RDKit          3D

 21 22  0  0  0  0  0  0  0  0999 V2000
    2.7412    0.0160    0.0687 C   0  0  0  0  0  0  0  0  0  0  0  0
    1.4914   -0.2917   -0.7321 C   0  0  0  0  0  0  0  0  0  0  0  0
    0.3033    0.3806   -0.1314 C   0  0  0  0  0  0  0  0  0  0  0  0
    0.0695   -0.0844    1.3002 C   0  0  0  0  0  0  0  0  0  0  0  0
   -1.2079    0.1564    1.5516 C   0  0  0  0  0  0  0  0  0  0  0  0
   -1.7878    0.7478    0.3737 C   0  0  0  0  0  0  0  0  0  0  0  0
   -2.2738    0.3564   -0.8801 C   0  0  0  0  0  0  0  0  0  0  0  0
   -1.0062   -0.1646   -0.6316 C   0  0  0  0  0  0  0  0  0  0  0  0
   -1.0072   -1.5587   -0.3290 O   0  0  0  0  0  0  0  0  0  0  0  0
    3.6147   -0.1610   -0.6034 H   0  0  0  0  0  0  0  0  0  0  0  0
    2.7762   -0.6913    0.9314 H   0  0  0  0  0  0  0  0  0  0  0  0
    2.7815    1.0709    0.3882 H   0  0  0  0  0  0  0  0  0  0  0  0
    1.6175    0.0872   -1.7527 H   0  0  0  0  0  0  0  0  0  0  0  0
    1.2989   -1.3929   -0.7053 H   0  0  0  0  0  0  0  0  0  0  0  0
    0.3032    1.4625   -0.2224 H   0  0  0  0  0  0  0  0  0  0  0  0
    0.8064   -0.5103    1.9367 H   0  0  0  0  0  0  0  0  0  0  0  0
   -1.7415   -0.0574    2.4987 H   0  0  0  0  0  0  0  0  0  0  0  0
   -1.4857    1.8532    0.3910 H   0  0  0  0  0  0  0  0  0  0  0  0
   -2.3827    1.0972   -1.7248 H   0  0  0  0  0  0  0  0  0  0  0  0
   -3.1821   -0.3042   -0.8979 H   0  0  0  0  0  0  0  0  0  0  0  0
   -1.7287   -2.0117   -0.8296 H   0  0  0  0  0  0  0  0  0  0  0  0
  1  2  1  0
  2  3  1  0
  3  4  1  0
  4  5  2  0
  5  6  1  0
  6  7  1  0
  7  8  1  0
  8  9  1  0
  8  3  1  0
  8  6  1  0
  1 10  1  0
  1 11  1  0
  1 12  1  0
  2 13  1  0
  2 14  1  0
  3 15  1  0
  4 16  1  0
  5 17  1  0
  6 18  1  0
  7 19  1  0
  7 20  1  0
  9 21  1  0
M  END
