
     RDKit          3D

 18 19  0  0  0  0  0  0  0  0999 V2000
    1.9446   -0.9682    0.1523 C   0  0  0  0  0  0  0  0  0  0  0  0
    1.2654    0.2304   -0.3895 C   0  0  0  0  0  0  0  0  0  0  0  0
   -0.0923    0.4976    0.1682 C   0  0  0  0  0  0  0  0  0  0  0  0
   -0.7974    1.7406   -0.3934 C   0  0  0  0  0  0  0  0  0  0  0  0
   -1.3061    0.4149   -0.7559 C   0  0  0  0  0  0  0  0  0  0  0  0
   -2.3145   -0.1053    0.0289 O   0  0  0  0  0  0  0  0  0  0  0  0
   -1.5760   -0.8421    0.9780 C   0  0  0  0  0  0  0  0  0  0  0  0
   -0.5178   -0.0341    1.3530 O   0  0  0  0  0  0  0  0  0  0  0  0
    1.8063   -1.8893   -0.4753 H   0  0  0  0  0  0  0  0  0  0  0  0
    1.6831   -1.2056    1.2141 H   0  0  0  0  0  0  0  0  0  0  0  0
    3.0634   -0.8177    0.1670 H   0  0  0  0  0  0  0  0  0  0  0  0
    1.1375    0.0779   -1.5003 H   0  0  0  0  0  0  0  0  0  0  0  0
    1.8942    1.1304   -0.2389 H   0  0  0  0  0  0  0  0  0  0  0  0
   -1.3897    2.3364    0.3382 H   0  0  0  0  0  0  0  0  0  0  0  0
   -0.2442    2.3222   -1.1479 H   0  0  0  0  0  0  0  0  0  0  0  0
   -1.1437   -0.0633   -1.7346 H   0  0  0  0  0  0  0  0  0  0  0  0
   -2.2536   -1.1109    1.7959 H   0  0  0  0  0  0  0  0  0  0  0  0
   -1.1592   -1.7141    0.4403 H   0  0  0  0  0  0  0  0  0  0  0  0
  1  2  1  0
  2  3  1  0
  3  4  1  0
  4  5  1  0
  5  6  1  0
  6  7  1  0
  7  8  1  0
  5  3  1  0
  8  3  1  0
  1  9  1  0
  1 10  1  0
  1 11  1  0
  2 12  1  0
  2 13  1  0
  4 14  1  0
  4 15  1  0
  5 16  1  0
  7 17  1  0
  7 18  1  0
M  END
