
     RDKit          3D

 23 23  0  0  0  0  0  0  0  0999 V2000
    1.7479   -1.5283   -0.0843 C   0  0  0  0  0  0  0  0  0  0  0  0
    1.5066   -0.0580   -0.1605 C   0  0  0  0  0  0  0  0  0  0  0  0
    0.0797    0.3549   -0.0663 C   0  0  0  0  0  0  0  0  0  0  0  0
   -0.0536    1.8611   -0.1540 C   0  0  0  0  0  0  0  0  0  0  0  0
    0.6383    2.4971    0.8725 O   0  0  0  0  0  0  0  0  0  0  0  0
   -0.7258   -0.2714   -1.2102 C   0  0  0  0  0  0  0  0  0  0  0  0
   -1.4650   -1.1456   -0.2001 C   0  0  0  0  0  0  0  0  0  0  0  0
   -0.8162   -0.3082    0.8886 C   0  0  0  0  0  0  0  0  0  0  0  0
   -1.7875    0.5784    1.4092 O   0  0  0  0  0  0  0  0  0  0  0  0
    2.8391   -1.7010   -0.1925 H   0  0  0  0  0  0  0  0  0  0  0  0
    1.4339   -2.0016    0.8442 H   0  0  0  0  0  0  0  0  0  0  0  0
    1.2873   -1.9933   -0.9984 H   0  0  0  0  0  0  0  0  0  0  0  0
    1.9346    0.2974   -1.1348 H   0  0  0  0  0  0  0  0  0  0  0  0
    2.1185    0.4367    0.6235 H   0  0  0  0  0  0  0  0  0  0  0  0
    0.3346    2.1456   -1.1624 H   0  0  0  0  0  0  0  0  0  0  0  0
   -1.1272    2.1353   -0.1309 H   0  0  0  0  0  0  0  0  0  0  0  0
    0.0371    3.1851    1.2703 H   0  0  0  0  0  0  0  0  0  0  0  0
   -1.4068    0.4147   -1.7221 H   0  0  0  0  0  0  0  0  0  0  0  0
   -0.1166   -0.8281   -1.9345 H   0  0  0  0  0  0  0  0  0  0  0  0
   -2.5579   -1.0630   -0.2615 H   0  0  0  0  0  0  0  0  0  0  0  0
   -1.1242   -2.2028   -0.2355 H   0  0  0  0  0  0  0  0  0  0  0  0
   -0.3872   -0.9276    1.6929 H   0  0  0  0  0  0  0  0  0  0  0  0
   -2.3895    0.1227    2.0469 H   0  0  0  0  0  0  0  0  0  0  0  0
  1  2  1  0
  2  3  1  0
  3  4  1  0
  4  5  1  0
  3  6  1  0
  6  7  1  0
  7  8  1  0
  8  9  1  0
  8  3  1  0
  1 10  1  0
  1 11  1  0
  1 12  1  0
  2 13  1  0
  2 14  1  0
  4 15  1  0
  4 16  1  0
  5 17  1  0
  6 18  1  0
  6 19  1  0
  7 20  1  0
  7 21  1  0
  8 22  1  0
  9 23  1  0
M  END
