
     RDKit          3D

 22 22  0  0  0  0  0  0  0  0999 V2000
    2.3869    0.4236   -0.9387 C   0  0  0  0  0  0  0  0  0  0  0  0
    1.5805    0.1378    0.2800 C   0  0  0  0  0  0  0  0  0  0  0  0
    0.3034   -0.6084    0.0063 C   0  0  0  0  0  0  0  0  0  0  0  0
    0.4794   -1.8554   -0.5911 O   0  0  0  0  0  0  0  0  0  0  0  0
   -0.6647   -0.5997    1.2065 C   0  0  0  0  0  0  0  0  0  0  0  0
   -1.0013    0.0601   -0.0800 C   0  0  0  0  0  0  0  0  0  0  0  0
   -2.0493   -0.6619   -0.9183 C   0  0  0  0  0  0  0  0  0  0  0  0
   -1.1147    1.5645   -0.1704 C   0  0  0  0  0  0  0  0  0  0  0  0
    3.4089   -0.0124   -0.8894 H   0  0  0  0  0  0  0  0  0  0  0  0
    2.5591    1.5328   -1.0601 H   0  0  0  0  0  0  0  0  0  0  0  0
    1.9368    0.0172   -1.8739 H   0  0  0  0  0  0  0  0  0  0  0  0
    1.4097    1.0721    0.8541 H   0  0  0  0  0  0  0  0  0  0  0  0
    2.1929   -0.5145    0.9694 H   0  0  0  0  0  0  0  0  0  0  0  0
    0.4188   -2.5469    0.1296 H   0  0  0  0  0  0  0  0  0  0  0  0
   -0.4444    0.0632    2.0474 H   0  0  0  0  0  0  0  0  0  0  0  0
   -1.1529   -1.5617    1.4627 H   0  0  0  0  0  0  0  0  0  0  0  0
   -1.8345   -1.7408   -1.0047 H   0  0  0  0  0  0  0  0  0  0  0  0
   -3.0456   -0.4355   -0.5138 H   0  0  0  0  0  0  0  0  0  0  0  0
   -1.9269   -0.2415   -1.9577 H   0  0  0  0  0  0  0  0  0  0  0  0
   -0.2898    1.9584   -0.8264 H   0  0  0  0  0  0  0  0  0  0  0  0
   -1.0981    2.0515    0.8273 H   0  0  0  0  0  0  0  0  0  0  0  0
   -2.0542    1.8975   -0.6582 H   0  0  0  0  0  0  0  0  0  0  0  0
  1  2  1  0
  2  3  1  0
  3  4  1  0
  3  5  1  0
  5  6  1  0
  6  7  1  0
  6  8  1  0
  6  3  1  0
  1  9  1  0
  1 10  1  0
  1 11  1  0
  2 12  1  0
  2 13  1  0
  4 14  1  0
  5 15  1  0
  5 16  1  0
  7 17  1  0
  7 18  1  0
  7 19  1  0
  8 20  1  0
  8 21  1  0
  8 22  1  0
M  END
