
     RDKit          3D

 21 22  0  0  0  0  0  0  0  0999 V2000
   -1.9123   -1.2684   -0.1567 C   0  0  0  0  0  0  0  0  0  0  0  0
   -0.7655   -0.6729    0.6004 C   0  0  0  0  0  0  0  0  0  0  0  0
    0.0504    0.1384   -0.4146 C   0  0  0  0  0  0  0  0  0  0  0  0
   -0.7021    1.1111   -0.9672 O   0  0  0  0  0  0  0  0  0  0  0  0
   -0.8843    1.9713    0.1492 C   0  0  0  0  0  0  0  0  0  0  0  0
    0.1175    1.5943    1.0854 O   0  0  0  0  0  0  0  0  0  0  0  0
    1.0828    1.1645    0.2182 C   0  0  0  0  0  0  0  0  0  0  0  0
    1.4555   -0.0856   -0.3165 C   0  0  0  0  0  0  0  0  0  0  0  0
    2.0753   -1.0981    0.6056 C   0  0  0  0  0  0  0  0  0  0  0  0
   -2.7203   -1.4935    0.5870 H   0  0  0  0  0  0  0  0  0  0  0  0
   -2.3288   -0.4792   -0.8225 H   0  0  0  0  0  0  0  0  0  0  0  0
   -1.6714   -2.1944   -0.6851 H   0  0  0  0  0  0  0  0  0  0  0  0
   -0.1753   -1.3989    1.1540 H   0  0  0  0  0  0  0  0  0  0  0  0
   -1.2123    0.0091    1.3744 H   0  0  0  0  0  0  0  0  0  0  0  0
   -1.8856    1.8571    0.5746 H   0  0  0  0  0  0  0  0  0  0  0  0
   -0.7091    3.0064   -0.2163 H   0  0  0  0  0  0  0  0  0  0  0  0
    1.3530    2.0528   -0.4367 H   0  0  0  0  0  0  0  0  0  0  0  0
    1.9764   -0.1487   -1.3146 H   0  0  0  0  0  0  0  0  0  0  0  0
    1.7700   -1.0300    1.6433 H   0  0  0  0  0  0  0  0  0  0  0  0
    1.9022   -2.1442    0.2586 H   0  0  0  0  0  0  0  0  0  0  0  0
    3.1838   -0.8913    0.5850 H   0  0  0  0  0  0  0  0  0  0  0  0
  1  2  1  0
  2  3  1  0
  3  4  1  0
  4  5  1  0
  5  6  1  0
  6  7  1  0
  7  8  1  0
  8  9  1  0
  7  3  1  0
  8  3  1  0
  1 10  1  0
  1 11  1  0
  1 12  1  0
  2 13  1  0
  2 14  1  0
  5 15  1  0
  5 16  1  0
  7 17  1  0
  8 18  1  0
  9 19  1  0
  9 20  1  0
  9 21  1  0
M  END
