
     RDKit          3D

 21 21  0  0  0  0  0  0  0  0999 V2000
   -2.1609   -0.6090    0.8983 C   0  0  0  0  0  0  0  0  0  0  0  0
   -2.0925    0.4947   -0.1472 C   0  0  0  0  0  0  0  0  0  0  0  0
   -0.6821    0.6227   -0.6800 C   0  0  0  0  0  0  0  0  0  0  0  0
    0.2185    0.9361    0.3583 O   0  0  0  0  0  0  0  0  0  0  0  0
    1.4271    0.5220   -0.1467 C   0  0  0  0  0  0  0  0  0  0  0  0
    2.5346    0.5272    0.8724 C   0  0  0  0  0  0  0  0  0  0  0  0
    1.1130   -0.9089   -0.6061 C   0  0  0  0  0  0  0  0  0  0  0  0
   -0.2402   -0.7038   -1.1701 C   0  0  0  0  0  0  0  0  0  0  0  0
   -0.8669   -1.4446   -1.8786 O   0  0  0  0  0  0  0  0  0  0  0  0
   -1.3636   -0.4444    1.6411 H   0  0  0  0  0  0  0  0  0  0  0  0
   -2.0464   -1.5657    0.3590 H   0  0  0  0  0  0  0  0  0  0  0  0
   -3.1212   -0.5577    1.4364 H   0  0  0  0  0  0  0  0  0  0  0  0
   -2.4507    1.4459    0.3006 H   0  0  0  0  0  0  0  0  0  0  0  0
   -2.7679    0.2814   -0.9970 H   0  0  0  0  0  0  0  0  0  0  0  0
   -0.6864    1.4027   -1.4686 H   0  0  0  0  0  0  0  0  0  0  0  0
    1.7108    1.1164   -1.0152 H   0  0  0  0  0  0  0  0  0  0  0  0
    2.1998    0.1645    1.8664 H   0  0  0  0  0  0  0  0  0  0  0  0
    2.8919    1.5686    0.9891 H   0  0  0  0  0  0  0  0  0  0  0  0
    3.3924   -0.0649    0.4944 H   0  0  0  0  0  0  0  0  0  0  0  0
    1.8521   -1.2242   -1.3745 H   0  0  0  0  0  0  0  0  0  0  0  0
    1.1385   -1.5592    0.2681 H   0  0  0  0  0  0  0  0  0  0  0  0
  1  2  1  0
  2  3  1  0
  3  4  1  0
  4  5  1  0
  5  6  1  0
  5  7  1  0
  7  8  1  0
  8  9  2  0
  8  3  1  0
  1 10  1  0
  1 11  1  0
  1 12  1  0
  2 13  1  0
  2 14  1  0
  3 15  1  0
  5 16  1  0
  6 17  1  0
  6 18  1  0
  6 19  1  0
  7 20  1  0
  7 21  1  0
M  END
