
     RDKit          3D

 21 22  0  0  0  0  0  0  0  0999 V2000
    2.3530    0.4062    0.4946 C   0  0  0  0  0  0  0  0  0  0  0  0
    1.3925   -0.6764    0.1304 C   0  0  0  0  0  0  0  0  0  0  0  0
    0.1156   -0.1202   -0.4505 C   0  0  0  0  0  0  0  0  0  0  0  0
    0.3510    0.6226   -1.6076 O   0  0  0  0  0  0  0  0  0  0  0  0
   -0.9333   -1.1670   -0.7262 C   0  0  0  0  0  0  0  0  0  0  0  0
   -1.9355   -0.1542   -0.1548 C   0  0  0  0  0  0  0  0  0  0  0  0
   -1.8233    0.0075    1.2948 C   0  0  0  0  0  0  0  0  0  0  0  0
   -0.7629    0.6270    0.4942 C   0  0  0  0  0  0  0  0  0  0  0  0
   -0.7574    1.9922    0.3811 O   0  0  0  0  0  0  0  0  0  0  0  0
    2.7786    0.2027    1.5161 H   0  0  0  0  0  0  0  0  0  0  0  0
    3.2386    0.4681   -0.1741 H   0  0  0  0  0  0  0  0  0  0  0  0
    1.8765    1.4066    0.4979 H   0  0  0  0  0  0  0  0  0  0  0  0
    1.1882   -1.3913    0.9391 H   0  0  0  0  0  0  0  0  0  0  0  0
    1.8757   -1.2744   -0.6973 H   0  0  0  0  0  0  0  0  0  0  0  0
    0.3263    0.0078   -2.3734 H   0  0  0  0  0  0  0  0  0  0  0  0
   -1.1185   -1.4020   -1.7818 H   0  0  0  0  0  0  0  0  0  0  0  0
   -0.7977   -2.0256   -0.0486 H   0  0  0  0  0  0  0  0  0  0  0  0
   -2.5168    0.4628   -0.8236 H   0  0  0  0  0  0  0  0  0  0  0  0
   -1.6507   -0.9450    1.8730 H   0  0  0  0  0  0  0  0  0  0  0  0
   -2.5335    0.6690    1.7901 H   0  0  0  0  0  0  0  0  0  0  0  0
   -0.6663    2.2833   -0.5732 H   0  0  0  0  0  0  0  0  0  0  0  0
  1  2  1  0
  2  3  1  0
  3  4  1  0
  3  5  1  0
  5  6  1  0
  6  7  1  0
  7  8  1  0
  8  9  1  0
  8  3  1  0
  8  6  1  0
  1 10  1  0
  1 11  1  0
  1 12  1  0
  2 13  1  0
  2 14  1  0
  4 15  1  0
  5 16  1  0
  5 17  1  0
  6 18  1  0
  7 19  1  0
  7 20  1  0
  9 21  1  0
M  END
