
     RDKit          3D

 23 24  0  0  0  0  0  0  0  0999 V2000
   -1.7120    1.5831   -0.1853 C   0  0  0  0  0  0  0  0  0  0  0  0
   -1.8027    0.0930   -0.1342 C   0  0  0  0  0  0  0  0  0  0  0  0
   -0.4998   -0.6103   -0.0173 C   0  0  0  0  0  0  0  0  0  0  0  0
   -0.7004   -2.1108    0.0266 C   0  0  0  0  0  0  0  0  0  0  0  0
    0.4326   -0.1653    1.0673 C   0  0  0  0  0  0  0  0  0  0  0  0
    1.5057   -0.0360   -0.0246 C   0  0  0  0  0  0  0  0  0  0  0  0
    2.6172    0.9255    0.1585 C   0  0  0  0  0  0  0  0  0  0  0  0
    1.6989   -1.0901   -0.8839 O   0  0  0  0  0  0  0  0  0  0  0  0
    0.5761   -0.2176   -0.9973 C   0  0  0  0  0  0  0  0  0  0  0  0
   -1.3548    2.0453    0.7443 H   0  0  0  0  0  0  0  0  0  0  0  0
   -1.1241    1.9451   -1.0448 H   0  0  0  0  0  0  0  0  0  0  0  0
   -2.7521    1.9700   -0.3424 H   0  0  0  0  0  0  0  0  0  0  0  0
   -2.4469   -0.1985    0.6979 H   0  0  0  0  0  0  0  0  0  0  0  0
   -2.2982   -0.2477   -1.0672 H   0  0  0  0  0  0  0  0  0  0  0  0
   -0.1237   -2.5773    0.8522 H   0  0  0  0  0  0  0  0  0  0  0  0
   -0.2873   -2.5529   -0.9146 H   0  0  0  0  0  0  0  0  0  0  0  0
   -1.7764   -2.3923    0.0931 H   0  0  0  0  0  0  0  0  0  0  0  0
    0.2568    0.8507    1.4834 H   0  0  0  0  0  0  0  0  0  0  0  0
    0.6463   -0.9087    1.8337 H   0  0  0  0  0  0  0  0  0  0  0  0
    3.4741    0.6298   -0.4709 H   0  0  0  0  0  0  0  0  0  0  0  0
    2.3186    1.9389   -0.1356 H   0  0  0  0  0  0  0  0  0  0  0  0
    3.0072    0.9086    1.2192 H   0  0  0  0  0  0  0  0  0  0  0  0
    0.3448    0.2172   -1.9583 H   0  0  0  0  0  0  0  0  0  0  0  0
  1  2  1  0
  2  3  1  0
  3  4  1  0
  3  5  1  0
  5  6  1  0
  6  7  1  0
  6  8  1  0
  8  9  1  0
  9  3  1  0
  9  6  1  0
  1 10  1  0
  1 11  1  0
  1 12  1  0
  2 13  1  0
  2 14  1  0
  4 15  1  0
  4 16  1  0
  4 17  1  0
  5 18  1  0
  5 19  1  0
  7 20  1  0
  7 21  1  0
  7 22  1  0
  9 23  1  0
M  END
