
     RDKit          3D

 23 24  0  0  0  0  0  0  0  0999 V2000
    2.5657   -0.7221   -0.6159 C   0  0  0  0  0  0  0  0  0  0  0  0
    1.6560   -0.5222    0.6041 C   0  0  0  0  0  0  0  0  0  0  0  0
    0.4385    0.2045    0.1164 C   0  0  0  0  0  0  0  0  0  0  0  0
   -0.3224   -0.5264   -0.9335 C   0  0  0  0  0  0  0  0  0  0  0  0
   -0.4335   -1.8917   -0.7049 O   0  0  0  0  0  0  0  0  0  0  0  0
   -1.6736    0.1653   -0.9034 C   0  0  0  0  0  0  0  0  0  0  0  0
   -1.9053    0.6206    0.5000 C   0  0  0  0  0  0  0  0  0  0  0  0
   -1.2643    1.8304    1.0542 C   0  0  0  0  0  0  0  0  0  0  0  0
   -0.5780    0.4797    1.1702 C   0  0  0  0  0  0  0  0  0  0  0  0
    1.9664   -1.1687   -1.4376 H   0  0  0  0  0  0  0  0  0  0  0  0
    2.9702    0.2816   -0.9002 H   0  0  0  0  0  0  0  0  0  0  0  0
    3.3795   -1.4131   -0.2769 H   0  0  0  0  0  0  0  0  0  0  0  0
    2.1880    0.1106    1.3316 H   0  0  0  0  0  0  0  0  0  0  0  0
    1.4198   -1.5317    0.9673 H   0  0  0  0  0  0  0  0  0  0  0  0
    0.7994    1.1680   -0.3375 H   0  0  0  0  0  0  0  0  0  0  0  0
    0.1507   -0.3448   -1.9129 H   0  0  0  0  0  0  0  0  0  0  0  0
   -1.3385   -2.1630   -0.3938 H   0  0  0  0  0  0  0  0  0  0  0  0
   -1.6733    0.9580   -1.6538 H   0  0  0  0  0  0  0  0  0  0  0  0
   -2.4288   -0.6445   -1.1181 H   0  0  0  0  0  0  0  0  0  0  0  0
   -2.8399    0.2943    1.0331 H   0  0  0  0  0  0  0  0  0  0  0  0
   -1.6845    2.3000    1.9426 H   0  0  0  0  0  0  0  0  0  0  0  0
   -0.8014    2.5789    0.3493 H   0  0  0  0  0  0  0  0  0  0  0  0
   -0.5906   -0.0636    2.1196 H   0  0  0  0  0  0  0  0  0  0  0  0
  1  2  1  0
  2  3  1  0
  3  4  1  0
  4  5  1  0
  4  6  1  0
  6  7  1  0
  7  8  1  0
  8  9  1  0
  9  3  1  0
  9  7  1  0
  1 10  1  0
  1 11  1  0
  1 12  1  0
  2 13  1  0
  2 14  1  0
  3 15  1  0
  4 16  1  0
  5 17  1  0
  6 18  1  0
  6 19  1  0
  7 20  1  0
  8 21  1  0
  8 22  1  0
  9 23  1  0
M  END
