
     RDKit          3D

 21 23  0  0  0  0  0  0  0  0999 V2000
    2.4516   -0.3961    0.7413 C   0  0  0  0  0  0  0  0  0  0  0  0
    1.0188   -0.5321    1.1911 C   0  0  0  0  0  0  0  0  0  0  0  0
    0.0427    0.1797    0.3699 C   0  0  0  0  0  0  0  0  0  0  0  0
    0.1793    1.5670    0.2644 O   0  0  0  0  0  0  0  0  0  0  0  0
   -0.9155    1.9257   -0.5283 C   0  0  0  0  0  0  0  0  0  0  0  0
   -1.4573    0.5961   -0.8868 C   0  0  0  0  0  0  0  0  0  0  0  0
   -1.4030   -0.1524    0.4214 C   0  0  0  0  0  0  0  0  0  0  0  0
   -1.0986   -1.3497   -0.4191 C   0  0  0  0  0  0  0  0  0  0  0  0
   -0.2547   -0.2925   -1.0279 C   0  0  0  0  0  0  0  0  0  0  0  0
    3.0223    0.3538    1.3297 H   0  0  0  0  0  0  0  0  0  0  0  0
    2.5345   -0.0834   -0.3236 H   0  0  0  0  0  0  0  0  0  0  0  0
    3.0016   -1.3626    0.8795 H   0  0  0  0  0  0  0  0  0  0  0  0
    0.9964   -0.0685    2.2249 H   0  0  0  0  0  0  0  0  0  0  0  0
    0.7339   -1.5834    1.3604 H   0  0  0  0  0  0  0  0  0  0  0  0
   -0.6423    2.5762   -1.3681 H   0  0  0  0  0  0  0  0  0  0  0  0
   -1.6385    2.4233    0.1703 H   0  0  0  0  0  0  0  0  0  0  0  0
   -2.2926    0.4740   -1.5293 H   0  0  0  0  0  0  0  0  0  0  0  0
   -2.0453   -0.0737    1.1822 H   0  0  0  0  0  0  0  0  0  0  0  0
   -0.6446   -2.2046    0.0626 H   0  0  0  0  0  0  0  0  0  0  0  0
   -1.9678   -1.6553   -1.0752 H   0  0  0  0  0  0  0  0  0  0  0  0
    0.3790   -0.3415   -1.7981 H   0  0  0  0  0  0  0  0  0  0  0  0
  1  2  1  0
  2  3  1  0
  3  4  1  0
  4  5  1  0
  5  6  1  0
  6  7  1  0
  7  8  1  0
  8  9  1  0
  7  3  1  0
  9  3  1  0
  9  6  1  0
  1 10  1  0
  1 11  1  0
  1 12  1  0
  2 13  1  0
  2 14  1  0
  5 15  1  0
  5 16  1  0
  6 17  1  0
  7 18  1  0
  8 19  1  0
  8 20  1  0
  9 21  1  0
M  END
