
     RDKit          3D

 25 25  0  0  0  0  0  0  0  0999 V2000
   -3.1879   -1.0656    0.4564 C   0  0  0  0  0  0  0  0  0  0  0  0
   -2.7350   -0.0049   -0.5274 C   0  0  0  0  0  0  0  0  0  0  0  0
   -1.2641    0.1528   -0.5387 C   0  0  0  0  0  0  0  0  0  0  0  0
   -0.5023   -0.0358   -1.6056 C   0  0  0  0  0  0  0  0  0  0  0  0
    0.9155    0.2090   -1.2540 C   0  0  0  0  0  0  0  0  0  0  0  0
    0.9486   -0.0747    0.2090 C   0  0  0  0  0  0  0  0  0  0  0  0
    2.1052    0.5980    0.9146 C   0  0  0  0  0  0  0  0  0  0  0  0
    3.3783    0.0755    0.2838 C   0  0  0  0  0  0  0  0  0  0  0  0
   -0.3902    0.5429    0.6360 C   0  0  0  0  0  0  0  0  0  0  0  0
   -2.6140   -0.9625    1.3993 H   0  0  0  0  0  0  0  0  0  0  0  0
   -3.1412   -2.0837    0.0438 H   0  0  0  0  0  0  0  0  0  0  0  0
   -4.2451   -0.8349    0.7190 H   0  0  0  0  0  0  0  0  0  0  0  0
   -3.2629    0.9652   -0.2989 H   0  0  0  0  0  0  0  0  0  0  0  0
   -3.0666   -0.3395   -1.5244 H   0  0  0  0  0  0  0  0  0  0  0  0
   -0.8608   -0.3306   -2.6082 H   0  0  0  0  0  0  0  0  0  0  0  0
    1.5769   -0.4467   -1.8524 H   0  0  0  0  0  0  0  0  0  0  0  0
    1.1980    1.2790   -1.3978 H   0  0  0  0  0  0  0  0  0  0  0  0
    0.9270   -1.1601    0.3863 H   0  0  0  0  0  0  0  0  0  0  0  0
    2.0681    1.6777    0.7447 H   0  0  0  0  0  0  0  0  0  0  0  0
    2.0937    0.4271    1.9989 H   0  0  0  0  0  0  0  0  0  0  0  0
    3.1898   -0.9038   -0.2199 H   0  0  0  0  0  0  0  0  0  0  0  0
    3.8030    0.7896   -0.4508 H   0  0  0  0  0  0  0  0  0  0  0  0
    4.1644   -0.0977    1.0715 H   0  0  0  0  0  0  0  0  0  0  0  0
   -0.3229    1.6269    0.7527 H   0  0  0  0  0  0  0  0  0  0  0  0
   -0.7757   -0.0031    1.5085 H   0  0  0  0  0  0  0  0  0  0  0  0
  1  2  1  0
  2  3  1  0
  3  4  2  0
  4  5  1  0
  5  6  1  0
  6  7  1  0
  7  8  1  0
  6  9  1  0
  9  3  1  0
  1 10  1  0
  1 11  1  0
  1 12  1  0
  2 13  1  0
  2 14  1  0
  4 15  1  0
  5 16  1  0
  5 17  1  0
  6 18  1  0
  7 19  1  0
  7 20  1  0
  8 21  1  0
  8 22  1  0
  8 23  1  0
  9 24  1  0
  9 25  1  0
M  END
