
     RDKit          3D

 23 24  0  0  0  0  0  0  0  0999 V2000
    2.7252   -0.3747   -0.6702 C   0  0  0  0  0  0  0  0  0  0  0  0
    1.7497    0.6028   -0.0024 C   0  0  0  0  0  0  0  0  0  0  0  0
    1.0629   -0.1766    1.0852 C   0  0  0  0  0  0  0  0  0  0  0  0
    0.2943   -1.3861    0.5605 C   0  0  0  0  0  0  0  0  0  0  0  0
   -0.3848   -0.2366    1.2421 C   0  0  0  0  0  0  0  0  0  0  0  0
   -1.3390    0.6509    0.5198 C   0  0  0  0  0  0  0  0  0  0  0  0
   -1.2565    2.0339    0.6831 O   0  0  0  0  0  0  0  0  0  0  0  0
   -2.8245    0.1732    0.4602 C   0  0  0  0  0  0  0  0  0  0  0  0
   -1.9923    0.1660   -0.7623 C   0  0  0  0  0  0  0  0  0  0  0  0
    3.1992    0.0495   -1.5555 H   0  0  0  0  0  0  0  0  0  0  0  0
    2.1409   -1.3006   -0.8838 H   0  0  0  0  0  0  0  0  0  0  0  0
    3.4648   -0.6783    0.1197 H   0  0  0  0  0  0  0  0  0  0  0  0
    1.0929    0.9636   -0.7898 H   0  0  0  0  0  0  0  0  0  0  0  0
    2.3417    1.4528    0.3854 H   0  0  0  0  0  0  0  0  0  0  0  0
    1.7040   -0.3096    1.9896 H   0  0  0  0  0  0  0  0  0  0  0  0
    0.1395   -1.4865   -0.5095 H   0  0  0  0  0  0  0  0  0  0  0  0
    0.5191   -2.3126    1.1211 H   0  0  0  0  0  0  0  0  0  0  0  0
   -0.7515   -0.5119    2.2757 H   0  0  0  0  0  0  0  0  0  0  0  0
   -1.4007    2.4494   -0.1944 H   0  0  0  0  0  0  0  0  0  0  0  0
   -3.6068    0.9084    0.6367 H   0  0  0  0  0  0  0  0  0  0  0  0
   -2.9940   -0.7893    0.9739 H   0  0  0  0  0  0  0  0  0  0  0  0
   -2.2185    0.9264   -1.5495 H   0  0  0  0  0  0  0  0  0  0  0  0
   -1.6655   -0.8141   -1.1251 H   0  0  0  0  0  0  0  0  0  0  0  0
  1  2  1  0
  2  3  1  0
  3  4  1  0
  4  5  1  0
  5  6  1  0
  6  7  1  0
  6  8  1  0
  8  9  1  0
  5  3  1  0
  9  6  1  0
  1 10  1  0
  1 11  1  0
  1 12  1  0
  2 13  1  0
  2 14  1  0
  3 15  1  0
  4 16  1  0
  4 17  1  0
  5 18  1  0
  7 19  1  0
  8 20  1  0
  8 21  1  0
  9 22  1  0
  9 23  1  0
M  END
