
     RDKit          3D

 23 23  0  0  0  0  0  0  0  0999 V2000
    3.0330    0.6851   -0.3837 C   0  0  0  0  0  0  0  0  0  0  0  0
    2.2284   -0.5723   -0.2350 C   0  0  0  0  0  0  0  0  0  0  0  0
    0.8225   -0.3175    0.1799 C   0  0  0  0  0  0  0  0  0  0  0  0
   -0.3070   -0.6227   -0.4417 C   0  0  0  0  0  0  0  0  0  0  0  0
   -1.4370   -0.1653    0.3652 C   0  0  0  0  0  0  0  0  0  0  0  0
   -2.1071    1.0702   -0.1284 C   0  0  0  0  0  0  0  0  0  0  0  0
   -2.5146   -1.2484    0.4705 C   0  0  0  0  0  0  0  0  0  0  0  0
   -0.9054    0.0804    1.6518 O   0  0  0  0  0  0  0  0  0  0  0  0
    0.4408    0.3665    1.4425 C   0  0  0  0  0  0  0  0  0  0  0  0
    2.4840    1.5954   -0.0477 H   0  0  0  0  0  0  0  0  0  0  0  0
    4.0006    0.5674    0.1874 H   0  0  0  0  0  0  0  0  0  0  0  0
    3.3534    0.8595   -1.4402 H   0  0  0  0  0  0  0  0  0  0  0  0
    2.7415   -1.2852    0.4532 H   0  0  0  0  0  0  0  0  0  0  0  0
    2.2211   -1.0792   -1.2314 H   0  0  0  0  0  0  0  0  0  0  0  0
   -0.3557   -1.1288   -1.3921 H   0  0  0  0  0  0  0  0  0  0  0  0
   -2.6252    1.5622    0.7406 H   0  0  0  0  0  0  0  0  0  0  0  0
   -2.9457    0.8381   -0.8467 H   0  0  0  0  0  0  0  0  0  0  0  0
   -1.4520    1.7973   -0.6070 H   0  0  0  0  0  0  0  0  0  0  0  0
   -2.0351   -2.2319    0.2924 H   0  0  0  0  0  0  0  0  0  0  0  0
   -3.3339   -1.0256   -0.2436 H   0  0  0  0  0  0  0  0  0  0  0  0
   -2.9902   -1.2044    1.4876 H   0  0  0  0  0  0  0  0  0  0  0  0
    0.6287    1.4563    1.3741 H   0  0  0  0  0  0  0  0  0  0  0  0
    1.0547    0.0028    2.3044 H   0  0  0  0  0  0  0  0  0  0  0  0
  1  2  1  0
  2  3  1  0
  3  4  2  0
  4  5  1  0
  5  6  1  0
  5  7  1  0
  5  8  1  0
  8  9  1  0
  9  3  1  0
  1 10  1  0
  1 11  1  0
  1 12  1  0
  2 13  1  0
  2 14  1  0
  4 15  1  0
  6 16  1  0
  6 17  1  0
  6 18  1  0
  7 19  1  0
  7 20  1  0
  7 21  1  0
  9 22  1  0
  9 23  1  0
M  END
