
     RDKit          3D

 23 24  0  0  0  0  0  0  0  0999 V2000
    2.6014   -0.5233   -0.1623 C   0  0  0  0  0  0  0  0  0  0  0  0
    1.5007    0.3292   -0.7023 C   0  0  0  0  0  0  0  0  0  0  0  0
    0.1932    0.1759   -0.0162 C   0  0  0  0  0  0  0  0  0  0  0  0
    0.2353    0.5111    1.4365 C   0  0  0  0  0  0  0  0  0  0  0  0
   -0.8915    0.8196   -0.8282 C   0  0  0  0  0  0  0  0  0  0  0  0
   -2.1884    0.6043   -0.0802 C   0  0  0  0  0  0  0  0  0  0  0  0
   -1.9513   -0.8840    0.2544 C   0  0  0  0  0  0  0  0  0  0  0  0
   -0.6096   -1.0272   -0.4134 C   0  0  0  0  0  0  0  0  0  0  0  0
   -0.8479   -0.3400   -1.6264 O   0  0  0  0  0  0  0  0  0  0  0  0
    3.1023    0.0209    0.6517 H   0  0  0  0  0  0  0  0  0  0  0  0
    3.3629   -0.6377   -0.9740 H   0  0  0  0  0  0  0  0  0  0  0  0
    2.1822   -1.4972    0.1389 H   0  0  0  0  0  0  0  0  0  0  0  0
    1.8082    1.4103   -0.6072 H   0  0  0  0  0  0  0  0  0  0  0  0
    1.3491    0.1686   -1.7880 H   0  0  0  0  0  0  0  0  0  0  0  0
    0.7164    1.4977    1.5534 H   0  0  0  0  0  0  0  0  0  0  0  0
   -0.7191    0.4243    1.9566 H   0  0  0  0  0  0  0  0  0  0  0  0
    0.9327   -0.2224    1.9254 H   0  0  0  0  0  0  0  0  0  0  0  0
   -0.7169    1.7577   -1.3026 H   0  0  0  0  0  0  0  0  0  0  0  0
   -2.2567    1.1808    0.8463 H   0  0  0  0  0  0  0  0  0  0  0  0
   -3.0166    0.7359   -0.7752 H   0  0  0  0  0  0  0  0  0  0  0  0
   -2.6851   -1.4511   -0.3347 H   0  0  0  0  0  0  0  0  0  0  0  0
   -1.9545   -1.0692    1.3210 H   0  0  0  0  0  0  0  0  0  0  0  0
   -0.1467   -1.9843   -0.4733 H   0  0  0  0  0  0  0  0  0  0  0  0
  1  2  1  0
  2  3  1  0
  3  4  1  0
  3  5  1  0
  5  6  1  0
  6  7  1  0
  7  8  1  0
  8  9  1  0
  8  3  1  0
  9  5  1  0
  1 10  1  0
  1 11  1  0
  1 12  1  0
  2 13  1  0
  2 14  1  0
  4 15  1  0
  4 16  1  0
  4 17  1  0
  5 18  1  0
  6 19  1  0
  6 20  1  0
  7 21  1  0
  7 22  1  0
  8 23  1  0
M  END
