
     RDKit          3D

 23 23  0  0  0  0  0  0  0  0999 V2000
    2.1706   -0.6231   -0.2309 C   0  0  0  0  0  0  0  0  0  0  0  0
    0.9278   -0.9348    0.5044 C   0  0  0  0  0  0  0  0  0  0  0  0
   -0.1682    0.1003    0.4400 C   0  0  0  0  0  0  0  0  0  0  0  0
    0.1792    1.3016    0.9447 O   0  0  0  0  0  0  0  0  0  0  0  0
    1.0954    2.0841    0.3483 C   0  0  0  0  0  0  0  0  0  0  0  0
   -0.8059    0.1618   -0.9304 C   0  0  0  0  0  0  0  0  0  0  0  0
   -2.2543   -0.1288   -0.5909 C   0  0  0  0  0  0  0  0  0  0  0  0
   -1.9983   -1.1744    0.5056 C   0  0  0  0  0  0  0  0  0  0  0  0
   -1.1496   -0.4305    1.3198 O   0  0  0  0  0  0  0  0  0  0  0  0
    2.9814   -0.3623    0.4856 H   0  0  0  0  0  0  0  0  0  0  0  0
    2.4914   -1.5921   -0.7364 H   0  0  0  0  0  0  0  0  0  0  0  0
    2.0744    0.0744   -1.0844 H   0  0  0  0  0  0  0  0  0  0  0  0
    0.4908   -1.9159    0.2184 H   0  0  0  0  0  0  0  0  0  0  0  0
    1.1575   -1.0481    1.6077 H   0  0  0  0  0  0  0  0  0  0  0  0
    0.8315    2.3579   -0.7078 H   0  0  0  0  0  0  0  0  0  0  0  0
    2.1579    1.8502    0.4688 H   0  0  0  0  0  0  0  0  0  0  0  0
    1.0052    3.1022    0.8703 H   0  0  0  0  0  0  0  0  0  0  0  0
   -0.6956    1.1155   -1.4326 H   0  0  0  0  0  0  0  0  0  0  0  0
   -0.4665   -0.7013   -1.5678 H   0  0  0  0  0  0  0  0  0  0  0  0
   -2.7306    0.7308   -0.0582 H   0  0  0  0  0  0  0  0  0  0  0  0
   -2.8348   -0.5213   -1.4141 H   0  0  0  0  0  0  0  0  0  0  0  0
   -1.5268   -2.0229    0.0046 H   0  0  0  0  0  0  0  0  0  0  0  0
   -2.9325   -1.4232    1.0354 H   0  0  0  0  0  0  0  0  0  0  0  0
  1  2  1  0
  2  3  1  0
  3  4  1  0
  4  5  1  0
  3  6  1  0
  6  7  1  0
  7  8  1  0
  8  9  1  0
  9  3  1  0
  1 10  1  0
  1 11  1  0
  1 12  1  0
  2 13  1  0
  2 14  1  0
  5 15  1  0
  5 16  1  0
  5 17  1  0
  6 18  1  0
  6 19  1  0
  7 20  1  0
  7 21  1  0
  8 22  1  0
  8 23  1  0
M  END
