
     RDKit          3D

 21 21  0  0  0  0  0  0  0  0999 V2000
    2.5169   -1.0315   -0.1210 C   0  0  0  0  0  0  0  0  0  0  0  0
    1.4349   -0.3017   -0.8979 C   0  0  0  0  0  0  0  0  0  0  0  0
    0.4008    0.1541    0.0695 C   0  0  0  0  0  0  0  0  0  0  0  0
   -0.8211    0.9191   -0.3744 C   0  0  0  0  0  0  0  0  0  0  0  0
   -1.2962    2.0173    0.5522 C   0  0  0  0  0  0  0  0  0  0  0  0
   -0.9701   -0.5052   -0.0696 C   0  0  0  0  0  0  0  0  0  0  0  0
   -1.1708   -1.3409   -1.1658 O   0  0  0  0  0  0  0  0  0  0  0  0
   -1.5333   -0.9849    1.2178 C   0  0  0  0  0  0  0  0  0  0  0  0
   -1.8441   -2.1500    1.3559 O   0  0  0  0  0  0  0  0  0  0  0  0
    2.8845   -1.8571   -0.7302 H   0  0  0  0  0  0  0  0  0  0  0  0
    2.0995   -1.3533    0.8573 H   0  0  0  0  0  0  0  0  0  0  0  0
    3.2959   -0.2670    0.0818 H   0  0  0  0  0  0  0  0  0  0  0  0
    0.9558   -0.9915   -1.6484 H   0  0  0  0  0  0  0  0  0  0  0  0
    1.8313    0.5691   -1.4645 H   0  0  0  0  0  0  0  0  0  0  0  0
    0.7545    0.3788    1.1141 H   0  0  0  0  0  0  0  0  0  0  0  0
   -0.7745    1.2306   -1.4372 H   0  0  0  0  0  0  0  0  0  0  0  0
   -1.9430    2.7074   -0.0089 H   0  0  0  0  0  0  0  0  0  0  0  0
   -0.3776    2.5955    0.8338 H   0  0  0  0  0  0  0  0  0  0  0  0
   -1.7957    1.6201    1.4634 H   0  0  0  0  0  0  0  0  0  0  0  0
   -1.9576   -1.0819   -1.7029 H   0  0  0  0  0  0  0  0  0  0  0  0
   -1.6901   -0.3270    2.0750 H   0  0  0  0  0  0  0  0  0  0  0  0
  1  2  1  0
  2  3  1  0
  3  4  1  0
  4  5  1  0
  4  6  1  0
  6  7  1  0
  6  8  1  0
  8  9  2  0
  6  3  1  0
  1 10  1  0
  1 11  1  0
  1 12  1  0
  2 13  1  0
  2 14  1  0
  3 15  1  0
  4 16  1  0
  5 17  1  0
  5 18  1  0
  5 19  1  0
  7 20  1  0
  8 21  1  0
M  END
