
     RDKit          3D

 23 23  0  0  0  0  0  0  0  0999 V2000
    2.5006   -0.6112   -0.2470 C   0  0  0  0  0  0  0  0  0  0  0  0
    1.4139   -0.4208    0.7799 C   0  0  0  0  0  0  0  0  0  0  0  0
    0.0908   -0.0600    0.1441 C   0  0  0  0  0  0  0  0  0  0  0  0
    0.1428    1.2277   -0.6591 C   0  0  0  0  0  0  0  0  0  0  0  0
    0.5090    2.2966    0.1643 O   0  0  0  0  0  0  0  0  0  0  0  0
   -1.1219   -0.4955    0.8297 C   0  0  0  0  0  0  0  0  0  0  0  0
   -2.3834    0.3176    0.8781 C   0  0  0  0  0  0  0  0  0  0  0  0
   -0.7566   -1.1152   -0.4648 C   0  0  0  0  0  0  0  0  0  0  0  0
   -1.5799   -0.7864   -1.5557 O   0  0  0  0  0  0  0  0  0  0  0  0
    2.1389   -1.0660   -1.1791 H   0  0  0  0  0  0  0  0  0  0  0  0
    3.0552    0.3341   -0.4515 H   0  0  0  0  0  0  0  0  0  0  0  0
    3.2609   -1.3080    0.1915 H   0  0  0  0  0  0  0  0  0  0  0  0
    1.7434    0.4175    1.4547 H   0  0  0  0  0  0  0  0  0  0  0  0
    1.3147   -1.3084    1.4445 H   0  0  0  0  0  0  0  0  0  0  0  0
    0.9771    1.0760   -1.4047 H   0  0  0  0  0  0  0  0  0  0  0  0
   -0.8212    1.4139   -1.1430 H   0  0  0  0  0  0  0  0  0  0  0  0
    0.3222    3.1419   -0.3456 H   0  0  0  0  0  0  0  0  0  0  0  0
   -0.9946   -1.1609    1.7189 H   0  0  0  0  0  0  0  0  0  0  0  0
   -2.3948    1.0688    1.6957 H   0  0  0  0  0  0  0  0  0  0  0  0
   -2.6733    0.7421   -0.1055 H   0  0  0  0  0  0  0  0  0  0  0  0
   -3.2141   -0.4017    1.1411 H   0  0  0  0  0  0  0  0  0  0  0  0
   -0.3522   -2.1271   -0.4910 H   0  0  0  0  0  0  0  0  0  0  0  0
   -1.1776   -1.1751   -2.3956 H   0  0  0  0  0  0  0  0  0  0  0  0
  1  2  1  0
  2  3  1  0
  3  4  1  0
  4  5  1  0
  3  6  1  0
  6  7  1  0
  6  8  1  0
  8  9  1  0
  8  3  1  0
  1 10  1  0
  1 11  1  0
  1 12  1  0
  2 13  1  0
  2 14  1  0
  4 15  1  0
  4 16  1  0
  5 17  1  0
  6 18  1  0
  7 19  1  0
  7 20  1  0
  7 21  1  0
  8 22  1  0
  9 23  1  0
M  END
