
     RDKit          3D

 23 24  0  0  0  0  0  0  0  0999 V2000
    2.1060    0.4655   -1.3040 C   0  0  0  0  0  0  0  0  0  0  0  0
    1.5867   -0.4039   -0.2163 C   0  0  0  0  0  0  0  0  0  0  0  0
    0.2879    0.0635    0.3811 C   0  0  0  0  0  0  0  0  0  0  0  0
    0.3282    1.4437    1.0093 C   0  0  0  0  0  0  0  0  0  0  0  0
   -0.4180   -1.0305    1.2140 C   0  0  0  0  0  0  0  0  0  0  0  0
   -1.0073   -0.4527    0.0131 C   0  0  0  0  0  0  0  0  0  0  0  0
   -2.2732    0.2955   -0.0517 C   0  0  0  0  0  0  0  0  0  0  0  0
   -2.6384   -0.5017   -1.1624 O   0  0  0  0  0  0  0  0  0  0  0  0
   -1.3879   -1.1636   -1.2077 C   0  0  0  0  0  0  0  0  0  0  0  0
    1.7450    1.5132   -1.2329 H   0  0  0  0  0  0  0  0  0  0  0  0
    3.2145    0.5233   -1.2394 H   0  0  0  0  0  0  0  0  0  0  0  0
    1.9039    0.0394   -2.3315 H   0  0  0  0  0  0  0  0  0  0  0  0
    2.3448   -0.4232    0.6132 H   0  0  0  0  0  0  0  0  0  0  0  0
    1.5346   -1.4502   -0.5821 H   0  0  0  0  0  0  0  0  0  0  0  0
   -0.1725    2.1690    0.3384 H   0  0  0  0  0  0  0  0  0  0  0  0
    1.3764    1.7811    1.1341 H   0  0  0  0  0  0  0  0  0  0  0  0
   -0.1233    1.3908    2.0157 H   0  0  0  0  0  0  0  0  0  0  0  0
   -0.8559   -0.6906    2.1935 H   0  0  0  0  0  0  0  0  0  0  0  0
    0.0385   -2.0145    1.2777 H   0  0  0  0  0  0  0  0  0  0  0  0
   -3.0183    0.1122    0.7525 H   0  0  0  0  0  0  0  0  0  0  0  0
   -2.2428    1.3763   -0.2789 H   0  0  0  0  0  0  0  0  0  0  0  0
   -1.4808   -2.2616   -1.1782 H   0  0  0  0  0  0  0  0  0  0  0  0
   -0.8481   -0.7810   -2.1023 H   0  0  0  0  0  0  0  0  0  0  0  0
  1  2  1  0
  2  3  1  0
  3  4  1  0
  3  5  1  0
  5  6  1  0
  6  7  1  0
  7  8  1  0
  8  9  1  0
  6  3  1  0
  9  6  1  0
  1 10  1  0
  1 11  1  0
  1 12  1  0
  2 13  1  0
  2 14  1  0
  4 15  1  0
  4 16  1  0
  4 17  1  0
  5 18  1  0
  5 19  1  0
  7 20  1  0
  7 21  1  0
  9 22  1  0
  9 23  1  0
M  END
