
     RDKit          3D

 19 20  0  0  0  0  0  0  0  0999 V2000
    1.9979   -0.1809   -0.8184 C   0  0  0  0  0  0  0  0  0  0  0  0
    1.3617    0.0214    0.4949 C   0  0  0  0  0  0  0  0  0  0  0  0
   -0.1240   -0.0096    0.5441 C   0  0  0  0  0  0  0  0  0  0  0  0
   -0.5354    0.2030    1.8833 O   0  0  0  0  0  0  0  0  0  0  0  0
   -0.9105    0.8472   -0.3558 C   0  0  0  0  0  0  0  0  0  0  0  0
   -1.5529    1.9467    0.2240 O   0  0  0  0  0  0  0  0  0  0  0  0
   -1.8323   -0.3454   -0.6000 C   0  0  0  0  0  0  0  0  0  0  0  0
   -1.2261   -1.3924   -1.2355 O   0  0  0  0  0  0  0  0  0  0  0  0
   -0.7887   -1.2608    0.0557 C   0  0  0  0  0  0  0  0  0  0  0  0
    2.4267   -1.2096   -0.9409 H   0  0  0  0  0  0  0  0  0  0  0  0
    1.3866    0.0093   -1.7001 H   0  0  0  0  0  0  0  0  0  0  0  0
    2.8958    0.4987   -0.9108 H   0  0  0  0  0  0  0  0  0  0  0  0
    1.7113    0.9714    0.9510 H   0  0  0  0  0  0  0  0  0  0  0  0
    1.7312   -0.7839    1.1900 H   0  0  0  0  0  0  0  0  0  0  0  0
   -0.0586   -0.4872    2.4037 H   0  0  0  0  0  0  0  0  0  0  0  0
   -0.4815    1.1492   -1.3240 H   0  0  0  0  0  0  0  0  0  0  0  0
   -2.0257    2.4229   -0.5268 H   0  0  0  0  0  0  0  0  0  0  0  0
   -2.8060   -0.3919   -0.1394 H   0  0  0  0  0  0  0  0  0  0  0  0
   -1.1694   -2.0081    0.8049 H   0  0  0  0  0  0  0  0  0  0  0  0
  1  2  1  0
  2  3  1  0
  3  4  1  0
  3  5  1  0
  5  6  1  0
  5  7  1  0
  7  8  1  0
  8  9  1  0
  9  3  1  0
  9  7  1  0
  1 10  1  0
  1 11  1  0
  1 12  1  0
  2 13  1  0
  2 14  1  0
  4 15  1  0
  5 16  1  0
  6 17  1  0
  7 18  1  0
  9 19  1  0
M  END
