
     RDKit          3D

 25 25  0  0  0  0  0  0  0  0999 V2000
    0.5461    2.4786   -0.3463 C   0  0  0  0  0  0  0  0  0  0  0  0
   -0.6605    1.6456   -0.1164 C   0  0  0  0  0  0  0  0  0  0  0  0
   -0.3688    0.1718    0.0501 C   0  0  0  0  0  0  0  0  0  0  0  0
   -1.6639   -0.5576    0.2750 C   0  0  0  0  0  0  0  0  0  0  0  0
   -1.4882   -2.0379    0.4538 C   0  0  0  0  0  0  0  0  0  0  0  0
    0.4619   -0.3109   -1.1047 C   0  0  0  0  0  0  0  0  0  0  0  0
    1.4128   -0.9699   -0.1251 C   0  0  0  0  0  0  0  0  0  0  0  0
    2.7238   -0.5983   -0.4125 O   0  0  0  0  0  0  0  0  0  0  0  0
    0.7538   -0.1736    0.9719 C   0  0  0  0  0  0  0  0  0  0  0  0
    0.5952    3.2741    0.4549 H   0  0  0  0  0  0  0  0  0  0  0  0
    0.3964    3.0747   -1.2945 H   0  0  0  0  0  0  0  0  0  0  0  0
    1.4892    1.9399   -0.4486 H   0  0  0  0  0  0  0  0  0  0  0  0
   -1.2537    2.0179    0.7659 H   0  0  0  0  0  0  0  0  0  0  0  0
   -1.3763    1.7171   -0.9827 H   0  0  0  0  0  0  0  0  0  0  0  0
   -2.1072   -0.1603    1.2125 H   0  0  0  0  0  0  0  0  0  0  0  0
   -2.3564   -0.3417   -0.5471 H   0  0  0  0  0  0  0  0  0  0  0  0
   -0.8591   -2.2763    1.3178 H   0  0  0  0  0  0  0  0  0  0  0  0
   -1.0575   -2.5282   -0.4435 H   0  0  0  0  0  0  0  0  0  0  0  0
   -2.4923   -2.4772    0.5952 H   0  0  0  0  0  0  0  0  0  0  0  0
   -0.0271   -1.0603   -1.7606 H   0  0  0  0  0  0  0  0  0  0  0  0
    0.9136    0.4735   -1.7450 H   0  0  0  0  0  0  0  0  0  0  0  0
    1.2601   -2.0636   -0.0260 H   0  0  0  0  0  0  0  0  0  0  0  0
    3.3874   -1.1472    0.0752 H   0  0  0  0  0  0  0  0  0  0  0  0
    1.3744    0.6673    1.3357 H   0  0  0  0  0  0  0  0  0  0  0  0
    0.3964   -0.7575    1.8447 H   0  0  0  0  0  0  0  0  0  0  0  0
  1  2  1  0
  2  3  1  0
  3  4  1  0
  4  5  1  0
  3  6  1  0
  6  7  1  0
  7  8  1  0
  7  9  1  0
  9  3  1  0
  1 10  1  0
  1 11  1  0
  1 12  1  0
  2 13  1  0
  2 14  1  0
  4 15  1  0
  4 16  1  0
  5 17  1  0
  5 18  1  0
  5 19  1  0
  6 20  1  0
  6 21  1  0
  7 22  1  0
  8 23  1  0
  9 24  1  0
  9 25  1  0
M  END
