
     RDKit          3D

 21 21  0  0  0  0  0  0  0  0999 V2000
    2.7124    0.0155   -0.0682 C   0  0  0  0  0  0  0  0  0  0  0  0
    1.5201   -0.8385   -0.3705 C   0  0  0  0  0  0  0  0  0  0  0  0
    0.2992    0.0353   -0.4751 C   0  0  0  0  0  0  0  0  0  0  0  0
    0.0088    0.7953    0.7810 C   0  0  0  0  0  0  0  0  0  0  0  0
   -1.4573    0.6807    1.0694 C   0  0  0  0  0  0  0  0  0  0  0  0
   -2.0465    0.1507   -0.2383 C   0  0  0  0  0  0  0  0  0  0  0  0
   -3.2379   -0.5197   -0.0283 O   0  0  0  0  0  0  0  0  0  0  0  0
   -0.9481   -0.7241   -0.6981 C   0  0  0  0  0  0  0  0  0  0  0  0
   -1.0292   -1.8305   -1.1618 O   0  0  0  0  0  0  0  0  0  0  0  0
    3.6145   -0.6280   -0.0175 H   0  0  0  0  0  0  0  0  0  0  0  0
    2.6396    0.6002    0.8497 H   0  0  0  0  0  0  0  0  0  0  0  0
    2.8748    0.6819   -0.9562 H   0  0  0  0  0  0  0  0  0  0  0  0
    1.3320   -1.6301    0.3528 H   0  0  0  0  0  0  0  0  0  0  0  0
    1.6832   -1.2847   -1.3829 H   0  0  0  0  0  0  0  0  0  0  0  0
    0.3846    0.7618   -1.3280 H   0  0  0  0  0  0  0  0  0  0  0  0
    0.2379    1.8692    0.6365 H   0  0  0  0  0  0  0  0  0  0  0  0
    0.6450    0.4445    1.6211 H   0  0  0  0  0  0  0  0  0  0  0  0
   -1.6783   -0.1176    1.8387 H   0  0  0  0  0  0  0  0  0  0  0  0
   -1.9323    1.6363    1.3305 H   0  0  0  0  0  0  0  0  0  0  0  0
   -2.2099    1.0034   -0.9428 H   0  0  0  0  0  0  0  0  0  0  0  0
   -3.4126   -1.1016   -0.8118 H   0  0  0  0  0  0  0  0  0  0  0  0
  1  2  1  0
  2  3  1  0
  3  4  1  0
  4  5  1  0
  5  6  1  0
  6  7  1  0
  6  8  1  0
  8  9  2  0
  8  3  1  0
  1 10  1  0
  1 11  1  0
  1 12  1  0
  2 13  1  0
  2 14  1  0
  3 15  1  0
  4 16  1  0
  4 17  1  0
  5 18  1  0
  5 19  1  0
  6 20  1  0
  7 21  1  0
M  END
