
     RDKit          3D

 23 24  0  0  0  0  0  0  0  0999 V2000
   -2.8128   -0.2797   -0.6144 C   0  0  0  0  0  0  0  0  0  0  0  0
   -1.7557    0.7539   -0.2827 C   0  0  0  0  0  0  0  0  0  0  0  0
   -0.6621    0.0635    0.4467 C   0  0  0  0  0  0  0  0  0  0  0  0
   -0.0340   -1.0554   -0.4073 C   0  0  0  0  0  0  0  0  0  0  0  0
    1.2683   -0.4442   -0.7396 C   0  0  0  0  0  0  0  0  0  0  0  0
    2.5491   -0.4516   -0.1667 C   0  0  0  0  0  0  0  0  0  0  0  0
    3.5166    0.4929   -0.5821 O   0  0  0  0  0  0  0  0  0  0  0  0
    1.5855   -0.0280    0.7563 C   0  0  0  0  0  0  0  0  0  0  0  0
    0.5185    0.9980    0.7650 C   0  0  0  0  0  0  0  0  0  0  0  0
   -3.0054   -0.2468   -1.7082 H   0  0  0  0  0  0  0  0  0  0  0  0
   -3.7858   -0.0298   -0.1234 H   0  0  0  0  0  0  0  0  0  0  0  0
   -2.4918   -1.3122   -0.3728 H   0  0  0  0  0  0  0  0  0  0  0  0
   -2.2045    1.5043    0.3621 H   0  0  0  0  0  0  0  0  0  0  0  0
   -1.3325    1.2269   -1.1879 H   0  0  0  0  0  0  0  0  0  0  0  0
   -1.0254   -0.3772    1.3952 H   0  0  0  0  0  0  0  0  0  0  0  0
    0.0553   -1.9829    0.1615 H   0  0  0  0  0  0  0  0  0  0  0  0
   -0.6774   -1.1621   -1.2935 H   0  0  0  0  0  0  0  0  0  0  0  0
    1.0813    0.4210   -1.4504 H   0  0  0  0  0  0  0  0  0  0  0  0
    3.0627   -1.4460   -0.0384 H   0  0  0  0  0  0  0  0  0  0  0  0
    3.8957    0.9493    0.2247 H   0  0  0  0  0  0  0  0  0  0  0  0
    1.3046   -0.8081    1.5355 H   0  0  0  0  0  0  0  0  0  0  0  0
    0.5806    1.6764   -0.1343 H   0  0  0  0  0  0  0  0  0  0  0  0
    0.3691    1.5376    1.6982 H   0  0  0  0  0  0  0  0  0  0  0  0
  1  2  1  0
  2  3  1  0
  3  4  1  0
  4  5  1  0
  5  6  1  0
  6  7  1  0
  6  8  1  0
  8  9  1  0
  9  3  1  0
  8  5  1  0
  1 10  1  0
  1 11  1  0
  1 12  1  0
  2 13  1  0
  2 14  1  0
  3 15  1  0
  4 16  1  0
  4 17  1  0
  5 18  1  0
  6 19  1  0
  7 20  1  0
  8 21  1  0
  9 22  1  0
  9 23  1  0
M  END
