
     RDKit          3D

 23 23  0  0  0  0  0  0  0  0999 V2000
    2.6933    0.8383   -0.1131 C   0  0  0  0  0  0  0  0  0  0  0  0
    1.7851   -0.2525   -0.6259 C   0  0  0  0  0  0  0  0  0  0  0  0
    0.9374   -0.7264    0.5184 C   0  0  0  0  0  0  0  0  0  0  0  0
   -0.0675   -1.8387    0.2331 C   0  0  0  0  0  0  0  0  0  0  0  0
   -0.2121   -2.8389    1.1746 O   0  0  0  0  0  0  0  0  0  0  0  0
   -0.5068   -0.4191    0.6066 C   0  0  0  0  0  0  0  0  0  0  0  0
   -1.2291    0.3230   -0.4659 C   0  0  0  0  0  0  0  0  0  0  0  0
   -2.6780    0.4572   -0.0498 C   0  0  0  0  0  0  0  0  0  0  0  0
   -0.7122    1.5879   -0.7143 O   0  0  0  0  0  0  0  0  0  0  0  0
    2.5592    1.0311    0.9772 H   0  0  0  0  0  0  0  0  0  0  0  0
    2.3864    1.7797   -0.6237 H   0  0  0  0  0  0  0  0  0  0  0  0
    3.7623    0.6130   -0.2731 H   0  0  0  0  0  0  0  0  0  0  0  0
    1.1905    0.0763   -1.4996 H   0  0  0  0  0  0  0  0  0  0  0  0
    2.3979   -1.1210   -0.9836 H   0  0  0  0  0  0  0  0  0  0  0  0
    1.4673   -0.8153    1.4885 H   0  0  0  0  0  0  0  0  0  0  0  0
   -0.1496   -2.1374   -0.8367 H   0  0  0  0  0  0  0  0  0  0  0  0
   -0.9407   -2.6676    1.8185 H   0  0  0  0  0  0  0  0  0  0  0  0
   -0.9637   -0.3483    1.6142 H   0  0  0  0  0  0  0  0  0  0  0  0
   -1.2096   -0.2277   -1.4476 H   0  0  0  0  0  0  0  0  0  0  0  0
   -2.7043    0.9416    0.9550 H   0  0  0  0  0  0  0  0  0  0  0  0
   -3.2453    1.0981   -0.7556 H   0  0  0  0  0  0  0  0  0  0  0  0
   -3.0908   -0.5636    0.0238 H   0  0  0  0  0  0  0  0  0  0  0  0
   -1.4697    2.1470   -1.0210 H   0  0  0  0  0  0  0  0  0  0  0  0
  1  2  1  0
  2  3  1  0
  3  4  1  0
  4  5  1  0
  4  6  1  0
  6  7  1  0
  7  8  1  0
  7  9  1  0
  6  3  1  0
  1 10  1  0
  1 11  1  0
  1 12  1  0
  2 13  1  0
  2 14  1  0
  3 15  1  0
  4 16  1  0
  5 17  1  0
  6 18  1  0
  7 19  1  0
  8 20  1  0
  8 21  1  0
  8 22  1  0
  9 23  1  0
M  END
