
     RDKit          3D

 23 25  0  0  0  0  0  0  0  0999 V2000
    2.7705   -0.3768    0.4248 C   0  0  0  0  0  0  0  0  0  0  0  0
    1.6767    0.6532    0.7261 C   0  0  0  0  0  0  0  0  0  0  0  0
    0.3479   -0.0150    0.6868 C   0  0  0  0  0  0  0  0  0  0  0  0
   -0.0051   -0.6487   -0.6276 C   0  0  0  0  0  0  0  0  0  0  0  0
   -1.2415   -1.4823   -0.6234 C   0  0  0  0  0  0  0  0  0  0  0  0
   -2.2337   -1.4080    0.4609 C   0  0  0  0  0  0  0  0  0  0  0  0
   -2.0265   -0.1745   -0.3326 C   0  0  0  0  0  0  0  0  0  0  0  0
   -0.7625    0.5748   -0.0889 C   0  0  0  0  0  0  0  0  0  0  0  0
   -0.6330    1.8716   -0.8233 C   0  0  0  0  0  0  0  0  0  0  0  0
    2.4014   -1.4002    0.6389 H   0  0  0  0  0  0  0  0  0  0  0  0
    3.7048   -0.1349    0.9715 H   0  0  0  0  0  0  0  0  0  0  0  0
    2.9735   -0.3492   -0.6727 H   0  0  0  0  0  0  0  0  0  0  0  0
    1.8754    0.9879    1.7704 H   0  0  0  0  0  0  0  0  0  0  0  0
    1.8038    1.4944    0.0417 H   0  0  0  0  0  0  0  0  0  0  0  0
    0.1082   -0.6372    1.5717 H   0  0  0  0  0  0  0  0  0  0  0  0
    0.5431   -0.4376   -1.5402 H   0  0  0  0  0  0  0  0  0  0  0  0
   -1.4818   -2.0198   -1.5470 H   0  0  0  0  0  0  0  0  0  0  0  0
   -3.1693   -1.9671    0.3083 H   0  0  0  0  0  0  0  0  0  0  0  0
   -1.9459   -1.3342    1.5311 H   0  0  0  0  0  0  0  0  0  0  0  0
   -2.6968    0.1340   -1.1360 H   0  0  0  0  0  0  0  0  0  0  0  0
   -1.6376    2.3846   -0.7467 H   0  0  0  0  0  0  0  0  0  0  0  0
   -0.4930    1.7299   -1.9344 H   0  0  0  0  0  0  0  0  0  0  0  0
    0.1215    2.5553   -0.4142 H   0  0  0  0  0  0  0  0  0  0  0  0
  1  2  1  0
  2  3  1  0
  3  4  1  0
  4  5  1  0
  5  6  1  0
  6  7  1  0
  7  8  1  0
  8  9  1  0
  8  3  1  0
  8  4  1  0
  7  5  1  0
  1 10  1  0
  1 11  1  0
  1 12  1  0
  2 13  1  0
  2 14  1  0
  3 15  1  0
  4 16  1  0
  5 17  1  0
  6 18  1  0
  6 19  1  0
  7 20  1  0
  9 21  1  0
  9 22  1  0
  9 23  1  0
M  END
