
     RDKit          3D

 23 24  0  0  0  0  0  0  0  0999 V2000
   -3.1825    0.6169    0.4961 C   0  0  0  0  0  0  0  0  0  0  0  0
   -2.2176   -0.5221    0.4582 C   0  0  0  0  0  0  0  0  0  0  0  0
   -0.7930   -0.1063    0.6344 C   0  0  0  0  0  0  0  0  0  0  0  0
    0.2139   -1.2455    0.6004 C   0  0  0  0  0  0  0  0  0  0  0  0
    0.1095   -0.2422   -0.5326 C   0  0  0  0  0  0  0  0  0  0  0  0
    1.2651    0.6665   -0.7474 C   0  0  0  0  0  0  0  0  0  0  0  0
    2.3547    0.7868    0.2953 C   0  0  0  0  0  0  0  0  0  0  0  0
    2.6081   -0.0817   -0.8521 C   0  0  0  0  0  0  0  0  0  0  0  0
    3.3495    0.3036   -1.9448 O   0  0  0  0  0  0  0  0  0  0  0  0
   -3.2260    1.0680   -0.5233 H   0  0  0  0  0  0  0  0  0  0  0  0
   -4.1978    0.1910    0.6801 H   0  0  0  0  0  0  0  0  0  0  0  0
   -2.9352    1.3833    1.2566 H   0  0  0  0  0  0  0  0  0  0  0  0
   -2.4296   -1.2960    1.2503 H   0  0  0  0  0  0  0  0  0  0  0  0
   -2.3762   -1.0617   -0.5134 H   0  0  0  0  0  0  0  0  0  0  0  0
   -0.6133    0.6048    1.4467 H   0  0  0  0  0  0  0  0  0  0  0  0
   -0.1823   -2.2677    0.3756 H   0  0  0  0  0  0  0  0  0  0  0  0
    1.0645   -1.2596    1.2850 H   0  0  0  0  0  0  0  0  0  0  0  0
   -0.3743   -0.6310   -1.4692 H   0  0  0  0  0  0  0  0  0  0  0  0
    1.1380    1.5681   -1.3893 H   0  0  0  0  0  0  0  0  0  0  0  0
    2.9158    1.7673    0.3386 H   0  0  0  0  0  0  0  0  0  0  0  0
    2.1612    0.3788    1.2833 H   0  0  0  0  0  0  0  0  0  0  0  0
    2.6185   -1.1685   -0.6553 H   0  0  0  0  0  0  0  0  0  0  0  0
    2.7289    0.5472   -2.6802 H   0  0  0  0  0  0  0  0  0  0  0  0
  1  2  1  0
  2  3  1  0
  3  4  1  0
  4  5  1  0
  5  6  1  0
  6  7  1  0
  7  8  1  0
  8  9  1  0
  5  3  1  0
  8  6  1  0
  1 10  1  0
  1 11  1  0
  1 12  1  0
  2 13  1  0
  2 14  1  0
  3 15  1  0
  4 16  1  0
  4 17  1  0
  5 18  1  0
  6 19  1  0
  7 20  1  0
  7 21  1  0
  8 22  1  0
  9 23  1  0
M  END
