
     RDKit          3D

 16 17  0  0  0  0  0  0  0  0999 V2000
    1.8321    0.2434    0.3615 C   0  0  0  0  0  0  0  0  0  0  0  0
    0.8517    0.1140   -0.7892 C   0  0  0  0  0  0  0  0  0  0  0  0
   -0.2381   -0.8128   -0.2441 C   0  0  0  0  0  0  0  0  0  0  0  0
   -0.8605   -0.1651    0.9780 C   0  0  0  0  0  0  0  0  0  0  0  0
   -1.4144    0.7316   -0.0740 C   0  0  0  0  0  0  0  0  0  0  0  0
   -1.5521    1.8866   -0.2356 O   0  0  0  0  0  0  0  0  0  0  0  0
   -1.6805   -0.5237   -0.7604 C   0  0  0  0  0  0  0  0  0  0  0  0
   -0.8448   -1.4617   -1.2198 O   0  0  0  0  0  0  0  0  0  0  0  0
    1.6309    1.2009    0.8788 H   0  0  0  0  0  0  0  0  0  0  0  0
    1.8014   -0.6211    1.0451 H   0  0  0  0  0  0  0  0  0  0  0  0
    2.8620    0.2498   -0.0771 H   0  0  0  0  0  0  0  0  0  0  0  0
    0.4810    1.0963   -1.0670 H   0  0  0  0  0  0  0  0  0  0  0  0
    1.3620   -0.3257   -1.6645 H   0  0  0  0  0  0  0  0  0  0  0  0
   -1.5926   -0.8542    1.4315 H   0  0  0  0  0  0  0  0  0  0  0  0
   -0.1243    0.2926    1.6259 H   0  0  0  0  0  0  0  0  0  0  0  0
   -2.5138   -1.0509   -0.1890 H   0  0  0  0  0  0  0  0  0  0  0  0
  1  2  1  0
  2  3  1  0
  3  4  1  0
  4  5  1  0
  5  6  2  0
  5  7  1  0
  7  8  1  0
  7  3  1  0
  8  3  1  0
  1  9  1  0
  1 10  1  0
  1 11  1  0
  2 12  1  0
  2 13  1  0
  4 14  1  0
  4 15  1  0
  7 16  1  0
M  END
