
     RDKit          3D

 25 25  0  0  0  0  0  0  0  0999 V2000
    2.4687    1.0371   -0.0397 C   0  0  0  0  0  0  0  0  0  0  0  0
    1.8637    0.0993   -1.0264 C   0  0  0  0  0  0  0  0  0  0  0  0
    0.4662   -0.3394   -0.6732 C   0  0  0  0  0  0  0  0  0  0  0  0
    0.3681   -1.0452    0.6245 C   0  0  0  0  0  0  0  0  0  0  0  0
   -1.0144   -1.5439    0.8559 C   0  0  0  0  0  0  0  0  0  0  0  0
   -2.1073   -0.7503    0.2350 C   0  0  0  0  0  0  0  0  0  0  0  0
   -1.7990    0.6266   -0.1820 C   0  0  0  0  0  0  0  0  0  0  0  0
   -2.1660    1.5910    0.7796 O   0  0  0  0  0  0  0  0  0  0  0  0
   -0.3924    0.9114   -0.5791 C   0  0  0  0  0  0  0  0  0  0  0  0
    3.5630    1.0999   -0.2628 H   0  0  0  0  0  0  0  0  0  0  0  0
    2.4118    0.6180    0.9946 H   0  0  0  0  0  0  0  0  0  0  0  0
    2.0866    2.0685   -0.1068 H   0  0  0  0  0  0  0  0  0  0  0  0
    1.8961    0.5535   -2.0366 H   0  0  0  0  0  0  0  0  0  0  0  0
    2.5259   -0.8138   -1.0784 H   0  0  0  0  0  0  0  0  0  0  0  0
    0.0623   -0.9437   -1.5028 H   0  0  0  0  0  0  0  0  0  0  0  0
    0.6686   -0.3892    1.4613 H   0  0  0  0  0  0  0  0  0  0  0  0
    1.0902   -1.9023    0.6141 H   0  0  0  0  0  0  0  0  0  0  0  0
   -1.1560   -1.6095    1.9766 H   0  0  0  0  0  0  0  0  0  0  0  0
   -1.0505   -2.6032    0.5114 H   0  0  0  0  0  0  0  0  0  0  0  0
   -2.9594   -0.7122    0.9636 H   0  0  0  0  0  0  0  0  0  0  0  0
   -2.5245   -1.3373   -0.6321 H   0  0  0  0  0  0  0  0  0  0  0  0
   -2.4523    0.8825   -1.0655 H   0  0  0  0  0  0  0  0  0  0  0  0
   -1.6448    1.4880    1.6129 H   0  0  0  0  0  0  0  0  0  0  0  0
   -0.3155    1.3992   -1.5761 H   0  0  0  0  0  0  0  0  0  0  0  0
    0.1106    1.6149    0.1323 H   0  0  0  0  0  0  0  0  0  0  0  0
  1  2  1  0
  2  3  1  0
  3  4  1  0
  4  5  1  0
  5  6  1  0
  6  7  1  0
  7  8  1  0
  7  9  1  0
  9  3  1  0
  1 10  1  0
  1 11  1  0
  1 12  1  0
  2 13  1  0
  2 14  1  0
  3 15  1  0
  4 16  1  0
  4 17  1  0
  5 18  1  0
  5 19  1  0
  6 20  1  0
  6 21  1  0
  7 22  1  0
  8 23  1  0
  9 24  1  0
  9 25  1  0
M  END
