
     RDKit          3D

 23 23  0  0  0  0  0  0  0  0999 V2000
   -1.5860    2.1108    0.3669 C   0  0  0  0  0  0  0  0  0  0  0  0
   -0.3986    1.4954   -0.3493 C   0  0  0  0  0  0  0  0  0  0  0  0
   -0.2009    0.0624   -0.0139 C   0  0  0  0  0  0  0  0  0  0  0  0
   -1.3602   -0.8730   -0.3469 C   0  0  0  0  0  0  0  0  0  0  0  0
   -1.0028   -2.2734    0.0512 C   0  0  0  0  0  0  0  0  0  0  0  0
    0.4835   -0.3602    1.1105 O   0  0  0  0  0  0  0  0  0  0  0  0
    1.1728   -0.4947   -0.0978 C   0  0  0  0  0  0  0  0  0  0  0  0
    2.4152    0.3058   -0.1643 C   0  0  0  0  0  0  0  0  0  0  0  0
    3.2522   -0.1536    0.8854 O   0  0  0  0  0  0  0  0  0  0  0  0
   -2.0426    1.3612    1.0371 H   0  0  0  0  0  0  0  0  0  0  0  0
   -1.2157    3.0002    0.9088 H   0  0  0  0  0  0  0  0  0  0  0  0
   -2.3737    2.4708   -0.3235 H   0  0  0  0  0  0  0  0  0  0  0  0
   -0.6654    1.5345   -1.4476 H   0  0  0  0  0  0  0  0  0  0  0  0
    0.5012    2.1192   -0.2626 H   0  0  0  0  0  0  0  0  0  0  0  0
   -1.6719   -0.7802   -1.3993 H   0  0  0  0  0  0  0  0  0  0  0  0
   -2.2146   -0.5273    0.2749 H   0  0  0  0  0  0  0  0  0  0  0  0
   -0.1282   -2.3012    0.7598 H   0  0  0  0  0  0  0  0  0  0  0  0
   -0.7927   -2.8560   -0.8711 H   0  0  0  0  0  0  0  0  0  0  0  0
   -1.8300   -2.7761    0.6126 H   0  0  0  0  0  0  0  0  0  0  0  0
    1.2796   -1.5224   -0.5230 H   0  0  0  0  0  0  0  0  0  0  0  0
    2.3099    1.3902    0.0065 H   0  0  0  0  0  0  0  0  0  0  0  0
    2.9556    0.2000   -1.1413 H   0  0  0  0  0  0  0  0  0  0  0  0
    3.1134   -1.1324    0.9267 H   0  0  0  0  0  0  0  0  0  0  0  0
  1  2  1  0
  2  3  1  0
  3  4  1  0
  4  5  1  0
  3  6  1  0
  6  7  1  0
  7  8  1  0
  8  9  1  0
  7  3  1  0
  1 10  1  0
  1 11  1  0
  1 12  1  0
  2 13  1  0
  2 14  1  0
  4 15  1  0
  4 16  1  0
  5 17  1  0
  5 18  1  0
  5 19  1  0
  7 20  1  0
  8 21  1  0
  8 22  1  0
  9 23  1  0
M  END
