
     RDKit          3D

 23 24  0  0  0  0  0  0  0  0999 V2000
    2.4585    0.5709    0.3308 C   0  0  0  0  0  0  0  0  0  0  0  0
    1.1369    0.0844    0.8743 C   0  0  0  0  0  0  0  0  0  0  0  0
    0.1620   -0.2864   -0.1823 C   0  0  0  0  0  0  0  0  0  0  0  0
    0.7951   -1.4275   -1.0278 C   0  0  0  0  0  0  0  0  0  0  0  0
    0.0183    0.7985   -1.0569 O   0  0  0  0  0  0  0  0  0  0  0  0
   -1.3468    1.1917   -1.0056 C   0  0  0  0  0  0  0  0  0  0  0  0
   -1.6656    0.8158    0.3933 C   0  0  0  0  0  0  0  0  0  0  0  0
   -2.2130   -0.3002    1.0475 C   0  0  0  0  0  0  0  0  0  0  0  0
   -1.1868   -0.6745    0.1439 C   0  0  0  0  0  0  0  0  0  0  0  0
    2.4182    1.6294    0.0013 H   0  0  0  0  0  0  0  0  0  0  0  0
    3.1927    0.5622    1.1845 H   0  0  0  0  0  0  0  0  0  0  0  0
    2.8570   -0.0175   -0.4845 H   0  0  0  0  0  0  0  0  0  0  0  0
    0.7976    0.8705    1.5647 H   0  0  0  0  0  0  0  0  0  0  0  0
    1.3328   -0.8248    1.5063 H   0  0  0  0  0  0  0  0  0  0  0  0
    1.0899   -2.2406   -0.3536 H   0  0  0  0  0  0  0  0  0  0  0  0
    1.5693   -1.0469   -1.6861 H   0  0  0  0  0  0  0  0  0  0  0  0
   -0.0369   -1.8211   -1.6523 H   0  0  0  0  0  0  0  0  0  0  0  0
   -1.4608    2.2644   -1.1472 H   0  0  0  0  0  0  0  0  0  0  0  0
   -1.9490    0.5989   -1.7175 H   0  0  0  0  0  0  0  0  0  0  0  0
   -1.0155    1.4373    1.0602 H   0  0  0  0  0  0  0  0  0  0  0  0
   -2.0086   -0.5108    2.1337 H   0  0  0  0  0  0  0  0  0  0  0  0
   -3.2967   -0.5214    0.8642 H   0  0  0  0  0  0  0  0  0  0  0  0
   -1.6485   -1.1523   -0.7908 H   0  0  0  0  0  0  0  0  0  0  0  0
  1  2  1  0
  2  3  1  0
  3  4  1  0
  3  5  1  0
  5  6  1  0
  6  7  1  0
  7  8  1  0
  8  9  1  0
  9  3  1  0
  9  7  1  0
  1 10  1  0
  1 11  1  0
  1 12  1  0
  2 13  1  0
  2 14  1  0
  4 15  1  0
  4 16  1  0
  4 17  1  0
  6 18  1  0
  6 19  1  0
  7 20  1  0
  8 21  1  0
  8 22  1  0
  9 23  1  0
M  END
