
     RDKit          3D

 23 24  0  0  0  0  0  0  0  0999 V2000
    2.7519    0.0794    0.7000 C   0  0  0  0  0  0  0  0  0  0  0  0
    1.6417   -0.8317    0.2111 C   0  0  0  0  0  0  0  0  0  0  0  0
    0.5795   -0.0431   -0.5416 C   0  0  0  0  0  0  0  0  0  0  0  0
   -0.0354    1.0114    0.3613 C   0  0  0  0  0  0  0  0  0  0  0  0
   -1.2104    0.2568    0.9396 C   0  0  0  0  0  0  0  0  0  0  0  0
   -2.3769    0.4500   -0.0057 C   0  0  0  0  0  0  0  0  0  0  0  0
   -1.7756   -0.1653   -1.2790 C   0  0  0  0  0  0  0  0  0  0  0  0
   -0.6338   -0.9562   -0.7026 C   0  0  0  0  0  0  0  0  0  0  0  0
   -0.9439   -1.1082    0.6717 O   0  0  0  0  0  0  0  0  0  0  0  0
    2.5363    0.4540    1.7350 H   0  0  0  0  0  0  0  0  0  0  0  0
    3.7018   -0.5041    0.8011 H   0  0  0  0  0  0  0  0  0  0  0  0
    2.8727    0.9283    0.0158 H   0  0  0  0  0  0  0  0  0  0  0  0
    1.2255   -1.3585    1.0715 H   0  0  0  0  0  0  0  0  0  0  0  0
    2.1085   -1.5328   -0.5097 H   0  0  0  0  0  0  0  0  0  0  0  0
    0.9582    0.3405   -1.4776 H   0  0  0  0  0  0  0  0  0  0  0  0
    0.6540    1.3970    1.1110 H   0  0  0  0  0  0  0  0  0  0  0  0
   -0.4004    1.8484   -0.3040 H   0  0  0  0  0  0  0  0  0  0  0  0
   -1.4220    0.4589    1.9714 H   0  0  0  0  0  0  0  0  0  0  0  0
   -3.2190   -0.2257    0.2828 H   0  0  0  0  0  0  0  0  0  0  0  0
   -2.6656    1.4868   -0.1431 H   0  0  0  0  0  0  0  0  0  0  0  0
   -1.4040    0.6683   -1.9189 H   0  0  0  0  0  0  0  0  0  0  0  0
   -2.5268   -0.7670   -1.7944 H   0  0  0  0  0  0  0  0  0  0  0  0
   -0.4162   -1.8871   -1.1957 H   0  0  0  0  0  0  0  0  0  0  0  0
  1  2  1  0
  2  3  1  0
  3  4  1  0
  4  5  1  0
  5  6  1  0
  6  7  1  0
  7  8  1  0
  8  9  1  0
  8  3  1  0
  9  5  1  0
  1 10  1  0
  1 11  1  0
  1 12  1  0
  2 13  1  0
  2 14  1  0
  3 15  1  0
  4 16  1  0
  4 17  1  0
  5 18  1  0
  6 19  1  0
  6 20  1  0
  7 21  1  0
  7 22  1  0
  8 23  1  0
M  END
