
     RDKit          3D

 21 21  0  0  0  0  0  0  0  0999 V2000
    1.9627    1.2146    0.3387 C   0  0  0  0  0  0  0  0  0  0  0  0
    0.5692    1.0633   -0.1274 C   0  0  0  0  0  0  0  0  0  0  0  0
    0.0252   -0.3093   -0.1969 C   0  0  0  0  0  0  0  0  0  0  0  0
   -1.3848   -0.2945   -0.6829 C   0  0  0  0  0  0  0  0  0  0  0  0
   -2.4713    0.4301    0.0402 C   0  0  0  0  0  0  0  0  0  0  0  0
   -1.7084   -0.8914   -1.7181 O   0  0  0  0  0  0  0  0  0  0  0  0
    0.7984   -1.3960   -0.8193 C   0  0  0  0  0  0  0  0  0  0  0  0
    0.3713   -2.2765    0.1840 O   0  0  0  0  0  0  0  0  0  0  0  0
    0.1571   -1.1740    1.0085 C   0  0  0  0  0  0  0  0  0  0  0  0
    2.6181    0.3555    0.2188 H   0  0  0  0  0  0  0  0  0  0  0  0
    2.4806    2.0837   -0.1632 H   0  0  0  0  0  0  0  0  0  0  0  0
    1.9769    1.4928    1.4305 H   0  0  0  0  0  0  0  0  0  0  0  0
    0.4910    1.5191   -1.1498 H   0  0  0  0  0  0  0  0  0  0  0  0
   -0.1026    1.6752    0.5122 H   0  0  0  0  0  0  0  0  0  0  0  0
   -2.0998    1.2453    0.6731 H   0  0  0  0  0  0  0  0  0  0  0  0
   -3.0713   -0.2736    0.6289 H   0  0  0  0  0  0  0  0  0  0  0  0
   -3.1139    0.9092   -0.7474 H   0  0  0  0  0  0  0  0  0  0  0  0
    1.8826   -1.3299   -0.8796 H   0  0  0  0  0  0  0  0  0  0  0  0
    0.3698   -1.7524   -1.7966 H   0  0  0  0  0  0  0  0  0  0  0  0
    1.0293   -0.9941    1.6597 H   0  0  0  0  0  0  0  0  0  0  0  0
   -0.7802   -1.2970    1.5867 H   0  0  0  0  0  0  0  0  0  0  0  0
  1  2  1  0
  2  3  1  0
  3  4  1  0
  4  5  1  0
  4  6  2  0
  3  7  1  0
  7  8  1  0
  8  9  1  0
  9  3  1  0
  1 10  1  0
  1 11  1  0
  1 12  1  0
  2 13  1  0
  2 14  1  0
  5 15  1  0
  5 16  1  0
  5 17  1  0
  7 18  1  0
  7 19  1  0
  9 20  1  0
  9 21  1  0
M  END
