
     RDKit          3D

 21 21  0  0  0  0  0  0  0  0999 V2000
    2.3784    0.5299    0.1747 C   0  0  0  0  0  0  0  0  0  0  0  0
    1.1920    0.2058   -0.6584 C   0  0  0  0  0  0  0  0  0  0  0  0
    0.0669   -0.4485    0.0937 C   0  0  0  0  0  0  0  0  0  0  0  0
    0.3616   -1.7279    0.7465 C   0  0  0  0  0  0  0  0  0  0  0  0
    1.0097   -2.5693    0.1797 O   0  0  0  0  0  0  0  0  0  0  0  0
   -0.6104    0.5629    1.0177 C   0  0  0  0  0  0  0  0  0  0  0  0
   -1.6808    0.7374   -0.0186 C   0  0  0  0  0  0  0  0  0  0  0  0
   -2.9360    0.6443    0.5540 O   0  0  0  0  0  0  0  0  0  0  0  0
   -1.2209   -0.5239   -0.6896 C   0  0  0  0  0  0  0  0  0  0  0  0
    2.6643   -0.2848    0.8686 H   0  0  0  0  0  0  0  0  0  0  0  0
    3.2563    0.6994   -0.4864 H   0  0  0  0  0  0  0  0  0  0  0  0
    2.2557    1.4541    0.7906 H   0  0  0  0  0  0  0  0  0  0  0  0
    1.5219   -0.5010   -1.4627 H   0  0  0  0  0  0  0  0  0  0  0  0
    0.8249    1.1286   -1.1521 H   0  0  0  0  0  0  0  0  0  0  0  0
    0.0013   -1.9226    1.7341 H   0  0  0  0  0  0  0  0  0  0  0  0
    0.0185    1.4788    1.1953 H   0  0  0  0  0  0  0  0  0  0  0  0
   -0.9277    0.1574    1.9898 H   0  0  0  0  0  0  0  0  0  0  0  0
   -1.5262    1.6034   -0.6880 H   0  0  0  0  0  0  0  0  0  0  0  0
   -3.6666    0.6219   -0.1265 H   0  0  0  0  0  0  0  0  0  0  0  0
   -1.8838   -1.3703   -0.4080 H   0  0  0  0  0  0  0  0  0  0  0  0
   -1.0993   -0.4756   -1.7835 H   0  0  0  0  0  0  0  0  0  0  0  0
  1  2  1  0
  2  3  1  0
  3  4  1  0
  4  5  2  0
  3  6  1  0
  6  7  1  0
  7  8  1  0
  7  9  1  0
  9  3  1  0
  1 10  1  0
  1 11  1  0
  1 12  1  0
  2 13  1  0
  2 14  1  0
  4 15  1  0
  6 16  1  0
  6 17  1  0
  7 18  1  0
  8 19  1  0
  9 20  1  0
  9 21  1  0
M  END
