
     RDKit          3D

 19 22  0  0  0  0  0  0  0  0999 V2000
    2.5217   -0.1365   -0.2510 C   0  0  0  0  0  0  0  0  0  0  0  0
    1.3118    0.1244    0.6470 C   0  0  0  0  0  0  0  0  0  0  0  0
    0.0704    0.1220   -0.0342 C   0  0  0  0  0  0  0  0  0  0  0  0
   -0.5582   -0.9858   -0.8178 C   0  0  0  0  0  0  0  0  0  0  0  0
   -1.6181   -1.0953    0.1233 C   0  0  0  0  0  0  0  0  0  0  0  0
   -1.6424   -0.1222   -1.1036 C   0  0  0  0  0  0  0  0  0  0  0  0
   -1.0809    0.9111   -0.1868 C   0  0  0  0  0  0  0  0  0  0  0  0
   -1.3075    2.2182   -0.2688 O   0  0  0  0  0  0  0  0  0  0  0  0
   -1.1690    0.0168    0.9214 C   0  0  0  0  0  0  0  0  0  0  0  0
    3.3629   -0.3960    0.4254 H   0  0  0  0  0  0  0  0  0  0  0  0
    2.3093   -0.9880   -0.8937 H   0  0  0  0  0  0  0  0  0  0  0  0
    2.7554    0.8037   -0.8158 H   0  0  0  0  0  0  0  0  0  0  0  0
    1.4947    1.0495    1.2010 H   0  0  0  0  0  0  0  0  0  0  0  0
    1.3615   -0.7008    1.4205 H   0  0  0  0  0  0  0  0  0  0  0  0
   -0.0294   -1.7054   -1.3917 H   0  0  0  0  0  0  0  0  0  0  0  0
   -2.4112   -1.7780    0.2518 H   0  0  0  0  0  0  0  0  0  0  0  0
   -2.5285   -0.1215   -1.6413 H   0  0  0  0  0  0  0  0  0  0  0  0
   -1.8094    2.6518    0.4552 H   0  0  0  0  0  0  0  0  0  0  0  0
   -1.0330    0.1320    1.9592 H   0  0  0  0  0  0  0  0  0  0  0  0
  1  2  1  0
  2  3  1  0
  3  4  1  0
  4  5  1  0
  5  6  1  0
  6  7  1  0
  7  8  1  0
  7  9  1  0
  7  3  1  0
  9  3  1  0
  6  4  1  0
  9  5  1  0
  1 10  1  0
  1 11  1  0
  1 12  1  0
  2 13  1  0
  2 14  1  0
  4 15  1  0
  5 16  1  0
  6 17  1  0
  8 18  1  0
  9 19  1  0
M  END
