
     RDKit          3D

 23 24  0  0  0  0  0  0  0  0999 V2000
   -2.6432    0.5419    0.3912 C   0  0  0  0  0  0  0  0  0  0  0  0
   -1.7998   -0.4346   -0.3954 C   0  0  0  0  0  0  0  0  0  0  0  0
   -0.3239   -0.1425   -0.2846 C   0  0  0  0  0  0  0  0  0  0  0  0
    0.4781   -1.1269   -1.0738 C   0  0  0  0  0  0  0  0  0  0  0  0
    1.8423   -1.2435   -0.3982 C   0  0  0  0  0  0  0  0  0  0  0  0
    2.2688    0.1779   -0.0919 C   0  0  0  0  0  0  0  0  0  0  0  0
    1.0950    0.8747    0.5447 C   0  0  0  0  0  0  0  0  0  0  0  0
    0.0790    1.2852   -0.5172 C   0  0  0  0  0  0  0  0  0  0  0  0
    0.1355   -0.0130    1.0261 O   0  0  0  0  0  0  0  0  0  0  0  0
   -2.8381    1.4465   -0.2203 H   0  0  0  0  0  0  0  0  0  0  0  0
   -3.6503    0.0420    0.5050 H   0  0  0  0  0  0  0  0  0  0  0  0
   -2.2803    0.7382    1.3963 H   0  0  0  0  0  0  0  0  0  0  0  0
   -1.9673   -1.4628   -0.0448 H   0  0  0  0  0  0  0  0  0  0  0  0
   -2.1135   -0.3408   -1.4552 H   0  0  0  0  0  0  0  0  0  0  0  0
   -0.0344   -2.1091   -1.0545 H   0  0  0  0  0  0  0  0  0  0  0  0
    0.6791   -0.7703   -2.1012 H   0  0  0  0  0  0  0  0  0  0  0  0
    2.5678   -1.7746   -1.0452 H   0  0  0  0  0  0  0  0  0  0  0  0
    1.6649   -1.7488    0.5670 H   0  0  0  0  0  0  0  0  0  0  0  0
    3.1822    0.2227    0.5169 H   0  0  0  0  0  0  0  0  0  0  0  0
    2.4113    0.6711   -1.0960 H   0  0  0  0  0  0  0  0  0  0  0  0
    1.3450    1.6615    1.2733 H   0  0  0  0  0  0  0  0  0  0  0  0
   -0.6411    1.9786   -0.0892 H   0  0  0  0  0  0  0  0  0  0  0  0
    0.5430    1.5265   -1.4737 H   0  0  0  0  0  0  0  0  0  0  0  0
  1  2  1  0
  2  3  1  0
  3  4  1  0
  4  5  1  0
  5  6  1  0
  6  7  1  0
  7  8  1  0
  7  9  1  0
  8  3  1  0
  9  3  1  0
  1 10  1  0
  1 11  1  0
  1 12  1  0
  2 13  1  0
  2 14  1  0
  4 15  1  0
  4 16  1  0
  5 17  1  0
  5 18  1  0
  6 19  1  0
  6 20  1  0
  7 21  1  0
  8 22  1  0
  8 23  1  0
M  END
