
     RDKit          3D

 23 23  0  0  0  0  0  0  0  0999 V2000
    2.5919   -0.8430   -0.0250 C   0  0  0  0  0  0  0  0  0  0  0  0
    1.6096    0.1263   -0.6498 C   0  0  0  0  0  0  0  0  0  0  0  0
    0.6465    0.5589    0.4386 C   0  0  0  0  0  0  0  0  0  0  0  0
    0.0084   -0.5558    0.9094 O   0  0  0  0  0  0  0  0  0  0  0  0
   -1.3353   -0.4516    0.6777 C   0  0  0  0  0  0  0  0  0  0  0  0
   -2.0357   -1.7432    0.4143 C   0  0  0  0  0  0  0  0  0  0  0  0
   -1.4748    0.5192   -0.5060 C   0  0  0  0  0  0  0  0  0  0  0  0
   -0.3931    1.5214   -0.0752 C   0  0  0  0  0  0  0  0  0  0  0  0
    0.0357    2.3031   -1.1145 O   0  0  0  0  0  0  0  0  0  0  0  0
    2.8595   -0.4940    1.0052 H   0  0  0  0  0  0  0  0  0  0  0  0
    3.5352   -0.8825   -0.6398 H   0  0  0  0  0  0  0  0  0  0  0  0
    2.1558   -1.8567    0.1089 H   0  0  0  0  0  0  0  0  0  0  0  0
    2.1330    0.9603   -1.1251 H   0  0  0  0  0  0  0  0  0  0  0  0
    1.0562   -0.4288   -1.4327 H   0  0  0  0  0  0  0  0  0  0  0  0
    1.1984    1.0580    1.2549 H   0  0  0  0  0  0  0  0  0  0  0  0
   -1.8328    0.0659    1.5497 H   0  0  0  0  0  0  0  0  0  0  0  0
   -2.4618   -2.0949    1.3922 H   0  0  0  0  0  0  0  0  0  0  0  0
   -2.9164   -1.5809   -0.2682 H   0  0  0  0  0  0  0  0  0  0  0  0
   -1.3355   -2.4796    0.0167 H   0  0  0  0  0  0  0  0  0  0  0  0
   -1.1178    0.0529   -1.4252 H   0  0  0  0  0  0  0  0  0  0  0  0
   -2.4568    0.9829   -0.5479 H   0  0  0  0  0  0  0  0  0  0  0  0
   -0.8333    2.0855    0.7685 H   0  0  0  0  0  0  0  0  0  0  0  0
    0.3632    3.1766   -0.7270 H   0  0  0  0  0  0  0  0  0  0  0  0
  1  2  1  0
  2  3  1  0
  3  4  1  0
  4  5  1  0
  5  6  1  0
  5  7  1  0
  7  8  1  0
  8  9  1  0
  8  3  1  0
  1 10  1  0
  1 11  1  0
  1 12  1  0
  2 13  1  0
  2 14  1  0
  3 15  1  0
  5 16  1  0
  6 17  1  0
  6 18  1  0
  6 19  1  0
  7 20  1  0
  7 21  1  0
  8 22  1  0
  9 23  1  0
M  END
