
     RDKit          3D

 25 25  0  0  0  0  0  0  0  0999 V2000
   -3.1135   -0.4624    0.0449 C   0  0  0  0  0  0  0  0  0  0  0  0
   -1.7625   -0.7909   -0.4971 C   0  0  0  0  0  0  0  0  0  0  0  0
   -0.6408   -0.5858    0.4751 C   0  0  0  0  0  0  0  0  0  0  0  0
   -0.4788    0.8218    0.9951 C   0  0  0  0  0  0  0  0  0  0  0  0
    0.3330    1.1113   -0.2563 C   0  0  0  0  0  0  0  0  0  0  0  0
    1.4592    2.0339    0.0562 C   0  0  0  0  0  0  0  0  0  0  0  0
    0.6774   -0.3686   -0.2810 C   0  0  0  0  0  0  0  0  0  0  0  0
    1.7930   -0.6220    0.4855 O   0  0  0  0  0  0  0  0  0  0  0  0
    2.7284   -1.3996   -0.1975 C   0  0  0  0  0  0  0  0  0  0  0  0
   -3.2114   -0.6922    1.1233 H   0  0  0  0  0  0  0  0  0  0  0  0
   -3.4556    0.5675   -0.1880 H   0  0  0  0  0  0  0  0  0  0  0  0
   -3.8610   -1.1347   -0.4687 H   0  0  0  0  0  0  0  0  0  0  0  0
   -1.7510   -1.8585   -0.7972 H   0  0  0  0  0  0  0  0  0  0  0  0
   -1.5938   -0.2103   -1.4279 H   0  0  0  0  0  0  0  0  0  0  0  0
   -0.5175   -1.3834    1.2277 H   0  0  0  0  0  0  0  0  0  0  0  0
    0.2257    0.7913    1.8754 H   0  0  0  0  0  0  0  0  0  0  0  0
   -1.3828    1.4094    1.1292 H   0  0  0  0  0  0  0  0  0  0  0  0
   -0.2437    1.3875   -1.1450 H   0  0  0  0  0  0  0  0  0  0  0  0
    2.3596    1.5367    0.4636 H   0  0  0  0  0  0  0  0  0  0  0  0
    1.6821    2.6201   -0.8715 H   0  0  0  0  0  0  0  0  0  0  0  0
    1.0774    2.7945    0.7945 H   0  0  0  0  0  0  0  0  0  0  0  0
    0.6892   -0.8053   -1.2908 H   0  0  0  0  0  0  0  0  0  0  0  0
    2.3162   -2.3819   -0.4963 H   0  0  0  0  0  0  0  0  0  0  0  0
    3.6516   -1.4869    0.4019 H   0  0  0  0  0  0  0  0  0  0  0  0
    3.0196   -0.8917   -1.1551 H   0  0  0  0  0  0  0  0  0  0  0  0
  1  2  1  0
  2  3  1  0
  3  4  1  0
  4  5  1  0
  5  6  1  0
  5  7  1  0
  7  8  1  0
  8  9  1  0
  7  3  1  0
  1 10  1  0
  1 11  1  0
  1 12  1  0
  2 13  1  0
  2 14  1  0
  3 15  1  0
  4 16  1  0
  4 17  1  0
  5 18  1  0
  6 19  1  0
  6 20  1  0
  6 21  1  0
  7 22  1  0
  9 23  1  0
  9 24  1  0
  9 25  1  0
M  END
