
     RDKit          3D

 25 26  0  0  0  0  0  0  0  0999 V2000
   -3.3831   -0.3457   -0.7635 C   0  0  0  0  0  0  0  0  0  0  0  0
   -2.4870   -0.4463    0.4401 C   0  0  0  0  0  0  0  0  0  0  0  0
   -1.2991    0.4541    0.2784 C   0  0  0  0  0  0  0  0  0  0  0  0
   -0.3257    0.4082    1.4782 C   0  0  0  0  0  0  0  0  0  0  0  0
    0.5955    0.9576    0.3749 C   0  0  0  0  0  0  0  0  0  0  0  0
    1.1475    0.2550   -0.7279 C   0  0  0  0  0  0  0  0  0  0  0  0
    2.4108   -0.6093   -0.5808 C   0  0  0  0  0  0  0  0  0  0  0  0
    3.5821    0.2119   -0.1163 C   0  0  0  0  0  0  0  0  0  0  0  0
   -0.1046   -0.2851   -0.3281 C   0  0  0  0  0  0  0  0  0  0  0  0
   -4.0967    0.4742   -0.6255 H   0  0  0  0  0  0  0  0  0  0  0  0
   -3.9043   -1.3351   -0.8930 H   0  0  0  0  0  0  0  0  0  0  0  0
   -2.7899   -0.1797   -1.6827 H   0  0  0  0  0  0  0  0  0  0  0  0
   -2.1259   -1.4937    0.5629 H   0  0  0  0  0  0  0  0  0  0  0  0
   -3.0089   -0.1704    1.3774 H   0  0  0  0  0  0  0  0  0  0  0  0
   -1.4618    1.4598   -0.0932 H   0  0  0  0  0  0  0  0  0  0  0  0
   -0.0939   -0.5994    1.8145 H   0  0  0  0  0  0  0  0  0  0  0  0
   -0.5316    1.1500    2.2528 H   0  0  0  0  0  0  0  0  0  0  0  0
    0.1310    1.9585    0.0888 H   0  0  0  0  0  0  0  0  0  0  0  0
    1.1572    0.7097   -1.7696 H   0  0  0  0  0  0  0  0  0  0  0  0
    2.2103   -1.3783    0.1923 H   0  0  0  0  0  0  0  0  0  0  0  0
    2.6747   -1.1071   -1.5158 H   0  0  0  0  0  0  0  0  0  0  0  0
    4.4745   -0.4449   -0.1793 H   0  0  0  0  0  0  0  0  0  0  0  0
    3.4708    0.5370    0.9426 H   0  0  0  0  0  0  0  0  0  0  0  0
    3.7845    1.0662   -0.8019 H   0  0  0  0  0  0  0  0  0  0  0  0
   -0.0265   -1.2470    0.2745 H   0  0  0  0  0  0  0  0  0  0  0  0
  1  2  1  0
  2  3  1  0
  3  4  1  0
  4  5  1  0
  5  6  1  0
  6  7  1  0
  7  8  1  0
  6  9  1  0
  9  3  1  0
  9  5  1  0
  1 10  1  0
  1 11  1  0
  1 12  1  0
  2 13  1  0
  2 14  1  0
  3 15  1  0
  4 16  1  0
  4 17  1  0
  5 18  1  0
  6 19  1  0
  7 20  1  0
  7 21  1  0
  8 22  1  0
  8 23  1  0
  8 24  1  0
  9 25  1  0
M  END
