
     RDKit          3D

 23 23  0  0  0  0  0  0  0  0999 V2000
   -2.9780    0.4788   -0.0334 C   0  0  0  0  0  0  0  0  0  0  0  0
   -1.8547   -0.5225   -0.1028 C   0  0  0  0  0  0  0  0  0  0  0  0
   -0.5218    0.1256   -0.3692 C   0  0  0  0  0  0  0  0  0  0  0  0
   -0.1833    1.1218    0.7434 C   0  0  0  0  0  0  0  0  0  0  0  0
    1.2893    1.2265    0.5754 C   0  0  0  0  0  0  0  0  0  0  0  0
    1.7721    0.1175    0.0299 C   0  0  0  0  0  0  0  0  0  0  0  0
    3.1708   -0.2344   -0.3234 C   0  0  0  0  0  0  0  0  0  0  0  0
    0.6276   -0.8346   -0.2125 C   0  0  0  0  0  0  0  0  0  0  0  0
    0.8339   -1.6462   -1.2909 O   0  0  0  0  0  0  0  0  0  0  0  0
   -2.9759    1.0986   -0.9439 H   0  0  0  0  0  0  0  0  0  0  0  0
   -3.9277   -0.1271    0.0352 H   0  0  0  0  0  0  0  0  0  0  0  0
   -2.8530    1.0705    0.8851 H   0  0  0  0  0  0  0  0  0  0  0  0
   -1.8191   -1.1263    0.8297 H   0  0  0  0  0  0  0  0  0  0  0  0
   -2.1002   -1.2281   -0.9217 H   0  0  0  0  0  0  0  0  0  0  0  0
   -0.5338    0.6687   -1.3111 H   0  0  0  0  0  0  0  0  0  0  0  0
   -0.7118    2.0728    0.6171 H   0  0  0  0  0  0  0  0  0  0  0  0
   -0.4369    0.5993    1.6903 H   0  0  0  0  0  0  0  0  0  0  0  0
    1.8774    2.0804    0.8567 H   0  0  0  0  0  0  0  0  0  0  0  0
    3.1516   -0.6035   -1.3816 H   0  0  0  0  0  0  0  0  0  0  0  0
    3.8497    0.6346   -0.2568 H   0  0  0  0  0  0  0  0  0  0  0  0
    3.4895   -1.0848    0.3154 H   0  0  0  0  0  0  0  0  0  0  0  0
    0.4871   -1.3754    0.7477 H   0  0  0  0  0  0  0  0  0  0  0  0
    0.3472   -2.5122   -1.1063 H   0  0  0  0  0  0  0  0  0  0  0  0
  1  2  1  0
  2  3  1  0
  3  4  1  0
  4  5  1  0
  5  6  2  0
  6  7  1  0
  6  8  1  0
  8  9  1  0
  8  3  1  0
  1 10  1  0
  1 11  1  0
  1 12  1  0
  2 13  1  0
  2 14  1  0
  3 15  1  0
  4 16  1  0
  4 17  1  0
  5 18  1  0
  7 19  1  0
  7 20  1  0
  7 21  1  0
  8 22  1  0
  9 23  1  0
M  END
