
     RDKit          3D

 23 23  0  0  0  0  0  0  0  0999 V2000
    2.0096    1.7225   -0.3081 C   0  0  0  0  0  0  0  0  0  0  0  0
    2.0469    0.2688    0.1652 C   0  0  0  0  0  0  0  0  0  0  0  0
    0.8510   -0.4972   -0.3136 C   0  0  0  0  0  0  0  0  0  0  0  0
    0.7954   -1.9301    0.0956 C   0  0  0  0  0  0  0  0  0  0  0  0
   -0.2217   -0.9271    0.6301 C   0  0  0  0  0  0  0  0  0  0  0  0
   -1.6080   -1.0804    0.0890 C   0  0  0  0  0  0  0  0  0  0  0  0
   -2.1367    0.2193   -0.4857 C   0  0  0  0  0  0  0  0  0  0  0  0
   -2.1946    1.2889    0.5160 C   0  0  0  0  0  0  0  0  0  0  0  0
   -2.8505    1.0926    1.5358 O   0  0  0  0  0  0  0  0  0  0  0  0
    1.9224    2.4284    0.5490 H   0  0  0  0  0  0  0  0  0  0  0  0
    2.9623    1.8962   -0.8797 H   0  0  0  0  0  0  0  0  0  0  0  0
    1.1858    1.8966   -1.0127 H   0  0  0  0  0  0  0  0  0  0  0  0
    2.0908    0.2511    1.2633 H   0  0  0  0  0  0  0  0  0  0  0  0
    2.9805   -0.2312   -0.1878 H   0  0  0  0  0  0  0  0  0  0  0  0
    0.4782   -0.2120   -1.3291 H   0  0  0  0  0  0  0  0  0  0  0  0
    0.5326   -2.6535   -0.6735 H   0  0  0  0  0  0  0  0  0  0  0  0
    1.5535   -2.2930    0.8334 H   0  0  0  0  0  0  0  0  0  0  0  0
   -0.1460   -0.6889    1.7030 H   0  0  0  0  0  0  0  0  0  0  0  0
   -2.2656   -1.4307    0.9189 H   0  0  0  0  0  0  0  0  0  0  0  0
   -1.6288   -1.8922   -0.6684 H   0  0  0  0  0  0  0  0  0  0  0  0
   -3.1629    0.0341   -0.9159 H   0  0  0  0  0  0  0  0  0  0  0  0
   -1.4946    0.4883   -1.3470 H   0  0  0  0  0  0  0  0  0  0  0  0
   -1.6996    2.2494    0.4173 H   0  0  0  0  0  0  0  0  0  0  0  0
  1  2  1  0
  2  3  1  0
  3  4  1  0
  4  5  1  0
  5  6  1  0
  6  7  1  0
  7  8  1  0
  8  9  2  0
  5  3  1  0
  1 10  1  0
  1 11  1  0
  1 12  1  0
  2 13  1  0
  2 14  1  0
  3 15  1  0
  4 16  1  0
  4 17  1  0
  5 18  1  0
  6 19  1  0
  6 20  1  0
  7 21  1  0
  7 22  1  0
  8 23  1  0
M  END
