
     RDKit          3D

 23 23  0  0  0  0  0  0  0  0999 V2000
   -2.4754   -0.6977    0.0150 C   0  0  0  0  0  0  0  0  0  0  0  0
   -1.0996   -0.7770    0.5947 C   0  0  0  0  0  0  0  0  0  0  0  0
   -0.0200   -0.2672   -0.2938 C   0  0  0  0  0  0  0  0  0  0  0  0
   -0.1371    1.1526   -0.6942 C   0  0  0  0  0  0  0  0  0  0  0  0
   -1.2887    1.7887   -0.3183 O   0  0  0  0  0  0  0  0  0  0  0  0
    1.0198    1.8334    0.0336 C   0  0  0  0  0  0  0  0  0  0  0  0
    1.9521    0.8397    0.2496 O   0  0  0  0  0  0  0  0  0  0  0  0
    1.2864   -0.3389    0.4771 C   0  0  0  0  0  0  0  0  0  0  0  0
    2.1274   -1.5139   -0.0269 C   0  0  0  0  0  0  0  0  0  0  0  0
   -2.5131   -0.5095   -1.0602 H   0  0  0  0  0  0  0  0  0  0  0  0
   -2.9627   -1.7006    0.1944 H   0  0  0  0  0  0  0  0  0  0  0  0
   -3.1376    0.0327    0.5187 H   0  0  0  0  0  0  0  0  0  0  0  0
   -1.0788   -0.1744    1.5342 H   0  0  0  0  0  0  0  0  0  0  0  0
   -0.8257   -1.8126    0.9049 H   0  0  0  0  0  0  0  0  0  0  0  0
    0.1018   -0.9143   -1.2079 H   0  0  0  0  0  0  0  0  0  0  0  0
    0.0167    1.2970   -1.8002 H   0  0  0  0  0  0  0  0  0  0  0  0
   -1.1030    2.7807   -0.3702 H   0  0  0  0  0  0  0  0  0  0  0  0
    0.6342    2.2452    1.0000 H   0  0  0  0  0  0  0  0  0  0  0  0
    1.4653    2.6372   -0.5989 H   0  0  0  0  0  0  0  0  0  0  0  0
    1.1067   -0.4475    1.5812 H   0  0  0  0  0  0  0  0  0  0  0  0
    3.1190   -1.1670   -0.4023 H   0  0  0  0  0  0  0  0  0  0  0  0
    2.2420   -2.2923    0.7553 H   0  0  0  0  0  0  0  0  0  0  0  0
    1.5704   -1.9942   -0.8799 H   0  0  0  0  0  0  0  0  0  0  0  0
  1  2  1  0
  2  3  1  0
  3  4  1  0
  4  5  1  0
  4  6  1  0
  6  7  1  0
  7  8  1  0
  8  9  1  0
  8  3  1  0
  1 10  1  0
  1 11  1  0
  1 12  1  0
  2 13  1  0
  2 14  1  0
  3 15  1  0
  4 16  1  0
  5 17  1  0
  6 18  1  0
  6 19  1  0
  8 20  1  0
  9 21  1  0
  9 22  1  0
  9 23  1  0
M  END
