
     RDKit          3D

 21 21  0  0  0  0  0  0  0  0999 V2000
    2.0804   -0.2753    0.4266 C   0  0  0  0  0  0  0  0  0  0  0  0
    0.9984   -0.9046   -0.4203 C   0  0  0  0  0  0  0  0  0  0  0  0
   -0.2356   -0.0525   -0.5003 C   0  0  0  0  0  0  0  0  0  0  0  0
   -0.0311    1.3214   -1.0929 C   0  0  0  0  0  0  0  0  0  0  0  0
    0.9573    2.0478   -0.4690 O   0  0  0  0  0  0  0  0  0  0  0  0
   -1.2446   -0.7230   -1.1791 O   0  0  0  0  0  0  0  0  0  0  0  0
   -1.6877   -1.2313    0.0143 C   0  0  0  0  0  0  0  0  0  0  0  0
   -1.0387   -0.0946    0.7511 C   0  0  0  0  0  0  0  0  0  0  0  0
   -1.9051    0.9674    0.9721 O   0  0  0  0  0  0  0  0  0  0  0  0
    1.6885    0.2026    1.3422 H   0  0  0  0  0  0  0  0  0  0  0  0
    2.7173    0.4190   -0.1746 H   0  0  0  0  0  0  0  0  0  0  0  0
    2.7574   -1.0920    0.7506 H   0  0  0  0  0  0  0  0  0  0  0  0
    0.7666   -1.8813    0.0464 H   0  0  0  0  0  0  0  0  0  0  0  0
    1.4519   -1.1229   -1.4092 H   0  0  0  0  0  0  0  0  0  0  0  0
   -0.9945    1.8850   -0.9243 H   0  0  0  0  0  0  0  0  0  0  0  0
    0.0934    1.2073   -2.1688 H   0  0  0  0  0  0  0  0  0  0  0  0
    0.6352    2.5721    0.3086 H   0  0  0  0  0  0  0  0  0  0  0  0
   -2.7947   -1.2451    0.1061 H   0  0  0  0  0  0  0  0  0  0  0  0
   -1.2206   -2.2370    0.2014 H   0  0  0  0  0  0  0  0  0  0  0  0
   -0.5338   -0.4747    1.6587 H   0  0  0  0  0  0  0  0  0  0  0  0
   -2.4602    0.7118    1.7604 H   0  0  0  0  0  0  0  0  0  0  0  0
  1  2  1  0
  2  3  1  0
  3  4  1  0
  4  5  1  0
  3  6  1  0
  6  7  1  0
  7  8  1  0
  8  9  1  0
  8  3  1  0
  1 10  1  0
  1 11  1  0
  1 12  1  0
  2 13  1  0
  2 14  1  0
  4 15  1  0
  4 16  1  0
  5 17  1  0
  7 18  1  0
  7 19  1  0
  8 20  1  0
  9 21  1  0
M  END
