
     RDKit          3D

 20 20  0  0  0  0  0  0  0  0999 V2000
   -2.0556   -0.4839    0.6358 C   0  0  0  0  0  0  0  0  0  0  0  0
   -1.5284    0.6922   -0.1427 C   0  0  0  0  0  0  0  0  0  0  0  0
   -0.0607    0.6674   -0.3789 C   0  0  0  0  0  0  0  0  0  0  0  0
    0.4179    1.7675   -1.1073 O   0  0  0  0  0  0  0  0  0  0  0  0
    0.8425    0.4908    0.8185 C   0  0  0  0  0  0  0  0  0  0  0  0
    1.7475   -0.3351   -0.1094 C   0  0  0  0  0  0  0  0  0  0  0  0
    2.3151   -1.3674    0.5891 O   0  0  0  0  0  0  0  0  0  0  0  0
    0.4842   -0.6602   -0.8800 C   0  0  0  0  0  0  0  0  0  0  0  0
   -1.9671   -1.4477    0.0842 H   0  0  0  0  0  0  0  0  0  0  0  0
   -1.5824   -0.6207    1.6146 H   0  0  0  0  0  0  0  0  0  0  0  0
   -3.1613   -0.3835    0.8216 H   0  0  0  0  0  0  0  0  0  0  0  0
   -1.8573    1.6203    0.3511 H   0  0  0  0  0  0  0  0  0  0  0  0
   -2.0227    0.6621   -1.1539 H   0  0  0  0  0  0  0  0  0  0  0  0
    0.4009    1.5720   -2.0811 H   0  0  0  0  0  0  0  0  0  0  0  0
    1.3959    1.3971    1.1264 H   0  0  0  0  0  0  0  0  0  0  0  0
    0.3677   -0.0980    1.5932 H   0  0  0  0  0  0  0  0  0  0  0  0
    2.4254    0.3092   -0.6885 H   0  0  0  0  0  0  0  0  0  0  0  0
    3.2542   -1.5329    0.2805 H   0  0  0  0  0  0  0  0  0  0  0  0
   -0.0172   -1.5258   -0.4677 H   0  0  0  0  0  0  0  0  0  0  0  0
    0.6015   -0.7233   -1.9786 H   0  0  0  0  0  0  0  0  0  0  0  0
  1  2  1  0
  2  3  1  0
  3  4  1  0
  3  5  1  0
  5  6  1  0
  6  7  1  0
  6  8  1  0
  8  3  1  0
  1  9  1  0
  1 10  1  0
  1 11  1  0
  2 12  1  0
  2 13  1  0
  4 14  1  0
  5 15  1  0
  5 16  1  0
  6 17  1  0
  7 18  1  0
  8 19  1  0
  8 20  1  0
M  END
