
     RDKit          3D

 25 26  0  0  0  0  0  0  0  0999 V2000
   -2.8309   -0.6562    0.3546 C   0  0  0  0  0  0  0  0  0  0  0  0
   -1.7537    0.4035    0.3418 C   0  0  0  0  0  0  0  0  0  0  0  0
   -0.6929    0.1295   -0.6852 C   0  0  0  0  0  0  0  0  0  0  0  0
    0.4038    1.1726   -0.7259 C   0  0  0  0  0  0  0  0  0  0  0  0
    0.4586    2.2347    0.3267 C   0  0  0  0  0  0  0  0  0  0  0  0
    0.6731   -0.2158   -0.3821 C   0  0  0  0  0  0  0  0  0  0  0  0
    1.2030   -0.7023    0.9018 C   0  0  0  0  0  0  0  0  0  0  0  0
    2.1559   -1.6169    0.1198 C   0  0  0  0  0  0  0  0  0  0  0  0
    1.5337   -1.1274   -1.1848 C   0  0  0  0  0  0  0  0  0  0  0  0
   -3.8478   -0.1932    0.5216 H   0  0  0  0  0  0  0  0  0  0  0  0
   -2.9110   -1.2146   -0.5845 H   0  0  0  0  0  0  0  0  0  0  0  0
   -2.6960   -1.3253    1.2508 H   0  0  0  0  0  0  0  0  0  0  0  0
   -2.2510    1.3547    0.0523 H   0  0  0  0  0  0  0  0  0  0  0  0
   -1.3381    0.5067    1.3687 H   0  0  0  0  0  0  0  0  0  0  0  0
   -1.1100   -0.2295   -1.6621 H   0  0  0  0  0  0  0  0  0  0  0  0
    0.6943    1.4856   -1.7705 H   0  0  0  0  0  0  0  0  0  0  0  0
    0.5618    3.2492   -0.1435 H   0  0  0  0  0  0  0  0  0  0  0  0
    1.3386    2.1355    0.9955 H   0  0  0  0  0  0  0  0  0  0  0  0
   -0.4327    2.2903    0.9665 H   0  0  0  0  0  0  0  0  0  0  0  0
    0.5570   -1.2594    1.5808 H   0  0  0  0  0  0  0  0  0  0  0  0
    1.7975    0.0829    1.4258 H   0  0  0  0  0  0  0  0  0  0  0  0
    1.9657   -2.6859    0.2537 H   0  0  0  0  0  0  0  0  0  0  0  0
    3.2176   -1.3541    0.2154 H   0  0  0  0  0  0  0  0  0  0  0  0
    1.0207   -1.9276   -1.7625 H   0  0  0  0  0  0  0  0  0  0  0  0
    2.2826   -0.5369   -1.7746 H   0  0  0  0  0  0  0  0  0  0  0  0
  1  2  1  0
  2  3  1  0
  3  4  1  0
  4  5  1  0
  4  6  1  0
  6  7  1  0
  7  8  1  0
  8  9  1  0
  6  3  1  0
  9  6  1  0
  1 10  1  0
  1 11  1  0
  1 12  1  0
  2 13  1  0
  2 14  1  0
  3 15  1  0
  4 16  1  0
  5 17  1  0
  5 18  1  0
  5 19  1  0
  7 20  1  0
  7 21  1  0
  8 22  1  0
  8 23  1  0
  9 24  1  0
  9 25  1  0
M  END
