
     RDKit          3D

 19 19  0  0  0  0  0  0  0  0999 V2000
    2.0435    0.5549   -0.1461 C   0  0  0  0  0  0  0  0  0  0  0  0
    0.9061   -0.0005    0.6310 C   0  0  0  0  0  0  0  0  0  0  0  0
   -0.2670   -0.4303   -0.2101 C   0  0  0  0  0  0  0  0  0  0  0  0
    0.1473   -1.5082   -1.1914 C   0  0  0  0  0  0  0  0  0  0  0  0
   -0.9201    0.6206   -0.8144 O   0  0  0  0  0  0  0  0  0  0  0  0
   -1.7782    1.1757    0.1247 C   0  0  0  0  0  0  0  0  0  0  0  0
   -1.9932    0.1017    1.1266 C   0  0  0  0  0  0  0  0  0  0  0  0
   -2.7020    0.1598    2.1537 O   0  0  0  0  0  0  0  0  0  0  0  0
   -1.2426   -0.9785    0.6832 O   0  0  0  0  0  0  0  0  0  0  0  0
    2.2884    1.5846    0.2458 H   0  0  0  0  0  0  0  0  0  0  0  0
    2.9823   -0.0275    0.0242 H   0  0  0  0  0  0  0  0  0  0  0  0
    1.8767    0.5937   -1.2392 H   0  0  0  0  0  0  0  0  0  0  0  0
    0.5501    0.7223    1.3938 H   0  0  0  0  0  0  0  0  0  0  0  0
    1.2518   -0.8965    1.2028 H   0  0  0  0  0  0  0  0  0  0  0  0
   -0.7218   -2.1416   -1.4318 H   0  0  0  0  0  0  0  0  0  0  0  0
    0.9587   -2.1158   -0.7500 H   0  0  0  0  0  0  0  0  0  0  0  0
    0.5557   -0.9825   -2.0906 H   0  0  0  0  0  0  0  0  0  0  0  0
   -2.7261    1.5469   -0.3155 H   0  0  0  0  0  0  0  0  0  0  0  0
   -1.2097    2.0211    0.6033 H   0  0  0  0  0  0  0  0  0  0  0  0
  1  2  1  0
  2  3  1  0
  3  4  1  0
  3  5  1  0
  5  6  1  0
  6  7  1  0
  7  8  2  0
  7  9  1  0
  9  3  1  0
  1 10  1  0
  1 11  1  0
  1 12  1  0
  2 13  1  0
  2 14  1  0
  4 15  1  0
  4 16  1  0
  4 17  1  0
  6 18  1  0
  6 19  1  0
M  END
