
     RDKit          3D

 21 22  0  0  0  0  0  0  0  0999 V2000
    3.0019    0.2046   -0.0616 C   0  0  0  0  0  0  0  0  0  0  0  0
    1.7667   -0.4445   -0.6115 C   0  0  0  0  0  0  0  0  0  0  0  0
    0.5611   -0.1814    0.2528 C   0  0  0  0  0  0  0  0  0  0  0  0
    0.2120    1.1416    0.4226 O   0  0  0  0  0  0  0  0  0  0  0  0
   -0.8440    1.0790   -0.4448 C   0  0  0  0  0  0  0  0  0  0  0  0
   -2.1988    1.2394    0.1284 C   0  0  0  0  0  0  0  0  0  0  0  0
   -2.7177    0.1246    0.5934 C   0  0  0  0  0  0  0  0  0  0  0  0
   -1.7749   -0.9712    0.4000 C   0  0  0  0  0  0  0  0  0  0  0  0
   -0.7223   -0.4343   -0.5029 C   0  0  0  0  0  0  0  0  0  0  0  0
    3.3362    0.9685   -0.7686 H   0  0  0  0  0  0  0  0  0  0  0  0
    3.8556   -0.5256    0.0323 H   0  0  0  0  0  0  0  0  0  0  0  0
    2.7454    0.6102    0.9388 H   0  0  0  0  0  0  0  0  0  0  0  0
    1.5911   -0.2193   -1.6850 H   0  0  0  0  0  0  0  0  0  0  0  0
    1.9423   -1.5580   -0.5660 H   0  0  0  0  0  0  0  0  0  0  0  0
    0.6214   -0.7473    1.2006 H   0  0  0  0  0  0  0  0  0  0  0  0
   -0.6941    1.5735   -1.4270 H   0  0  0  0  0  0  0  0  0  0  0  0
   -2.7185    2.1959    0.1614 H   0  0  0  0  0  0  0  0  0  0  0  0
   -3.7065   -0.0281    1.0680 H   0  0  0  0  0  0  0  0  0  0  0  0
   -1.3776   -1.2599    1.4110 H   0  0  0  0  0  0  0  0  0  0  0  0
   -2.2521   -1.9084    0.0132 H   0  0  0  0  0  0  0  0  0  0  0  0
   -0.6270   -0.8592   -1.5040 H   0  0  0  0  0  0  0  0  0  0  0  0
  1  2  1  0
  2  3  1  0
  3  4  1  0
  4  5  1  0
  5  6  1  0
  6  7  2  0
  7  8  1  0
  8  9  1  0
  9  3  1  0
  9  5  1  0
  1 10  1  0
  1 11  1  0
  1 12  1  0
  2 13  1  0
  2 14  1  0
  3 15  1  0
  5 16  1  0
  6 17  1  0
  7 18  1  0
  8 19  1  0
  8 20  1  0
  9 21  1  0
M  END
