
     RDKit          3D

 25 25  0  0  0  0  0  0  0  0999 V2000
   -2.5717   -1.1596    0.2235 C   0  0  0  0  0  0  0  0  0  0  0  0
   -1.2271   -0.8629   -0.3797 C   0  0  0  0  0  0  0  0  0  0  0  0
   -0.4264    0.0977    0.4951 C   0  0  0  0  0  0  0  0  0  0  0  0
   -1.2313    1.3445    0.5923 C   0  0  0  0  0  0  0  0  0  0  0  0
   -0.4753    2.3759    0.2566 C   0  0  0  0  0  0  0  0  0  0  0  0
    0.9088    1.9906   -0.1056 C   0  0  0  0  0  0  0  0  0  0  0  0
    0.8400    0.4809   -0.2209 C   0  0  0  0  0  0  0  0  0  0  0  0
    2.0621   -0.1528    0.4440 C   0  0  0  0  0  0  0  0  0  0  0  0
    1.9020   -1.6553    0.4018 C   0  0  0  0  0  0  0  0  0  0  0  0
   -3.3594   -0.4357   -0.1001 H   0  0  0  0  0  0  0  0  0  0  0  0
   -2.5252   -1.2395    1.3210 H   0  0  0  0  0  0  0  0  0  0  0  0
   -2.9262   -2.1576   -0.1501 H   0  0  0  0  0  0  0  0  0  0  0  0
   -1.3963   -0.4147   -1.3794 H   0  0  0  0  0  0  0  0  0  0  0  0
   -0.6675   -1.7992   -0.5454 H   0  0  0  0  0  0  0  0  0  0  0  0
   -0.2510   -0.3312    1.4850 H   0  0  0  0  0  0  0  0  0  0  0  0
   -2.2933    1.4032    0.8961 H   0  0  0  0  0  0  0  0  0  0  0  0
   -0.8906    3.4037    0.2640 H   0  0  0  0  0  0  0  0  0  0  0  0
    1.2026    2.4539   -1.0902 H   0  0  0  0  0  0  0  0  0  0  0  0
    1.6428    2.2786    0.6940 H   0  0  0  0  0  0  0  0  0  0  0  0
    0.8070    0.1581   -1.2756 H   0  0  0  0  0  0  0  0  0  0  0  0
    2.2221    0.2442    1.4494 H   0  0  0  0  0  0  0  0  0  0  0  0
    2.9590    0.0867   -0.1629 H   0  0  0  0  0  0  0  0  0  0  0  0
    2.8601   -2.1642    0.6516 H   0  0  0  0  0  0  0  0  0  0  0  0
    1.7254   -1.9110   -0.6848 H   0  0  0  0  0  0  0  0  0  0  0  0
    1.1093   -2.0341    1.0503 H   0  0  0  0  0  0  0  0  0  0  0  0
  1  2  1  0
  2  3  1  0
  3  4  1  0
  4  5  2  0
  5  6  1  0
  6  7  1  0
  7  8  1  0
  8  9  1  0
  7  3  1  0
  1 10  1  0
  1 11  1  0
  1 12  1  0
  2 13  1  0
  2 14  1  0
  3 15  1  0
  4 16  1  0
  5 17  1  0
  6 18  1  0
  6 19  1  0
  7 20  1  0
  8 21  1  0
  8 22  1  0
  9 23  1  0
  9 24  1  0
  9 25  1  0
M  END
