
     RDKit          3D

 18 18  0  0  0  0  0  0  0  0999 V2000
    1.7047    0.7408   -0.9306 C   0  0  0  0  0  0  0  0  0  0  0  0
    0.9857    0.5847    0.4213 C   0  0  0  0  0  0  0  0  0  0  0  0
    0.0522   -0.6113    0.3389 C   0  0  0  0  0  0  0  0  0  0  0  0
   -1.0448   -0.3769   -0.6714 C   0  0  0  0  0  0  0  0  0  0  0  0
   -1.9105    0.8338   -0.5831 C   0  0  0  0  0  0  0  0  0  0  0  0
   -1.1685   -1.2512   -1.5434 O   0  0  0  0  0  0  0  0  0  0  0  0
    0.1065   -1.7919    1.1202 C   0  0  0  0  0  0  0  0  0  0  0  0
   -0.5635   -0.7131    1.7137 O   0  0  0  0  0  0  0  0  0  0  0  0
    2.7073    0.1912   -0.8197 H   0  0  0  0  0  0  0  0  0  0  0  0
    1.1749    0.1898   -1.7309 H   0  0  0  0  0  0  0  0  0  0  0  0
    1.9205    1.7583   -1.2142 H   0  0  0  0  0  0  0  0  0  0  0  0
    1.7642    0.5229    1.1813 H   0  0  0  0  0  0  0  0  0  0  0  0
    0.4365    1.5340    0.5822 H   0  0  0  0  0  0  0  0  0  0  0  0
   -2.4348    1.0323   -1.5572 H   0  0  0  0  0  0  0  0  0  0  0  0
   -1.3964    1.6720   -0.1323 H   0  0  0  0  0  0  0  0  0  0  0  0
   -2.6910    0.5443    0.1800 H   0  0  0  0  0  0  0  0  0  0  0  0
   -0.6153   -2.6188    0.8029 H   0  0  0  0  0  0  0  0  0  0  0  0
    0.9722   -2.2410    1.6547 H   0  0  0  0  0  0  0  0  0  0  0  0
  1  2  1  0
  2  3  1  0
  3  4  1  0
  4  5  1  0
  4  6  2  0
  3  7  1  0
  7  8  1  0
  8  3  1  0
  1  9  1  0
  1 10  1  0
  1 11  1  0
  2 12  1  0
  2 13  1  0
  5 14  1  0
  5 15  1  0
  5 16  1  0
  7 17  1  0
  7 18  1  0
M  END
