
     RDKit          3D

 23 23  0  0  0  0  0  0  0  0999 V2000
   -3.4446   -1.1429   -0.2000 C   0  0  0  0  0  0  0  0  0  0  0  0
   -2.8522    0.2323    0.0141 C   0  0  0  0  0  0  0  0  0  0  0  0
   -1.5248    0.3207   -0.6983 C   0  0  0  0  0  0  0  0  0  0  0  0
   -0.8511    1.6107   -0.5637 O   0  0  0  0  0  0  0  0  0  0  0  0
   -0.3283    0.4148    0.0515 C   0  0  0  0  0  0  0  0  0  0  0  0
    1.0084   -0.0444   -0.4845 C   0  0  0  0  0  0  0  0  0  0  0  0
    2.0640    0.2022    0.5749 C   0  0  0  0  0  0  0  0  0  0  0  0
    3.3934   -0.2557    0.0386 C   0  0  0  0  0  0  0  0  0  0  0  0
    4.3495   -0.0201    1.0278 O   0  0  0  0  0  0  0  0  0  0  0  0
   -4.1352   -1.1116   -1.0849 H   0  0  0  0  0  0  0  0  0  0  0  0
   -2.6473   -1.9157   -0.3450 H   0  0  0  0  0  0  0  0  0  0  0  0
   -4.0255   -1.4896    0.6918 H   0  0  0  0  0  0  0  0  0  0  0  0
   -3.5669    1.0018   -0.3716 H   0  0  0  0  0  0  0  0  0  0  0  0
   -2.6611    0.4092    1.0915 H   0  0  0  0  0  0  0  0  0  0  0  0
   -1.5667    0.0550   -1.7713 H   0  0  0  0  0  0  0  0  0  0  0  0
   -0.3879    0.4921    1.1626 H   0  0  0  0  0  0  0  0  0  0  0  0
    1.2363    0.4907   -1.4198 H   0  0  0  0  0  0  0  0  0  0  0  0
    0.9112   -1.1132   -0.7234 H   0  0  0  0  0  0  0  0  0  0  0  0
    1.8425   -0.3339    1.5033 H   0  0  0  0  0  0  0  0  0  0  0  0
    2.1431    1.2817    0.8067 H   0  0  0  0  0  0  0  0  0  0  0  0
    3.3398   -1.3425   -0.1766 H   0  0  0  0  0  0  0  0  0  0  0  0
    3.6779    0.2959   -0.8732 H   0  0  0  0  0  0  0  0  0  0  0  0
    4.0258    0.5560    1.7493 H   0  0  0  0  0  0  0  0  0  0  0  0
  1  2  1  0
  2  3  1  0
  3  4  1  0
  4  5  1  0
  5  6  1  0
  6  7  1  0
  7  8  1  0
  8  9  1  0
  5  3  1  0
  1 10  1  0
  1 11  1  0
  1 12  1  0
  2 13  1  0
  2 14  1  0
  3 15  1  0
  5 16  1  0
  6 17  1  0
  6 18  1  0
  7 19  1  0
  7 20  1  0
  8 21  1  0
  8 22  1  0
  9 23  1  0
M  END
