
     RDKit          3D

 25 25  0  0  0  0  0  0  0  0999 V2000
    1.8650   -0.4859   -1.1663 C   0  0  0  0  0  0  0  0  0  0  0  0
    1.2841   -0.5015    0.1718 C   0  0  0  0  0  0  0  0  0  0  0  0
    0.1490    0.4180    0.4523 C   0  0  0  0  0  0  0  0  0  0  0  0
    0.4466    1.8615    0.2762 C   0  0  0  0  0  0  0  0  0  0  0  0
   -0.1901    0.1340    1.9330 C   0  0  0  0  0  0  0  0  0  0  0  0
   -0.7838   -1.1167    1.8887 O   0  0  0  0  0  0  0  0  0  0  0  0
   -1.4179   -1.2532    0.6751 C   0  0  0  0  0  0  0  0  0  0  0  0
   -1.1635   -0.0036   -0.1089 C   0  0  0  0  0  0  0  0  0  0  0  0
   -1.2242   -0.1648   -1.5802 C   0  0  0  0  0  0  0  0  0  0  0  0
    1.4883    0.2377   -1.8852 H   0  0  0  0  0  0  0  0  0  0  0  0
    1.7994   -1.4937   -1.6734 H   0  0  0  0  0  0  0  0  0  0  0  0
    2.9789   -0.3041   -1.0962 H   0  0  0  0  0  0  0  0  0  0  0  0
    2.0665   -0.3121    0.9653 H   0  0  0  0  0  0  0  0  0  0  0  0
    0.9237   -1.5437    0.4040 H   0  0  0  0  0  0  0  0  0  0  0  0
    0.5026    2.0881   -0.8047 H   0  0  0  0  0  0  0  0  0  0  0  0
    1.3217    2.1766    0.8398 H   0  0  0  0  0  0  0  0  0  0  0  0
   -0.4256    2.4417    0.6666 H   0  0  0  0  0  0  0  0  0  0  0  0
    0.7058    0.1793    2.5556 H   0  0  0  0  0  0  0  0  0  0  0  0
   -0.9364    0.9286    2.1969 H   0  0  0  0  0  0  0  0  0  0  0  0
   -2.5045   -1.3422    0.8657 H   0  0  0  0  0  0  0  0  0  0  0  0
   -1.0621   -2.1458    0.1018 H   0  0  0  0  0  0  0  0  0  0  0  0
   -1.9234    0.7436    0.1967 H   0  0  0  0  0  0  0  0  0  0  0  0
   -0.7501   -1.0799   -1.9468 H   0  0  0  0  0  0  0  0  0  0  0  0
   -2.3031   -0.2254   -1.8746 H   0  0  0  0  0  0  0  0  0  0  0  0
   -0.8469    0.7636   -2.0531 H   0  0  0  0  0  0  0  0  0  0  0  0
  1  2  1  0
  2  3  1  0
  3  4  1  0
  3  5  1  0
  5  6  1  0
  6  7  1  0
  7  8  1  0
  8  9  1  0
  8  3  1  0
  1 10  1  0
  1 11  1  0
  1 12  1  0
  2 13  1  0
  2 14  1  0
  4 15  1  0
  4 16  1  0
  4 17  1  0
  5 18  1  0
  5 19  1  0
  7 20  1  0
  7 21  1  0
  8 22  1  0
  9 23  1  0
  9 24  1  0
  9 25  1  0
M  END
