
     RDKit          3D

 23 24  0  0  0  0  0  0  0  0999 V2000
    2.2628   -0.8176   -0.8415 C   0  0  0  0  0  0  0  0  0  0  0  0
    1.6219   -0.3653    0.4289 C   0  0  0  0  0  0  0  0  0  0  0  0
    0.3191    0.2987    0.2968 C   0  0  0  0  0  0  0  0  0  0  0  0
    0.1132    1.5489   -0.4828 C   0  0  0  0  0  0  0  0  0  0  0  0
   -1.3099    1.0754   -0.8046 C   0  0  0  0  0  0  0  0  0  0  0  0
   -2.2861    1.7356   -0.0564 O   0  0  0  0  0  0  0  0  0  0  0  0
   -0.9495   -0.2239   -0.0906 C   0  0  0  0  0  0  0  0  0  0  0  0
   -1.3120   -1.5271   -0.6353 C   0  0  0  0  0  0  0  0  0  0  0  0
   -0.7037   -0.0079    1.3908 C   0  0  0  0  0  0  0  0  0  0  0  0
    1.9359   -1.8567   -1.1369 H   0  0  0  0  0  0  0  0  0  0  0  0
    3.3541   -0.9143   -0.6532 H   0  0  0  0  0  0  0  0  0  0  0  0
    2.1289   -0.1097   -1.6860 H   0  0  0  0  0  0  0  0  0  0  0  0
    1.5687   -1.2155    1.1189 H   0  0  0  0  0  0  0  0  0  0  0  0
    2.3400    0.3655    0.9073 H   0  0  0  0  0  0  0  0  0  0  0  0
    0.1643    2.4362    0.1551 H   0  0  0  0  0  0  0  0  0  0  0  0
    0.7647    1.6053   -1.3738 H   0  0  0  0  0  0  0  0  0  0  0  0
   -1.5360    0.9825   -1.8670 H   0  0  0  0  0  0  0  0  0  0  0  0
   -2.4088    2.6624   -0.3129 H   0  0  0  0  0  0  0  0  0  0  0  0
   -2.0706   -2.0139    0.0248 H   0  0  0  0  0  0  0  0  0  0  0  0
   -0.4930   -2.2629   -0.7432 H   0  0  0  0  0  0  0  0  0  0  0  0
   -1.8166   -1.4014   -1.6262 H   0  0  0  0  0  0  0  0  0  0  0  0
   -0.5327   -0.8774    2.0353 H   0  0  0  0  0  0  0  0  0  0  0  0
   -1.1545    0.8832    1.8738 H   0  0  0  0  0  0  0  0  0  0  0  0
  1  2  1  0
  2  3  1  0
  3  4  1  0
  4  5  1  0
  5  6  1  0
  5  7  1  0
  7  8  1  0
  7  9  1  0
  7  3  1  0
  9  3  1  0
  1 10  1  0
  1 11  1  0
  1 12  1  0
  2 13  1  0
  2 14  1  0
  4 15  1  0
  4 16  1  0
  5 17  1  0
  6 18  1  0
  8 19  1  0
  8 20  1  0
  8 21  1  0
  9 22  1  0
  9 23  1  0
M  END
