
     RDKit          3D

 21 21  0  0  0  0  0  0  0  0999 V2000
   -2.2411   -0.3402    0.6043 C   0  0  0  0  0  0  0  0  0  0  0  0
   -1.2234   -0.7597   -0.4750 C   0  0  0  0  0  0  0  0  0  0  0  0
   -0.6161    0.4597   -1.0288 C   0  0  0  0  0  0  0  0  0  0  0  0
    0.1243    1.3572   -0.0732 C   0  0  0  0  0  0  0  0  0  0  0  0
   -0.0994    2.7180   -0.2587 O   0  0  0  0  0  0  0  0  0  0  0  0
    0.9013    0.6813   -1.1091 C   0  0  0  0  0  0  0  0  0  0  0  0
    1.7835   -0.4500   -0.8490 C   0  0  0  0  0  0  0  0  0  0  0  0
    1.8788   -1.2417    0.3888 C   0  0  0  0  0  0  0  0  0  0  0  0
    2.5534   -0.7893   -1.7730 O   0  0  0  0  0  0  0  0  0  0  0  0
   -2.8587    0.4851    0.2322 H   0  0  0  0  0  0  0  0  0  0  0  0
   -2.8490   -1.2643    0.7823 H   0  0  0  0  0  0  0  0  0  0  0  0
   -1.7111   -0.1350    1.5389 H   0  0  0  0  0  0  0  0  0  0  0  0
   -1.8050   -1.2980   -1.2781 H   0  0  0  0  0  0  0  0  0  0  0  0
   -0.5504   -1.4469    0.0406 H   0  0  0  0  0  0  0  0  0  0  0  0
   -1.2381    0.9732   -1.8238 H   0  0  0  0  0  0  0  0  0  0  0  0
    0.1995    1.0875    1.0008 H   0  0  0  0  0  0  0  0  0  0  0  0
    0.7267    3.1994   -0.5577 H   0  0  0  0  0  0  0  0  0  0  0  0
    1.1487    1.2457   -2.0648 H   0  0  0  0  0  0  0  0  0  0  0  0
    1.5946   -2.2974    0.2103 H   0  0  0  0  0  0  0  0  0  0  0  0
    1.3283   -0.8648    1.2481 H   0  0  0  0  0  0  0  0  0  0  0  0
    2.9532   -1.3199    0.7370 H   0  0  0  0  0  0  0  0  0  0  0  0
  1  2  1  0
  2  3  1  0
  3  4  1  0
  4  5  1  0
  4  6  1  0
  6  7  1  0
  7  8  1  0
  7  9  2  0
  6  3  1  0
  1 10  1  0
  1 11  1  0
  1 12  1  0
  2 13  1  0
  2 14  1  0
  3 15  1  0
  4 16  1  0
  5 17  1  0
  6 18  1  0
  8 19  1  0
  8 20  1  0
  8 21  1  0
M  END
