
     RDKit          3D

 23 24  0  0  0  0  0  0  0  0999 V2000
   -2.4927   -0.1199   -0.9787 C   0  0  0  0  0  0  0  0  0  0  0  0
   -1.4175   -0.9381   -0.2944 C   0  0  0  0  0  0  0  0  0  0  0  0
   -0.6597   -0.1145    0.7131 C   0  0  0  0  0  0  0  0  0  0  0  0
   -1.5054    0.4623    1.8286 C   0  0  0  0  0  0  0  0  0  0  0  0
    0.4823   -0.8318    1.2088 O   0  0  0  0  0  0  0  0  0  0  0  0
    0.6649    0.3608    0.5265 C   0  0  0  0  0  0  0  0  0  0  0  0
    1.4462    0.2164   -0.7615 C   0  0  0  0  0  0  0  0  0  0  0  0
    2.8680    0.7946   -0.7730 C   0  0  0  0  0  0  0  0  0  0  0  0
    2.6596   -0.6585   -0.7911 C   0  0  0  0  0  0  0  0  0  0  0  0
   -3.1922   -0.7534   -1.5265 H   0  0  0  0  0  0  0  0  0  0  0  0
   -3.0809    0.4456   -0.2268 H   0  0  0  0  0  0  0  0  0  0  0  0
   -2.0023    0.5829   -1.7040 H   0  0  0  0  0  0  0  0  0  0  0  0
   -0.7619   -1.3419   -1.0922 H   0  0  0  0  0  0  0  0  0  0  0  0
   -1.9417   -1.7994    0.1828 H   0  0  0  0  0  0  0  0  0  0  0  0
   -2.1194   -0.2857    2.3366 H   0  0  0  0  0  0  0  0  0  0  0  0
   -0.8324    0.9521    2.5873 H   0  0  0  0  0  0  0  0  0  0  0  0
   -2.0897    1.2931    1.3844 H   0  0  0  0  0  0  0  0  0  0  0  0
    1.0408    1.1878    1.1642 H   0  0  0  0  0  0  0  0  0  0  0  0
    0.8576    0.3174   -1.6772 H   0  0  0  0  0  0  0  0  0  0  0  0
    3.1601    1.3171    0.1520 H   0  0  0  0  0  0  0  0  0  0  0  0
    3.1676    1.3631   -1.6941 H   0  0  0  0  0  0  0  0  0  0  0  0
    2.9165   -1.2214    0.1442 H   0  0  0  0  0  0  0  0  0  0  0  0
    2.8324   -1.2287   -1.7174 H   0  0  0  0  0  0  0  0  0  0  0  0
  1  2  1  0
  2  3  1  0
  3  4  1  0
  3  5  1  0
  5  6  1  0
  6  7  1  0
  7  8  1  0
  8  9  1  0
  6  3  1  0
  9  7  1  0
  1 10  1  0
  1 11  1  0
  1 12  1  0
  2 13  1  0
  2 14  1  0
  4 15  1  0
  4 16  1  0
  4 17  1  0
  6 18  1  0
  7 19  1  0
  8 20  1  0
  8 21  1  0
  9 22  1  0
  9 23  1  0
M  END
