
     RDKit          3D

 19 19  0  0  0  0  0  0  0  0999 V2000
   -2.3550   -0.1363   -0.1049 C   0  0  0  0  0  0  0  0  0  0  0  0
   -1.6076    1.0963   -0.5928 C   0  0  0  0  0  0  0  0  0  0  0  0
   -0.2194    1.1899    0.0279 C   0  0  0  0  0  0  0  0  0  0  0  0
    0.6839    0.0765   -0.2422 C   0  0  0  0  0  0  0  0  0  0  0  0
    1.4439   -0.8616   -0.4916 C   0  0  0  0  0  0  0  0  0  0  0  0
    2.3477   -1.9806   -0.7626 C   0  0  0  0  0  0  0  0  0  0  0  0
    2.8539   -2.4416    0.4458 O   0  0  0  0  0  0  0  0  0  0  0  0
   -0.1231    1.8244    1.4123 C   0  0  0  0  0  0  0  0  0  0  0  0
    0.3387    2.4191    0.2620 O   0  0  0  0  0  0  0  0  0  0  0  0
   -1.7601   -1.0535   -0.2883 H   0  0  0  0  0  0  0  0  0  0  0  0
   -3.2714   -0.2134   -0.7189 H   0  0  0  0  0  0  0  0  0  0  0  0
   -2.5676   -0.0980    0.9801 H   0  0  0  0  0  0  0  0  0  0  0  0
   -2.1618    2.0168   -0.4403 H   0  0  0  0  0  0  0  0  0  0  0  0
   -1.4849    0.9481   -1.6946 H   0  0  0  0  0  0  0  0  0  0  0  0
    1.7872   -2.8431   -1.2234 H   0  0  0  0  0  0  0  0  0  0  0  0
    3.1226   -1.6820   -1.4649 H   0  0  0  0  0  0  0  0  0  0  0  0
    3.4227   -1.8084    0.9080 H   0  0  0  0  0  0  0  0  0  0  0  0
   -1.0472    2.2140    1.8894 H   0  0  0  0  0  0  0  0  0  0  0  0
    0.5975    1.3333    2.0991 H   0  0  0  0  0  0  0  0  0  0  0  0
  1  2  1  0
  2  3  1  0
  3  4  1  0
  4  5  3  0
  5  6  1  0
  6  7  1  0
  3  8  1  0
  8  9  1  0
  9  3  1  0
  1 10  1  0
  1 11  1  0
  1 12  1  0
  2 13  1  0
  2 14  1  0
  6 15  1  0
  6 16  1  0
  7 17  1  0
  8 18  1  0
  8 19  1  0
M  END
