
     RDKit          3D

 23 24  0  0  0  0  0  0  0  0999 V2000
    3.1128    0.1844    0.4256 C   0  0  0  0  0  0  0  0  0  0  0  0
    2.3758   -0.3305   -0.7743 C   0  0  0  0  0  0  0  0  0  0  0  0
    0.8819   -0.1468   -0.6632 C   0  0  0  0  0  0  0  0  0  0  0  0
    0.5766    1.3008   -0.5236 O   0  0  0  0  0  0  0  0  0  0  0  0
    0.2839    0.3384    0.5231 C   0  0  0  0  0  0  0  0  0  0  0  0
   -1.1671    0.2467    0.8362 C   0  0  0  0  0  0  0  0  0  0  0  0
   -2.0950    0.9470   -0.1508 C   0  0  0  0  0  0  0  0  0  0  0  0
   -2.8667   -0.3567   -0.3790 C   0  0  0  0  0  0  0  0  0  0  0  0
   -1.8480   -1.0430    0.5035 C   0  0  0  0  0  0  0  0  0  0  0  0
    4.1921    0.3011    0.1156 H   0  0  0  0  0  0  0  0  0  0  0  0
    2.7915    1.1703    0.7668 H   0  0  0  0  0  0  0  0  0  0  0  0
    3.1459   -0.5815    1.2504 H   0  0  0  0  0  0  0  0  0  0  0  0
    2.5817   -1.4184   -0.8520 H   0  0  0  0  0  0  0  0  0  0  0  0
    2.8040    0.1400   -1.6684 H   0  0  0  0  0  0  0  0  0  0  0  0
    0.2750   -0.5610   -1.4929 H   0  0  0  0  0  0  0  0  0  0  0  0
    0.9303    0.5864    1.4068 H   0  0  0  0  0  0  0  0  0  0  0  0
   -1.4416    0.5860    1.8697 H   0  0  0  0  0  0  0  0  0  0  0  0
   -1.5056    1.2004   -1.0622 H   0  0  0  0  0  0  0  0  0  0  0  0
   -2.6967    1.7608    0.2745 H   0  0  0  0  0  0  0  0  0  0  0  0
   -2.8351   -0.7199   -1.4172 H   0  0  0  0  0  0  0  0  0  0  0  0
   -3.8790   -0.2665    0.0697 H   0  0  0  0  0  0  0  0  0  0  0  0
   -1.2398   -1.8135   -0.0021 H   0  0  0  0  0  0  0  0  0  0  0  0
   -2.3773   -1.5246    1.3675 H   0  0  0  0  0  0  0  0  0  0  0  0
  1  2  1  0
  2  3  1  0
  3  4  1  0
  4  5  1  0
  5  6  1  0
  6  7  1  0
  7  8  1  0
  8  9  1  0
  5  3  1  0
  9  6  1  0
  1 10  1  0
  1 11  1  0
  1 12  1  0
  2 13  1  0
  2 14  1  0
  3 15  1  0
  5 16  1  0
  6 17  1  0
  7 18  1  0
  7 19  1  0
  8 20  1  0
  8 21  1  0
  9 22  1  0
  9 23  1  0
M  END
