
     RDKit          3D

 25 25  0  0  0  0  0  0  0  0999 V2000
    2.8334    0.0941   -0.5769 C   0  0  0  0  0  0  0  0  0  0  0  0
    2.2634    0.7730    0.6187 C   0  0  0  0  0  0  0  0  0  0  0  0
    0.7750    0.6091    0.7538 C   0  0  0  0  0  0  0  0  0  0  0  0
    0.2975   -0.8193    0.8773 C   0  0  0  0  0  0  0  0  0  0  0  0
   -0.9389   -0.3675    0.0861 C   0  0  0  0  0  0  0  0  0  0  0  0
   -1.4535   -1.3974   -0.8636 C   0  0  0  0  0  0  0  0  0  0  0  0
   -1.8379    0.2110    0.9466 O   0  0  0  0  0  0  0  0  0  0  0  0
   -2.9889    0.6536    0.3359 C   0  0  0  0  0  0  0  0  0  0  0  0
   -0.0021    0.6660   -0.5496 C   0  0  0  0  0  0  0  0  0  0  0  0
    2.5392    0.6388   -1.4988 H   0  0  0  0  0  0  0  0  0  0  0  0
    3.9566    0.1128   -0.4590 H   0  0  0  0  0  0  0  0  0  0  0  0
    2.5742   -0.9840   -0.6089 H   0  0  0  0  0  0  0  0  0  0  0  0
    2.5953    1.8122    0.6499 H   0  0  0  0  0  0  0  0  0  0  0  0
    2.7159    0.2776    1.5270 H   0  0  0  0  0  0  0  0  0  0  0  0
    0.3117    1.2551    1.5044 H   0  0  0  0  0  0  0  0  0  0  0  0
    0.8301   -1.5651    0.2730 H   0  0  0  0  0  0  0  0  0  0  0  0
    0.0316   -1.1353    1.9041 H   0  0  0  0  0  0  0  0  0  0  0  0
   -2.2016   -2.0055   -0.3603 H   0  0  0  0  0  0  0  0  0  0  0  0
   -1.9246   -0.9551   -1.7683 H   0  0  0  0  0  0  0  0  0  0  0  0
   -0.6014   -2.0694   -1.1534 H   0  0  0  0  0  0  0  0  0  0  0  0
   -3.4814   -0.2198   -0.1400 H   0  0  0  0  0  0  0  0  0  0  0  0
   -2.6932    1.4225   -0.4262 H   0  0  0  0  0  0  0  0  0  0  0  0
   -3.6378    1.0904    1.1257 H   0  0  0  0  0  0  0  0  0  0  0  0
   -0.4957    1.6257   -0.7621 H   0  0  0  0  0  0  0  0  0  0  0  0
    0.5331    0.2767   -1.4353 H   0  0  0  0  0  0  0  0  0  0  0  0
  1  2  1  0
  2  3  1  0
  3  4  1  0
  4  5  1  0
  5  6  1  0
  5  7  1  0
  7  8  1  0
  5  9  1  0
  9  3  1  0
  1 10  1  0
  1 11  1  0
  1 12  1  0
  2 13  1  0
  2 14  1  0
  3 15  1  0
  4 16  1  0
  4 17  1  0
  6 18  1  0
  6 19  1  0
  6 20  1  0
  8 21  1  0
  8 22  1  0
  8 23  1  0
  9 24  1  0
  9 25  1  0
M  END
