
     RDKit          3D

 25 25  0  0  0  0  0  0  0  0999 V2000
   -3.0315   -0.2851    0.0958 C   0  0  0  0  0  0  0  0  0  0  0  0
   -1.8107    0.3114    0.7424 C   0  0  0  0  0  0  0  0  0  0  0  0
   -0.6483    0.4292   -0.2577 C   0  0  0  0  0  0  0  0  0  0  0  0
   -0.3246   -0.9055   -0.7465 C   0  0  0  0  0  0  0  0  0  0  0  0
    1.0265   -1.2251   -1.1472 C   0  0  0  0  0  0  0  0  0  0  0  0
    2.2434   -0.7679   -0.8756 C   0  0  0  0  0  0  0  0  0  0  0  0
    2.5951    0.3280    0.0211 C   0  0  0  0  0  0  0  0  0  0  0  0
    1.5045    0.4732    1.0556 C   0  0  0  0  0  0  0  0  0  0  0  0
    0.4012    1.2437    0.3761 C   0  0  0  0  0  0  0  0  0  0  0  0
   -3.6895   -0.7121    0.8945 H   0  0  0  0  0  0  0  0  0  0  0  0
   -3.5541    0.4953   -0.4945 H   0  0  0  0  0  0  0  0  0  0  0  0
   -2.7397   -1.1378   -0.5441 H   0  0  0  0  0  0  0  0  0  0  0  0
   -2.0353    1.3035    1.1862 H   0  0  0  0  0  0  0  0  0  0  0  0
   -1.5310   -0.3507    1.5889 H   0  0  0  0  0  0  0  0  0  0  0  0
   -1.0912    1.0476   -1.0967 H   0  0  0  0  0  0  0  0  0  0  0  0
   -1.0093   -1.1361   -1.6200 H   0  0  0  0  0  0  0  0  0  0  0  0
   -0.6418   -1.6766    0.0195 H   0  0  0  0  0  0  0  0  0  0  0  0
    1.0876   -2.0621   -1.8612 H   0  0  0  0  0  0  0  0  0  0  0  0
    3.0966   -1.2407   -1.3586 H   0  0  0  0  0  0  0  0  0  0  0  0
    2.6647    1.2664   -0.5960 H   0  0  0  0  0  0  0  0  0  0  0  0
    3.5963    0.2008    0.4718 H   0  0  0  0  0  0  0  0  0  0  0  0
    1.8964    1.0444    1.9444 H   0  0  0  0  0  0  0  0  0  0  0  0
    1.1937   -0.5017    1.4391 H   0  0  0  0  0  0  0  0  0  0  0  0
    0.8458    1.9487   -0.3827 H   0  0  0  0  0  0  0  0  0  0  0  0
   -0.0449    1.9091    1.1453 H   0  0  0  0  0  0  0  0  0  0  0  0
  1  2  1  0
  2  3  1  0
  3  4  1  0
  4  5  1  0
  5  6  2  0
  6  7  1  0
  7  8  1  0
  8  9  1  0
  9  3  1  0
  1 10  1  0
  1 11  1  0
  1 12  1  0
  2 13  1  0
  2 14  1  0
  3 15  1  0
  4 16  1  0
  4 17  1  0
  5 18  1  0
  6 19  1  0
  7 20  1  0
  7 21  1  0
  8 22  1  0
  8 23  1  0
  9 24  1  0
  9 25  1  0
M  END
