
     RDKit          3D

 23 24  0  0  0  0  0  0  0  0999 V2000
   -3.0225    0.1351   -1.1864 C   0  0  0  0  0  0  0  0  0  0  0  0
   -2.8088   -1.0107   -0.2506 C   0  0  0  0  0  0  0  0  0  0  0  0
   -1.4106   -1.0088    0.3623 C   0  0  0  0  0  0  0  0  0  0  0  0
   -1.0999    0.1677    1.1267 O   0  0  0  0  0  0  0  0  0  0  0  0
   -0.3910   -0.1867   -0.1259 C   0  0  0  0  0  0  0  0  0  0  0  0
    1.0785   -0.5413    0.1391 C   0  0  0  0  0  0  0  0  0  0  0  0
    1.9224    0.5086   -0.4974 C   0  0  0  0  0  0  0  0  0  0  0  0
    3.4015    0.4701   -0.4308 C   0  0  0  0  0  0  0  0  0  0  0  0
    2.6813    1.4163    0.4835 C   0  0  0  0  0  0  0  0  0  0  0  0
   -2.7230   -0.0785   -2.2242 H   0  0  0  0  0  0  0  0  0  0  0  0
   -2.5761    1.0940   -0.8187 H   0  0  0  0  0  0  0  0  0  0  0  0
   -4.1301    0.3383   -1.2240 H   0  0  0  0  0  0  0  0  0  0  0  0
   -3.5143   -0.9620    0.6134 H   0  0  0  0  0  0  0  0  0  0  0  0
   -2.8900   -1.9634   -0.8127 H   0  0  0  0  0  0  0  0  0  0  0  0
   -1.2152   -1.9275    0.9487 H   0  0  0  0  0  0  0  0  0  0  0  0
   -0.5911    0.6173   -0.8667 H   0  0  0  0  0  0  0  0  0  0  0  0
    1.2950   -1.5563   -0.2570 H   0  0  0  0  0  0  0  0  0  0  0  0
    1.2841   -0.5928    1.2279 H   0  0  0  0  0  0  0  0  0  0  0  0
    1.4694    1.0062   -1.3810 H   0  0  0  0  0  0  0  0  0  0  0  0
    3.9499    0.8584   -1.3106 H   0  0  0  0  0  0  0  0  0  0  0  0
    3.9301   -0.4034    0.0314 H   0  0  0  0  0  0  0  0  0  0  0  0
    2.6850    1.1173    1.5548 H   0  0  0  0  0  0  0  0  0  0  0  0
    2.6753    2.5020    0.2822 H   0  0  0  0  0  0  0  0  0  0  0  0
  1  2  1  0
  2  3  1  0
  3  4  1  0
  4  5  1  0
  5  6  1  0
  6  7  1  0
  7  8  1  0
  8  9  1  0
  5  3  1  0
  9  7  1  0
  1 10  1  0
  1 11  1  0
  1 12  1  0
  2 13  1  0
  2 14  1  0
  3 15  1  0
  5 16  1  0
  6 17  1  0
  6 18  1  0
  7 19  1  0
  8 20  1  0
  8 21  1  0
  9 22  1  0
  9 23  1  0
M  END
