
     RDKit          3D

 19 19  0  0  0  0  0  0  0  0999 V2000
   -2.8851    0.2248    0.0701 C   0  0  0  0  0  0  0  0  0  0  0  0
   -1.7095   -0.6643    0.4330 C   0  0  0  0  0  0  0  0  0  0  0  0
   -0.4510    0.1754    0.3304 C   0  0  0  0  0  0  0  0  0  0  0  0
   -0.3455    0.6628   -1.0712 O   0  0  0  0  0  0  0  0  0  0  0  0
    0.6097   -0.2871   -0.4780 C   0  0  0  0  0  0  0  0  0  0  0  0
    1.9843    0.3144   -0.5418 C   0  0  0  0  0  0  0  0  0  0  0  0
    2.0712    1.5172    0.1522 O   0  0  0  0  0  0  0  0  0  0  0  0
    3.0358   -0.6395   -0.1752 C   0  0  0  0  0  0  0  0  0  0  0  0
    3.8598   -0.3401    0.6547 O   0  0  0  0  0  0  0  0  0  0  0  0
   -2.6071    1.3083    0.0948 H   0  0  0  0  0  0  0  0  0  0  0  0
   -3.7295    0.1133    0.7824 H   0  0  0  0  0  0  0  0  0  0  0  0
   -3.2915   -0.0241   -0.9481 H   0  0  0  0  0  0  0  0  0  0  0  0
   -1.7045   -1.4935   -0.3134 H   0  0  0  0  0  0  0  0  0  0  0  0
   -1.8019   -1.1221    1.4228 H   0  0  0  0  0  0  0  0  0  0  0  0
   -0.3936    1.0234    1.0087 H   0  0  0  0  0  0  0  0  0  0  0  0
    0.5186   -1.2404   -1.0387 H   0  0  0  0  0  0  0  0  0  0  0  0
    2.1566    0.5845   -1.6258 H   0  0  0  0  0  0  0  0  0  0  0  0
    1.6053    1.4904    1.0200 H   0  0  0  0  0  0  0  0  0  0  0  0
    3.0778   -1.6034   -0.6403 H   0  0  0  0  0  0  0  0  0  0  0  0
  1  2  1  0
  2  3  1  0
  3  4  1  0
  4  5  1  0
  5  6  1  0
  6  7  1  0
  6  8  1  0
  8  9  2  0
  5  3  1  0
  1 10  1  0
  1 11  1  0
  1 12  1  0
  2 13  1  0
  2 14  1  0
  3 15  1  0
  5 16  1  0
  6 17  1  0
  7 18  1  0
  8 19  1  0
M  END
