
     RDKit          3D

 21 22  0  0  0  0  0  0  0  0999 V2000
   -2.4793    0.5354   -0.6340 C   0  0  0  0  0  0  0  0  0  0  0  0
   -2.0774   -0.6974    0.0936 C   0  0  0  0  0  0  0  0  0  0  0  0
   -0.6068   -0.8596    0.2739 C   0  0  0  0  0  0  0  0  0  0  0  0
    0.1276    0.1879    1.0253 C   0  0  0  0  0  0  0  0  0  0  0  0
   -0.1353    1.0456   -0.0296 O   0  0  0  0  0  0  0  0  0  0  0  0
    0.2410   -0.0988   -0.7093 C   0  0  0  0  0  0  0  0  0  0  0  0
    1.3538   -0.2372    0.2756 C   0  0  0  0  0  0  0  0  0  0  0  0
    2.4637    0.7602    0.1985 C   0  0  0  0  0  0  0  0  0  0  0  0
    3.5050    0.1576   -0.5433 O   0  0  0  0  0  0  0  0  0  0  0  0
   -3.5646    0.4171   -0.9188 H   0  0  0  0  0  0  0  0  0  0  0  0
   -2.4359    1.4601   -0.0356 H   0  0  0  0  0  0  0  0  0  0  0  0
   -1.9262    0.6000   -1.5717 H   0  0  0  0  0  0  0  0  0  0  0  0
   -2.4501   -1.5737   -0.4821 H   0  0  0  0  0  0  0  0  0  0  0  0
   -2.5685   -0.7763    1.1023 H   0  0  0  0  0  0  0  0  0  0  0  0
   -0.2217   -1.8571    0.4665 H   0  0  0  0  0  0  0  0  0  0  0  0
    0.0704    0.4060    2.0081 H   0  0  0  0  0  0  0  0  0  0  0  0
    0.2751   -0.2391   -1.7052 H   0  0  0  0  0  0  0  0  0  0  0  0
    1.6255   -1.2822    0.4462 H   0  0  0  0  0  0  0  0  0  0  0  0
    2.8381    1.0510    1.2076 H   0  0  0  0  0  0  0  0  0  0  0  0
    2.1532    1.6480   -0.3961 H   0  0  0  0  0  0  0  0  0  0  0  0
    3.8125   -0.6477   -0.0580 H   0  0  0  0  0  0  0  0  0  0  0  0
  1  2  1  0
  2  3  1  0
  3  4  1  0
  4  5  1  0
  5  6  1  0
  6  7  1  0
  7  8  1  0
  8  9  1  0
  6  3  1  0
  7  4  1  0
  1 10  1  0
  1 11  1  0
  1 12  1  0
  2 13  1  0
  2 14  1  0
  3 15  1  0
  4 16  1  0
  6 17  1  0
  7 18  1  0
  8 19  1  0
  8 20  1  0
  9 21  1  0
M  END
