
     RDKit          3D

 21 22  0  0  0  0  0  0  0  0999 V2000
    2.5127    0.2820   -0.2069 C   0  0  0  0  0  0  0  0  0  0  0  0
    1.1385    0.2179   -0.7583 C   0  0  0  0  0  0  0  0  0  0  0  0
    0.0492    0.1489    0.2658 C   0  0  0  0  0  0  0  0  0  0  0  0
    0.0120   -0.9973    1.2369 C   0  0  0  0  0  0  0  0  0  0  0  0
   -1.2818   -1.4686    1.2770 O   0  0  0  0  0  0  0  0  0  0  0  0
   -1.9395   -1.0894    0.1458 C   0  0  0  0  0  0  0  0  0  0  0  0
   -1.3562    0.1930   -0.3599 C   0  0  0  0  0  0  0  0  0  0  0  0
   -1.4774    0.4400   -1.7029 O   0  0  0  0  0  0  0  0  0  0  0  0
   -0.8734    1.2596    0.5317 C   0  0  0  0  0  0  0  0  0  0  0  0
    2.8547    1.3367   -0.2003 H   0  0  0  0  0  0  0  0  0  0  0  0
    2.5691   -0.1731    0.7966 H   0  0  0  0  0  0  0  0  0  0  0  0
    3.2230   -0.2531   -0.9018 H   0  0  0  0  0  0  0  0  0  0  0  0
    1.0576   -0.7118   -1.3839 H   0  0  0  0  0  0  0  0  0  0  0  0
    0.9482    1.0637   -1.4403 H   0  0  0  0  0  0  0  0  0  0  0  0
    0.2208   -0.5553    2.2547 H   0  0  0  0  0  0  0  0  0  0  0  0
    0.7396   -1.7978    1.0091 H   0  0  0  0  0  0  0  0  0  0  0  0
   -1.7756   -1.8620   -0.6409 H   0  0  0  0  0  0  0  0  0  0  0  0
   -3.0345   -1.0450    0.3225 H   0  0  0  0  0  0  0  0  0  0  0  0
   -1.4797    1.4308   -1.8236 H   0  0  0  0  0  0  0  0  0  0  0  0
   -1.3587    1.3197    1.5234 H   0  0  0  0  0  0  0  0  0  0  0  0
   -0.7487    2.2610    0.0553 H   0  0  0  0  0  0  0  0  0  0  0  0
  1  2  1  0
  2  3  1  0
  3  4  1  0
  4  5  1  0
  5  6  1  0
  6  7  1  0
  7  8  1  0
  7  9  1  0
  7  3  1  0
  9  3  1  0
  1 10  1  0
  1 11  1  0
  1 12  1  0
  2 13  1  0
  2 14  1  0
  4 15  1  0
  4 16  1  0
  6 17  1  0
  6 18  1  0
  8 19  1  0
  9 20  1  0
  9 21  1  0
M  END
