
     RDKit          3D

 23 24  0  0  0  0  0  0  0  0999 V2000
    2.9441    0.6421   -0.1857 C   0  0  0  0  0  0  0  0  0  0  0  0
    1.9616   -0.4943   -0.1545 C   0  0  0  0  0  0  0  0  0  0  0  0
    0.7377   -0.1821    0.6607 C   0  0  0  0  0  0  0  0  0  0  0  0
    0.0430    0.9433    0.1474 O   0  0  0  0  0  0  0  0  0  0  0  0
   -1.2289    0.4631   -0.0045 C   0  0  0  0  0  0  0  0  0  0  0  0
   -2.3131    1.3047   -0.4686 C   0  0  0  0  0  0  0  0  0  0  0  0
   -0.9685   -0.8486   -0.7679 C   0  0  0  0  0  0  0  0  0  0  0  0
   -0.3193   -1.2169    0.5527 C   0  0  0  0  0  0  0  0  0  0  0  0
   -1.5051   -0.4695    1.1851 C   0  0  0  0  0  0  0  0  0  0  0  0
    2.8578    1.1390   -1.1625 H   0  0  0  0  0  0  0  0  0  0  0  0
    2.6502    1.3643    0.6076 H   0  0  0  0  0  0  0  0  0  0  0  0
    3.9858    0.2938   -0.0099 H   0  0  0  0  0  0  0  0  0  0  0  0
    2.4679   -1.3449    0.3642 H   0  0  0  0  0  0  0  0  0  0  0  0
    1.7159   -0.8724   -1.1670 H   0  0  0  0  0  0  0  0  0  0  0  0
    1.0023    0.0146    1.7099 H   0  0  0  0  0  0  0  0  0  0  0  0
   -1.9295    2.2018   -0.9828 H   0  0  0  0  0  0  0  0  0  0  0  0
   -2.9721    1.5897    0.4044 H   0  0  0  0  0  0  0  0  0  0  0  0
   -3.0039    0.7099   -1.1335 H   0  0  0  0  0  0  0  0  0  0  0  0
   -1.9229   -1.3323   -0.9823 H   0  0  0  0  0  0  0  0  0  0  0  0
   -0.2686   -0.7130   -1.6130 H   0  0  0  0  0  0  0  0  0  0  0  0
   -0.1717   -2.2230    0.8059 H   0  0  0  0  0  0  0  0  0  0  0  0
   -2.4750   -0.9441    1.0401 H   0  0  0  0  0  0  0  0  0  0  0  0
   -1.2878   -0.0253    2.1567 H   0  0  0  0  0  0  0  0  0  0  0  0
  1  2  1  0
  2  3  1  0
  3  4  1  0
  4  5  1  0
  5  6  1  0
  5  7  1  0
  7  8  1  0
  8  9  1  0
  8  3  1  0
  9  5  1  0
  1 10  1  0
  1 11  1  0
  1 12  1  0
  2 13  1  0
  2 14  1  0
  3 15  1  0
  6 16  1  0
  6 17  1  0
  6 18  1  0
  7 19  1  0
  7 20  1  0
  8 21  1  0
  9 22  1  0
  9 23  1  0
M  END
