
     RDKit          3D

 25 26  0  0  0  0  0  0  0  0999 V2000
    3.3106    0.2612    0.2866 C   0  0  0  0  0  0  0  0  0  0  0  0
    2.2697   -0.6765   -0.2866 C   0  0  0  0  0  0  0  0  0  0  0  0
    0.9753    0.0844   -0.4316 C   0  0  0  0  0  0  0  0  0  0  0  0
   -0.1707   -0.7303   -0.9987 C   0  0  0  0  0  0  0  0  0  0  0  0
   -1.0378   -0.0693    0.0157 C   0  0  0  0  0  0  0  0  0  0  0  0
   -1.8685    1.0730   -0.3918 C   0  0  0  0  0  0  0  0  0  0  0  0
   -2.9644    0.5486    0.5399 C   0  0  0  0  0  0  0  0  0  0  0  0
   -2.1951   -0.7814    0.5565 C   0  0  0  0  0  0  0  0  0  0  0  0
    0.1566    0.1651    0.8665 C   0  0  0  0  0  0  0  0  0  0  0  0
    3.0939    1.2868   -0.0704 H   0  0  0  0  0  0  0  0  0  0  0  0
    3.2797    0.2506    1.3948 H   0  0  0  0  0  0  0  0  0  0  0  0
    4.3180   -0.0844   -0.0015 H   0  0  0  0  0  0  0  0  0  0  0  0
    2.6066   -1.0193   -1.2771 H   0  0  0  0  0  0  0  0  0  0  0  0
    2.1791   -1.5344    0.3791 H   0  0  0  0  0  0  0  0  0  0  0  0
    1.1143    1.0767   -0.9028 H   0  0  0  0  0  0  0  0  0  0  0  0
   -0.0038   -1.8274   -0.8116 H   0  0  0  0  0  0  0  0  0  0  0  0
   -0.3447   -0.4654   -2.0528 H   0  0  0  0  0  0  0  0  0  0  0  0
   -1.5175    2.0896   -0.1583 H   0  0  0  0  0  0  0  0  0  0  0  0
   -2.2072    0.9843   -1.4449 H   0  0  0  0  0  0  0  0  0  0  0  0
   -3.9444    0.5025    0.0575 H   0  0  0  0  0  0  0  0  0  0  0  0
   -2.8956    1.1101    1.4929 H   0  0  0  0  0  0  0  0  0  0  0  0
   -2.1496   -1.1859    1.5783 H   0  0  0  0  0  0  0  0  0  0  0  0
   -2.6996   -1.4746   -0.1684 H   0  0  0  0  0  0  0  0  0  0  0  0
    0.2989    1.1430    1.3197 H   0  0  0  0  0  0  0  0  0  0  0  0
    0.3964   -0.7270    1.4764 H   0  0  0  0  0  0  0  0  0  0  0  0
  1  2  1  0
  2  3  1  0
  3  4  1  0
  4  5  1  0
  5  6  1  0
  6  7  1  0
  7  8  1  0
  5  9  1  0
  9  3  1  0
  8  5  1  0
  1 10  1  0
  1 11  1  0
  1 12  1  0
  2 13  1  0
  2 14  1  0
  3 15  1  0
  4 16  1  0
  4 17  1  0
  6 18  1  0
  6 19  1  0
  7 20  1  0
  7 21  1  0
  8 22  1  0
  8 23  1  0
  9 24  1  0
  9 25  1  0
M  END
