
     RDKit          3D

 22 22  0  0  0  0  0  0  0  0999 V2000
   -1.2243   -2.1704   -0.0794 C   0  0  0  0  0  0  0  0  0  0  0  0
   -0.8651   -0.8262    0.4557 C   0  0  0  0  0  0  0  0  0  0  0  0
   -0.1936    0.0668   -0.5421 C   0  0  0  0  0  0  0  0  0  0  0  0
    0.1371    1.4103    0.0817 C   0  0  0  0  0  0  0  0  0  0  0  0
   -0.9014    2.4243   -0.2792 C   0  0  0  0  0  0  0  0  0  0  0  0
    1.2981    1.4173   -0.6767 O   0  0  0  0  0  0  0  0  0  0  0  0
    1.2847    0.0240   -0.6223 C   0  0  0  0  0  0  0  0  0  0  0  0
    2.0252   -0.5707    0.5443 C   0  0  0  0  0  0  0  0  0  0  0  0
   -0.6997   -2.9498    0.5373 H   0  0  0  0  0  0  0  0  0  0  0  0
   -0.9919   -2.2554   -1.1441 H   0  0  0  0  0  0  0  0  0  0  0  0
   -2.3174   -2.3884    0.0662 H   0  0  0  0  0  0  0  0  0  0  0  0
   -1.8112   -0.3076    0.7746 H   0  0  0  0  0  0  0  0  0  0  0  0
   -0.2382   -0.8842    1.3672 H   0  0  0  0  0  0  0  0  0  0  0  0
   -0.6619    0.1733   -1.5146 H   0  0  0  0  0  0  0  0  0  0  0  0
    0.3914    1.3270    1.1589 H   0  0  0  0  0  0  0  0  0  0  0  0
   -0.5763    3.1619   -1.0294 H   0  0  0  0  0  0  0  0  0  0  0  0
   -1.1977    2.9421    0.6758 H   0  0  0  0  0  0  0  0  0  0  0  0
   -1.8495    1.9646   -0.6601 H   0  0  0  0  0  0  0  0  0  0  0  0
    1.6425   -0.4213   -1.5752 H   0  0  0  0  0  0  0  0  0  0  0  0
    3.0931   -0.2441    0.4405 H   0  0  0  0  0  0  0  0  0  0  0  0
    1.6851   -0.2211    1.5158 H   0  0  0  0  0  0  0  0  0  0  0  0
    1.9709   -1.6724    0.5051 H   0  0  0  0  0  0  0  0  0  0  0  0
  1  2  1  0
  2  3  1  0
  3  4  1  0
  4  5  1  0
  4  6  1  0
  6  7  1  0
  7  8  1  0
  7  3  1  0
  1  9  1  0
  1 10  1  0
  1 11  1  0
  2 12  1  0
  2 13  1  0
  3 14  1  0
  4 15  1  0
  5 16  1  0
  5 17  1  0
  5 18  1  0
  7 19  1  0
  8 20  1  0
  8 21  1  0
  8 22  1  0
M  END
