
     RDKit          3D

 21 21  0  0  0  0  0  0  0  0999 V2000
    2.6663   -0.0356    0.2056 C   0  0  0  0  0  0  0  0  0  0  0  0
    1.4443   -0.3775   -0.5863 C   0  0  0  0  0  0  0  0  0  0  0  0
    0.1563   -0.1227    0.1651 C   0  0  0  0  0  0  0  0  0  0  0  0
    0.1168    1.3329    0.5032 C   0  0  0  0  0  0  0  0  0  0  0  0
    1.0317    2.0281    1.0161 O   0  0  0  0  0  0  0  0  0  0  0  0
   -1.1973    1.8101    0.1243 C   0  0  0  0  0  0  0  0  0  0  0  0
   -1.8741    0.9308   -0.5598 C   0  0  0  0  0  0  0  0  0  0  0  0
   -1.0239   -0.2959   -0.7137 C   0  0  0  0  0  0  0  0  0  0  0  0
   -1.9030   -1.4640   -0.3207 C   0  0  0  0  0  0  0  0  0  0  0  0
    2.6138   -0.3319    1.2695 H   0  0  0  0  0  0  0  0  0  0  0  0
    2.9518    1.0310    0.1010 H   0  0  0  0  0  0  0  0  0  0  0  0
    3.5248   -0.6082   -0.2542 H   0  0  0  0  0  0  0  0  0  0  0  0
    1.4345   -1.4507   -0.8977 H   0  0  0  0  0  0  0  0  0  0  0  0
    1.4880    0.2103   -1.5259 H   0  0  0  0  0  0  0  0  0  0  0  0
    0.1208   -0.6650    1.1238 H   0  0  0  0  0  0  0  0  0  0  0  0
   -1.6041    2.8004    0.3733 H   0  0  0  0  0  0  0  0  0  0  0  0
   -2.8710    0.9616   -0.9913 H   0  0  0  0  0  0  0  0  0  0  0  0
   -0.7672   -0.3558   -1.7923 H   0  0  0  0  0  0  0  0  0  0  0  0
   -1.8667   -1.6747    0.7602 H   0  0  0  0  0  0  0  0  0  0  0  0
   -1.5121   -2.3988   -0.8176 H   0  0  0  0  0  0  0  0  0  0  0  0
   -2.9296   -1.3241   -0.7150 H   0  0  0  0  0  0  0  0  0  0  0  0
  1  2  1  0
  2  3  1  0
  3  4  1  0
  4  5  2  0
  4  6  1  0
  6  7  2  0
  7  8  1  0
  8  9  1  0
  8  3  1  0
  1 10  1  0
  1 11  1  0
  1 12  1  0
  2 13  1  0
  2 14  1  0
  3 15  1  0
  6 16  1  0
  7 17  1  0
  8 18  1  0
  9 19  1  0
  9 20  1  0
  9 21  1  0
M  END
