
     RDKit          3D

 19 20  0  0  0  0  0  0  0  0999 V2000
    2.1982    0.1108    0.1125 C   0  0  0  0  0  0  0  0  0  0  0  0
    1.1957    0.5099   -0.8930 C   0  0  0  0  0  0  0  0  0  0  0  0
   -0.2274    0.3262   -0.5335 C   0  0  0  0  0  0  0  0  0  0  0  0
   -0.5867   -1.1361   -0.2328 C   0  0  0  0  0  0  0  0  0  0  0  0
   -1.8071   -0.9634    0.6379 C   0  0  0  0  0  0  0  0  0  0  0  0
   -2.4052   -1.8013    1.2744 O   0  0  0  0  0  0  0  0  0  0  0  0
   -2.1349    0.4566    0.5595 C   0  0  0  0  0  0  0  0  0  0  0  0
   -1.7260    1.5274    1.1771 O   0  0  0  0  0  0  0  0  0  0  0  0
   -0.6528    0.9192    0.7600 C   0  0  0  0  0  0  0  0  0  0  0  0
    3.1807   -0.0444   -0.4261 H   0  0  0  0  0  0  0  0  0  0  0  0
    2.0099   -0.8096    0.6610 H   0  0  0  0  0  0  0  0  0  0  0  0
    2.4370    0.9222    0.8601 H   0  0  0  0  0  0  0  0  0  0  0  0
    1.3389    1.5825   -1.1403 H   0  0  0  0  0  0  0  0  0  0  0  0
    1.3819   -0.0407   -1.8484 H   0  0  0  0  0  0  0  0  0  0  0  0
   -0.8523    0.6620   -1.3837 H   0  0  0  0  0  0  0  0  0  0  0  0
   -0.8137   -1.6929   -1.1505 H   0  0  0  0  0  0  0  0  0  0  0  0
    0.1529   -1.6176    0.4134 H   0  0  0  0  0  0  0  0  0  0  0  0
   -2.5838    0.6941   -0.4552 H   0  0  0  0  0  0  0  0  0  0  0  0
   -0.1052    0.3950    1.6078 H   0  0  0  0  0  0  0  0  0  0  0  0
  1  2  1  0
  2  3  1  0
  3  4  1  0
  4  5  1  0
  5  6  2  0
  5  7  1  0
  7  8  1  0
  8  9  1  0
  9  3  1  0
  9  7  1  0
  1 10  1  0
  1 11  1  0
  1 12  1  0
  2 13  1  0
  2 14  1  0
  3 15  1  0
  4 16  1  0
  4 17  1  0
  7 18  1  0
  9 19  1  0
M  END
