
     RDKit          3D

 21 21  0  0  0  0  0  0  0  0999 V2000
    2.6102    0.0617   -0.1825 C   0  0  0  0  0  0  0  0  0  0  0  0
    1.4639   -0.1918    0.7697 C   0  0  0  0  0  0  0  0  0  0  0  0
    0.1960    0.2302    0.1009 C   0  0  0  0  0  0  0  0  0  0  0  0
   -0.1259   -0.4950   -1.1908 C   0  0  0  0  0  0  0  0  0  0  0  0
   -1.5970   -0.3132   -0.7875 C   0  0  0  0  0  0  0  0  0  0  0  0
   -1.9813    0.9787   -1.0709 O   0  0  0  0  0  0  0  0  0  0  0  0
   -1.0744   -0.3778    0.6552 C   0  0  0  0  0  0  0  0  0  0  0  0
   -1.8199    0.4675    1.6000 C   0  0  0  0  0  0  0  0  0  0  0  0
   -1.3379    1.4907    2.0243 O   0  0  0  0  0  0  0  0  0  0  0  0
    2.7642   -0.8102   -0.8315 H   0  0  0  0  0  0  0  0  0  0  0  0
    2.4124    0.9966   -0.7702 H   0  0  0  0  0  0  0  0  0  0  0  0
    3.5129    0.2890    0.4301 H   0  0  0  0  0  0  0  0  0  0  0  0
    1.3851   -1.2580    1.0432 H   0  0  0  0  0  0  0  0  0  0  0  0
    1.6179    0.4535    1.6506 H   0  0  0  0  0  0  0  0  0  0  0  0
    0.0601    1.3113   -0.0435 H   0  0  0  0  0  0  0  0  0  0  0  0
    0.1367   -1.5704   -1.1489 H   0  0  0  0  0  0  0  0  0  0  0  0
    0.1526    0.0294   -2.1158 H   0  0  0  0  0  0  0  0  0  0  0  0
   -2.2583   -1.1241   -1.0707 H   0  0  0  0  0  0  0  0  0  0  0  0
   -2.3902    1.0871   -1.9551 H   0  0  0  0  0  0  0  0  0  0  0  0
   -0.9269   -1.4370    0.9724 H   0  0  0  0  0  0  0  0  0  0  0  0
   -2.8001    0.1818    1.9208 H   0  0  0  0  0  0  0  0  0  0  0  0
  1  2  1  0
  2  3  1  0
  3  4  1  0
  4  5  1  0
  5  6  1  0
  5  7  1  0
  7  8  1  0
  8  9  2  0
  7  3  1  0
  1 10  1  0
  1 11  1  0
  1 12  1  0
  2 13  1  0
  2 14  1  0
  3 15  1  0
  4 16  1  0
  4 17  1  0
  5 18  1  0
  6 19  1  0
  7 20  1  0
  8 21  1  0
M  END
