
     RDKit          3D

 21 21  0  0  0  0  0  0  0  0999 V2000
    2.2687   -0.1750    0.4411 C   0  0  0  0  0  0  0  0  0  0  0  0
    1.4349    0.2436   -0.7304 C   0  0  0  0  0  0  0  0  0  0  0  0
   -0.0328    0.1825   -0.5030 C   0  0  0  0  0  0  0  0  0  0  0  0
   -0.6887    0.5891   -1.6473 O   0  0  0  0  0  0  0  0  0  0  0  0
   -0.5273   -1.1722   -0.0671 C   0  0  0  0  0  0  0  0  0  0  0  0
   -2.0102   -0.8289    0.1274 C   0  0  0  0  0  0  0  0  0  0  0  0
   -1.8935    0.4769    0.8374 C   0  0  0  0  0  0  0  0  0  0  0  0
   -2.8142    0.9692    1.4652 O   0  0  0  0  0  0  0  0  0  0  0  0
   -0.5195    1.0269    0.6419 C   0  0  0  0  0  0  0  0  0  0  0  0
    2.0245    0.3123    1.3806 H   0  0  0  0  0  0  0  0  0  0  0  0
    2.2752   -1.2826    0.6037 H   0  0  0  0  0  0  0  0  0  0  0  0
    3.3333    0.1064    0.2053 H   0  0  0  0  0  0  0  0  0  0  0  0
    1.6987    1.2950   -0.9677 H   0  0  0  0  0  0  0  0  0  0  0  0
    1.6849   -0.3768   -1.5981 H   0  0  0  0  0  0  0  0  0  0  0  0
   -0.2161    1.3055   -2.1203 H   0  0  0  0  0  0  0  0  0  0  0  0
   -0.1512   -1.4363    0.9417 H   0  0  0  0  0  0  0  0  0  0  0  0
   -0.3804   -1.9543   -0.8152 H   0  0  0  0  0  0  0  0  0  0  0  0
   -2.4556   -0.6293   -0.8668 H   0  0  0  0  0  0  0  0  0  0  0  0
   -2.5384   -1.5893    0.7040 H   0  0  0  0  0  0  0  0  0  0  0  0
    0.0622    0.8317    1.5724 H   0  0  0  0  0  0  0  0  0  0  0  0
   -0.5544    2.1056    0.3954 H   0  0  0  0  0  0  0  0  0  0  0  0
  1  2  1  0
  2  3  1  0
  3  4  1  0
  3  5  1  0
  5  6  1  0
  6  7  1  0
  7  8  2  0
  7  9  1  0
  9  3  1  0
  1 10  1  0
  1 11  1  0
  1 12  1  0
  2 13  1  0
  2 14  1  0
  4 15  1  0
  5 16  1  0
  5 17  1  0
  6 18  1  0
  6 19  1  0
  9 20  1  0
  9 21  1  0
M  END
