
     RDKit          3D

 19 19  0  0  0  0  0  0  0  0999 V2000
    1.8577   -0.8828    0.4389 C   0  0  0  0  0  0  0  0  0  0  0  0
    1.2978    0.4701    0.1568 C   0  0  0  0  0  0  0  0  0  0  0  0
   -0.1685    0.4682   -0.1136 C   0  0  0  0  0  0  0  0  0  0  0  0
   -0.7737    1.7877   -0.4001 C   0  0  0  0  0  0  0  0  0  0  0  0
   -0.3369    2.7730    0.1331 O   0  0  0  0  0  0  0  0  0  0  0  0
   -0.6691   -0.6191   -1.0525 C   0  0  0  0  0  0  0  0  0  0  0  0
   -1.9437   -0.5349   -0.2393 C   0  0  0  0  0  0  0  0  0  0  0  0
   -3.1309   -0.6394   -0.4659 O   0  0  0  0  0  0  0  0  0  0  0  0
   -1.0351   -0.2724    0.9165 C   0  0  0  0  0  0  0  0  0  0  0  0
    1.7443   -1.5934   -0.4050 H   0  0  0  0  0  0  0  0  0  0  0  0
    2.9750   -0.8055    0.5810 H   0  0  0  0  0  0  0  0  0  0  0  0
    1.4213   -1.2685    1.3855 H   0  0  0  0  0  0  0  0  0  0  0  0
    1.8124    0.8476   -0.7749 H   0  0  0  0  0  0  0  0  0  0  0  0
    1.5927    1.1777    0.9478 H   0  0  0  0  0  0  0  0  0  0  0  0
   -1.5950    1.8500   -1.0802 H   0  0  0  0  0  0  0  0  0  0  0  0
   -0.7891   -0.3116   -2.1027 H   0  0  0  0  0  0  0  0  0  0  0  0
   -0.2238   -1.5915   -0.8481 H   0  0  0  0  0  0  0  0  0  0  0  0
   -1.4459    0.3722    1.7036 H   0  0  0  0  0  0  0  0  0  0  0  0
   -0.5895   -1.2275    1.2191 H   0  0  0  0  0  0  0  0  0  0  0  0
  1  2  1  0
  2  3  1  0
  3  4  1  0
  4  5  2  0
  3  6  1  0
  6  7  1  0
  7  8  2  0
  7  9  1  0
  9  3  1  0
  1 10  1  0
  1 11  1  0
  1 12  1  0
  2 13  1  0
  2 14  1  0
  4 15  1  0
  6 16  1  0
  6 17  1  0
  9 18  1  0
  9 19  1  0
M  END
