
     RDKit          3D

 25 26  0  0  0  0  0  0  0  0999 V2000
   -2.8619    0.2158    0.6714 C   0  0  0  0  0  0  0  0  0  0  0  0
   -1.3740    0.0640    0.8508 C   0  0  0  0  0  0  0  0  0  0  0  0
   -0.5857    0.3472   -0.3818 C   0  0  0  0  0  0  0  0  0  0  0  0
   -0.9029   -0.5439   -1.5817 C   0  0  0  0  0  0  0  0  0  0  0  0
    0.5749   -0.4556   -1.9166 C   0  0  0  0  0  0  0  0  0  0  0  0
    0.7927   -0.1542   -0.4752 C   0  0  0  0  0  0  0  0  0  0  0  0
    1.4864   -0.9974    0.4712 C   0  0  0  0  0  0  0  0  0  0  0  0
    1.9914    0.3960    0.1061 C   0  0  0  0  0  0  0  0  0  0  0  0
    2.0364    1.4456    1.1723 C   0  0  0  0  0  0  0  0  0  0  0  0
   -3.3317   -0.6205    0.1340 H   0  0  0  0  0  0  0  0  0  0  0  0
   -3.0822    1.2031    0.2157 H   0  0  0  0  0  0  0  0  0  0  0  0
   -3.3112    0.2405    1.6876 H   0  0  0  0  0  0  0  0  0  0  0  0
   -1.1472   -0.9435    1.2524 H   0  0  0  0  0  0  0  0  0  0  0  0
   -1.0788    0.7928    1.6342 H   0  0  0  0  0  0  0  0  0  0  0  0
   -0.6653    1.4049   -0.7089 H   0  0  0  0  0  0  0  0  0  0  0  0
   -1.5631   -0.0594   -2.3389 H   0  0  0  0  0  0  0  0  0  0  0  0
   -1.1453   -1.5847   -1.3238 H   0  0  0  0  0  0  0  0  0  0  0  0
    0.8051    0.4049   -2.5652 H   0  0  0  0  0  0  0  0  0  0  0  0
    1.0219   -1.3710   -2.3180 H   0  0  0  0  0  0  0  0  0  0  0  0
    1.0320   -1.1462    1.4682 H   0  0  0  0  0  0  0  0  0  0  0  0
    2.0950   -1.8651    0.1451 H   0  0  0  0  0  0  0  0  0  0  0  0
    2.9170    0.3826   -0.5408 H   0  0  0  0  0  0  0  0  0  0  0  0
    2.6566    2.2886    0.8229 H   0  0  0  0  0  0  0  0  0  0  0  0
    1.0563    1.8595    1.4528 H   0  0  0  0  0  0  0  0  0  0  0  0
    2.5835    1.0294    2.0663 H   0  0  0  0  0  0  0  0  0  0  0  0
  1  2  1  0
  2  3  1  0
  3  4  1  0
  4  5  1  0
  5  6  1  0
  6  7  1  0
  7  8  1  0
  8  9  1  0
  6  3  1  0
  8  6  1  0
  1 10  1  0
  1 11  1  0
  1 12  1  0
  2 13  1  0
  2 14  1  0
  3 15  1  0
  4 16  1  0
  4 17  1  0
  5 18  1  0
  5 19  1  0
  7 20  1  0
  7 21  1  0
  8 22  1  0
  9 23  1  0
  9 24  1  0
  9 25  1  0
M  END
