
     RDKit          3D

 21 23  0  0  0  0  0  0  0  0999 V2000
    2.5667   -0.1799    0.1456 C   0  0  0  0  0  0  0  0  0  0  0  0
    1.4764   -0.0819   -0.8939 C   0  0  0  0  0  0  0  0  0  0  0  0
    0.2563    0.4405   -0.2297 C   0  0  0  0  0  0  0  0  0  0  0  0
   -0.3539   -0.3232    0.8931 C   0  0  0  0  0  0  0  0  0  0  0  0
   -1.0574   -1.1618   -0.1903 C   0  0  0  0  0  0  0  0  0  0  0  0
   -1.0566    0.1848   -0.9316 C   0  0  0  0  0  0  0  0  0  0  0  0
   -2.0134    0.9659   -0.0881 C   0  0  0  0  0  0  0  0  0  0  0  0
   -1.5049    1.8913    0.8317 O   0  0  0  0  0  0  0  0  0  0  0  0
   -1.4920    0.5755    1.3107 C   0  0  0  0  0  0  0  0  0  0  0  0
    2.0799   -0.3668    1.1169 H   0  0  0  0  0  0  0  0  0  0  0  0
    3.3215   -0.9522   -0.1054 H   0  0  0  0  0  0  0  0  0  0  0  0
    3.0327    0.8309    0.2317 H   0  0  0  0  0  0  0  0  0  0  0  0
    1.3462   -1.0672   -1.3678 H   0  0  0  0  0  0  0  0  0  0  0  0
    1.8528    0.6199   -1.6735 H   0  0  0  0  0  0  0  0  0  0  0  0
    0.2872    1.5354    0.0373 H   0  0  0  0  0  0  0  0  0  0  0  0
    0.2014   -0.8475    1.6204 H   0  0  0  0  0  0  0  0  0  0  0  0
   -2.0813   -1.4309    0.0838 H   0  0  0  0  0  0  0  0  0  0  0  0
   -0.4296   -1.9324   -0.6443 H   0  0  0  0  0  0  0  0  0  0  0  0
   -1.1114    0.1767   -1.9820 H   0  0  0  0  0  0  0  0  0  0  0  0
   -3.0969    0.8731   -0.2170 H   0  0  0  0  0  0  0  0  0  0  0  0
   -2.2237    0.2496    2.0523 H   0  0  0  0  0  0  0  0  0  0  0  0
  1  2  1  0
  2  3  1  0
  3  4  1  0
  4  5  1  0
  5  6  1  0
  6  7  1  0
  7  8  1  0
  8  9  1  0
  6  3  1  0
  9  7  1  0
  9  4  1  0
  1 10  1  0
  1 11  1  0
  1 12  1  0
  2 13  1  0
  2 14  1  0
  3 15  1  0
  4 16  1  0
  5 17  1  0
  5 18  1  0
  6 19  1  0
  7 20  1  0
  9 21  1  0
M  END
