
     RDKit          3D

 25 25  0  0  0  0  0  0  0  0999 V2000
   -0.9504   -1.8638    0.7464 C   0  0  0  0  0  0  0  0  0  0  0  0
   -0.7065   -1.5854   -0.7172 C   0  0  0  0  0  0  0  0  0  0  0  0
   -0.4379   -0.1590   -1.0517 C   0  0  0  0  0  0  0  0  0  0  0  0
    0.6383    0.6642   -0.5628 C   0  0  0  0  0  0  0  0  0  0  0  0
    1.6101    0.3575    0.5057 C   0  0  0  0  0  0  0  0  0  0  0  0
    2.4732   -0.8381    0.3053 C   0  0  0  0  0  0  0  0  0  0  0  0
   -0.7884    0.8979   -0.0427 C   0  0  0  0  0  0  0  0  0  0  0  0
   -1.5113    2.1511   -0.4929 C   0  0  0  0  0  0  0  0  0  0  0  0
   -1.7263    2.9717    0.5948 O   0  0  0  0  0  0  0  0  0  0  0  0
   -1.3705   -2.9100    0.7918 H   0  0  0  0  0  0  0  0  0  0  0  0
   -1.8306   -1.2216    1.0390 H   0  0  0  0  0  0  0  0  0  0  0  0
   -0.0893   -1.7623    1.3932 H   0  0  0  0  0  0  0  0  0  0  0  0
   -1.6811   -1.8986   -1.2086 H   0  0  0  0  0  0  0  0  0  0  0  0
    0.0345   -2.2885   -1.1613 H   0  0  0  0  0  0  0  0  0  0  0  0
   -0.8342    0.1017   -2.0853 H   0  0  0  0  0  0  0  0  0  0  0  0
    0.9802    1.5045   -1.2463 H   0  0  0  0  0  0  0  0  0  0  0  0
    1.1537    0.2682    1.5369 H   0  0  0  0  0  0  0  0  0  0  0  0
    2.3263    1.2227    0.6494 H   0  0  0  0  0  0  0  0  0  0  0  0
    3.2340   -0.7056   -0.4990 H   0  0  0  0  0  0  0  0  0  0  0  0
    3.0861   -0.9512    1.2488 H   0  0  0  0  0  0  0  0  0  0  0  0
    1.9679   -1.7870    0.1631 H   0  0  0  0  0  0  0  0  0  0  0  0
   -1.0083    0.6345    1.0077 H   0  0  0  0  0  0  0  0  0  0  0  0
   -1.0120    2.6468   -1.3432 H   0  0  0  0  0  0  0  0  0  0  0  0
   -2.5164    1.8033   -0.8458 H   0  0  0  0  0  0  0  0  0  0  0  0
   -1.0411    2.7468    1.2746 H   0  0  0  0  0  0  0  0  0  0  0  0
  1  2  1  0
  2  3  1  0
  3  4  1  0
  4  5  1  0
  5  6  1  0
  4  7  1  0
  7  8  1  0
  8  9  1  0
  7  3  1  0
  1 10  1  0
  1 11  1  0
  1 12  1  0
  2 13  1  0
  2 14  1  0
  3 15  1  0
  4 16  1  0
  5 17  1  0
  5 18  1  0
  6 19  1  0
  6 20  1  0
  6 21  1  0
  7 22  1  0
  8 23  1  0
  8 24  1  0
  9 25  1  0
M  END
