
     RDKit          3D

 23 24  0  0  0  0  0  0  0  0999 V2000
    2.8566    0.2717   -0.4936 C   0  0  0  0  0  0  0  0  0  0  0  0
    1.9881    0.1900    0.7589 C   0  0  0  0  0  0  0  0  0  0  0  0
    0.7572   -0.6043    0.4089 C   0  0  0  0  0  0  0  0  0  0  0  0
   -0.0846   -0.0021   -0.7088 C   0  0  0  0  0  0  0  0  0  0  0  0
   -1.2388   -0.0267    0.1994 C   0  0  0  0  0  0  0  0  0  0  0  0
   -2.4322   -0.8193   -0.1098 C   0  0  0  0  0  0  0  0  0  0  0  0
   -3.2150    0.1790    0.5185 O   0  0  0  0  0  0  0  0  0  0  0  0
   -2.1701    1.1008    0.2674 C   0  0  0  0  0  0  0  0  0  0  0  0
   -0.4105   -0.3732    1.3800 C   0  0  0  0  0  0  0  0  0  0  0  0
    2.9940   -0.7855   -0.8470 H   0  0  0  0  0  0  0  0  0  0  0  0
    2.3011    0.8636   -1.2230 H   0  0  0  0  0  0  0  0  0  0  0  0
    3.8293    0.7427   -0.2974 H   0  0  0  0  0  0  0  0  0  0  0  0
    2.5620   -0.4117    1.4926 H   0  0  0  0  0  0  0  0  0  0  0  0
    1.7812    1.1941    1.1322 H   0  0  0  0  0  0  0  0  0  0  0  0
    0.9822   -1.6775    0.2967 H   0  0  0  0  0  0  0  0  0  0  0  0
    0.2633    0.9883   -1.0615 H   0  0  0  0  0  0  0  0  0  0  0  0
   -0.1916   -0.7286   -1.5434 H   0  0  0  0  0  0  0  0  0  0  0  0
   -2.7190   -0.9221   -1.1680 H   0  0  0  0  0  0  0  0  0  0  0  0
   -2.4480   -1.7957    0.4090 H   0  0  0  0  0  0  0  0  0  0  0  0
   -2.0261    1.8251    1.0900 H   0  0  0  0  0  0  0  0  0  0  0  0
   -2.3873    1.5660   -0.7331 H   0  0  0  0  0  0  0  0  0  0  0  0
   -0.7376   -1.2901    1.8956 H   0  0  0  0  0  0  0  0  0  0  0  0
   -0.2544    0.5157    2.0432 H   0  0  0  0  0  0  0  0  0  0  0  0
  1  2  1  0
  2  3  1  0
  3  4  1  0
  4  5  1  0
  5  6  1  0
  6  7  1  0
  7  8  1  0
  5  9  1  0
  9  3  1  0
  8  5  1  0
  1 10  1  0
  1 11  1  0
  1 12  1  0
  2 13  1  0
  2 14  1  0
  3 15  1  0
  4 16  1  0
  4 17  1  0
  6 18  1  0
  6 19  1  0
  8 20  1  0
  8 21  1  0
  9 22  1  0
  9 23  1  0
M  END
