
     RDKit          3D

 21 21  0  0  0  0  0  0  0  0999 V2000
    2.6100   -0.5173   -0.0747 C   0  0  0  0  0  0  0  0  0  0  0  0
    1.5247    0.4514   -0.4819 C   0  0  0  0  0  0  0  0  0  0  0  0
    0.2798    0.2764    0.3628 C   0  0  0  0  0  0  0  0  0  0  0  0
   -0.2912   -1.1030    0.2402 C   0  0  0  0  0  0  0  0  0  0  0  0
   -1.8185   -0.9822    0.2811 C   0  0  0  0  0  0  0  0  0  0  0  0
   -2.1763   -0.2373   -0.8479 O   0  0  0  0  0  0  0  0  0  0  0  0
   -2.0498    1.1077   -0.4873 C   0  0  0  0  0  0  0  0  0  0  0  0
   -0.6876    1.3505    0.0569 C   0  0  0  0  0  0  0  0  0  0  0  0
   -0.3581    2.4947    0.2586 O   0  0  0  0  0  0  0  0  0  0  0  0
    3.5590   -0.0063    0.1955 H   0  0  0  0  0  0  0  0  0  0  0  0
    2.7481   -1.3156   -0.8325 H   0  0  0  0  0  0  0  0  0  0  0  0
    2.2735   -1.0216    0.8753 H   0  0  0  0  0  0  0  0  0  0  0  0
    1.3067    0.3605   -1.5646 H   0  0  0  0  0  0  0  0  0  0  0  0
    1.9136    1.4774   -0.3138 H   0  0  0  0  0  0  0  0  0  0  0  0
    0.6089    0.4016    1.4284 H   0  0  0  0  0  0  0  0  0  0  0  0
   -0.0185   -1.7593    1.0935 H   0  0  0  0  0  0  0  0  0  0  0  0
   -0.0244   -1.6012   -0.7181 H   0  0  0  0  0  0  0  0  0  0  0  0
   -2.0465   -0.4376    1.2171 H   0  0  0  0  0  0  0  0  0  0  0  0
   -2.2719   -1.9922    0.2507 H   0  0  0  0  0  0  0  0  0  0  0  0
   -2.3192    1.7930   -1.3010 H   0  0  0  0  0  0  0  0  0  0  0  0
   -2.7622    1.2606    0.3616 H   0  0  0  0  0  0  0  0  0  0  0  0
  1  2  1  0
  2  3  1  0
  3  4  1  0
  4  5  1  0
  5  6  1  0
  6  7  1  0
  7  8  1  0
  8  9  2  0
  8  3  1  0
  1 10  1  0
  1 11  1  0
  1 12  1  0
  2 13  1  0
  2 14  1  0
  3 15  1  0
  4 16  1  0
  4 17  1  0
  5 18  1  0
  5 19  1  0
  7 20  1  0
  7 21  1  0
M  END
