
     RDKit          3D

 21 22  0  0  0  0  0  0  0  0999 V2000
    2.6262    0.0567    0.0110 C   0  0  0  0  0  0  0  0  0  0  0  0
    1.4498   -0.5755   -0.7099 C   0  0  0  0  0  0  0  0  0  0  0  0
    0.1953   -0.0386   -0.0973 C   0  0  0  0  0  0  0  0  0  0  0  0
   -0.0612   -0.2591    1.3317 C   0  0  0  0  0  0  0  0  0  0  0  0
   -1.3669   -0.2824    1.5352 C   0  0  0  0  0  0  0  0  0  0  0  0
   -2.1203   -0.0826    0.2812 C   0  0  0  0  0  0  0  0  0  0  0  0
   -2.9279   -1.1836    0.0721 O   0  0  0  0  0  0  0  0  0  0  0  0
   -1.0700    0.0844   -0.7937 C   0  0  0  0  0  0  0  0  0  0  0  0
   -0.2154    1.3239   -0.6114 C   0  0  0  0  0  0  0  0  0  0  0  0
    2.3898    0.3140    1.0608 H   0  0  0  0  0  0  0  0  0  0  0  0
    3.5310   -0.5780   -0.0704 H   0  0  0  0  0  0  0  0  0  0  0  0
    2.7856    1.0508   -0.5007 H   0  0  0  0  0  0  0  0  0  0  0  0
    1.5361   -1.6900   -0.5519 H   0  0  0  0  0  0  0  0  0  0  0  0
    1.4961   -0.3840   -1.7809 H   0  0  0  0  0  0  0  0  0  0  0  0
    0.7517   -0.3776    2.0606 H   0  0  0  0  0  0  0  0  0  0  0  0
   -1.8217   -0.4307    2.5080 H   0  0  0  0  0  0  0  0  0  0  0  0
   -2.7044    0.8562    0.3749 H   0  0  0  0  0  0  0  0  0  0  0  0
   -2.9583   -1.4533   -0.8936 H   0  0  0  0  0  0  0  0  0  0  0  0
   -1.2772   -0.1854   -1.8224 H   0  0  0  0  0  0  0  0  0  0  0  0
    0.3119    1.7342   -1.4947 H   0  0  0  0  0  0  0  0  0  0  0  0
   -0.5505    2.1006    0.0914 H   0  0  0  0  0  0  0  0  0  0  0  0
  1  2  1  0
  2  3  1  0
  3  4  1  0
  4  5  2  0
  5  6  1  0
  6  7  1  0
  6  8  1  0
  8  9  1  0
  8  3  1  0
  9  3  1  0
  1 10  1  0
  1 11  1  0
  1 12  1  0
  2 13  1  0
  2 14  1  0
  4 15  1  0
  5 16  1  0
  6 17  1  0
  7 18  1  0
  8 19  1  0
  9 20  1  0
  9 21  1  0
M  END
