
     RDKit          3D

 23 23  0  0  0  0  0  0  0  0999 V2000
   -2.4224   -0.8727   -0.4426 C   0  0  0  0  0  0  0  0  0  0  0  0
   -1.4623   -0.5368    0.6538 C   0  0  0  0  0  0  0  0  0  0  0  0
   -0.3181    0.3151    0.2029 C   0  0  0  0  0  0  0  0  0  0  0  0
   -0.7240    1.6392   -0.3670 C   0  0  0  0  0  0  0  0  0  0  0  0
    0.3331    2.2885   -1.0057 O   0  0  0  0  0  0  0  0  0  0  0  0
    0.6591   -0.3956   -0.6970 C   0  0  0  0  0  0  0  0  0  0  0  0
    1.3621   -0.6387    0.6274 C   0  0  0  0  0  0  0  0  0  0  0  0
    2.8586   -0.5139    0.5422 C   0  0  0  0  0  0  0  0  0  0  0  0
    0.6968    0.4764    1.1389 O   0  0  0  0  0  0  0  0  0  0  0  0
   -3.2553   -1.4683    0.0330 H   0  0  0  0  0  0  0  0  0  0  0  0
   -2.9060    0.0027   -0.9000 H   0  0  0  0  0  0  0  0  0  0  0  0
   -1.9856   -1.5531   -1.2061 H   0  0  0  0  0  0  0  0  0  0  0  0
   -1.0813   -1.4929    1.0714 H   0  0  0  0  0  0  0  0  0  0  0  0
   -2.0200   -0.0158    1.4524 H   0  0  0  0  0  0  0  0  0  0  0  0
   -1.4820    1.4388   -1.1671 H   0  0  0  0  0  0  0  0  0  0  0  0
   -1.2240    2.2814    0.3705 H   0  0  0  0  0  0  0  0  0  0  0  0
    0.6326    3.0000   -0.3559 H   0  0  0  0  0  0  0  0  0  0  0  0
    1.2798    0.2465   -1.3375 H   0  0  0  0  0  0  0  0  0  0  0  0
    0.2832   -1.3000   -1.1920 H   0  0  0  0  0  0  0  0  0  0  0  0
    1.0450   -1.5349    1.1753 H   0  0  0  0  0  0  0  0  0  0  0  0
    3.1701    0.3257    1.1974 H   0  0  0  0  0  0  0  0  0  0  0  0
    3.1603   -0.2656   -0.5017 H   0  0  0  0  0  0  0  0  0  0  0  0
    3.4003   -1.4263    0.8276 H   0  0  0  0  0  0  0  0  0  0  0  0
  1  2  1  0
  2  3  1  0
  3  4  1  0
  4  5  1  0
  3  6  1  0
  6  7  1  0
  7  8  1  0
  7  9  1  0
  9  3  1  0
  1 10  1  0
  1 11  1  0
  1 12  1  0
  2 13  1  0
  2 14  1  0
  4 15  1  0
  4 16  1  0
  5 17  1  0
  6 18  1  0
  6 19  1  0
  7 20  1  0
  8 21  1  0
  8 22  1  0
  8 23  1  0
M  END
