
     RDKit          3D

 23 24  0  0  0  0  0  0  0  0999 V2000
    3.0008    0.9145   -0.3247 C   0  0  0  0  0  0  0  0  0  0  0  0
    2.3355   -0.1736    0.4521 C   0  0  0  0  0  0  0  0  0  0  0  0
    1.1550   -0.7908   -0.3159 C   0  0  0  0  0  0  0  0  0  0  0  0
    0.0696    0.0009   -0.7006 C   0  0  0  0  0  0  0  0  0  0  0  0
   -1.3272   -0.2565   -1.1212 C   0  0  0  0  0  0  0  0  0  0  0  0
   -1.9764   -0.3926    0.2719 C   0  0  0  0  0  0  0  0  0  0  0  0
   -2.9257    0.7185    0.5542 C   0  0  0  0  0  0  0  0  0  0  0  0
   -0.8780   -0.3834    1.1781 O   0  0  0  0  0  0  0  0  0  0  0  0
    0.0173   -1.0985    0.4413 C   0  0  0  0  0  0  0  0  0  0  0  0
    3.8475    0.5523   -0.9473 H   0  0  0  0  0  0  0  0  0  0  0  0
    2.2881    1.5086   -0.9362 H   0  0  0  0  0  0  0  0  0  0  0  0
    3.4469    1.6594    0.3958 H   0  0  0  0  0  0  0  0  0  0  0  0
    3.0611   -0.9713    0.6955 H   0  0  0  0  0  0  0  0  0  0  0  0
    1.9842    0.2284    1.4373 H   0  0  0  0  0  0  0  0  0  0  0  0
    1.5651   -1.5324   -1.0565 H   0  0  0  0  0  0  0  0  0  0  0  0
    0.1251    1.0720   -0.3239 H   0  0  0  0  0  0  0  0  0  0  0  0
   -1.8019    0.5899   -1.6094 H   0  0  0  0  0  0  0  0  0  0  0  0
   -1.4787   -1.2260   -1.6388 H   0  0  0  0  0  0  0  0  0  0  0  0
   -2.5183   -1.3582    0.3574 H   0  0  0  0  0  0  0  0  0  0  0  0
   -3.9984    0.4385    0.3917 H   0  0  0  0  0  0  0  0  0  0  0  0
   -2.8446    0.9723    1.6347 H   0  0  0  0  0  0  0  0  0  0  0  0
   -2.6532    1.5985   -0.0632 H   0  0  0  0  0  0  0  0  0  0  0  0
   -0.4938   -2.0704    0.1490 H   0  0  0  0  0  0  0  0  0  0  0  0
  1  2  1  0
  2  3  1  0
  3  4  1  0
  4  5  1  0
  5  6  1  0
  6  7  1  0
  6  8  1  0
  8  9  1  0
  9  3  1  0
  9  4  1  0
  1 10  1  0
  1 11  1  0
  1 12  1  0
  2 13  1  0
  2 14  1  0
  3 15  1  0
  4 16  1  0
  5 17  1  0
  5 18  1  0
  6 19  1  0
  7 20  1  0
  7 21  1  0
  7 22  1  0
  9 23  1  0
M  END
