
     RDKit          3D

 23 23  0  0  0  0  0  0  0  0999 V2000
   -2.2898    1.4045   -0.0726 C   0  0  0  0  0  0  0  0  0  0  0  0
   -2.0530   -0.0725   -0.1338 C   0  0  0  0  0  0  0  0  0  0  0  0
   -0.6228   -0.4267   -0.4682 C   0  0  0  0  0  0  0  0  0  0  0  0
   -0.1162    0.0257   -1.6794 O   0  0  0  0  0  0  0  0  0  0  0  0
   -0.2945   -1.9124   -0.1804 C   0  0  0  0  0  0  0  0  0  0  0  0
    0.2952   -0.7660    0.6141 C   0  0  0  0  0  0  0  0  0  0  0  0
    1.7789   -0.6739    0.5593 C   0  0  0  0  0  0  0  0  0  0  0  0
    2.3505    0.6761    0.3048 C   0  0  0  0  0  0  0  0  0  0  0  0
    2.0029    1.2792   -0.8655 O   0  0  0  0  0  0  0  0  0  0  0  0
   -3.3199    1.6369   -0.4726 H   0  0  0  0  0  0  0  0  0  0  0  0
   -2.3478    1.7179    1.0075 H   0  0  0  0  0  0  0  0  0  0  0  0
   -1.5763    2.0113   -0.6273 H   0  0  0  0  0  0  0  0  0  0  0  0
   -2.7364   -0.5542   -0.8867 H   0  0  0  0  0  0  0  0  0  0  0  0
   -2.2875   -0.5374    0.8493 H   0  0  0  0  0  0  0  0  0  0  0  0
   -0.6711    0.7865   -1.9870 H   0  0  0  0  0  0  0  0  0  0  0  0
   -1.0758   -2.5447    0.2447 H   0  0  0  0  0  0  0  0  0  0  0  0
    0.3486   -2.4382   -0.9145 H   0  0  0  0  0  0  0  0  0  0  0  0
   -0.1437   -0.7285    1.6620 H   0  0  0  0  0  0  0  0  0  0  0  0
    2.2235   -1.3766   -0.1952 H   0  0  0  0  0  0  0  0  0  0  0  0
    2.1914   -1.0373    1.5462 H   0  0  0  0  0  0  0  0  0  0  0  0
    2.1033    1.3915    1.1389 H   0  0  0  0  0  0  0  0  0  0  0  0
    3.4726    0.5645    0.3725 H   0  0  0  0  0  0  0  0  0  0  0  0
    2.7680    1.5745   -1.4205 H   0  0  0  0  0  0  0  0  0  0  0  0
  1  2  1  0
  2  3  1  0
  3  4  1  0
  3  5  1  0
  5  6  1  0
  6  7  1  0
  7  8  1  0
  8  9  1  0
  6  3  1  0
  1 10  1  0
  1 11  1  0
  1 12  1  0
  2 13  1  0
  2 14  1  0
  4 15  1  0
  5 16  1  0
  5 17  1  0
  6 18  1  0
  7 19  1  0
  7 20  1  0
  8 21  1  0
  8 22  1  0
  9 23  1  0
M  END
