
     RDKit          3D

 21 22  0  0  0  0  0  0  0  0999 V2000
    2.5270    0.0438    0.5094 C   0  0  0  0  0  0  0  0  0  0  0  0
    1.8504   -0.4501   -0.7278 C   0  0  0  0  0  0  0  0  0  0  0  0
    0.3568   -0.4040   -0.4948 C   0  0  0  0  0  0  0  0  0  0  0  0
   -0.2394   -1.1775    0.5919 C   0  0  0  0  0  0  0  0  0  0  0  0
   -1.4188   -0.8711    1.0481 C   0  0  0  0  0  0  0  0  0  0  0  0
   -2.2744    0.2367    0.5625 C   0  0  0  0  0  0  0  0  0  0  0  0
   -1.6257    1.1461   -0.3994 C   0  0  0  0  0  0  0  0  0  0  0  0
   -0.4056    0.6338   -1.0839 C   0  0  0  0  0  0  0  0  0  0  0  0
   -0.4239   -0.5919   -1.7244 O   0  0  0  0  0  0  0  0  0  0  0  0
    2.8817    1.1070    0.4222 H   0  0  0  0  0  0  0  0  0  0  0  0
    1.9035    0.0093    1.4172 H   0  0  0  0  0  0  0  0  0  0  0  0
    3.4616   -0.5379    0.7455 H   0  0  0  0  0  0  0  0  0  0  0  0
    2.1988   -1.4503   -1.0635 H   0  0  0  0  0  0  0  0  0  0  0  0
    2.0979    0.2502   -1.5567 H   0  0  0  0  0  0  0  0  0  0  0  0
    0.3063   -2.0053    1.0134 H   0  0  0  0  0  0  0  0  0  0  0  0
   -1.8248   -1.4777    1.8617 H   0  0  0  0  0  0  0  0  0  0  0  0
   -2.6336    0.7775    1.4881 H   0  0  0  0  0  0  0  0  0  0  0  0
   -3.1831   -0.2225    0.1173 H   0  0  0  0  0  0  0  0  0  0  0  0
   -1.3440    2.0877    0.1350 H   0  0  0  0  0  0  0  0  0  0  0  0
   -2.3518    1.4810   -1.1954 H   0  0  0  0  0  0  0  0  0  0  0  0
    0.1410    1.4152   -1.6663 H   0  0  0  0  0  0  0  0  0  0  0  0
  1  2  1  0
  2  3  1  0
  3  4  1  0
  4  5  2  0
  5  6  1  0
  6  7  1  0
  7  8  1  0
  8  9  1  0
  8  3  1  0
  9  3  1  0
  1 10  1  0
  1 11  1  0
  1 12  1  0
  2 13  1  0
  2 14  1  0
  4 15  1  0
  5 16  1  0
  6 17  1  0
  6 18  1  0
  7 19  1  0
  7 20  1  0
  8 21  1  0
M  END
