
     RDKit          3D

 17 19  0  0  0  0  0  0  0  0999 V2000
    2.0902   -0.2667    0.5591 C   0  0  0  0  0  0  0  0  0  0  0  0
    1.2246   -0.2209   -0.6420 C   0  0  0  0  0  0  0  0  0  0  0  0
   -0.2075   -0.1675   -0.4403 C   0  0  0  0  0  0  0  0  0  0  0  0
   -0.9643   -0.1262   -1.6322 O   0  0  0  0  0  0  0  0  0  0  0  0
   -1.9402    0.5758   -0.8697 C   0  0  0  0  0  0  0  0  0  0  0  0
   -1.9960   -0.0226    0.4887 C   0  0  0  0  0  0  0  0  0  0  0  0
   -0.8304   -0.9265    0.6642 C   0  0  0  0  0  0  0  0  0  0  0  0
   -0.5360   -1.8385    1.3682 O   0  0  0  0  0  0  0  0  0  0  0  0
   -0.9255    1.0121    0.0037 C   0  0  0  0  0  0  0  0  0  0  0  0
    1.7644   -0.9953    1.3210 H   0  0  0  0  0  0  0  0  0  0  0  0
    2.2090    0.7655    0.9839 H   0  0  0  0  0  0  0  0  0  0  0  0
    3.1209   -0.5778    0.2242 H   0  0  0  0  0  0  0  0  0  0  0  0
    1.5487    0.6680   -1.2571 H   0  0  0  0  0  0  0  0  0  0  0  0
    1.4871   -1.1084   -1.2864 H   0  0  0  0  0  0  0  0  0  0  0  0
   -2.7515    1.0809   -1.3578 H   0  0  0  0  0  0  0  0  0  0  0  0
   -2.6056    0.3086    1.2975 H   0  0  0  0  0  0  0  0  0  0  0  0
   -0.6880    1.8394    0.5751 H   0  0  0  0  0  0  0  0  0  0  0  0
  1  2  1  0
  2  3  1  0
  3  4  1  0
  4  5  1  0
  5  6  1  0
  6  7  1  0
  7  8  2  0
  6  9  1  0
  7  3  1  0
  9  3  1  0
  9  5  1  0
  1 10  1  0
  1 11  1  0
  1 12  1  0
  2 13  1  0
  2 14  1  0
  5 15  1  0
  6 16  1  0
  9 17  1  0
M  END
