
     RDKit          3D

 25 26  0  0  0  0  0  0  0  0999 V2000
    2.2643   -0.0709    0.8543 C   0  0  0  0  0  0  0  0  0  0  0  0
    1.6100    0.1526   -0.4723 C   0  0  0  0  0  0  0  0  0  0  0  0
    0.2027   -0.2179   -0.5878 C   0  0  0  0  0  0  0  0  0  0  0  0
   -0.2235   -1.6159   -0.3536 C   0  0  0  0  0  0  0  0  0  0  0  0
   -1.5576   -1.0654    0.1689 C   0  0  0  0  0  0  0  0  0  0  0  0
   -0.8470    0.2791    0.2658 C   0  0  0  0  0  0  0  0  0  0  0  0
   -0.6480    0.6867    1.6534 C   0  0  0  0  0  0  0  0  0  0  0  0
   -1.3145    1.2251   -0.7574 C   0  0  0  0  0  0  0  0  0  0  0  0
   -0.4662    0.4577   -1.7786 C   0  0  0  0  0  0  0  0  0  0  0  0
    3.3781   -0.0637    0.6602 H   0  0  0  0  0  0  0  0  0  0  0  0
    2.0480   -1.0492    1.3085 H   0  0  0  0  0  0  0  0  0  0  0  0
    2.1063    0.7651    1.5694 H   0  0  0  0  0  0  0  0  0  0  0  0
    2.2039   -0.4189   -1.2305 H   0  0  0  0  0  0  0  0  0  0  0  0
    1.7419    1.2190   -0.7382 H   0  0  0  0  0  0  0  0  0  0  0  0
    0.3690   -2.1084    0.4281 H   0  0  0  0  0  0  0  0  0  0  0  0
   -0.4043   -2.2096   -1.2537 H   0  0  0  0  0  0  0  0  0  0  0  0
   -1.8881   -1.4865    1.1184 H   0  0  0  0  0  0  0  0  0  0  0  0
   -2.3581   -1.0801   -0.6011 H   0  0  0  0  0  0  0  0  0  0  0  0
   -1.6468    0.6605    2.1836 H   0  0  0  0  0  0  0  0  0  0  0  0
   -0.0469   -0.0962    2.1864 H   0  0  0  0  0  0  0  0  0  0  0  0
   -0.2607    1.6986    1.8093 H   0  0  0  0  0  0  0  0  0  0  0  0
   -2.3797    1.1176   -1.0485 H   0  0  0  0  0  0  0  0  0  0  0  0
   -1.0224    2.2825   -0.6414 H   0  0  0  0  0  0  0  0  0  0  0  0
    0.1772    1.1708   -2.3250 H   0  0  0  0  0  0  0  0  0  0  0  0
   -1.0378   -0.2322   -2.4183 H   0  0  0  0  0  0  0  0  0  0  0  0
  1  2  1  0
  2  3  1  0
  3  4  1  0
  4  5  1  0
  5  6  1  0
  6  7  1  0
  6  8  1  0
  8  9  1  0
  6  3  1  0
  9  3  1  0
  1 10  1  0
  1 11  1  0
  1 12  1  0
  2 13  1  0
  2 14  1  0
  4 15  1  0
  4 16  1  0
  5 17  1  0
  5 18  1  0
  7 19  1  0
  7 20  1  0
  7 21  1  0
  8 22  1  0
  8 23  1  0
  9 24  1  0
  9 25  1  0
M  END
