
     RDKit          3D

 25 25  0  0  0  0  0  0  0  0999 V2000
    2.2877   -0.7134    0.7170 C   0  0  0  0  0  0  0  0  0  0  0  0
    1.2819   -0.5686   -0.3680 C   0  0  0  0  0  0  0  0  0  0  0  0
    0.2879    0.5344   -0.1576 C   0  0  0  0  0  0  0  0  0  0  0  0
    0.9042    1.8931   -0.0432 C   0  0  0  0  0  0  0  0  0  0  0  0
   -0.7444    0.4599   -1.2634 C   0  0  0  0  0  0  0  0  0  0  0  0
   -1.5244   -0.7752   -0.8836 C   0  0  0  0  0  0  0  0  0  0  0  0
   -1.4585   -0.8266    0.6163 C   0  0  0  0  0  0  0  0  0  0  0  0
   -2.7510   -0.5864    1.1277 O   0  0  0  0  0  0  0  0  0  0  0  0
   -0.5787    0.2997    1.0593 C   0  0  0  0  0  0  0  0  0  0  0  0
    2.4596   -1.8128    0.8971 H   0  0  0  0  0  0  0  0  0  0  0  0
    2.0034   -0.2918    1.6863 H   0  0  0  0  0  0  0  0  0  0  0  0
    3.2987   -0.3222    0.4205 H   0  0  0  0  0  0  0  0  0  0  0  0
    0.6941   -1.5135   -0.4834 H   0  0  0  0  0  0  0  0  0  0  0  0
    1.8236   -0.4410   -1.3270 H   0  0  0  0  0  0  0  0  0  0  0  0
    1.5733    2.1514   -0.8774 H   0  0  0  0  0  0  0  0  0  0  0  0
    0.0837    2.6311    0.0272 H   0  0  0  0  0  0  0  0  0  0  0  0
    1.4268    1.9323    0.9486 H   0  0  0  0  0  0  0  0  0  0  0  0
   -0.2570    0.3474   -2.2533 H   0  0  0  0  0  0  0  0  0  0  0  0
   -1.4342    1.3248   -1.2105 H   0  0  0  0  0  0  0  0  0  0  0  0
   -2.5929   -0.7077   -1.2289 H   0  0  0  0  0  0  0  0  0  0  0  0
   -1.1320   -1.6985   -1.3720 H   0  0  0  0  0  0  0  0  0  0  0  0
   -1.0520   -1.7792    1.0082 H   0  0  0  0  0  0  0  0  0  0  0  0
   -3.4036   -0.8165    0.4144 H   0  0  0  0  0  0  0  0  0  0  0  0
    0.0132    0.0727    1.9626 H   0  0  0  0  0  0  0  0  0  0  0  0
   -1.2096    1.2066    1.1789 H   0  0  0  0  0  0  0  0  0  0  0  0
  1  2  1  0
  2  3  1  0
  3  4  1  0
  3  5  1  0
  5  6  1  0
  6  7  1  0
  7  8  1  0
  7  9  1  0
  9  3  1  0
  1 10  1  0
  1 11  1  0
  1 12  1  0
  2 13  1  0
  2 14  1  0
  4 15  1  0
  4 16  1  0
  4 17  1  0
  5 18  1  0
  5 19  1  0
  6 20  1  0
  6 21  1  0
  7 22  1  0
  8 23  1  0
  9 24  1  0
  9 25  1  0
M  END
