
     RDKit          3D

 25 25  0  0  0  0  0  0  0  0999 V2000
    1.8689    1.1253   -0.8091 C   0  0  0  0  0  0  0  0  0  0  0  0
    2.0932    0.2327    0.3665 C   0  0  0  0  0  0  0  0  0  0  0  0
    0.9162   -0.6794    0.6430 C   0  0  0  0  0  0  0  0  0  0  0  0
    0.6259   -1.5761   -0.5330 C   0  0  0  0  0  0  0  0  0  0  0  0
   -0.3600   -1.0327   -1.4728 C   0  0  0  0  0  0  0  0  0  0  0  0
   -1.4474   -0.3711   -1.0327 C   0  0  0  0  0  0  0  0  0  0  0  0
   -1.5477   -0.2488    0.4575 C   0  0  0  0  0  0  0  0  0  0  0  0
   -2.5531    0.8513    0.7497 C   0  0  0  0  0  0  0  0  0  0  0  0
   -0.2303    0.1623    1.0643 C   0  0  0  0  0  0  0  0  0  0  0  0
    2.8826    1.5146   -1.1198 H   0  0  0  0  0  0  0  0  0  0  0  0
    1.4389    0.6392   -1.6829 H   0  0  0  0  0  0  0  0  0  0  0  0
    1.2637    2.0249   -0.5914 H   0  0  0  0  0  0  0  0  0  0  0  0
    2.1776    0.9028    1.2714 H   0  0  0  0  0  0  0  0  0  0  0  0
    3.0451   -0.3001    0.2857 H   0  0  0  0  0  0  0  0  0  0  0  0
    1.2272   -1.3326    1.4837 H   0  0  0  0  0  0  0  0  0  0  0  0
    0.2137   -2.5325   -0.1233 H   0  0  0  0  0  0  0  0  0  0  0  0
    1.5304   -1.8550   -1.0957 H   0  0  0  0  0  0  0  0  0  0  0  0
   -0.2459   -1.1456   -2.5478 H   0  0  0  0  0  0  0  0  0  0  0  0
   -2.1899    0.0394   -1.7090 H   0  0  0  0  0  0  0  0  0  0  0  0
   -1.8754   -1.2267    0.8582 H   0  0  0  0  0  0  0  0  0  0  0  0
   -3.3599    0.8941   -0.0065 H   0  0  0  0  0  0  0  0  0  0  0  0
   -2.0572    1.8405    0.7508 H   0  0  0  0  0  0  0  0  0  0  0  0
   -2.9762    0.7322    1.7876 H   0  0  0  0  0  0  0  0  0  0  0  0
   -0.3358    0.0978    2.1658 H   0  0  0  0  0  0  0  0  0  0  0  0
   -0.1047    1.2438    0.8400 H   0  0  0  0  0  0  0  0  0  0  0  0
  1  2  1  0
  2  3  1  0
  3  4  1  0
  4  5  1  0
  5  6  2  0
  6  7  1  0
  7  8  1  0
  7  9  1  0
  9  3  1  0
  1 10  1  0
  1 11  1  0
  1 12  1  0
  2 13  1  0
  2 14  1  0
  3 15  1  0
  4 16  1  0
  4 17  1  0
  5 18  1  0
  6 19  1  0
  7 20  1  0
  8 21  1  0
  8 22  1  0
  8 23  1  0
  9 24  1  0
  9 25  1  0
M  END
