
     RDKit          3D

 21 21  0  0  0  0  0  0  0  0999 V2000
   -2.7346   -0.7432    0.3674 C   0  0  0  0  0  0  0  0  0  0  0  0
   -1.7776   -0.1413   -0.6452 C   0  0  0  0  0  0  0  0  0  0  0  0
   -0.4970    0.3506    0.0396 C   0  0  0  0  0  0  0  0  0  0  0  0
    0.1573   -0.7666    0.6963 C   0  0  0  0  0  0  0  0  0  0  0  0
    1.4223   -1.0060    0.9885 C   0  0  0  0  0  0  0  0  0  0  0  0
    2.5580   -0.1499    0.7057 C   0  0  0  0  0  0  0  0  0  0  0  0
    2.6504    0.8517   -0.1745 C   0  0  0  0  0  0  0  0  0  0  0  0
    1.5970    1.3206   -1.0739 C   0  0  0  0  0  0  0  0  0  0  0  0
    0.2947    1.0807   -0.9356 C   0  0  0  0  0  0  0  0  0  0  0  0
   -3.7588   -0.6369   -0.0555 H   0  0  0  0  0  0  0  0  0  0  0  0
   -2.4691   -1.8166    0.5124 H   0  0  0  0  0  0  0  0  0  0  0  0
   -2.6058   -0.2048    1.3276 H   0  0  0  0  0  0  0  0  0  0  0  0
   -2.3141    0.7338   -1.1135 H   0  0  0  0  0  0  0  0  0  0  0  0
   -1.5572   -0.8886   -1.4128 H   0  0  0  0  0  0  0  0  0  0  0  0
   -0.8213    1.0781    0.8345 H   0  0  0  0  0  0  0  0  0  0  0  0
   -0.4990   -1.5644    1.0139 H   0  0  0  0  0  0  0  0  0  0  0  0
    1.6660   -1.9373    1.4952 H   0  0  0  0  0  0  0  0  0  0  0  0
    3.4380   -0.3677    1.2972 H   0  0  0  0  0  0  0  0  0  0  0  0
    3.6040    1.3593   -0.2176 H   0  0  0  0  0  0  0  0  0  0  0  0
    1.9253    1.9113   -1.9176 H   0  0  0  0  0  0  0  0  0  0  0  0
   -0.2785    1.5374   -1.7322 H   0  0  0  0  0  0  0  0  0  0  0  0
  1  2  1  0
  2  3  1  0
  3  4  1  0
  4  5  2  0
  5  6  1  0
  6  7  2  0
  7  8  1  0
  8  9  2  0
  9  3  1  0
  1 10  1  0
  1 11  1  0
  1 12  1  0
  2 13  1  0
  2 14  1  0
  3 15  1  0
  4 16  1  0
  5 17  1  0
  6 18  1  0
  7 19  1  0
  8 20  1  0
  9 21  1  0
M  END
