
     RDKit          3D

 23 24  0  0  0  0  0  0  0  0999 V2000
    2.6773   -0.2188   -0.2518 C   0  0  0  0  0  0  0  0  0  0  0  0
    1.6964    0.8944   -0.4898 C   0  0  0  0  0  0  0  0  0  0  0  0
    0.5601    0.7336    0.4764 C   0  0  0  0  0  0  0  0  0  0  0  0
   -0.4435    1.7127    0.3698 O   0  0  0  0  0  0  0  0  0  0  0  0
   -1.3913    0.7148    0.7017 C   0  0  0  0  0  0  0  0  0  0  0  0
   -2.6519    0.9554   -0.0478 C   0  0  0  0  0  0  0  0  0  0  0  0
   -0.4459   -0.2973    0.2134 C   0  0  0  0  0  0  0  0  0  0  0  0
   -0.5642   -1.1889   -0.8931 C   0  0  0  0  0  0  0  0  0  0  0  0
   -0.3934   -1.6920    0.5742 C   0  0  0  0  0  0  0  0  0  0  0  0
    2.5314   -1.0900   -0.9192 H   0  0  0  0  0  0  0  0  0  0  0  0
    2.6005   -0.6293    0.7940 H   0  0  0  0  0  0  0  0  0  0  0  0
    3.7380    0.1555   -0.3180 H   0  0  0  0  0  0  0  0  0  0  0  0
    1.3335    0.9111   -1.5470 H   0  0  0  0  0  0  0  0  0  0  0  0
    2.2231    1.8515   -0.3022 H   0  0  0  0  0  0  0  0  0  0  0  0
    0.9282    0.7281    1.5173 H   0  0  0  0  0  0  0  0  0  0  0  0
   -1.4887    0.6884    1.8214 H   0  0  0  0  0  0  0  0  0  0  0  0
   -2.7818    2.0269   -0.3440 H   0  0  0  0  0  0  0  0  0  0  0  0
   -3.5175    0.7550    0.6463 H   0  0  0  0  0  0  0  0  0  0  0  0
   -2.6745    0.3039   -0.9321 H   0  0  0  0  0  0  0  0  0  0  0  0
   -1.5716   -1.4649   -1.3234 H   0  0  0  0  0  0  0  0  0  0  0  0
    0.2519   -1.4472   -1.5795 H   0  0  0  0  0  0  0  0  0  0  0  0
   -1.2212   -2.2474    1.0107 H   0  0  0  0  0  0  0  0  0  0  0  0
    0.6052   -2.1556    0.7923 H   0  0  0  0  0  0  0  0  0  0  0  0
  1  2  1  0
  2  3  1  0
  3  4  1  0
  4  5  1  0
  5  6  1  0
  5  7  1  0
  7  8  1  0
  8  9  1  0
  7  3  1  0
  9  7  1  0
  1 10  1  0
  1 11  1  0
  1 12  1  0
  2 13  1  0
  2 14  1  0
  3 15  1  0
  5 16  1  0
  6 17  1  0
  6 18  1  0
  6 19  1  0
  8 20  1  0
  8 21  1  0
  9 22  1  0
  9 23  1  0
M  END
