
     RDKit          3D

 27 27  0  0  0  0  0  0  0  0999 V2000
    2.8006    0.9040   -0.1347 C   0  0  0  0  0  0  0  0  0  0  0  0
    1.5691    0.5294   -0.8926 C   0  0  0  0  0  0  0  0  0  0  0  0
    0.5346   -0.1625   -0.0493 C   0  0  0  0  0  0  0  0  0  0  0  0
    0.9833   -1.4364    0.5776 C   0  0  0  0  0  0  0  0  0  0  0  0
   -0.0432    0.7758    1.0217 C   0  0  0  0  0  0  0  0  0  0  0  0
   -1.3828    0.1030    0.7531 C   0  0  0  0  0  0  0  0  0  0  0  0
   -2.5592    1.0172    0.6804 C   0  0  0  0  0  0  0  0  0  0  0  0
   -0.8453   -0.1640   -0.6549 C   0  0  0  0  0  0  0  0  0  0  0  0
   -1.3419   -1.4443   -1.2138 C   0  0  0  0  0  0  0  0  0  0  0  0
    2.8510    0.4201    0.8672 H   0  0  0  0  0  0  0  0  0  0  0  0
    3.7459    0.6037   -0.6614 H   0  0  0  0  0  0  0  0  0  0  0  0
    2.8832    1.9982    0.0173 H   0  0  0  0  0  0  0  0  0  0  0  0
    1.8326   -0.0499   -1.7729 H   0  0  0  0  0  0  0  0  0  0  0  0
    1.0970    1.4823   -1.2712 H   0  0  0  0  0  0  0  0  0  0  0  0
    0.1498   -2.0381    0.9503 H   0  0  0  0  0  0  0  0  0  0  0  0
    1.6263   -2.0340   -0.1064 H   0  0  0  0  0  0  0  0  0  0  0  0
    1.6470   -1.1705    1.4410 H   0  0  0  0  0  0  0  0  0  0  0  0
    0.0002    1.8131    0.6793 H   0  0  0  0  0  0  0  0  0  0  0  0
    0.3779    0.5580    2.0258 H   0  0  0  0  0  0  0  0  0  0  0  0
   -1.5888   -0.7801    1.3512 H   0  0  0  0  0  0  0  0  0  0  0  0
   -3.3246    0.5038    0.0258 H   0  0  0  0  0  0  0  0  0  0  0  0
   -3.0471    1.1424    1.6656 H   0  0  0  0  0  0  0  0  0  0  0  0
   -2.3572    1.9809    0.1770 H   0  0  0  0  0  0  0  0  0  0  0  0
   -0.9823    0.7393   -1.2719 H   0  0  0  0  0  0  0  0  0  0  0  0
   -2.0702   -1.1907   -2.0403 H   0  0  0  0  0  0  0  0  0  0  0  0
   -1.9762   -2.0185   -0.4763 H   0  0  0  0  0  0  0  0  0  0  0  0
   -0.5798   -2.0820   -1.6876 H   0  0  0  0  0  0  0  0  0  0  0  0
  1  2  1  0
  2  3  1  0
  3  4  1  0
  3  5  1  0
  5  6  1  0
  6  7  1  0
  6  8  1  0
  8  9  1  0
  8  3  1  0
  1 10  1  0
  1 11  1  0
  1 12  1  0
  2 13  1  0
  2 14  1  0
  4 15  1  0
  4 16  1  0
  4 17  1  0
  5 18  1  0
  5 19  1  0
  6 20  1  0
  7 21  1  0
  7 22  1  0
  7 23  1  0
  8 24  1  0
  9 25  1  0
  9 26  1  0
  9 27  1  0
M  END
