
     RDKit          3D

 21 22  0  0  0  0  0  0  0  0999 V2000
    2.3858   -0.6850   -0.0094 C   0  0  0  0  0  0  0  0  0  0  0  0
    1.1890   -0.9513   -0.8801 C   0  0  0  0  0  0  0  0  0  0  0  0
   -0.0304   -0.2391   -0.2830 C   0  0  0  0  0  0  0  0  0  0  0  0
    0.1152    1.2337   -0.1726 C   0  0  0  0  0  0  0  0  0  0  0  0
   -0.2317    2.0226    0.9692 C   0  0  0  0  0  0  0  0  0  0  0  0
    1.1711    1.5740    0.8231 O   0  0  0  0  0  0  0  0  0  0  0  0
   -0.4042   -0.8746    0.9756 O   0  0  0  0  0  0  0  0  0  0  0  0
   -1.2501   -0.9769   -0.1752 C   0  0  0  0  0  0  0  0  0  0  0  0
   -2.5910   -0.3442    0.0239 C   0  0  0  0  0  0  0  0  0  0  0  0
    2.8570    0.2544   -0.2970 H   0  0  0  0  0  0  0  0  0  0  0  0
    2.0567   -0.5784    1.0613 H   0  0  0  0  0  0  0  0  0  0  0  0
    3.0847   -1.5537   -0.0195 H   0  0  0  0  0  0  0  0  0  0  0  0
    1.3242   -0.6160   -1.9245 H   0  0  0  0  0  0  0  0  0  0  0  0
    0.9706   -2.0390   -0.9214 H   0  0  0  0  0  0  0  0  0  0  0  0
    0.3965    1.7462   -1.1158 H   0  0  0  0  0  0  0  0  0  0  0  0
   -0.2691    3.1065    0.9032 H   0  0  0  0  0  0  0  0  0  0  0  0
   -0.6168    1.5905    1.9016 H   0  0  0  0  0  0  0  0  0  0  0  0
   -1.2912   -2.0037   -0.6208 H   0  0  0  0  0  0  0  0  0  0  0  0
   -2.5800    0.7336   -0.1811 H   0  0  0  0  0  0  0  0  0  0  0  0
   -2.9524   -0.5981    1.0456 H   0  0  0  0  0  0  0  0  0  0  0  0
   -3.3339   -0.8014   -0.6825 H   0  0  0  0  0  0  0  0  0  0  0  0
  1  2  1  0
  2  3  1  0
  3  4  1  0
  4  5  1  0
  5  6  1  0
  3  7  1  0
  7  8  1  0
  8  9  1  0
  8  3  1  0
  6  4  1  0
  1 10  1  0
  1 11  1  0
  1 12  1  0
  2 13  1  0
  2 14  1  0
  4 15  1  0
  5 16  1  0
  5 17  1  0
  8 18  1  0
  9 19  1  0
  9 20  1  0
  9 21  1  0
M  END
