
     RDKit          3D

 22 23  0  0  0  0  0  0  0  0999 V2000
    3.2330    0.2520    0.1382 C   0  0  0  0  0  0  0  0  0  0  0  0
    1.8914    0.8322   -0.2191 C   0  0  0  0  0  0  0  0  0  0  0  0
    0.8371   -0.1846   -0.4653 C   0  0  0  0  0  0  0  0  0  0  0  0
    0.4869   -1.1305    0.6636 C   0  0  0  0  0  0  0  0  0  0  0  0
   -0.4663    0.0282    0.2916 C   0  0  0  0  0  0  0  0  0  0  0  0
   -1.7481   -0.4256   -0.3453 C   0  0  0  0  0  0  0  0  0  0  0  0
   -2.9794   -0.1663    0.4909 C   0  0  0  0  0  0  0  0  0  0  0  0
   -2.7645    0.5087   -0.8269 C   0  0  0  0  0  0  0  0  0  0  0  0
    3.8353    0.1628   -0.8127 H   0  0  0  0  0  0  0  0  0  0  0  0
    3.7836    0.9932    0.7516 H   0  0  0  0  0  0  0  0  0  0  0  0
    3.1897   -0.7442    0.5851 H   0  0  0  0  0  0  0  0  0  0  0  0
    2.0069    1.4546   -1.1192 H   0  0  0  0  0  0  0  0  0  0  0  0
    1.5882    1.4884    0.6172 H   0  0  0  0  0  0  0  0  0  0  0  0
    0.7348   -0.6658   -1.4663 H   0  0  0  0  0  0  0  0  0  0  0  0
    0.1560   -2.1550    0.4393 H   0  0  0  0  0  0  0  0  0  0  0  0
    1.0353   -1.0404    1.6146 H   0  0  0  0  0  0  0  0  0  0  0  0
   -0.5191    0.8266    1.0506 H   0  0  0  0  0  0  0  0  0  0  0  0
   -1.7180   -1.4275   -0.8557 H   0  0  0  0  0  0  0  0  0  0  0  0
   -3.7416   -0.9612    0.6048 H   0  0  0  0  0  0  0  0  0  0  0  0
   -2.8872    0.5137    1.3830 H   0  0  0  0  0  0  0  0  0  0  0  0
   -2.5415    1.6146   -0.8350 H   0  0  0  0  0  0  0  0  0  0  0  0
   -3.4126    0.2262   -1.6850 H   0  0  0  0  0  0  0  0  0  0  0  0
  1  2  1  0
  2  3  1  0
  3  4  1  0
  4  5  1  0
  5  6  1  0
  6  7  1  0
  7  8  1  0
  5  3  1  0
  8  6  1  0
  1  9  1  0
  1 10  1  0
  1 11  1  0
  2 12  1  0
  2 13  1  0
  3 14  1  0
  4 15  1  0
  4 16  1  0
  5 17  1  0
  6 18  1  0
  7 19  1  0
  7 20  1  0
  8 21  1  0
  8 22  1  0
M  END
