
     RDKit          3D

 20 20  0  0  0  0  0  0  0  0999 V2000
    1.8665   -1.0885    0.2609 C   0  0  0  0  0  0  0  0  0  0  0  0
    1.3894    0.2351   -0.2170 C   0  0  0  0  0  0  0  0  0  0  0  0
   -0.0565    0.4989   -0.0890 C   0  0  0  0  0  0  0  0  0  0  0  0
   -0.4747    1.8828   -0.6019 C   0  0  0  0  0  0  0  0  0  0  0  0
   -0.9570   -0.1137    0.8707 C   0  0  0  0  0  0  0  0  0  0  0  0
   -0.4730   -0.9059    1.9319 O   0  0  0  0  0  0  0  0  0  0  0  0
   -0.9607   -0.6723   -0.4961 C   0  0  0  0  0  0  0  0  0  0  0  0
   -1.9429   -0.3450   -1.4174 O   0  0  0  0  0  0  0  0  0  0  0  0
    1.4573   -1.9538   -0.2753 H   0  0  0  0  0  0  0  0  0  0  0  0
    2.9808   -1.1195    0.0687 H   0  0  0  0  0  0  0  0  0  0  0  0
    1.7775   -1.1816    1.3665 H   0  0  0  0  0  0  0  0  0  0  0  0
    1.6686    0.3176   -1.3074 H   0  0  0  0  0  0  0  0  0  0  0  0
    1.9855    1.0231    0.2876 H   0  0  0  0  0  0  0  0  0  0  0  0
   -0.3444    2.6549    0.1552 H   0  0  0  0  0  0  0  0  0  0  0  0
   -1.5546    1.8214   -0.8496 H   0  0  0  0  0  0  0  0  0  0  0  0
    0.0997    2.0970   -1.5189 H   0  0  0  0  0  0  0  0  0  0  0  0
   -1.8844    0.4269    1.1639 H   0  0  0  0  0  0  0  0  0  0  0  0
   -1.1942   -1.3248    2.4333 H   0  0  0  0  0  0  0  0  0  0  0  0
   -0.5302   -1.6623   -0.6251 H   0  0  0  0  0  0  0  0  0  0  0  0
   -2.8527   -0.5905   -1.1410 H   0  0  0  0  0  0  0  0  0  0  0  0
  1  2  1  0
  2  3  1  0
  3  4  1  0
  3  5  1  0
  5  6  1  0
  5  7  1  0
  7  8  1  0
  7  3  1  0
  1  9  1  0
  1 10  1  0
  1 11  1  0
  2 12  1  0
  2 13  1  0
  4 14  1  0
  4 15  1  0
  4 16  1  0
  5 17  1  0
  6 18  1  0
  7 19  1  0
  8 20  1  0
M  END
