
     RDKit          3D

 21 21  0  0  0  0  0  0  0  0999 V2000
    2.6253   -0.1572    0.0183 C   0  0  0  0  0  0  0  0  0  0  0  0
    1.4575    0.7311   -0.3380 C   0  0  0  0  0  0  0  0  0  0  0  0
    0.1880    0.3059    0.3276 C   0  0  0  0  0  0  0  0  0  0  0  0
   -0.2405   -1.0903   -0.0313 C   0  0  0  0  0  0  0  0  0  0  0  0
   -1.6946   -1.0960    0.3290 C   0  0  0  0  0  0  0  0  0  0  0  0
   -2.1491    0.3191    0.1352 C   0  0  0  0  0  0  0  0  0  0  0  0
   -0.9488    1.1254   -0.2991 C   0  0  0  0  0  0  0  0  0  0  0  0
    3.3881   -0.0231   -0.7773 H   0  0  0  0  0  0  0  0  0  0  0  0
    3.0539    0.1179    0.9999 H   0  0  0  0  0  0  0  0  0  0  0  0
    2.2956   -1.2194    0.0411 H   0  0  0  0  0  0  0  0  0  0  0  0
    1.3211    0.7055   -1.4252 H   0  0  0  0  0  0  0  0  0  0  0  0
    1.6801    1.7624   -0.0244 H   0  0  0  0  0  0  0  0  0  0  0  0
    0.2031    0.4301    1.4242 H   0  0  0  0  0  0  0  0  0  0  0  0
   -0.1851   -1.1603   -1.1528 H   0  0  0  0  0  0  0  0  0  0  0  0
    0.3455   -1.8799    0.4506 H   0  0  0  0  0  0  0  0  0  0  0  0
   -1.8817   -1.3911    1.3836 H   0  0  0  0  0  0  0  0  0  0  0  0
   -2.2849   -1.8179   -0.2917 H   0  0  0  0  0  0  0  0  0  0  0  0
   -2.9837    0.3521   -0.5802 H   0  0  0  0  0  0  0  0  0  0  0  0
   -2.4980    0.7781    1.1005 H   0  0  0  0  0  0  0  0  0  0  0  0
   -0.7730    1.0708   -1.3934 H   0  0  0  0  0  0  0  0  0  0  0  0
   -0.9186    2.1368    0.1033 H   0  0  0  0  0  0  0  0  0  0  0  0
  1  2  1  0
  2  3  1  0
  3  4  1  0
  4  5  1  0
  5  6  1  0
  6  7  1  0
  7  3  1  0
  1  8  1  0
  1  9  1  0
  1 10  1  0
  2 11  1  0
  2 12  1  0
  3 13  1  0
  4 14  1  0
  4 15  1  0
  5 16  1  0
  5 17  1  0
  6 18  1  0
  6 19  1  0
  7 20  1  0
  7 21  1  0
M  END
