
     RDKit          3D

 23 24  0  0  0  0  0  0  0  0999 V2000
    2.9873    0.5461   -0.2366 C   0  0  0  0  0  0  0  0  0  0  0  0
    1.9312   -0.5239   -0.2634 C   0  0  0  0  0  0  0  0  0  0  0  0
    0.7153   -0.1983    0.5323 C   0  0  0  0  0  0  0  0  0  0  0  0
   -0.0477    1.0310    0.1377 C   0  0  0  0  0  0  0  0  0  0  0  0
   -1.2676    0.1681   -0.0058 C   0  0  0  0  0  0  0  0  0  0  0  0
   -2.3612    0.4362   -0.9099 C   0  0  0  0  0  0  0  0  0  0  0  0
   -2.5360    0.4237    0.6294 C   0  0  0  0  0  0  0  0  0  0  0  0
   -0.4610   -1.0566    0.0708 C   0  0  0  0  0  0  0  0  0  0  0  0
   -0.7780   -1.9889    1.0348 O   0  0  0  0  0  0  0  0  0  0  0  0
    3.8932    0.1034   -0.7465 H   0  0  0  0  0  0  0  0  0  0  0  0
    2.7351    1.4444   -0.8096 H   0  0  0  0  0  0  0  0  0  0  0  0
    3.3114    0.7390    0.8024 H   0  0  0  0  0  0  0  0  0  0  0  0
    2.3794   -1.4431    0.1467 H   0  0  0  0  0  0  0  0  0  0  0  0
    1.6565   -0.7483   -1.3164 H   0  0  0  0  0  0  0  0  0  0  0  0
    0.8796   -0.2589    1.6250 H   0  0  0  0  0  0  0  0  0  0  0  0
   -0.1049    1.7845    0.9305 H   0  0  0  0  0  0  0  0  0  0  0  0
    0.2147    1.4833   -0.8388 H   0  0  0  0  0  0  0  0  0  0  0  0
   -2.4070    1.4281   -1.3973 H   0  0  0  0  0  0  0  0  0  0  0  0
   -2.8596   -0.3905   -1.4704 H   0  0  0  0  0  0  0  0  0  0  0  0
   -2.7525    1.3914    1.1147 H   0  0  0  0  0  0  0  0  0  0  0  0
   -3.1929   -0.3928    0.9940 H   0  0  0  0  0  0  0  0  0  0  0  0
   -0.3009   -1.5405   -0.9254 H   0  0  0  0  0  0  0  0  0  0  0  0
   -1.6343   -2.4376    0.9017 H   0  0  0  0  0  0  0  0  0  0  0  0
  1  2  1  0
  2  3  1  0
  3  4  1  0
  4  5  1  0
  5  6  1  0
  6  7  1  0
  5  8  1  0
  8  9  1  0
  8  3  1  0
  7  5  1  0
  1 10  1  0
  1 11  1  0
  1 12  1  0
  2 13  1  0
  2 14  1  0
  3 15  1  0
  4 16  1  0
  4 17  1  0
  6 18  1  0
  6 19  1  0
  7 20  1  0
  7 21  1  0
  8 22  1  0
  9 23  1  0
M  END
