
     RDKit          3D

 21 21  0  0  0  0  0  0  0  0999 V2000
    2.3511    0.2052    0.0621 C   0  0  0  0  0  0  0  0  0  0  0  0
    1.2887    0.1415   -0.9945 C   0  0  0  0  0  0  0  0  0  0  0  0
   -0.0428   -0.1524   -0.2688 C   0  0  0  0  0  0  0  0  0  0  0  0
    0.0221   -1.3311    0.3989 O   0  0  0  0  0  0  0  0  0  0  0  0
   -1.0791   -1.7697    1.0702 C   0  0  0  0  0  0  0  0  0  0  0  0
   -0.6124    1.1186    0.3154 C   0  0  0  0  0  0  0  0  0  0  0  0
   -0.9595    1.0627    1.6329 O   0  0  0  0  0  0  0  0  0  0  0  0
   -1.3069    0.4171   -0.7825 C   0  0  0  0  0  0  0  0  0  0  0  0
   -1.2637    0.9500   -2.0638 O   0  0  0  0  0  0  0  0  0  0  0  0
    2.9349   -0.7385    0.1013 H   0  0  0  0  0  0  0  0  0  0  0  0
    1.9149    0.3157    1.0969 H   0  0  0  0  0  0  0  0  0  0  0  0
    3.0326    1.0726   -0.0525 H   0  0  0  0  0  0  0  0  0  0  0  0
    1.1490    1.0962   -1.5069 H   0  0  0  0  0  0  0  0  0  0  0  0
    1.4764   -0.6984   -1.7246 H   0  0  0  0  0  0  0  0  0  0  0  0
   -1.9518   -1.8862    0.3897 H   0  0  0  0  0  0  0  0  0  0  0  0
   -0.9045   -2.8088    1.5105 H   0  0  0  0  0  0  0  0  0  0  0  0
   -1.2615   -1.1393    1.9519 H   0  0  0  0  0  0  0  0  0  0  0  0
   -0.1795    2.1058    0.0245 H   0  0  0  0  0  0  0  0  0  0  0  0
   -1.0202    1.9398    2.0899 H   0  0  0  0  0  0  0  0  0  0  0  0
   -2.2352   -0.0948   -0.5404 H   0  0  0  0  0  0  0  0  0  0  0  0
   -1.3526    0.1942   -2.7103 H   0  0  0  0  0  0  0  0  0  0  0  0
  1  2  1  0
  2  3  1  0
  3  4  1  0
  4  5  1  0
  3  6  1  0
  6  7  1  0
  6  8  1  0
  8  9  1  0
  8  3  1  0
  1 10  1  0
  1 11  1  0
  1 12  1  0
  2 13  1  0
  2 14  1  0
  5 15  1  0
  5 16  1  0
  5 17  1  0
  6 18  1  0
  7 19  1  0
  8 20  1  0
  9 21  1  0
M  END
