
     RDKit          3D

 20 21  0  0  0  0  0  0  0  0999 V2000
    2.5030   -0.1622    0.2156 C   0  0  0  0  0  0  0  0  0  0  0  0
    1.3505    0.3839   -0.6225 C   0  0  0  0  0  0  0  0  0  0  0  0
    0.1803    0.5548    0.3166 C   0  0  0  0  0  0  0  0  0  0  0  0
   -1.0772    1.0796   -0.2668 C   0  0  0  0  0  0  0  0  0  0  0  0
   -1.1886    0.9810   -1.6655 O   0  0  0  0  0  0  0  0  0  0  0  0
   -1.8087   -0.1204    0.3426 C   0  0  0  0  0  0  0  0  0  0  0  0
   -1.4307   -1.4244   -0.2199 C   0  0  0  0  0  0  0  0  0  0  0  0
   -0.4624   -0.7403    0.6492 C   0  0  0  0  0  0  0  0  0  0  0  0
    2.7513    0.5676    1.0059 H   0  0  0  0  0  0  0  0  0  0  0  0
    2.1219   -1.0950    0.6914 H   0  0  0  0  0  0  0  0  0  0  0  0
    3.3795   -0.4107   -0.4069 H   0  0  0  0  0  0  0  0  0  0  0  0
    1.6802    1.3096   -1.0963 H   0  0  0  0  0  0  0  0  0  0  0  0
    1.1261   -0.3670   -1.4088 H   0  0  0  0  0  0  0  0  0  0  0  0
    0.4766    1.1398    1.2174 H   0  0  0  0  0  0  0  0  0  0  0  0
   -1.5062    1.9977    0.1635 H   0  0  0  0  0  0  0  0  0  0  0  0
   -2.1327    1.2009   -1.8720 H   0  0  0  0  0  0  0  0  0  0  0  0
   -2.4730    0.0265    1.1881 H   0  0  0  0  0  0  0  0  0  0  0  0
   -1.3246   -1.4591   -1.3288 H   0  0  0  0  0  0  0  0  0  0  0  0
   -1.9205   -2.3148    0.2042 H   0  0  0  0  0  0  0  0  0  0  0  0
   -0.2447   -1.1476    1.6366 H   0  0  0  0  0  0  0  0  0  0  0  0
  1  2  1  0
  2  3  1  0
  3  4  1  0
  4  5  1  0
  4  6  1  0
  6  7  1  0
  7  8  1  0
  8  3  1  0
  8  6  1  0
  1  9  1  0
  1 10  1  0
  1 11  1  0
  2 12  1  0
  2 13  1  0
  3 14  1  0
  4 15  1  0
  5 16  1  0
  6 17  1  0
  7 18  1  0
  7 19  1  0
  8 20  1  0
M  END
