
     RDKit          3D

 23 24  0  0  0  0  0  0  0  0999 V2000
    2.2453    1.2615    0.0704 C   0  0  0  0  0  0  0  0  0  0  0  0
    1.9404   -0.1678    0.4635 C   0  0  0  0  0  0  0  0  0  0  0  0
    0.4798   -0.3628    0.7517 C   0  0  0  0  0  0  0  0  0  0  0  0
    0.2763   -1.7190    1.1104 O   0  0  0  0  0  0  0  0  0  0  0  0
    0.0142   -1.9425   -0.2638 C   0  0  0  0  0  0  0  0  0  0  0  0
   -0.4502   -0.5512   -0.3384 C   0  0  0  0  0  0  0  0  0  0  0  0
   -0.8278    0.2342   -1.4458 C   0  0  0  0  0  0  0  0  0  0  0  0
   -1.8454   -0.1287   -0.4063 C   0  0  0  0  0  0  0  0  0  0  0  0
   -2.3274    0.8671    0.5921 C   0  0  0  0  0  0  0  0  0  0  0  0
    3.3355    1.3565    0.0019 H   0  0  0  0  0  0  0  0  0  0  0  0
    1.7430    1.4803   -0.9025 H   0  0  0  0  0  0  0  0  0  0  0  0
    1.8231    1.9168    0.8421 H   0  0  0  0  0  0  0  0  0  0  0  0
    2.4776   -0.3284    1.4449 H   0  0  0  0  0  0  0  0  0  0  0  0
    2.3706   -0.8857   -0.2333 H   0  0  0  0  0  0  0  0  0  0  0  0
    0.1655    0.3462    1.5589 H   0  0  0  0  0  0  0  0  0  0  0  0
    0.9251   -2.1944   -0.8524 H   0  0  0  0  0  0  0  0  0  0  0  0
   -0.8114   -2.6627   -0.4449 H   0  0  0  0  0  0  0  0  0  0  0  0
   -0.5950    1.3181   -1.5114 H   0  0  0  0  0  0  0  0  0  0  0  0
   -0.9556   -0.2239   -2.4512 H   0  0  0  0  0  0  0  0  0  0  0  0
   -2.6036   -0.9270   -0.6411 H   0  0  0  0  0  0  0  0  0  0  0  0
   -3.2875    1.3357    0.2741 H   0  0  0  0  0  0  0  0  0  0  0  0
   -2.5016    0.3253    1.5669 H   0  0  0  0  0  0  0  0  0  0  0  0
   -1.5910    1.6525    0.8144 H   0  0  0  0  0  0  0  0  0  0  0  0
  1  2  1  0
  2  3  1  0
  3  4  1  0
  4  5  1  0
  5  6  1  0
  6  7  1  0
  7  8  1  0
  8  9  1  0
  6  3  1  0
  8  6  1  0
  1 10  1  0
  1 11  1  0
  1 12  1  0
  2 13  1  0
  2 14  1  0
  3 15  1  0
  5 16  1  0
  5 17  1  0
  7 18  1  0
  7 19  1  0
  8 20  1  0
  9 21  1  0
  9 22  1  0
  9 23  1  0
M  END
