
     RDKit          3D

 21 21  0  0  0  0  0  0  0  0999 V2000
    2.8260   -0.1868   -0.6594 C   0  0  0  0  0  0  0  0  0  0  0  0
    1.8947    0.3077    0.3901 C   0  0  0  0  0  0  0  0  0  0  0  0
    0.4533    0.3623   -0.0645 C   0  0  0  0  0  0  0  0  0  0  0  0
   -0.4281    0.8700    1.0447 C   0  0  0  0  0  0  0  0  0  0  0  0
   -1.1818   -0.2199    1.4623 O   0  0  0  0  0  0  0  0  0  0  0  0
   -1.2163   -1.0650    0.3586 C   0  0  0  0  0  0  0  0  0  0  0  0
   -2.4641   -0.7091   -0.4273 C   0  0  0  0  0  0  0  0  0  0  0  0
   -2.4247    0.6177   -0.8399 O   0  0  0  0  0  0  0  0  0  0  0  0
   -0.0623   -0.8762   -0.3604 O   0  0  0  0  0  0  0  0  0  0  0  0
    2.3476   -0.7241   -1.4942 H   0  0  0  0  0  0  0  0  0  0  0  0
    3.6429   -0.8468   -0.2454 H   0  0  0  0  0  0  0  0  0  0  0  0
    3.3658    0.6905   -1.0961 H   0  0  0  0  0  0  0  0  0  0  0  0
    2.1610    1.3006    0.7983 H   0  0  0  0  0  0  0  0  0  0  0  0
    1.9304   -0.4010    1.2643 H   0  0  0  0  0  0  0  0  0  0  0  0
    0.3459    1.0821   -0.9126 H   0  0  0  0  0  0  0  0  0  0  0  0
    0.1944    1.2094    1.8886 H   0  0  0  0  0  0  0  0  0  0  0  0
   -1.0677    1.7326    0.7260 H   0  0  0  0  0  0  0  0  0  0  0  0
   -1.2603   -2.1050    0.7062 H   0  0  0  0  0  0  0  0  0  0  0  0
   -2.6030   -1.3597   -1.3079 H   0  0  0  0  0  0  0  0  0  0  0  0
   -3.3400   -0.8534    0.2257 H   0  0  0  0  0  0  0  0  0  0  0  0
   -3.1138    1.1739   -0.3974 H   0  0  0  0  0  0  0  0  0  0  0  0
  1  2  1  0
  2  3  1  0
  3  4  1  0
  4  5  1  0
  5  6  1  0
  6  7  1  0
  7  8  1  0
  6  9  1  0
  9  3  1  0
  1 10  1  0
  1 11  1  0
  1 12  1  0
  2 13  1  0
  2 14  1  0
  3 15  1  0
  4 16  1  0
  4 17  1  0
  6 18  1  0
  7 19  1  0
  7 20  1  0
  8 21  1  0
M  END
