
     RDKit          3D

 23 23  0  0  0  0  0  0  0  0999 V2000
    2.9761   -0.0103    0.3787 C   0  0  0  0  0  0  0  0  0  0  0  0
    1.7872   -0.9574    0.3823 C   0  0  0  0  0  0  0  0  0  0  0  0
    0.5969   -0.2012   -0.1906 C   0  0  0  0  0  0  0  0  0  0  0  0
   -0.6166   -1.0787   -0.2172 C   0  0  0  0  0  0  0  0  0  0  0  0
   -1.6604   -0.4490    0.6920 C   0  0  0  0  0  0  0  0  0  0  0  0
   -2.7796   -1.2151    0.8209 O   0  0  0  0  0  0  0  0  0  0  0  0
   -1.9375    0.9280    0.0907 C   0  0  0  0  0  0  0  0  0  0  0  0
   -0.6401    1.6948    0.1337 C   0  0  0  0  0  0  0  0  0  0  0  0
    0.4148    0.9217    0.6403 O   0  0  0  0  0  0  0  0  0  0  0  0
    2.9625    0.4915   -0.6168 H   0  0  0  0  0  0  0  0  0  0  0  0
    3.9209   -0.5753    0.5312 H   0  0  0  0  0  0  0  0  0  0  0  0
    2.7807    0.7413    1.1579 H   0  0  0  0  0  0  0  0  0  0  0  0
    1.9894   -1.8686   -0.1917 H   0  0  0  0  0  0  0  0  0  0  0  0
    1.4970   -1.2361    1.4208 H   0  0  0  0  0  0  0  0  0  0  0  0
    0.8948    0.1937   -1.1719 H   0  0  0  0  0  0  0  0  0  0  0  0
   -1.0477   -1.0006   -1.2570 H   0  0  0  0  0  0  0  0  0  0  0  0
   -0.4212   -2.1328    0.0265 H   0  0  0  0  0  0  0  0  0  0  0  0
   -1.1338   -0.2465    1.6598 H   0  0  0  0  0  0  0  0  0  0  0  0
   -3.6325   -0.7806    0.6697 H   0  0  0  0  0  0  0  0  0  0  0  0
   -2.1484    0.7259   -0.9993 H   0  0  0  0  0  0  0  0  0  0  0  0
   -2.7759    1.4372    0.5677 H   0  0  0  0  0  0  0  0  0  0  0  0
   -0.7259    2.6039    0.7675 H   0  0  0  0  0  0  0  0  0  0  0  0
   -0.3008    2.0141   -0.8893 H   0  0  0  0  0  0  0  0  0  0  0  0
  1  2  1  0
  2  3  1  0
  3  4  1  0
  4  5  1  0
  5  6  1  0
  5  7  1  0
  7  8  1  0
  8  9  1  0
  9  3  1  0
  1 10  1  0
  1 11  1  0
  1 12  1  0
  2 13  1  0
  2 14  1  0
  3 15  1  0
  4 16  1  0
  4 17  1  0
  5 18  1  0
  6 19  1  0
  7 20  1  0
  7 21  1  0
  8 22  1  0
  8 23  1  0
M  END
