
     RDKit          3D

 21 23  0  0  0  0  0  0  0  0999 V2000
    2.3760    0.3175    0.6652 C   0  0  0  0  0  0  0  0  0  0  0  0
    1.6263    0.1422   -0.6150 C   0  0  0  0  0  0  0  0  0  0  0  0
    0.1789   -0.0840   -0.4289 C   0  0  0  0  0  0  0  0  0  0  0  0
   -0.6509   -0.2710   -1.6777 C   0  0  0  0  0  0  0  0  0  0  0  0
   -1.9790   -0.1618   -1.3211 O   0  0  0  0  0  0  0  0  0  0  0  0
   -2.0616    0.3135   -0.0324 C   0  0  0  0  0  0  0  0  0  0  0  0
   -1.8553   -0.8592    0.9395 C   0  0  0  0  0  0  0  0  0  0  0  0
   -0.3826   -0.5676    0.8547 C   0  0  0  0  0  0  0  0  0  0  0  0
   -0.7022    0.7703    0.3803 C   0  0  0  0  0  0  0  0  0  0  0  0
    3.4572    0.4144    0.4118 H   0  0  0  0  0  0  0  0  0  0  0  0
    2.0957    1.2579    1.1947 H   0  0  0  0  0  0  0  0  0  0  0  0
    2.3009   -0.5625    1.3328 H   0  0  0  0  0  0  0  0  0  0  0  0
    1.7819    1.0791   -1.2159 H   0  0  0  0  0  0  0  0  0  0  0  0
    2.0695   -0.6808   -1.1926 H   0  0  0  0  0  0  0  0  0  0  0  0
   -0.3976    0.5913   -2.3610 H   0  0  0  0  0  0  0  0  0  0  0  0
   -0.3967   -1.1781   -2.2321 H   0  0  0  0  0  0  0  0  0  0  0  0
   -2.9184    0.9134    0.2406 H   0  0  0  0  0  0  0  0  0  0  0  0
   -2.1148   -1.8371    0.5366 H   0  0  0  0  0  0  0  0  0  0  0  0
   -2.2163   -0.6295    1.9732 H   0  0  0  0  0  0  0  0  0  0  0  0
    0.2590   -0.6761    1.7263 H   0  0  0  0  0  0  0  0  0  0  0  0
   -0.4699    1.7080    0.8211 H   0  0  0  0  0  0  0  0  0  0  0  0
  1  2  1  0
  2  3  1  0
  3  4  1  0
  4  5  1  0
  5  6  1  0
  6  7  1  0
  7  8  1  0
  8  9  1  0
  8  3  1  0
  9  3  1  0
  9  6  1  0
  1 10  1  0
  1 11  1  0
  1 12  1  0
  2 13  1  0
  2 14  1  0
  4 15  1  0
  4 16  1  0
  6 17  1  0
  7 18  1  0
  7 19  1  0
  8 20  1  0
  9 21  1  0
M  END
