
     RDKit          3D

 18 20  0  0  0  0  0  0  0  0999 V2000
    2.0299    0.9137   -0.1853 C   0  0  0  0  0  0  0  0  0  0  0  0
    1.5479   -0.5011   -0.4378 C   0  0  0  0  0  0  0  0  0  0  0  0
    0.0636   -0.6248   -0.4245 C   0  0  0  0  0  0  0  0  0  0  0  0
   -0.4230   -1.8883   -0.6487 O   0  0  0  0  0  0  0  0  0  0  0  0
   -0.7237   -1.3113    0.5531 C   0  0  0  0  0  0  0  0  0  0  0  0
   -1.7741   -0.2392    0.5466 C   0  0  0  0  0  0  0  0  0  0  0  0
   -2.2409    0.3798   -0.6979 C   0  0  0  0  0  0  0  0  0  0  0  0
   -0.8308    0.5687   -0.3715 C   0  0  0  0  0  0  0  0  0  0  0  0
    1.5903    1.6317   -0.9215 H   0  0  0  0  0  0  0  0  0  0  0  0
    3.1408    0.8869   -0.2662 H   0  0  0  0  0  0  0  0  0  0  0  0
    1.7638    1.1553    0.8597 H   0  0  0  0  0  0  0  0  0  0  0  0
    1.9090   -0.8248   -1.4377 H   0  0  0  0  0  0  0  0  0  0  0  0
    2.0657   -1.1446    0.3077 H   0  0  0  0  0  0  0  0  0  0  0  0
   -0.2959   -1.6354    1.4963 H   0  0  0  0  0  0  0  0  0  0  0  0
   -2.0364    0.2145    1.5237 H   0  0  0  0  0  0  0  0  0  0  0  0
   -2.9123    1.2444   -0.6029 H   0  0  0  0  0  0  0  0  0  0  0  0
   -2.4578   -0.2993   -1.5632 H   0  0  0  0  0  0  0  0  0  0  0  0
   -0.4162    1.4737    0.1075 H   0  0  0  0  0  0  0  0  0  0  0  0
  1  2  1  0
  2  3  1  0
  3  4  1  0
  4  5  1  0
  5  6  1  0
  6  7  1  0
  7  8  1  0
  5  3  1  0
  8  6  1  0
  8  3  1  0
  1  9  1  0
  1 10  1  0
  1 11  1  0
  2 12  1  0
  2 13  1  0
  5 14  1  0
  6 15  1  0
  7 16  1  0
  7 17  1  0
  8 18  1  0
M  END
