
     RDKit          3D

 19 19  0  0  0  0  0  0  0  0999 V2000
   -2.4725    0.2847    0.5036 C   0  0  0  0  0  0  0  0  0  0  0  0
   -1.3156   -0.5157   -0.0377 C   0  0  0  0  0  0  0  0  0  0  0  0
   -0.2674    0.4413   -0.5756 C   0  0  0  0  0  0  0  0  0  0  0  0
    0.9243   -0.2600   -1.1368 C   0  0  0  0  0  0  0  0  0  0  0  0
    1.8155   -0.4719    0.0611 C   0  0  0  0  0  0  0  0  0  0  0  0
    3.0628    0.1202   -0.0953 O   0  0  0  0  0  0  0  0  0  0  0  0
    1.1511    0.2439    1.2000 C   0  0  0  0  0  0  0  0  0  0  0  0
    1.3708    0.0633    2.4120 O   0  0  0  0  0  0  0  0  0  0  0  0
    0.2680    1.1197    0.5625 O   0  0  0  0  0  0  0  0  0  0  0  0
   -2.7583   -0.0445    1.5378 H   0  0  0  0  0  0  0  0  0  0  0  0
   -3.3944    0.1606   -0.1049 H   0  0  0  0  0  0  0  0  0  0  0  0
   -2.2152    1.3568    0.5293 H   0  0  0  0  0  0  0  0  0  0  0  0
   -1.6982   -1.2070   -0.8113 H   0  0  0  0  0  0  0  0  0  0  0  0
   -0.9248   -1.1265    0.7910 H   0  0  0  0  0  0  0  0  0  0  0  0
   -0.6861    1.1189   -1.3187 H   0  0  0  0  0  0  0  0  0  0  0  0
    0.6848   -1.2025   -1.6623 H   0  0  0  0  0  0  0  0  0  0  0  0
    1.4505    0.3915   -1.8657 H   0  0  0  0  0  0  0  0  0  0  0  0
    1.9717   -1.5456    0.2897 H   0  0  0  0  0  0  0  0  0  0  0  0
    3.0330    1.0728   -0.2787 H   0  0  0  0  0  0  0  0  0  0  0  0
  1  2  1  0
  2  3  1  0
  3  4  1  0
  4  5  1  0
  5  6  1  0
  5  7  1  0
  7  8  2  0
  7  9  1  0
  9  3  1  0
  1 10  1  0
  1 11  1  0
  1 12  1  0
  2 13  1  0
  2 14  1  0
  3 15  1  0
  4 16  1  0
  4 17  1  0
  5 18  1  0
  6 19  1  0
M  END
