
     RDKit          3D

 19 19  0  0  0  0  0  0  0  0999 V2000
    2.1410    0.2932    0.3568 C   0  0  0  0  0  0  0  0  0  0  0  0
    1.2382   -0.3450   -0.6213 C   0  0  0  0  0  0  0  0  0  0  0  0
   -0.2324   -0.1572   -0.4336 C   0  0  0  0  0  0  0  0  0  0  0  0
   -0.9870   -0.9590   -1.4549 C   0  0  0  0  0  0  0  0  0  0  0  0
   -1.7303   -0.3968   -2.2607 O   0  0  0  0  0  0  0  0  0  0  0  0
   -0.9494    0.8654    0.2387 C   0  0  0  0  0  0  0  0  0  0  0  0
   -0.4190    1.9245    0.9279 O   0  0  0  0  0  0  0  0  0  0  0  0
   -0.7597   -0.4795    0.9715 C   0  0  0  0  0  0  0  0  0  0  0  0
   -1.8938   -1.2447    1.1344 O   0  0  0  0  0  0  0  0  0  0  0  0
    1.6706    0.9287    1.1246 H   0  0  0  0  0  0  0  0  0  0  0  0
    2.9349    0.8912   -0.1163 H   0  0  0  0  0  0  0  0  0  0  0  0
    2.6568   -0.5132    0.9717 H   0  0  0  0  0  0  0  0  0  0  0  0
    1.4056    0.2174   -1.6284 H   0  0  0  0  0  0  0  0  0  0  0  0
    1.4921   -1.3770   -0.8947 H   0  0  0  0  0  0  0  0  0  0  0  0
   -0.9135   -2.0430   -1.5128 H   0  0  0  0  0  0  0  0  0  0  0  0
   -2.0239    1.0899   -0.0788 H   0  0  0  0  0  0  0  0  0  0  0  0
   -0.9424    2.7506    0.8786 H   0  0  0  0  0  0  0  0  0  0  0  0
   -0.0562   -0.5219    1.8278 H   0  0  0  0  0  0  0  0  0  0  0  0
   -2.6314   -0.9236    0.5695 H   0  0  0  0  0  0  0  0  0  0  0  0
  1  2  1  0
  2  3  1  0
  3  4  1  0
  4  5  2  0
  3  6  1  0
  6  7  1  0
  6  8  1  0
  8  9  1  0
  8  3  1  0
  1 10  1  0
  1 11  1  0
  1 12  1  0
  2 13  1  0
  2 14  1  0
  4 15  1  0
  6 16  1  0
  7 17  1  0
  8 18  1  0
  9 19  1  0
M  END
