
     RDKit          3D

 21 22  0  0  0  0  0  0  0  0999 V2000
   -2.4354    0.7960    0.5178 C   0  0  0  0  0  0  0  0  0  0  0  0
   -1.3328    0.8074   -0.5039 C   0  0  0  0  0  0  0  0  0  0  0  0
   -0.3208   -0.2862   -0.2910 C   0  0  0  0  0  0  0  0  0  0  0  0
   -0.8074   -1.7076   -0.3343 C   0  0  0  0  0  0  0  0  0  0  0  0
   -0.0035   -2.0566    0.7436 O   0  0  0  0  0  0  0  0  0  0  0  0
    0.1624   -0.7091    1.0042 C   0  0  0  0  0  0  0  0  0  0  0  0
    1.0764    0.0506    0.0669 C   0  0  0  0  0  0  0  0  0  0  0  0
    2.1544   -0.5864   -0.4856 O   0  0  0  0  0  0  0  0  0  0  0  0
    3.2280    0.2983   -0.5014 C   0  0  0  0  0  0  0  0  0  0  0  0
   -2.1595    0.2199    1.4303 H   0  0  0  0  0  0  0  0  0  0  0  0
   -2.6361    1.8487    0.8147 H   0  0  0  0  0  0  0  0  0  0  0  0
   -3.3530    0.3592    0.0715 H   0  0  0  0  0  0  0  0  0  0  0  0
   -1.7514    0.6595   -1.5389 H   0  0  0  0  0  0  0  0  0  0  0  0
   -0.8205    1.7907   -0.5350 H   0  0  0  0  0  0  0  0  0  0  0  0
   -0.6007   -2.2559   -1.2759 H   0  0  0  0  0  0  0  0  0  0  0  0
   -1.8963   -1.7750   -0.0509 H   0  0  0  0  0  0  0  0  0  0  0  0
   -0.1038   -0.2800    1.9706 H   0  0  0  0  0  0  0  0  0  0  0  0
    1.2341    1.0934    0.3858 H   0  0  0  0  0  0  0  0  0  0  0  0
    2.9055    1.1734   -1.1226 H   0  0  0  0  0  0  0  0  0  0  0  0
    3.3096    0.7026    0.5392 H   0  0  0  0  0  0  0  0  0  0  0  0
    4.1506   -0.1429   -0.8745 H   0  0  0  0  0  0  0  0  0  0  0  0
  1  2  1  0
  2  3  1  0
  3  4  1  0
  4  5  1  0
  5  6  1  0
  6  7  1  0
  7  8  1  0
  8  9  1  0
  6  3  1  0
  7  3  1  0
  1 10  1  0
  1 11  1  0
  1 12  1  0
  2 13  1  0
  2 14  1  0
  4 15  1  0
  4 16  1  0
  6 17  1  0
  7 18  1  0
  9 19  1  0
  9 20  1  0
  9 21  1  0
M  END
