
     RDKit          3D

 25 26  0  0  0  0  0  0  0  0999 V2000
    3.4525   -0.0419   -0.1633 C   0  0  0  0  0  0  0  0  0  0  0  0
    2.1479    0.4435    0.4269 C   0  0  0  0  0  0  0  0  0  0  0  0
    0.9724    0.1976   -0.4457 C   0  0  0  0  0  0  0  0  0  0  0  0
    0.5460   -1.1429   -0.8845 C   0  0  0  0  0  0  0  0  0  0  0  0
   -0.1732   -0.5439    0.2582 C   0  0  0  0  0  0  0  0  0  0  0  0
   -1.5057    0.1086    0.1182 C   0  0  0  0  0  0  0  0  0  0  0  0
   -1.5607    1.5254    0.6868 C   0  0  0  0  0  0  0  0  0  0  0  0
   -2.5241   -0.2965   -0.8430 C   0  0  0  0  0  0  0  0  0  0  0  0
   -2.6895   -0.7973    0.5419 C   0  0  0  0  0  0  0  0  0  0  0  0
    3.3658   -0.3081   -1.2269 H   0  0  0  0  0  0  0  0  0  0  0  0
    3.7300   -0.9840    0.3838 H   0  0  0  0  0  0  0  0  0  0  0  0
    4.2900    0.6656    0.0265 H   0  0  0  0  0  0  0  0  0  0  0  0
    2.0204    0.0216    1.4626 H   0  0  0  0  0  0  0  0  0  0  0  0
    2.2510    1.5380    0.5802 H   0  0  0  0  0  0  0  0  0  0  0  0
    0.6925    1.0352   -1.1218 H   0  0  0  0  0  0  0  0  0  0  0  0
    0.0066   -1.2378   -1.8447 H   0  0  0  0  0  0  0  0  0  0  0  0
    1.2402   -1.9861   -0.6868 H   0  0  0  0  0  0  0  0  0  0  0  0
    0.0283   -0.9938    1.2455 H   0  0  0  0  0  0  0  0  0  0  0  0
   -0.9290    1.5808    1.5730 H   0  0  0  0  0  0  0  0  0  0  0  0
   -2.6313    1.7469    0.8806 H   0  0  0  0  0  0  0  0  0  0  0  0
   -1.2406    2.2314   -0.1156 H   0  0  0  0  0  0  0  0  0  0  0  0
   -2.3548   -1.0215   -1.6566 H   0  0  0  0  0  0  0  0  0  0  0  0
   -3.2708    0.4925   -1.1388 H   0  0  0  0  0  0  0  0  0  0  0  0
   -3.3917   -0.3624    1.2581 H   0  0  0  0  0  0  0  0  0  0  0  0
   -2.4724   -1.8710    0.6853 H   0  0  0  0  0  0  0  0  0  0  0  0
  1  2  1  0
  2  3  1  0
  3  4  1  0
  4  5  1  0
  5  6  1  0
  6  7  1  0
  6  8  1  0
  8  9  1  0
  5  3  1  0
  9  6  1  0
  1 10  1  0
  1 11  1  0
  1 12  1  0
  2 13  1  0
  2 14  1  0
  3 15  1  0
  4 16  1  0
  4 17  1  0
  5 18  1  0
  7 19  1  0
  7 20  1  0
  7 21  1  0
  8 22  1  0
  8 23  1  0
  9 24  1  0
  9 25  1  0
M  END
