
     RDKit          3D

 24 24  0  0  0  0  0  0  0  0999 V2000
    2.1480    1.1271    0.5228 C   0  0  0  0  0  0  0  0  0  0  0  0
    1.7200    0.0398   -0.4701 C   0  0  0  0  0  0  0  0  0  0  0  0
    0.7955   -0.8982    0.2493 C   0  0  0  0  0  0  0  0  0  0  0  0
    0.3112   -2.0188   -0.6448 C   0  0  0  0  0  0  0  0  0  0  0  0
   -0.7630   -1.0518   -1.0987 C   0  0  0  0  0  0  0  0  0  0  0  0
   -0.6594   -0.4970    0.3052 C   0  0  0  0  0  0  0  0  0  0  0  0
   -0.9337    0.9657    0.4422 C   0  0  0  0  0  0  0  0  0  0  0  0
   -2.4366    1.1542    0.4804 C   0  0  0  0  0  0  0  0  0  0  0  0
    1.6557    2.0817    0.3348 H   0  0  0  0  0  0  0  0  0  0  0  0
    3.2693    1.2558    0.4921 H   0  0  0  0  0  0  0  0  0  0  0  0
    1.9309    0.7909    1.5550 H   0  0  0  0  0  0  0  0  0  0  0  0
    2.6411   -0.4844   -0.7957 H   0  0  0  0  0  0  0  0  0  0  0  0
    1.2840    0.5084   -1.3525 H   0  0  0  0  0  0  0  0  0  0  0  0
    1.1996   -1.3002    1.2049 H   0  0  0  0  0  0  0  0  0  0  0  0
   -0.1928   -2.8504   -0.0913 H   0  0  0  0  0  0  0  0  0  0  0  0
    1.0132   -2.3405   -1.4286 H   0  0  0  0  0  0  0  0  0  0  0  0
   -0.4417   -0.3848   -1.9149 H   0  0  0  0  0  0  0  0  0  0  0  0
   -1.7673   -1.5083   -1.2239 H   0  0  0  0  0  0  0  0  0  0  0  0
   -1.1883   -1.1594    1.0165 H   0  0  0  0  0  0  0  0  0  0  0  0
   -0.5511    1.5263   -0.4249 H   0  0  0  0  0  0  0  0  0  0  0  0
   -0.4900    1.4190    1.3421 H   0  0  0  0  0  0  0  0  0  0  0  0
   -2.8449    1.4858   -0.4953 H   0  0  0  0  0  0  0  0  0  0  0  0
   -2.7360    1.9199    1.2211 H   0  0  0  0  0  0  0  0  0  0  0  0
   -2.9640    0.2191    0.7744 H   0  0  0  0  0  0  0  0  0  0  0  0
  1  2  1  0
  2  3  1  0
  3  4  1  0
  4  5  1  0
  5  6  1  0
  6  7  1  0
  7  8  1  0
  6  3  1  0
  1  9  1  0
  1 10  1  0
  1 11  1  0
  2 12  1  0
  2 13  1  0
  3 14  1  0
  4 15  1  0
  4 16  1  0
  5 17  1  0
  5 18  1  0
  6 19  1  0
  7 20  1  0
  7 21  1  0
  8 22  1  0
  8 23  1  0
  8 24  1  0
M  END
