
     RDKit          3D

 23 23  0  0  0  0  0  0  0  0999 V2000
   -1.8234    1.4111   -0.0336 C   0  0  0  0  0  0  0  0  0  0  0  0
   -1.5862   -0.0476    0.0232 C   0  0  0  0  0  0  0  0  0  0  0  0
   -0.1995   -0.5109    0.0568 C   0  0  0  0  0  0  0  0  0  0  0  0
   -0.1767   -2.0487    0.1129 C   0  0  0  0  0  0  0  0  0  0  0  0
    0.5704   -0.1832   -1.0581 O   0  0  0  0  0  0  0  0  0  0  0  0
    1.8624   -0.5514   -0.6734 C   0  0  0  0  0  0  0  0  0  0  0  0
    1.8772   -0.6635    0.7102 O   0  0  0  0  0  0  0  0  0  0  0  0
    0.6845   -0.0187    1.1380 C   0  0  0  0  0  0  0  0  0  0  0  0
    1.0036    1.4553    1.0771 C   0  0  0  0  0  0  0  0  0  0  0  0
   -2.9354    1.5761   -0.1686 H   0  0  0  0  0  0  0  0  0  0  0  0
   -1.5514    1.9849    0.8489 H   0  0  0  0  0  0  0  0  0  0  0  0
   -1.3923    1.8463   -0.9836 H   0  0  0  0  0  0  0  0  0  0  0  0
   -2.0831   -0.5033   -0.8818 H   0  0  0  0  0  0  0  0  0  0  0  0
   -2.1334   -0.4845    0.8860 H   0  0  0  0  0  0  0  0  0  0  0  0
    0.7674   -2.4236    0.5135 H   0  0  0  0  0  0  0  0  0  0  0  0
   -1.0583   -2.3512    0.6973 H   0  0  0  0  0  0  0  0  0  0  0  0
   -0.3560   -2.3614   -0.9564 H   0  0  0  0  0  0  0  0  0  0  0  0
    2.0820   -1.5148   -1.1830 H   0  0  0  0  0  0  0  0  0  0  0  0
    2.6238    0.1954   -1.0175 H   0  0  0  0  0  0  0  0  0  0  0  0
    0.4077   -0.3506    2.1554 H   0  0  0  0  0  0  0  0  0  0  0  0
    0.5686    1.9767    1.9657 H   0  0  0  0  0  0  0  0  0  0  0  0
    0.7331    1.9268    0.1200 H   0  0  0  0  0  0  0  0  0  0  0  0
    2.1152    1.6407    1.1817 H   0  0  0  0  0  0  0  0  0  0  0  0
  1  2  1  0
  2  3  1  0
  3  4  1  0
  3  5  1  0
  5  6  1  0
  6  7  1  0
  7  8  1  0
  8  9  1  0
  8  3  1  0
  1 10  1  0
  1 11  1  0
  1 12  1  0
  2 13  1  0
  2 14  1  0
  4 15  1  0
  4 16  1  0
  4 17  1  0
  6 18  1  0
  6 19  1  0
  8 20  1  0
  9 21  1  0
  9 22  1  0
  9 23  1  0
M  END
