
     RDKit          3D

 21 22  0  0  0  0  0  0  0  0999 V2000
   -1.9595    0.8660   -0.6219 C   0  0  0  0  0  0  0  0  0  0  0  0
   -0.8037    0.8114    0.3202 C   0  0  0  0  0  0  0  0  0  0  0  0
    0.0175   -0.4366    0.2109 C   0  0  0  0  0  0  0  0  0  0  0  0
   -0.6862   -1.7271    0.4701 C   0  0  0  0  0  0  0  0  0  0  0  0
    1.0035   -0.4935   -0.9138 C   0  0  0  0  0  0  0  0  0  0  0  0
    1.7022    0.8417   -0.8525 C   0  0  0  0  0  0  0  0  0  0  0  0
    1.9248    0.9431    0.4600 C   0  0  0  0  0  0  0  0  0  0  0  0
    1.3114   -0.3514    0.9440 C   0  0  0  0  0  0  0  0  0  0  0  0
    1.8303   -1.2294   -0.0378 O   0  0  0  0  0  0  0  0  0  0  0  0
   -2.3653   -0.1256   -0.9025 H   0  0  0  0  0  0  0  0  0  0  0  0
   -1.7634    1.4279   -1.5537 H   0  0  0  0  0  0  0  0  0  0  0  0
   -2.8137    1.4082   -0.1193 H   0  0  0  0  0  0  0  0  0  0  0  0
   -1.1615    0.9548    1.3702 H   0  0  0  0  0  0  0  0  0  0  0  0
   -0.1302    1.6689    0.0740 H   0  0  0  0  0  0  0  0  0  0  0  0
   -0.1624   -2.3462    1.2425 H   0  0  0  0  0  0  0  0  0  0  0  0
   -0.7389   -2.3509   -0.4568 H   0  0  0  0  0  0  0  0  0  0  0  0
   -1.7101   -1.5629    0.8798 H   0  0  0  0  0  0  0  0  0  0  0  0
    0.7579   -0.8997   -1.8517 H   0  0  0  0  0  0  0  0  0  0  0  0
    1.9372    1.5021   -1.6747 H   0  0  0  0  0  0  0  0  0  0  0  0
    2.4016    1.7090    1.0548 H   0  0  0  0  0  0  0  0  0  0  0  0
    1.4086   -0.6098    1.9584 H   0  0  0  0  0  0  0  0  0  0  0  0
  1  2  1  0
  2  3  1  0
  3  4  1  0
  3  5  1  0
  5  6  1  0
  6  7  2  0
  7  8  1  0
  8  9  1  0
  8  3  1  0
  9  5  1  0
  1 10  1  0
  1 11  1  0
  1 12  1  0
  2 13  1  0
  2 14  1  0
  4 15  1  0
  4 16  1  0
  4 17  1  0
  5 18  1  0
  6 19  1  0
  7 20  1  0
  8 21  1  0
M  END
