
     RDKit          3D

 22 22  0  0  0  0  0  0  0  0999 V2000
    2.9308   -0.2566   -0.3257 C   0  0  0  0  0  0  0  0  0  0  0  0
    1.8975   -0.0747    0.7586 C   0  0  0  0  0  0  0  0  0  0  0  0
    0.6051    0.5001    0.2147 C   0  0  0  0  0  0  0  0  0  0  0  0
   -0.0663   -0.3479   -0.8452 C   0  0  0  0  0  0  0  0  0  0  0  0
   -1.3076    0.0165   -0.0822 C   0  0  0  0  0  0  0  0  0  0  0  0
   -2.2684   -1.1301    0.0344 C   0  0  0  0  0  0  0  0  0  0  0  0
   -1.9375    1.3314   -0.4519 C   0  0  0  0  0  0  0  0  0  0  0  0
   -0.4902    0.2141    1.0551 O   0  0  0  0  0  0  0  0  0  0  0  0
    3.8504   -0.6448    0.1558 H   0  0  0  0  0  0  0  0  0  0  0  0
    3.1668    0.7437   -0.7557 H   0  0  0  0  0  0  0  0  0  0  0  0
    2.5924   -0.9467   -1.1260 H   0  0  0  0  0  0  0  0  0  0  0  0
    2.3029    0.6847    1.4627 H   0  0  0  0  0  0  0  0  0  0  0  0
    1.7405   -0.9983    1.3162 H   0  0  0  0  0  0  0  0  0  0  0  0
    0.6704    1.5390   -0.1071 H   0  0  0  0  0  0  0  0  0  0  0  0
    0.1634   -1.4283   -0.7413 H   0  0  0  0  0  0  0  0  0  0  0  0
    0.0203    0.0124   -1.8675 H   0  0  0  0  0  0  0  0  0  0  0  0
   -1.9600   -1.7592    0.8938 H   0  0  0  0  0  0  0  0  0  0  0  0
   -2.2062   -1.7463   -0.8781 H   0  0  0  0  0  0  0  0  0  0  0  0
   -3.2834   -0.6940    0.1799 H   0  0  0  0  0  0  0  0  0  0  0  0
   -2.2615    1.3641   -1.5135 H   0  0  0  0  0  0  0  0  0  0  0  0
   -2.8634    1.4337    0.1554 H   0  0  0  0  0  0  0  0  0  0  0  0
   -1.2960    2.1873   -0.1876 H   0  0  0  0  0  0  0  0  0  0  0  0
  1  2  1  0
  2  3  1  0
  3  4  1  0
  4  5  1  0
  5  6  1  0
  5  7  1  0
  5  8  1  0
  8  3  1  0
  1  9  1  0
  1 10  1  0
  1 11  1  0
  2 12  1  0
  2 13  1  0
  3 14  1  0
  4 15  1  0
  4 16  1  0
  6 17  1  0
  6 18  1  0
  6 19  1  0
  7 20  1  0
  7 21  1  0
  7 22  1  0
M  END
