
     RDKit          3D

 21 21  0  0  0  0  0  0  0  0999 V2000
    2.0610   -0.7191   -0.5311 C   0  0  0  0  0  0  0  0  0  0  0  0
    1.8158    0.5421    0.2422 C   0  0  0  0  0  0  0  0  0  0  0  0
    0.3428    0.8271    0.4316 C   0  0  0  0  0  0  0  0  0  0  0  0
   -0.3343    0.9751   -0.8875 C   0  0  0  0  0  0  0  0  0  0  0  0
   -1.4118    0.3332   -1.2528 C   0  0  0  0  0  0  0  0  0  0  0  0
   -2.1376   -0.6573   -0.3959 C   0  0  0  0  0  0  0  0  0  0  0  0
   -1.7902   -0.3102    1.0222 C   0  0  0  0  0  0  0  0  0  0  0  0
   -2.6474   -0.1473    1.8651 O   0  0  0  0  0  0  0  0  0  0  0  0
   -0.3291   -0.1823    1.3130 C   0  0  0  0  0  0  0  0  0  0  0  0
    1.4074   -0.8610   -1.3960 H   0  0  0  0  0  0  0  0  0  0  0  0
    2.0028   -1.6313    0.1172 H   0  0  0  0  0  0  0  0  0  0  0  0
    3.1057   -0.6876   -0.9113 H   0  0  0  0  0  0  0  0  0  0  0  0
    2.2979    0.4635    1.2294 H   0  0  0  0  0  0  0  0  0  0  0  0
    2.2260    1.3931   -0.3468 H   0  0  0  0  0  0  0  0  0  0  0  0
    0.2711    1.8083    0.9467 H   0  0  0  0  0  0  0  0  0  0  0  0
    0.1177    1.6741   -1.5835 H   0  0  0  0  0  0  0  0  0  0  0  0
   -1.8541    0.4970   -2.2473 H   0  0  0  0  0  0  0  0  0  0  0  0
   -1.7729   -1.6633   -0.6599 H   0  0  0  0  0  0  0  0  0  0  0  0
   -3.2305   -0.5770   -0.4955 H   0  0  0  0  0  0  0  0  0  0  0  0
   -0.2467    0.1116    2.3799 H   0  0  0  0  0  0  0  0  0  0  0  0
    0.1064   -1.1888    1.1601 H   0  0  0  0  0  0  0  0  0  0  0  0
  1  2  1  0
  2  3  1  0
  3  4  1  0
  4  5  2  0
  5  6  1  0
  6  7  1  0
  7  8  2  0
  7  9  1  0
  9  3  1  0
  1 10  1  0
  1 11  1  0
  1 12  1  0
  2 13  1  0
  2 14  1  0
  3 15  1  0
  4 16  1  0
  5 17  1  0
  6 18  1  0
  6 19  1  0
  9 20  1  0
  9 21  1  0
M  END
