
     RDKit          3D

 20 20  0  0  0  0  0  0  0  0999 V2000
   -2.1366    0.5481    1.4046 C   0  0  0  0  0  0  0  0  0  0  0  0
   -1.5357   -0.5157    0.4858 C   0  0  0  0  0  0  0  0  0  0  0  0
   -0.5883    0.1892   -0.4432 C   0  0  0  0  0  0  0  0  0  0  0  0
    0.1698   -0.6009   -1.4819 C   0  0  0  0  0  0  0  0  0  0  0  0
   -0.2936   -1.9119   -1.6219 O   0  0  0  0  0  0  0  0  0  0  0  0
    0.8895   -0.1886   -0.2591 C   0  0  0  0  0  0  0  0  0  0  0  0
    1.7601    0.8723   -0.2979 O   0  0  0  0  0  0  0  0  0  0  0  0
    2.7865    0.7959    0.6308 C   0  0  0  0  0  0  0  0  0  0  0  0
   -2.3459    1.4679    0.8451 H   0  0  0  0  0  0  0  0  0  0  0  0
   -3.1115    0.1669    1.7901 H   0  0  0  0  0  0  0  0  0  0  0  0
   -1.4421    0.7215    2.2746 H   0  0  0  0  0  0  0  0  0  0  0  0
   -2.3816   -1.0058   -0.0258 H   0  0  0  0  0  0  0  0  0  0  0  0
   -0.9946   -1.2179    1.1511 H   0  0  0  0  0  0  0  0  0  0  0  0
   -0.8048    1.2326   -0.7523 H   0  0  0  0  0  0  0  0  0  0  0  0
    0.4391   -0.1266   -2.4468 H   0  0  0  0  0  0  0  0  0  0  0  0
   -0.8520   -1.9235   -2.4461 H   0  0  0  0  0  0  0  0  0  0  0  0
    1.1284   -0.9595    0.5101 H   0  0  0  0  0  0  0  0  0  0  0  0
    3.4189   -0.1057    0.4982 H   0  0  0  0  0  0  0  0  0  0  0  0
    2.4472    0.8771    1.6758 H   0  0  0  0  0  0  0  0  0  0  0  0
    3.4473    1.6846    0.4403 H   0  0  0  0  0  0  0  0  0  0  0  0
  1  2  1  0
  2  3  1  0
  3  4  1  0
  4  5  1  0
  4  6  1  0
  6  7  1  0
  7  8  1  0
  6  3  1  0
  1  9  1  0
  1 10  1  0
  1 11  1  0
  2 12  1  0
  2 13  1  0
  3 14  1  0
  4 15  1  0
  5 16  1  0
  6 17  1  0
  8 18  1  0
  8 19  1  0
  8 20  1  0
M  END
