
     RDKit          3D

 17 18  0  0  0  0  0  0  0  0999 V2000
    2.3262    0.3703   -0.0780 C   0  0  0  0  0  0  0  0  0  0  0  0
    1.0374   -0.2421    0.4818 C   0  0  0  0  0  0  0  0  0  0  0  0
   -0.1073    0.1912   -0.3622 C   0  0  0  0  0  0  0  0  0  0  0  0
   -0.0686   -0.1595   -1.6961 O   0  0  0  0  0  0  0  0  0  0  0  0
   -1.0442   -0.8279   -0.9791 C   0  0  0  0  0  0  0  0  0  0  0  0
   -2.2173    0.0055   -0.6498 C   0  0  0  0  0  0  0  0  0  0  0  0
   -3.3725    0.0225   -0.9958 O   0  0  0  0  0  0  0  0  0  0  0  0
   -1.3146    0.7761    0.2743 C   0  0  0  0  0  0  0  0  0  0  0  0
   -1.4837    0.2774    1.5698 O   0  0  0  0  0  0  0  0  0  0  0  0
    2.9927    0.6119    0.7828 H   0  0  0  0  0  0  0  0  0  0  0  0
    2.0873    1.3048   -0.6516 H   0  0  0  0  0  0  0  0  0  0  0  0
    2.8560   -0.3691   -0.7117 H   0  0  0  0  0  0  0  0  0  0  0  0
    0.8748    0.0711    1.5253 H   0  0  0  0  0  0  0  0  0  0  0  0
    1.1666   -1.3456    0.4260 H   0  0  0  0  0  0  0  0  0  0  0  0
   -0.9250   -1.8389   -0.6244 H   0  0  0  0  0  0  0  0  0  0  0  0
   -1.4450    1.8714    0.1934 H   0  0  0  0  0  0  0  0  0  0  0  0
   -1.3628   -0.7191    1.4952 H   0  0  0  0  0  0  0  0  0  0  0  0
  1  2  1  0
  2  3  1  0
  3  4  1  0
  4  5  1  0
  5  6  1  0
  6  7  2  0
  6  8  1  0
  8  9  1  0
  5  3  1  0
  8  3  1  0
  1 10  1  0
  1 11  1  0
  1 12  1  0
  2 13  1  0
  2 14  1  0
  5 15  1  0
  8 16  1  0
  9 17  1  0
M  END
