
     RDKit          3D

 23 23  0  0  0  0  0  0  0  0999 V2000
   -2.2918   -0.5613   -1.0403 C   0  0  0  0  0  0  0  0  0  0  0  0
   -1.6753   -0.3247    0.2974 C   0  0  0  0  0  0  0  0  0  0  0  0
   -0.3114    0.2859    0.2533 C   0  0  0  0  0  0  0  0  0  0  0  0
   -0.2694    1.6469   -0.4291 C   0  0  0  0  0  0  0  0  0  0  0  0
    0.4797    0.1437    1.5333 C   0  0  0  0  0  0  0  0  0  0  0  0
    0.9221   -0.5380    0.2436 C   0  0  0  0  0  0  0  0  0  0  0  0
    0.7630   -1.9193    0.1529 O   0  0  0  0  0  0  0  0  0  0  0  0
    2.1860    0.0650   -0.3339 C   0  0  0  0  0  0  0  0  0  0  0  0
    2.3337   -0.1743   -1.6841 O   0  0  0  0  0  0  0  0  0  0  0  0
   -3.0885    0.1885   -1.3006 H   0  0  0  0  0  0  0  0  0  0  0  0
   -2.8209   -1.5553   -0.9858 H   0  0  0  0  0  0  0  0  0  0  0  0
   -1.5153   -0.5897   -1.8131 H   0  0  0  0  0  0  0  0  0  0  0  0
   -1.6176   -1.2382    0.9236 H   0  0  0  0  0  0  0  0  0  0  0  0
   -2.3429    0.3944    0.8518 H   0  0  0  0  0  0  0  0  0  0  0  0
   -1.2087    2.2056   -0.2170 H   0  0  0  0  0  0  0  0  0  0  0  0
   -0.2584    1.4428   -1.5341 H   0  0  0  0  0  0  0  0  0  0  0  0
    0.6004    2.2435   -0.1378 H   0  0  0  0  0  0  0  0  0  0  0  0
    1.0456    1.0027    1.9130 H   0  0  0  0  0  0  0  0  0  0  0  0
    0.1402   -0.5505    2.3167 H   0  0  0  0  0  0  0  0  0  0  0  0
    0.3801   -2.2020   -0.7044 H   0  0  0  0  0  0  0  0  0  0  0  0
    2.3036    1.1224   -0.0791 H   0  0  0  0  0  0  0  0  0  0  0  0
    3.0444   -0.4666    0.1733 H   0  0  0  0  0  0  0  0  0  0  0  0
    3.2013   -0.6214   -1.9150 H   0  0  0  0  0  0  0  0  0  0  0  0
  1  2  1  0
  2  3  1  0
  3  4  1  0
  3  5  1  0
  5  6  1  0
  6  7  1  0
  6  8  1  0
  8  9  1  0
  6  3  1  0
  1 10  1  0
  1 11  1  0
  1 12  1  0
  2 13  1  0
  2 14  1  0
  4 15  1  0
  4 16  1  0
  4 17  1  0
  5 18  1  0
  5 19  1  0
  7 20  1  0
  8 21  1  0
  8 22  1  0
  9 23  1  0
M  END
