
     RDKit          3D

 21 21  0  0  0  0  0  0  0  0999 V2000
    2.5374   -0.4038   -0.4604 C   0  0  0  0  0  0  0  0  0  0  0  0
    1.5863    0.6480    0.0449 C   0  0  0  0  0  0  0  0  0  0  0  0
    0.2607   -0.0039    0.4631 C   0  0  0  0  0  0  0  0  0  0  0  0
   -0.2837   -0.6753   -0.7789 C   0  0  0  0  0  0  0  0  0  0  0  0
   -1.6668   -1.1736   -0.5643 C   0  0  0  0  0  0  0  0  0  0  0  0
   -2.5389   -0.4162    0.0738 C   0  0  0  0  0  0  0  0  0  0  0  0
   -2.0736    0.8846    0.5336 C   0  0  0  0  0  0  0  0  0  0  0  0
   -2.8563    1.8729    0.4901 O   0  0  0  0  0  0  0  0  0  0  0  0
   -0.6821    0.9830    1.0380 C   0  0  0  0  0  0  0  0  0  0  0  0
    2.1884   -0.7649   -1.4414 H   0  0  0  0  0  0  0  0  0  0  0  0
    2.7273   -1.2114    0.2716 H   0  0  0  0  0  0  0  0  0  0  0  0
    3.5120    0.1114   -0.6545 H   0  0  0  0  0  0  0  0  0  0  0  0
    2.0100    1.2466    0.8517 H   0  0  0  0  0  0  0  0  0  0  0  0
    1.3385    1.3043   -0.8157 H   0  0  0  0  0  0  0  0  0  0  0  0
    0.4764   -0.8145    1.1953 H   0  0  0  0  0  0  0  0  0  0  0  0
   -0.2069    0.0083   -1.6477 H   0  0  0  0  0  0  0  0  0  0  0  0
    0.3534   -1.5565   -1.0284 H   0  0  0  0  0  0  0  0  0  0  0  0
   -1.9972   -2.1498   -0.9149 H   0  0  0  0  0  0  0  0  0  0  0  0
   -3.5693   -0.7369    0.2548 H   0  0  0  0  0  0  0  0  0  0  0  0
   -0.3603    2.0359    0.9365 H   0  0  0  0  0  0  0  0  0  0  0  0
   -0.7553    0.8119    2.1529 H   0  0  0  0  0  0  0  0  0  0  0  0
  1  2  1  0
  2  3  1  0
  3  4  1  0
  4  5  1  0
  5  6  2  0
  6  7  1  0
  7  8  2  0
  7  9  1  0
  9  3  1  0
  1 10  1  0
  1 11  1  0
  1 12  1  0
  2 13  1  0
  2 14  1  0
  3 15  1  0
  4 16  1  0
  4 17  1  0
  5 18  1  0
  6 19  1  0
  9 20  1  0
  9 21  1  0
M  END
