
     RDKit          3D

 25 25  0  0  0  0  0  0  0  0999 V2000
    2.1334   -1.3957   -0.1164 C   0  0  0  0  0  0  0  0  0  0  0  0
    1.3356   -0.3792   -0.9322 C   0  0  0  0  0  0  0  0  0  0  0  0
    0.8090    0.7441   -0.0965 C   0  0  0  0  0  0  0  0  0  0  0  0
   -0.1273    0.5220    1.0452 C   0  0  0  0  0  0  0  0  0  0  0  0
   -1.4287   -0.1059    0.7248 C   0  0  0  0  0  0  0  0  0  0  0  0
   -2.2440    0.7128   -0.2768 C   0  0  0  0  0  0  0  0  0  0  0  0
   -1.3720   -1.5529    0.3946 C   0  0  0  0  0  0  0  0  0  0  0  0
    1.0988    2.1260   -0.5658 C   0  0  0  0  0  0  0  0  0  0  0  0
    1.9277    1.5951    0.3901 O   0  0  0  0  0  0  0  0  0  0  0  0
    1.7863   -1.3700    0.9457 H   0  0  0  0  0  0  0  0  0  0  0  0
    2.0036   -2.3744   -0.5973 H   0  0  0  0  0  0  0  0  0  0  0  0
    3.1805   -1.0403   -0.1192 H   0  0  0  0  0  0  0  0  0  0  0  0
    2.0388    0.0720   -1.6941 H   0  0  0  0  0  0  0  0  0  0  0  0
    0.5806   -0.8997   -1.5166 H   0  0  0  0  0  0  0  0  0  0  0  0
    0.3427   -0.0971    1.8619 H   0  0  0  0  0  0  0  0  0  0  0  0
   -0.3281    1.5410    1.4902 H   0  0  0  0  0  0  0  0  0  0  0  0
   -2.0523   -0.0366    1.6761 H   0  0  0  0  0  0  0  0  0  0  0  0
   -1.9044    1.7510   -0.3447 H   0  0  0  0  0  0  0  0  0  0  0  0
   -3.3293    0.6755   -0.0433 H   0  0  0  0  0  0  0  0  0  0  0  0
   -2.1163    0.2133   -1.2807 H   0  0  0  0  0  0  0  0  0  0  0  0
   -0.4970   -2.0788    0.8101 H   0  0  0  0  0  0  0  0  0  0  0  0
   -2.2593   -2.1111    0.8307 H   0  0  0  0  0  0  0  0  0  0  0  0
   -1.5102   -1.6875   -0.7029 H   0  0  0  0  0  0  0  0  0  0  0  0
    0.4087    2.9589   -0.3095 H   0  0  0  0  0  0  0  0  0  0  0  0
    1.5232    2.2173   -1.5733 H   0  0  0  0  0  0  0  0  0  0  0  0
  1  2  1  0
  2  3  1  0
  3  4  1  0
  4  5  1  0
  5  6  1  0
  5  7  1  0
  3  8  1  0
  8  9  1  0
  9  3  1  0
  1 10  1  0
  1 11  1  0
  1 12  1  0
  2 13  1  0
  2 14  1  0
  4 15  1  0
  4 16  1  0
  5 17  1  0
  6 18  1  0
  6 19  1  0
  6 20  1  0
  7 21  1  0
  7 22  1  0
  7 23  1  0
  8 24  1  0
  8 25  1  0
M  END
