
     RDKit          3D

 21 22  0  0  0  0  0  0  0  0999 V2000
    2.1877   -0.0752   -0.5448 C   0  0  0  0  0  0  0  0  0  0  0  0
    1.1152   -0.5703    0.3747 C   0  0  0  0  0  0  0  0  0  0  0  0
   -0.2292    0.0157    0.1355 C   0  0  0  0  0  0  0  0  0  0  0  0
   -0.3851    1.4866    0.2573 C   0  0  0  0  0  0  0  0  0  0  0  0
   -0.0678    1.9838    1.5143 O   0  0  0  0  0  0  0  0  0  0  0  0
   -0.8967   -0.4886   -1.1460 C   0  0  0  0  0  0  0  0  0  0  0  0
   -1.8953   -1.2037   -0.2222 C   0  0  0  0  0  0  0  0  0  0  0  0
   -1.2870   -2.1764    0.5450 O   0  0  0  0  0  0  0  0  0  0  0  0
   -1.2999   -0.7342    0.8862 C   0  0  0  0  0  0  0  0  0  0  0  0
    1.7557    0.0270   -1.5665 H   0  0  0  0  0  0  0  0  0  0  0  0
    2.6758    0.8538   -0.1949 H   0  0  0  0  0  0  0  0  0  0  0  0
    2.9952   -0.8513   -0.5611 H   0  0  0  0  0  0  0  0  0  0  0  0
    1.4244   -0.4838    1.4317 H   0  0  0  0  0  0  0  0  0  0  0  0
    1.0262   -1.6819    0.1898 H   0  0  0  0  0  0  0  0  0  0  0  0
   -1.4549    1.7373    0.0791 H   0  0  0  0  0  0  0  0  0  0  0  0
    0.1739    2.0275   -0.5572 H   0  0  0  0  0  0  0  0  0  0  0  0
    0.1474    2.9424    1.4724 H   0  0  0  0  0  0  0  0  0  0  0  0
   -0.2224   -1.1568   -1.6836 H   0  0  0  0  0  0  0  0  0  0  0  0
   -1.3999    0.2953   -1.7380 H   0  0  0  0  0  0  0  0  0  0  0  0
   -2.9040   -1.3156   -0.6123 H   0  0  0  0  0  0  0  0  0  0  0  0
   -1.4591   -0.6315    1.9408 H   0  0  0  0  0  0  0  0  0  0  0  0
  1  2  1  0
  2  3  1  0
  3  4  1  0
  4  5  1  0
  3  6  1  0
  6  7  1  0
  7  8  1  0
  8  9  1  0
  9  3  1  0
  9  7  1  0
  1 10  1  0
  1 11  1  0
  1 12  1  0
  2 13  1  0
  2 14  1  0
  4 15  1  0
  4 16  1  0
  5 17  1  0
  6 18  1  0
  6 19  1  0
  7 20  1  0
  9 21  1  0
M  END
