
     RDKit          3D

 19 20  0  0  0  0  0  0  0  0999 V2000
   -1.9691   -0.8751   -0.0671 C   0  0  0  0  0  0  0  0  0  0  0  0
   -1.5793    0.5715    0.0524 C   0  0  0  0  0  0  0  0  0  0  0  0
   -0.1179    0.7574    0.3670 C   0  0  0  0  0  0  0  0  0  0  0  0
    0.2198    2.1285    0.4736 O   0  0  0  0  0  0  0  0  0  0  0  0
    0.7138   -0.1317    0.9828 C   0  0  0  0  0  0  0  0  0  0  0  0
    2.0617    0.0820    1.1553 O   0  0  0  0  0  0  0  0  0  0  0  0
    2.0529   -0.8348    0.0741 C   0  0  0  0  0  0  0  0  0  0  0  0
    0.8261   -0.1592   -0.4347 C   0  0  0  0  0  0  0  0  0  0  0  0
    1.0741    0.5141   -1.5407 O   0  0  0  0  0  0  0  0  0  0  0  0
   -2.5228   -1.2289    0.8480 H   0  0  0  0  0  0  0  0  0  0  0  0
   -2.7275   -0.9455   -0.8906 H   0  0  0  0  0  0  0  0  0  0  0  0
   -1.1260   -1.5432   -0.2984 H   0  0  0  0  0  0  0  0  0  0  0  0
   -1.8756    1.1430   -0.8729 H   0  0  0  0  0  0  0  0  0  0  0  0
   -2.1980    1.0101    0.8643 H   0  0  0  0  0  0  0  0  0  0  0  0
   -0.0187    2.5961   -0.3434 H   0  0  0  0  0  0  0  0  0  0  0  0
    0.3351   -1.0849    1.4559 H   0  0  0  0  0  0  0  0  0  0  0  0
    1.8748   -1.8494    0.5160 H   0  0  0  0  0  0  0  0  0  0  0  0
    2.9875   -0.7417   -0.4571 H   0  0  0  0  0  0  0  0  0  0  0  0
    1.9893    0.5918   -1.8844 H   0  0  0  0  0  0  0  0  0  0  0  0
  1  2  1  0
  2  3  1  0
  3  4  1  0
  3  5  1  0
  5  6  1  0
  6  7  1  0
  7  8  1  0
  8  9  1  0
  8  3  1  0
  8  5  1  0
  1 10  1  0
  1 11  1  0
  1 12  1  0
  2 13  1  0
  2 14  1  0
  4 15  1  0
  5 16  1  0
  7 17  1  0
  7 18  1  0
  9 19  1  0
M  END
