
     RDKit          3D

 21 22  0  0  0  0  0  0  0  0999 V2000
   -2.8858   -0.1465   -0.0593 C   0  0  0  0  0  0  0  0  0  0  0  0
   -1.8163    0.8311    0.2545 C   0  0  0  0  0  0  0  0  0  0  0  0
   -0.6535    0.7768   -0.7385 C   0  0  0  0  0  0  0  0  0  0  0  0
    0.3384    1.8015   -0.3066 O   0  0  0  0  0  0  0  0  0  0  0  0
    0.5938    0.4653   -0.3267 C   0  0  0  0  0  0  0  0  0  0  0  0
    0.9089   -0.3017    0.9319 C   0  0  0  0  0  0  0  0  0  0  0  0
    2.3201   -0.4660    0.4265 C   0  0  0  0  0  0  0  0  0  0  0  0
    2.8559   -1.7210    0.4796 O   0  0  0  0  0  0  0  0  0  0  0  0
    1.7818   -0.1308   -0.9717 C   0  0  0  0  0  0  0  0  0  0  0  0
   -2.5628   -1.0035   -0.6796 H   0  0  0  0  0  0  0  0  0  0  0  0
   -3.7470    0.4009   -0.5273 H   0  0  0  0  0  0  0  0  0  0  0  0
   -3.2798   -0.5711    0.8876 H   0  0  0  0  0  0  0  0  0  0  0  0
   -2.2404    1.8584    0.3017 H   0  0  0  0  0  0  0  0  0  0  0  0
   -1.4062    0.6255    1.2621 H   0  0  0  0  0  0  0  0  0  0  0  0
   -0.9479    0.9415   -1.8107 H   0  0  0  0  0  0  0  0  0  0  0  0
    0.3509   -1.2578    0.9947 H   0  0  0  0  0  0  0  0  0  0  0  0
    0.7780    0.2763    1.8463 H   0  0  0  0  0  0  0  0  0  0  0  0
    2.9471    0.3745    0.7898 H   0  0  0  0  0  0  0  0  0  0  0  0
    2.6926   -2.2146    1.3169 H   0  0  0  0  0  0  0  0  0  0  0  0
    2.4318    0.5299   -1.5620 H   0  0  0  0  0  0  0  0  0  0  0  0
    1.5406   -1.0688   -1.5171 H   0  0  0  0  0  0  0  0  0  0  0  0
  1  2  1  0
  2  3  1  0
  3  4  1  0
  4  5  1  0
  5  6  1  0
  6  7  1  0
  7  8  1  0
  7  9  1  0
  5  3  1  0
  9  5  1  0
  1 10  1  0
  1 11  1  0
  1 12  1  0
  2 13  1  0
  2 14  1  0
  3 15  1  0
  6 16  1  0
  6 17  1  0
  7 18  1  0
  8 19  1  0
  9 20  1  0
  9 21  1  0
M  END
