
     RDKit          3D

 21 22  0  0  0  0  0  0  0  0999 V2000
   -2.9217    0.3110   -0.1048 C   0  0  0  0  0  0  0  0  0  0  0  0
   -1.7533   -0.6472    0.0117 C   0  0  0  0  0  0  0  0  0  0  0  0
   -0.5003    0.0809    0.3996 C   0  0  0  0  0  0  0  0  0  0  0  0
   -0.0501    1.1621   -0.5729 C   0  0  0  0  0  0  0  0  0  0  0  0
    1.3307    0.7731   -0.1992 C   0  0  0  0  0  0  0  0  0  0  0  0
    2.6022    0.5948    0.1045 C   0  0  0  0  0  0  0  0  0  0  0  0
    2.8097   -0.8361    0.4703 C   0  0  0  0  0  0  0  0  0  0  0  0
    1.5257   -1.1889    0.9603 O   0  0  0  0  0  0  0  0  0  0  0  0
    0.7465   -0.6257   -0.0359 C   0  0  0  0  0  0  0  0  0  0  0  0
   -2.6273    1.3409    0.2078 H   0  0  0  0  0  0  0  0  0  0  0  0
   -3.2846    0.3636   -1.1463 H   0  0  0  0  0  0  0  0  0  0  0  0
   -3.7976   -0.0209    0.5084 H   0  0  0  0  0  0  0  0  0  0  0  0
   -1.9984   -1.3366    0.8466 H   0  0  0  0  0  0  0  0  0  0  0  0
   -1.6308   -1.2698   -0.8865 H   0  0  0  0  0  0  0  0  0  0  0  0
   -0.4859    0.4080    1.4312 H   0  0  0  0  0  0  0  0  0  0  0  0
   -0.2346    0.9276   -1.6283 H   0  0  0  0  0  0  0  0  0  0  0  0
   -0.3782    2.1568   -0.2639 H   0  0  0  0  0  0  0  0  0  0  0  0
    3.3878    1.3745    0.0913 H   0  0  0  0  0  0  0  0  0  0  0  0
    2.9556   -1.4728   -0.4250 H   0  0  0  0  0  0  0  0  0  0  0  0
    3.5802   -0.9731    1.2341 H   0  0  0  0  0  0  0  0  0  0  0  0
    0.7246   -1.1223   -1.0031 H   0  0  0  0  0  0  0  0  0  0  0  0
  1  2  1  0
  2  3  1  0
  3  4  1  0
  4  5  1  0
  5  6  2  0
  6  7  1  0
  7  8  1  0
  8  9  1  0
  9  3  1  0
  9  5  1  0
  1 10  1  0
  1 11  1  0
  1 12  1  0
  2 13  1  0
  2 14  1  0
  3 15  1  0
  4 16  1  0
  4 17  1  0
  6 18  1  0
  7 19  1  0
  7 20  1  0
  9 21  1  0
M  END
