
     RDKit          3D

 21 21  0  0  0  0  0  0  0  0999 V2000
    3.3461   -0.1245    0.0516 C   0  0  0  0  0  0  0  0  0  0  0  0
    2.0786    0.6992    0.1663 C   0  0  0  0  0  0  0  0  0  0  0  0
    0.9366    0.0746   -0.6331 C   0  0  0  0  0  0  0  0  0  0  0  0
    0.5604   -1.2187   -0.2626 O   0  0  0  0  0  0  0  0  0  0  0  0
   -0.3339   -0.0887    0.0946 C   0  0  0  0  0  0  0  0  0  0  0  0
   -1.6421   -0.2857   -0.6501 C   0  0  0  0  0  0  0  0  0  0  0  0
   -2.1519   -1.5259   -0.2100 O   0  0  0  0  0  0  0  0  0  0  0  0
   -2.6345    0.7642   -0.2967 C   0  0  0  0  0  0  0  0  0  0  0  0
   -3.8361    0.4640   -0.9392 O   0  0  0  0  0  0  0  0  0  0  0  0
    4.2410    0.5402   -0.0040 H   0  0  0  0  0  0  0  0  0  0  0  0
    3.4935   -0.7342    0.9879 H   0  0  0  0  0  0  0  0  0  0  0  0
    3.2968   -0.8504   -0.7781 H   0  0  0  0  0  0  0  0  0  0  0  0
    2.2620    1.7138   -0.2249 H   0  0  0  0  0  0  0  0  0  0  0  0
    1.8149    0.7525    1.2302 H   0  0  0  0  0  0  0  0  0  0  0  0
    0.8433    0.3653   -1.7028 H   0  0  0  0  0  0  0  0  0  0  0  0
   -0.4111   -0.0675    1.1940 H   0  0  0  0  0  0  0  0  0  0  0  0
   -1.4878   -0.3683   -1.7255 H   0  0  0  0  0  0  0  0  0  0  0  0
   -1.4033   -2.1671   -0.2924 H   0  0  0  0  0  0  0  0  0  0  0  0
   -2.8088    0.7945    0.7959 H   0  0  0  0  0  0  0  0  0  0  0  0
   -2.2708    1.7814   -0.5740 H   0  0  0  0  0  0  0  0  0  0  0  0
   -3.8928   -0.5188   -1.1360 H   0  0  0  0  0  0  0  0  0  0  0  0
  1  2  1  0
  2  3  1  0
  3  4  1  0
  4  5  1  0
  5  6  1  0
  6  7  1  0
  6  8  1  0
  8  9  1  0
  5  3  1  0
  1 10  1  0
  1 11  1  0
  1 12  1  0
  2 13  1  0
  2 14  1  0
  3 15  1  0
  5 16  1  0
  6 17  1  0
  7 18  1  0
  8 19  1  0
  8 20  1  0
  9 21  1  0
M  END
