
     RDKit          3D

 21 22  0  0  0  0  0  0  0  0999 V2000
   -2.6764    0.4822    0.5760 C   0  0  0  0  0  0  0  0  0  0  0  0
   -1.7521   -0.6311    0.2222 C   0  0  0  0  0  0  0  0  0  0  0  0
   -0.2996   -0.2935    0.3492 C   0  0  0  0  0  0  0  0  0  0  0  0
    0.6276   -1.4112   -0.0060 C   0  0  0  0  0  0  0  0  0  0  0  0
    1.8434   -1.2338    0.5946 O   0  0  0  0  0  0  0  0  0  0  0  0
    2.4654   -0.1433   -0.0449 C   0  0  0  0  0  0  0  0  0  0  0  0
    1.7020    1.1245    0.1119 C   0  0  0  0  0  0  0  0  0  0  0  0
    0.2454    0.9728    0.3442 C   0  0  0  0  0  0  0  0  0  0  0  0
   -0.0335    0.3765    1.6144 O   0  0  0  0  0  0  0  0  0  0  0  0
   -3.6927    0.2103    0.1690 H   0  0  0  0  0  0  0  0  0  0  0  0
   -2.3485    1.4111    0.0865 H   0  0  0  0  0  0  0  0  0  0  0  0
   -2.8342    0.5968    1.6717 H   0  0  0  0  0  0  0  0  0  0  0  0
   -1.9545   -1.5015    0.9097 H   0  0  0  0  0  0  0  0  0  0  0  0
   -1.9710   -1.0139   -0.7974 H   0  0  0  0  0  0  0  0  0  0  0  0
    0.1686   -2.4012    0.1983 H   0  0  0  0  0  0  0  0  0  0  0  0
    0.7902   -1.3738   -1.1156 H   0  0  0  0  0  0  0  0  0  0  0  0
    2.5009   -0.3892   -1.1365 H   0  0  0  0  0  0  0  0  0  0  0  0
    3.4910   -0.1033    0.3688 H   0  0  0  0  0  0  0  0  0  0  0  0
    1.9580    1.7864   -0.7433 H   0  0  0  0  0  0  0  0  0  0  0  0
    2.1315    1.6531    1.0141 H   0  0  0  0  0  0  0  0  0  0  0  0
   -0.3617    1.8821    0.1022 H   0  0  0  0  0  0  0  0  0  0  0  0
  1  2  1  0
  2  3  1  0
  3  4  1  0
  4  5  1  0
  5  6  1  0
  6  7  1  0
  7  8  1  0
  8  9  1  0
  8  3  1  0
  9  3  1  0
  1 10  1  0
  1 11  1  0
  1 12  1  0
  2 13  1  0
  2 14  1  0
  4 15  1  0
  4 16  1  0
  6 17  1  0
  6 18  1  0
  7 19  1  0
  7 20  1  0
  8 21  1  0
M  END
