
     RDKit          3D

 23 24  0  0  0  0  0  0  0  0999 V2000
    2.8446    0.3148    0.7796 C   0  0  0  0  0  0  0  0  0  0  0  0
    1.8091   -0.6990    0.4066 C   0  0  0  0  0  0  0  0  0  0  0  0
    0.7471   -0.1112   -0.5245 C   0  0  0  0  0  0  0  0  0  0  0  0
    1.3658    0.3504   -1.7114 O   0  0  0  0  0  0  0  0  0  0  0  0
   -0.4887   -0.7526   -0.6756 C   0  0  0  0  0  0  0  0  0  0  0  0
   -1.8153   -0.3681   -1.2077 C   0  0  0  0  0  0  0  0  0  0  0  0
   -2.4999   -0.0411    0.1391 C   0  0  0  0  0  0  0  0  0  0  0  0
   -1.3351    0.3655    1.0669 C   0  0  0  0  0  0  0  0  0  0  0  0
   -0.2851    0.6352    0.0615 C   0  0  0  0  0  0  0  0  0  0  0  0
    3.0918    0.1496    1.8682 H   0  0  0  0  0  0  0  0  0  0  0  0
    2.5392    1.3589    0.6231 H   0  0  0  0  0  0  0  0  0  0  0  0
    3.8045    0.1344    0.2371 H   0  0  0  0  0  0  0  0  0  0  0  0
    1.3368   -1.1970    1.2883 H   0  0  0  0  0  0  0  0  0  0  0  0
    2.3005   -1.5122   -0.1910 H   0  0  0  0  0  0  0  0  0  0  0  0
    0.7817    1.0707   -2.0872 H   0  0  0  0  0  0  0  0  0  0  0  0
   -0.6421   -1.6407    0.0165 H   0  0  0  0  0  0  0  0  0  0  0  0
   -2.3568   -1.1708   -1.7349 H   0  0  0  0  0  0  0  0  0  0  0  0
   -1.7274    0.5281   -1.8223 H   0  0  0  0  0  0  0  0  0  0  0  0
   -3.2166    0.7740    0.0229 H   0  0  0  0  0  0  0  0  0  0  0  0
   -2.9325   -0.9712    0.5620 H   0  0  0  0  0  0  0  0  0  0  0  0
   -1.0883   -0.4236    1.7748 H   0  0  0  0  0  0  0  0  0  0  0  0
   -1.6304    1.2656    1.6431 H   0  0  0  0  0  0  0  0  0  0  0  0
   -0.6028    1.5480   -0.5353 H   0  0  0  0  0  0  0  0  0  0  0  0
  1  2  1  0
  2  3  1  0
  3  4  1  0
  3  5  1  0
  5  6  1  0
  6  7  1  0
  7  8  1  0
  8  9  1  0
  9  3  1  0
  9  5  1  0
  1 10  1  0
  1 11  1  0
  1 12  1  0
  2 13  1  0
  2 14  1  0
  4 15  1  0
  5 16  1  0
  6 17  1  0
  6 18  1  0
  7 19  1  0
  7 20  1  0
  8 21  1  0
  8 22  1  0
  9 23  1  0
M  END
