
     RDKit          3D

 23 24  0  0  0  0  0  0  0  0999 V2000
    3.1960   -0.0776    0.0186 C   0  0  0  0  0  0  0  0  0  0  0  0
    2.0520   -1.0380   -0.2603 C   0  0  0  0  0  0  0  0  0  0  0  0
    0.7427   -0.3638   -0.0312 C   0  0  0  0  0  0  0  0  0  0  0  0
    0.5980    0.8966    0.3610 C   0  0  0  0  0  0  0  0  0  0  0  0
   -0.8340    1.2581    0.4953 C   0  0  0  0  0  0  0  0  0  0  0  0
   -1.6681    0.4852    1.5013 C   0  0  0  0  0  0  0  0  0  0  0  0
   -1.5587    0.0522    0.0887 C   0  0  0  0  0  0  0  0  0  0  0  0
   -2.7207    0.2335   -0.8587 C   0  0  0  0  0  0  0  0  0  0  0  0
   -0.5707   -1.0347   -0.2181 C   0  0  0  0  0  0  0  0  0  0  0  0
    3.2733    0.1391    1.1036 H   0  0  0  0  0  0  0  0  0  0  0  0
    3.0384    0.9090   -0.4893 H   0  0  0  0  0  0  0  0  0  0  0  0
    4.1564   -0.4537   -0.3265 H   0  0  0  0  0  0  0  0  0  0  0  0
    2.1344   -1.8492    0.4922 H   0  0  0  0  0  0  0  0  0  0  0  0
    2.1522   -1.4437   -1.2818 H   0  0  0  0  0  0  0  0  0  0  0  0
    1.4258    1.5835    0.5606 H   0  0  0  0  0  0  0  0  0  0  0  0
   -1.1465    2.2834    0.2399 H   0  0  0  0  0  0  0  0  0  0  0  0
   -1.1447   -0.1052    2.2810 H   0  0  0  0  0  0  0  0  0  0  0  0
   -2.5861    0.9890    1.8599 H   0  0  0  0  0  0  0  0  0  0  0  0
   -2.9663   -0.7638   -1.3151 H   0  0  0  0  0  0  0  0  0  0  0  0
   -2.5035    0.9643   -1.6507 H   0  0  0  0  0  0  0  0  0  0  0  0
   -3.6356    0.5581   -0.2967 H   0  0  0  0  0  0  0  0  0  0  0  0
   -0.7160   -1.8952    0.4564 H   0  0  0  0  0  0  0  0  0  0  0  0
   -0.7184   -1.3271   -1.2961 H   0  0  0  0  0  0  0  0  0  0  0  0
  1  2  1  0
  2  3  1  0
  3  4  2  0
  4  5  1  0
  5  6  1  0
  6  7  1  0
  7  8  1  0
  7  9  1  0
  9  3  1  0
  7  5  1  0
  1 10  1  0
  1 11  1  0
  1 12  1  0
  2 13  1  0
  2 14  1  0
  4 15  1  0
  5 16  1  0
  6 17  1  0
  6 18  1  0
  8 19  1  0
  8 20  1  0
  8 21  1  0
  9 22  1  0
  9 23  1  0
M  END
