
     RDKit          3D

 21 22  0  0  0  0  0  0  0  0999 V2000
    2.8208    0.2638   -0.2661 C   0  0  0  0  0  0  0  0  0  0  0  0
    1.8744   -0.4367    0.6826 C   0  0  0  0  0  0  0  0  0  0  0  0
    0.4672    0.0898    0.5375 C   0  0  0  0  0  0  0  0  0  0  0  0
   -0.4673   -0.4976    1.3707 O   0  0  0  0  0  0  0  0  0  0  0  0
   -1.3726   -0.4575    0.3460 C   0  0  0  0  0  0  0  0  0  0  0  0
   -2.4792    0.5663    0.3331 C   0  0  0  0  0  0  0  0  0  0  0  0
   -1.9942    1.8706    0.3312 O   0  0  0  0  0  0  0  0  0  0  0  0
   -1.2153   -1.4185   -0.7546 C   0  0  0  0  0  0  0  0  0  0  0  0
   -0.2597   -0.2899   -0.6992 C   0  0  0  0  0  0  0  0  0  0  0  0
    3.6185   -0.4482   -0.5521 H   0  0  0  0  0  0  0  0  0  0  0  0
    2.2102    0.5693   -1.1567 H   0  0  0  0  0  0  0  0  0  0  0  0
    3.2584    1.1525    0.2084 H   0  0  0  0  0  0  0  0  0  0  0  0
    1.9566   -1.5220    0.5691 H   0  0  0  0  0  0  0  0  0  0  0  0
    2.2226   -0.1788    1.7147 H   0  0  0  0  0  0  0  0  0  0  0  0
    0.4719    1.1928    0.7104 H   0  0  0  0  0  0  0  0  0  0  0  0
   -3.1177    0.3861   -0.5560 H   0  0  0  0  0  0  0  0  0  0  0  0
   -3.0558    0.4401    1.2827 H   0  0  0  0  0  0  0  0  0  0  0  0
   -1.6452    2.0910   -0.5684 H   0  0  0  0  0  0  0  0  0  0  0  0
   -0.8728   -2.4732   -0.5656 H   0  0  0  0  0  0  0  0  0  0  0  0
   -2.0374   -1.3971   -1.5062 H   0  0  0  0  0  0  0  0  0  0  0  0
   -0.3835    0.4973   -1.4617 H   0  0  0  0  0  0  0  0  0  0  0  0
  1  2  1  0
  2  3  1  0
  3  4  1  0
  4  5  1  0
  5  6  1  0
  6  7  1  0
  5  8  1  0
  8  9  1  0
  9  3  1  0
  9  5  1  0
  1 10  1  0
  1 11  1  0
  1 12  1  0
  2 13  1  0
  2 14  1  0
  3 15  1  0
  6 16  1  0
  6 17  1  0
  7 18  1  0
  8 19  1  0
  8 20  1  0
  9 21  1  0
M  END
