
     RDKit          3D

 23 24  0  0  0  0  0  0  0  0999 V2000
    3.0718   -0.0992    0.3657 C   0  0  0  0  0  0  0  0  0  0  0  0
    1.9196   -1.0774    0.3432 C   0  0  0  0  0  0  0  0  0  0  0  0
    0.6235   -0.3512    0.3017 C   0  0  0  0  0  0  0  0  0  0  0  0
    0.5337    0.9601    0.2871 C   0  0  0  0  0  0  0  0  0  0  0  0
   -0.7784    1.6101    0.2460 C   0  0  0  0  0  0  0  0  0  0  0  0
   -1.8174    0.8948   -0.5587 C   0  0  0  0  0  0  0  0  0  0  0  0
   -2.8559    0.0580    0.0702 C   0  0  0  0  0  0  0  0  0  0  0  0
   -1.6625   -0.5635   -0.6419 C   0  0  0  0  0  0  0  0  0  0  0  0
   -0.6277   -1.1443    0.2751 C   0  0  0  0  0  0  0  0  0  0  0  0
    4.0416   -0.6017    0.5141 H   0  0  0  0  0  0  0  0  0  0  0  0
    3.1464    0.4509   -0.5942 H   0  0  0  0  0  0  0  0  0  0  0  0
    2.9524    0.6005    1.2204 H   0  0  0  0  0  0  0  0  0  0  0  0
    2.0034   -1.6222   -0.6417 H   0  0  0  0  0  0  0  0  0  0  0  0
    1.9794   -1.8343    1.1246 H   0  0  0  0  0  0  0  0  0  0  0  0
    1.4183    1.5821    0.3060 H   0  0  0  0  0  0  0  0  0  0  0  0
   -1.1879    1.7715    1.2904 H   0  0  0  0  0  0  0  0  0  0  0  0
   -0.6540    2.6358   -0.1573 H   0  0  0  0  0  0  0  0  0  0  0  0
   -2.1007    1.4032   -1.4983 H   0  0  0  0  0  0  0  0  0  0  0  0
   -2.9503   -0.0620    1.1538 H   0  0  0  0  0  0  0  0  0  0  0  0
   -3.8215   -0.0865   -0.4690 H   0  0  0  0  0  0  0  0  0  0  0  0
   -1.8214   -1.1087   -1.5892 H   0  0  0  0  0  0  0  0  0  0  0  0
   -0.3968   -2.2018   -0.0171 H   0  0  0  0  0  0  0  0  0  0  0  0
   -1.0155   -1.2142    1.3120 H   0  0  0  0  0  0  0  0  0  0  0  0
  1  2  1  0
  2  3  1  0
  3  4  2  0
  4  5  1  0
  5  6  1  0
  6  7  1  0
  7  8  1  0
  8  9  1  0
  9  3  1  0
  8  6  1  0
  1 10  1  0
  1 11  1  0
  1 12  1  0
  2 13  1  0
  2 14  1  0
  4 15  1  0
  5 16  1  0
  5 17  1  0
  6 18  1  0
  7 19  1  0
  7 20  1  0
  8 21  1  0
  9 22  1  0
  9 23  1  0
M  END
