
     RDKit          3D

 23 23  0  0  0  0  0  0  0  0999 V2000
   -2.7237   -0.2687   -0.1529 C   0  0  0  0  0  0  0  0  0  0  0  0
   -1.6412    0.7861   -0.4148 C   0  0  0  0  0  0  0  0  0  0  0  0
   -0.3592    0.3071    0.2303 C   0  0  0  0  0  0  0  0  0  0  0  0
   -0.0033   -1.0179   -0.4107 C   0  0  0  0  0  0  0  0  0  0  0  0
    1.2105   -1.5343    0.3495 C   0  0  0  0  0  0  0  0  0  0  0  0
    2.2938   -0.5700    0.0822 C   0  0  0  0  0  0  0  0  0  0  0  0
    3.3418   -0.9503   -0.3715 O   0  0  0  0  0  0  0  0  0  0  0  0
    2.0876    0.8564    0.3723 C   0  0  0  0  0  0  0  0  0  0  0  0
    0.6994    1.3413    0.0945 C   0  0  0  0  0  0  0  0  0  0  0  0
   -2.7007   -1.0594   -0.9375 H   0  0  0  0  0  0  0  0  0  0  0  0
   -2.6024   -0.6872    0.8690 H   0  0  0  0  0  0  0  0  0  0  0  0
   -3.7307    0.2002   -0.2285 H   0  0  0  0  0  0  0  0  0  0  0  0
   -1.5338    0.8394   -1.5164 H   0  0  0  0  0  0  0  0  0  0  0  0
   -1.9556    1.7861   -0.0625 H   0  0  0  0  0  0  0  0  0  0  0  0
   -0.5244    0.1006    1.3063 H   0  0  0  0  0  0  0  0  0  0  0  0
    0.2641   -0.8707   -1.4828 H   0  0  0  0  0  0  0  0  0  0  0  0
   -0.8638   -1.6981   -0.2787 H   0  0  0  0  0  0  0  0  0  0  0  0
    0.9389   -1.5039    1.4248 H   0  0  0  0  0  0  0  0  0  0  0  0
    1.4640   -2.5557    0.0023 H   0  0  0  0  0  0  0  0  0  0  0  0
    2.3798    1.0143    1.4471 H   0  0  0  0  0  0  0  0  0  0  0  0
    2.8001    1.5209   -0.1977 H   0  0  0  0  0  0  0  0  0  0  0  0
    0.4734    2.1645    0.8037 H   0  0  0  0  0  0  0  0  0  0  0  0
    0.6855    1.7993   -0.9280 H   0  0  0  0  0  0  0  0  0  0  0  0
  1  2  1  0
  2  3  1  0
  3  4  1  0
  4  5  1  0
  5  6  1  0
  6  7  2  0
  6  8  1  0
  8  9  1  0
  9  3  1  0
  1 10  1  0
  1 11  1  0
  1 12  1  0
  2 13  1  0
  2 14  1  0
  3 15  1  0
  4 16  1  0
  4 17  1  0
  5 18  1  0
  5 19  1  0
  8 20  1  0
  8 21  1  0
  9 22  1  0
  9 23  1  0
M  END
