
     RDKit          3D

 21 22  0  0  0  0  0  0  0  0999 V2000
    2.4740    0.5835   -0.2599 C   0  0  0  0  0  0  0  0  0  0  0  0
    1.5416   -0.3435    0.4643 C   0  0  0  0  0  0  0  0  0  0  0  0
    0.2633   -0.6048   -0.2877 C   0  0  0  0  0  0  0  0  0  0  0  0
   -0.6288   -1.5283    0.4681 C   0  0  0  0  0  0  0  0  0  0  0  0
   -0.7118   -0.5360    1.4407 O   0  0  0  0  0  0  0  0  0  0  0  0
   -0.8751    0.2080    0.2549 C   0  0  0  0  0  0  0  0  0  0  0  0
   -1.0473    1.5647    0.1740 C   0  0  0  0  0  0  0  0  0  0  0  0
   -1.8029   -0.8775   -0.1841 C   0  0  0  0  0  0  0  0  0  0  0  0
   -1.9461   -1.0719   -1.5363 O   0  0  0  0  0  0  0  0  0  0  0  0
    2.2131    1.6439   -0.0939 H   0  0  0  0  0  0  0  0  0  0  0  0
    3.4861    0.4532    0.2245 H   0  0  0  0  0  0  0  0  0  0  0  0
    2.6185    0.3227   -1.3261 H   0  0  0  0  0  0  0  0  0  0  0  0
    1.3310    0.1105    1.4552 H   0  0  0  0  0  0  0  0  0  0  0  0
    2.0642   -1.3103    0.6417 H   0  0  0  0  0  0  0  0  0  0  0  0
    0.3431   -0.7158   -1.3646 H   0  0  0  0  0  0  0  0  0  0  0  0
   -0.4923   -2.5151    0.6387 H   0  0  0  0  0  0  0  0  0  0  0  0
   -1.3500    2.0699    1.1388 H   0  0  0  0  0  0  0  0  0  0  0  0
   -1.8406    1.9059   -0.5559 H   0  0  0  0  0  0  0  0  0  0  0  0
   -0.1330    2.1470   -0.1470 H   0  0  0  0  0  0  0  0  0  0  0  0
   -2.7405   -0.8901    0.4224 H   0  0  0  0  0  0  0  0  0  0  0  0
   -2.7665   -0.6159   -1.8334 H   0  0  0  0  0  0  0  0  0  0  0  0
  1  2  1  0
  2  3  1  0
  3  4  1  0
  4  5  1  0
  5  6  1  0
  6  7  1  0
  6  8  1  0
  8  9  1  0
  6  3  1  0
  8  4  1  0
  1 10  1  0
  1 11  1  0
  1 12  1  0
  2 13  1  0
  2 14  1  0
  3 15  1  0
  4 16  1  0
  7 17  1  0
  7 18  1  0
  7 19  1  0
  8 20  1  0
  9 21  1  0
M  END
