
     RDKit          3D

 18 19  0  0  0  0  0  0  0  0999 V2000
    2.3910    0.5421    0.4349 C   0  0  0  0  0  0  0  0  0  0  0  0
    1.0630   -0.0941    0.8667 C   0  0  0  0  0  0  0  0  0  0  0  0
    0.2369   -0.2355   -0.3859 C   0  0  0  0  0  0  0  0  0  0  0  0
    0.0330    1.0262   -0.9463 O   0  0  0  0  0  0  0  0  0  0  0  0
   -1.2870    0.6890   -1.2317 C   0  0  0  0  0  0  0  0  0  0  0  0
   -1.2168   -0.3947   -0.2273 C   0  0  0  0  0  0  0  0  0  0  0  0
   -2.0111   -0.7146    0.8281 C   0  0  0  0  0  0  0  0  0  0  0  0
   -1.8733   -1.5893   -0.3659 O   0  0  0  0  0  0  0  0  0  0  0  0
    2.8430   -0.1600   -0.3067 H   0  0  0  0  0  0  0  0  0  0  0  0
    3.0727    0.6751    1.2841 H   0  0  0  0  0  0  0  0  0  0  0  0
    2.2208    1.4885   -0.1169 H   0  0  0  0  0  0  0  0  0  0  0  0
    0.6050    0.6269    1.5671 H   0  0  0  0  0  0  0  0  0  0  0  0
    1.3017   -1.0657    1.2938 H   0  0  0  0  0  0  0  0  0  0  0  0
    0.7444   -0.9475   -1.0920 H   0  0  0  0  0  0  0  0  0  0  0  0
   -1.3197    0.2915   -2.2867 H   0  0  0  0  0  0  0  0  0  0  0  0
   -2.0247    1.4959   -1.0520 H   0  0  0  0  0  0  0  0  0  0  0  0
   -3.0791   -0.3568    0.9109 H   0  0  0  0  0  0  0  0  0  0  0  0
   -1.6997   -1.2770    1.7102 H   0  0  0  0  0  0  0  0  0  0  0  0
  1  2  1  0
  2  3  1  0
  3  4  1  0
  4  5  1  0
  5  6  1  0
  6  7  1  0
  7  8  1  0
  6  3  1  0
  8  6  1  0
  1  9  1  0
  1 10  1  0
  1 11  1  0
  2 12  1  0
  2 13  1  0
  3 14  1  0
  5 15  1  0
  5 16  1  0
  7 17  1  0
  7 18  1  0
M  END
