
     RDKit          3D

 19 20  0  0  0  0  0  0  0  0999 V2000
    2.5127   -0.3908    0.3806 C   0  0  0  0  0  0  0  0  0  0  0  0
    1.4270    0.0907   -0.5164 C   0  0  0  0  0  0  0  0  0  0  0  0
    0.1718    0.5149    0.2672 C   0  0  0  0  0  0  0  0  0  0  0  0
    0.5091    1.5658    1.1591 O   0  0  0  0  0  0  0  0  0  0  0  0
   -0.7662   -0.4386    0.7528 C   0  0  0  0  0  0  0  0  0  0  0  0
   -2.2984   -0.3677    0.7033 C   0  0  0  0  0  0  0  0  0  0  0  0
   -1.9849   -0.5838   -0.7663 C   0  0  0  0  0  0  0  0  0  0  0  0
   -2.3728   -1.3196   -1.6216 O   0  0  0  0  0  0  0  0  0  0  0  0
   -1.0420    0.5358   -0.4707 C   0  0  0  0  0  0  0  0  0  0  0  0
    3.0282   -1.2678   -0.0569 H   0  0  0  0  0  0  0  0  0  0  0  0
    3.2266    0.4236    0.6247 H   0  0  0  0  0  0  0  0  0  0  0  0
    2.0591   -0.7187    1.3363 H   0  0  0  0  0  0  0  0  0  0  0  0
    1.7782    0.9367   -1.1312 H   0  0  0  0  0  0  0  0  0  0  0  0
    1.1366   -0.7413   -1.2071 H   0  0  0  0  0  0  0  0  0  0  0  0
    0.2310    2.4079    0.6810 H   0  0  0  0  0  0  0  0  0  0  0  0
   -0.5058   -1.5003    0.4333 H   0  0  0  0  0  0  0  0  0  0  0  0
   -2.7688   -1.2086    1.2005 H   0  0  0  0  0  0  0  0  0  0  0  0
   -2.6354    0.6401    0.9509 H   0  0  0  0  0  0  0  0  0  0  0  0
   -1.7061    1.4217   -0.2051 H   0  0  0  0  0  0  0  0  0  0  0  0
  1  2  1  0
  2  3  1  0
  3  4  1  0
  3  5  1  0
  5  6  1  0
  6  7  1  0
  7  8  2  0
  7  9  1  0
  9  3  1  0
  9  5  1  0
  1 10  1  0
  1 11  1  0
  1 12  1  0
  2 13  1  0
  2 14  1  0
  4 15  1  0
  5 16  1  0
  6 17  1  0
  6 18  1  0
  9 19  1  0
M  END
