
     RDKit          3D

 25 25  0  0  0  0  0  0  0  0999 V2000
    2.7860   -0.0860   -0.8842 C   0  0  0  0  0  0  0  0  0  0  0  0
    1.3538   -0.4903   -0.9296 C   0  0  0  0  0  0  0  0  0  0  0  0
    0.4995    0.1811    0.1154 C   0  0  0  0  0  0  0  0  0  0  0  0
   -0.9649   -0.1317    0.1870 C   0  0  0  0  0  0  0  0  0  0  0  0
   -1.5977    0.6663    1.3141 C   0  0  0  0  0  0  0  0  0  0  0  0
   -1.6925    0.3244   -1.0874 C   0  0  0  0  0  0  0  0  0  0  0  0
   -1.2890   -1.5639    0.3871 C   0  0  0  0  0  0  0  0  0  0  0  0
    1.0458    1.0775    1.1298 C   0  0  0  0  0  0  0  0  0  0  0  0
    0.6362    1.6542   -0.0658 O   0  0  0  0  0  0  0  0  0  0  0  0
    2.9823    0.9227   -0.5155 H   0  0  0  0  0  0  0  0  0  0  0  0
    3.2664   -0.1364   -1.9062 H   0  0  0  0  0  0  0  0  0  0  0  0
    3.4022   -0.7912   -0.2587 H   0  0  0  0  0  0  0  0  0  0  0  0
    1.3015   -1.5939   -0.8316 H   0  0  0  0  0  0  0  0  0  0  0  0
    0.9757   -0.2737   -1.9670 H   0  0  0  0  0  0  0  0  0  0  0  0
   -1.3627    1.7408    1.2237 H   0  0  0  0  0  0  0  0  0  0  0  0
   -1.3468    0.2471    2.3059 H   0  0  0  0  0  0  0  0  0  0  0  0
   -2.7072    0.5932    1.1581 H   0  0  0  0  0  0  0  0  0  0  0  0
   -1.3915   -0.3972   -1.8776 H   0  0  0  0  0  0  0  0  0  0  0  0
   -2.7708    0.1539   -0.8777 H   0  0  0  0  0  0  0  0  0  0  0  0
   -1.4692    1.3688   -1.3315 H   0  0  0  0  0  0  0  0  0  0  0  0
   -0.4610   -2.1779    0.7891 H   0  0  0  0  0  0  0  0  0  0  0  0
   -1.6424   -2.0385   -0.5640 H   0  0  0  0  0  0  0  0  0  0  0  0
   -2.1327   -1.6865    1.1165 H   0  0  0  0  0  0  0  0  0  0  0  0
    0.4461    1.2312    2.0531 H   0  0  0  0  0  0  0  0  0  0  0  0
    2.1329    1.2059    1.3168 H   0  0  0  0  0  0  0  0  0  0  0  0
  1  2  1  0
  2  3  1  0
  3  4  1  0
  4  5  1  0
  4  6  1  0
  4  7  1  0
  3  8  1  0
  8  9  1  0
  9  3  1  0
  1 10  1  0
  1 11  1  0
  1 12  1  0
  2 13  1  0
  2 14  1  0
  5 15  1  0
  5 16  1  0
  5 17  1  0
  6 18  1  0
  6 19  1  0
  6 20  1  0
  7 21  1  0
  7 22  1  0
  7 23  1  0
  8 24  1  0
  8 25  1  0
M  END
