
     RDKit          3D

 21 22  0  0  0  0  0  0  0  0999 V2000
    2.6527   -0.0449   -0.0211 C   0  0  0  0  0  0  0  0  0  0  0  0
    1.7562    0.7920    0.8522 C   0  0  0  0  0  0  0  0  0  0  0  0
    0.3121    0.3648    0.7636 C   0  0  0  0  0  0  0  0  0  0  0  0
   -0.3803    0.4050   -0.5227 C   0  0  0  0  0  0  0  0  0  0  0  0
   -1.8618    0.6256   -0.5315 C   0  0  0  0  0  0  0  0  0  0  0  0
   -2.3957   -0.3484    0.4938 C   0  0  0  0  0  0  0  0  0  0  0  0
   -1.4258   -1.4462    0.4644 C   0  0  0  0  0  0  0  0  0  0  0  0
   -1.6825   -2.6151    0.6868 O   0  0  0  0  0  0  0  0  0  0  0  0
   -0.0926   -0.8964    0.1211 C   0  0  0  0  0  0  0  0  0  0  0  0
    2.4688    0.0856   -1.0966 H   0  0  0  0  0  0  0  0  0  0  0  0
    3.6977    0.3175    0.1610 H   0  0  0  0  0  0  0  0  0  0  0  0
    2.6550   -1.1129    0.2745 H   0  0  0  0  0  0  0  0  0  0  0  0
    1.8383    1.8410    0.4957 H   0  0  0  0  0  0  0  0  0  0  0  0
    2.1495    0.7656    1.8807 H   0  0  0  0  0  0  0  0  0  0  0  0
   -0.2709    0.6461    1.6810 H   0  0  0  0  0  0  0  0  0  0  0  0
    0.1231    0.6139   -1.4819 H   0  0  0  0  0  0  0  0  0  0  0  0
   -2.0711    1.6867   -0.2462 H   0  0  0  0  0  0  0  0  0  0  0  0
   -2.3083    0.3829   -1.5275 H   0  0  0  0  0  0  0  0  0  0  0  0
   -3.4129   -0.6394    0.1623 H   0  0  0  0  0  0  0  0  0  0  0  0
   -2.4093    0.1795    1.4742 H   0  0  0  0  0  0  0  0  0  0  0  0
    0.6579   -1.6029   -0.3205 H   0  0  0  0  0  0  0  0  0  0  0  0
  1  2  1  0
  2  3  1  0
  3  4  1  0
  4  5  1  0
  5  6  1  0
  6  7  1  0
  7  8  2  0
  7  9  1  0
  9  3  1  0
  9  4  1  0
  1 10  1  0
  1 11  1  0
  1 12  1  0
  2 13  1  0
  2 14  1  0
  3 15  1  0
  4 16  1  0
  5 17  1  0
  5 18  1  0
  6 19  1  0
  6 20  1  0
  9 21  1  0
M  END
