
     RDKit          3D

 19 21  0  0  0  0  0  0  0  0999 V2000
    2.3400    0.9191    0.0980 C   0  0  0  0  0  0  0  0  0  0  0  0
    1.6807   -0.2299    0.7864 C   0  0  0  0  0  0  0  0  0  0  0  0
    0.2810    0.2014    1.2516 C   0  0  0  0  0  0  0  0  0  0  0  0
   -0.3359   -0.9738    1.9305 O   0  0  0  0  0  0  0  0  0  0  0  0
   -0.8210   -0.3957    0.8036 C   0  0  0  0  0  0  0  0  0  0  0  0
   -2.2202   -0.0622    0.5473 C   0  0  0  0  0  0  0  0  0  0  0  0
   -1.8476    0.1376   -0.9080 C   0  0  0  0  0  0  0  0  0  0  0  0
   -1.2038   -1.1264   -0.4211 C   0  0  0  0  0  0  0  0  0  0  0  0
   -2.4174   -1.3986    0.2008 O   0  0  0  0  0  0  0  0  0  0  0  0
    1.7040    1.8355    0.0570 H   0  0  0  0  0  0  0  0  0  0  0  0
    3.2568    1.2366    0.6723 H   0  0  0  0  0  0  0  0  0  0  0  0
    2.7012    0.6929   -0.9219 H   0  0  0  0  0  0  0  0  0  0  0  0
    2.2599   -0.5667    1.6424 H   0  0  0  0  0  0  0  0  0  0  0  0
    1.5994   -1.0687    0.0602 H   0  0  0  0  0  0  0  0  0  0  0  0
    0.3367    1.0898    1.9105 H   0  0  0  0  0  0  0  0  0  0  0  0
   -2.8687    0.5148    1.0609 H   0  0  0  0  0  0  0  0  0  0  0  0
   -2.6634    0.0323   -1.6303 H   0  0  0  0  0  0  0  0  0  0  0  0
   -1.1211    0.9356   -1.0564 H   0  0  0  0  0  0  0  0  0  0  0  0
   -0.6606   -1.7737   -0.9704 H   0  0  0  0  0  0  0  0  0  0  0  0
  1  2  1  0
  2  3  1  0
  3  4  1  0
  4  5  1  0
  5  6  1  0
  6  7  1  0
  7  8  1  0
  8  9  1  0
  5  3  1  0
  9  6  1  0
  8  5  1  0
  1 10  1  0
  1 11  1  0
  1 12  1  0
  2 13  1  0
  2 14  1  0
  3 15  1  0
  6 16  1  0
  7 17  1  0
  7 18  1  0
  8 19  1  0
M  END
