
     RDKit          3D

 21 22  0  0  0  0  0  0  0  0999 V2000
   -2.4670    0.6228    1.0424 C   0  0  0  0  0  0  0  0  0  0  0  0
   -1.3206   -0.3684    0.9670 C   0  0  0  0  0  0  0  0  0  0  0  0
   -0.5816   -0.1426   -0.3179 C   0  0  0  0  0  0  0  0  0  0  0  0
   -0.0572    1.1451   -0.4168 O   0  0  0  0  0  0  0  0  0  0  0  0
    1.2842    1.0249   -0.7816 C   0  0  0  0  0  0  0  0  0  0  0  0
    2.0210    0.4747    0.3824 C   0  0  0  0  0  0  0  0  0  0  0  0
    1.6011   -0.7721    0.5520 C   0  0  0  0  0  0  0  0  0  0  0  0
    0.5748   -1.0533   -0.5251 C   0  0  0  0  0  0  0  0  0  0  0  0
    1.2667   -0.2515   -1.6510 C   0  0  0  0  0  0  0  0  0  0  0  0
   -2.2454    1.4404    1.7629 H   0  0  0  0  0  0  0  0  0  0  0  0
   -3.4125    0.1507    1.3461 H   0  0  0  0  0  0  0  0  0  0  0  0
   -2.6255    1.1398    0.0553 H   0  0  0  0  0  0  0  0  0  0  0  0
   -0.6729   -0.3324    1.8420 H   0  0  0  0  0  0  0  0  0  0  0  0
   -1.7769   -1.3750    0.9170 H   0  0  0  0  0  0  0  0  0  0  0  0
   -1.3009   -0.3102   -1.1657 H   0  0  0  0  0  0  0  0  0  0  0  0
    1.7143    1.8681   -1.2684 H   0  0  0  0  0  0  0  0  0  0  0  0
    2.7456    1.0168    0.9488 H   0  0  0  0  0  0  0  0  0  0  0  0
    1.9448   -1.4476    1.3277 H   0  0  0  0  0  0  0  0  0  0  0  0
    0.4108   -2.0718   -0.7439 H   0  0  0  0  0  0  0  0  0  0  0  0
    0.6222   -0.1378   -2.5193 H   0  0  0  0  0  0  0  0  0  0  0  0
    2.2751   -0.6206   -1.8425 H   0  0  0  0  0  0  0  0  0  0  0  0
  1  2  1  0
  2  3  1  0
  3  4  1  0
  4  5  1  0
  5  6  1  0
  6  7  2  0
  7  8  1  0
  8  9  1  0
  8  3  1  0
  9  5  1  0
  1 10  1  0
  1 11  1  0
  1 12  1  0
  2 13  1  0
  2 14  1  0
  3 15  1  0
  5 16  1  0
  6 17  1  0
  7 18  1  0
  8 19  1  0
  9 20  1  0
  9 21  1  0
M  END
