
     RDKit          3D

 23 23  0  0  0  0  0  0  0  0999 V2000
   -2.9346    1.0284   -0.2340 C   0  0  0  0  0  0  0  0  0  0  0  0
   -2.4146   -0.2590    0.3786 C   0  0  0  0  0  0  0  0  0  0  0  0
   -1.1826   -0.6606   -0.3608 C   0  0  0  0  0  0  0  0  0  0  0  0
   -0.4130   -1.8760   -0.0248 C   0  0  0  0  0  0  0  0  0  0  0  0
    0.0883   -0.5949    0.4848 C   0  0  0  0  0  0  0  0  0  0  0  0
    1.1978    0.1642   -0.1609 C   0  0  0  0  0  0  0  0  0  0  0  0
    2.4014    0.1974    0.6972 C   0  0  0  0  0  0  0  0  0  0  0  0
    3.5950    0.9239    0.1806 C   0  0  0  0  0  0  0  0  0  0  0  0
    2.3602   -0.3651    1.7745 O   0  0  0  0  0  0  0  0  0  0  0  0
   -4.0375    0.9961   -0.3203 H   0  0  0  0  0  0  0  0  0  0  0  0
   -2.5549    1.1145   -1.2884 H   0  0  0  0  0  0  0  0  0  0  0  0
   -2.6217    1.9230    0.3316 H   0  0  0  0  0  0  0  0  0  0  0  0
   -2.2183   -0.0212    1.4611 H   0  0  0  0  0  0  0  0  0  0  0  0
   -3.1675   -1.0684    0.3640 H   0  0  0  0  0  0  0  0  0  0  0  0
   -1.1333   -0.3283   -1.4075 H   0  0  0  0  0  0  0  0  0  0  0  0
   -0.8863   -2.5863    0.6778 H   0  0  0  0  0  0  0  0  0  0  0  0
    0.1741   -2.3618   -0.8260 H   0  0  0  0  0  0  0  0  0  0  0  0
   -0.0125   -0.4271    1.5750 H   0  0  0  0  0  0  0  0  0  0  0  0
    0.8096    1.2012   -0.3730 H   0  0  0  0  0  0  0  0  0  0  0  0
    1.4189   -0.2662   -1.1748 H   0  0  0  0  0  0  0  0  0  0  0  0
    3.6450    0.7118   -0.9079 H   0  0  0  0  0  0  0  0  0  0  0  0
    3.4194    2.0036    0.3729 H   0  0  0  0  0  0  0  0  0  0  0  0
    4.4671    0.5508    0.7349 H   0  0  0  0  0  0  0  0  0  0  0  0
  1  2  1  0
  2  3  1  0
  3  4  1  0
  4  5  1  0
  5  6  1  0
  6  7  1  0
  7  8  1  0
  7  9  2  0
  5  3  1  0
  1 10  1  0
  1 11  1  0
  1 12  1  0
  2 13  1  0
  2 14  1  0
  3 15  1  0
  4 16  1  0
  4 17  1  0
  5 18  1  0
  6 19  1  0
  6 20  1  0
  8 21  1  0
  8 22  1  0
  8 23  1  0
M  END
