
     RDKit          3D

 23 24  0  0  0  0  0  0  0  0999 V2000
    2.3740    0.6604   -0.4071 C   0  0  0  0  0  0  0  0  0  0  0  0
    1.5641   -0.3741    0.2489 C   0  0  0  0  0  0  0  0  0  0  0  0
    0.1174   -0.1477    0.3893 C   0  0  0  0  0  0  0  0  0  0  0  0
   -0.6390   -1.2631    1.0762 C   0  0  0  0  0  0  0  0  0  0  0  0
   -1.6335   -1.2952   -0.0688 C   0  0  0  0  0  0  0  0  0  0  0  0
   -0.8159   -0.1754   -0.7079 C   0  0  0  0  0  0  0  0  0  0  0  0
   -0.4766   -0.4684   -1.9730 O   0  0  0  0  0  0  0  0  0  0  0  0
   -1.2879    1.2118   -0.3819 C   0  0  0  0  0  0  0  0  0  0  0  0
   -0.3596    1.1875    0.8391 C   0  0  0  0  0  0  0  0  0  0  0  0
    3.3342    0.1889   -0.7731 H   0  0  0  0  0  0  0  0  0  0  0  0
    1.9399    1.1821   -1.2555 H   0  0  0  0  0  0  0  0  0  0  0  0
    2.7342    1.4621    0.3035 H   0  0  0  0  0  0  0  0  0  0  0  0
    1.7213   -1.3797   -0.2158 H   0  0  0  0  0  0  0  0  0  0  0  0
    1.9726   -0.4953    1.2987 H   0  0  0  0  0  0  0  0  0  0  0  0
   -1.1591   -0.9745    2.0058 H   0  0  0  0  0  0  0  0  0  0  0  0
   -0.0557   -2.1919    1.1649 H   0  0  0  0  0  0  0  0  0  0  0  0
   -1.5985   -2.2413   -0.6235 H   0  0  0  0  0  0  0  0  0  0  0  0
   -2.6586   -0.9980    0.1911 H   0  0  0  0  0  0  0  0  0  0  0  0
   -1.2288   -0.3314   -2.5887 H   0  0  0  0  0  0  0  0  0  0  0  0
   -2.3598    1.2920   -0.0590 H   0  0  0  0  0  0  0  0  0  0  0  0
   -0.9684    1.9646   -1.1035 H   0  0  0  0  0  0  0  0  0  0  0  0
   -0.9247    1.2023    1.8094 H   0  0  0  0  0  0  0  0  0  0  0  0
    0.4085    1.9843    0.8308 H   0  0  0  0  0  0  0  0  0  0  0  0
  1  2  1  0
  2  3  1  0
  3  4  1  0
  4  5  1  0
  5  6  1  0
  6  7  1  0
  6  8  1  0
  8  9  1  0
  6  3  1  0
  9  3  1  0
  1 10  1  0
  1 11  1  0
  1 12  1  0
  2 13  1  0
  2 14  1  0
  4 15  1  0
  4 16  1  0
  5 17  1  0
  5 18  1  0
  7 19  1  0
  8 20  1  0
  8 21  1  0
  9 22  1  0
  9 23  1  0
M  END
