
     RDKit          3D

 19 19  0  0  0  0  0  0  0  0999 V2000
   -1.8024   -1.0657   -0.3792 C   0  0  0  0  0  0  0  0  0  0  0  0
   -1.3021    0.3256   -0.2441 C   0  0  0  0  0  0  0  0  0  0  0  0
    0.1317    0.4291    0.2069 C   0  0  0  0  0  0  0  0  0  0  0  0
    0.4250    1.9331    0.2749 C   0  0  0  0  0  0  0  0  0  0  0  0
    1.0568   -0.1770   -0.7601 C   0  0  0  0  0  0  0  0  0  0  0  0
    1.8052   -1.0622   -0.1530 C   0  0  0  0  0  0  0  0  0  0  0  0
    1.4111   -1.0833    1.2412 C   0  0  0  0  0  0  0  0  0  0  0  0
    1.9620   -1.8480    2.0856 O   0  0  0  0  0  0  0  0  0  0  0  0
    0.3962   -0.1672    1.4183 O   0  0  0  0  0  0  0  0  0  0  0  0
   -1.7128   -1.4409   -1.4321 H   0  0  0  0  0  0  0  0  0  0  0  0
   -1.3148   -1.7968    0.2847 H   0  0  0  0  0  0  0  0  0  0  0  0
   -2.9080   -1.1112   -0.1543 H   0  0  0  0  0  0  0  0  0  0  0  0
   -1.3434    0.8165   -1.2515 H   0  0  0  0  0  0  0  0  0  0  0  0
   -1.9665    0.9266    0.4108 H   0  0  0  0  0  0  0  0  0  0  0  0
    0.9152    2.2709   -0.6549 H   0  0  0  0  0  0  0  0  0  0  0  0
   -0.5077    2.5212    0.3912 H   0  0  0  0  0  0  0  0  0  0  0  0
    1.0349    2.1416    1.1885 H   0  0  0  0  0  0  0  0  0  0  0  0
    1.1401    0.0471   -1.8274 H   0  0  0  0  0  0  0  0  0  0  0  0
    2.5794   -1.6595   -0.6454 H   0  0  0  0  0  0  0  0  0  0  0  0
  1  2  1  0
  2  3  1  0
  3  4  1  0
  3  5  1  0
  5  6  2  0
  6  7  1  0
  7  8  2  0
  7  9  1  0
  9  3  1  0
  1 10  1  0
  1 11  1  0
  1 12  1  0
  2 13  1  0
  2 14  1  0
  4 15  1  0
  4 16  1  0
  4 17  1  0
  5 18  1  0
  6 19  1  0
M  END
