
     RDKit          3D

 25 25  0  0  0  0  0  0  0  0999 V2000
    2.9440   -0.5418    0.0882 C   0  0  0  0  0  0  0  0  0  0  0  0
    1.7041   -0.9429   -0.6380 C   0  0  0  0  0  0  0  0  0  0  0  0
    0.7295    0.1885   -0.8407 C   0  0  0  0  0  0  0  0  0  0  0  0
    0.2164    0.8381    0.3846 C   0  0  0  0  0  0  0  0  0  0  0  0
    0.0586    2.3492    0.4384 C   0  0  0  0  0  0  0  0  0  0  0  0
   -0.6937    0.0582   -0.5383 C   0  0  0  0  0  0  0  0  0  0  0  0
   -1.6055    0.8546   -1.2508 O   0  0  0  0  0  0  0  0  0  0  0  0
   -1.2970   -1.2392   -0.0555 C   0  0  0  0  0  0  0  0  0  0  0  0
   -2.7962   -1.0570    0.1718 C   0  0  0  0  0  0  0  0  0  0  0  0
    2.8650   -0.6059    1.1926 H   0  0  0  0  0  0  0  0  0  0  0  0
    3.7458   -1.2749   -0.1965 H   0  0  0  0  0  0  0  0  0  0  0  0
    3.2602    0.4593   -0.2630 H   0  0  0  0  0  0  0  0  0  0  0  0
    1.9967   -1.3682   -1.6225 H   0  0  0  0  0  0  0  0  0  0  0  0
    1.2228   -1.8001   -0.0880 H   0  0  0  0  0  0  0  0  0  0  0  0
    0.9938    0.8826   -1.6798 H   0  0  0  0  0  0  0  0  0  0  0  0
    0.3300    0.3849    1.3865 H   0  0  0  0  0  0  0  0  0  0  0  0
    0.6277    2.7580   -0.4062 H   0  0  0  0  0  0  0  0  0  0  0  0
   -1.0069    2.6118    0.2812 H   0  0  0  0  0  0  0  0  0  0  0  0
    0.3860    2.7575    1.4157 H   0  0  0  0  0  0  0  0  0  0  0  0
   -2.2702    1.1557   -0.5585 H   0  0  0  0  0  0  0  0  0  0  0  0
   -1.0854   -2.0959   -0.6999 H   0  0  0  0  0  0  0  0  0  0  0  0
   -0.8587   -1.4511    0.9415 H   0  0  0  0  0  0  0  0  0  0  0  0
   -2.9129   -0.1930    0.8813 H   0  0  0  0  0  0  0  0  0  0  0  0
   -3.2404   -1.9234    0.6569 H   0  0  0  0  0  0  0  0  0  0  0  0
   -3.3135   -0.8051   -0.7730 H   0  0  0  0  0  0  0  0  0  0  0  0
  1  2  1  0
  2  3  1  0
  3  4  1  0
  4  5  1  0
  4  6  1  0
  6  7  1  0
  6  8  1  0
  8  9  1  0
  6  3  1  0
  1 10  1  0
  1 11  1  0
  1 12  1  0
  2 13  1  0
  2 14  1  0
  3 15  1  0
  4 16  1  0
  5 17  1  0
  5 18  1  0
  5 19  1  0
  7 20  1  0
  8 21  1  0
  8 22  1  0
  9 23  1  0
  9 24  1  0
  9 25  1  0
M  END
