
     RDKit          3D

 18 19  0  0  0  0  0  0  0  0999 V2000
    2.3612    0.2209    0.2173 C   0  0  0  0  0  0  0  0  0  0  0  0
    1.2676   -0.2286   -0.7325 C   0  0  0  0  0  0  0  0  0  0  0  0
   -0.1009    0.1637   -0.2456 C   0  0  0  0  0  0  0  0  0  0  0  0
   -0.5745   -0.2889    0.9667 O   0  0  0  0  0  0  0  0  0  0  0  0
   -1.6810   -1.0070    0.4718 C   0  0  0  0  0  0  0  0  0  0  0  0
   -1.2394   -0.6269   -0.9178 C   0  0  0  0  0  0  0  0  0  0  0  0
   -1.0759    0.8376   -1.1473 C   0  0  0  0  0  0  0  0  0  0  0  0
   -2.0732    1.6057   -0.5035 O   0  0  0  0  0  0  0  0  0  0  0  0
    3.2534   -0.4127    0.0017 H   0  0  0  0  0  0  0  0  0  0  0  0
    2.0807    0.0591    1.2708 H   0  0  0  0  0  0  0  0  0  0  0  0
    2.6777    1.2652    0.0006 H   0  0  0  0  0  0  0  0  0  0  0  0
    1.4215    0.2765   -1.7125 H   0  0  0  0  0  0  0  0  0  0  0  0
    1.3862   -1.3149   -0.8945 H   0  0  0  0  0  0  0  0  0  0  0  0
   -1.6512   -2.0649    0.7251 H   0  0  0  0  0  0  0  0  0  0  0  0
   -2.6643   -0.5041    0.6831 H   0  0  0  0  0  0  0  0  0  0  0  0
   -0.9903   -1.3760   -1.6639 H   0  0  0  0  0  0  0  0  0  0  0  0
   -0.7495    1.1591   -2.1552 H   0  0  0  0  0  0  0  0  0  0  0  0
   -1.6481    2.2363    0.1267 H   0  0  0  0  0  0  0  0  0  0  0  0
  1  2  1  0
  2  3  1  0
  3  4  1  0
  4  5  1  0
  5  6  1  0
  6  7  1  0
  7  8  1  0
  6  3  1  0
  7  3  1  0
  1  9  1  0
  1 10  1  0
  1 11  1  0
  2 12  1  0
  2 13  1  0
  5 14  1  0
  5 15  1  0
  6 16  1  0
  7 17  1  0
  8 18  1  0
M  END
