
     RDKit          3D

 23 24  0  0  0  0  0  0  0  0999 V2000
    2.5112    0.9174    0.4244 C   0  0  0  0  0  0  0  0  0  0  0  0
    1.2968    0.7985   -0.5101 C   0  0  0  0  0  0  0  0  0  0  0  0
    0.5576   -0.3928   -0.1315 C   0  0  0  0  0  0  0  0  0  0  0  0
   -0.6876   -0.8100   -0.8403 C   0  0  0  0  0  0  0  0  0  0  0  0
   -0.8653   -2.1689   -0.1897 C   0  0  0  0  0  0  0  0  0  0  0  0
   -0.6586   -1.8799    1.1147 C   0  0  0  0  0  0  0  0  0  0  0  0
   -0.3552   -0.3943    1.0520 C   0  0  0  0  0  0  0  0  0  0  0  0
   -1.4780    0.0108    0.1422 C   0  0  0  0  0  0  0  0  0  0  0  0
   -1.7495    1.4117   -0.1200 C   0  0  0  0  0  0  0  0  0  0  0  0
    2.7879   -0.1038    0.7632 H   0  0  0  0  0  0  0  0  0  0  0  0
    3.3962    1.3087   -0.1211 H   0  0  0  0  0  0  0  0  0  0  0  0
    2.2570    1.5402    1.3104 H   0  0  0  0  0  0  0  0  0  0  0  0
    1.7727    0.6162   -1.5238 H   0  0  0  0  0  0  0  0  0  0  0  0
    0.7721    1.7445   -0.6187 H   0  0  0  0  0  0  0  0  0  0  0  0
    1.2728   -1.2653   -0.0160 H   0  0  0  0  0  0  0  0  0  0  0  0
   -0.8181   -0.7198   -1.8715 H   0  0  0  0  0  0  0  0  0  0  0  0
   -1.0931   -3.0962   -0.6561 H   0  0  0  0  0  0  0  0  0  0  0  0
   -0.6977   -2.5279    1.9732 H   0  0  0  0  0  0  0  0  0  0  0  0
   -0.1401    0.1160    1.9367 H   0  0  0  0  0  0  0  0  0  0  0  0
   -2.4156   -0.5548    0.3967 H   0  0  0  0  0  0  0  0  0  0  0  0
   -1.2734    2.1564    0.5456 H   0  0  0  0  0  0  0  0  0  0  0  0
   -2.8475    1.6198   -0.0216 H   0  0  0  0  0  0  0  0  0  0  0  0
   -1.5448    1.6735   -1.2011 H   0  0  0  0  0  0  0  0  0  0  0  0
  1  2  1  0
  2  3  1  0
  3  4  1  0
  4  5  1  0
  5  6  2  0
  6  7  1  0
  7  8  1  0
  8  9  1  0
  7  3  1  0
  8  4  1  0
  1 10  1  0
  1 11  1  0
  1 12  1  0
  2 13  1  0
  2 14  1  0
  3 15  1  0
  4 16  1  0
  5 17  1  0
  6 18  1  0
  7 19  1  0
  8 20  1  0
  9 21  1  0
  9 22  1  0
  9 23  1  0
M  END
