
     RDKit          3D

 23 23  0  0  0  0  0  0  0  0999 V2000
    2.0166   -0.1164    0.6714 C   0  0  0  0  0  0  0  0  0  0  0  0
    1.5203    0.4477   -0.5861 C   0  0  0  0  0  0  0  0  0  0  0  0
    0.1327    0.2211   -0.9886 C   0  0  0  0  0  0  0  0  0  0  0  0
   -0.3469   -1.1520   -1.1916 C   0  0  0  0  0  0  0  0  0  0  0  0
   -1.0901   -1.5159    0.0646 C   0  0  0  0  0  0  0  0  0  0  0  0
   -0.2690   -2.1558    0.9900 O   0  0  0  0  0  0  0  0  0  0  0  0
   -1.5022   -0.2099    0.6123 C   0  0  0  0  0  0  0  0  0  0  0  0
   -0.8264    0.7465    0.0306 C   0  0  0  0  0  0  0  0  0  0  0  0
   -0.9967    2.2112    0.3527 C   0  0  0  0  0  0  0  0  0  0  0  0
    1.2779    0.0486    1.5135 H   0  0  0  0  0  0  0  0  0  0  0  0
    2.2753   -1.1646    0.7019 H   0  0  0  0  0  0  0  0  0  0  0  0
    2.9289    0.4444    1.0352 H   0  0  0  0  0  0  0  0  0  0  0  0
    2.1952    0.0716   -1.4143 H   0  0  0  0  0  0  0  0  0  0  0  0
    1.7128    1.5568   -0.5831 H   0  0  0  0  0  0  0  0  0  0  0  0
   -0.1102    0.8108   -1.9250 H   0  0  0  0  0  0  0  0  0  0  0  0
    0.4074   -1.8975   -1.4869 H   0  0  0  0  0  0  0  0  0  0  0  0
   -1.1211   -1.1962   -2.0179 H   0  0  0  0  0  0  0  0  0  0  0  0
   -1.9850   -2.1496   -0.1625 H   0  0  0  0  0  0  0  0  0  0  0  0
   -0.8511   -2.6708    1.5966 H   0  0  0  0  0  0  0  0  0  0  0  0
   -2.2686   -0.0491    1.3994 H   0  0  0  0  0  0  0  0  0  0  0  0
   -1.4442    2.3206    1.3796 H   0  0  0  0  0  0  0  0  0  0  0  0
   -0.0039    2.7109    0.4182 H   0  0  0  0  0  0  0  0  0  0  0  0
   -1.6518    2.6877   -0.4100 H   0  0  0  0  0  0  0  0  0  0  0  0
  1  2  1  0
  2  3  1  0
  3  4  1  0
  4  5  1  0
  5  6  1  0
  5  7  1  0
  7  8  2  0
  8  9  1  0
  8  3  1  0
  1 10  1  0
  1 11  1  0
  1 12  1  0
  2 13  1  0
  2 14  1  0
  3 15  1  0
  4 16  1  0
  4 17  1  0
  5 18  1  0
  6 19  1  0
  7 20  1  0
  9 21  1  0
  9 22  1  0
  9 23  1  0
M  END
