
     RDKit          3D

 19 20  0  0  0  0  0  0  0  0999 V2000
   -2.2581   -0.4103   -0.1540 C   0  0  0  0  0  0  0  0  0  0  0  0
   -1.5885    0.8562   -0.5385 C   0  0  0  0  0  0  0  0  0  0  0  0
   -0.1262    0.9173   -0.2200 C   0  0  0  0  0  0  0  0  0  0  0  0
    0.7336   -0.1242   -0.8682 C   0  0  0  0  0  0  0  0  0  0  0  0
    1.4615   -0.2369    0.4334 C   0  0  0  0  0  0  0  0  0  0  0  0
    2.7960    0.3779    0.5921 C   0  0  0  0  0  0  0  0  0  0  0  0
    3.3252    0.4829    1.6814 O   0  0  0  0  0  0  0  0  0  0  0  0
    0.7550   -0.7170    1.4843 O   0  0  0  0  0  0  0  0  0  0  0  0
    0.3171    0.5183    1.1325 C   0  0  0  0  0  0  0  0  0  0  0  0
   -2.8947   -0.2448    0.7544 H   0  0  0  0  0  0  0  0  0  0  0  0
   -1.5649   -1.2202    0.1046 H   0  0  0  0  0  0  0  0  0  0  0  0
   -2.9419   -0.7346   -0.9838 H   0  0  0  0  0  0  0  0  0  0  0  0
   -2.1392    1.7090   -0.0915 H   0  0  0  0  0  0  0  0  0  0  0  0
   -1.6788    1.0090   -1.6528 H   0  0  0  0  0  0  0  0  0  0  0  0
    0.2653    1.9351   -0.4682 H   0  0  0  0  0  0  0  0  0  0  0  0
    0.2144   -1.0955   -1.0898 H   0  0  0  0  0  0  0  0  0  0  0  0
    1.3661    0.2454   -1.6873 H   0  0  0  0  0  0  0  0  0  0  0  0
    3.3234    0.7462   -0.2718 H   0  0  0  0  0  0  0  0  0  0  0  0
    0.6347    1.3359    1.8431 H   0  0  0  0  0  0  0  0  0  0  0  0
  1  2  1  0
  2  3  1  0
  3  4  1  0
  4  5  1  0
  5  6  1  0
  6  7  2  0
  5  8  1  0
  8  9  1  0
  9  3  1  0
  9  5  1  0
  1 10  1  0
  1 11  1  0
  1 12  1  0
  2 13  1  0
  2 14  1  0
  3 15  1  0
  4 16  1  0
  4 17  1  0
  6 18  1  0
  9 19  1  0
M  END
