
     RDKit          3D

 18 18  0  0  0  0  0  0  0  0999 V2000
   -2.9556    0.2644    0.0476 C   0  0  0  0  0  0  0  0  0  0  0  0
   -1.6814   -0.1368    0.7603 C   0  0  0  0  0  0  0  0  0  0  0  0
   -0.6021   -0.3166   -0.2560 C   0  0  0  0  0  0  0  0  0  0  0  0
   -0.2451    0.7774   -1.0605 O   0  0  0  0  0  0  0  0  0  0  0  0
    0.6894    0.2771   -0.0154 C   0  0  0  0  0  0  0  0  0  0  0  0
    1.8847   -0.3853   -0.5610 C   0  0  0  0  0  0  0  0  0  0  0  0
    3.2418   -0.0037   -0.0833 C   0  0  0  0  0  0  0  0  0  0  0  0
    1.7632   -1.2427   -1.4004 O   0  0  0  0  0  0  0  0  0  0  0  0
   -2.8050    0.4832   -1.0206 H   0  0  0  0  0  0  0  0  0  0  0  0
   -3.6871   -0.5669    0.2216 H   0  0  0  0  0  0  0  0  0  0  0  0
   -3.3220    1.1872    0.5343 H   0  0  0  0  0  0  0  0  0  0  0  0
   -1.7864   -1.0970    1.3118 H   0  0  0  0  0  0  0  0  0  0  0  0
   -1.3574    0.6160    1.4961 H   0  0  0  0  0  0  0  0  0  0  0  0
   -0.6761   -1.2598   -0.8623 H   0  0  0  0  0  0  0  0  0  0  0  0
    0.7844    1.0618    0.7514 H   0  0  0  0  0  0  0  0  0  0  0  0
    4.0244   -0.6837   -0.4501 H   0  0  0  0  0  0  0  0  0  0  0  0
    3.4408    1.0207   -0.4475 H   0  0  0  0  0  0  0  0  0  0  0  0
    3.2896    0.0046    1.0341 H   0  0  0  0  0  0  0  0  0  0  0  0
  1  2  1  0
  2  3  1  0
  3  4  1  0
  4  5  1  0
  5  6  1  0
  6  7  1  0
  6  8  2  0
  5  3  1  0
  1  9  1  0
  1 10  1  0
  1 11  1  0
  2 12  1  0
  2 13  1  0
  3 14  1  0
  5 15  1  0
  7 16  1  0
  7 17  1  0
  7 18  1  0
M  END
