
     RDKit          3D

 19 19  0  0  0  0  0  0  0  0999 V2000
    2.0355   -1.0701    0.0446 C   0  0  0  0  0  0  0  0  0  0  0  0
    1.0684   -0.2271   -0.7104 C   0  0  0  0  0  0  0  0  0  0  0  0
    0.0802    0.5046    0.1664 C   0  0  0  0  0  0  0  0  0  0  0  0
    0.7190    1.4175    1.1210 C   0  0  0  0  0  0  0  0  0  0  0  0
    1.5248    1.0693    1.9733 O   0  0  0  0  0  0  0  0  0  0  0  0
   -0.7696    1.2088   -0.6532 O   0  0  0  0  0  0  0  0  0  0  0  0
   -2.0123    0.6252   -0.6190 C   0  0  0  0  0  0  0  0  0  0  0  0
   -1.8297   -0.6593    0.1571 C   0  0  0  0  0  0  0  0  0  0  0  0
   -0.6867   -0.4036    0.8809 O   0  0  0  0  0  0  0  0  0  0  0  0
    2.3262   -1.9286   -0.5976 H   0  0  0  0  0  0  0  0  0  0  0  0
    2.9404   -0.5029    0.3698 H   0  0  0  0  0  0  0  0  0  0  0  0
    1.6076   -1.5272    0.9738 H   0  0  0  0  0  0  0  0  0  0  0  0
    1.6310    0.4597   -1.3717 H   0  0  0  0  0  0  0  0  0  0  0  0
    0.4765   -0.9004   -1.3758 H   0  0  0  0  0  0  0  0  0  0  0  0
    0.4801    2.4727    1.0918 H   0  0  0  0  0  0  0  0  0  0  0  0
   -2.3919    0.4514   -1.6408 H   0  0  0  0  0  0  0  0  0  0  0  0
   -2.7320    1.3211   -0.1088 H   0  0  0  0  0  0  0  0  0  0  0  0
   -2.7006   -0.8086    0.8296 H   0  0  0  0  0  0  0  0  0  0  0  0
   -1.7669   -1.5026   -0.5312 H   0  0  0  0  0  0  0  0  0  0  0  0
  1  2  1  0
  2  3  1  0
  3  4  1  0
  4  5  2  0
  3  6  1  0
  6  7  1  0
  7  8  1  0
  8  9  1  0
  9  3  1  0
  1 10  1  0
  1 11  1  0
  1 12  1  0
  2 13  1  0
  2 14  1  0
  4 15  1  0
  7 16  1  0
  7 17  1  0
  8 18  1  0
  8 19  1  0
M  END
