
     RDKit          3D

 23 23  0  0  0  0  0  0  0  0999 V2000
   -2.7676    0.6535   -0.2212 C   0  0  0  0  0  0  0  0  0  0  0  0
   -1.8859   -0.5788   -0.4468 C   0  0  0  0  0  0  0  0  0  0  0  0
   -0.7217   -0.4395    0.5131 C   0  0  0  0  0  0  0  0  0  0  0  0
   -0.0243    0.8387    0.1542 C   0  0  0  0  0  0  0  0  0  0  0  0
    1.2471    0.5882   -0.1364 C   0  0  0  0  0  0  0  0  0  0  0  0
    2.2315    1.6326   -0.5359 C   0  0  0  0  0  0  0  0  0  0  0  0
    1.5679   -0.8419   -0.0170 C   0  0  0  0  0  0  0  0  0  0  0  0
    2.5386   -0.9921    0.9703 O   0  0  0  0  0  0  0  0  0  0  0  0
    0.2884   -1.5257    0.3870 C   0  0  0  0  0  0  0  0  0  0  0  0
   -2.4051    1.4761   -0.8460 H   0  0  0  0  0  0  0  0  0  0  0  0
   -2.7341    0.8749    0.8725 H   0  0  0  0  0  0  0  0  0  0  0  0
   -3.7999    0.3486   -0.4978 H   0  0  0  0  0  0  0  0  0  0  0  0
   -2.4828   -1.4927   -0.2656 H   0  0  0  0  0  0  0  0  0  0  0  0
   -1.5425   -0.5021   -1.4982 H   0  0  0  0  0  0  0  0  0  0  0  0
   -1.0834   -0.3111    1.5521 H   0  0  0  0  0  0  0  0  0  0  0  0
   -0.5188    1.7929    0.1464 H   0  0  0  0  0  0  0  0  0  0  0  0
    1.7175    2.4911   -1.0190 H   0  0  0  0  0  0  0  0  0  0  0  0
    3.0373    1.2159   -1.1966 H   0  0  0  0  0  0  0  0  0  0  0  0
    2.6698    2.0321    0.4139 H   0  0  0  0  0  0  0  0  0  0  0  0
    1.9300   -1.2404   -0.9882 H   0  0  0  0  0  0  0  0  0  0  0  0
    2.2522   -1.6882    1.6391 H   0  0  0  0  0  0  0  0  0  0  0  0
    0.0405   -2.3027   -0.3628 H   0  0  0  0  0  0  0  0  0  0  0  0
    0.4454   -2.0293    1.3829 H   0  0  0  0  0  0  0  0  0  0  0  0
  1  2  1  0
  2  3  1  0
  3  4  1  0
  4  5  2  0
  5  6  1  0
  5  7  1  0
  7  8  1  0
  7  9  1  0
  9  3  1  0
  1 10  1  0
  1 11  1  0
  1 12  1  0
  2 13  1  0
  2 14  1  0
  3 15  1  0
  4 16  1  0
  6 17  1  0
  6 18  1  0
  6 19  1  0
  7 20  1  0
  8 21  1  0
  9 22  1  0
  9 23  1  0
M  END
