
     RDKit          3D

 22 22  0  0  0  0  0  0  0  0999 V2000
    2.5409   -0.8971    0.3325 C   0  0  0  0  0  0  0  0  0  0  0  0
    1.7252    0.3982    0.2536 C   0  0  0  0  0  0  0  0  0  0  0  0
    0.6033    0.2401   -0.7164 C   0  0  0  0  0  0  0  0  0  0  0  0
   -0.3566    1.3174   -1.0073 C   0  0  0  0  0  0  0  0  0  0  0  0
   -0.7762    0.2070   -0.1208 C   0  0  0  0  0  0  0  0  0  0  0  0
   -0.9880    0.5479    1.3162 C   0  0  0  0  0  0  0  0  0  0  0  0
   -1.6526   -0.9112   -0.6382 C   0  0  0  0  0  0  0  0  0  0  0  0
   -2.8789   -0.8216   -0.0117 O   0  0  0  0  0  0  0  0  0  0  0  0
    3.2768   -0.8945   -0.4977 H   0  0  0  0  0  0  0  0  0  0  0  0
    1.7964   -1.7251    0.2345 H   0  0  0  0  0  0  0  0  0  0  0  0
    3.0485   -0.8975    1.3137 H   0  0  0  0  0  0  0  0  0  0  0  0
    2.3804    1.2548   -0.0174 H   0  0  0  0  0  0  0  0  0  0  0  0
    1.3091    0.5449    1.2686 H   0  0  0  0  0  0  0  0  0  0  0  0
    0.8466   -0.4229   -1.5734 H   0  0  0  0  0  0  0  0  0  0  0  0
   -0.2038    2.3185   -0.5494 H   0  0  0  0  0  0  0  0  0  0  0  0
   -0.8479    1.3563   -1.9903 H   0  0  0  0  0  0  0  0  0  0  0  0
   -2.0828    0.7332    1.4572 H   0  0  0  0  0  0  0  0  0  0  0  0
   -0.4754    1.4696    1.6186 H   0  0  0  0  0  0  0  0  0  0  0  0
   -0.7522   -0.3267    1.9608 H   0  0  0  0  0  0  0  0  0  0  0  0
   -1.1819   -1.8679   -0.2910 H   0  0  0  0  0  0  0  0  0  0  0  0
   -1.7026   -0.9617   -1.7277 H   0  0  0  0  0  0  0  0  0  0  0  0
   -3.6284   -0.6619   -0.6142 H   0  0  0  0  0  0  0  0  0  0  0  0
  1  2  1  0
  2  3  1  0
  3  4  1  0
  4  5  1  0
  5  6  1  0
  5  7  1  0
  7  8  1  0
  5  3  1  0
  1  9  1  0
  1 10  1  0
  1 11  1  0
  2 12  1  0
  2 13  1  0
  3 14  1  0
  4 15  1  0
  4 16  1  0
  6 17  1  0
  6 18  1  0
  6 19  1  0
  7 20  1  0
  7 21  1  0
  8 22  1  0
M  END
