
     RDKit          3D

 21 22  0  0  0  0  0  0  0  0999 V2000
    2.7554   -0.7314   -0.4232 C   0  0  0  0  0  0  0  0  0  0  0  0
    1.7581   -0.0225    0.4989 C   0  0  0  0  0  0  0  0  0  0  0  0
    0.7110    0.5805   -0.3964 C   0  0  0  0  0  0  0  0  0  0  0  0
   -0.3905    1.3405    0.3107 C   0  0  0  0  0  0  0  0  0  0  0  0
   -1.3773    0.3876   -0.3282 C   0  0  0  0  0  0  0  0  0  0  0  0
   -2.7020    0.1316    0.2784 C   0  0  0  0  0  0  0  0  0  0  0  0
   -3.0612   -1.2089    0.1446 O   0  0  0  0  0  0  0  0  0  0  0  0
   -1.2751    0.1112   -1.6826 O   0  0  0  0  0  0  0  0  0  0  0  0
   -0.3837   -0.4307   -0.7782 C   0  0  0  0  0  0  0  0  0  0  0  0
    2.2970   -1.6152   -0.9079 H   0  0  0  0  0  0  0  0  0  0  0  0
    3.6099   -1.0824    0.1983 H   0  0  0  0  0  0  0  0  0  0  0  0
    3.1488   -0.0244   -1.1873 H   0  0  0  0  0  0  0  0  0  0  0  0
    2.3025    0.7621    1.0321 H   0  0  0  0  0  0  0  0  0  0  0  0
    1.3525   -0.8200    1.1523 H   0  0  0  0  0  0  0  0  0  0  0  0
    1.0909    1.1661   -1.2466 H   0  0  0  0  0  0  0  0  0  0  0  0
   -0.3422    1.1399    1.4021 H   0  0  0  0  0  0  0  0  0  0  0  0
   -0.5319    2.3747   -0.0019 H   0  0  0  0  0  0  0  0  0  0  0  0
   -3.4732    0.7121   -0.3069 H   0  0  0  0  0  0  0  0  0  0  0  0
   -2.8034    0.4661    1.3257 H   0  0  0  0  0  0  0  0  0  0  0  0
   -2.5224   -1.7452    0.7973 H   0  0  0  0  0  0  0  0  0  0  0  0
   -0.1631   -1.4918   -0.7434 H   0  0  0  0  0  0  0  0  0  0  0  0
  1  2  1  0
  2  3  1  0
  3  4  1  0
  4  5  1  0
  5  6  1  0
  6  7  1  0
  5  8  1  0
  8  9  1  0
  9  3  1  0
  9  5  1  0
  1 10  1  0
  1 11  1  0
  1 12  1  0
  2 13  1  0
  2 14  1  0
  3 15  1  0
  4 16  1  0
  4 17  1  0
  6 18  1  0
  6 19  1  0
  7 20  1  0
  9 21  1  0
M  END
