
     RDKit          3D

 25 25  0  0  0  0  0  0  0  0999 V2000
   -2.2517    0.2095   -1.0717 C   0  0  0  0  0  0  0  0  0  0  0  0
   -0.8968   -0.4665   -1.0556 C   0  0  0  0  0  0  0  0  0  0  0  0
   -0.3064   -0.5205    0.3181 C   0  0  0  0  0  0  0  0  0  0  0  0
   -1.1829   -1.2930    1.3101 C   0  0  0  0  0  0  0  0  0  0  0  0
    0.2998    0.7111    0.8961 C   0  0  0  0  0  0  0  0  0  0  0  0
    0.3689    1.9891    0.0954 C   0  0  0  0  0  0  0  0  0  0  0  0
    1.1290   -0.4612    0.5778 C   0  0  0  0  0  0  0  0  0  0  0  0
    2.1401   -0.3306   -0.5349 C   0  0  0  0  0  0  0  0  0  0  0  0
    3.4445   -0.2941   -0.0457 O   0  0  0  0  0  0  0  0  0  0  0  0
   -2.6456    0.1936   -2.1040 H   0  0  0  0  0  0  0  0  0  0  0  0
   -2.9943   -0.3442   -0.4523 H   0  0  0  0  0  0  0  0  0  0  0  0
   -2.2252    1.2532   -0.7483 H   0  0  0  0  0  0  0  0  0  0  0  0
   -0.2461    0.1035   -1.7507 H   0  0  0  0  0  0  0  0  0  0  0  0
   -1.0405   -1.4811   -1.5035 H   0  0  0  0  0  0  0  0  0  0  0  0
   -2.1590   -0.7679    1.3598 H   0  0  0  0  0  0  0  0  0  0  0  0
   -1.2937   -2.3444    1.0298 H   0  0  0  0  0  0  0  0  0  0  0  0
   -0.6888   -1.2563    2.3180 H   0  0  0  0  0  0  0  0  0  0  0  0
    0.1610    0.9289    1.9937 H   0  0  0  0  0  0  0  0  0  0  0  0
   -0.5504    2.6045    0.3129 H   0  0  0  0  0  0  0  0  0  0  0  0
    0.4256    1.8617   -0.9816 H   0  0  0  0  0  0  0  0  0  0  0  0
    1.2082    2.5831    0.5215 H   0  0  0  0  0  0  0  0  0  0  0  0
    1.5063   -1.0830    1.4269 H   0  0  0  0  0  0  0  0  0  0  0  0
    2.0081    0.5877   -1.1415 H   0  0  0  0  0  0  0  0  0  0  0  0
    2.0807   -1.2500   -1.1824 H   0  0  0  0  0  0  0  0  0  0  0  0
    3.7091   -1.1330    0.4121 H   0  0  0  0  0  0  0  0  0  0  0  0
  1  2  1  0
  2  3  1  0
  3  4  1  0
  3  5  1  0
  5  6  1  0
  5  7  1  0
  7  8  1  0
  8  9  1  0
  7  3  1  0
  1 10  1  0
  1 11  1  0
  1 12  1  0
  2 13  1  0
  2 14  1  0
  4 15  1  0
  4 16  1  0
  4 17  1  0
  5 18  1  0
  6 19  1  0
  6 20  1  0
  6 21  1  0
  7 22  1  0
  8 23  1  0
  8 24  1  0
  9 25  1  0
M  END
