
     RDKit          3D

 20 20  0  0  0  0  0  0  0  0999 V2000
   -2.0390   -0.0761   -0.8821 C   0  0  0  0  0  0  0  0  0  0  0  0
   -1.1167    0.4965    0.1398 C   0  0  0  0  0  0  0  0  0  0  0  0
    0.2238   -0.2065    0.1821 C   0  0  0  0  0  0  0  0  0  0  0  0
    0.1635   -1.6708    0.5034 C   0  0  0  0  0  0  0  0  0  0  0  0
    1.2286    0.5800    1.0014 C   0  0  0  0  0  0  0  0  0  0  0  0
    1.5703    1.2663   -0.3051 C   0  0  0  0  0  0  0  0  0  0  0  0
    1.0808    0.0484   -1.0062 C   0  0  0  0  0  0  0  0  0  0  0  0
    1.3272   -0.4527   -2.0870 O   0  0  0  0  0  0  0  0  0  0  0  0
   -1.9711    0.4157   -1.8759 H   0  0  0  0  0  0  0  0  0  0  0  0
   -3.1182    0.0234   -0.5678 H   0  0  0  0  0  0  0  0  0  0  0  0
   -1.8871   -1.1614   -1.0571 H   0  0  0  0  0  0  0  0  0  0  0  0
   -0.9503    1.5645   -0.1052 H   0  0  0  0  0  0  0  0  0  0  0  0
   -1.5898    0.4533    1.1396 H   0  0  0  0  0  0  0  0  0  0  0  0
   -0.0441   -2.2574   -0.4230 H   0  0  0  0  0  0  0  0  0  0  0  0
    1.1856   -1.9724    0.8384 H   0  0  0  0  0  0  0  0  0  0  0  0
   -0.5214   -1.8890    1.3270 H   0  0  0  0  0  0  0  0  0  0  0  0
    0.7859    1.2932    1.7185 H   0  0  0  0  0  0  0  0  0  0  0  0
    2.0497   -0.0413    1.3595 H   0  0  0  0  0  0  0  0  0  0  0  0
    0.9561    2.1625   -0.5127 H   0  0  0  0  0  0  0  0  0  0  0  0
    2.6661    1.4238   -0.3644 H   0  0  0  0  0  0  0  0  0  0  0  0
  1  2  1  0
  2  3  1  0
  3  4  1  0
  3  5  1  0
  5  6  1  0
  6  7  1  0
  7  8  2  0
  7  3  1  0
  1  9  1  0
  1 10  1  0
  1 11  1  0
  2 12  1  0
  2 13  1  0
  4 14  1  0
  4 15  1  0
  4 16  1  0
  5 17  1  0
  5 18  1  0
  6 19  1  0
  6 20  1  0
M  END
