
     RDKit          3D

 22 22  0  0  0  0  0  0  0  0999 V2000
    2.1003   -0.7622    0.4894 C   0  0  0  0  0  0  0  0  0  0  0  0
    0.9183   -0.7440   -0.4056 C   0  0  0  0  0  0  0  0  0  0  0  0
   -0.0251    0.3933   -0.2148 C   0  0  0  0  0  0  0  0  0  0  0  0
    0.5346    1.7438   -0.4103 C   0  0  0  0  0  0  0  0  0  0  0  0
   -0.7180    0.3186    1.1292 C   0  0  0  0  0  0  0  0  0  0  0  0
   -1.7110   -0.7617    0.9534 C   0  0  0  0  0  0  0  0  0  0  0  0
   -1.9968   -0.8695   -0.3247 C   0  0  0  0  0  0  0  0  0  0  0  0
   -1.2280    0.1227   -1.1339 C   0  0  0  0  0  0  0  0  0  0  0  0
    3.0031   -0.4288   -0.0720 H   0  0  0  0  0  0  0  0  0  0  0  0
    2.3110   -1.8113    0.7889 H   0  0  0  0  0  0  0  0  0  0  0  0
    1.9795   -0.1980    1.4400 H   0  0  0  0  0  0  0  0  0  0  0  0
    1.2679   -0.8128   -1.4561 H   0  0  0  0  0  0  0  0  0  0  0  0
    0.3174   -1.6877   -0.2460 H   0  0  0  0  0  0  0  0  0  0  0  0
    0.2529    2.4462    0.4239 H   0  0  0  0  0  0  0  0  0  0  0  0
    0.0754    2.1961   -1.3340 H   0  0  0  0  0  0  0  0  0  0  0  0
    1.6122    1.8195   -0.5270 H   0  0  0  0  0  0  0  0  0  0  0  0
    0.0167    0.0663    1.9139 H   0  0  0  0  0  0  0  0  0  0  0  0
   -1.2118    1.2854    1.3764 H   0  0  0  0  0  0  0  0  0  0  0  0
   -2.1427   -1.3739    1.7383 H   0  0  0  0  0  0  0  0  0  0  0  0
   -2.7000   -1.5869   -0.7354 H   0  0  0  0  0  0  0  0  0  0  0  0
   -1.7851    1.0325   -1.3508 H   0  0  0  0  0  0  0  0  0  0  0  0
   -0.8708   -0.3876   -2.0428 H   0  0  0  0  0  0  0  0  0  0  0  0
  1  2  1  0
  2  3  1  0
  3  4  1  0
  3  5  1  0
  5  6  1  0
  6  7  2  0
  7  8  1  0
  8  3  1  0
  1  9  1  0
  1 10  1  0
  1 11  1  0
  2 12  1  0
  2 13  1  0
  4 14  1  0
  4 15  1  0
  4 16  1  0
  5 17  1  0
  5 18  1  0
  6 19  1  0
  7 20  1  0
  8 21  1  0
  8 22  1  0
M  END
