
     RDKit          3D

 21 22  0  0  0  0  0  0  0  0999 V2000
    2.7511    0.4162    0.3128 C   0  0  0  0  0  0  0  0  0  0  0  0
    1.8110   -0.6152   -0.2678 C   0  0  0  0  0  0  0  0  0  0  0  0
    0.3989   -0.2572   -0.1033 C   0  0  0  0  0  0  0  0  0  0  0  0
   -0.1244    0.8197    0.4711 C   0  0  0  0  0  0  0  0  0  0  0  0
   -1.5707    0.7362    0.3994 C   0  0  0  0  0  0  0  0  0  0  0  0
   -2.5836    0.9359   -0.5415 C   0  0  0  0  0  0  0  0  0  0  0  0
   -1.5627    0.1414   -1.0677 C   0  0  0  0  0  0  0  0  0  0  0  0
   -0.7731   -1.0475   -0.5986 C   0  0  0  0  0  0  0  0  0  0  0  0
   -1.4209   -1.7208    0.4281 O   0  0  0  0  0  0  0  0  0  0  0  0
    2.3419    1.4294    0.0290 H   0  0  0  0  0  0  0  0  0  0  0  0
    2.7354    0.3505    1.4032 H   0  0  0  0  0  0  0  0  0  0  0  0
    3.7578    0.3661   -0.1338 H   0  0  0  0  0  0  0  0  0  0  0  0
    2.1112   -0.7215   -1.3480 H   0  0  0  0  0  0  0  0  0  0  0  0
    2.0679   -1.6002    0.1997 H   0  0  0  0  0  0  0  0  0  0  0  0
    0.4678    1.6159    0.9136 H   0  0  0  0  0  0  0  0  0  0  0  0
   -1.8807    0.0004    1.2158 H   0  0  0  0  0  0  0  0  0  0  0  0
   -3.6037    0.4650   -0.4273 H   0  0  0  0  0  0  0  0  0  0  0  0
   -2.7514    1.9908   -0.9037 H   0  0  0  0  0  0  0  0  0  0  0  0
   -0.8968    0.6990   -1.8040 H   0  0  0  0  0  0  0  0  0  0  0  0
   -0.5063   -1.7537   -1.3891 H   0  0  0  0  0  0  0  0  0  0  0  0
   -0.7689   -2.2501    0.9758 H   0  0  0  0  0  0  0  0  0  0  0  0
  1  2  1  0
  2  3  1  0
  3  4  2  0
  4  5  1  0
  5  6  1  0
  6  7  1  0
  7  8  1  0
  8  9  1  0
  8  3  1  0
  7  5  1  0
  1 10  1  0
  1 11  1  0
  1 12  1  0
  2 13  1  0
  2 14  1  0
  4 15  1  0
  5 16  1  0
  6 17  1  0
  6 18  1  0
  7 19  1  0
  8 20  1  0
  9 21  1  0
M  END
