
     RDKit          3D

 25 26  0  0  0  0  0  0  0  0999 V2000
   -2.4342   -0.5264    0.2439 C   0  0  0  0  0  0  0  0  0  0  0  0
   -1.2468   -0.0643    1.0593 C   0  0  0  0  0  0  0  0  0  0  0  0
   -0.1888    0.3852    0.0911 C   0  0  0  0  0  0  0  0  0  0  0  0
   -0.7227    1.5072   -0.7441 C   0  0  0  0  0  0  0  0  0  0  0  0
    1.0908    0.8127    0.8354 C   0  0  0  0  0  0  0  0  0  0  0  0
    2.0554   -0.1576    0.2380 C   0  0  0  0  0  0  0  0  0  0  0  0
    1.6748   -0.1702   -1.2349 C   0  0  0  0  0  0  0  0  0  0  0  0
    0.3594   -0.7552   -0.6958 C   0  0  0  0  0  0  0  0  0  0  0  0
    1.2656   -1.4667    0.2883 C   0  0  0  0  0  0  0  0  0  0  0  0
   -2.1920   -1.3953   -0.3949 H   0  0  0  0  0  0  0  0  0  0  0  0
   -3.2676   -0.8374    0.9044 H   0  0  0  0  0  0  0  0  0  0  0  0
   -2.7593    0.2879   -0.4477 H   0  0  0  0  0  0  0  0  0  0  0  0
   -0.9434   -0.8497    1.7433 H   0  0  0  0  0  0  0  0  0  0  0  0
   -1.6033    0.7922    1.6731 H   0  0  0  0  0  0  0  0  0  0  0  0
    0.0287    2.2969   -0.9317 H   0  0  0  0  0  0  0  0  0  0  0  0
   -1.2041    1.1438   -1.6699 H   0  0  0  0  0  0  0  0  0  0  0  0
   -1.5399    2.0108   -0.1529 H   0  0  0  0  0  0  0  0  0  0  0  0
    0.9734    0.7545    1.9158 H   0  0  0  0  0  0  0  0  0  0  0  0
    1.3479    1.8243    0.4676 H   0  0  0  0  0  0  0  0  0  0  0  0
    3.0752   -0.1723    0.5087 H   0  0  0  0  0  0  0  0  0  0  0  0
    2.2402   -0.9388   -1.7937 H   0  0  0  0  0  0  0  0  0  0  0  0
    1.5478    0.8059   -1.6976 H   0  0  0  0  0  0  0  0  0  0  0  0
   -0.2380   -1.3186   -1.3592 H   0  0  0  0  0  0  0  0  0  0  0  0
    1.7992   -2.3355   -0.1315 H   0  0  0  0  0  0  0  0  0  0  0  0
    0.8818   -1.6334    1.2850 H   0  0  0  0  0  0  0  0  0  0  0  0
  1  2  1  0
  2  3  1  0
  3  4  1  0
  3  5  1  0
  5  6  1  0
  6  7  1  0
  7  8  1  0
  8  9  1  0
  8  3  1  0
  9  6  1  0
  1 10  1  0
  1 11  1  0
  1 12  1  0
  2 13  1  0
  2 14  1  0
  4 15  1  0
  4 16  1  0
  4 17  1  0
  5 18  1  0
  5 19  1  0
  6 20  1  0
  7 21  1  0
  7 22  1  0
  8 23  1  0
  9 24  1  0
  9 25  1  0
M  END
