
     RDKit          3D

 23 23  0  0  0  0  0  0  0  0999 V2000
    2.4143   -0.4954   -0.0797 C   0  0  0  0  0  0  0  0  0  0  0  0
    1.1978   -0.1691   -0.8951 C   0  0  0  0  0  0  0  0  0  0  0  0
   -0.0867   -0.3424   -0.0768 C   0  0  0  0  0  0  0  0  0  0  0  0
   -0.1242    0.5388    1.1261 C   0  0  0  0  0  0  0  0  0  0  0  0
   -0.0416    1.9828    0.6303 C   0  0  0  0  0  0  0  0  0  0  0  0
   -0.6552   -1.7130   -0.0914 C   0  0  0  0  0  0  0  0  0  0  0  0
   -1.3618   -0.5833   -0.8276 C   0  0  0  0  0  0  0  0  0  0  0  0
   -2.6766   -0.1870   -0.2703 C   0  0  0  0  0  0  0  0  0  0  0  0
   -2.9547   -0.2503    0.9034 O   0  0  0  0  0  0  0  0  0  0  0  0
    2.1543   -0.9284    0.9144 H   0  0  0  0  0  0  0  0  0  0  0  0
    3.0145    0.4273    0.1401 H   0  0  0  0  0  0  0  0  0  0  0  0
    3.1211   -1.1779   -0.6265 H   0  0  0  0  0  0  0  0  0  0  0  0
    1.0797   -0.8335   -1.7793 H   0  0  0  0  0  0  0  0  0  0  0  0
    1.2864    0.8648   -1.2897 H   0  0  0  0  0  0  0  0  0  0  0  0
    0.8198    0.3824    1.7308 H   0  0  0  0  0  0  0  0  0  0  0  0
   -0.9359    0.3643    1.8243 H   0  0  0  0  0  0  0  0  0  0  0  0
   -0.9185    2.5246    1.0738 H   0  0  0  0  0  0  0  0  0  0  0  0
    0.8974    2.4760    0.9079 H   0  0  0  0  0  0  0  0  0  0  0  0
   -0.1581    2.0505   -0.4636 H   0  0  0  0  0  0  0  0  0  0  0  0
   -1.1821   -2.1360    0.7929 H   0  0  0  0  0  0  0  0  0  0  0  0
   -0.2361   -2.4769   -0.7571 H   0  0  0  0  0  0  0  0  0  0  0  0
   -1.2212   -0.4980   -1.9388 H   0  0  0  0  0  0  0  0  0  0  0  0
   -3.4325    0.1799   -0.9482 H   0  0  0  0  0  0  0  0  0  0  0  0
  1  2  1  0
  2  3  1  0
  3  4  1  0
  4  5  1  0
  3  6  1  0
  6  7  1  0
  7  8  1  0
  8  9  2  0
  7  3  1  0
  1 10  1  0
  1 11  1  0
  1 12  1  0
  2 13  1  0
  2 14  1  0
  4 15  1  0
  4 16  1  0
  5 17  1  0
  5 18  1  0
  5 19  1  0
  6 20  1  0
  6 21  1  0
  7 22  1  0
  8 23  1  0
M  END
