
     RDKit          3D

 19 20  0  0  0  0  0  0  0  0999 V2000
   -2.4196    0.4677   -0.4892 C   0  0  0  0  0  0  0  0  0  0  0  0
   -1.6040   -0.2243    0.5763 C   0  0  0  0  0  0  0  0  0  0  0  0
   -0.3105   -0.6716   -0.0545 C   0  0  0  0  0  0  0  0  0  0  0  0
    0.6366   -1.3730    0.8185 C   0  0  0  0  0  0  0  0  0  0  0  0
    0.6569   -2.2287    1.6791 O   0  0  0  0  0  0  0  0  0  0  0  0
    1.7275   -0.5688    0.2096 C   0  0  0  0  0  0  0  0  0  0  0  0
    1.7105    0.8722    0.5279 C   0  0  0  0  0  0  0  0  0  0  0  0
    2.7697    1.5914   -0.0564 O   0  0  0  0  0  0  0  0  0  0  0  0
    0.6653    0.4161   -0.3815 C   0  0  0  0  0  0  0  0  0  0  0  0
   -3.3055   -0.1299   -0.8074 H   0  0  0  0  0  0  0  0  0  0  0  0
   -1.8102    0.6619   -1.4076 H   0  0  0  0  0  0  0  0  0  0  0  0
   -2.8124    1.4499   -0.1686 H   0  0  0  0  0  0  0  0  0  0  0  0
   -1.4402    0.4199    1.4607 H   0  0  0  0  0  0  0  0  0  0  0  0
   -2.1651   -1.1445    0.8575 H   0  0  0  0  0  0  0  0  0  0  0  0
   -0.5590   -1.3303   -0.9380 H   0  0  0  0  0  0  0  0  0  0  0  0
    2.4205   -1.0161   -0.5096 H   0  0  0  0  0  0  0  0  0  0  0  0
    1.5246    1.1910    1.5736 H   0  0  0  0  0  0  0  0  0  0  0  0
    3.5577    0.9914   -0.1546 H   0  0  0  0  0  0  0  0  0  0  0  0
    0.7572    0.6259   -1.4649 H   0  0  0  0  0  0  0  0  0  0  0  0
  1  2  1  0
  2  3  1  0
  3  4  1  0
  4  5  2  0
  4  6  1  0
  6  7  1  0
  7  8  1  0
  7  9  1  0
  9  3  1  0
  9  6  1  0
  1 10  1  0
  1 11  1  0
  1 12  1  0
  2 13  1  0
  2 14  1  0
  3 15  1  0
  6 16  1  0
  7 17  1  0
  8 18  1  0
  9 19  1  0
M  END
