
     RDKit          3D

 21 23  0  0  0  0  0  0  0  0999 V2000
    2.4715   -0.4030    0.1596 C   0  0  0  0  0  0  0  0  0  0  0  0
    1.4529    0.2127   -0.7976 C   0  0  0  0  0  0  0  0  0  0  0  0
    0.1172    0.2179   -0.0981 C   0  0  0  0  0  0  0  0  0  0  0  0
   -0.3865   -1.1291    0.3006 C   0  0  0  0  0  0  0  0  0  0  0  0
   -1.8538   -0.9621    0.5164 C   0  0  0  0  0  0  0  0  0  0  0  0
   -2.6279   -1.0359   -0.7153 O   0  0  0  0  0  0  0  0  0  0  0  0
   -2.3022    0.2113   -0.2779 C   0  0  0  0  0  0  0  0  0  0  0  0
   -1.0541    0.9139   -0.6407 C   0  0  0  0  0  0  0  0  0  0  0  0
   -0.2763    1.4580    0.5705 C   0  0  0  0  0  0  0  0  0  0  0  0
    2.3601    0.0392    1.1730 H   0  0  0  0  0  0  0  0  0  0  0  0
    3.5061   -0.2216   -0.1554 H   0  0  0  0  0  0  0  0  0  0  0  0
    2.3444   -1.5048    0.2270 H   0  0  0  0  0  0  0  0  0  0  0  0
    1.8052    1.2236   -1.0472 H   0  0  0  0  0  0  0  0  0  0  0  0
    1.3766   -0.4665   -1.6553 H   0  0  0  0  0  0  0  0  0  0  0  0
    0.1567   -1.5886    1.1363 H   0  0  0  0  0  0  0  0  0  0  0  0
   -0.2499   -1.8083   -0.5808 H   0  0  0  0  0  0  0  0  0  0  0  0
   -2.3581   -1.2881    1.4203 H   0  0  0  0  0  0  0  0  0  0  0  0
   -3.1063    0.8673    0.1360 H   0  0  0  0  0  0  0  0  0  0  0  0
   -0.9222    1.4287   -1.6101 H   0  0  0  0  0  0  0  0  0  0  0  0
   -0.7950    1.4827    1.5482 H   0  0  0  0  0  0  0  0  0  0  0  0
    0.3417    2.3527    0.3903 H   0  0  0  0  0  0  0  0  0  0  0  0
  1  2  1  0
  2  3  1  0
  3  4  1  0
  4  5  1  0
  5  6  1  0
  6  7  1  0
  7  8  1  0
  8  9  1  0
  8  3  1  0
  9  3  1  0
  7  5  1  0
  1 10  1  0
  1 11  1  0
  1 12  1  0
  2 13  1  0
  2 14  1  0
  4 15  1  0
  4 16  1  0
  5 17  1  0
  7 18  1  0
  8 19  1  0
  9 20  1  0
  9 21  1  0
M  END
