
     RDKit          3D

 23 24  0  0  0  0  0  0  0  0999 V2000
    2.7662   -0.2527   -0.2410 C   0  0  0  0  0  0  0  0  0  0  0  0
    1.3893   -0.7543   -0.6778 C   0  0  0  0  0  0  0  0  0  0  0  0
    0.3740   -0.0691    0.1563 C   0  0  0  0  0  0  0  0  0  0  0  0
    0.3809   -0.2120    1.5425 O   0  0  0  0  0  0  0  0  0  0  0  0
   -0.9909   -0.3873    1.6358 C   0  0  0  0  0  0  0  0  0  0  0  0
   -1.0587   -0.3270    0.1350 C   0  0  0  0  0  0  0  0  0  0  0  0
   -1.7302   -1.3917   -0.6529 C   0  0  0  0  0  0  0  0  0  0  0  0
   -0.5385    0.9068   -0.4858 C   0  0  0  0  0  0  0  0  0  0  0  0
   -0.8062    2.2426    0.1828 C   0  0  0  0  0  0  0  0  0  0  0  0
    3.1788   -0.9959    0.4522 H   0  0  0  0  0  0  0  0  0  0  0  0
    2.6619    0.7010    0.3117 H   0  0  0  0  0  0  0  0  0  0  0  0
    3.4186   -0.0833   -1.1332 H   0  0  0  0  0  0  0  0  0  0  0  0
    1.2605   -0.4295   -1.7298 H   0  0  0  0  0  0  0  0  0  0  0  0
    1.3786   -1.8607   -0.5933 H   0  0  0  0  0  0  0  0  0  0  0  0
   -1.3495   -1.3117    2.0849 H   0  0  0  0  0  0  0  0  0  0  0  0
   -1.4312    0.5082    2.1524 H   0  0  0  0  0  0  0  0  0  0  0  0
   -2.2841   -0.9091   -1.4898 H   0  0  0  0  0  0  0  0  0  0  0  0
   -2.4760   -1.8832    0.0128 H   0  0  0  0  0  0  0  0  0  0  0  0
   -1.0538   -2.1596   -1.0683 H   0  0  0  0  0  0  0  0  0  0  0  0
   -0.5245    0.9362   -1.5791 H   0  0  0  0  0  0  0  0  0  0  0  0
   -0.4485    3.0373   -0.4826 H   0  0  0  0  0  0  0  0  0  0  0  0
   -0.2221    2.3021    1.1271 H   0  0  0  0  0  0  0  0  0  0  0  0
   -1.8946    2.3927    0.3401 H   0  0  0  0  0  0  0  0  0  0  0  0
  1  2  1  0
  2  3  1  0
  3  4  1  0
  4  5  1  0
  5  6  1  0
  6  7  1  0
  6  8  1  0
  8  9  1  0
  6  3  1  0
  8  3  1  0
  1 10  1  0
  1 11  1  0
  1 12  1  0
  2 13  1  0
  2 14  1  0
  5 15  1  0
  5 16  1  0
  7 17  1  0
  7 18  1  0
  7 19  1  0
  8 20  1  0
  9 21  1  0
  9 22  1  0
  9 23  1  0
M  END
