
     RDKit          3D

 23 25  0  0  0  0  0  0  0  0999 V2000
    2.8335   -0.0029    1.0212 C   0  0  0  0  0  0  0  0  0  0  0  0
    2.2179   -0.4092   -0.3200 C   0  0  0  0  0  0  0  0  0  0  0  0
    0.7320   -0.7008   -0.1056 C   0  0  0  0  0  0  0  0  0  0  0  0
   -0.0504    0.4242    0.4055 C   0  0  0  0  0  0  0  0  0  0  0  0
   -1.4891    0.3329    0.7890 C   0  0  0  0  0  0  0  0  0  0  0  0
   -2.0109   -0.9799    0.2206 C   0  0  0  0  0  0  0  0  0  0  0  0
   -1.6399   -0.3263   -1.1100 C   0  0  0  0  0  0  0  0  0  0  0  0
   -2.1657    0.9548   -0.4442 C   0  0  0  0  0  0  0  0  0  0  0  0
   -0.1683   -0.0871   -1.0770 C   0  0  0  0  0  0  0  0  0  0  0  0
    3.3730    0.9535    0.8814 H   0  0  0  0  0  0  0  0  0  0  0  0
    3.5560   -0.7857    1.3392 H   0  0  0  0  0  0  0  0  0  0  0  0
    2.0279    0.1185    1.7994 H   0  0  0  0  0  0  0  0  0  0  0  0
    2.3641    0.4062   -1.0648 H   0  0  0  0  0  0  0  0  0  0  0  0
    2.7217   -1.2986   -0.7093 H   0  0  0  0  0  0  0  0  0  0  0  0
    0.5675   -1.7062    0.3303 H   0  0  0  0  0  0  0  0  0  0  0  0
    0.3902    1.4351    0.4836 H   0  0  0  0  0  0  0  0  0  0  0  0
   -1.8302    0.6469    1.7422 H   0  0  0  0  0  0  0  0  0  0  0  0
   -3.1117   -0.9978    0.3086 H   0  0  0  0  0  0  0  0  0  0  0  0
   -1.4583   -1.8743    0.4821 H   0  0  0  0  0  0  0  0  0  0  0  0
   -2.1299   -0.6591   -1.9878 H   0  0  0  0  0  0  0  0  0  0  0  0
   -1.7057    1.8720   -0.8019 H   0  0  0  0  0  0  0  0  0  0  0  0
   -3.2457    0.9037   -0.3359 H   0  0  0  0  0  0  0  0  0  0  0  0
    0.2219    0.5786   -1.8467 H   0  0  0  0  0  0  0  0  0  0  0  0
  1  2  1  0
  2  3  1  0
  3  4  1  0
  4  5  1  0
  5  6  1  0
  6  7  1  0
  7  8  1  0
  7  9  1  0
  9  3  1  0
  9  4  1  0
  8  5  1  0
  1 10  1  0
  1 11  1  0
  1 12  1  0
  2 13  1  0
  2 14  1  0
  3 15  1  0
  4 16  1  0
  5 17  1  0
  6 18  1  0
  6 19  1  0
  7 20  1  0
  8 21  1  0
  8 22  1  0
  9 23  1  0
M  END
