
     RDKit          3D

 23 24  0  0  0  0  0  0  0  0999 V2000
    1.6298   -1.6878    0.2589 C   0  0  0  0  0  0  0  0  0  0  0  0
    1.7837   -0.1791    0.1426 C   0  0  0  0  0  0  0  0  0  0  0  0
    0.4050    0.4793   -0.0360 C   0  0  0  0  0  0  0  0  0  0  0  0
    0.5819    2.0065   -0.1519 C   0  0  0  0  0  0  0  0  0  0  0  0
   -0.6642    2.6157   -0.3145 O   0  0  0  0  0  0  0  0  0  0  0  0
   -0.7289    0.0727    0.7180 C   0  0  0  0  0  0  0  0  0  0  0  0
   -2.1716   -0.1025    0.2398 C   0  0  0  0  0  0  0  0  0  0  0  0
   -1.4957   -1.3380   -0.4025 C   0  0  0  0  0  0  0  0  0  0  0  0
   -0.5300   -0.2434   -0.8272 C   0  0  0  0  0  0  0  0  0  0  0  0
    1.0785   -2.0727   -0.6248 H   0  0  0  0  0  0  0  0  0  0  0  0
    2.6591   -2.1008    0.2621 H   0  0  0  0  0  0  0  0  0  0  0  0
    1.1512   -1.9949    1.1970 H   0  0  0  0  0  0  0  0  0  0  0  0
    2.4164   -0.0066   -0.7607 H   0  0  0  0  0  0  0  0  0  0  0  0
    2.3169    0.2191    1.0049 H   0  0  0  0  0  0  0  0  0  0  0  0
    1.2747    2.2600   -0.9718 H   0  0  0  0  0  0  0  0  0  0  0  0
    0.9856    2.3176    0.8345 H   0  0  0  0  0  0  0  0  0  0  0  0
   -0.4973    3.5957   -0.1521 H   0  0  0  0  0  0  0  0  0  0  0  0
   -0.5106   -0.8204    1.3871 H   0  0  0  0  0  0  0  0  0  0  0  0
   -2.4806    0.6235   -0.5139 H   0  0  0  0  0  0  0  0  0  0  0  0
   -2.8516   -0.3325    1.0503 H   0  0  0  0  0  0  0  0  0  0  0  0
   -1.1737   -1.9948    0.3993 H   0  0  0  0  0  0  0  0  0  0  0  0
   -2.0452   -1.7654   -1.2381 H   0  0  0  0  0  0  0  0  0  0  0  0
   -1.1333    0.4487   -1.5012 H   0  0  0  0  0  0  0  0  0  0  0  0
  1  2  1  0
  2  3  1  0
  3  4  1  0
  4  5  1  0
  3  6  1  0
  6  7  1  0
  7  8  1  0
  8  9  1  0
  9  3  1  0
  9  6  1  0
  1 10  1  0
  1 11  1  0
  1 12  1  0
  2 13  1  0
  2 14  1  0
  4 15  1  0
  4 16  1  0
  5 17  1  0
  6 18  1  0
  7 19  1  0
  7 20  1  0
  8 21  1  0
  8 22  1  0
  9 23  1  0
M  END
