
     RDKit          3D

 25 25  0  0  0  0  0  0  0  0999 V2000
    2.9428   -0.0606   -0.7731 C   0  0  0  0  0  0  0  0  0  0  0  0
    2.2765   -0.0981    0.5927 C   0  0  0  0  0  0  0  0  0  0  0  0
    0.7935   -0.3291    0.4453 C   0  0  0  0  0  0  0  0  0  0  0  0
    0.1231   -1.3513    0.9483 C   0  0  0  0  0  0  0  0  0  0  0  0
   -1.3190   -1.2756    0.6164 C   0  0  0  0  0  0  0  0  0  0  0  0
   -1.2575   -0.4015   -0.6520 C   0  0  0  0  0  0  0  0  0  0  0  0
   -2.5723    0.2168   -0.9486 C   0  0  0  0  0  0  0  0  0  0  0  0
   -0.1761    0.5387   -0.2650 C   0  0  0  0  0  0  0  0  0  0  0  0
   -0.6395    1.5793    0.7385 C   0  0  0  0  0  0  0  0  0  0  0  0
    2.1805    0.0660   -1.5833 H   0  0  0  0  0  0  0  0  0  0  0  0
    3.4885   -1.0170   -0.9511 H   0  0  0  0  0  0  0  0  0  0  0  0
    3.6243    0.8217   -0.8759 H   0  0  0  0  0  0  0  0  0  0  0  0
    2.4775    0.8618    1.0786 H   0  0  0  0  0  0  0  0  0  0  0  0
    2.7179   -0.9264    1.1658 H   0  0  0  0  0  0  0  0  0  0  0  0
    0.6055   -2.1484    1.5390 H   0  0  0  0  0  0  0  0  0  0  0  0
   -1.6420   -2.2806    0.2874 H   0  0  0  0  0  0  0  0  0  0  0  0
   -1.9389   -0.8151    1.3824 H   0  0  0  0  0  0  0  0  0  0  0  0
   -0.9052   -1.0088   -1.5087 H   0  0  0  0  0  0  0  0  0  0  0  0
   -3.0907   -0.2865   -1.8165 H   0  0  0  0  0  0  0  0  0  0  0  0
   -3.2703    0.0258   -0.0812 H   0  0  0  0  0  0  0  0  0  0  0  0
   -2.5669    1.2799   -1.1732 H   0  0  0  0  0  0  0  0  0  0  0  0
    0.3571    0.9995   -1.1189 H   0  0  0  0  0  0  0  0  0  0  0  0
   -0.5679    1.1939    1.7775 H   0  0  0  0  0  0  0  0  0  0  0  0
   -1.6648    1.9400    0.5331 H   0  0  0  0  0  0  0  0  0  0  0  0
    0.0237    2.4755    0.6427 H   0  0  0  0  0  0  0  0  0  0  0  0
  1  2  1  0
  2  3  1  0
  3  4  2  0
  4  5  1  0
  5  6  1  0
  6  7  1  0
  6  8  1  0
  8  9  1  0
  8  3  1  0
  1 10  1  0
  1 11  1  0
  1 12  1  0
  2 13  1  0
  2 14  1  0
  4 15  1  0
  5 16  1  0
  5 17  1  0
  6 18  1  0
  7 19  1  0
  7 20  1  0
  7 21  1  0
  8 22  1  0
  9 23  1  0
  9 24  1  0
  9 25  1  0
M  END
