
     RDKit          3D

 21 21  0  0  0  0  0  0  0  0999 V2000
   -0.7985   -2.3928    0.1117 C   0  0  0  0  0  0  0  0  0  0  0  0
   -0.7396   -1.3230   -0.9515 C   0  0  0  0  0  0  0  0  0  0  0  0
   -0.0815   -0.0732   -0.3869 C   0  0  0  0  0  0  0  0  0  0  0  0
    1.3056   -0.3230    0.1006 C   0  0  0  0  0  0  0  0  0  0  0  0
    2.0230    0.8201    0.6446 C   0  0  0  0  0  0  0  0  0  0  0  0
    2.9852    1.2721    0.0276 O   0  0  0  0  0  0  0  0  0  0  0  0
   -0.0835    0.9814   -1.4213 O   0  0  0  0  0  0  0  0  0  0  0  0
   -0.8822    1.0648   -0.1755 C   0  0  0  0  0  0  0  0  0  0  0  0
   -0.5578    2.3252    0.5556 C   0  0  0  0  0  0  0  0  0  0  0  0
   -1.4403   -3.2122   -0.3381 H   0  0  0  0  0  0  0  0  0  0  0  0
   -1.3210   -1.9838    0.9779 H   0  0  0  0  0  0  0  0  0  0  0  0
    0.2179   -2.7668    0.3601 H   0  0  0  0  0  0  0  0  0  0  0  0
   -0.1605   -1.6540   -1.8503 H   0  0  0  0  0  0  0  0  0  0  0  0
   -1.7906   -1.0890   -1.2554 H   0  0  0  0  0  0  0  0  0  0  0  0
    1.2737   -1.1088    0.8928 H   0  0  0  0  0  0  0  0  0  0  0  0
    1.8881   -0.7991   -0.7360 H   0  0  0  0  0  0  0  0  0  0  0  0
    1.7422    1.2849    1.5651 H   0  0  0  0  0  0  0  0  0  0  0  0
   -1.9712    0.9806   -0.4443 H   0  0  0  0  0  0  0  0  0  0  0  0
    0.3382    2.8357    0.2141 H   0  0  0  0  0  0  0  0  0  0  0  0
   -0.5527    2.0804    1.6598 H   0  0  0  0  0  0  0  0  0  0  0  0
   -1.3946    3.0803    0.4494 H   0  0  0  0  0  0  0  0  0  0  0  0
  1  2  1  0
  2  3  1  0
  3  4  1  0
  4  5  1  0
  5  6  2  0
  3  7  1  0
  7  8  1  0
  8  9  1  0
  8  3  1  0
  1 10  1  0
  1 11  1  0
  1 12  1  0
  2 13  1  0
  2 14  1  0
  4 15  1  0
  4 16  1  0
  5 17  1  0
  8 18  1  0
  9 19  1  0
  9 20  1  0
  9 21  1  0
M  END
