
     RDKit          3D

 25 26  0  0  0  0  0  0  0  0999 V2000
    2.0237    1.1222    0.9517 C   0  0  0  0  0  0  0  0  0  0  0  0
    1.6917   -0.1313    0.2282 C   0  0  0  0  0  0  0  0  0  0  0  0
    0.3913   -0.1696   -0.4987 C   0  0  0  0  0  0  0  0  0  0  0  0
   -0.9264   -0.0004    0.2063 C   0  0  0  0  0  0  0  0  0  0  0  0
   -2.1621   -0.0566   -0.6980 C   0  0  0  0  0  0  0  0  0  0  0  0
   -1.0377   -0.7248    1.5142 C   0  0  0  0  0  0  0  0  0  0  0  0
   -1.1037    0.7834    1.4404 C   0  0  0  0  0  0  0  0  0  0  0  0
    0.3744    0.1207   -1.9902 C   0  0  0  0  0  0  0  0  0  0  0  0
    0.3576   -1.2839   -1.5763 C   0  0  0  0  0  0  0  0  0  0  0  0
    1.5130    2.0266    0.6183 H   0  0  0  0  0  0  0  0  0  0  0  0
    1.9699    0.9278    2.0546 H   0  0  0  0  0  0  0  0  0  0  0  0
    3.1259    1.3653    0.8123 H   0  0  0  0  0  0  0  0  0  0  0  0
    2.5014   -0.2969   -0.5446 H   0  0  0  0  0  0  0  0  0  0  0  0
    1.8217   -1.0149    0.9116 H   0  0  0  0  0  0  0  0  0  0  0  0
   -2.2751   -0.9979   -1.2274 H   0  0  0  0  0  0  0  0  0  0  0  0
   -2.2435    0.8535   -1.3321 H   0  0  0  0  0  0  0  0  0  0  0  0
   -3.0635    0.0095   -0.0166 H   0  0  0  0  0  0  0  0  0  0  0  0
   -1.9325   -1.3246    1.6635 H   0  0  0  0  0  0  0  0  0  0  0  0
   -0.1387   -1.1005    2.0222 H   0  0  0  0  0  0  0  0  0  0  0  0
   -0.3489    1.3866    1.9331 H   0  0  0  0  0  0  0  0  0  0  0  0
   -2.1435    1.1523    1.6751 H   0  0  0  0  0  0  0  0  0  0  0  0
    1.3309    0.5045   -2.4457 H   0  0  0  0  0  0  0  0  0  0  0  0
   -0.4951    0.6624   -2.3542 H   0  0  0  0  0  0  0  0  0  0  0  0
    1.2936   -1.8745   -1.7366 H   0  0  0  0  0  0  0  0  0  0  0  0
   -0.5244   -1.9390   -1.6110 H   0  0  0  0  0  0  0  0  0  0  0  0
  1  2  1  0
  2  3  1  0
  3  4  1  0
  4  5  1  0
  4  6  1  0
  6  7  1  0
  3  8  1  0
  8  9  1  0
  9  3  1  0
  7  4  1  0
  1 10  1  0
  1 11  1  0
  1 12  1  0
  2 13  1  0
  2 14  1  0
  5 15  1  0
  5 16  1  0
  5 17  1  0
  6 18  1  0
  6 19  1  0
  7 20  1  0
  7 21  1  0
  8 22  1  0
  8 23  1  0
  9 24  1  0
  9 25  1  0
M  END
