
     RDKit          3D

 19 20  0  0  0  0  0  0  0  0999 V2000
   -2.0902    0.6469   -0.1498 C   0  0  0  0  0  0  0  0  0  0  0  0
   -1.9129   -0.7860    0.2833 C   0  0  0  0  0  0  0  0  0  0  0  0
   -0.4382   -1.1725    0.2710 C   0  0  0  0  0  0  0  0  0  0  0  0
    0.2610   -0.3321    1.1574 O   0  0  0  0  0  0  0  0  0  0  0  0
    1.0960    0.0285    0.1219 C   0  0  0  0  0  0  0  0  0  0  0  0
    2.5578   -0.0043    0.2133 C   0  0  0  0  0  0  0  0  0  0  0  0
    1.7664    1.3080    0.0017 C   0  0  0  0  0  0  0  0  0  0  0  0
    0.3094   -0.6361   -0.8913 C   0  0  0  0  0  0  0  0  0  0  0  0
    0.2618   -0.7276   -2.0931 O   0  0  0  0  0  0  0  0  0  0  0  0
   -2.6867    1.2277    0.6010 H   0  0  0  0  0  0  0  0  0  0  0  0
   -1.1182    1.1660   -0.2524 H   0  0  0  0  0  0  0  0  0  0  0  0
   -2.6714    0.6866   -1.0940 H   0  0  0  0  0  0  0  0  0  0  0  0
   -2.3600   -0.8973    1.2762 H   0  0  0  0  0  0  0  0  0  0  0  0
   -2.4570   -1.4527   -0.4155 H   0  0  0  0  0  0  0  0  0  0  0  0
   -0.2546   -2.2396    0.5066 H   0  0  0  0  0  0  0  0  0  0  0  0
    3.1309   -0.3958   -0.6358 H   0  0  0  0  0  0  0  0  0  0  0  0
    2.9721   -0.1609    1.2485 H   0  0  0  0  0  0  0  0  0  0  0  0
    1.7210    2.0022    0.8655 H   0  0  0  0  0  0  0  0  0  0  0  0
    1.9128    1.7390   -1.0145 H   0  0  0  0  0  0  0  0  0  0  0  0
  1  2  1  0
  2  3  1  0
  3  4  1  0
  4  5  1  0
  5  6  1  0
  6  7  1  0
  5  8  1  0
  8  9  2  0
  8  3  1  0
  7  5  1  0
  1 10  1  0
  1 11  1  0
  1 12  1  0
  2 13  1  0
  2 14  1  0
  3 15  1  0
  6 16  1  0
  6 17  1  0
  7 18  1  0
  7 19  1  0
M  END
