
     RDKit          3D

 25 26  0  0  0  0  0  0  0  0999 V2000
    2.9761    0.8737   -0.1710 C   0  0  0  0  0  0  0  0  0  0  0  0
    2.6050   -0.2342    0.7792 C   0  0  0  0  0  0  0  0  0  0  0  0
    1.1614   -0.5819    0.7596 C   0  0  0  0  0  0  0  0  0  0  0  0
    0.2344    0.5808    1.1365 C   0  0  0  0  0  0  0  0  0  0  0  0
    0.2016   -0.0209   -0.2089 C   0  0  0  0  0  0  0  0  0  0  0  0
   -0.9465   -0.9300   -0.6116 C   0  0  0  0  0  0  0  0  0  0  0  0
   -1.8975   -1.4438    0.3833 C   0  0  0  0  0  0  0  0  0  0  0  0
   -2.3323   -0.4434   -0.6481 C   0  0  0  0  0  0  0  0  0  0  0  0
   -2.7117    0.9526   -0.2374 C   0  0  0  0  0  0  0  0  0  0  0  0
    2.6459    0.6840   -1.2119 H   0  0  0  0  0  0  0  0  0  0  0  0
    2.5398    1.8454    0.1364 H   0  0  0  0  0  0  0  0  0  0  0  0
    4.0765    1.0112   -0.1837 H   0  0  0  0  0  0  0  0  0  0  0  0
    2.9540    0.0713    1.7862 H   0  0  0  0  0  0  0  0  0  0  0  0
    3.2296   -1.1218    0.4916 H   0  0  0  0  0  0  0  0  0  0  0  0
    0.8848   -1.5307    1.2610 H   0  0  0  0  0  0  0  0  0  0  0  0
   -0.5885    0.3907    1.8380 H   0  0  0  0  0  0  0  0  0  0  0  0
    0.6806    1.5992    1.1926 H   0  0  0  0  0  0  0  0  0  0  0  0
    0.6158    0.5366   -1.0860 H   0  0  0  0  0  0  0  0  0  0  0  0
   -0.6375   -1.6492   -1.4194 H   0  0  0  0  0  0  0  0  0  0  0  0
   -2.2240   -2.5036    0.2943 H   0  0  0  0  0  0  0  0  0  0  0  0
   -1.9531   -1.0685    1.4226 H   0  0  0  0  0  0  0  0  0  0  0  0
   -3.0279   -0.8756   -1.4112 H   0  0  0  0  0  0  0  0  0  0  0  0
   -3.1398    1.4745   -1.1057 H   0  0  0  0  0  0  0  0  0  0  0  0
   -1.8560    1.5380    0.1427 H   0  0  0  0  0  0  0  0  0  0  0  0
   -3.4908    0.8455    0.5693 H   0  0  0  0  0  0  0  0  0  0  0  0
  1  2  1  0
  2  3  1  0
  3  4  1  0
  4  5  1  0
  5  6  1  0
  6  7  1  0
  7  8  1  0
  8  9  1  0
  5  3  1  0
  8  6  1  0
  1 10  1  0
  1 11  1  0
  1 12  1  0
  2 13  1  0
  2 14  1  0
  3 15  1  0
  4 16  1  0
  4 17  1  0
  5 18  1  0
  6 19  1  0
  7 20  1  0
  7 21  1  0
  8 22  1  0
  9 23  1  0
  9 24  1  0
  9 25  1  0
M  END
