
     RDKit          3D

 25 26  0  0  0  0  0  0  0  0999 V2000
    3.0612   -0.3152   -0.1437 C   0  0  0  0  0  0  0  0  0  0  0  0
    1.8115   -1.0705    0.3137 C   0  0  0  0  0  0  0  0  0  0  0  0
    0.6676   -0.1401    0.1717 C   0  0  0  0  0  0  0  0  0  0  0  0
    0.7006    1.1174    0.9352 C   0  0  0  0  0  0  0  0  0  0  0  0
   -0.3466    0.1156    1.1894 C   0  0  0  0  0  0  0  0  0  0  0  0
   -1.4287    0.0973    0.1115 C   0  0  0  0  0  0  0  0  0  0  0  0
   -2.5855   -0.7676    0.4561 C   0  0  0  0  0  0  0  0  0  0  0  0
   -1.7631    1.4907   -0.3760 C   0  0  0  0  0  0  0  0  0  0  0  0
   -0.3837   -0.5034   -0.8035 C   0  0  0  0  0  0  0  0  0  0  0  0
    3.4509   -0.7024   -1.0963 H   0  0  0  0  0  0  0  0  0  0  0  0
    2.8715    0.7620   -0.2618 H   0  0  0  0  0  0  0  0  0  0  0  0
    3.8509   -0.4145    0.6343 H   0  0  0  0  0  0  0  0  0  0  0  0
    1.9808   -1.4762    1.3149 H   0  0  0  0  0  0  0  0  0  0  0  0
    1.7022   -1.9438   -0.3909 H   0  0  0  0  0  0  0  0  0  0  0  0
    1.4868    1.2090    1.6982 H   0  0  0  0  0  0  0  0  0  0  0  0
    0.4186    2.0938    0.4857 H   0  0  0  0  0  0  0  0  0  0  0  0
   -0.4825   -0.4290    2.1126 H   0  0  0  0  0  0  0  0  0  0  0  0
   -2.3772   -1.3206    1.4113 H   0  0  0  0  0  0  0  0  0  0  0  0
   -3.4770   -0.1037    0.5991 H   0  0  0  0  0  0  0  0  0  0  0  0
   -2.8125   -1.5073   -0.3311 H   0  0  0  0  0  0  0  0  0  0  0  0
   -2.6731    1.4470   -1.0026 H   0  0  0  0  0  0  0  0  0  0  0  0
   -1.8553    2.1583    0.4930 H   0  0  0  0  0  0  0  0  0  0  0  0
   -0.9561    1.8987   -1.0143 H   0  0  0  0  0  0  0  0  0  0  0  0
   -0.3296   -0.0811   -1.8054 H   0  0  0  0  0  0  0  0  0  0  0  0
   -0.5317   -1.6144   -0.8318 H   0  0  0  0  0  0  0  0  0  0  0  0
  1  2  1  0
  2  3  1  0
  3  4  1  0
  4  5  1  0
  5  6  1  0
  6  7  1  0
  6  8  1  0
  6  9  1  0
  5  3  1  0
  9  3  1  0
  1 10  1  0
  1 11  1  0
  1 12  1  0
  2 13  1  0
  2 14  1  0
  4 15  1  0
  4 16  1  0
  5 17  1  0
  7 18  1  0
  7 19  1  0
  7 20  1  0
  8 21  1  0
  8 22  1  0
  8 23  1  0
  9 24  1  0
  9 25  1  0
M  END
