
     RDKit          3D

 21 22  0  0  0  0  0  0  0  0999 V2000
    2.7255    0.1088    0.5586 C   0  0  0  0  0  0  0  0  0  0  0  0
    1.4625    0.8325    0.1348 C   0  0  0  0  0  0  0  0  0  0  0  0
    0.5222   -0.1669   -0.4054 C   0  0  0  0  0  0  0  0  0  0  0  0
    0.1340   -1.1932    0.4957 O   0  0  0  0  0  0  0  0  0  0  0  0
   -0.8377   -1.4142   -0.4787 C   0  0  0  0  0  0  0  0  0  0  0  0
   -2.0192   -0.6853   -0.8031 C   0  0  0  0  0  0  0  0  0  0  0  0
   -2.3812   -0.3512   -2.1335 O   0  0  0  0  0  0  0  0  0  0  0  0
   -0.9725    0.1496   -0.2651 C   0  0  0  0  0  0  0  0  0  0  0  0
   -1.2507    0.5517    1.1799 C   0  0  0  0  0  0  0  0  0  0  0  0
    2.5891   -0.2001    1.6251 H   0  0  0  0  0  0  0  0  0  0  0  0
    3.6135    0.7763    0.4440 H   0  0  0  0  0  0  0  0  0  0  0  0
    2.8793   -0.7497   -0.1181 H   0  0  0  0  0  0  0  0  0  0  0  0
    1.7960    1.5346   -0.6823 H   0  0  0  0  0  0  0  0  0  0  0  0
    1.0827    1.4997    0.9315 H   0  0  0  0  0  0  0  0  0  0  0  0
    0.8363   -0.5115   -1.3983 H   0  0  0  0  0  0  0  0  0  0  0  0
   -0.2798   -1.7215   -1.4169 H   0  0  0  0  0  0  0  0  0  0  0  0
   -2.9576   -0.9569   -0.2313 H   0  0  0  0  0  0  0  0  0  0  0  0
   -2.8233    0.5405   -2.0410 H   0  0  0  0  0  0  0  0  0  0  0  0
   -0.8675    1.5579    1.4117 H   0  0  0  0  0  0  0  0  0  0  0  0
   -0.9004   -0.2230    1.8959 H   0  0  0  0  0  0  0  0  0  0  0  0
   -2.3511    0.6219    1.2965 H   0  0  0  0  0  0  0  0  0  0  0  0
  1  2  1  0
  2  3  1  0
  3  4  1  0
  4  5  1  0
  5  6  1  0
  6  7  1  0
  6  8  1  0
  8  9  1  0
  8  3  1  0
  8  5  1  0
  1 10  1  0
  1 11  1  0
  1 12  1  0
  2 13  1  0
  2 14  1  0
  3 15  1  0
  5 16  1  0
  6 17  1  0
  7 18  1  0
  9 19  1  0
  9 20  1  0
  9 21  1  0
M  END
