
     RDKit          3D

 20 20  0  0  0  0  0  0  0  0999 V2000
   -2.8504   -0.2704   -0.0029 C   0  0  0  0  0  0  0  0  0  0  0  0
   -1.6320    0.3367    0.5968 C   0  0  0  0  0  0  0  0  0  0  0  0
   -0.3938    0.1778   -0.2332 C   0  0  0  0  0  0  0  0  0  0  0  0
   -0.0135   -1.2424   -0.4923 C   0  0  0  0  0  0  0  0  0  0  0  0
    1.3638   -1.2265   -0.3482 O   0  0  0  0  0  0  0  0  0  0  0  0
    1.7530    0.1032   -0.2744 C   0  0  0  0  0  0  0  0  0  0  0  0
    3.0824    0.2348    0.4259 C   0  0  0  0  0  0  0  0  0  0  0  0
    0.7109    0.6614    0.4669 O   0  0  0  0  0  0  0  0  0  0  0  0
   -2.6575   -0.8551   -0.9211 H   0  0  0  0  0  0  0  0  0  0  0  0
   -3.6074    0.5021   -0.2922 H   0  0  0  0  0  0  0  0  0  0  0  0
   -3.3608   -0.9055    0.7608 H   0  0  0  0  0  0  0  0  0  0  0  0
   -1.8068    1.4378    0.7068 H   0  0  0  0  0  0  0  0  0  0  0  0
   -1.4238   -0.0295    1.6230 H   0  0  0  0  0  0  0  0  0  0  0  0
   -0.4420    0.7174   -1.2012 H   0  0  0  0  0  0  0  0  0  0  0  0
   -0.5213   -1.9757    0.1504 H   0  0  0  0  0  0  0  0  0  0  0  0
   -0.2114   -1.5502   -1.5586 H   0  0  0  0  0  0  0  0  0  0  0  0
    1.7406    0.6066   -1.2706 H   0  0  0  0  0  0  0  0  0  0  0  0
    3.7214    0.9248   -0.1603 H   0  0  0  0  0  0  0  0  0  0  0  0
    3.5935   -0.7533    0.5497 H   0  0  0  0  0  0  0  0  0  0  0  0
    2.9551    0.6255    1.4748 H   0  0  0  0  0  0  0  0  0  0  0  0
  1  2  1  0
  2  3  1  0
  3  4  1  0
  4  5  1  0
  5  6  1  0
  6  7  1  0
  6  8  1  0
  8  3  1  0
  1  9  1  0
  1 10  1  0
  1 11  1  0
  2 12  1  0
  2 13  1  0
  3 14  1  0
  4 15  1  0
  4 16  1  0
  6 17  1  0
  7 18  1  0
  7 19  1  0
  7 20  1  0
M  END
