
     RDKit          3D

 25 25  0  0  0  0  0  0  0  0999 V2000
    2.7644   -0.5904    0.8023 C   0  0  0  0  0  0  0  0  0  0  0  0
    1.2863   -0.5843    1.1091 C   0  0  0  0  0  0  0  0  0  0  0  0
    0.5310    0.4937    0.4059 C   0  0  0  0  0  0  0  0  0  0  0  0
    0.4835    0.5875   -1.0740 C   0  0  0  0  0  0  0  0  0  0  0  0
   -0.7265    0.2886   -0.3123 C   0  0  0  0  0  0  0  0  0  0  0  0
   -1.3054   -1.1099   -0.5135 C   0  0  0  0  0  0  0  0  0  0  0  0
   -1.6044   -1.8038    0.7716 C   0  0  0  0  0  0  0  0  0  0  0  0
   -1.7332    1.2194   -0.0894 O   0  0  0  0  0  0  0  0  0  0  0  0
   -1.4033    2.5034   -0.4248 C   0  0  0  0  0  0  0  0  0  0  0  0
    3.3454   -0.0583    1.6125 H   0  0  0  0  0  0  0  0  0  0  0  0
    3.1654   -1.6255    0.8032 H   0  0  0  0  0  0  0  0  0  0  0  0
    3.0137   -0.0330   -0.1272 H   0  0  0  0  0  0  0  0  0  0  0  0
    1.1853   -0.5376    2.2119 H   0  0  0  0  0  0  0  0  0  0  0  0
    0.9100   -1.6010    0.8198 H   0  0  0  0  0  0  0  0  0  0  0  0
    0.6586    1.4984    0.9087 H   0  0  0  0  0  0  0  0  0  0  0  0
    0.6482    1.5691   -1.5767 H   0  0  0  0  0  0  0  0  0  0  0  0
    0.9427   -0.2353   -1.7008 H   0  0  0  0  0  0  0  0  0  0  0  0
   -2.2539   -0.9646   -1.0665 H   0  0  0  0  0  0  0  0  0  0  0  0
   -0.6537   -1.7085   -1.1929 H   0  0  0  0  0  0  0  0  0  0  0  0
   -1.1477   -2.8106    0.8344 H   0  0  0  0  0  0  0  0  0  0  0  0
   -2.6997   -1.9492    0.8572 H   0  0  0  0  0  0  0  0  0  0  0  0
   -1.2943   -1.1534    1.6174 H   0  0  0  0  0  0  0  0  0  0  0  0
   -2.2813    3.1446   -0.2025 H   0  0  0  0  0  0  0  0  0  0  0  0
   -0.5271    2.9233    0.0615 H   0  0  0  0  0  0  0  0  0  0  0  0
   -1.3041    2.5373   -1.5500 H   0  0  0  0  0  0  0  0  0  0  0  0
  1  2  1  0
  2  3  1  0
  3  4  1  0
  4  5  1  0
  5  6  1  0
  6  7  1  0
  5  8  1  0
  8  9  1  0
  5  3  1  0
  1 10  1  0
  1 11  1  0
  1 12  1  0
  2 13  1  0
  2 14  1  0
  3 15  1  0
  4 16  1  0
  4 17  1  0
  6 18  1  0
  6 19  1  0
  7 20  1  0
  7 21  1  0
  7 22  1  0
  9 23  1  0
  9 24  1  0
  9 25  1  0
M  END
