
     RDKit          3D

 19 19  0  0  0  0  0  0  0  0999 V2000
   -2.4267   -0.0199   -0.0081 C   0  0  0  0  0  0  0  0  0  0  0  0
   -1.2028    0.2550    0.8569 C   0  0  0  0  0  0  0  0  0  0  0  0
    0.0312   -0.2281    0.2250 C   0  0  0  0  0  0  0  0  0  0  0  0
    1.0816    0.4803   -0.1145 C   0  0  0  0  0  0  0  0  0  0  0  0
    1.3149    1.9241    0.0384 C   0  0  0  0  0  0  0  0  0  0  0  0
    0.4890    2.7211    0.5457 O   0  0  0  0  0  0  0  0  0  0  0  0
    2.1106   -0.4033   -0.7329 C   0  0  0  0  0  0  0  0  0  0  0  0
    1.7269   -1.6592   -0.3518 O   0  0  0  0  0  0  0  0  0  0  0  0
    0.3412   -1.6278   -0.1549 C   0  0  0  0  0  0  0  0  0  0  0  0
   -2.4406   -1.0315   -0.4183 H   0  0  0  0  0  0  0  0  0  0  0  0
   -3.3042    0.0911    0.6689 H   0  0  0  0  0  0  0  0  0  0  0  0
   -2.5464    0.7747   -0.7881 H   0  0  0  0  0  0  0  0  0  0  0  0
   -1.2384    1.3317    1.0815 H   0  0  0  0  0  0  0  0  0  0  0  0
   -1.3643   -0.2589    1.8400 H   0  0  0  0  0  0  0  0  0  0  0  0
    2.2466    2.3749   -0.2941 H   0  0  0  0  0  0  0  0  0  0  0  0
    3.1032   -0.1843   -0.3025 H   0  0  0  0  0  0  0  0  0  0  0  0
    2.1534   -0.2683   -1.8328 H   0  0  0  0  0  0  0  0  0  0  0  0
   -0.2301   -1.9981   -1.0015 H   0  0  0  0  0  0  0  0  0  0  0  0
    0.1549   -2.2736    0.7432 H   0  0  0  0  0  0  0  0  0  0  0  0
  1  2  1  0
  2  3  1  0
  3  4  2  0
  4  5  1  0
  5  6  2  0
  4  7  1  0
  7  8  1  0
  8  9  1  0
  9  3  1  0
  1 10  1  0
  1 11  1  0
  1 12  1  0
  2 13  1  0
  2 14  1  0
  5 15  1  0
  7 16  1  0
  7 17  1  0
  9 18  1  0
  9 19  1  0
M  END
