
     RDKit          3D

 23 23  0  0  0  0  0  0  0  0999 V2000
    3.2234    0.1517    0.4048 C   0  0  0  0  0  0  0  0  0  0  0  0
    2.1507   -0.6313   -0.2833 C   0  0  0  0  0  0  0  0  0  0  0  0
    0.7840   -0.0972    0.0037 C   0  0  0  0  0  0  0  0  0  0  0  0
    0.4323    0.9295    0.7532 C   0  0  0  0  0  0  0  0  0  0  0  0
   -1.0442    1.1162    0.7667 C   0  0  0  0  0  0  0  0  0  0  0  0
   -1.5734    0.2288   -0.3383 C   0  0  0  0  0  0  0  0  0  0  0  0
   -2.7674   -0.5873    0.1281 C   0  0  0  0  0  0  0  0  0  0  0  0
   -1.8952    0.9715   -1.4723 O   0  0  0  0  0  0  0  0  0  0  0  0
   -0.4406   -0.7230   -0.5782 C   0  0  0  0  0  0  0  0  0  0  0  0
    4.1836   -0.0617   -0.1160 H   0  0  0  0  0  0  0  0  0  0  0  0
    3.3784   -0.1627    1.4680 H   0  0  0  0  0  0  0  0  0  0  0  0
    3.0447    1.2447    0.3544 H   0  0  0  0  0  0  0  0  0  0  0  0
    2.3249   -0.5691   -1.3748 H   0  0  0  0  0  0  0  0  0  0  0  0
    2.1707   -1.6814    0.0396 H   0  0  0  0  0  0  0  0  0  0  0  0
    1.1467    1.5438    1.2818 H   0  0  0  0  0  0  0  0  0  0  0  0
   -1.3127    2.1699    0.4838 H   0  0  0  0  0  0  0  0  0  0  0  0
   -1.5089    0.8482    1.7124 H   0  0  0  0  0  0  0  0  0  0  0  0
   -2.7425   -0.7838    1.2184 H   0  0  0  0  0  0  0  0  0  0  0  0
   -3.7082   -0.0894   -0.1277 H   0  0  0  0  0  0  0  0  0  0  0  0
   -2.7807   -1.5795   -0.3874 H   0  0  0  0  0  0  0  0  0  0  0  0
   -2.2267    0.3343   -2.1547 H   0  0  0  0  0  0  0  0  0  0  0  0
   -0.2774   -0.8660   -1.6682 H   0  0  0  0  0  0  0  0  0  0  0  0
   -0.5616   -1.7064   -0.1141 H   0  0  0  0  0  0  0  0  0  0  0  0
  1  2  1  0
  2  3  1  0
  3  4  2  0
  4  5  1  0
  5  6  1  0
  6  7  1  0
  6  8  1  0
  6  9  1  0
  9  3  1  0
  1 10  1  0
  1 11  1  0
  1 12  1  0
  2 13  1  0
  2 14  1  0
  4 15  1  0
  5 16  1  0
  5 17  1  0
  7 18  1  0
  7 19  1  0
  7 20  1  0
  8 21  1  0
  9 22  1  0
  9 23  1  0
M  END
