
     RDKit          3D

 19 19  0  0  0  0  0  0  0  0999 V2000
    2.3715    0.6752   -0.4332 C   0  0  0  0  0  0  0  0  0  0  0  0
    0.8768    0.6512   -0.6565 C   0  0  0  0  0  0  0  0  0  0  0  0
    0.2732   -0.5339    0.0533 C   0  0  0  0  0  0  0  0  0  0  0  0
   -1.2104   -0.7521   -0.0360 C   0  0  0  0  0  0  0  0  0  0  0  0
   -1.7875    0.5500   -0.1858 O   0  0  0  0  0  0  0  0  0  0  0  0
   -3.1582    0.6981   -0.2974 C   0  0  0  0  0  0  0  0  0  0  0  0
   -3.8525   -0.3480   -0.2609 O   0  0  0  0  0  0  0  0  0  0  0  0
    0.8713   -0.9449    1.3852 C   0  0  0  0  0  0  0  0  0  0  0  0
    1.1360   -1.5995    0.2042 O   0  0  0  0  0  0  0  0  0  0  0  0
    2.7010   -0.2307    0.1021 H   0  0  0  0  0  0  0  0  0  0  0  0
    2.6639    1.6088    0.1214 H   0  0  0  0  0  0  0  0  0  0  0  0
    2.9380    0.7137   -1.3835 H   0  0  0  0  0  0  0  0  0  0  0  0
    0.6913    0.6203   -1.7462 H   0  0  0  0  0  0  0  0  0  0  0  0
    0.4357    1.5699   -0.2186 H   0  0  0  0  0  0  0  0  0  0  0  0
   -1.5089   -1.3209   -0.9352 H   0  0  0  0  0  0  0  0  0  0  0  0
   -1.6335   -1.2878    0.8327 H   0  0  0  0  0  0  0  0  0  0  0  0
   -3.6247    1.6848   -0.4130 H   0  0  0  0  0  0  0  0  0  0  0  0
    0.2531   -1.5566    2.0706 H   0  0  0  0  0  0  0  0  0  0  0  0
    1.5639   -0.1976    1.7967 H   0  0  0  0  0  0  0  0  0  0  0  0
  1  2  1  0
  2  3  1  0
  3  4  1  0
  4  5  1  0
  5  6  1  0
  6  7  2  0
  3  8  1  0
  8  9  1  0
  9  3  1  0
  1 10  1  0
  1 11  1  0
  1 12  1  0
  2 13  1  0
  2 14  1  0
  4 15  1  0
  4 16  1  0
  6 17  1  0
  8 18  1  0
  8 19  1  0
M  END
