
     RDKit          3D

 21 21  0  0  0  0  0  0  0  0999 V2000
   -2.9121   -0.7629    0.6026 C   0  0  0  0  0  0  0  0  0  0  0  0
   -2.4197    0.3465   -0.2858 C   0  0  0  0  0  0  0  0  0  0  0  0
   -0.9699    0.6152    0.0223 C   0  0  0  0  0  0  0  0  0  0  0  0
   -0.2948    1.6060   -0.6785 O   0  0  0  0  0  0  0  0  0  0  0  0
   -0.0146    0.3068   -1.0927 C   0  0  0  0  0  0  0  0  0  0  0  0
    1.2668   -0.3480   -0.6485 C   0  0  0  0  0  0  0  0  0  0  0  0
    2.0367    0.4930    0.3034 C   0  0  0  0  0  0  0  0  0  0  0  0
    3.3248   -0.0616    0.8077 C   0  0  0  0  0  0  0  0  0  0  0  0
    1.6304    1.5756    0.6478 O   0  0  0  0  0  0  0  0  0  0  0  0
   -3.3759   -0.3225    1.5248 H   0  0  0  0  0  0  0  0  0  0  0  0
   -2.0726   -1.4115    0.8976 H   0  0  0  0  0  0  0  0  0  0  0  0
   -3.6601   -1.4223    0.0934 H   0  0  0  0  0  0  0  0  0  0  0  0
   -2.9727    1.2897   -0.0828 H   0  0  0  0  0  0  0  0  0  0  0  0
   -2.5604    0.0088   -1.3408 H   0  0  0  0  0  0  0  0  0  0  0  0
   -0.6380    0.5054    1.0623 H   0  0  0  0  0  0  0  0  0  0  0  0
   -0.4177    0.0543   -2.0728 H   0  0  0  0  0  0  0  0  0  0  0  0
    1.9043   -0.4554   -1.5587 H   0  0  0  0  0  0  0  0  0  0  0  0
    1.1314   -1.3415   -0.2096 H   0  0  0  0  0  0  0  0  0  0  0  0
    3.1701   -0.9197    1.4966 H   0  0  0  0  0  0  0  0  0  0  0  0
    3.8670   -0.4807   -0.0732 H   0  0  0  0  0  0  0  0  0  0  0  0
    3.9769    0.7247    1.2296 H   0  0  0  0  0  0  0  0  0  0  0  0
  1  2  1  0
  2  3  1  0
  3  4  1  0
  4  5  1  0
  5  6  1  0
  6  7  1  0
  7  8  1  0
  7  9  2  0
  5  3  1  0
  1 10  1  0
  1 11  1  0
  1 12  1  0
  2 13  1  0
  2 14  1  0
  3 15  1  0
  5 16  1  0
  6 17  1  0
  6 18  1  0
  8 19  1  0
  8 20  1  0
  8 21  1  0
M  END
