
     RDKit          3D

 17 17  0  0  0  0  0  0  0  0999 V2000
    2.2336    0.1675   -0.0272 C   0  0  0  0  0  0  0  0  0  0  0  0
    1.1564   -0.8516   -0.2805 C   0  0  0  0  0  0  0  0  0  0  0  0
   -0.1422   -0.1357   -0.6363 C   0  0  0  0  0  0  0  0  0  0  0  0
   -0.6017    0.7768    0.4762 C   0  0  0  0  0  0  0  0  0  0  0  0
   -2.0884    0.6704    0.3446 C   0  0  0  0  0  0  0  0  0  0  0  0
   -2.9550    1.5494    0.6606 O   0  0  0  0  0  0  0  0  0  0  0  0
   -2.3301   -0.6509   -0.2209 C   0  0  0  0  0  0  0  0  0  0  0  0
   -3.4551   -1.2286   -0.1495 O   0  0  0  0  0  0  0  0  0  0  0  0
   -1.1599   -1.1052   -0.8071 O   0  0  0  0  0  0  0  0  0  0  0  0
    2.2597    0.8413   -0.9234 H   0  0  0  0  0  0  0  0  0  0  0  0
    2.0350    0.7294    0.9024 H   0  0  0  0  0  0  0  0  0  0  0  0
    3.2052   -0.3949    0.0425 H   0  0  0  0  0  0  0  0  0  0  0  0
    0.9965   -1.5520    0.5390 H   0  0  0  0  0  0  0  0  0  0  0  0
    1.4448   -1.4262   -1.1767 H   0  0  0  0  0  0  0  0  0  0  0  0
    0.0064    0.4938   -1.5373 H   0  0  0  0  0  0  0  0  0  0  0  0
   -0.3633    0.3150    1.4769 H   0  0  0  0  0  0  0  0  0  0  0  0
   -0.2419    1.8016    0.3831 H   0  0  0  0  0  0  0  0  0  0  0  0
  1  2  1  0
  2  3  1  0
  3  4  1  0
  4  5  1  0
  5  6  2  0
  5  7  1  0
  7  8  2  0
  7  9  1  0
  9  3  1  0
  1 10  1  0
  1 11  1  0
  1 12  1  0
  2 13  1  0
  2 14  1  0
  3 15  1  0
  4 16  1  0
  4 17  1  0
M  END
