
     RDKit          3D

 24 24  0  0  0  0  0  0  0  0999 V2000
    2.8130   -0.1901    0.4481 C   0  0  0  0  0  0  0  0  0  0  0  0
    1.5912   -1.0576    0.2377 C   0  0  0  0  0  0  0  0  0  0  0  0
    0.4772   -0.2944   -0.4636 C   0  0  0  0  0  0  0  0  0  0  0  0
   -0.0960    0.9177    0.1487 C   0  0  0  0  0  0  0  0  0  0  0  0
   -0.6131    2.0672   -0.6474 C   0  0  0  0  0  0  0  0  0  0  0  0
   -0.9098   -0.3680   -0.0150 C   0  0  0  0  0  0  0  0  0  0  0  0
   -1.3333   -0.9651    1.2835 C   0  0  0  0  0  0  0  0  0  0  0  0
   -1.9808   -0.3819   -1.0995 C   0  0  0  0  0  0  0  0  0  0  0  0
    3.7112   -0.8474    0.5591 H   0  0  0  0  0  0  0  0  0  0  0  0
    2.9713    0.4038   -0.4789 H   0  0  0  0  0  0  0  0  0  0  0  0
    2.6488    0.4682    1.3096 H   0  0  0  0  0  0  0  0  0  0  0  0
    1.8989   -1.8938   -0.4269 H   0  0  0  0  0  0  0  0  0  0  0  0
    1.2551   -1.5036    1.1875 H   0  0  0  0  0  0  0  0  0  0  0  0
    0.6622   -0.2225   -1.5667 H   0  0  0  0  0  0  0  0  0  0  0  0
    0.2813    1.1807    1.1508 H   0  0  0  0  0  0  0  0  0  0  0  0
   -1.2033    1.7588   -1.5143 H   0  0  0  0  0  0  0  0  0  0  0  0
    0.2160    2.7563   -0.8799 H   0  0  0  0  0  0  0  0  0  0  0  0
   -1.3174    2.6400    0.0245 H   0  0  0  0  0  0  0  0  0  0  0  0
   -1.7534   -1.9787    1.2010 H   0  0  0  0  0  0  0  0  0  0  0  0
   -2.1504   -0.3091    1.6989 H   0  0  0  0  0  0  0  0  0  0  0  0
   -0.5140   -0.9132    2.0166 H   0  0  0  0  0  0  0  0  0  0  0  0
   -2.3482   -1.4211   -1.1609 H   0  0  0  0  0  0  0  0  0  0  0  0
   -2.7873    0.3227   -0.9051 H   0  0  0  0  0  0  0  0  0  0  0  0
   -1.5190   -0.1691   -2.1076 H   0  0  0  0  0  0  0  0  0  0  0  0
  1  2  1  0
  2  3  1  0
  3  4  1  0
  4  5  1  0
  4  6  1  0
  6  7  1  0
  6  8  1  0
  6  3  1  0
  1  9  1  0
  1 10  1  0
  1 11  1  0
  2 12  1  0
  2 13  1  0
  3 14  1  0
  4 15  1  0
  5 16  1  0
  5 17  1  0
  5 18  1  0
  7 19  1  0
  7 20  1  0
  7 21  1  0
  8 22  1  0
  8 23  1  0
  8 24  1  0
M  END
