
     RDKit          3D

 20 20  0  0  0  0  0  0  0  0999 V2000
   -2.4898    0.9028   -0.0117 C   0  0  0  0  0  0  0  0  0  0  0  0
   -1.6397   -0.2432   -0.4624 C   0  0  0  0  0  0  0  0  0  0  0  0
   -0.4217   -0.4594    0.4126 C   0  0  0  0  0  0  0  0  0  0  0  0
    0.4434   -1.6079   -0.0271 C   0  0  0  0  0  0  0  0  0  0  0  0
    0.8959   -0.1531   -0.1413 C   0  0  0  0  0  0  0  0  0  0  0  0
    0.9733    0.3245   -1.4451 O   0  0  0  0  0  0  0  0  0  0  0  0
    2.0961    0.1526    0.7076 C   0  0  0  0  0  0  0  0  0  0  0  0
    2.3428    1.5101    0.8475 O   0  0  0  0  0  0  0  0  0  0  0  0
   -3.4491    0.5181    0.4302 H   0  0  0  0  0  0  0  0  0  0  0  0
   -2.7995    1.4686   -0.9190 H   0  0  0  0  0  0  0  0  0  0  0  0
   -1.9897    1.5530    0.7395 H   0  0  0  0  0  0  0  0  0  0  0  0
   -1.3384   -0.1425   -1.5453 H   0  0  0  0  0  0  0  0  0  0  0  0
   -2.2318   -1.1889   -0.4279 H   0  0  0  0  0  0  0  0  0  0  0  0
   -0.6420   -0.4415    1.4912 H   0  0  0  0  0  0  0  0  0  0  0  0
    0.8993   -2.2549    0.7302 H   0  0  0  0  0  0  0  0  0  0  0  0
    0.1982   -2.1389   -0.9686 H   0  0  0  0  0  0  0  0  0  0  0  0
    0.8625    1.3011   -1.5048 H   0  0  0  0  0  0  0  0  0  0  0  0
    1.9787   -0.3226    1.7232 H   0  0  0  0  0  0  0  0  0  0  0  0
    2.9653   -0.3858    0.2524 H   0  0  0  0  0  0  0  0  0  0  0  0
    3.3461    1.6081    0.8002 H   0  0  0  0  0  0  0  0  0  0  0  0
  1  2  1  0
  2  3  1  0
  3  4  1  0
  4  5  1  0
  5  6  1  0
  5  7  1  0
  7  8  1  0
  5  3  1  0
  1  9  1  0
  1 10  1  0
  1 11  1  0
  2 12  1  0
  2 13  1  0
  3 14  1  0
  4 15  1  0
  4 16  1  0
  6 17  1  0
  7 18  1  0
  7 19  1  0
  8 20  1  0
M  END
