
     RDKit          3D

 21 21  0  0  0  0  0  0  0  0999 V2000
    1.9964   -0.6953    0.4462 C   0  0  0  0  0  0  0  0  0  0  0  0
    1.4006   -0.4555   -0.9238 C   0  0  0  0  0  0  0  0  0  0  0  0
    0.1019    0.3071   -0.7595 C   0  0  0  0  0  0  0  0  0  0  0  0
    0.4438    1.5896   -0.0875 C   0  0  0  0  0  0  0  0  0  0  0  0
   -0.3463    1.7916    0.9651 C   0  0  0  0  0  0  0  0  0  0  0  0
   -1.2828    0.6858    1.1054 C   0  0  0  0  0  0  0  0  0  0  0  0
   -2.2706    0.7075    1.8826 O   0  0  0  0  0  0  0  0  0  0  0  0
   -0.8420   -0.3962    0.1909 C   0  0  0  0  0  0  0  0  0  0  0  0
   -2.0635   -0.9378   -0.5230 C   0  0  0  0  0  0  0  0  0  0  0  0
    1.4164   -0.1988    1.2547 H   0  0  0  0  0  0  0  0  0  0  0  0
    1.9855   -1.7955    0.6246 H   0  0  0  0  0  0  0  0  0  0  0  0
    3.0361   -0.3335    0.5264 H   0  0  0  0  0  0  0  0  0  0  0  0
    2.1141    0.1991   -1.4666 H   0  0  0  0  0  0  0  0  0  0  0  0
    1.2748   -1.3895   -1.5029 H   0  0  0  0  0  0  0  0  0  0  0  0
   -0.3372    0.5052   -1.7385 H   0  0  0  0  0  0  0  0  0  0  0  0
    1.2343    2.2402   -0.4388 H   0  0  0  0  0  0  0  0  0  0  0  0
   -0.3159    2.6449    1.6336 H   0  0  0  0  0  0  0  0  0  0  0  0
   -0.3730   -1.2407    0.7185 H   0  0  0  0  0  0  0  0  0  0  0  0
   -1.8279   -1.4024   -1.4843 H   0  0  0  0  0  0  0  0  0  0  0  0
   -2.8201   -0.1255   -0.5900 H   0  0  0  0  0  0  0  0  0  0  0  0
   -2.5246   -1.7003    0.1666 H   0  0  0  0  0  0  0  0  0  0  0  0
  1  2  1  0
  2  3  1  0
  3  4  1  0
  4  5  2  0
  5  6  1  0
  6  7  2  0
  6  8  1  0
  8  9  1  0
  8  3  1  0
  1 10  1  0
  1 11  1  0
  1 12  1  0
  2 13  1  0
  2 14  1  0
  3 15  1  0
  4 16  1  0
  5 17  1  0
  8 18  1  0
  9 19  1  0
  9 20  1  0
  9 21  1  0
M  END
