
     RDKit          3D

 21 21  0  0  0  0  0  0  0  0999 V2000
   -2.3941    0.1352    0.7043 C   0  0  0  0  0  0  0  0  0  0  0  0
   -1.0532   -0.4942    0.9772 C   0  0  0  0  0  0  0  0  0  0  0  0
   -0.0212   -0.1606   -0.0606 C   0  0  0  0  0  0  0  0  0  0  0  0
    1.3306   -0.7799    0.1912 C   0  0  0  0  0  0  0  0  0  0  0  0
    1.7791   -0.3004    1.4328 O   0  0  0  0  0  0  0  0  0  0  0  0
    2.3130   -0.5086   -0.8673 C   0  0  0  0  0  0  0  0  0  0  0  0
    3.3423    0.0604   -0.5976 O   0  0  0  0  0  0  0  0  0  0  0  0
    0.0408    1.3142   -0.4391 C   0  0  0  0  0  0  0  0  0  0  0  0
   -0.3943    0.2450   -1.4269 C   0  0  0  0  0  0  0  0  0  0  0  0
   -2.3813    1.2409    0.8005 H   0  0  0  0  0  0  0  0  0  0  0  0
   -3.1026   -0.3131    1.4620 H   0  0  0  0  0  0  0  0  0  0  0  0
   -2.7930   -0.1866   -0.2942 H   0  0  0  0  0  0  0  0  0  0  0  0
   -1.2160   -1.5795    1.0881 H   0  0  0  0  0  0  0  0  0  0  0  0
   -0.7352   -0.1249    1.9902 H   0  0  0  0  0  0  0  0  0  0  0  0
    1.2395   -1.8864    0.2863 H   0  0  0  0  0  0  0  0  0  0  0  0
    2.7139    0.0291    1.3065 H   0  0  0  0  0  0  0  0  0  0  0  0
    2.1212   -0.8133   -1.8792 H   0  0  0  0  0  0  0  0  0  0  0  0
   -0.6864    2.0150   -0.0297 H   0  0  0  0  0  0  0  0  0  0  0  0
    1.0455    1.7593   -0.6457 H   0  0  0  0  0  0  0  0  0  0  0  0
   -1.4466    0.3327   -1.7357 H   0  0  0  0  0  0  0  0  0  0  0  0
    0.2980    0.0157   -2.2631 H   0  0  0  0  0  0  0  0  0  0  0  0
  1  2  1  0
  2  3  1  0
  3  4  1  0
  4  5  1  0
  4  6  1  0
  6  7  2  0
  3  8  1  0
  8  9  1  0
  9  3  1  0
  1 10  1  0
  1 11  1  0
  1 12  1  0
  2 13  1  0
  2 14  1  0
  4 15  1  0
  5 16  1  0
  6 17  1  0
  8 18  1  0
  8 19  1  0
  9 20  1  0
  9 21  1  0
M  END
