
     RDKit          3D

 21 22  0  0  0  0  0  0  0  0999 V2000
    2.8166    0.4653    0.1129 C   0  0  0  0  0  0  0  0  0  0  0  0
    2.0038   -0.2563   -0.9295 C   0  0  0  0  0  0  0  0  0  0  0  0
    0.5814   -0.3669   -0.4330 C   0  0  0  0  0  0  0  0  0  0  0  0
   -0.5114    0.1162   -1.0030 C   0  0  0  0  0  0  0  0  0  0  0  0
   -1.6664   -0.2696   -0.0954 C   0  0  0  0  0  0  0  0  0  0  0  0
   -2.8538    0.5981   -0.2864 C   0  0  0  0  0  0  0  0  0  0  0  0
   -0.9117   -0.0337    1.1855 C   0  0  0  0  0  0  0  0  0  0  0  0
   -0.1827   -0.7632    1.9712 O   0  0  0  0  0  0  0  0  0  0  0  0
    0.1790   -1.0706    0.7646 C   0  0  0  0  0  0  0  0  0  0  0  0
    3.6874    0.9971   -0.3099 H   0  0  0  0  0  0  0  0  0  0  0  0
    2.1199    1.1303    0.6672 H   0  0  0  0  0  0  0  0  0  0  0  0
    3.1275   -0.3219    0.8620 H   0  0  0  0  0  0  0  0  0  0  0  0
    1.9754    0.3717   -1.8265 H   0  0  0  0  0  0  0  0  0  0  0  0
    2.4305   -1.2586   -1.1134 H   0  0  0  0  0  0  0  0  0  0  0  0
   -0.5873    0.6676   -1.9151 H   0  0  0  0  0  0  0  0  0  0  0  0
   -1.8873   -1.3220   -0.3071 H   0  0  0  0  0  0  0  0  0  0  0  0
   -2.9460    0.8143   -1.3841 H   0  0  0  0  0  0  0  0  0  0  0  0
   -3.7548    0.0130    0.0642 H   0  0  0  0  0  0  0  0  0  0  0  0
   -2.8347    1.5359    0.3048 H   0  0  0  0  0  0  0  0  0  0  0  0
   -0.5631    1.0493    1.1843 H   0  0  0  0  0  0  0  0  0  0  0  0
   -0.2222   -2.0958    0.4689 H   0  0  0  0  0  0  0  0  0  0  0  0
  1  2  1  0
  2  3  1  0
  3  4  2  0
  4  5  1  0
  5  6  1  0
  5  7  1  0
  7  8  1  0
  8  9  1  0
  9  3  1  0
  9  7  1  0
  1 10  1  0
  1 11  1  0
  1 12  1  0
  2 13  1  0
  2 14  1  0
  4 15  1  0
  5 16  1  0
  6 17  1  0
  6 18  1  0
  6 19  1  0
  7 20  1  0
  9 21  1  0
M  END
