
     RDKit          3D

 21 21  0  0  0  0  0  0  0  0999 V2000
   -2.7479    0.5371    0.0638 C   0  0  0  0  0  0  0  0  0  0  0  0
   -1.3745    1.1004   -0.0448 C   0  0  0  0  0  0  0  0  0  0  0  0
   -0.3092    0.0171   -0.1037 C   0  0  0  0  0  0  0  0  0  0  0  0
    0.9811    0.5472   -0.2135 O   0  0  0  0  0  0  0  0  0  0  0  0
    2.1377   -0.1756   -0.2955 C   0  0  0  0  0  0  0  0  0  0  0  0
    3.4306    0.5741   -0.4063 C   0  0  0  0  0  0  0  0  0  0  0  0
    2.0836   -1.4182   -0.2760 O   0  0  0  0  0  0  0  0  0  0  0  0
   -0.6799   -1.3642   -0.4062 C   0  0  0  0  0  0  0  0  0  0  0  0
   -0.4095   -1.0326    1.0373 C   0  0  0  0  0  0  0  0  0  0  0  0
   -3.4619    1.4066    0.1828 H   0  0  0  0  0  0  0  0  0  0  0  0
   -2.8930   -0.1174    0.9323 H   0  0  0  0  0  0  0  0  0  0  0  0
   -3.0099    0.0598   -0.9019 H   0  0  0  0  0  0  0  0  0  0  0  0
   -1.3049    1.7745   -0.9001 H   0  0  0  0  0  0  0  0  0  0  0  0
   -1.1729    1.6738    0.9051 H   0  0  0  0  0  0  0  0  0  0  0  0
    4.2074   -0.0402   -0.8762 H   0  0  0  0  0  0  0  0  0  0  0  0
    3.8018    0.8726    0.5964 H   0  0  0  0  0  0  0  0  0  0  0  0
    3.2278    1.5148   -0.9579 H   0  0  0  0  0  0  0  0  0  0  0  0
   -0.0429   -2.0846   -0.9337 H   0  0  0  0  0  0  0  0  0  0  0  0
   -1.7826   -1.5303   -0.5964 H   0  0  0  0  0  0  0  0  0  0  0  0
    0.5406   -1.4357    1.4458 H   0  0  0  0  0  0  0  0  0  0  0  0
   -1.2215   -0.8790    1.7489 H   0  0  0  0  0  0  0  0  0  0  0  0
  1  2  1  0
  2  3  1  0
  3  4  1  0
  4  5  1  0
  5  6  1  0
  5  7  2  0
  3  8  1  0
  8  9  1  0
  9  3  1  0
  1 10  1  0
  1 11  1  0
  1 12  1  0
  2 13  1  0
  2 14  1  0
  6 15  1  0
  6 16  1  0
  6 17  1  0
  8 18  1  0
  8 19  1  0
  9 20  1  0
  9 21  1  0
M  END
