
     RDKit          3D

 20 20  0  0  0  0  0  0  0  0999 V2000
    2.1933    0.2594   -0.1949 C   0  0  0  0  0  0  0  0  0  0  0  0
    0.9394    0.0494   -0.9913 C   0  0  0  0  0  0  0  0  0  0  0  0
   -0.2214   -0.1341   -0.0713 C   0  0  0  0  0  0  0  0  0  0  0  0
   -0.1222   -1.3044    0.8704 C   0  0  0  0  0  0  0  0  0  0  0  0
   -1.5866   -0.1158   -0.7283 C   0  0  0  0  0  0  0  0  0  0  0  0
   -2.0532    0.6646    0.4374 C   0  0  0  0  0  0  0  0  0  0  0  0
   -3.0926    0.8349    1.0078 O   0  0  0  0  0  0  0  0  0  0  0  0
   -0.6694    1.1556    0.6057 C   0  0  0  0  0  0  0  0  0  0  0  0
    3.1036    0.1972   -0.8332 H   0  0  0  0  0  0  0  0  0  0  0  0
    2.2368    1.2586    0.2901 H   0  0  0  0  0  0  0  0  0  0  0  0
    2.2090   -0.5052    0.6134 H   0  0  0  0  0  0  0  0  0  0  0  0
    0.7337    0.8362   -1.7172 H   0  0  0  0  0  0  0  0  0  0  0  0
    1.0732   -0.9070   -1.5578 H   0  0  0  0  0  0  0  0  0  0  0  0
   -1.1373   -1.5592    1.2695 H   0  0  0  0  0  0  0  0  0  0  0  0
    0.6020   -1.1575    1.6875 H   0  0  0  0  0  0  0  0  0  0  0  0
    0.1815   -2.1858    0.2566 H   0  0  0  0  0  0  0  0  0  0  0  0
   -1.5289    0.4385   -1.6863 H   0  0  0  0  0  0  0  0  0  0  0  0
   -2.0545   -1.1168   -0.7953 H   0  0  0  0  0  0  0  0  0  0  0  0
   -0.4890    2.0010   -0.0925 H   0  0  0  0  0  0  0  0  0  0  0  0
   -0.3176    1.2904    1.6297 H   0  0  0  0  0  0  0  0  0  0  0  0
  1  2  1  0
  2  3  1  0
  3  4  1  0
  3  5  1  0
  5  6  1  0
  6  7  2  0
  6  8  1  0
  8  3  1  0
  1  9  1  0
  1 10  1  0
  1 11  1  0
  2 12  1  0
  2 13  1  0
  4 14  1  0
  4 15  1  0
  4 16  1  0
  5 17  1  0
  5 18  1  0
  8 19  1  0
  8 20  1  0
M  END
