
     RDKit          3D

 22 22  0  0  0  0  0  0  0  0999 V2000
    2.5763   -0.4859    0.1405 C   0  0  0  0  0  0  0  0  0  0  0  0
    1.3073   -0.5927   -0.6625 C   0  0  0  0  0  0  0  0  0  0  0  0
    0.1350   -0.1594    0.1692 C   0  0  0  0  0  0  0  0  0  0  0  0
   -1.2050   -0.2187   -0.5192 C   0  0  0  0  0  0  0  0  0  0  0  0
   -2.0510   -1.4020   -0.2432 C   0  0  0  0  0  0  0  0  0  0  0  0
   -1.5635    0.9826    0.3653 C   0  0  0  0  0  0  0  0  0  0  0  0
   -0.0802    1.3552    0.2149 C   0  0  0  0  0  0  0  0  0  0  0  0
    0.4715    1.9580    1.3186 O   0  0  0  0  0  0  0  0  0  0  0  0
    2.6748   -1.3421    0.8675 H   0  0  0  0  0  0  0  0  0  0  0  0
    2.6392    0.4251    0.7407 H   0  0  0  0  0  0  0  0  0  0  0  0
    3.4317   -0.4775   -0.5640 H   0  0  0  0  0  0  0  0  0  0  0  0
    1.3883    0.1105   -1.5133 H   0  0  0  0  0  0  0  0  0  0  0  0
    1.2099   -1.6022   -1.0777 H   0  0  0  0  0  0  0  0  0  0  0  0
    0.1520   -0.5317    1.2146 H   0  0  0  0  0  0  0  0  0  0  0  0
   -1.0848    0.0342   -1.5873 H   0  0  0  0  0  0  0  0  0  0  0  0
   -1.8770   -2.1746   -1.0293 H   0  0  0  0  0  0  0  0  0  0  0  0
   -1.8178   -1.8352    0.7351 H   0  0  0  0  0  0  0  0  0  0  0  0
   -3.1384   -1.1127   -0.2700 H   0  0  0  0  0  0  0  0  0  0  0  0
   -1.7585    0.6288    1.3984 H   0  0  0  0  0  0  0  0  0  0  0  0
   -2.2626    1.6854   -0.0714 H   0  0  0  0  0  0  0  0  0  0  0  0
    0.1096    1.8564   -0.7687 H   0  0  0  0  0  0  0  0  0  0  0  0
    0.7431    2.8986    1.1416 H   0  0  0  0  0  0  0  0  0  0  0  0
  1  2  1  0
  2  3  1  0
  3  4  1  0
  4  5  1  0
  4  6  1  0
  6  7  1  0
  7  8  1  0
  7  3  1  0
  1  9  1  0
  1 10  1  0
  1 11  1  0
  2 12  1  0
  2 13  1  0
  3 14  1  0
  4 15  1  0
  5 16  1  0
  5 17  1  0
  5 18  1  0
  6 19  1  0
  6 20  1  0
  7 21  1  0
  8 22  1  0
M  END
