
     RDKit          3D

 23 25  0  0  0  0  0  0  0  0999 V2000
    1.9803    1.2555   -0.1531 C   0  0  0  0  0  0  0  0  0  0  0  0
    1.4402   -0.0268   -0.6619 C   0  0  0  0  0  0  0  0  0  0  0  0
    0.1200   -0.4329   -0.3050 C   0  0  0  0  0  0  0  0  0  0  0  0
   -0.2541   -1.7893   -0.9322 C   0  0  0  0  0  0  0  0  0  0  0  0
   -1.1780   -1.9290    0.2927 C   0  0  0  0  0  0  0  0  0  0  0  0
   -1.6532   -0.5952    0.7101 C   0  0  0  0  0  0  0  0  0  0  0  0
   -1.0481    0.4657   -0.2340 C   0  0  0  0  0  0  0  0  0  0  0  0
   -0.9424    1.7510    0.4805 C   0  0  0  0  0  0  0  0  0  0  0  0
   -0.2704   -1.0217    0.9724 C   0  0  0  0  0  0  0  0  0  0  0  0
    3.1098    1.1959   -0.1017 H   0  0  0  0  0  0  0  0  0  0  0  0
    1.8145    2.0615   -0.9298 H   0  0  0  0  0  0  0  0  0  0  0  0
    1.6591    1.5549    0.8454 H   0  0  0  0  0  0  0  0  0  0  0  0
    1.5546   -0.0062   -1.7886 H   0  0  0  0  0  0  0  0  0  0  0  0
    2.1731   -0.8352   -0.3578 H   0  0  0  0  0  0  0  0  0  0  0  0
   -0.7691   -1.6845   -1.8815 H   0  0  0  0  0  0  0  0  0  0  0  0
    0.5909   -2.4728   -0.8563 H   0  0  0  0  0  0  0  0  0  0  0  0
   -1.5426   -2.8769    0.6115 H   0  0  0  0  0  0  0  0  0  0  0  0
   -2.3532   -0.3467    1.4661 H   0  0  0  0  0  0  0  0  0  0  0  0
   -1.6912    0.5508   -1.1339 H   0  0  0  0  0  0  0  0  0  0  0  0
   -0.6383    1.5684    1.5329 H   0  0  0  0  0  0  0  0  0  0  0  0
   -0.3528    2.5349   -0.0207 H   0  0  0  0  0  0  0  0  0  0  0  0
   -1.9851    2.1821    0.5611 H   0  0  0  0  0  0  0  0  0  0  0  0
    0.2362   -1.1038    1.8839 H   0  0  0  0  0  0  0  0  0  0  0  0
  1  2  1  0
  2  3  1  0
  3  4  1  0
  4  5  1  0
  5  6  1  0
  6  7  1  0
  7  8  1  0
  6  9  1  0
  7  3  1  0
  9  3  1  0
  9  5  1  0
  1 10  1  0
  1 11  1  0
  1 12  1  0
  2 13  1  0
  2 14  1  0
  4 15  1  0
  4 16  1  0
  5 17  1  0
  6 18  1  0
  7 19  1  0
  8 20  1  0
  8 21  1  0
  8 22  1  0
  9 23  1  0
M  END
