
     RDKit          3D

 19 19  0  0  0  0  0  0  0  0999 V2000
    2.4147    0.0096    0.1518 C   0  0  0  0  0  0  0  0  0  0  0  0
    1.2426   -0.2523   -0.7709 C   0  0  0  0  0  0  0  0  0  0  0  0
    0.0552    0.4945   -0.1876 C   0  0  0  0  0  0  0  0  0  0  0  0
   -0.2524    0.0104    1.1860 C   0  0  0  0  0  0  0  0  0  0  0  0
    0.0930    0.3577    2.2798 O   0  0  0  0  0  0  0  0  0  0  0  0
   -1.1295   -1.0307    0.5443 C   0  0  0  0  0  0  0  0  0  0  0  0
   -1.2878   -0.0464   -0.6111 C   0  0  0  0  0  0  0  0  0  0  0  0
   -2.3581    0.9206   -0.3094 C   0  0  0  0  0  0  0  0  0  0  0  0
   -2.2534    1.7160    0.5888 O   0  0  0  0  0  0  0  0  0  0  0  0
    2.1037   -0.1519    1.2022 H   0  0  0  0  0  0  0  0  0  0  0  0
    2.6837    1.0834    0.0460 H   0  0  0  0  0  0  0  0  0  0  0  0
    3.2821   -0.6473   -0.0931 H   0  0  0  0  0  0  0  0  0  0  0  0
    1.4715    0.0636   -1.7938 H   0  0  0  0  0  0  0  0  0  0  0  0
    1.0667   -1.3475   -0.7706 H   0  0  0  0  0  0  0  0  0  0  0  0
    0.1469    1.5844   -0.3064 H   0  0  0  0  0  0  0  0  0  0  0  0
   -0.5972   -1.9637    0.2824 H   0  0  0  0  0  0  0  0  0  0  0  0
   -2.0942   -1.1834    1.0498 H   0  0  0  0  0  0  0  0  0  0  0  0
   -1.3310   -0.5389   -1.5871 H   0  0  0  0  0  0  0  0  0  0  0  0
   -3.2564    0.9216   -0.9012 H   0  0  0  0  0  0  0  0  0  0  0  0
  1  2  1  0
  2  3  1  0
  3  4  1  0
  4  5  2  0
  4  6  1  0
  6  7  1  0
  7  8  1  0
  8  9  2  0
  7  3  1  0
  1 10  1  0
  1 11  1  0
  1 12  1  0
  2 13  1  0
  2 14  1  0
  3 15  1  0
  6 16  1  0
  6 17  1  0
  7 18  1  0
  8 19  1  0
M  END
