
     RDKit          3D

 23 24  0  0  0  0  0  0  0  0999 V2000
   -3.3561    0.0301    0.3590 C   0  0  0  0  0  0  0  0  0  0  0  0
   -2.1262   -0.6261   -0.2370 C   0  0  0  0  0  0  0  0  0  0  0  0
   -0.9688    0.3142   -0.3494 C   0  0  0  0  0  0  0  0  0  0  0  0
   -0.5505    0.8461    0.8748 O   0  0  0  0  0  0  0  0  0  0  0  0
    0.4729   -0.0942    0.8741 C   0  0  0  0  0  0  0  0  0  0  0  0
    0.3303   -0.3927   -0.5638 C   0  0  0  0  0  0  0  0  0  0  0  0
    1.6082    0.1190   -0.0254 C   0  0  0  0  0  0  0  0  0  0  0  0
    2.7599   -0.8595    0.0129 C   0  0  0  0  0  0  0  0  0  0  0  0
    2.0331    1.5506   -0.2556 C   0  0  0  0  0  0  0  0  0  0  0  0
   -3.1818    0.4562    1.3524 H   0  0  0  0  0  0  0  0  0  0  0  0
   -3.7614    0.7719   -0.3774 H   0  0  0  0  0  0  0  0  0  0  0  0
   -4.1329   -0.7616    0.4345 H   0  0  0  0  0  0  0  0  0  0  0  0
   -2.4102   -0.9523   -1.2599 H   0  0  0  0  0  0  0  0  0  0  0  0
   -1.8975   -1.5244    0.3764 H   0  0  0  0  0  0  0  0  0  0  0  0
   -1.1472    1.0588   -1.1463 H   0  0  0  0  0  0  0  0  0  0  0  0
    0.5147   -0.8711    1.6425 H   0  0  0  0  0  0  0  0  0  0  0  0
    0.3124   -1.4308   -0.9527 H   0  0  0  0  0  0  0  0  0  0  0  0
    2.4087   -1.7850    0.4699 H   0  0  0  0  0  0  0  0  0  0  0  0
    3.0706   -1.0975   -1.0241 H   0  0  0  0  0  0  0  0  0  0  0  0
    3.6151   -0.4836    0.6277 H   0  0  0  0  0  0  0  0  0  0  0  0
    2.2575    2.0251    0.7303 H   0  0  0  0  0  0  0  0  0  0  0  0
    1.1830    2.0757   -0.7136 H   0  0  0  0  0  0  0  0  0  0  0  0
    2.9663    1.6310   -0.8493 H   0  0  0  0  0  0  0  0  0  0  0  0
  1  2  1  0
  2  3  1  0
  3  4  1  0
  4  5  1  0
  5  6  1  0
  6  7  1  0
  7  8  1  0
  7  9  1  0
  6  3  1  0
  7  5  1  0
  1 10  1  0
  1 11  1  0
  1 12  1  0
  2 13  1  0
  2 14  1  0
  3 15  1  0
  5 16  1  0
  6 17  1  0
  8 18  1  0
  8 19  1  0
  8 20  1  0
  9 21  1  0
  9 22  1  0
  9 23  1  0
M  END
