
     RDKit          3D

 20 21  0  0  0  0  0  0  0  0999 V2000
    2.5068    0.2580    0.5109 C   0  0  0  0  0  0  0  0  0  0  0  0
    1.1290   -0.2400    0.8148 C   0  0  0  0  0  0  0  0  0  0  0  0
    0.2132    0.1305   -0.2942 C   0  0  0  0  0  0  0  0  0  0  0  0
   -1.2381   -0.3519   -0.0532 C   0  0  0  0  0  0  0  0  0  0  0  0
   -2.0960    0.6220    0.6642 C   0  0  0  0  0  0  0  0  0  0  0  0
   -1.2635   -0.1808   -1.5621 C   0  0  0  0  0  0  0  0  0  0  0  0
   -0.6200   -0.8831   -2.4757 O   0  0  0  0  0  0  0  0  0  0  0  0
    0.0880   -0.9379   -1.3652 C   0  0  0  0  0  0  0  0  0  0  0  0
    3.0630   -0.5545   -0.0041 H   0  0  0  0  0  0  0  0  0  0  0  0
    2.4545    1.1339   -0.1737 H   0  0  0  0  0  0  0  0  0  0  0  0
    3.0538    0.6142    1.4197 H   0  0  0  0  0  0  0  0  0  0  0  0
    1.0640   -1.3018    1.0575 H   0  0  0  0  0  0  0  0  0  0  0  0
    0.7820    0.3136    1.7349 H   0  0  0  0  0  0  0  0  0  0  0  0
    0.2687    1.1602   -0.6438 H   0  0  0  0  0  0  0  0  0  0  0  0
   -1.2141   -1.3801    0.3065 H   0  0  0  0  0  0  0  0  0  0  0  0
   -2.9228    0.9954    0.0263 H   0  0  0  0  0  0  0  0  0  0  0  0
   -2.5252    0.1089    1.5739 H   0  0  0  0  0  0  0  0  0  0  0  0
   -1.5154    1.4905    1.0591 H   0  0  0  0  0  0  0  0  0  0  0  0
   -1.1682    0.9348   -1.7670 H   0  0  0  0  0  0  0  0  0  0  0  0
   -0.0596   -1.9318   -0.8288 H   0  0  0  0  0  0  0  0  0  0  0  0
  1  2  1  0
  2  3  1  0
  3  4  1  0
  4  5  1  0
  4  6  1  0
  6  7  1  0
  7  8  1  0
  8  3  1  0
  8  6  1  0
  1  9  1  0
  1 10  1  0
  1 11  1  0
  2 12  1  0
  2 13  1  0
  3 14  1  0
  4 15  1  0
  5 16  1  0
  5 17  1  0
  5 18  1  0
  6 19  1  0
  8 20  1  0
M  END
