
     RDKit          3D

 19 20  0  0  0  0  0  0  0  0999 V2000
   -2.4583   -0.7100   -0.0365 C   0  0  0  0  0  0  0  0  0  0  0  0
   -1.5155   -0.0462    0.9544 C   0  0  0  0  0  0  0  0  0  0  0  0
   -0.2186    0.2953    0.3131 C   0  0  0  0  0  0  0  0  0  0  0  0
    0.2462    1.5297    0.2349 C   0  0  0  0  0  0  0  0  0  0  0  0
    1.5312    1.5488   -0.4442 C   0  0  0  0  0  0  0  0  0  0  0  0
    2.2837    2.5192   -0.5732 O   0  0  0  0  0  0  0  0  0  0  0  0
    1.7514    0.1728   -0.9470 C   0  0  0  0  0  0  0  0  0  0  0  0
    2.0955   -0.8326    0.0860 C   0  0  0  0  0  0  0  0  0  0  0  0
    0.6814   -0.6849   -0.2982 C   0  0  0  0  0  0  0  0  0  0  0  0
   -3.4071   -0.1685   -0.1525 H   0  0  0  0  0  0  0  0  0  0  0  0
   -1.9853   -0.7403   -1.0480 H   0  0  0  0  0  0  0  0  0  0  0  0
   -2.6116   -1.7602    0.2710 H   0  0  0  0  0  0  0  0  0  0  0  0
   -1.3225   -0.7178    1.8191 H   0  0  0  0  0  0  0  0  0  0  0  0
   -2.0520    0.8541    1.3314 H   0  0  0  0  0  0  0  0  0  0  0  0
   -0.2264    2.4302    0.6085 H   0  0  0  0  0  0  0  0  0  0  0  0
    1.8759    0.0046   -2.0170 H   0  0  0  0  0  0  0  0  0  0  0  0
    2.4756   -0.4558    1.0752 H   0  0  0  0  0  0  0  0  0  0  0  0
    2.6203   -1.7251   -0.2512 H   0  0  0  0  0  0  0  0  0  0  0  0
    0.2363   -1.5133   -0.9258 H   0  0  0  0  0  0  0  0  0  0  0  0
  1  2  1  0
  2  3  1  0
  3  4  2  0
  4  5  1  0
  5  6  2  0
  5  7  1  0
  7  8  1  0
  8  9  1  0
  9  3  1  0
  9  7  1  0
  1 10  1  0
  1 11  1  0
  1 12  1  0
  2 13  1  0
  2 14  1  0
  4 15  1  0
  7 16  1  0
  8 17  1  0
  8 18  1  0
  9 19  1  0
M  END
