
     RDKit          3D

 23 23  0  0  0  0  0  0  0  0999 V2000
    2.2529    0.5324   -0.5206 C   0  0  0  0  0  0  0  0  0  0  0  0
    1.4795    0.0896    0.7037 C   0  0  0  0  0  0  0  0  0  0  0  0
    0.2874   -0.7261    0.2932 C   0  0  0  0  0  0  0  0  0  0  0  0
   -0.5370   -1.2079    1.4311 C   0  0  0  0  0  0  0  0  0  0  0  0
   -1.8204   -0.7466    1.2997 O   0  0  0  0  0  0  0  0  0  0  0  0
   -2.0466   -0.4171   -0.0226 C   0  0  0  0  0  0  0  0  0  0  0  0
   -0.6919    0.0168   -0.5622 C   0  0  0  0  0  0  0  0  0  0  0  0
   -0.6050    1.5013   -0.4585 C   0  0  0  0  0  0  0  0  0  0  0  0
   -0.6397   -0.3676   -1.8959 O   0  0  0  0  0  0  0  0  0  0  0  0
    3.2547    0.0811   -0.5727 H   0  0  0  0  0  0  0  0  0  0  0  0
    2.3933    1.6486   -0.4329 H   0  0  0  0  0  0  0  0  0  0  0  0
    1.7326    0.2646   -1.4675 H   0  0  0  0  0  0  0  0  0  0  0  0
    1.2374    0.9306    1.3717 H   0  0  0  0  0  0  0  0  0  0  0  0
    2.1527   -0.5831    1.2771 H   0  0  0  0  0  0  0  0  0  0  0  0
    0.6601   -1.5964   -0.2844 H   0  0  0  0  0  0  0  0  0  0  0  0
   -0.5478   -2.3232    1.5078 H   0  0  0  0  0  0  0  0  0  0  0  0
   -0.0962   -0.8540    2.4036 H   0  0  0  0  0  0  0  0  0  0  0  0
   -2.8062    0.3868   -0.1033 H   0  0  0  0  0  0  0  0  0  0  0  0
   -2.4418   -1.2892   -0.5885 H   0  0  0  0  0  0  0  0  0  0  0  0
   -0.3917    1.8586    0.5689 H   0  0  0  0  0  0  0  0  0  0  0  0
   -1.6272    1.9067   -0.7170 H   0  0  0  0  0  0  0  0  0  0  0  0
    0.0906    1.9840   -1.1427 H   0  0  0  0  0  0  0  0  0  0  0  0
   -1.2899   -1.0897   -2.0880 H   0  0  0  0  0  0  0  0  0  0  0  0
  1  2  1  0
  2  3  1  0
  3  4  1  0
  4  5  1  0
  5  6  1  0
  6  7  1  0
  7  8  1  0
  7  9  1  0
  7  3  1  0
  1 10  1  0
  1 11  1  0
  1 12  1  0
  2 13  1  0
  2 14  1  0
  3 15  1  0
  4 16  1  0
  4 17  1  0
  6 18  1  0
  6 19  1  0
  8 20  1  0
  8 21  1  0
  8 22  1  0
  9 23  1  0
M  END
