
     RDKit          3D

 23 23  0  0  0  0  0  0  0  0999 V2000
    2.4790    0.6631    0.5504 C   0  0  0  0  0  0  0  0  0  0  0  0
    1.8001   -0.5854    0.0854 C   0  0  0  0  0  0  0  0  0  0  0  0
    0.7269   -0.3325   -0.9442 C   0  0  0  0  0  0  0  0  0  0  0  0
    0.1901   -1.5957   -1.2753 O   0  0  0  0  0  0  0  0  0  0  0  0
   -0.7210   -1.8919   -0.2748 C   0  0  0  0  0  0  0  0  0  0  0  0
   -1.3066   -0.5238   -0.0096 C   0  0  0  0  0  0  0  0  0  0  0  0
   -2.6281   -0.2160    0.5966 C   0  0  0  0  0  0  0  0  0  0  0  0
   -0.4335    0.3919   -0.4132 C   0  0  0  0  0  0  0  0  0  0  0  0
   -0.6205    1.8621   -0.3313 C   0  0  0  0  0  0  0  0  0  0  0  0
    2.7903    1.2703   -0.3196 H   0  0  0  0  0  0  0  0  0  0  0  0
    1.8581    1.2696    1.2410 H   0  0  0  0  0  0  0  0  0  0  0  0
    3.4097    0.3684    1.0786 H   0  0  0  0  0  0  0  0  0  0  0  0
    2.5838   -1.2067   -0.4327 H   0  0  0  0  0  0  0  0  0  0  0  0
    1.4392   -1.1565    0.9479 H   0  0  0  0  0  0  0  0  0  0  0  0
    1.1752    0.1091   -1.8395 H   0  0  0  0  0  0  0  0  0  0  0  0
   -0.2774   -2.2224    0.6635 H   0  0  0  0  0  0  0  0  0  0  0  0
   -1.4859   -2.5701   -0.6864 H   0  0  0  0  0  0  0  0  0  0  0  0
   -3.2567    0.4106   -0.0793 H   0  0  0  0  0  0  0  0  0  0  0  0
   -3.1986   -1.1313    0.8151 H   0  0  0  0  0  0  0  0  0  0  0  0
   -2.5165    0.3206    1.5674 H   0  0  0  0  0  0  0  0  0  0  0  0
    0.3553    2.4082   -0.2478 H   0  0  0  0  0  0  0  0  0  0  0  0
   -1.2588    2.0840    0.5602 H   0  0  0  0  0  0  0  0  0  0  0  0
   -1.1040    2.2745   -1.2525 H   0  0  0  0  0  0  0  0  0  0  0  0
  1  2  1  0
  2  3  1  0
  3  4  1  0
  4  5  1  0
  5  6  1  0
  6  7  1  0
  6  8  2  0
  8  9  1  0
  8  3  1  0
  1 10  1  0
  1 11  1  0
  1 12  1  0
  2 13  1  0
  2 14  1  0
  3 15  1  0
  5 16  1  0
  5 17  1  0
  7 18  1  0
  7 19  1  0
  7 20  1  0
  9 21  1  0
  9 22  1  0
  9 23  1  0
M  END
