
     RDKit          3D

 19 21  0  0  0  0  0  0  0  0999 V2000
    2.2863    0.7130    0.1829 C   0  0  0  0  0  0  0  0  0  0  0  0
    1.3701   -0.3720   -0.3187 C   0  0  0  0  0  0  0  0  0  0  0  0
   -0.0377   -0.1988   -0.0196 C   0  0  0  0  0  0  0  0  0  0  0  0
   -0.8815    0.9588   -0.4629 C   0  0  0  0  0  0  0  0  0  0  0  0
   -2.2338    0.3464   -0.0604 C   0  0  0  0  0  0  0  0  0  0  0  0
   -1.9646   -0.0086    1.2488 O   0  0  0  0  0  0  0  0  0  0  0  0
   -0.7905   -0.7852    1.0906 C   0  0  0  0  0  0  0  0  0  0  0  0
   -0.9518   -1.3710   -0.2322 C   0  0  0  0  0  0  0  0  0  0  0  0
   -2.1683   -0.8637   -0.7158 O   0  0  0  0  0  0  0  0  0  0  0  0
    2.4488    1.4878   -0.6107 H   0  0  0  0  0  0  0  0  0  0  0  0
    1.8960    1.2454    1.0688 H   0  0  0  0  0  0  0  0  0  0  0  0
    3.2826    0.2524    0.3543 H   0  0  0  0  0  0  0  0  0  0  0  0
    1.7209   -1.3491    0.0729 H   0  0  0  0  0  0  0  0  0  0  0  0
    1.5467   -0.4335   -1.4333 H   0  0  0  0  0  0  0  0  0  0  0  0
   -0.8393    1.1834   -1.5248 H   0  0  0  0  0  0  0  0  0  0  0  0
   -0.6715    1.8241    0.2029 H   0  0  0  0  0  0  0  0  0  0  0  0
   -3.0726    0.9705   -0.2413 H   0  0  0  0  0  0  0  0  0  0  0  0
   -0.3517   -1.2643    1.9593 H   0  0  0  0  0  0  0  0  0  0  0  0
   -0.5881   -2.3354   -0.5612 H   0  0  0  0  0  0  0  0  0  0  0  0
  1  2  1  0
  2  3  1  0
  3  4  1  0
  4  5  1  0
  5  6  1  0
  6  7  1  0
  7  8  1  0
  8  9  1  0
  7  3  1  0
  8  3  1  0
  9  5  1  0
  1 10  1  0
  1 11  1  0
  1 12  1  0
  2 13  1  0
  2 14  1  0
  4 15  1  0
  4 16  1  0
  5 17  1  0
  7 18  1  0
  8 19  1  0
M  END
