
     RDKit          3D

 23 24  0  0  0  0  0  0  0  0999 V2000
    2.7177    0.1513    0.6754 C   0  0  0  0  0  0  0  0  0  0  0  0
    1.8853   -0.6767   -0.2720 C   0  0  0  0  0  0  0  0  0  0  0  0
    0.6535    0.0258   -0.7412 C   0  0  0  0  0  0  0  0  0  0  0  0
   -0.2337    0.3807    0.4350 C   0  0  0  0  0  0  0  0  0  0  0  0
   -0.9600    1.6763    0.1349 C   0  0  0  0  0  0  0  0  0  0  0  0
   -1.1138   -0.8182    0.2154 C   0  0  0  0  0  0  0  0  0  0  0  0
   -2.6016   -0.6916    0.2249 C   0  0  0  0  0  0  0  0  0  0  0  0
   -0.5992   -2.0008   -0.2622 O   0  0  0  0  0  0  0  0  0  0  0  0
   -0.4085   -0.9694   -1.1409 C   0  0  0  0  0  0  0  0  0  0  0  0
    3.7279   -0.3341    0.7575 H   0  0  0  0  0  0  0  0  0  0  0  0
    2.3055    0.2259    1.6819 H   0  0  0  0  0  0  0  0  0  0  0  0
    2.9146    1.1681    0.2849 H   0  0  0  0  0  0  0  0  0  0  0  0
    1.5439   -1.5849    0.2979 H   0  0  0  0  0  0  0  0  0  0  0  0
    2.5397   -0.9835   -1.1282 H   0  0  0  0  0  0  0  0  0  0  0  0
    0.8175    0.8522   -1.4578 H   0  0  0  0  0  0  0  0  0  0  0  0
    0.2915    0.4186    1.4181 H   0  0  0  0  0  0  0  0  0  0  0  0
   -1.8698    1.4479   -0.4862 H   0  0  0  0  0  0  0  0  0  0  0  0
   -0.3187    2.3417   -0.4769 H   0  0  0  0  0  0  0  0  0  0  0  0
   -1.2444    2.2170    1.0501 H   0  0  0  0  0  0  0  0  0  0  0  0
   -3.0139   -0.3786   -0.7623 H   0  0  0  0  0  0  0  0  0  0  0  0
   -3.0176   -1.6974    0.5233 H   0  0  0  0  0  0  0  0  0  0  0  0
   -2.9506    0.0063    1.0147 H   0  0  0  0  0  0  0  0  0  0  0  0
   -1.0655   -0.7765   -1.9864 H   0  0  0  0  0  0  0  0  0  0  0  0
  1  2  1  0
  2  3  1  0
  3  4  1  0
  4  5  1  0
  4  6  1  0
  6  7  1  0
  6  8  1  0
  8  9  1  0
  9  3  1  0
  9  6  1  0
  1 10  1  0
  1 11  1  0
  1 12  1  0
  2 13  1  0
  2 14  1  0
  3 15  1  0
  4 16  1  0
  5 17  1  0
  5 18  1  0
  5 19  1  0
  7 20  1  0
  7 21  1  0
  7 22  1  0
  9 23  1  0
M  END
