
     RDKit          3D

 23 23  0  0  0  0  0  0  0  0999 V2000
   -2.3680    1.3795    0.2567 C   0  0  0  0  0  0  0  0  0  0  0  0
   -2.0331   -0.0002   -0.2051 C   0  0  0  0  0  0  0  0  0  0  0  0
   -0.8911   -0.6272    0.5222 C   0  0  0  0  0  0  0  0  0  0  0  0
   -0.6330   -2.0285   -0.0245 C   0  0  0  0  0  0  0  0  0  0  0  0
    0.7513   -1.7722   -0.0696 O   0  0  0  0  0  0  0  0  0  0  0  0
    0.4788   -0.4010   -0.0647 C   0  0  0  0  0  0  0  0  0  0  0  0
    1.3895    0.2805    0.9423 C   0  0  0  0  0  0  0  0  0  0  0  0
    2.7349    0.0970    0.6345 O   0  0  0  0  0  0  0  0  0  0  0  0
    3.0974    0.5961   -0.5969 C   0  0  0  0  0  0  0  0  0  0  0  0
   -1.7401    2.1677   -0.1754 H   0  0  0  0  0  0  0  0  0  0  0  0
   -2.3376    1.4975    1.3582 H   0  0  0  0  0  0  0  0  0  0  0  0
   -3.4268    1.5886   -0.0424 H   0  0  0  0  0  0  0  0  0  0  0  0
   -2.9313   -0.6452   -0.0433 H   0  0  0  0  0  0  0  0  0  0  0  0
   -1.7944    0.0480   -1.2836 H   0  0  0  0  0  0  0  0  0  0  0  0
   -0.9191   -0.6253    1.6101 H   0  0  0  0  0  0  0  0  0  0  0  0
   -0.8198   -2.8349    0.7124 H   0  0  0  0  0  0  0  0  0  0  0  0
   -1.0285   -2.1962   -1.0383 H   0  0  0  0  0  0  0  0  0  0  0  0
    0.5138   -0.0006   -1.0747 H   0  0  0  0  0  0  0  0  0  0  0  0
    1.1450    1.3636    1.0226 H   0  0  0  0  0  0  0  0  0  0  0  0
    1.2354   -0.1771    1.9441 H   0  0  0  0  0  0  0  0  0  0  0  0
    2.5214    0.1006   -1.3764 H   0  0  0  0  0  0  0  0  0  0  0  0
    2.8619    1.6858   -0.6613 H   0  0  0  0  0  0  0  0  0  0  0  0
    4.1934    0.5034   -0.7177 H   0  0  0  0  0  0  0  0  0  0  0  0
  1  2  1  0
  2  3  1  0
  3  4  1  0
  4  5  1  0
  5  6  1  0
  6  7  1  0
  7  8  1  0
  8  9  1  0
  6  3  1  0
  1 10  1  0
  1 11  1  0
  1 12  1  0
  2 13  1  0
  2 14  1  0
  3 15  1  0
  4 16  1  0
  4 17  1  0
  6 18  1  0
  7 19  1  0
  7 20  1  0
  9 21  1  0
  9 22  1  0
  9 23  1  0
M  END
