
     RDKit          3D

 20 20  0  0  0  0  0  0  0  0999 V2000
    1.9969   -0.3568   -0.7717 C   0  0  0  0  0  0  0  0  0  0  0  0
    1.5542    0.0625    0.5867 C   0  0  0  0  0  0  0  0  0  0  0  0
    0.0927    0.2724    0.7471 C   0  0  0  0  0  0  0  0  0  0  0  0
   -0.4868    1.3307   -0.1515 C   0  0  0  0  0  0  0  0  0  0  0  0
   -1.9540    1.0039    0.0055 C   0  0  0  0  0  0  0  0  0  0  0  0
   -2.1000   -0.2770    0.3097 C   0  0  0  0  0  0  0  0  0  0  0  0
   -0.7532   -0.9049    0.3794 C   0  0  0  0  0  0  0  0  0  0  0  0
   -0.4778   -1.3697   -0.9207 O   0  0  0  0  0  0  0  0  0  0  0  0
    3.1171   -0.2068   -0.8112 H   0  0  0  0  0  0  0  0  0  0  0  0
    1.5940    0.2634   -1.5824 H   0  0  0  0  0  0  0  0  0  0  0  0
    1.8578   -1.4450   -0.9439 H   0  0  0  0  0  0  0  0  0  0  0  0
    1.8846   -0.6793    1.3304 H   0  0  0  0  0  0  0  0  0  0  0  0
    2.0641    1.0182    0.8575 H   0  0  0  0  0  0  0  0  0  0  0  0
   -0.1225    0.5464    1.7815 H   0  0  0  0  0  0  0  0  0  0  0  0
   -0.2531    2.3513    0.1315 H   0  0  0  0  0  0  0  0  0  0  0  0
   -0.2426    1.0610   -1.1976 H   0  0  0  0  0  0  0  0  0  0  0  0
   -2.7366    1.7140   -0.1151 H   0  0  0  0  0  0  0  0  0  0  0  0
   -3.0269   -0.8149    0.4858 H   0  0  0  0  0  0  0  0  0  0  0  0
   -0.7075   -1.7297    1.1149 H   0  0  0  0  0  0  0  0  0  0  0  0
   -1.3004   -1.8396   -1.2357 H   0  0  0  0  0  0  0  0  0  0  0  0
  1  2  1  0
  2  3  1  0
  3  4  1  0
  4  5  1  0
  5  6  2  0
  6  7  1  0
  7  8  1  0
  7  3  1  0
  1  9  1  0
  1 10  1  0
  1 11  1  0
  2 12  1  0
  2 13  1  0
  3 14  1  0
  4 15  1  0
  4 16  1  0
  5 17  1  0
  6 18  1  0
  7 19  1  0
  8 20  1  0
M  END
