
     RDKit          3D

 21 22  0  0  0  0  0  0  0  0999 V2000
    2.7639   -0.5500    0.3456 C   0  0  0  0  0  0  0  0  0  0  0  0
    1.6342    0.4134    0.0333 C   0  0  0  0  0  0  0  0  0  0  0  0
    0.2775   -0.1913    0.4104 C   0  0  0  0  0  0  0  0  0  0  0  0
    0.1409   -1.3446   -0.3353 O   0  0  0  0  0  0  0  0  0  0  0  0
   -1.1645   -1.4350   -0.7575 C   0  0  0  0  0  0  0  0  0  0  0  0
   -1.6726   -0.0193   -0.8931 C   0  0  0  0  0  0  0  0  0  0  0  0
   -2.2139    0.5741    0.3619 C   0  0  0  0  0  0  0  0  0  0  0  0
   -0.7936    0.7607    0.0297 C   0  0  0  0  0  0  0  0  0  0  0  0
   -0.3962    2.0542   -0.3528 O   0  0  0  0  0  0  0  0  0  0  0  0
    3.3306   -0.8310   -0.5678 H   0  0  0  0  0  0  0  0  0  0  0  0
    3.4260   -0.0605    1.1067 H   0  0  0  0  0  0  0  0  0  0  0  0
    2.3812   -1.4684    0.8166 H   0  0  0  0  0  0  0  0  0  0  0  0
    1.7637    1.3782    0.6018 H   0  0  0  0  0  0  0  0  0  0  0  0
    1.6572    0.6489   -1.0291 H   0  0  0  0  0  0  0  0  0  0  0  0
    0.2961   -0.4666    1.4809 H   0  0  0  0  0  0  0  0  0  0  0  0
   -1.7380   -1.9552    0.0583 H   0  0  0  0  0  0  0  0  0  0  0  0
   -1.2921   -1.9456   -1.7341 H   0  0  0  0  0  0  0  0  0  0  0  0
   -1.8335    0.4293   -1.8768 H   0  0  0  0  0  0  0  0  0  0  0  0
   -2.8657    1.4700    0.3259 H   0  0  0  0  0  0  0  0  0  0  0  0
   -2.5471   -0.1446    1.1607 H   0  0  0  0  0  0  0  0  0  0  0  0
   -1.1540    2.6832   -0.2461 H   0  0  0  0  0  0  0  0  0  0  0  0
  1  2  1  0
  2  3  1  0
  3  4  1  0
  4  5  1  0
  5  6  1  0
  6  7  1  0
  7  8  1  0
  8  9  1  0
  8  3  1  0
  8  6  1  0
  1 10  1  0
  1 11  1  0
  1 12  1  0
  2 13  1  0
  2 14  1  0
  3 15  1  0
  5 16  1  0
  5 17  1  0
  6 18  1  0
  7 19  1  0
  7 20  1  0
  9 21  1  0
M  END
