
     RDKit          3D

 21 22  0  0  0  0  0  0  0  0999 V2000
    2.3223    0.6664    0.2843 C   0  0  0  0  0  0  0  0  0  0  0  0
    2.0292   -0.7722    0.0153 C   0  0  0  0  0  0  0  0  0  0  0  0
    0.6620   -1.0396   -0.5104 C   0  0  0  0  0  0  0  0  0  0  0  0
    0.4957   -0.2978   -1.8057 O   0  0  0  0  0  0  0  0  0  0  0  0
   -0.3817   -0.1428   -0.7644 C   0  0  0  0  0  0  0  0  0  0  0  0
   -1.7718   -0.7021   -1.0457 C   0  0  0  0  0  0  0  0  0  0  0  0
   -2.6452    0.2231   -0.2644 C   0  0  0  0  0  0  0  0  0  0  0  0
   -2.0209    1.4595   -0.4653 O   0  0  0  0  0  0  0  0  0  0  0  0
   -0.6686    1.1783   -0.1622 C   0  0  0  0  0  0  0  0  0  0  0  0
    1.7715    1.1067    1.1197 H   0  0  0  0  0  0  0  0  0  0  0  0
    3.4080    0.7563    0.4932 H   0  0  0  0  0  0  0  0  0  0  0  0
    2.1707    1.2167   -0.6860 H   0  0  0  0  0  0  0  0  0  0  0  0
    2.1616   -1.3968    0.9373 H   0  0  0  0  0  0  0  0  0  0  0  0
    2.8351   -1.1458   -0.6821 H   0  0  0  0  0  0  0  0  0  0  0  0
    0.5031   -2.1317   -0.7561 H   0  0  0  0  0  0  0  0  0  0  0  0
   -1.9682   -0.6111   -2.1419 H   0  0  0  0  0  0  0  0  0  0  0  0
   -1.8928   -1.7266   -0.6690 H   0  0  0  0  0  0  0  0  0  0  0  0
   -3.6660    0.2066   -0.6416 H   0  0  0  0  0  0  0  0  0  0  0  0
   -2.6311   -0.0383    0.8061 H   0  0  0  0  0  0  0  0  0  0  0  0
   -0.0937    2.0053   -0.6264 H   0  0  0  0  0  0  0  0  0  0  0  0
   -0.6194    1.1860    0.9500 H   0  0  0  0  0  0  0  0  0  0  0  0
  1  2  1  0
  2  3  1  0
  3  4  1  0
  4  5  1  0
  5  6  1  0
  6  7  1  0
  7  8  1  0
  8  9  1  0
  5  3  1  0
  9  5  1  0
  1 10  1  0
  1 11  1  0
  1 12  1  0
  2 13  1  0
  2 14  1  0
  3 15  1  0
  6 16  1  0
  6 17  1  0
  7 18  1  0
  7 19  1  0
  9 20  1  0
  9 21  1  0
M  END
