
     RDKit          3D

 22 22  0  0  0  0  0  0  0  0999 V2000
   -0.9225    1.7917    0.2088 C   0  0  0  0  0  0  0  0  0  0  0  0
    0.2349    0.9762    0.6500 C   0  0  0  0  0  0  0  0  0  0  0  0
    0.4280   -0.3449   -0.0117 C   0  0  0  0  0  0  0  0  0  0  0  0
    1.5573   -1.0533    0.4526 O   0  0  0  0  0  0  0  0  0  0  0  0
    2.7260   -0.3424    0.2399 C   0  0  0  0  0  0  0  0  0  0  0  0
   -0.0842   -0.5221   -1.3753 C   0  0  0  0  0  0  0  0  0  0  0  0
   -0.7264   -1.2788   -0.2772 C   0  0  0  0  0  0  0  0  0  0  0  0
   -2.1044   -1.0093    0.2025 C   0  0  0  0  0  0  0  0  0  0  0  0
   -1.5918    1.3568   -0.5326 H   0  0  0  0  0  0  0  0  0  0  0  0
   -1.5784    1.9821    1.1139 H   0  0  0  0  0  0  0  0  0  0  0  0
   -0.5725    2.7746   -0.2034 H   0  0  0  0  0  0  0  0  0  0  0  0
    1.1716    1.5917    0.4749 H   0  0  0  0  0  0  0  0  0  0  0  0
    0.2292    0.8426    1.7622 H   0  0  0  0  0  0  0  0  0  0  0  0
    2.9077   -0.1203   -0.8420 H   0  0  0  0  0  0  0  0  0  0  0  0
    2.8571    0.5281    0.8954 H   0  0  0  0  0  0  0  0  0  0  0  0
    3.5668   -1.0468    0.5125 H   0  0  0  0  0  0  0  0  0  0  0  0
   -0.5983    0.2870   -1.9076 H   0  0  0  0  0  0  0  0  0  0  0  0
    0.6035   -1.0827   -2.0825 H   0  0  0  0  0  0  0  0  0  0  0  0
   -0.5003   -2.3891   -0.3156 H   0  0  0  0  0  0  0  0  0  0  0  0
   -2.2072   -0.3096    1.0441 H   0  0  0  0  0  0  0  0  0  0  0  0
   -2.8207   -0.6642   -0.5995 H   0  0  0  0  0  0  0  0  0  0  0  0
   -2.5754   -1.9674    0.5903 H   0  0  0  0  0  0  0  0  0  0  0  0
  1  2  1  0
  2  3  1  0
  3  4  1  0
  4  5  1  0
  3  6  1  0
  6  7  1  0
  7  8  1  0
  7  3  1  0
  1  9  1  0
  1 10  1  0
  1 11  1  0
  2 12  1  0
  2 13  1  0
  5 14  1  0
  5 15  1  0
  5 16  1  0
  6 17  1  0
  6 18  1  0
  7 19  1  0
  8 20  1  0
  8 21  1  0
  8 22  1  0
M  END
