
     RDKit          3D

 19 19  0  0  0  0  0  0  0  0999 V2000
    2.4873   -0.1937   -0.0920 C   0  0  0  0  0  0  0  0  0  0  0  0
    1.4070    0.8395   -0.2700 C   0  0  0  0  0  0  0  0  0  0  0  0
    0.0533    0.3072    0.1284 C   0  0  0  0  0  0  0  0  0  0  0  0
   -0.3455   -0.8966   -0.6974 C   0  0  0  0  0  0  0  0  0  0  0  0
   -1.3272   -1.5727    0.1129 O   0  0  0  0  0  0  0  0  0  0  0  0
   -2.1166   -0.6807    0.8353 C   0  0  0  0  0  0  0  0  0  0  0  0
   -2.7309   -1.0163    1.8771 O   0  0  0  0  0  0  0  0  0  0  0  0
   -2.1753    0.6984    0.2776 C   0  0  0  0  0  0  0  0  0  0  0  0
   -0.9387    1.2524    0.0497 O   0  0  0  0  0  0  0  0  0  0  0  0
    2.1436   -1.1072    0.4264 H   0  0  0  0  0  0  0  0  0  0  0  0
    3.3259    0.2242    0.4858 H   0  0  0  0  0  0  0  0  0  0  0  0
    2.9260   -0.5190   -1.0744 H   0  0  0  0  0  0  0  0  0  0  0  0
    1.6374    1.7956    0.2385 H   0  0  0  0  0  0  0  0  0  0  0  0
    1.3318    1.0868   -1.3689 H   0  0  0  0  0  0  0  0  0  0  0  0
    0.1430    0.0026    1.2060 H   0  0  0  0  0  0  0  0  0  0  0  0
    0.5481   -1.5198   -0.8388 H   0  0  0  0  0  0  0  0  0  0  0  0
   -0.8753   -0.6304   -1.6207 H   0  0  0  0  0  0  0  0  0  0  0  0
   -2.7427    1.3150    1.0150 H   0  0  0  0  0  0  0  0  0  0  0  0
   -2.7511    0.6150   -0.6905 H   0  0  0  0  0  0  0  0  0  0  0  0
  1  2  1  0
  2  3  1  0
  3  4  1  0
  4  5  1  0
  5  6  1  0
  6  7  2  0
  6  8  1  0
  8  9  1  0
  9  3  1  0
  1 10  1  0
  1 11  1  0
  1 12  1  0
  2 13  1  0
  2 14  1  0
  3 15  1  0
  4 16  1  0
  4 17  1  0
  8 18  1  0
  8 19  1  0
M  END
