
     RDKit          3D

 17 17  0  0  0  0  0  0  0  0999 V2000
    2.0781   -0.4476   -0.0801 C   0  0  0  0  0  0  0  0  0  0  0  0
    0.9633    0.5473   -0.1338 C   0  0  0  0  0  0  0  0  0  0  0  0
   -0.3987   -0.0842   -0.2575 C   0  0  0  0  0  0  0  0  0  0  0  0
   -0.6020   -0.8632   -1.3706 O   0  0  0  0  0  0  0  0  0  0  0  0
   -1.0229   -0.5572    1.0215 C   0  0  0  0  0  0  0  0  0  0  0  0
   -1.5476    0.7181    1.2467 O   0  0  0  0  0  0  0  0  0  0  0  0
   -1.4847    0.9621   -0.1250 C   0  0  0  0  0  0  0  0  0  0  0  0
    2.4715   -0.7203   -1.0948 H   0  0  0  0  0  0  0  0  0  0  0  0
    2.9443   -0.0036    0.4597 H   0  0  0  0  0  0  0  0  0  0  0  0
    1.8178   -1.3716    0.4805 H   0  0  0  0  0  0  0  0  0  0  0  0
    1.1093    1.1671   -1.0652 H   0  0  0  0  0  0  0  0  0  0  0  0
    0.9873    1.2394    0.7141 H   0  0  0  0  0  0  0  0  0  0  0  0
   -1.5364   -1.1568   -1.3768 H   0  0  0  0  0  0  0  0  0  0  0  0
   -0.3358   -0.9031    1.8014 H   0  0  0  0  0  0  0  0  0  0  0  0
   -1.8691   -1.2573    0.7870 H   0  0  0  0  0  0  0  0  0  0  0  0
   -1.1439    2.0061   -0.3717 H   0  0  0  0  0  0  0  0  0  0  0  0
   -2.4305    0.7250   -0.6354 H   0  0  0  0  0  0  0  0  0  0  0  0
  1  2  1  0
  2  3  1  0
  3  4  1  0
  3  5  1  0
  5  6  1  0
  6  7  1  0
  7  3  1  0
  1  8  1  0
  1  9  1  0
  1 10  1  0
  2 11  1  0
  2 12  1  0
  4 13  1  0
  5 14  1  0
  5 15  1  0
  7 16  1  0
  7 17  1  0
M  END
