
     RDKit          3D

 23 24  0  0  0  0  0  0  0  0999 V2000
    2.5687    0.3139   -0.2390 C   0  0  0  0  0  0  0  0  0  0  0  0
    1.1485    0.5992   -0.7550 C   0  0  0  0  0  0  0  0  0  0  0  0
    0.1817   -0.0837   -0.0737 C   0  0  0  0  0  0  0  0  0  0  0  0
    0.0643   -1.5955    0.0423 C   0  0  0  0  0  0  0  0  0  0  0  0
   -1.0963   -1.0603    0.8559 C   0  0  0  0  0  0  0  0  0  0  0  0
   -0.0827   -0.0983    1.4026 C   0  0  0  0  0  0  0  0  0  0  0  0
   -1.2932   -0.0792   -0.2591 C   0  0  0  0  0  0  0  0  0  0  0  0
   -2.0223    1.1869    0.0919 C   0  0  0  0  0  0  0  0  0  0  0  0
   -1.7732   -0.6076   -1.4563 O   0  0  0  0  0  0  0  0  0  0  0  0
    2.7405    0.9134    0.7043 H   0  0  0  0  0  0  0  0  0  0  0  0
    3.2582    0.7504   -0.9917 H   0  0  0  0  0  0  0  0  0  0  0  0
    2.7275   -0.7487   -0.0435 H   0  0  0  0  0  0  0  0  0  0  0  0
    1.2103    0.3573   -1.8488 H   0  0  0  0  0  0  0  0  0  0  0  0
    1.0553    1.7053   -0.7172 H   0  0  0  0  0  0  0  0  0  0  0  0
    0.8435   -2.0032    0.6829 H   0  0  0  0  0  0  0  0  0  0  0  0
   -0.1826   -2.1246   -0.8736 H   0  0  0  0  0  0  0  0  0  0  0  0
   -1.7786   -1.5955    1.3510 H   0  0  0  0  0  0  0  0  0  0  0  0
    0.7071   -0.6607    1.9416 H   0  0  0  0  0  0  0  0  0  0  0  0
   -0.4455    0.8149    1.8609 H   0  0  0  0  0  0  0  0  0  0  0  0
   -2.7994    1.0155    0.8701 H   0  0  0  0  0  0  0  0  0  0  0  0
   -2.5676    1.5795   -0.7946 H   0  0  0  0  0  0  0  0  0  0  0  0
   -1.3575    1.9919    0.4364 H   0  0  0  0  0  0  0  0  0  0  0  0
   -1.1067   -0.5708   -2.1874 H   0  0  0  0  0  0  0  0  0  0  0  0
  1  2  1  0
  2  3  1  0
  3  4  1  0
  4  5  1  0
  5  6  1  0
  5  7  1  0
  7  8  1  0
  7  9  1  0
  6  3  1  0
  7  3  1  0
  1 10  1  0
  1 11  1  0
  1 12  1  0
  2 13  1  0
  2 14  1  0
  4 15  1  0
  4 16  1  0
  5 17  1  0
  6 18  1  0
  6 19  1  0
  8 20  1  0
  8 21  1  0
  8 22  1  0
  9 23  1  0
M  END
