
     RDKit          3D

 19 20  0  0  0  0  0  0  0  0999 V2000
   -1.7954   -0.8474    0.5740 C   0  0  0  0  0  0  0  0  0  0  0  0
   -1.3788    0.5304    0.2297 C   0  0  0  0  0  0  0  0  0  0  0  0
    0.0895    0.7214   -0.1094 C   0  0  0  0  0  0  0  0  0  0  0  0
    0.3004    2.1855   -0.4719 C   0  0  0  0  0  0  0  0  0  0  0  0
    1.1184    2.8933    0.0786 O   0  0  0  0  0  0  0  0  0  0  0  0
    0.8203   -0.3167   -0.8388 C   0  0  0  0  0  0  0  0  0  0  0  0
    1.3375   -1.5664   -0.2619 C   0  0  0  0  0  0  0  0  0  0  0  0
    1.0857   -1.1681    1.0541 O   0  0  0  0  0  0  0  0  0  0  0  0
    1.2321    0.1268    0.5670 C   0  0  0  0  0  0  0  0  0  0  0  0
   -2.6986   -1.1449   -0.0767 H   0  0  0  0  0  0  0  0  0  0  0  0
   -2.1770   -0.9456    1.6068 H   0  0  0  0  0  0  0  0  0  0  0  0
   -1.0643   -1.6688    0.3970 H   0  0  0  0  0  0  0  0  0  0  0  0
   -1.5777    1.2075    1.1474 H   0  0  0  0  0  0  0  0  0  0  0  0
   -1.9909    0.9695   -0.5485 H   0  0  0  0  0  0  0  0  0  0  0  0
   -0.3287    2.5871   -1.3076 H   0  0  0  0  0  0  0  0  0  0  0  0
    1.3885    0.0395   -1.6999 H   0  0  0  0  0  0  0  0  0  0  0  0
    0.9214   -2.5536   -0.5534 H   0  0  0  0  0  0  0  0  0  0  0  0
    2.4682   -1.6539   -0.3418 H   0  0  0  0  0  0  0  0  0  0  0  0
    2.2493    0.6046    0.5552 H   0  0  0  0  0  0  0  0  0  0  0  0
  1  2  1  0
  2  3  1  0
  3  4  1  0
  4  5  2  0
  3  6  1  0
  6  7  1  0
  7  8  1  0
  8  9  1  0
  9  3  1  0
  9  6  1  0
  1 10  1  0
  1 11  1  0
  1 12  1  0
  2 13  1  0
  2 14  1  0
  4 15  1  0
  6 16  1  0
  7 17  1  0
  7 18  1  0
  9 19  1  0
M  END
