
     RDKit          3D

 21 21  0  0  0  0  0  0  0  0999 V2000
    2.9317   -0.0089    0.3703 C   0  0  0  0  0  0  0  0  0  0  0  0
    1.7200   -0.9041    0.1712 C   0  0  0  0  0  0  0  0  0  0  0  0
    0.6338   -0.0344   -0.4240 C   0  0  0  0  0  0  0  0  0  0  0  0
    0.2841    1.0995    0.4763 C   0  0  0  0  0  0  0  0  0  0  0  0
   -1.0328    1.2713    0.5067 C   0  0  0  0  0  0  0  0  0  0  0  0
   -1.7069    0.2767   -0.3651 C   0  0  0  0  0  0  0  0  0  0  0  0
   -2.9665   -0.2736    0.2616 C   0  0  0  0  0  0  0  0  0  0  0  0
   -0.6545   -0.7374   -0.5448 C   0  0  0  0  0  0  0  0  0  0  0  0
   -0.8107   -1.9076   -0.7495 O   0  0  0  0  0  0  0  0  0  0  0  0
    2.8005    0.5730    1.2887 H   0  0  0  0  0  0  0  0  0  0  0  0
    3.8414   -0.6484    0.3695 H   0  0  0  0  0  0  0  0  0  0  0  0
    2.9397    0.6976   -0.4830 H   0  0  0  0  0  0  0  0  0  0  0  0
    1.3648   -1.3630    1.0888 H   0  0  0  0  0  0  0  0  0  0  0  0
    1.9448   -1.6889   -0.5658 H   0  0  0  0  0  0  0  0  0  0  0  0
    0.9688    0.3819   -1.4073 H   0  0  0  0  0  0  0  0  0  0  0  0
    1.0088    1.6949    1.0252 H   0  0  0  0  0  0  0  0  0  0  0  0
   -1.5122    2.0418    1.0982 H   0  0  0  0  0  0  0  0  0  0  0  0
   -1.8870    0.7502   -1.3512 H   0  0  0  0  0  0  0  0  0  0  0  0
   -3.1561   -1.3323   -0.0155 H   0  0  0  0  0  0  0  0  0  0  0  0
   -2.8790   -0.2292    1.3660 H   0  0  0  0  0  0  0  0  0  0  0  0
   -3.8328    0.3409   -0.0653 H   0  0  0  0  0  0  0  0  0  0  0  0
  1  2  1  0
  2  3  1  0
  3  4  1  0
  4  5  2  0
  5  6  1  0
  6  7  1  0
  6  8  1  0
  8  9  2  0
  8  3  1  0
  1 10  1  0
  1 11  1  0
  1 12  1  0
  2 13  1  0
  2 14  1  0
  3 15  1  0
  4 16  1  0
  5 17  1  0
  6 18  1  0
  7 19  1  0
  7 20  1  0
  7 21  1  0
M  END
