
     RDKit          3D

 19 20  0  0  0  0  0  0  0  0999 V2000
    2.3996   -0.2657    0.0645 C   0  0  0  0  0  0  0  0  0  0  0  0
    0.9738   -0.7453    0.2575 C   0  0  0  0  0  0  0  0  0  0  0  0
    0.1306    0.0789   -0.6763 C   0  0  0  0  0  0  0  0  0  0  0  0
    0.2903    1.5180   -0.2969 C   0  0  0  0  0  0  0  0  0  0  0  0
    1.2068    2.3050   -0.4199 O   0  0  0  0  0  0  0  0  0  0  0  0
   -1.0996    1.4367    0.2321 C   0  0  0  0  0  0  0  0  0  0  0  0
   -2.0491    1.3004   -0.7419 O   0  0  0  0  0  0  0  0  0  0  0  0
   -1.3195    0.2064   -0.3177 C   0  0  0  0  0  0  0  0  0  0  0  0
   -2.1249   -0.9564    0.1259 C   0  0  0  0  0  0  0  0  0  0  0  0
    3.0973   -1.0314    0.4528 H   0  0  0  0  0  0  0  0  0  0  0  0
    2.5246    0.6898    0.6417 H   0  0  0  0  0  0  0  0  0  0  0  0
    2.6317   -0.1216   -1.0194 H   0  0  0  0  0  0  0  0  0  0  0  0
    0.7054   -0.4845    1.3221 H   0  0  0  0  0  0  0  0  0  0  0  0
    0.8677   -1.8301    0.1125 H   0  0  0  0  0  0  0  0  0  0  0  0
    0.2906   -0.1579   -1.7289 H   0  0  0  0  0  0  0  0  0  0  0  0
   -1.3294    1.7816    1.2451 H   0  0  0  0  0  0  0  0  0  0  0  0
   -2.6196   -1.4755   -0.7457 H   0  0  0  0  0  0  0  0  0  0  0  0
   -1.5883   -1.6828    0.7576 H   0  0  0  0  0  0  0  0  0  0  0  0
   -2.9881   -0.5656    0.7350 H   0  0  0  0  0  0  0  0  0  0  0  0
  1  2  1  0
  2  3  1  0
  3  4  1  0
  4  5  2  0
  4  6  1  0
  6  7  1  0
  7  8  1  0
  8  9  1  0
  8  3  1  0
  8  6  1  0
  1 10  1  0
  1 11  1  0
  1 12  1  0
  2 13  1  0
  2 14  1  0
  3 15  1  0
  6 16  1  0
  9 17  1  0
  9 18  1  0
  9 19  1  0
M  END
