
     RDKit          3D

 23 23  0  0  0  0  0  0  0  0999 V2000
    2.8263    0.2383   -0.5474 C   0  0  0  0  0  0  0  0  0  0  0  0
    1.9250   -0.6347    0.3076 C   0  0  0  0  0  0  0  0  0  0  0  0
    0.7313    0.1752    0.6875 C   0  0  0  0  0  0  0  0  0  0  0  0
   -0.0246    0.6344   -0.5390 C   0  0  0  0  0  0  0  0  0  0  0  0
   -1.2515    0.0133    0.0578 C   0  0  0  0  0  0  0  0  0  0  0  0
   -1.8275   -1.1509   -0.7321 C   0  0  0  0  0  0  0  0  0  0  0  0
   -2.2607    1.0458    0.4472 C   0  0  0  0  0  0  0  0  0  0  0  0
   -0.4417   -0.5429    1.1948 C   0  0  0  0  0  0  0  0  0  0  0  0
   -0.7676   -1.2814    2.0980 O   0  0  0  0  0  0  0  0  0  0  0  0
    2.6420    1.3195   -0.3332 H   0  0  0  0  0  0  0  0  0  0  0  0
    3.9009    0.0707   -0.3093 H   0  0  0  0  0  0  0  0  0  0  0  0
    2.6443    0.0819   -1.6330 H   0  0  0  0  0  0  0  0  0  0  0  0
    2.4475   -1.1167    1.1365 H   0  0  0  0  0  0  0  0  0  0  0  0
    1.5685   -1.4567   -0.3667 H   0  0  0  0  0  0  0  0  0  0  0  0
    1.0385    1.0071    1.3705 H   0  0  0  0  0  0  0  0  0  0  0  0
    0.2533    0.1577   -1.4862 H   0  0  0  0  0  0  0  0  0  0  0  0
   -0.0065    1.7384   -0.5995 H   0  0  0  0  0  0  0  0  0  0  0  0
   -2.5986   -1.6209   -0.0874 H   0  0  0  0  0  0  0  0  0  0  0  0
   -2.1939   -0.8409   -1.7172 H   0  0  0  0  0  0  0  0  0  0  0  0
   -1.0018   -1.9134   -0.8350 H   0  0  0  0  0  0  0  0  0  0  0  0
   -1.9682    2.0789    0.0973 H   0  0  0  0  0  0  0  0  0  0  0  0
   -3.2424    0.8540   -0.0733 H   0  0  0  0  0  0  0  0  0  0  0  0
   -2.3923    1.1434    1.5448 H   0  0  0  0  0  0  0  0  0  0  0  0
  1  2  1  0
  2  3  1  0
  3  4  1  0
  4  5  1  0
  5  6  1  0
  5  7  1  0
  5  8  1  0
  8  9  2  0
  8  3  1  0
  1 10  1  0
  1 11  1  0
  1 12  1  0
  2 13  1  0
  2 14  1  0
  3 15  1  0
  4 16  1  0
  4 17  1  0
  6 18  1  0
  6 19  1  0
  6 20  1  0
  7 21  1  0
  7 22  1  0
  7 23  1  0
M  END
