
     RDKit          3D

 25 26  0  0  0  0  0  0  0  0999 V2000
   -2.1335   -0.8824    0.6959 C   0  0  0  0  0  0  0  0  0  0  0  0
   -0.7658   -0.5986    1.2512 C   0  0  0  0  0  0  0  0  0  0  0  0
    0.1917   -0.2667    0.1305 C   0  0  0  0  0  0  0  0  0  0  0  0
   -0.1131    0.9306   -0.6692 C   0  0  0  0  0  0  0  0  0  0  0  0
   -0.0808    2.3256   -0.2058 C   0  0  0  0  0  0  0  0  0  0  0  0
   -1.3916    1.6784   -0.2844 C   0  0  0  0  0  0  0  0  0  0  0  0
    0.5209   -1.5239   -0.7193 C   0  0  0  0  0  0  0  0  0  0  0  0
    1.5202   -0.8766    0.2334 C   0  0  0  0  0  0  0  0  0  0  0  0
    2.7341   -0.3331   -0.4662 C   0  0  0  0  0  0  0  0  0  0  0  0
   -2.9702   -0.4734    1.2917 H   0  0  0  0  0  0  0  0  0  0  0  0
   -2.2013   -0.6073   -0.3616 H   0  0  0  0  0  0  0  0  0  0  0  0
   -2.2225   -2.0188    0.6887 H   0  0  0  0  0  0  0  0  0  0  0  0
   -0.3776   -1.4677    1.8580 H   0  0  0  0  0  0  0  0  0  0  0  0
   -0.8655    0.2766    1.9264 H   0  0  0  0  0  0  0  0  0  0  0  0
   -0.0425    0.7828   -1.7899 H   0  0  0  0  0  0  0  0  0  0  0  0
    0.1346    3.0965   -0.9738 H   0  0  0  0  0  0  0  0  0  0  0  0
    0.3364    2.5854    0.7819 H   0  0  0  0  0  0  0  0  0  0  0  0
   -1.8902    1.5163    0.6722 H   0  0  0  0  0  0  0  0  0  0  0  0
   -2.1231    1.9190   -1.0894 H   0  0  0  0  0  0  0  0  0  0  0  0
    0.6521   -1.3773   -1.8071 H   0  0  0  0  0  0  0  0  0  0  0  0
    0.1203   -2.4874   -0.4205 H   0  0  0  0  0  0  0  0  0  0  0  0
    1.7603   -1.4234    1.1661 H   0  0  0  0  0  0  0  0  0  0  0  0
    2.5049    0.3216   -1.3112 H   0  0  0  0  0  0  0  0  0  0  0  0
    3.4184    0.1231    0.2780 H   0  0  0  0  0  0  0  0  0  0  0  0
    3.2839   -1.2193   -0.8755 H   0  0  0  0  0  0  0  0  0  0  0  0
  1  2  1  0
  2  3  1  0
  3  4  1  0
  4  5  1  0
  5  6  1  0
  3  7  1  0
  7  8  1  0
  8  9  1  0
  8  3  1  0
  6  4  1  0
  1 10  1  0
  1 11  1  0
  1 12  1  0
  2 13  1  0
  2 14  1  0
  4 15  1  0
  5 16  1  0
  5 17  1  0
  6 18  1  0
  6 19  1  0
  7 20  1  0
  7 21  1  0
  8 22  1  0
  9 23  1  0
  9 24  1  0
  9 25  1  0
M  END
