
     RDKit          3D

 21 23  0  0  0  0  0  0  0  0999 V2000
    2.6443   -0.2591    0.5961 C   0  0  0  0  0  0  0  0  0  0  0  0
    1.4677   -0.0255   -0.3709 C   0  0  0  0  0  0  0  0  0  0  0  0
    0.2862    0.3226    0.5037 C   0  0  0  0  0  0  0  0  0  0  0  0
    0.5723    1.4167    1.1906 O   0  0  0  0  0  0  0  0  0  0  0  0
   -0.4037    1.6890    0.3533 C   0  0  0  0  0  0  0  0  0  0  0  0
   -0.8359    1.0855   -0.9460 C   0  0  0  0  0  0  0  0  0  0  0  0
   -0.9920   -0.1256   -0.0924 C   0  0  0  0  0  0  0  0  0  0  0  0
   -1.3526   -1.4400   -0.4900 C   0  0  0  0  0  0  0  0  0  0  0  0
   -2.1606   -0.5979    0.5536 C   0  0  0  0  0  0  0  0  0  0  0  0
    3.4976   -0.7123    0.0498 H   0  0  0  0  0  0  0  0  0  0  0  0
    2.3154   -1.0416    1.3339 H   0  0  0  0  0  0  0  0  0  0  0  0
    2.9833    0.6641    1.0593 H   0  0  0  0  0  0  0  0  0  0  0  0
    1.3641   -0.9508   -0.9300 H   0  0  0  0  0  0  0  0  0  0  0  0
    1.7753    0.7738   -1.0701 H   0  0  0  0  0  0  0  0  0  0  0  0
   -1.3466    1.8428    0.9797 H   0  0  0  0  0  0  0  0  0  0  0  0
   -0.0844    1.0954   -1.7305 H   0  0  0  0  0  0  0  0  0  0  0  0
   -1.7700    1.5341   -1.3372 H   0  0  0  0  0  0  0  0  0  0  0  0
   -0.7838   -2.3085   -0.0436 H   0  0  0  0  0  0  0  0  0  0  0  0
   -1.8998   -1.6614   -1.4353 H   0  0  0  0  0  0  0  0  0  0  0  0
   -3.1909   -0.3158    0.2152 H   0  0  0  0  0  0  0  0  0  0  0  0
   -2.0858   -0.9855    1.6107 H   0  0  0  0  0  0  0  0  0  0  0  0
  1  2  1  0
  2  3  1  0
  3  4  1  0
  4  5  1  0
  5  6  1  0
  6  7  1  0
  7  8  1  0
  8  9  1  0
  5  3  1  0
  9  7  1  0
  7  3  1  0
  1 10  1  0
  1 11  1  0
  1 12  1  0
  2 13  1  0
  2 14  1  0
  5 15  1  0
  6 16  1  0
  6 17  1  0
  8 18  1  0
  8 19  1  0
  9 20  1  0
  9 21  1  0
M  END
