
     RDKit          3D

 19 20  0  0  0  0  0  0  0  0999 V2000
    2.3578    0.6938    0.1569 C   0  0  0  0  0  0  0  0  0  0  0  0
    1.5247   -0.0708   -0.8220 C   0  0  0  0  0  0  0  0  0  0  0  0
    0.2803   -0.5867   -0.1313 C   0  0  0  0  0  0  0  0  0  0  0  0
   -0.5160   -1.3253   -1.0937 O   0  0  0  0  0  0  0  0  0  0  0  0
   -1.8554   -1.0896   -0.8076 C   0  0  0  0  0  0  0  0  0  0  0  0
   -2.8145   -1.3077   -1.5582 O   0  0  0  0  0  0  0  0  0  0  0  0
   -1.8348   -0.5519    0.5253 C   0  0  0  0  0  0  0  0  0  0  0  0
   -1.7050    0.7169    1.1097 C   0  0  0  0  0  0  0  0  0  0  0  0
   -0.6957    0.4977    0.1712 C   0  0  0  0  0  0  0  0  0  0  0  0
    2.8171    1.6022   -0.3267 H   0  0  0  0  0  0  0  0  0  0  0  0
    1.7047    1.0138    0.9959 H   0  0  0  0  0  0  0  0  0  0  0  0
    3.2018    0.0813    0.5790 H   0  0  0  0  0  0  0  0  0  0  0  0
    2.0748   -0.9259   -1.2963 H   0  0  0  0  0  0  0  0  0  0  0  0
    1.2610    0.6035   -1.6628 H   0  0  0  0  0  0  0  0  0  0  0  0
    0.4997   -1.2855    0.6734 H   0  0  0  0  0  0  0  0  0  0  0  0
   -1.4973   -1.3999    1.2093 H   0  0  0  0  0  0  0  0  0  0  0  0
   -2.5263    1.4666    0.9025 H   0  0  0  0  0  0  0  0  0  0  0  0
   -1.4280    0.8199    2.1909 H   0  0  0  0  0  0  0  0  0  0  0  0
   -0.8489    1.0475   -0.8154 H   0  0  0  0  0  0  0  0  0  0  0  0
  1  2  1  0
  2  3  1  0
  3  4  1  0
  4  5  1  0
  5  6  2  0
  5  7  1  0
  7  8  1  0
  8  9  1  0
  9  3  1  0
  9  7  1  0
  1 10  1  0
  1 11  1  0
  1 12  1  0
  2 13  1  0
  2 14  1  0
  3 15  1  0
  7 16  1  0
  8 17  1  0
  8 18  1  0
  9 19  1  0
M  END
