
     RDKit          3D

 23 24  0  0  0  0  0  0  0  0999 V2000
    2.2306    1.0205   -0.5040 C   0  0  0  0  0  0  0  0  0  0  0  0
    1.5882   -0.3114   -0.7518 C   0  0  0  0  0  0  0  0  0  0  0  0
    0.1103   -0.2375   -0.9416 C   0  0  0  0  0  0  0  0  0  0  0  0
   -0.4167   -1.5278   -1.1698 O   0  0  0  0  0  0  0  0  0  0  0  0
   -1.3926   -1.6377   -0.2151 C   0  0  0  0  0  0  0  0  0  0  0  0
   -0.6695   -1.1622    1.0572 C   0  0  0  0  0  0  0  0  0  0  0  0
   -0.6293    0.1433    0.2757 C   0  0  0  0  0  0  0  0  0  0  0  0
   -0.4519    1.3830    0.9680 C   0  0  0  0  0  0  0  0  0  0  0  0
   -2.0603   -0.2533   -0.1399 C   0  0  0  0  0  0  0  0  0  0  0  0
    3.3179    0.8993   -0.7835 H   0  0  0  0  0  0  0  0  0  0  0  0
    2.2147    1.3135    0.5615 H   0  0  0  0  0  0  0  0  0  0  0  0
    1.8356    1.8311   -1.1619 H   0  0  0  0  0  0  0  0  0  0  0  0
    1.8456   -0.9619    0.1022 H   0  0  0  0  0  0  0  0  0  0  0  0
    2.0564   -0.8145   -1.6458 H   0  0  0  0  0  0  0  0  0  0  0  0
   -0.1667    0.3623   -1.8520 H   0  0  0  0  0  0  0  0  0  0  0  0
   -2.0169   -2.4885   -0.1347 H   0  0  0  0  0  0  0  0  0  0  0  0
   -1.3590   -1.1497    1.9248 H   0  0  0  0  0  0  0  0  0  0  0  0
    0.3090   -1.6240    1.2328 H   0  0  0  0  0  0  0  0  0  0  0  0
    0.1963    1.2808    1.8544 H   0  0  0  0  0  0  0  0  0  0  0  0
   -0.0150    2.1649    0.3240 H   0  0  0  0  0  0  0  0  0  0  0  0
   -1.4398    1.7495    1.3783 H   0  0  0  0  0  0  0  0  0  0  0  0
   -2.7182   -0.1367    0.7213 H   0  0  0  0  0  0  0  0  0  0  0  0
   -2.3687    0.1569   -1.1002 H   0  0  0  0  0  0  0  0  0  0  0  0
  1  2  1  0
  2  3  1  0
  3  4  1  0
  4  5  1  0
  5  6  1  0
  6  7  1  0
  7  8  1  0
  7  9  1  0
  7  3  1  0
  9  5  1  0
  1 10  1  0
  1 11  1  0
  1 12  1  0
  2 13  1  0
  2 14  1  0
  3 15  1  0
  5 16  1  0
  6 17  1  0
  6 18  1  0
  8 19  1  0
  8 20  1  0
  8 21  1  0
  9 22  1  0
  9 23  1  0
M  END
