
     RDKit          3D

 23 24  0  0  0  0  0  0  0  0999 V2000
   -1.2324   -2.2492    0.6305 C   0  0  0  0  0  0  0  0  0  0  0  0
   -0.1780   -1.6427   -0.2302 C   0  0  0  0  0  0  0  0  0  0  0  0
   -0.1781   -0.1148   -0.0997 C   0  0  0  0  0  0  0  0  0  0  0  0
   -1.3924    0.3766   -0.4827 O   0  0  0  0  0  0  0  0  0  0  0  0
   -1.5285    1.7381   -0.4142 C   0  0  0  0  0  0  0  0  0  0  0  0
    0.3198    0.2245    1.2671 C   0  0  0  0  0  0  0  0  0  0  0  0
    1.7023    0.3128    0.6013 C   0  0  0  0  0  0  0  0  0  0  0  0
    1.8685    1.5076   -0.2205 C   0  0  0  0  0  0  0  0  0  0  0  0
    1.0315    0.4373   -0.7840 C   0  0  0  0  0  0  0  0  0  0  0  0
   -2.1585   -2.3473    0.0309 H   0  0  0  0  0  0  0  0  0  0  0  0
   -1.4142   -1.6068    1.5200 H   0  0  0  0  0  0  0  0  0  0  0  0
   -0.8559   -3.2659    0.9447 H   0  0  0  0  0  0  0  0  0  0  0  0
   -0.4020   -1.8510   -1.2910 H   0  0  0  0  0  0  0  0  0  0  0  0
    0.8544   -2.0281    0.0105 H   0  0  0  0  0  0  0  0  0  0  0  0
   -1.3964    2.1847    0.5683 H   0  0  0  0  0  0  0  0  0  0  0  0
   -2.5598    1.9913   -0.7543 H   0  0  0  0  0  0  0  0  0  0  0  0
   -0.8522    2.1802   -1.1895 H   0  0  0  0  0  0  0  0  0  0  0  0
    0.2565   -0.5583    2.0390 H   0  0  0  0  0  0  0  0  0  0  0  0
    0.0487    1.2395    1.6537 H   0  0  0  0  0  0  0  0  0  0  0  0
    2.3829   -0.5235    0.6665 H   0  0  0  0  0  0  0  0  0  0  0  0
    1.4136    2.4530    0.1996 H   0  0  0  0  0  0  0  0  0  0  0  0
    2.8384    1.6839   -0.6816 H   0  0  0  0  0  0  0  0  0  0  0  0
    1.4318   -0.1418   -1.6125 H   0  0  0  0  0  0  0  0  0  0  0  0
  1  2  1  0
  2  3  1  0
  3  4  1  0
  4  5  1  0
  3  6  1  0
  6  7  1  0
  7  8  1  0
  8  9  1  0
  9  3  1  0
  9  7  1  0
  1 10  1  0
  1 11  1  0
  1 12  1  0
  2 13  1  0
  2 14  1  0
  5 15  1  0
  5 16  1  0
  5 17  1  0
  6 18  1  0
  6 19  1  0
  7 20  1  0
  8 21  1  0
  8 22  1  0
  9 23  1  0
M  END
