
     RDKit          3D

 21 21  0  0  0  0  0  0  0  0999 V2000
    2.3849   -0.9567   -0.1373 C   0  0  0  0  0  0  0  0  0  0  0  0
    0.9217   -0.8838   -0.3841 C   0  0  0  0  0  0  0  0  0  0  0  0
    0.1560    0.0265    0.5053 C   0  0  0  0  0  0  0  0  0  0  0  0
    0.5360    1.4506    0.4831 C   0  0  0  0  0  0  0  0  0  0  0  0
   -0.4261    2.0877   -0.4651 C   0  0  0  0  0  0  0  0  0  0  0  0
   -0.2195    3.1567   -1.0806 O   0  0  0  0  0  0  0  0  0  0  0  0
   -1.5826    1.1972   -0.4796 C   0  0  0  0  0  0  0  0  0  0  0  0
   -1.2640    0.0444    0.0610 C   0  0  0  0  0  0  0  0  0  0  0  0
   -2.1951   -1.0993    0.2131 C   0  0  0  0  0  0  0  0  0  0  0  0
    2.5498   -1.2932    0.9201 H   0  0  0  0  0  0  0  0  0  0  0  0
    2.8008   -1.7705   -0.7683 H   0  0  0  0  0  0  0  0  0  0  0  0
    2.9417   -0.0349   -0.3582 H   0  0  0  0  0  0  0  0  0  0  0  0
    0.5045   -1.9076   -0.2700 H   0  0  0  0  0  0  0  0  0  0  0  0
    0.7388   -0.6113   -1.4515 H   0  0  0  0  0  0  0  0  0  0  0  0
    0.1378   -0.3705    1.5555 H   0  0  0  0  0  0  0  0  0  0  0  0
    1.5789    1.6780    0.2487 H   0  0  0  0  0  0  0  0  0  0  0  0
    0.3284    1.9096    1.4829 H   0  0  0  0  0  0  0  0  0  0  0  0
   -2.5467    1.5038   -0.8943 H   0  0  0  0  0  0  0  0  0  0  0  0
   -3.1496   -0.6926    0.6342 H   0  0  0  0  0  0  0  0  0  0  0  0
   -1.8208   -1.8451    0.9353 H   0  0  0  0  0  0  0  0  0  0  0  0
   -2.3749   -1.5890   -0.7502 H   0  0  0  0  0  0  0  0  0  0  0  0
  1  2  1  0
  2  3  1  0
  3  4  1  0
  4  5  1  0
  5  6  2  0
  5  7  1  0
  7  8  2  0
  8  9  1  0
  8  3  1  0
  1 10  1  0
  1 11  1  0
  1 12  1  0
  2 13  1  0
  2 14  1  0
  3 15  1  0
  4 16  1  0
  4 17  1  0
  7 18  1  0
  9 19  1  0
  9 20  1  0
  9 21  1  0
M  END
