
     RDKit          3D

 21 21  0  0  0  0  0  0  0  0999 V2000
    2.7128    0.2448    0.1872 C   0  0  0  0  0  0  0  0  0  0  0  0
    1.7278    0.1062   -0.9537 C   0  0  0  0  0  0  0  0  0  0  0  0
    0.3594    0.1249   -0.3522 C   0  0  0  0  0  0  0  0  0  0  0  0
   -0.3991    1.1078   -0.7858 C   0  0  0  0  0  0  0  0  0  0  0  0
   -1.7718    1.3848   -0.3862 C   0  0  0  0  0  0  0  0  0  0  0  0
   -2.6285    0.5270    0.1941 C   0  0  0  0  0  0  0  0  0  0  0  0
   -2.3787   -0.8426    0.5447 C   0  0  0  0  0  0  0  0  0  0  0  0
   -1.2233   -1.4685    0.7186 C   0  0  0  0  0  0  0  0  0  0  0  0
    0.1290   -0.9569    0.6066 C   0  0  0  0  0  0  0  0  0  0  0  0
    3.7039   -0.0395   -0.2064 H   0  0  0  0  0  0  0  0  0  0  0  0
    2.6640    1.2753    0.5681 H   0  0  0  0  0  0  0  0  0  0  0  0
    2.3758   -0.4390    0.9871 H   0  0  0  0  0  0  0  0  0  0  0  0
    1.9116   -0.7976   -1.5552 H   0  0  0  0  0  0  0  0  0  0  0  0
    1.8748    0.9841   -1.6076 H   0  0  0  0  0  0  0  0  0  0  0  0
    0.0025    1.7999   -1.5115 H   0  0  0  0  0  0  0  0  0  0  0  0
   -2.1591    2.3806   -0.5679 H   0  0  0  0  0  0  0  0  0  0  0  0
   -3.6123    0.9549    0.4069 H   0  0  0  0  0  0  0  0  0  0  0  0
   -3.2647   -1.4572    0.6892 H   0  0  0  0  0  0  0  0  0  0  0  0
   -1.2822   -2.5367    0.9891 H   0  0  0  0  0  0  0  0  0  0  0  0
    0.4206   -0.5523    1.6211 H   0  0  0  0  0  0  0  0  0  0  0  0
    0.8375   -1.8000    0.4139 H   0  0  0  0  0  0  0  0  0  0  0  0
  1  2  1  0
  2  3  1  0
  3  4  2  0
  4  5  1  0
  5  6  2  0
  6  7  1  0
  7  8  2  0
  8  9  1  0
  9  3  1  0
  1 10  1  0
  1 11  1  0
  1 12  1  0
  2 13  1  0
  2 14  1  0
  4 15  1  0
  5 16  1  0
  6 17  1  0
  7 18  1  0
  8 19  1  0
  9 20  1  0
  9 21  1  0
M  END
