
     RDKit          3D

 21 22  0  0  0  0  0  0  0  0999 V2000
    2.4364   -0.2624   -0.3983 C   0  0  0  0  0  0  0  0  0  0  0  0
    1.3914    0.4252    0.4182 C   0  0  0  0  0  0  0  0  0  0  0  0
    0.0253    0.4184   -0.2156 C   0  0  0  0  0  0  0  0  0  0  0  0
   -0.0156    1.0397   -1.4408 O   0  0  0  0  0  0  0  0  0  0  0  0
   -0.4494   -1.0164   -0.3155 C   0  0  0  0  0  0  0  0  0  0  0  0
   -1.8833   -1.0350    0.1205 C   0  0  0  0  0  0  0  0  0  0  0  0
   -2.1445    0.2798    0.7998 C   0  0  0  0  0  0  0  0  0  0  0  0
   -2.2098    1.3927   -0.0174 O   0  0  0  0  0  0  0  0  0  0  0  0
   -0.9569    1.0649    0.7143 C   0  0  0  0  0  0  0  0  0  0  0  0
    2.3660   -1.3646   -0.3586 H   0  0  0  0  0  0  0  0  0  0  0  0
    3.4286   -0.0031    0.0449 H   0  0  0  0  0  0  0  0  0  0  0  0
    2.3925    0.0244   -1.4695 H   0  0  0  0  0  0  0  0  0  0  0  0
    1.3150   -0.0637    1.4055 H   0  0  0  0  0  0  0  0  0  0  0  0
    1.7028    1.5060    0.5170 H   0  0  0  0  0  0  0  0  0  0  0  0
    0.8404    1.3022   -1.8149 H   0  0  0  0  0  0  0  0  0  0  0  0
    0.1835   -1.6890    0.2910 H   0  0  0  0  0  0  0  0  0  0  0  0
   -0.3497   -1.3069   -1.3842 H   0  0  0  0  0  0  0  0  0  0  0  0
   -2.0457   -1.8578    0.8573 H   0  0  0  0  0  0  0  0  0  0  0  0
   -2.5364   -1.1099   -0.7593 H   0  0  0  0  0  0  0  0  0  0  0  0
   -2.7927    0.3231    1.6877 H   0  0  0  0  0  0  0  0  0  0  0  0
   -0.6978    1.9324    1.3181 H   0  0  0  0  0  0  0  0  0  0  0  0
  1  2  1  0
  2  3  1  0
  3  4  1  0
  3  5  1  0
  5  6  1  0
  6  7  1  0
  7  8  1  0
  8  9  1  0
  9  3  1  0
  9  7  1  0
  1 10  1  0
  1 11  1  0
  1 12  1  0
  2 13  1  0
  2 14  1  0
  4 15  1  0
  5 16  1  0
  5 17  1  0
  6 18  1  0
  6 19  1  0
  7 20  1  0
  9 21  1  0
M  END
