
     RDKit          3D

 21 22  0  0  0  0  0  0  0  0999 V2000
   -2.4707    0.4329    0.1288 C   0  0  0  0  0  0  0  0  0  0  0  0
   -1.4817   -0.6173   -0.2451 C   0  0  0  0  0  0  0  0  0  0  0  0
   -0.0847   -0.2737   -0.1514 C   0  0  0  0  0  0  0  0  0  0  0  0
    0.8937   -1.3255   -0.5266 C   0  0  0  0  0  0  0  0  0  0  0  0
    2.0590   -0.9920    0.0162 C   0  0  0  0  0  0  0  0  0  0  0  0
    1.8604    0.2578    0.7669 C   0  0  0  0  0  0  0  0  0  0  0  0
    1.5377    1.3186   -0.2422 C   0  0  0  0  0  0  0  0  0  0  0  0
    0.3640    0.9777   -0.7973 C   0  0  0  0  0  0  0  0  0  0  0  0
    0.4232    0.0055    1.2788 C   0  0  0  0  0  0  0  0  0  0  0  0
   -1.9990    1.3838    0.4755 H   0  0  0  0  0  0  0  0  0  0  0  0
   -3.1157    0.7283   -0.7352 H   0  0  0  0  0  0  0  0  0  0  0  0
   -3.2048    0.0914    0.9160 H   0  0  0  0  0  0  0  0  0  0  0  0
   -1.7131   -0.9848   -1.2656 H   0  0  0  0  0  0  0  0  0  0  0  0
   -1.6892   -1.5035    0.4246 H   0  0  0  0  0  0  0  0  0  0  0  0
    0.6757   -2.1916   -1.1296 H   0  0  0  0  0  0  0  0  0  0  0  0
    2.9621   -1.5696   -0.1025 H   0  0  0  0  0  0  0  0  0  0  0  0
    2.5557    0.5175    1.5198 H   0  0  0  0  0  0  0  0  0  0  0  0
    2.1656    2.1625   -0.4360 H   0  0  0  0  0  0  0  0  0  0  0  0
   -0.1236    1.5340   -1.5620 H   0  0  0  0  0  0  0  0  0  0  0  0
    0.0157    0.9260    1.6844 H   0  0  0  0  0  0  0  0  0  0  0  0
    0.3696   -0.8781    1.9096 H   0  0  0  0  0  0  0  0  0  0  0  0
  1  2  1  0
  2  3  1  0
  3  4  1  0
  4  5  2  0
  5  6  1  0
  6  7  1  0
  7  8  2  0
  6  9  1  0
  8  3  1  0
  9  3  1  0
  1 10  1  0
  1 11  1  0
  1 12  1  0
  2 13  1  0
  2 14  1  0
  4 15  1  0
  5 16  1  0
  6 17  1  0
  7 18  1  0
  8 19  1  0
  9 20  1  0
  9 21  1  0
M  END
