
     RDKit          3D

 21 24  0  0  0  0  0  0  0  0999 V2000
    1.9659    0.4635    1.0960 C   0  0  0  0  0  0  0  0  0  0  0  0
    1.4572    0.3485   -0.3460 C   0  0  0  0  0  0  0  0  0  0  0  0
    0.3831   -0.6069   -0.3595 C   0  0  0  0  0  0  0  0  0  0  0  0
   -0.3810   -0.9778   -1.6945 C   0  0  0  0  0  0  0  0  0  0  0  0
   -0.8788   -0.0301   -1.2058 C   0  0  0  0  0  0  0  0  0  0  0  0
   -1.8268   -0.6839   -0.9427 C   0  0  0  0  0  0  0  0  0  0  0  0
   -1.0085   -0.2917    0.3937 C   0  0  0  0  0  0  0  0  0  0  0  0
   -1.2057    1.0265    0.9536 C   0  0  0  0  0  0  0  0  0  0  0  0
   -0.5612   -1.2606   -0.1014 C   0  0  0  0  0  0  0  0  0  0  0  0
    2.0833    1.5019    1.4236 H   0  0  0  0  0  0  0  0  0  0  0  0
    1.2621   -0.0205    1.8048 H   0  0  0  0  0  0  0  0  0  0  0  0
    2.9735   -0.0109    1.2112 H   0  0  0  0  0  0  0  0  0  0  0  0
    2.3388   -0.0452   -0.9353 H   0  0  0  0  0  0  0  0  0  0  0  0
    1.3394    1.3680   -0.6940 H   0  0  0  0  0  0  0  0  0  0  0  0
   -0.2918   -2.0318   -2.0003 H   0  0  0  0  0  0  0  0  0  0  0  0
   -0.5739    0.9800   -0.9800 H   0  0  0  0  0  0  0  0  0  0  0  0
   -2.4274   -1.5954   -0.8510 H   0  0  0  0  0  0  0  0  0  0  0  0
   -2.0661    1.6207    0.5849 H   0  0  0  0  0  0  0  0  0  0  0  0
   -1.4127    0.9024    2.0556 H   0  0  0  0  0  0  0  0  0  0  0  0
   -0.2609    1.6073    0.9298 H   0  0  0  0  0  0  0  0  0  0  0  0
   -0.9086   -2.2640   -0.3428 H   0  0  0  0  0  0  0  0  0  0  0  0
  1  2  1  0
  2  3  1  0
  3  4  1  0
  4  5  1  0
  5  6  1  0
  6  7  1  0
  7  8  1  0
  7  9  1  0
  7  3  1  0
  9  3  1  0
  6  4  1  0
  9  5  1  0
  1 10  1  0
  1 11  1  0
  1 12  1  0
  2 13  1  0
  2 14  1  0
  4 15  1  0
  5 16  1  0
  6 17  1  0
  8 18  1  0
  8 19  1  0
  8 20  1  0
  9 21  1  0
M  END
