
     RDKit          3D

 23 24  0  0  0  0  0  0  0  0999 V2000
    3.0207    0.0158    0.3484 C   0  0  0  0  0  0  0  0  0  0  0  0
    2.1442    0.0529   -0.8915 C   0  0  0  0  0  0  0  0  0  0  0  0
    0.7292   -0.0273   -0.4345 C   0  0  0  0  0  0  0  0  0  0  0  0
   -0.2364    0.8888   -0.6498 C   0  0  0  0  0  0  0  0  0  0  0  0
   -1.4066    0.2995    0.0059 C   0  0  0  0  0  0  0  0  0  0  0  0
   -2.6866    0.9279    0.0357 C   0  0  0  0  0  0  0  0  0  0  0  0
   -0.7841   -0.2110    1.3174 C   0  0  0  0  0  0  0  0  0  0  0  0
    0.0305   -1.0630    0.3324 C   0  0  0  0  0  0  0  0  0  0  0  0
   -1.2929   -1.1689   -0.4326 C   0  0  0  0  0  0  0  0  0  0  0  0
    3.9949   -0.4359    0.0359 H   0  0  0  0  0  0  0  0  0  0  0  0
    3.1184    1.0486    0.7129 H   0  0  0  0  0  0  0  0  0  0  0  0
    2.4944   -0.5740    1.1108 H   0  0  0  0  0  0  0  0  0  0  0  0
    2.3551    1.0111   -1.4082 H   0  0  0  0  0  0  0  0  0  0  0  0
    2.4007   -0.7571   -1.6009 H   0  0  0  0  0  0  0  0  0  0  0  0
   -0.1958    1.8347   -1.1719 H   0  0  0  0  0  0  0  0  0  0  0  0
   -2.7263    1.8627   -0.5885 H   0  0  0  0  0  0  0  0  0  0  0  0
   -3.0337    1.2506    1.0460 H   0  0  0  0  0  0  0  0  0  0  0  0
   -3.4862    0.2698   -0.4129 H   0  0  0  0  0  0  0  0  0  0  0  0
   -0.1956    0.5534    1.8440 H   0  0  0  0  0  0  0  0  0  0  0  0
   -1.4776   -0.7925    1.9409 H   0  0  0  0  0  0  0  0  0  0  0  0
    0.4930   -1.9338    0.6783 H   0  0  0  0  0  0  0  0  0  0  0  0
   -2.0751   -1.7393    0.0862 H   0  0  0  0  0  0  0  0  0  0  0  0
   -1.1842   -1.3131   -1.5053 H   0  0  0  0  0  0  0  0  0  0  0  0
  1  2  1  0
  2  3  1  0
  3  4  2  0
  4  5  1  0
  5  6  1  0
  5  7  1  0
  7  8  1  0
  8  9  1  0
  8  3  1  0
  9  5  1  0
  1 10  1  0
  1 11  1  0
  1 12  1  0
  2 13  1  0
  2 14  1  0
  4 15  1  0
  6 16  1  0
  6 17  1  0
  6 18  1  0
  7 19  1  0
  7 20  1  0
  8 21  1  0
  9 22  1  0
  9 23  1  0
M  END
