
     RDKit          3D

 23 24  0  0  0  0  0  0  0  0999 V2000
    2.1581   -1.2844   -0.1350 C   0  0  0  0  0  0  0  0  0  0  0  0
    1.7404    0.1196    0.1316 C   0  0  0  0  0  0  0  0  0  0  0  0
    0.2888    0.3635    0.3062 C   0  0  0  0  0  0  0  0  0  0  0  0
   -0.1079    1.7907    0.5790 C   0  0  0  0  0  0  0  0  0  0  0  0
   -1.2099    1.7614   -0.4606 C   0  0  0  0  0  0  0  0  0  0  0  0
   -0.5906    0.4962   -0.9819 C   0  0  0  0  0  0  0  0  0  0  0  0
   -0.6700   -0.6685   -0.0527 C   0  0  0  0  0  0  0  0  0  0  0  0
   -1.9791   -0.8422    0.6925 C   0  0  0  0  0  0  0  0  0  0  0  0
   -0.2382   -1.8526   -0.6418 O   0  0  0  0  0  0  0  0  0  0  0  0
    3.2828   -1.3156    0.0009 H   0  0  0  0  0  0  0  0  0  0  0  0
    1.7258   -2.0313    0.5740 H   0  0  0  0  0  0  0  0  0  0  0  0
    2.0038   -1.6030   -1.1850 H   0  0  0  0  0  0  0  0  0  0  0  0
    2.3134    0.5753    0.9864 H   0  0  0  0  0  0  0  0  0  0  0  0
    2.0729    0.7271   -0.7572 H   0  0  0  0  0  0  0  0  0  0  0  0
   -0.4197    2.0293    1.6026 H   0  0  0  0  0  0  0  0  0  0  0  0
    0.6789    2.4937    0.2395 H   0  0  0  0  0  0  0  0  0  0  0  0
   -1.1794    2.5472   -1.2180 H   0  0  0  0  0  0  0  0  0  0  0  0
   -2.2257    1.5815   -0.0118 H   0  0  0  0  0  0  0  0  0  0  0  0
   -0.0221    0.4725   -1.9073 H   0  0  0  0  0  0  0  0  0  0  0  0
   -2.7833   -0.8250   -0.0780 H   0  0  0  0  0  0  0  0  0  0  0  0
   -2.0155   -1.8379    1.1647 H   0  0  0  0  0  0  0  0  0  0  0  0
   -2.1168   -0.0444    1.4565 H   0  0  0  0  0  0  0  0  0  0  0  0
   -0.7068   -2.6531   -0.3048 H   0  0  0  0  0  0  0  0  0  0  0  0
  1  2  1  0
  2  3  1  0
  3  4  1  0
  4  5  1  0
  5  6  1  0
  6  7  1  0
  7  8  1  0
  7  9  1  0
  6  3  1  0
  7  3  1  0
  1 10  1  0
  1 11  1  0
  1 12  1  0
  2 13  1  0
  2 14  1  0
  4 15  1  0
  4 16  1  0
  5 17  1  0
  5 18  1  0
  6 19  1  0
  8 20  1  0
  8 21  1  0
  8 22  1  0
  9 23  1  0
M  END
