
     RDKit          2D

 21 23  0  0  0  0  0  0  0  0999 V2000
    2.5533    3.6989    0.0000 C   0  0  0  0  0  0  0  0  0  0  0  0
    1.2543    2.9489    0.0000 C   0  0  0  0  0  0  0  0  0  0  0  0
   -0.0448    2.1989    0.0000 C   0  0  0  0  0  0  0  0  0  0  0  0
   -1.4937    2.5871    0.0000 C   0  0  0  0  0  0  0  0  0  0  0  0
   -1.8819    1.1382    0.0000 C   0  0  0  0  0  0  0  0  0  0  0  0
   -1.1437    1.9809    0.0000 C   0  0  0  0  0  0  0  0  0  0  0  0
   -0.4330    0.7500    0.0000 C   0  0  0  0  0  0  0  0  0  0  0  0
    0.8660    0.0000    0.0000 C   0  0  0  0  0  0  0  0  0  0  0  0
   -0.4330   -0.7500    0.0000 O   0  0  0  0  0  0  0  0  0  0  0  0
    3.8523    4.4489    0.0000 H   0  0  0  0  0  0  0  0  0  0  0  0
    3.3033    2.3999    0.0000 H   0  0  0  0  0  0  0  0  0  0  0  0
    1.8033    4.9979    0.0000 H   0  0  0  0  0  0  0  0  0  0  0  0
    2.1570    1.7510    0.0000 H   0  0  0  0  0  0  0  0  0  0  0  0
    0.5043    4.2479    0.0000 H   0  0  0  0  0  0  0  0  0  0  0  0
   -2.8844    3.1491    0.0000 H   0  0  0  0  0  0  0  0  0  0  0  0
   -1.3704    3.4642    0.0000 H   0  0  0  0  0  0  0  0  0  0  0  0
   -3.1809    0.3882    0.0000 H   0  0  0  0  0  0  0  0  0  0  0  0
   -1.0616    2.7546    0.0000 H   0  0  0  0  0  0  0  0  0  0  0  0
   -2.9791    2.7958    0.0000 H   0  0  0  0  0  0  0  0  0  0  0  0
    1.9631    1.0230    0.0000 H   0  0  0  0  0  0  0  0  0  0  0  0
    1.8302   -1.1491    0.0000 H   0  0  0  0  0  0  0  0  0  0  0  0
  1  2  1  0
  2  3  1  0
  3  4  1  0
  4  5  1  0
  5  6  1  0
  5  7  1  0
  7  8  1  0
  8  9  1  0
  6  3  1  0
  9  7  1  0
  7  3  1  0
  1 10  1  0
  1 11  1  0
  1 12  1  0
  2 13  1  0
  2 14  1  0
  4 15  1  0
  4 16  1  0
  5 17  1  0
  6 18  1  0
  6 19  1  0
  8 20  1  0
  8 21  1  0
M  END
