
     RDKit          3D

 23 24  0  0  0  0  0  0  0  0999 V2000
    1.9049    1.2185   -0.0429 C   0  0  0  0  0  0  0  0  0  0  0  0
    1.4400   -0.0723   -0.6044 C   0  0  0  0  0  0  0  0  0  0  0  0
    0.1873   -0.6221   -0.1000 C   0  0  0  0  0  0  0  0  0  0  0  0
    0.0166   -0.9508    1.3268 C   0  0  0  0  0  0  0  0  0  0  0  0
   -1.3831   -0.3274    1.2465 C   0  0  0  0  0  0  0  0  0  0  0  0
   -1.1015    0.0034   -0.2250 C   0  0  0  0  0  0  0  0  0  0  0  0
   -1.2571    1.4527   -0.4862 C   0  0  0  0  0  0  0  0  0  0  0  0
   -1.5900   -0.8882   -1.1314 O   0  0  0  0  0  0  0  0  0  0  0  0
   -0.4359   -1.6700   -0.9924 C   0  0  0  0  0  0  0  0  0  0  0  0
    1.5759    2.1089   -0.6324 H   0  0  0  0  0  0  0  0  0  0  0  0
    3.0158    1.2527   -0.0550 H   0  0  0  0  0  0  0  0  0  0  0  0
    1.5981    1.3103    1.0157 H   0  0  0  0  0  0  0  0  0  0  0  0
    2.2516   -0.8376   -0.4142 H   0  0  0  0  0  0  0  0  0  0  0  0
    1.3946    0.0141   -1.7099 H   0  0  0  0  0  0  0  0  0  0  0  0
    0.6759   -0.4935    2.0640 H   0  0  0  0  0  0  0  0  0  0  0  0
   -0.0766   -2.0429    1.5271 H   0  0  0  0  0  0  0  0  0  0  0  0
   -1.4770    0.5591    1.8873 H   0  0  0  0  0  0  0  0  0  0  0  0
   -2.1965   -1.0692    1.2865 H   0  0  0  0  0  0  0  0  0  0  0  0
   -0.8598    2.0094    0.3971 H   0  0  0  0  0  0  0  0  0  0  0  0
   -2.3439    1.6859   -0.5151 H   0  0  0  0  0  0  0  0  0  0  0  0
   -0.8278    1.7963   -1.4357 H   0  0  0  0  0  0  0  0  0  0  0  0
   -0.6213   -2.6471   -0.4756 H   0  0  0  0  0  0  0  0  0  0  0  0
    0.1100   -1.7902   -1.9306 H   0  0  0  0  0  0  0  0  0  0  0  0
  1  2  1  0
  2  3  1  0
  3  4  1  0
  4  5  1  0
  5  6  1  0
  6  7  1  0
  6  8  1  0
  8  9  1  0
  6  3  1  0
  9  3  1  0
  1 10  1  0
  1 11  1  0
  1 12  1  0
  2 13  1  0
  2 14  1  0
  4 15  1  0
  4 16  1  0
  5 17  1  0
  5 18  1  0
  7 19  1  0
  7 20  1  0
  7 21  1  0
  9 22  1  0
  9 23  1  0
M  END
