
     RDKit          3D

 21 21  0  0  0  0  0  0  0  0999 V2000
    2.1146   -0.5473   -0.5433 C   0  0  0  0  0  0  0  0  0  0  0  0
    1.4058    0.5871    0.1155 C   0  0  0  0  0  0  0  0  0  0  0  0
   -0.0654    0.3241    0.3474 C   0  0  0  0  0  0  0  0  0  0  0  0
   -0.6205    1.5827    1.0239 C   0  0  0  0  0  0  0  0  0  0  0  0
   -0.8257    0.1993   -0.9526 C   0  0  0  0  0  0  0  0  0  0  0  0
   -1.8578   -0.7910   -0.5669 C   0  0  0  0  0  0  0  0  0  0  0  0
   -2.9728   -0.8564   -1.0165 O   0  0  0  0  0  0  0  0  0  0  0  0
   -1.1794   -1.6172    0.4537 C   0  0  0  0  0  0  0  0  0  0  0  0
   -0.2683   -0.8066    1.0807 O   0  0  0  0  0  0  0  0  0  0  0  0
    1.4829   -1.2538   -1.0776 H   0  0  0  0  0  0  0  0  0  0  0  0
    2.8053   -0.0986   -1.3144 H   0  0  0  0  0  0  0  0  0  0  0  0
    2.8106   -1.0666    0.1696 H   0  0  0  0  0  0  0  0  0  0  0  0
    1.8509    0.7257    1.1440 H   0  0  0  0  0  0  0  0  0  0  0  0
    1.5762    1.5569   -0.3961 H   0  0  0  0  0  0  0  0  0  0  0  0
   -0.2237    1.6298    2.0374 H   0  0  0  0  0  0  0  0  0  0  0  0
   -0.2688    2.4615    0.4679 H   0  0  0  0  0  0  0  0  0  0  0  0
   -1.7349    1.5990    0.9677 H   0  0  0  0  0  0  0  0  0  0  0  0
   -1.2760    1.1573   -1.2713 H   0  0  0  0  0  0  0  0  0  0  0  0
   -0.1619   -0.2394   -1.7299 H   0  0  0  0  0  0  0  0  0  0  0  0
   -1.9074   -2.0867    1.1645 H   0  0  0  0  0  0  0  0  0  0  0  0
   -0.6837   -2.4599   -0.1038 H   0  0  0  0  0  0  0  0  0  0  0  0
  1  2  1  0
  2  3  1  0
  3  4  1  0
  3  5  1  0
  5  6  1  0
  6  7  2  0
  6  8  1  0
  8  9  1  0
  9  3  1  0
  1 10  1  0
  1 11  1  0
  1 12  1  0
  2 13  1  0
  2 14  1  0
  4 15  1  0
  4 16  1  0
  4 17  1  0
  5 18  1  0
  5 19  1  0
  8 20  1  0
  8 21  1  0
M  END
