
     RDKit          3D

 23 23  0  0  0  0  0  0  0  0999 V2000
   -2.6072   -1.0781    0.2961 C   0  0  0  0  0  0  0  0  0  0  0  0
   -1.1396   -1.3193    0.1789 C   0  0  0  0  0  0  0  0  0  0  0  0
   -0.2976   -0.0916    0.1795 C   0  0  0  0  0  0  0  0  0  0  0  0
    1.1679   -0.4471    0.0567 C   0  0  0  0  0  0  0  0  0  0  0  0
    1.9701    0.7051   -0.0435 O   0  0  0  0  0  0  0  0  0  0  0  0
    3.2855    0.2425   -0.1501 C   0  0  0  0  0  0  0  0  0  0  0  0
   -0.7119    1.0458   -0.6782 C   0  0  0  0  0  0  0  0  0  0  0  0
   -0.7765    1.8552    0.5839 C   0  0  0  0  0  0  0  0  0  0  0  0
   -0.5087    0.6820    1.3138 O   0  0  0  0  0  0  0  0  0  0  0  0
   -3.0766   -0.6518   -0.5929 H   0  0  0  0  0  0  0  0  0  0  0  0
   -3.0948   -2.0722    0.4666 H   0  0  0  0  0  0  0  0  0  0  0  0
   -2.7851   -0.4955    1.2225 H   0  0  0  0  0  0  0  0  0  0  0  0
   -0.8340   -1.9241    1.0835 H   0  0  0  0  0  0  0  0  0  0  0  0
   -0.8599   -1.9456   -0.6882 H   0  0  0  0  0  0  0  0  0  0  0  0
    1.5139   -1.0587    0.9188 H   0  0  0  0  0  0  0  0  0  0  0  0
    1.3173   -1.0785   -0.8477 H   0  0  0  0  0  0  0  0  0  0  0  0
    3.4772   -0.3435    0.7851 H   0  0  0  0  0  0  0  0  0  0  0  0
    4.0186    1.0556   -0.2673 H   0  0  0  0  0  0  0  0  0  0  0  0
    3.3114   -0.5036   -0.9731 H   0  0  0  0  0  0  0  0  0  0  0  0
    0.0675    1.4630   -1.3560 H   0  0  0  0  0  0  0  0  0  0  0  0
   -1.6840    1.0111   -1.1689 H   0  0  0  0  0  0  0  0  0  0  0  0
    0.0103    2.6376    0.6784 H   0  0  0  0  0  0  0  0  0  0  0  0
   -1.7637    2.3115    0.8024 H   0  0  0  0  0  0  0  0  0  0  0  0
  1  2  1  0
  2  3  1  0
  3  4  1  0
  4  5  1  0
  5  6  1  0
  3  7  1  0
  7  8  1  0
  8  9  1  0
  9  3  1  0
  1 10  1  0
  1 11  1  0
  1 12  1  0
  2 13  1  0
  2 14  1  0
  4 15  1  0
  4 16  1  0
  6 17  1  0
  6 18  1  0
  6 19  1  0
  7 20  1  0
  7 21  1  0
  8 22  1  0
  8 23  1  0
M  END
