
     RDKit          3D

 25 26  0  0  0  0  0  0  0  0999 V2000
    2.1376   -1.4242   -0.4873 C   0  0  0  0  0  0  0  0  0  0  0  0
    0.9466   -0.7722   -1.1966 C   0  0  0  0  0  0  0  0  0  0  0  0
    0.3104    0.1492   -0.2260 C   0  0  0  0  0  0  0  0  0  0  0  0
    1.1458    1.2691    0.3265 C   0  0  0  0  0  0  0  0  0  0  0  0
   -0.0374    2.1866    0.2010 C   0  0  0  0  0  0  0  0  0  0  0  0
   -0.7609    1.0871   -0.5362 C   0  0  0  0  0  0  0  0  0  0  0  0
   -1.0447   -0.1306    0.2774 C   0  0  0  0  0  0  0  0  0  0  0  0
   -1.2686    0.1320    1.7490 C   0  0  0  0  0  0  0  0  0  0  0  0
   -1.8285   -1.2012   -0.4018 C   0  0  0  0  0  0  0  0  0  0  0  0
    3.0239   -0.7905   -0.5093 H   0  0  0  0  0  0  0  0  0  0  0  0
    2.3503   -2.3735   -1.0031 H   0  0  0  0  0  0  0  0  0  0  0  0
    1.7931   -1.5998    0.5548 H   0  0  0  0  0  0  0  0  0  0  0  0
    0.2417   -1.6284   -1.4024 H   0  0  0  0  0  0  0  0  0  0  0  0
    1.2224   -0.3516   -2.1591 H   0  0  0  0  0  0  0  0  0  0  0  0
    1.9533    1.6030   -0.3529 H   0  0  0  0  0  0  0  0  0  0  0  0
    1.4878    1.0460    1.3380 H   0  0  0  0  0  0  0  0  0  0  0  0
   -0.5665    2.4065    1.1463 H   0  0  0  0  0  0  0  0  0  0  0  0
    0.1345    3.1175   -0.3545 H   0  0  0  0  0  0  0  0  0  0  0  0
   -1.1936    1.2534   -1.5219 H   0  0  0  0  0  0  0  0  0  0  0  0
   -2.1411    0.7713    1.9363 H   0  0  0  0  0  0  0  0  0  0  0  0
   -1.3811   -0.8807    2.2268 H   0  0  0  0  0  0  0  0  0  0  0  0
   -0.3944    0.6178    2.1980 H   0  0  0  0  0  0  0  0  0  0  0  0
   -2.9244   -1.1643   -0.1495 H   0  0  0  0  0  0  0  0  0  0  0  0
   -1.4838   -2.2356   -0.1482 H   0  0  0  0  0  0  0  0  0  0  0  0
   -1.7224   -1.0870   -1.5054 H   0  0  0  0  0  0  0  0  0  0  0  0
  1  2  1  0
  2  3  1  0
  3  4  1  0
  4  5  1  0
  5  6  1  0
  6  7  1  0
  7  8  1  0
  7  9  1  0
  6  3  1  0
  7  3  1  0
  1 10  1  0
  1 11  1  0
  1 12  1  0
  2 13  1  0
  2 14  1  0
  4 15  1  0
  4 16  1  0
  5 17  1  0
  5 18  1  0
  6 19  1  0
  8 20  1  0
  8 21  1  0
  8 22  1  0
  9 23  1  0
  9 24  1  0
  9 25  1  0
M  END
