
     RDKit          3D

 23 24  0  0  0  0  0  0  0  0999 V2000
   -2.4927    1.0136   -0.4164 C   0  0  0  0  0  0  0  0  0  0  0  0
   -1.9863   -0.2859    0.1505 C   0  0  0  0  0  0  0  0  0  0  0  0
   -0.5629   -0.4415    0.2190 C   0  0  0  0  0  0  0  0  0  0  0  0
    0.0472   -1.6718    0.7561 C   0  0  0  0  0  0  0  0  0  0  0  0
    1.3613   -1.4381    0.6292 C   0  0  0  0  0  0  0  0  0  0  0  0
    1.3973   -0.1055   -0.0288 C   0  0  0  0  0  0  0  0  0  0  0  0
    2.6078    0.5514   -0.3816 C   0  0  0  0  0  0  0  0  0  0  0  0
    0.3212    0.6307    0.7885 C   0  0  0  0  0  0  0  0  0  0  0  0
    0.2671   -0.2634   -1.0606 C   0  0  0  0  0  0  0  0  0  0  0  0
   -2.7659    0.9243   -1.4787 H   0  0  0  0  0  0  0  0  0  0  0  0
   -1.7226    1.8058   -0.3324 H   0  0  0  0  0  0  0  0  0  0  0  0
   -3.3874    1.3926    0.1217 H   0  0  0  0  0  0  0  0  0  0  0  0
   -2.4576   -1.1193   -0.4432 H   0  0  0  0  0  0  0  0  0  0  0  0
   -2.4275   -0.3830    1.1648 H   0  0  0  0  0  0  0  0  0  0  0  0
   -0.4907   -2.5235    1.1446 H   0  0  0  0  0  0  0  0  0  0  0  0
    2.2161   -2.0279    0.9128 H   0  0  0  0  0  0  0  0  0  0  0  0
    2.6032    1.6533   -0.1435 H   0  0  0  0  0  0  0  0  0  0  0  0
    2.8719    0.4936   -1.4762 H   0  0  0  0  0  0  0  0  0  0  0  0
    3.4934    0.1151    0.1475 H   0  0  0  0  0  0  0  0  0  0  0  0
    0.4567    0.5458    1.8753 H   0  0  0  0  0  0  0  0  0  0  0  0
    0.2115    1.6385    0.3723 H   0  0  0  0  0  0  0  0  0  0  0  0
    0.0627    0.6723   -1.5946 H   0  0  0  0  0  0  0  0  0  0  0  0
    0.3763   -1.1770   -1.6590 H   0  0  0  0  0  0  0  0  0  0  0  0
  1  2  1  0
  2  3  1  0
  3  4  1  0
  4  5  2  0
  5  6  1  0
  6  7  1  0
  6  8  1  0
  6  9  1  0
  8  3  1  0
  9  3  1  0
  1 10  1  0
  1 11  1  0
  1 12  1  0
  2 13  1  0
  2 14  1  0
  4 15  1  0
  5 16  1  0
  7 17  1  0
  7 18  1  0
  7 19  1  0
  8 20  1  0
  8 21  1  0
  9 22  1  0
  9 23  1  0
M  END
