
     RDKit          3D

 21 21  0  0  0  0  0  0  0  0999 V2000
   -2.5415    0.6263    0.6224 C   0  0  0  0  0  0  0  0  0  0  0  0
   -1.6087   -0.1453   -0.2440 C   0  0  0  0  0  0  0  0  0  0  0  0
   -0.2737   -0.4093    0.3885 C   0  0  0  0  0  0  0  0  0  0  0  0
   -0.2667   -1.1257    1.5609 O   0  0  0  0  0  0  0  0  0  0  0  0
    0.6187    0.8310    0.5174 C   0  0  0  0  0  0  0  0  0  0  0  0
    1.7814   -0.1210    0.2266 C   0  0  0  0  0  0  0  0  0  0  0  0
    2.8815    0.4428   -0.5452 C   0  0  0  0  0  0  0  0  0  0  0  0
    3.9888    0.5200   -0.0502 O   0  0  0  0  0  0  0  0  0  0  0  0
    0.7655   -0.9429   -0.5766 C   0  0  0  0  0  0  0  0  0  0  0  0
   -3.5869    0.5038    0.3029 H   0  0  0  0  0  0  0  0  0  0  0  0
   -2.4924    0.3536    1.6964 H   0  0  0  0  0  0  0  0  0  0  0  0
   -2.3215    1.7157    0.5685 H   0  0  0  0  0  0  0  0  0  0  0  0
   -1.4610    0.3921   -1.1826 H   0  0  0  0  0  0  0  0  0  0  0  0
   -2.0628   -1.1265   -0.4802 H   0  0  0  0  0  0  0  0  0  0  0  0
   -0.8262   -1.9282    1.4825 H   0  0  0  0  0  0  0  0  0  0  0  0
    0.3965    1.5369   -0.2971 H   0  0  0  0  0  0  0  0  0  0  0  0
    0.6367    1.2778    1.5183 H   0  0  0  0  0  0  0  0  0  0  0  0
    2.0302   -0.6769    1.1431 H   0  0  0  0  0  0  0  0  0  0  0  0
    2.7010    0.7873   -1.5520 H   0  0  0  0  0  0  0  0  0  0  0  0
    0.9684   -2.0112   -0.5331 H   0  0  0  0  0  0  0  0  0  0  0  0
    0.6727   -0.5004   -1.6008 H   0  0  0  0  0  0  0  0  0  0  0  0
  1  2  1  0
  2  3  1  0
  3  4  1  0
  3  5  1  0
  5  6  1  0
  6  7  1  0
  7  8  2  0
  6  9  1  0
  9  3  1  0
  1 10  1  0
  1 11  1  0
  1 12  1  0
  2 13  1  0
  2 14  1  0
  4 15  1  0
  5 16  1  0
  5 17  1  0
  6 18  1  0
  7 19  1  0
  9 20  1  0
  9 21  1  0
M  END
