
     RDKit          3D

 25 25  0  0  0  0  0  0  0  0999 V2000
   -2.8802    0.7313    0.4993 C   0  0  0  0  0  0  0  0  0  0  0  0
   -1.8548   -0.2933    0.8970 C   0  0  0  0  0  0  0  0  0  0  0  0
   -0.8115   -0.4813   -0.2244 C   0  0  0  0  0  0  0  0  0  0  0  0
   -0.0842    0.6699   -0.5722 C   0  0  0  0  0  0  0  0  0  0  0  0
    0.9101    1.6632   -0.8196 C   0  0  0  0  0  0  0  0  0  0  0  0
    2.2596    1.0892   -0.3367 C   0  0  0  0  0  0  0  0  0  0  0  0
    2.4098   -0.2441   -0.1516 C   0  0  0  0  0  0  0  0  0  0  0  0
    1.5515   -1.4205   -0.2999 C   0  0  0  0  0  0  0  0  0  0  0  0
    0.2087   -1.5241    0.3601 C   0  0  0  0  0  0  0  0  0  0  0  0
   -3.7266    0.2787   -0.0731 H   0  0  0  0  0  0  0  0  0  0  0  0
   -3.2592    1.2095    1.4306 H   0  0  0  0  0  0  0  0  0  0  0  0
   -2.4751    1.5405   -0.1377 H   0  0  0  0  0  0  0  0  0  0  0  0
   -1.3273    0.1080    1.8044 H   0  0  0  0  0  0  0  0  0  0  0  0
   -2.3403   -1.2393    1.1127 H   0  0  0  0  0  0  0  0  0  0  0  0
   -1.4110   -0.9549   -1.0293 H   0  0  0  0  0  0  0  0  0  0  0  0
    0.5304   -0.0094   -1.2791 H   0  0  0  0  0  0  0  0  0  0  0  0
    0.2491    0.7009    0.5336 H   0  0  0  0  0  0  0  0  0  0  0  0
    1.0038    2.0117   -1.8725 H   0  0  0  0  0  0  0  0  0  0  0  0
    0.7390    2.6530   -0.2894 H   0  0  0  0  0  0  0  0  0  0  0  0
    3.0434    1.7510   -0.1592 H   0  0  0  0  0  0  0  0  0  0  0  0
    3.4598   -0.4127    0.1932 H   0  0  0  0  0  0  0  0  0  0  0  0
    1.5088   -1.7848   -1.3755 H   0  0  0  0  0  0  0  0  0  0  0  0
    2.1184   -2.2836    0.1795 H   0  0  0  0  0  0  0  0  0  0  0  0
   -0.1469   -2.5324    0.2001 H   0  0  0  0  0  0  0  0  0  0  0  0
    0.3244   -1.2265    1.4097 H   0  0  0  0  0  0  0  0  0  0  0  0
  1  2  1  0
  2  3  1  0
  3  4  1  0
  4  5  1  0
  5  6  1  0
  6  7  2  0
  7  8  1  0
  8  9  1  0
  9  3  1  0
  1 10  1  0
  1 11  1  0
  1 12  1  0
  2 13  1  0
  2 14  1  0
  3 15  1  0
  4 16  1  0
  4 17  1  0
  5 18  1  0
  5 19  1  0
  6 20  1  0
  7 21  1  0
  8 22  1  0
  8 23  1  0
  9 24  1  0
  9 25  1  0
M  END
