
     RDKit          3D

 21 21  0  0  0  0  0  0  0  0999 V2000
    2.6140    0.8099    0.4434 C   0  0  0  0  0  0  0  0  0  0  0  0
    1.6348    0.0917   -0.4160 C   0  0  0  0  0  0  0  0  0  0  0  0
    0.3693   -0.2954    0.2794 C   0  0  0  0  0  0  0  0  0  0  0  0
   -0.6133   -1.0315   -0.6344 C   0  0  0  0  0  0  0  0  0  0  0  0
   -1.1806   -2.2961   -0.0712 C   0  0  0  0  0  0  0  0  0  0  0  0
   -0.9325    0.2988    0.0007 C   0  0  0  0  0  0  0  0  0  0  0  0
   -1.1298    1.4080   -0.8232 O   0  0  0  0  0  0  0  0  0  0  0  0
   -2.1824    2.3029   -0.6379 C   0  0  0  0  0  0  0  0  0  0  0  0
   -2.9665    2.0547    0.3346 O   0  0  0  0  0  0  0  0  0  0  0  0
    2.5471    0.5930    1.5110 H   0  0  0  0  0  0  0  0  0  0  0  0
    3.6584    0.5303    0.1159 H   0  0  0  0  0  0  0  0  0  0  0  0
    2.5430    1.9044    0.2088 H   0  0  0  0  0  0  0  0  0  0  0  0
    1.3997    0.6513   -1.3396 H   0  0  0  0  0  0  0  0  0  0  0  0
    2.1197   -0.8682   -0.7563 H   0  0  0  0  0  0  0  0  0  0  0  0
    0.5524   -0.7540    1.2957 H   0  0  0  0  0  0  0  0  0  0  0  0
   -0.4592   -0.9819   -1.7177 H   0  0  0  0  0  0  0  0  0  0  0  0
   -1.8744   -2.0354    0.7447 H   0  0  0  0  0  0  0  0  0  0  0  0
   -0.3644   -2.8982    0.3685 H   0  0  0  0  0  0  0  0  0  0  0  0
   -1.6817   -2.8467   -0.9000 H   0  0  0  0  0  0  0  0  0  0  0  0
   -1.6993    0.1994    0.8210 H   0  0  0  0  0  0  0  0  0  0  0  0
   -2.3541    3.1628   -1.2587 H   0  0  0  0  0  0  0  0  0  0  0  0
  1  2  1  0
  2  3  1  0
  3  4  1  0
  4  5  1  0
  4  6  1  0
  6  7  1  0
  7  8  1  0
  8  9  2  0
  6  3  1  0
  1 10  1  0
  1 11  1  0
  1 12  1  0
  2 13  1  0
  2 14  1  0
  3 15  1  0
  4 16  1  0
  5 17  1  0
  5 18  1  0
  5 19  1  0
  6 20  1  0
  8 21  1  0
M  END
