
     RDKit          3D

 21 22  0  0  0  0  0  0  0  0999 V2000
    2.5223   -0.5879   -0.4451 C   0  0  0  0  0  0  0  0  0  0  0  0
    1.4387    0.4196   -0.7609 C   0  0  0  0  0  0  0  0  0  0  0  0
    0.4038    0.3620    0.3420 C   0  0  0  0  0  0  0  0  0  0  0  0
   -0.7760    1.3418    0.1596 C   0  0  0  0  0  0  0  0  0  0  0  0
   -1.2229    1.9980    1.3223 O   0  0  0  0  0  0  0  0  0  0  0  0
   -0.9294   -0.1022    0.1725 C   0  0  0  0  0  0  0  0  0  0  0  0
   -1.7691   -0.8826    1.0906 C   0  0  0  0  0  0  0  0  0  0  0  0
   -2.5734   -1.2346   -0.0203 O   0  0  0  0  0  0  0  0  0  0  0  0
   -1.5043   -0.9277   -0.8978 C   0  0  0  0  0  0  0  0  0  0  0  0
    2.3171   -1.5481   -0.9485 H   0  0  0  0  0  0  0  0  0  0  0  0
    3.5269   -0.2187   -0.7989 H   0  0  0  0  0  0  0  0  0  0  0  0
    2.6455   -0.7167    0.6558 H   0  0  0  0  0  0  0  0  0  0  0  0
    1.8296    1.4543   -0.8536 H   0  0  0  0  0  0  0  0  0  0  0  0
    0.9734    0.1872   -1.7597 H   0  0  0  0  0  0  0  0  0  0  0  0
    0.8727    0.4088    1.3601 H   0  0  0  0  0  0  0  0  0  0  0  0
   -0.7680    1.9554   -0.7828 H   0  0  0  0  0  0  0  0  0  0  0  0
   -0.4772    2.4998    1.6849 H   0  0  0  0  0  0  0  0  0  0  0  0
   -2.3123   -0.3083    1.8702 H   0  0  0  0  0  0  0  0  0  0  0  0
   -1.3435   -1.8475    1.4908 H   0  0  0  0  0  0  0  0  0  0  0  0
   -1.9186   -0.4080   -1.7912 H   0  0  0  0  0  0  0  0  0  0  0  0
   -0.9356   -1.8446   -1.0847 H   0  0  0  0  0  0  0  0  0  0  0  0
  1  2  1  0
  2  3  1  0
  3  4  1  0
  4  5  1  0
  4  6  1  0
  6  7  1  0
  7  8  1  0
  8  9  1  0
  6  3  1  0
  9  6  1  0
  1 10  1  0
  1 11  1  0
  1 12  1  0
  2 13  1  0
  2 14  1  0
  3 15  1  0
  4 16  1  0
  5 17  1  0
  7 18  1  0
  7 19  1  0
  9 20  1  0
  9 21  1  0
M  END
