
     RDKit          3D

 22 22  0  0  0  0  0  0  0  0999 V2000
   -2.0906    0.1727    0.9009 C   0  0  0  0  0  0  0  0  0  0  0  0
   -0.9357   -0.6758    0.4941 C   0  0  0  0  0  0  0  0  0  0  0  0
    0.1042   -0.0065   -0.3206 C   0  0  0  0  0  0  0  0  0  0  0  0
    1.2542   -0.9465   -0.6957 C   0  0  0  0  0  0  0  0  0  0  0  0
    1.8600   -1.4211    0.6060 C   0  0  0  0  0  0  0  0  0  0  0  0
   -0.4029    0.8266   -1.5100 C   0  0  0  0  0  0  0  0  0  0  0  0
    0.3906    1.4206   -0.3375 C   0  0  0  0  0  0  0  0  0  0  0  0
   -0.3149    2.3689    0.3658 O   0  0  0  0  0  0  0  0  0  0  0  0
   -2.6598    0.4635   -0.0157 H   0  0  0  0  0  0  0  0  0  0  0  0
   -2.7877   -0.4636    1.4885 H   0  0  0  0  0  0  0  0  0  0  0  0
   -1.8294    1.0276    1.5364 H   0  0  0  0  0  0  0  0  0  0  0  0
   -0.4820   -1.0995    1.4175 H   0  0  0  0  0  0  0  0  0  0  0  0
   -1.3309   -1.5421   -0.0797 H   0  0  0  0  0  0  0  0  0  0  0  0
    2.0306   -0.3955   -1.2955 H   0  0  0  0  0  0  0  0  0  0  0  0
    0.8938   -1.8153   -1.2814 H   0  0  0  0  0  0  0  0  0  0  0  0
    1.9083   -0.5283    1.2759 H   0  0  0  0  0  0  0  0  0  0  0  0
    1.1976   -2.1944    1.0412 H   0  0  0  0  0  0  0  0  0  0  0  0
    2.8935   -1.8328    0.4457 H   0  0  0  0  0  0  0  0  0  0  0  0
   -1.4788    1.0408   -1.5751 H   0  0  0  0  0  0  0  0  0  0  0  0
    0.1307    0.7252   -2.4757 H   0  0  0  0  0  0  0  0  0  0  0  0
    1.4250    1.7349   -0.6039 H   0  0  0  0  0  0  0  0  0  0  0  0
    0.2243    3.1405    0.6186 H   0  0  0  0  0  0  0  0  0  0  0  0
  1  2  1  0
  2  3  1  0
  3  4  1  0
  4  5  1  0
  3  6  1  0
  6  7  1  0
  7  8  1  0
  7  3  1  0
  1  9  1  0
  1 10  1  0
  1 11  1  0
  2 12  1  0
  2 13  1  0
  4 14  1  0
  4 15  1  0
  5 16  1  0
  5 17  1  0
  5 18  1  0
  6 19  1  0
  6 20  1  0
  7 21  1  0
  8 22  1  0
M  END
