
     RDKit          3D

 23 25  0  0  0  0  0  0  0  0999 V2000
   -2.7480    0.3265   -0.3396 C   0  0  0  0  0  0  0  0  0  0  0  0
   -1.5926   -0.6401   -0.1404 C   0  0  0  0  0  0  0  0  0  0  0  0
   -0.4923    0.0287    0.6150 C   0  0  0  0  0  0  0  0  0  0  0  0
   -0.0230    1.2310   -0.1872 C   0  0  0  0  0  0  0  0  0  0  0  0
    1.4804    1.1668   -0.1967 C   0  0  0  0  0  0  0  0  0  0  0  0
    2.1708   -0.1016   -0.5304 C   0  0  0  0  0  0  0  0  0  0  0  0
    1.3594   -1.3877   -0.4212 C   0  0  0  0  0  0  0  0  0  0  0  0
    0.7309   -0.8207    0.8304 C   0  0  0  0  0  0  0  0  0  0  0  0
    1.8207    0.2104    0.8454 C   0  0  0  0  0  0  0  0  0  0  0  0
   -3.5184    0.1783    0.4461 H   0  0  0  0  0  0  0  0  0  0  0  0
   -2.3179    1.3485   -0.2826 H   0  0  0  0  0  0  0  0  0  0  0  0
   -3.1866    0.1882   -1.3700 H   0  0  0  0  0  0  0  0  0  0  0  0
   -1.2309   -0.9778   -1.1299 H   0  0  0  0  0  0  0  0  0  0  0  0
   -1.9782   -1.5377    0.3948 H   0  0  0  0  0  0  0  0  0  0  0  0
   -0.8404    0.3413    1.6375 H   0  0  0  0  0  0  0  0  0  0  0  0
   -0.4634    1.2459   -1.2110 H   0  0  0  0  0  0  0  0  0  0  0  0
   -0.3135    2.1365    0.3828 H   0  0  0  0  0  0  0  0  0  0  0  0
    2.0494    2.0953   -0.2575 H   0  0  0  0  0  0  0  0  0  0  0  0
    3.1680   -0.1402   -0.9546 H   0  0  0  0  0  0  0  0  0  0  0  0
    0.7240   -1.4874   -1.2980 H   0  0  0  0  0  0  0  0  0  0  0  0
    2.0224   -2.2485   -0.1938 H   0  0  0  0  0  0  0  0  0  0  0  0
    0.6966   -1.5091    1.6840 H   0  0  0  0  0  0  0  0  0  0  0  0
    2.4827    0.3535    1.6768 H   0  0  0  0  0  0  0  0  0  0  0  0
  1  2  1  0
  2  3  1  0
  3  4  1  0
  4  5  1  0
  5  6  1  0
  6  7  1  0
  7  8  1  0
  8  9  1  0
  8  3  1  0
  9  5  1  0
  9  6  1  0
  1 10  1  0
  1 11  1  0
  1 12  1  0
  2 13  1  0
  2 14  1  0
  3 15  1  0
  4 16  1  0
  4 17  1  0
  5 18  1  0
  6 19  1  0
  7 20  1  0
  7 21  1  0
  8 22  1  0
  9 23  1  0
M  END
