
     RDKit          3D

 25 25  0  0  0  0  0  0  0  0999 V2000
    2.5948   -0.9835    0.3777 C   0  0  0  0  0  0  0  0  0  0  0  0
    1.1149   -1.1613    0.2001 C   0  0  0  0  0  0  0  0  0  0  0  0
    0.4913    0.1201   -0.2211 C   0  0  0  0  0  0  0  0  0  0  0  0
    0.6664    1.2574    0.7473 C   0  0  0  0  0  0  0  0  0  0  0  0
   -0.3527    2.2148    0.1685 C   0  0  0  0  0  0  0  0  0  0  0  0
   -1.3032    1.5476   -0.4686 C   0  0  0  0  0  0  0  0  0  0  0  0
   -0.9823    0.1086   -0.3548 C   0  0  0  0  0  0  0  0  0  0  0  0
   -1.3877   -0.6882   -1.5693 C   0  0  0  0  0  0  0  0  0  0  0  0
   -1.7062   -0.4083    0.8654 C   0  0  0  0  0  0  0  0  0  0  0  0
    2.9994   -1.6397    1.1828 H   0  0  0  0  0  0  0  0  0  0  0  0
    3.1762   -1.1785   -0.5524 H   0  0  0  0  0  0  0  0  0  0  0  0
    2.7907    0.0629    0.6622 H   0  0  0  0  0  0  0  0  0  0  0  0
    0.9687   -1.8922   -0.6236 H   0  0  0  0  0  0  0  0  0  0  0  0
    0.6680   -1.6119    1.1039 H   0  0  0  0  0  0  0  0  0  0  0  0
    0.9322    0.4160   -1.1921 H   0  0  0  0  0  0  0  0  0  0  0  0
    0.4478    1.0105    1.7889 H   0  0  0  0  0  0  0  0  0  0  0  0
    1.6406    1.7466    0.6036 H   0  0  0  0  0  0  0  0  0  0  0  0
   -0.3226    3.2945    0.2547 H   0  0  0  0  0  0  0  0  0  0  0  0
   -2.1558    2.0164   -0.9751 H   0  0  0  0  0  0  0  0  0  0  0  0
   -0.9792   -0.1962   -2.4557 H   0  0  0  0  0  0  0  0  0  0  0  0
   -2.4925   -0.7604   -1.5707 H   0  0  0  0  0  0  0  0  0  0  0  0
   -0.9388   -1.7104   -1.4159 H   0  0  0  0  0  0  0  0  0  0  0  0
   -1.2500   -0.1061    1.8053 H   0  0  0  0  0  0  0  0  0  0  0  0
   -1.8802   -1.5055    0.8182 H   0  0  0  0  0  0  0  0  0  0  0  0
   -2.7396    0.0467    0.8208 H   0  0  0  0  0  0  0  0  0  0  0  0
  1  2  1  0
  2  3  1  0
  3  4  1  0
  4  5  1  0
  5  6  2  0
  6  7  1  0
  7  8  1  0
  7  9  1  0
  7  3  1  0
  1 10  1  0
  1 11  1  0
  1 12  1  0
  2 13  1  0
  2 14  1  0
  3 15  1  0
  4 16  1  0
  4 17  1  0
  5 18  1  0
  6 19  1  0
  8 20  1  0
  8 21  1  0
  8 22  1  0
  9 23  1  0
  9 24  1  0
  9 25  1  0
M  END
