
     RDKit          3D

 21 21  0  0  0  0  0  0  0  0999 V2000
   -1.7113   -1.5885   -0.4809 C   0  0  0  0  0  0  0  0  0  0  0  0
   -0.2906   -1.3420   -0.0410 C   0  0  0  0  0  0  0  0  0  0  0  0
   -0.0513    0.1405   -0.0316 C   0  0  0  0  0  0  0  0  0  0  0  0
    1.3035    0.6040    0.3776 C   0  0  0  0  0  0  0  0  0  0  0  0
    2.4271    0.1183   -0.4618 C   0  0  0  0  0  0  0  0  0  0  0  0
   -0.5158    0.7262   -1.1874 O   0  0  0  0  0  0  0  0  0  0  0  0
   -1.0430    1.7592   -0.4177 C   0  0  0  0  0  0  0  0  0  0  0  0
   -1.1186    0.8423    0.7201 C   0  0  0  0  0  0  0  0  0  0  0  0
   -1.7291    0.6954    1.7654 O   0  0  0  0  0  0  0  0  0  0  0  0
   -2.4237   -0.8404   -0.1344 H   0  0  0  0  0  0  0  0  0  0  0  0
   -1.7724   -1.6060   -1.6040 H   0  0  0  0  0  0  0  0  0  0  0  0
   -2.0419   -2.5982   -0.1586 H   0  0  0  0  0  0  0  0  0  0  0  0
   -0.1814   -1.7734    0.9726 H   0  0  0  0  0  0  0  0  0  0  0  0
    0.3836   -1.8601   -0.7535 H   0  0  0  0  0  0  0  0  0  0  0  0
    1.5067    0.2625    1.4358 H   0  0  0  0  0  0  0  0  0  0  0  0
    1.3213    1.7107    0.4332 H   0  0  0  0  0  0  0  0  0  0  0  0
    2.7319    0.8714   -1.2457 H   0  0  0  0  0  0  0  0  0  0  0  0
    2.2199   -0.8125   -1.0076 H   0  0  0  0  0  0  0  0  0  0  0  0
    3.3794   -0.0457    0.1220 H   0  0  0  0  0  0  0  0  0  0  0  0
   -0.3813    2.6119   -0.2182 H   0  0  0  0  0  0  0  0  0  0  0  0
   -2.0130    2.1242   -0.8104 H   0  0  0  0  0  0  0  0  0  0  0  0
  1  2  1  0
  2  3  1  0
  3  4  1  0
  4  5  1  0
  3  6  1  0
  6  7  1  0
  7  8  1  0
  8  9  2  0
  8  3  1  0
  1 10  1  0
  1 11  1  0
  1 12  1  0
  2 13  1  0
  2 14  1  0
  4 15  1  0
  4 16  1  0
  5 17  1  0
  5 18  1  0
  5 19  1  0
  7 20  1  0
  7 21  1  0
M  END
