
     RDKit          3D

 23 24  0  0  0  0  0  0  0  0999 V2000
    2.4296    0.4335    1.0106 C   0  0  0  0  0  0  0  0  0  0  0  0
    2.0736   -0.2771   -0.2797 C   0  0  0  0  0  0  0  0  0  0  0  0
    0.6424   -0.1807   -0.5083 C   0  0  0  0  0  0  0  0  0  0  0  0
   -0.2884   -0.7767    0.5443 C   0  0  0  0  0  0  0  0  0  0  0  0
   -1.6041   -0.5548   -0.2315 C   0  0  0  0  0  0  0  0  0  0  0  0
   -2.5646    0.2764    0.5570 C   0  0  0  0  0  0  0  0  0  0  0  0
   -0.9976    0.1888   -1.4011 C   0  0  0  0  0  0  0  0  0  0  0  0
    0.0069    1.1366   -0.7795 C   0  0  0  0  0  0  0  0  0  0  0  0
    0.1138   -0.6262   -1.7174 O   0  0  0  0  0  0  0  0  0  0  0  0
    2.0173    1.4493    0.9930 H   0  0  0  0  0  0  0  0  0  0  0  0
    3.5296    0.3974    1.1091 H   0  0  0  0  0  0  0  0  0  0  0  0
    1.9544   -0.1223    1.8295 H   0  0  0  0  0  0  0  0  0  0  0  0
    2.3763   -1.3338   -0.1838 H   0  0  0  0  0  0  0  0  0  0  0  0
    2.6289    0.1939   -1.0880 H   0  0  0  0  0  0  0  0  0  0  0  0
   -0.0536   -1.8310    0.6332 H   0  0  0  0  0  0  0  0  0  0  0  0
   -0.2794   -0.1971    1.4680 H   0  0  0  0  0  0  0  0  0  0  0  0
   -2.0126   -1.5041   -0.5902 H   0  0  0  0  0  0  0  0  0  0  0  0
   -3.5701   -0.1839    0.4590 H   0  0  0  0  0  0  0  0  0  0  0  0
   -2.5925    1.3262    0.2144 H   0  0  0  0  0  0  0  0  0  0  0  0
   -2.3000    0.1921    1.6403 H   0  0  0  0  0  0  0  0  0  0  0  0
   -1.6154    0.5250   -2.1937 H   0  0  0  0  0  0  0  0  0  0  0  0
    0.4942    1.7409   -1.5651 H   0  0  0  0  0  0  0  0  0  0  0  0
   -0.3886    1.6961    0.0799 H   0  0  0  0  0  0  0  0  0  0  0  0
  1  2  1  0
  2  3  1  0
  3  4  1  0
  4  5  1  0
  5  6  1  0
  5  7  1  0
  7  8  1  0
  7  9  1  0
  8  3  1  0
  9  3  1  0
  1 10  1  0
  1 11  1  0
  1 12  1  0
  2 13  1  0
  2 14  1  0
  4 15  1  0
  4 16  1  0
  5 17  1  0
  6 18  1  0
  6 19  1  0
  6 20  1  0
  7 21  1  0
  8 22  1  0
  8 23  1  0
M  END
