
     RDKit          3D

 22 22  0  0  0  0  0  0  0  0999 V2000
   -1.7844    0.0266    1.3494 C   0  0  0  0  0  0  0  0  0  0  0  0
   -1.3408    0.7136    0.0873 C   0  0  0  0  0  0  0  0  0  0  0  0
   -0.3173   -0.1142   -0.6597 C   0  0  0  0  0  0  0  0  0  0  0  0
    0.9306   -0.3965    0.1137 C   0  0  0  0  0  0  0  0  0  0  0  0
    1.5391    0.8031    0.4473 O   0  0  0  0  0  0  0  0  0  0  0  0
    2.7208    0.5922    1.1777 C   0  0  0  0  0  0  0  0  0  0  0  0
   -0.9385   -1.2500   -1.4613 C   0  0  0  0  0  0  0  0  0  0  0  0
   -0.3406   -0.0390   -2.1333 C   0  0  0  0  0  0  0  0  0  0  0  0
   -2.9042   -0.0693    1.4147 H   0  0  0  0  0  0  0  0  0  0  0  0
   -1.4934    0.5845    2.2692 H   0  0  0  0  0  0  0  0  0  0  0  0
   -1.3300   -0.9843    1.4020 H   0  0  0  0  0  0  0  0  0  0  0  0
   -2.2631    0.8244   -0.5539 H   0  0  0  0  0  0  0  0  0  0  0  0
   -0.9941    1.7559    0.2617 H   0  0  0  0  0  0  0  0  0  0  0  0
    0.6794   -0.9107    1.0570 H   0  0  0  0  0  0  0  0  0  0  0  0
    1.6707   -0.9906   -0.4601 H   0  0  0  0  0  0  0  0  0  0  0  0
    3.4016   -0.0068    0.5369 H   0  0  0  0  0  0  0  0  0  0  0  0
    3.1657    1.5652    1.4191 H   0  0  0  0  0  0  0  0  0  0  0  0
    2.4841   -0.0275    2.0582 H   0  0  0  0  0  0  0  0  0  0  0  0
   -2.0426   -1.3084   -1.5397 H   0  0  0  0  0  0  0  0  0  0  0  0
   -0.3689   -2.1870   -1.4149 H   0  0  0  0  0  0  0  0  0  0  0  0
    0.5500   -0.2760   -2.7489 H   0  0  0  0  0  0  0  0  0  0  0  0
   -1.0245    0.6853   -2.6223 H   0  0  0  0  0  0  0  0  0  0  0  0
  1  2  1  0
  2  3  1  0
  3  4  1  0
  4  5  1  0
  5  6  1  0
  3  7  1  0
  7  8  1  0
  8  3  1  0
  1  9  1  0
  1 10  1  0
  1 11  1  0
  2 12  1  0
  2 13  1  0
  4 14  1  0
  4 15  1  0
  6 16  1  0
  6 17  1  0
  6 18  1  0
  7 19  1  0
  7 20  1  0
  8 21  1  0
  8 22  1  0
M  END
