
     RDKit          3D

 19 19  0  0  0  0  0  0  0  0999 V2000
    2.6224    0.1976   -0.0118 C   0  0  0  0  0  0  0  0  0  0  0  0
    1.5366   -0.6935    0.5478 C   0  0  0  0  0  0  0  0  0  0  0  0
    0.2069   -0.3531   -0.0602 C   0  0  0  0  0  0  0  0  0  0  0  0
   -0.7953   -1.1747    0.4551 O   0  0  0  0  0  0  0  0  0  0  0  0
   -1.9935   -1.0243   -0.1895 C   0  0  0  0  0  0  0  0  0  0  0  0
   -2.4327    0.3627   -0.3292 C   0  0  0  0  0  0  0  0  0  0  0  0
   -1.5853    1.3649   -0.1326 C   0  0  0  0  0  0  0  0  0  0  0  0
   -0.2103    1.0405    0.2249 C   0  0  0  0  0  0  0  0  0  0  0  0
    0.5193    1.9231    0.7352 O   0  0  0  0  0  0  0  0  0  0  0  0
    2.3577    0.4310   -1.0704 H   0  0  0  0  0  0  0  0  0  0  0  0
    2.6955    1.0821    0.6251 H   0  0  0  0  0  0  0  0  0  0  0  0
    3.6074   -0.3123    0.0184 H   0  0  0  0  0  0  0  0  0  0  0  0
    1.5004   -0.5341    1.6331 H   0  0  0  0  0  0  0  0  0  0  0  0
    1.8275   -1.7400    0.3311 H   0  0  0  0  0  0  0  0  0  0  0  0
    0.1980   -0.4634   -1.1657 H   0  0  0  0  0  0  0  0  0  0  0  0
   -1.9214   -1.5391   -1.1691 H   0  0  0  0  0  0  0  0  0  0  0  0
   -2.7826   -1.5681    0.3849 H   0  0  0  0  0  0  0  0  0  0  0  0
   -3.4524    0.6056   -0.5942 H   0  0  0  0  0  0  0  0  0  0  0  0
   -1.8980    2.3949   -0.2328 H   0  0  0  0  0  0  0  0  0  0  0  0
  1  2  1  0
  2  3  1  0
  3  4  1  0
  4  5  1  0
  5  6  1  0
  6  7  2  0
  7  8  1  0
  8  9  2  0
  8  3  1  0
  1 10  1  0
  1 11  1  0
  1 12  1  0
  2 13  1  0
  2 14  1  0
  3 15  1  0
  5 16  1  0
  5 17  1  0
  6 18  1  0
  7 19  1  0
M  END
