
     RDKit          3D

 22 23  0  0  0  0  0  0  0  0999 V2000
    2.5822   -1.0434    0.1972 C   0  0  0  0  0  0  0  0  0  0  0  0
    1.9268    0.2810    0.6131 C   0  0  0  0  0  0  0  0  0  0  0  0
    0.7975    0.5082   -0.3534 C   0  0  0  0  0  0  0  0  0  0  0  0
   -0.0096    1.7524   -0.1581 C   0  0  0  0  0  0  0  0  0  0  0  0
   -1.2356    0.8965   -0.5144 C   0  0  0  0  0  0  0  0  0  0  0  0
   -1.5950   -0.0793    0.5180 C   0  0  0  0  0  0  0  0  0  0  0  0
   -2.8095   -0.9419    0.2601 C   0  0  0  0  0  0  0  0  0  0  0  0
   -0.3795   -0.3838   -0.2498 C   0  0  0  0  0  0  0  0  0  0  0  0
    2.5168   -1.0973   -0.9226 H   0  0  0  0  0  0  0  0  0  0  0  0
    1.9598   -1.8578    0.5964 H   0  0  0  0  0  0  0  0  0  0  0  0
    3.6192   -1.1119    0.5521 H   0  0  0  0  0  0  0  0  0  0  0  0
    1.6262    0.2726    1.6611 H   0  0  0  0  0  0  0  0  0  0  0  0
    2.7020    1.0601    0.4051 H   0  0  0  0  0  0  0  0  0  0  0  0
    1.2279    0.5097   -1.3977 H   0  0  0  0  0  0  0  0  0  0  0  0
    0.2023    2.5520   -0.8721 H   0  0  0  0  0  0  0  0  0  0  0  0
   -0.1406    2.0965    0.8871 H   0  0  0  0  0  0  0  0  0  0  0  0
   -1.6488    0.9442   -1.5134 H   0  0  0  0  0  0  0  0  0  0  0  0
   -1.5553    0.2961    1.5754 H   0  0  0  0  0  0  0  0  0  0  0  0
   -2.7133   -1.3151   -0.7990 H   0  0  0  0  0  0  0  0  0  0  0  0
   -3.7501   -0.3548    0.2699 H   0  0  0  0  0  0  0  0  0  0  0  0
   -2.8691   -1.8028    0.9580 H   0  0  0  0  0  0  0  0  0  0  0  0
   -0.4543   -1.1813   -1.0141 H   0  0  0  0  0  0  0  0  0  0  0  0
  1  2  1  0
  2  3  1  0
  3  4  1  0
  4  5  1  0
  5  6  1  0
  6  7  1  0
  6  8  1  0
  8  3  1  0
  8  5  1  0
  1  9  1  0
  1 10  1  0
  1 11  1  0
  2 12  1  0
  2 13  1  0
  3 14  1  0
  4 15  1  0
  4 16  1  0
  5 17  1  0
  6 18  1  0
  7 19  1  0
  7 20  1  0
  7 21  1  0
  8 22  1  0
M  END
