
     RDKit          3D

 23 23  0  0  0  0  0  0  0  0999 V2000
    2.3927   -0.6412    0.4487 C   0  0  0  0  0  0  0  0  0  0  0  0
    0.8998   -0.8731    0.3241 C   0  0  0  0  0  0  0  0  0  0  0  0
    0.3182    0.1979   -0.5694 C   0  0  0  0  0  0  0  0  0  0  0  0
    0.5454    1.5837   -0.0168 C   0  0  0  0  0  0  0  0  0  0  0  0
   -0.7553    1.8632    0.6849 C   0  0  0  0  0  0  0  0  0  0  0  0
   -1.6582    0.8972    0.3417 O   0  0  0  0  0  0  0  0  0  0  0  0
   -1.1670    0.1460   -0.6867 C   0  0  0  0  0  0  0  0  0  0  0  0
   -1.7452   -1.2357   -0.7742 C   0  0  0  0  0  0  0  0  0  0  0  0
   -1.4773   -1.9206    0.3865 O   0  0  0  0  0  0  0  0  0  0  0  0
    2.9848   -1.5392    0.1613 H   0  0  0  0  0  0  0  0  0  0  0  0
    2.6057   -0.4278    1.4936 H   0  0  0  0  0  0  0  0  0  0  0  0
    2.7366    0.1755   -0.2387 H   0  0  0  0  0  0  0  0  0  0  0  0
    0.7803   -1.8398   -0.2080 H   0  0  0  0  0  0  0  0  0  0  0  0
    0.4135   -0.9133    1.3154 H   0  0  0  0  0  0  0  0  0  0  0  0
    0.7566    0.0528   -1.5726 H   0  0  0  0  0  0  0  0  0  0  0  0
    1.3548    1.6415    0.7160 H   0  0  0  0  0  0  0  0  0  0  0  0
    0.7075    2.2839   -0.8887 H   0  0  0  0  0  0  0  0  0  0  0  0
   -1.0621    2.8991    0.4368 H   0  0  0  0  0  0  0  0  0  0  0  0
   -0.6224    1.8112    1.8035 H   0  0  0  0  0  0  0  0  0  0  0  0
   -1.4363    0.6823   -1.6442 H   0  0  0  0  0  0  0  0  0  0  0  0
   -2.8626   -1.1011   -0.8201 H   0  0  0  0  0  0  0  0  0  0  0  0
   -1.4464   -1.7559   -1.6919 H   0  0  0  0  0  0  0  0  0  0  0  0
   -2.2630   -1.9867    0.9988 H   0  0  0  0  0  0  0  0  0  0  0  0
  1  2  1  0
  2  3  1  0
  3  4  1  0
  4  5  1  0
  5  6  1  0
  6  7  1  0
  7  8  1  0
  8  9  1  0
  7  3  1  0
  1 10  1  0
  1 11  1  0
  1 12  1  0
  2 13  1  0
  2 14  1  0
  3 15  1  0
  4 16  1  0
  4 17  1  0
  5 18  1  0
  5 19  1  0
  7 20  1  0
  8 21  1  0
  8 22  1  0
  9 23  1  0
M  END
