
     RDKit          3D

 19 21  0  0  0  0  0  0  0  0999 V2000
    2.3891   -0.1143    0.4322 C   0  0  0  0  0  0  0  0  0  0  0  0
    1.2830   -0.3067   -0.5701 C   0  0  0  0  0  0  0  0  0  0  0  0
   -0.0650   -0.1296   -0.0731 C   0  0  0  0  0  0  0  0  0  0  0  0
   -0.6327    1.1011    0.5332 C   0  0  0  0  0  0  0  0  0  0  0  0
   -1.8472    1.3125   -0.2953 C   0  0  0  0  0  0  0  0  0  0  0  0
   -2.2173    0.1744   -0.8619 C   0  0  0  0  0  0  0  0  0  0  0  0
   -1.2567   -0.9156   -0.4476 C   0  0  0  0  0  0  0  0  0  0  0  0
   -0.7582   -0.8718    0.9567 C   0  0  0  0  0  0  0  0  0  0  0  0
   -0.9749    0.3134    1.6576 O   0  0  0  0  0  0  0  0  0  0  0  0
    3.3578   -0.2391   -0.1334 H   0  0  0  0  0  0  0  0  0  0  0  0
    2.4035    0.8667    0.9033 H   0  0  0  0  0  0  0  0  0  0  0  0
    2.3819   -0.9587    1.1684 H   0  0  0  0  0  0  0  0  0  0  0  0
    1.4643    0.3993   -1.4344 H   0  0  0  0  0  0  0  0  0  0  0  0
    1.4075   -1.3189   -1.0069 H   0  0  0  0  0  0  0  0  0  0  0  0
    0.0027    1.9496    0.7238 H   0  0  0  0  0  0  0  0  0  0  0  0
   -2.3496    2.2541   -0.4149 H   0  0  0  0  0  0  0  0  0  0  0  0
   -3.0738    0.0247   -1.5242 H   0  0  0  0  0  0  0  0  0  0  0  0
   -1.1115   -1.7786   -1.0886 H   0  0  0  0  0  0  0  0  0  0  0  0
   -0.4029   -1.7626    1.4751 H   0  0  0  0  0  0  0  0  0  0  0  0
  1  2  1  0
  2  3  1  0
  3  4  1  0
  4  5  1  0
  5  6  2  0
  6  7  1  0
  7  8  1  0
  8  9  1  0
  7  3  1  0
  8  3  1  0
  9  4  1  0
  1 10  1  0
  1 11  1  0
  1 12  1  0
  2 13  1  0
  2 14  1  0
  4 15  1  0
  5 16  1  0
  6 17  1  0
  7 18  1  0
  8 19  1  0
M  END
