
     RDKit          3D

 23 24  0  0  0  0  0  0  0  0999 V2000
    3.1142   -0.0716   -1.1296 C   0  0  0  0  0  0  0  0  0  0  0  0
    2.2724   -0.3204    0.0924 C   0  0  0  0  0  0  0  0  0  0  0  0
    0.9057    0.3239    0.0012 C   0  0  0  0  0  0  0  0  0  0  0  0
    0.0342    0.1125    1.1745 C   0  0  0  0  0  0  0  0  0  0  0  0
   -1.3072    0.7973    1.1216 C   0  0  0  0  0  0  0  0  0  0  0  0
   -1.6615   -0.1789    0.0212 C   0  0  0  0  0  0  0  0  0  0  0  0
   -2.4071    0.4499   -1.1294 C   0  0  0  0  0  0  0  0  0  0  0  0
   -2.4320   -1.2182    0.5568 O   0  0  0  0  0  0  0  0  0  0  0  0
   -0.2489   -0.5451   -0.2170 C   0  0  0  0  0  0  0  0  0  0  0  0
    4.1781    0.0507   -0.7781 H   0  0  0  0  0  0  0  0  0  0  0  0
    2.7838    0.8294   -1.6646 H   0  0  0  0  0  0  0  0  0  0  0  0
    3.1118   -0.9488   -1.8047 H   0  0  0  0  0  0  0  0  0  0  0  0
    2.1231   -1.4153    0.1849 H   0  0  0  0  0  0  0  0  0  0  0  0
    2.7657    0.0105    1.0282 H   0  0  0  0  0  0  0  0  0  0  0  0
    0.9560    1.3689   -0.3679 H   0  0  0  0  0  0  0  0  0  0  0  0
    0.2792   -0.5720    1.9954 H   0  0  0  0  0  0  0  0  0  0  0  0
   -1.3014    1.8529    0.8419 H   0  0  0  0  0  0  0  0  0  0  0  0
   -1.9144    0.6678    2.0586 H   0  0  0  0  0  0  0  0  0  0  0  0
   -1.8165    1.1821   -1.6885 H   0  0  0  0  0  0  0  0  0  0  0  0
   -2.7358   -0.3561   -1.8116 H   0  0  0  0  0  0  0  0  0  0  0  0
   -3.3314    0.9015   -0.7113 H   0  0  0  0  0  0  0  0  0  0  0  0
   -3.3195   -1.2839    0.1496 H   0  0  0  0  0  0  0  0  0  0  0  0
   -0.0484   -1.6370   -0.2775 H   0  0  0  0  0  0  0  0  0  0  0  0
  1  2  1  0
  2  3  1  0
  3  4  1  0
  4  5  1  0
  5  6  1  0
  6  7  1  0
  6  8  1  0
  6  9  1  0
  9  3  1  0
  9  4  1  0
  1 10  1  0
  1 11  1  0
  1 12  1  0
  2 13  1  0
  2 14  1  0
  3 15  1  0
  4 16  1  0
  5 17  1  0
  5 18  1  0
  7 19  1  0
  7 20  1  0
  7 21  1  0
  8 22  1  0
  9 23  1  0
M  END
