
     RDKit          3D

 25 25  0  0  0  0  0  0  0  0999 V2000
    2.9791    0.7256    0.6377 C   0  0  0  0  0  0  0  0  0  0  0  0
    1.6594    0.9459   -0.0230 C   0  0  0  0  0  0  0  0  0  0  0  0
    0.7579   -0.2107    0.0788 C   0  0  0  0  0  0  0  0  0  0  0  0
    0.9918   -1.3741    0.6715 C   0  0  0  0  0  0  0  0  0  0  0  0
   -0.2023   -2.2430    0.5252 C   0  0  0  0  0  0  0  0  0  0  0  0
   -1.2983   -1.2026    0.4296 C   0  0  0  0  0  0  0  0  0  0  0  0
   -0.6326   -0.2244   -0.5073 C   0  0  0  0  0  0  0  0  0  0  0  0
   -1.2200    1.1385   -0.4766 C   0  0  0  0  0  0  0  0  0  0  0  0
   -2.6018    1.1275   -1.0585 C   0  0  0  0  0  0  0  0  0  0  0  0
    3.6560    0.1030    0.0248 H   0  0  0  0  0  0  0  0  0  0  0  0
    3.5048    1.6751    0.8640 H   0  0  0  0  0  0  0  0  0  0  0  0
    2.8262    0.1734    1.5894 H   0  0  0  0  0  0  0  0  0  0  0  0
    1.1695    1.8396    0.4432 H   0  0  0  0  0  0  0  0  0  0  0  0
    1.8592    1.2577   -1.0755 H   0  0  0  0  0  0  0  0  0  0  0  0
    1.9251   -1.6070    1.1715 H   0  0  0  0  0  0  0  0  0  0  0  0
   -0.0929   -2.7669   -0.4535 H   0  0  0  0  0  0  0  0  0  0  0  0
   -0.3395   -2.9391    1.3649 H   0  0  0  0  0  0  0  0  0  0  0  0
   -1.4526   -0.7973    1.4410 H   0  0  0  0  0  0  0  0  0  0  0  0
   -2.2003   -1.6665   -0.0107 H   0  0  0  0  0  0  0  0  0  0  0  0
   -0.6026   -0.6525   -1.5072 H   0  0  0  0  0  0  0  0  0  0  0  0
   -0.5827    1.8050   -1.0862 H   0  0  0  0  0  0  0  0  0  0  0  0
   -1.2440    1.5598    0.5386 H   0  0  0  0  0  0  0  0  0  0  0  0
   -3.2642    0.5449   -0.3730 H   0  0  0  0  0  0  0  0  0  0  0  0
   -2.9672    2.1851   -1.1738 H   0  0  0  0  0  0  0  0  0  0  0  0
   -2.6279    0.6029   -2.0346 H   0  0  0  0  0  0  0  0  0  0  0  0
  1  2  1  0
  2  3  1  0
  3  4  2  0
  4  5  1  0
  5  6  1  0
  6  7  1  0
  7  8  1  0
  8  9  1  0
  7  3  1  0
  1 10  1  0
  1 11  1  0
  1 12  1  0
  2 13  1  0
  2 14  1  0
  4 15  1  0
  5 16  1  0
  5 17  1  0
  6 18  1  0
  6 19  1  0
  7 20  1  0
  8 21  1  0
  8 22  1  0
  9 23  1  0
  9 24  1  0
  9 25  1  0
M  END
