
     RDKit          3D

 24 24  0  0  0  0  0  0  0  0999 V2000
    2.7943   -0.1742   -0.3178 C   0  0  0  0  0  0  0  0  0  0  0  0
    1.5383    0.6418   -0.4175 C   0  0  0  0  0  0  0  0  0  0  0  0
    0.5863    0.3013    0.7096 C   0  0  0  0  0  0  0  0  0  0  0  0
    0.1669   -1.1554    0.7140 C   0  0  0  0  0  0  0  0  0  0  0  0
   -0.9995   -0.7282   -0.1859 C   0  0  0  0  0  0  0  0  0  0  0  0
   -2.3101   -1.3585    0.1525 C   0  0  0  0  0  0  0  0  0  0  0  0
   -0.8358    0.6575    0.4336 C   0  0  0  0  0  0  0  0  0  0  0  0
   -1.0842    1.7944   -0.5066 C   0  0  0  0  0  0  0  0  0  0  0  0
    2.7807   -1.0856   -0.9566 H   0  0  0  0  0  0  0  0  0  0  0  0
    3.0317   -0.4662    0.7418 H   0  0  0  0  0  0  0  0  0  0  0  0
    3.6271    0.4566   -0.7443 H   0  0  0  0  0  0  0  0  0  0  0  0
    1.7457    1.7315   -0.3791 H   0  0  0  0  0  0  0  0  0  0  0  0
    1.0830    0.4140   -1.4182 H   0  0  0  0  0  0  0  0  0  0  0  0
    1.0122    0.6314    1.6647 H   0  0  0  0  0  0  0  0  0  0  0  0
    0.8763   -1.8454    0.2381 H   0  0  0  0  0  0  0  0  0  0  0  0
   -0.2590   -1.4789    1.6855 H   0  0  0  0  0  0  0  0  0  0  0  0
   -0.7397   -0.7469   -1.2566 H   0  0  0  0  0  0  0  0  0  0  0  0
   -2.6983   -1.8480   -0.7649 H   0  0  0  0  0  0  0  0  0  0  0  0
   -3.0887   -0.6000    0.4548 H   0  0  0  0  0  0  0  0  0  0  0  0
   -2.2247   -2.1513    0.9248 H   0  0  0  0  0  0  0  0  0  0  0  0
   -1.4300    0.7475    1.3659 H   0  0  0  0  0  0  0  0  0  0  0  0
   -0.6482    1.6437   -1.4932 H   0  0  0  0  0  0  0  0  0  0  0  0
   -2.1873    1.8968   -0.6203 H   0  0  0  0  0  0  0  0  0  0  0  0
   -0.7370    2.7220   -0.0242 H   0  0  0  0  0  0  0  0  0  0  0  0
  1  2  1  0
  2  3  1  0
  3  4  1  0
  4  5  1  0
  5  6  1  0
  5  7  1  0
  7  8  1  0
  7  3  1  0
  1  9  1  0
  1 10  1  0
  1 11  1  0
  2 12  1  0
  2 13  1  0
  3 14  1  0
  4 15  1  0
  4 16  1  0
  5 17  1  0
  6 18  1  0
  6 19  1  0
  6 20  1  0
  7 21  1  0
  8 22  1  0
  8 23  1  0
  8 24  1  0
M  END
