
     RDKit          3D

 19 19  0  0  0  0  0  0  0  0999 V2000
   -2.3510    0.0121   -0.2135 C   0  0  0  0  0  0  0  0  0  0  0  0
   -1.1295    0.3648    0.6326 C   0  0  0  0  0  0  0  0  0  0  0  0
    0.0107   -0.4591    0.1313 C   0  0  0  0  0  0  0  0  0  0  0  0
    1.3245   -0.2547    0.8456 C   0  0  0  0  0  0  0  0  0  0  0  0
    1.7440   -1.4451    1.4403 O   0  0  0  0  0  0  0  0  0  0  0  0
    2.0167   -0.1000   -0.4682 C   0  0  0  0  0  0  0  0  0  0  0  0
    3.1267   -0.1857   -0.9494 O   0  0  0  0  0  0  0  0  0  0  0  0
    0.6859    0.2416   -1.0552 C   0  0  0  0  0  0  0  0  0  0  0  0
    0.4601    1.6272   -1.0393 O   0  0  0  0  0  0  0  0  0  0  0  0
   -2.1984    0.3261   -1.2578 H   0  0  0  0  0  0  0  0  0  0  0  0
   -3.2099    0.5233    0.2532 H   0  0  0  0  0  0  0  0  0  0  0  0
   -2.4457   -1.0927   -0.2257 H   0  0  0  0  0  0  0  0  0  0  0  0
   -0.9241    1.4371    0.4099 H   0  0  0  0  0  0  0  0  0  0  0  0
   -1.3450    0.2433    1.6968 H   0  0  0  0  0  0  0  0  0  0  0  0
   -0.2251   -1.5176   -0.0940 H   0  0  0  0  0  0  0  0  0  0  0  0
    1.3818    0.6272    1.4857 H   0  0  0  0  0  0  0  0  0  0  0  0
    1.5321   -2.1631    0.7809 H   0  0  0  0  0  0  0  0  0  0  0  0
    0.4770   -0.2332   -2.0199 H   0  0  0  0  0  0  0  0  0  0  0  0
    1.0690    2.0485   -0.3532 H   0  0  0  0  0  0  0  0  0  0  0  0
  1  2  1  0
  2  3  1  0
  3  4  1  0
  4  5  1  0
  4  6  1  0
  6  7  2  0
  6  8  1  0
  8  9  1  0
  8  3  1  0
  1 10  1  0
  1 11  1  0
  1 12  1  0
  2 13  1  0
  2 14  1  0
  3 15  1  0
  4 16  1  0
  5 17  1  0
  8 18  1  0
  9 19  1  0
M  END
