
     RDKit          3D

 25 26  0  0  0  0  0  0  0  0999 V2000
    3.0515   -0.4461    0.5406 C   0  0  0  0  0  0  0  0  0  0  0  0
    2.0385    0.5196   -0.0705 C   0  0  0  0  0  0  0  0  0  0  0  0
    0.7638   -0.1986   -0.3604 C   0  0  0  0  0  0  0  0  0  0  0  0
    0.2187   -0.7553    0.9277 C   0  0  0  0  0  0  0  0  0  0  0  0
   -1.2643   -0.7035    0.8563 C   0  0  0  0  0  0  0  0  0  0  0  0
   -2.0559    0.5209    0.9643 C   0  0  0  0  0  0  0  0  0  0  0  0
   -1.5830    0.1327   -0.3627 C   0  0  0  0  0  0  0  0  0  0  0  0
   -2.4293   -0.5559   -1.3817 C   0  0  0  0  0  0  0  0  0  0  0  0
   -0.2899    0.7436   -0.8301 C   0  0  0  0  0  0  0  0  0  0  0  0
    3.2742   -1.2613   -0.1947 H   0  0  0  0  0  0  0  0  0  0  0  0
    2.5950   -0.9413    1.4115 H   0  0  0  0  0  0  0  0  0  0  0  0
    3.9483    0.1526    0.7777 H   0  0  0  0  0  0  0  0  0  0  0  0
    1.8366    1.2999    0.7047 H   0  0  0  0  0  0  0  0  0  0  0  0
    2.4775    0.9551   -0.9724 H   0  0  0  0  0  0  0  0  0  0  0  0
    0.9230   -0.9623   -1.1345 H   0  0  0  0  0  0  0  0  0  0  0  0
    0.5356   -1.8344    0.9606 H   0  0  0  0  0  0  0  0  0  0  0  0
    0.6561   -0.2947    1.8299 H   0  0  0  0  0  0  0  0  0  0  0  0
   -1.8288   -1.6619    0.9981 H   0  0  0  0  0  0  0  0  0  0  0  0
   -3.1143    0.4578    1.2059 H   0  0  0  0  0  0  0  0  0  0  0  0
   -1.5544    1.4058    1.4485 H   0  0  0  0  0  0  0  0  0  0  0  0
   -3.5015   -0.3861   -1.2948 H   0  0  0  0  0  0  0  0  0  0  0  0
   -2.2778   -1.6724   -1.2958 H   0  0  0  0  0  0  0  0  0  0  0  0
   -2.0293   -0.3079   -2.3990 H   0  0  0  0  0  0  0  0  0  0  0  0
   -0.2808    0.8731   -1.9484 H   0  0  0  0  0  0  0  0  0  0  0  0
   -0.1095    1.7378   -0.3806 H   0  0  0  0  0  0  0  0  0  0  0  0
  1  2  1  0
  2  3  1  0
  3  4  1  0
  4  5  1  0
  5  6  1  0
  6  7  1  0
  7  8  1  0
  7  9  1  0
  9  3  1  0
  7  5  1  0
  1 10  1  0
  1 11  1  0
  1 12  1  0
  2 13  1  0
  2 14  1  0
  3 15  1  0
  4 16  1  0
  4 17  1  0
  5 18  1  0
  6 19  1  0
  6 20  1  0
  8 21  1  0
  8 22  1  0
  8 23  1  0
  9 24  1  0
  9 25  1  0
M  END
