
     RDKit          3D

 23 23  0  0  0  0  0  0  0  0999 V2000
    2.7595    0.9559    0.0926 C   0  0  0  0  0  0  0  0  0  0  0  0
    2.1426   -0.4092    0.3349 C   0  0  0  0  0  0  0  0  0  0  0  0
    0.6436   -0.3168    0.3353 C   0  0  0  0  0  0  0  0  0  0  0  0
    0.0343    0.8252    0.1450 C   0  0  0  0  0  0  0  0  0  0  0  0
   -1.4252    1.0424    0.1235 C   0  0  0  0  0  0  0  0  0  0  0  0
   -1.9300    1.1527   -1.1685 O   0  0  0  0  0  0  0  0  0  0  0  0
   -2.1302   -0.0664    0.8597 C   0  0  0  0  0  0  0  0  0  0  0  0
   -1.6020   -1.3758    0.3076 C   0  0  0  0  0  0  0  0  0  0  0  0
   -0.1437   -1.5592    0.5580 C   0  0  0  0  0  0  0  0  0  0  0  0
    3.8687    0.8036    0.1959 H   0  0  0  0  0  0  0  0  0  0  0  0
    2.4849    1.3971   -0.8674 H   0  0  0  0  0  0  0  0  0  0  0  0
    2.4862    1.6716    0.8923 H   0  0  0  0  0  0  0  0  0  0  0  0
    2.4846   -1.1430   -0.4111 H   0  0  0  0  0  0  0  0  0  0  0  0
    2.5218   -0.7516    1.3277 H   0  0  0  0  0  0  0  0  0  0  0  0
    0.6606    1.7191   -0.0158 H   0  0  0  0  0  0  0  0  0  0  0  0
   -1.6296    1.9846    0.6717 H   0  0  0  0  0  0  0  0  0  0  0  0
   -2.4048    2.0196   -1.2878 H   0  0  0  0  0  0  0  0  0  0  0  0
   -3.2228   -0.0641    0.6694 H   0  0  0  0  0  0  0  0  0  0  0  0
   -1.8936    0.0088    1.9407 H   0  0  0  0  0  0  0  0  0  0  0  0
   -2.1857   -2.1824    0.7977 H   0  0  0  0  0  0  0  0  0  0  0  0
   -1.8353   -1.4211   -0.7784 H   0  0  0  0  0  0  0  0  0  0  0  0
    0.2316   -2.2950   -0.2107 H   0  0  0  0  0  0  0  0  0  0  0  0
    0.0845   -1.9960    1.5546 H   0  0  0  0  0  0  0  0  0  0  0  0
  1  2  1  0
  2  3  1  0
  3  4  2  0
  4  5  1  0
  5  6  1  0
  5  7  1  0
  7  8  1  0
  8  9  1  0
  9  3  1  0
  1 10  1  0
  1 11  1  0
  1 12  1  0
  2 13  1  0
  2 14  1  0
  4 15  1  0
  5 16  1  0
  6 17  1  0
  7 18  1  0
  7 19  1  0
  8 20  1  0
  8 21  1  0
  9 22  1  0
  9 23  1  0
M  END
