
     RDKit          3D

 25 25  0  0  0  0  0  0  0  0999 V2000
    3.2069   -0.1446    0.0489 C   0  0  0  0  0  0  0  0  0  0  0  0
    1.9922   -0.6245    0.7711 C   0  0  0  0  0  0  0  0  0  0  0  0
    0.7106   -0.2817    0.0413 C   0  0  0  0  0  0  0  0  0  0  0  0
    0.5248    1.1885   -0.1477 C   0  0  0  0  0  0  0  0  0  0  0  0
   -0.8186    1.6524    0.4143 C   0  0  0  0  0  0  0  0  0  0  0  0
   -1.8769    0.8284   -0.2784 C   0  0  0  0  0  0  0  0  0  0  0  0
   -1.4831   -0.6162   -0.2016 C   0  0  0  0  0  0  0  0  0  0  0  0
   -2.6215   -1.5434    0.0837 C   0  0  0  0  0  0  0  0  0  0  0  0
   -0.4052   -0.8024    0.6958 O   0  0  0  0  0  0  0  0  0  0  0  0
    3.8987   -0.9889   -0.2133 H   0  0  0  0  0  0  0  0  0  0  0  0
    2.9789    0.3549   -0.9117 H   0  0  0  0  0  0  0  0  0  0  0  0
    3.7928    0.5097    0.7312 H   0  0  0  0  0  0  0  0  0  0  0  0
    1.9222   -0.1779    1.7908 H   0  0  0  0  0  0  0  0  0  0  0  0
    2.0241   -1.7320    0.8769 H   0  0  0  0  0  0  0  0  0  0  0  0
    0.7198   -0.7958   -0.9653 H   0  0  0  0  0  0  0  0  0  0  0  0
    0.5052    1.4353   -1.2308 H   0  0  0  0  0  0  0  0  0  0  0  0
    1.2925    1.7812    0.3883 H   0  0  0  0  0  0  0  0  0  0  0  0
   -0.8368    1.4187    1.4982 H   0  0  0  0  0  0  0  0  0  0  0  0
   -0.9192    2.7348    0.2022 H   0  0  0  0  0  0  0  0  0  0  0  0
   -1.8875    1.1753   -1.3481 H   0  0  0  0  0  0  0  0  0  0  0  0
   -2.8988    1.0257    0.1006 H   0  0  0  0  0  0  0  0  0  0  0  0
   -1.0638   -0.9196   -1.2048 H   0  0  0  0  0  0  0  0  0  0  0  0
   -3.4617   -1.0714    0.6069 H   0  0  0  0  0  0  0  0  0  0  0  0
   -2.2470   -2.4599    0.6171 H   0  0  0  0  0  0  0  0  0  0  0  0
   -3.0485   -1.9466   -0.8803 H   0  0  0  0  0  0  0  0  0  0  0  0
  1  2  1  0
  2  3  1  0
  3  4  1  0
  4  5  1  0
  5  6  1  0
  6  7  1  0
  7  8  1  0
  7  9  1  0
  9  3  1  0
  1 10  1  0
  1 11  1  0
  1 12  1  0
  2 13  1  0
  2 14  1  0
  3 15  1  0
  4 16  1  0
  4 17  1  0
  5 18  1  0
  5 19  1  0
  6 20  1  0
  6 21  1  0
  7 22  1  0
  8 23  1  0
  8 24  1  0
  8 25  1  0
M  END
