
     RDKit          3D

 18 18  0  0  0  0  0  0  0  0999 V2000
    1.9048   -0.0483   -0.4794 C   0  0  0  0  0  0  0  0  0  0  0  0
    1.2940    0.4895    0.7685 C   0  0  0  0  0  0  0  0  0  0  0  0
   -0.2130    0.4698    0.7552 C   0  0  0  0  0  0  0  0  0  0  0  0
   -0.7955   -0.8932    0.5961 C   0  0  0  0  0  0  0  0  0  0  0  0
   -1.9811   -0.7162   -0.3271 C   0  0  0  0  0  0  0  0  0  0  0  0
   -1.9967    0.6529   -0.6718 O   0  0  0  0  0  0  0  0  0  0  0  0
   -0.7834    1.2233   -0.3718 C   0  0  0  0  0  0  0  0  0  0  0  0
   -0.2594    2.1925   -0.9397 O   0  0  0  0  0  0  0  0  0  0  0  0
    1.2561   -0.7753   -0.9912 H   0  0  0  0  0  0  0  0  0  0  0  0
    2.8845   -0.5352   -0.2219 H   0  0  0  0  0  0  0  0  0  0  0  0
    2.1384    0.7773   -1.2080 H   0  0  0  0  0  0  0  0  0  0  0  0
    1.6402   -0.0704    1.6549 H   0  0  0  0  0  0  0  0  0  0  0  0
    1.6002    1.5492    0.8935 H   0  0  0  0  0  0  0  0  0  0  0  0
   -0.5875    0.9184    1.6870 H   0  0  0  0  0  0  0  0  0  0  0  0
   -1.1979   -1.2572    1.5774 H   0  0  0  0  0  0  0  0  0  0  0  0
   -0.1164   -1.6597    0.2312 H   0  0  0  0  0  0  0  0  0  0  0  0
   -1.8489   -1.2833   -1.2884 H   0  0  0  0  0  0  0  0  0  0  0  0
   -2.9385   -1.0340    0.1574 H   0  0  0  0  0  0  0  0  0  0  0  0
  1  2  1  0
  2  3  1  0
  3  4  1  0
  4  5  1  0
  5  6  1  0
  6  7  1  0
  7  8  2  0
  7  3  1  0
  1  9  1  0
  1 10  1  0
  1 11  1  0
  2 12  1  0
  2 13  1  0
  3 14  1  0
  4 15  1  0
  4 16  1  0
  5 17  1  0
  5 18  1  0
M  END
