
     RDKit          3D

 23 23  0  0  0  0  0  0  0  0999 V2000
    2.7705   -0.3522    0.7889 C   0  0  0  0  0  0  0  0  0  0  0  0
    2.0513   -0.3802   -0.5421 C   0  0  0  0  0  0  0  0  0  0  0  0
    0.7570    0.4238   -0.3608 C   0  0  0  0  0  0  0  0  0  0  0  0
    0.0016    0.4379   -1.6280 C   0  0  0  0  0  0  0  0  0  0  0  0
   -1.2974    0.6977   -1.5650 C   0  0  0  0  0  0  0  0  0  0  0  0
   -1.8736    0.9508   -0.2253 C   0  0  0  0  0  0  0  0  0  0  0  0
   -1.2017    0.1984    0.8698 C   0  0  0  0  0  0  0  0  0  0  0  0
   -1.9320   -1.1375    1.0798 C   0  0  0  0  0  0  0  0  0  0  0  0
    0.1067   -0.0816    0.7076 O   0  0  0  0  0  0  0  0  0  0  0  0
    3.8735   -0.4459    0.6545 H   0  0  0  0  0  0  0  0  0  0  0  0
    2.5827    0.6085    1.3307 H   0  0  0  0  0  0  0  0  0  0  0  0
    2.3465   -1.1480    1.4144 H   0  0  0  0  0  0  0  0  0  0  0  0
    1.7362   -1.4348   -0.7874 H   0  0  0  0  0  0  0  0  0  0  0  0
    2.6519    0.0217   -1.3587 H   0  0  0  0  0  0  0  0  0  0  0  0
    1.0890    1.4629   -0.1527 H   0  0  0  0  0  0  0  0  0  0  0  0
    0.5227    0.2387   -2.5570 H   0  0  0  0  0  0  0  0  0  0  0  0
   -1.8751    0.7145   -2.4761 H   0  0  0  0  0  0  0  0  0  0  0  0
   -2.9480    0.6728   -0.2740 H   0  0  0  0  0  0  0  0  0  0  0  0
   -1.8505    2.0559   -0.0623 H   0  0  0  0  0  0  0  0  0  0  0  0
   -1.3664    0.7585    1.8251 H   0  0  0  0  0  0  0  0  0  0  0  0
   -2.9935   -0.9287    1.2034 H   0  0  0  0  0  0  0  0  0  0  0  0
   -1.4366   -1.6030    1.9457 H   0  0  0  0  0  0  0  0  0  0  0  0
   -1.7147   -1.7300    0.1695 H   0  0  0  0  0  0  0  0  0  0  0  0
  1  2  1  0
  2  3  1  0
  3  4  1  0
  4  5  2  0
  5  6  1  0
  6  7  1  0
  7  8  1  0
  7  9  1  0
  9  3  1  0
  1 10  1  0
  1 11  1  0
  1 12  1  0
  2 13  1  0
  2 14  1  0
  3 15  1  0
  4 16  1  0
  5 17  1  0
  6 18  1  0
  6 19  1  0
  7 20  1  0
  8 21  1  0
  8 22  1  0
  8 23  1  0
M  END
