
     RDKit          3D

 22 22  0  0  0  0  0  0  0  0999 V2000
   -2.8948    0.2327    0.6977 C   0  0  0  0  0  0  0  0  0  0  0  0
   -1.7744   -0.6818    0.2107 C   0  0  0  0  0  0  0  0  0  0  0  0
   -1.1178    0.0002   -0.9584 C   0  0  0  0  0  0  0  0  0  0  0  0
   -0.5004    1.3530   -0.7039 C   0  0  0  0  0  0  0  0  0  0  0  0
    0.3481    0.1302   -1.0624 C   0  0  0  0  0  0  0  0  0  0  0  0
    1.2730   -0.3134    0.0160 C   0  0  0  0  0  0  0  0  0  0  0  0
    2.5783   -0.0502   -0.3953 O   0  0  0  0  0  0  0  0  0  0  0  0
    3.4851   -0.4578    0.6025 C   0  0  0  0  0  0  0  0  0  0  0  0
   -3.6111   -0.3424    1.2874 H   0  0  0  0  0  0  0  0  0  0  0  0
   -3.3876    0.6256   -0.2350 H   0  0  0  0  0  0  0  0  0  0  0  0
   -2.4951    1.0918    1.2714 H   0  0  0  0  0  0  0  0  0  0  0  0
   -1.0820   -0.9520    1.0157 H   0  0  0  0  0  0  0  0  0  0  0  0
   -2.2693   -1.6100   -0.1361 H   0  0  0  0  0  0  0  0  0  0  0  0
   -1.6637   -0.1278   -1.9158 H   0  0  0  0  0  0  0  0  0  0  0  0
   -0.5865    2.1545   -1.4580 H   0  0  0  0  0  0  0  0  0  0  0  0
   -0.4582    1.7288    0.3377 H   0  0  0  0  0  0  0  0  0  0  0  0
    0.7949    0.1217   -2.0983 H   0  0  0  0  0  0  0  0  0  0  0  0
    1.1718   -1.4260    0.1704 H   0  0  0  0  0  0  0  0  0  0  0  0
    1.0475    0.2081    0.9805 H   0  0  0  0  0  0  0  0  0  0  0  0
    3.3377   -1.5323    0.7482 H   0  0  0  0  0  0  0  0  0  0  0  0
    4.5250   -0.2431    0.3135 H   0  0  0  0  0  0  0  0  0  0  0  0
    3.2795    0.0902    1.5285 H   0  0  0  0  0  0  0  0  0  0  0  0
  1  2  1  0
  2  3  1  0
  3  4  1  0
  4  5  1  0
  5  6  1  0
  6  7  1  0
  7  8  1  0
  5  3  1  0
  1  9  1  0
  1 10  1  0
  1 11  1  0
  2 12  1  0
  2 13  1  0
  3 14  1  0
  4 15  1  0
  4 16  1  0
  5 17  1  0
  6 18  1  0
  6 19  1  0
  8 20  1  0
  8 21  1  0
  8 22  1  0
M  END
