
     RDKit          3D

 23 24  0  0  0  0  0  0  0  0999 V2000
    2.8565    0.8202    0.4403 C   0  0  0  0  0  0  0  0  0  0  0  0
    2.3201   -0.5680    0.1716 C   0  0  0  0  0  0  0  0  0  0  0  0
    0.8325   -0.5476   -0.0178 C   0  0  0  0  0  0  0  0  0  0  0  0
    0.1148    0.5656    0.0498 C   0  0  0  0  0  0  0  0  0  0  0  0
   -1.3204    0.2704   -0.1783 C   0  0  0  0  0  0  0  0  0  0  0  0
   -1.3644   -1.1433   -0.6739 C   0  0  0  0  0  0  0  0  0  0  0  0
   -0.0325   -1.7331   -0.3004 C   0  0  0  0  0  0  0  0  0  0  0  0
   -2.2967    0.7895    0.8083 C   0  0  0  0  0  0  0  0  0  0  0  0
   -2.2756    1.2989   -0.5939 C   0  0  0  0  0  0  0  0  0  0  0  0
    2.4576    1.4638   -0.3954 H   0  0  0  0  0  0  0  0  0  0  0  0
    3.9461    0.8535    0.3599 H   0  0  0  0  0  0  0  0  0  0  0  0
    2.4827    1.2584    1.3640 H   0  0  0  0  0  0  0  0  0  0  0  0
    2.8474   -1.0391   -0.6678 H   0  0  0  0  0  0  0  0  0  0  0  0
    2.5137   -1.1776    1.0970 H   0  0  0  0  0  0  0  0  0  0  0  0
    0.5252    1.5500    0.2450 H   0  0  0  0  0  0  0  0  0  0  0  0
   -2.2000   -1.6520   -0.1086 H   0  0  0  0  0  0  0  0  0  0  0  0
   -1.5805   -1.2249   -1.7577 H   0  0  0  0  0  0  0  0  0  0  0  0
   -0.1113   -2.3886    0.6038 H   0  0  0  0  0  0  0  0  0  0  0  0
    0.3632   -2.2993   -1.1803 H   0  0  0  0  0  0  0  0  0  0  0  0
   -3.0670    0.0779    1.1499 H   0  0  0  0  0  0  0  0  0  0  0  0
   -1.9474    1.4702    1.6146 H   0  0  0  0  0  0  0  0  0  0  0  0
   -1.9510    2.3498   -0.7635 H   0  0  0  0  0  0  0  0  0  0  0  0
   -3.1129    1.0053   -1.2667 H   0  0  0  0  0  0  0  0  0  0  0  0
  1  2  1  0
  2  3  1  0
  3  4  2  0
  4  5  1  0
  5  6  1  0
  6  7  1  0
  5  8  1  0
  8  9  1  0
  7  3  1  0
  9  5  1  0
  1 10  1  0
  1 11  1  0
  1 12  1  0
  2 13  1  0
  2 14  1  0
  4 15  1  0
  6 16  1  0
  6 17  1  0
  7 18  1  0
  7 19  1  0
  8 20  1  0
  8 21  1  0
  9 22  1  0
  9 23  1  0
M  END
