
     RDKit          3D

 19 19  0  0  0  0  0  0  0  0999 V2000
    2.0885    0.5524   -0.0369 C   0  0  0  0  0  0  0  0  0  0  0  0
    1.2651   -0.7193    0.1209 C   0  0  0  0  0  0  0  0  0  0  0  0
   -0.0165   -0.3790    0.8833 C   0  0  0  0  0  0  0  0  0  0  0  0
   -0.7737   -1.5409    1.0303 O   0  0  0  0  0  0  0  0  0  0  0  0
   -1.5505   -1.5238   -0.1098 C   0  0  0  0  0  0  0  0  0  0  0  0
   -2.1001   -0.2313   -0.0523 O   0  0  0  0  0  0  0  0  0  0  0  0
   -0.9101    0.5206    0.0904 C   0  0  0  0  0  0  0  0  0  0  0  0
   -1.2697    1.7700    0.8048 C   0  0  0  0  0  0  0  0  0  0  0  0
   -2.4068    2.0343    1.1726 O   0  0  0  0  0  0  0  0  0  0  0  0
    2.9209    0.3563   -0.7303 H   0  0  0  0  0  0  0  0  0  0  0  0
    1.4630    1.3964   -0.3881 H   0  0  0  0  0  0  0  0  0  0  0  0
    2.5361    0.8441    0.9378 H   0  0  0  0  0  0  0  0  0  0  0  0
    1.0564   -1.0894   -0.8791 H   0  0  0  0  0  0  0  0  0  0  0  0
    1.8697   -1.4227    0.7270 H   0  0  0  0  0  0  0  0  0  0  0  0
    0.2016    0.0261    1.8786 H   0  0  0  0  0  0  0  0  0  0  0  0
   -2.3784   -2.2512   -0.0938 H   0  0  0  0  0  0  0  0  0  0  0  0
   -0.9210   -1.5692   -0.9962 H   0  0  0  0  0  0  0  0  0  0  0  0
   -0.5573    0.7013   -0.9439 H   0  0  0  0  0  0  0  0  0  0  0  0
   -0.5174    2.5253    1.0385 H   0  0  0  0  0  0  0  0  0  0  0  0
  1  2  1  0
  2  3  1  0
  3  4  1  0
  4  5  1  0
  5  6  1  0
  6  7  1  0
  7  8  1  0
  8  9  2  0
  7  3  1  0
  1 10  1  0
  1 11  1  0
  1 12  1  0
  2 13  1  0
  2 14  1  0
  3 15  1  0
  5 16  1  0
  5 17  1  0
  7 18  1  0
  8 19  1  0
M  END
