
     RDKit          3D

 19 19  0  0  0  0  0  0  0  0999 V2000
   -2.0381    0.4715   -0.6771 C   0  0  0  0  0  0  0  0  0  0  0  0
   -1.2535   -0.4537    0.1855 C   0  0  0  0  0  0  0  0  0  0  0  0
    0.2295   -0.2579    0.1111 C   0  0  0  0  0  0  0  0  0  0  0  0
    0.9214   -1.2337    1.0120 C   0  0  0  0  0  0  0  0  0  0  0  0
    0.6724    1.1268    0.4571 C   0  0  0  0  0  0  0  0  0  0  0  0
    1.6312    1.4547   -0.5324 O   0  0  0  0  0  0  0  0  0  0  0  0
    1.8213    0.3434   -1.3326 C   0  0  0  0  0  0  0  0  0  0  0  0
    2.8775    0.1161   -2.0021 O   0  0  0  0  0  0  0  0  0  0  0  0
    0.6585   -0.4042   -1.2294 O   0  0  0  0  0  0  0  0  0  0  0  0
   -3.0460    0.0151   -0.8471 H   0  0  0  0  0  0  0  0  0  0  0  0
   -1.5899    0.6546   -1.6658 H   0  0  0  0  0  0  0  0  0  0  0  0
   -2.2429    1.4605   -0.2097 H   0  0  0  0  0  0  0  0  0  0  0  0
   -1.5888   -0.3807    1.2296 H   0  0  0  0  0  0  0  0  0  0  0  0
   -1.4617   -1.4983   -0.1612 H   0  0  0  0  0  0  0  0  0  0  0  0
    1.6467   -1.8708    0.4678 H   0  0  0  0  0  0  0  0  0  0  0  0
    0.2314   -1.9070    1.5374 H   0  0  0  0  0  0  0  0  0  0  0  0
    1.5220   -0.6982    1.8018 H   0  0  0  0  0  0  0  0  0  0  0  0
   -0.1646    1.8705    0.4012 H   0  0  0  0  0  0  0  0  0  0  0  0
    1.1737    1.1912    1.4538 H   0  0  0  0  0  0  0  0  0  0  0  0
  1  2  1  0
  2  3  1  0
  3  4  1  0
  3  5  1  0
  5  6  1  0
  6  7  1  0
  7  8  2  0
  7  9  1  0
  9  3  1  0
  1 10  1  0
  1 11  1  0
  1 12  1  0
  2 13  1  0
  2 14  1  0
  4 15  1  0
  4 16  1  0
  4 17  1  0
  5 18  1  0
  5 19  1  0
M  END
