
     RDKit          3D

 19 19  0  0  0  0  0  0  0  0999 V2000
    2.3863   -0.4022    0.3685 C   0  0  0  0  0  0  0  0  0  0  0  0
    1.2008    0.5303    0.5098 C   0  0  0  0  0  0  0  0  0  0  0  0
    0.2670    0.4051   -0.6786 C   0  0  0  0  0  0  0  0  0  0  0  0
   -0.9554    1.1877   -0.8034 C   0  0  0  0  0  0  0  0  0  0  0  0
   -1.0780   -0.2466   -0.4877 C   0  0  0  0  0  0  0  0  0  0  0  0
   -1.5353   -0.5615    0.9271 C   0  0  0  0  0  0  0  0  0  0  0  0
   -1.3945   -1.2039   -1.4130 O   0  0  0  0  0  0  0  0  0  0  0  0
    2.4394   -1.1470    1.1760 H   0  0  0  0  0  0  0  0  0  0  0  0
    3.3447    0.1463    0.2831 H   0  0  0  0  0  0  0  0  0  0  0  0
    2.2594   -0.9639   -0.5783 H   0  0  0  0  0  0  0  0  0  0  0  0
    0.6695    0.2249    1.4374 H   0  0  0  0  0  0  0  0  0  0  0  0
    1.5764    1.5454    0.6643 H   0  0  0  0  0  0  0  0  0  0  0  0
    0.8214    0.1950   -1.6269 H   0  0  0  0  0  0  0  0  0  0  0  0
   -1.2988    1.4914   -1.8327 H   0  0  0  0  0  0  0  0  0  0  0  0
   -1.2902    1.9349   -0.0455 H   0  0  0  0  0  0  0  0  0  0  0  0
   -0.8518   -1.2345    1.4388 H   0  0  0  0  0  0  0  0  0  0  0  0
   -1.6820    0.3736    1.5295 H   0  0  0  0  0  0  0  0  0  0  0  0
   -2.5479   -1.0402    0.8250 H   0  0  0  0  0  0  0  0  0  0  0  0
   -2.3311   -1.2348   -1.6935 H   0  0  0  0  0  0  0  0  0  0  0  0
  1  2  1  0
  2  3  1  0
  3  4  1  0
  4  5  1  0
  5  6  1  0
  5  7  1  0
  5  3  1  0
  1  8  1  0
  1  9  1  0
  1 10  1  0
  2 11  1  0
  2 12  1  0
  3 13  1  0
  4 14  1  0
  4 15  1  0
  6 16  1  0
  6 17  1  0
  6 18  1  0
  7 19  1  0
M  END
