
     RDKit          3D

 21 22  0  0  0  0  0  0  0  0999 V2000
    2.8598   -0.4653   -0.6889 C   0  0  0  0  0  0  0  0  0  0  0  0
    1.8837   -0.4960    0.4590 C   0  0  0  0  0  0  0  0  0  0  0  0
    0.5295   -0.0483    0.0248 C   0  0  0  0  0  0  0  0  0  0  0  0
    0.2015    0.3262   -1.1804 C   0  0  0  0  0  0  0  0  0  0  0  0
   -1.2313    0.7076   -1.2582 C   0  0  0  0  0  0  0  0  0  0  0  0
   -2.0124   -0.3657   -1.6417 O   0  0  0  0  0  0  0  0  0  0  0  0
   -2.7600   -0.2308   -0.4605 C   0  0  0  0  0  0  0  0  0  0  0  0
   -1.7263    0.6806    0.1439 C   0  0  0  0  0  0  0  0  0  0  0  0
   -0.6444    0.0297    0.9309 C   0  0  0  0  0  0  0  0  0  0  0  0
    3.8025   -0.9331   -0.3784 H   0  0  0  0  0  0  0  0  0  0  0  0
    3.1052    0.6229   -0.8631 H   0  0  0  0  0  0  0  0  0  0  0  0
    2.4526   -0.8800   -1.6263 H   0  0  0  0  0  0  0  0  0  0  0  0
    2.2317    0.2230    1.2345 H   0  0  0  0  0  0  0  0  0  0  0  0
    1.8162   -1.5031    0.9322 H   0  0  0  0  0  0  0  0  0  0  0  0
    0.8891    0.3627   -2.0504 H   0  0  0  0  0  0  0  0  0  0  0  0
   -1.3907    1.6457   -1.8233 H   0  0  0  0  0  0  0  0  0  0  0  0
   -3.7252    0.2585   -0.6915 H   0  0  0  0  0  0  0  0  0  0  0  0
   -2.8899   -1.1534    0.1186 H   0  0  0  0  0  0  0  0  0  0  0  0
   -2.1418    1.6009    0.5598 H   0  0  0  0  0  0  0  0  0  0  0  0
   -0.8697   -1.0013    1.2558 H   0  0  0  0  0  0  0  0  0  0  0  0
   -0.3801    0.6191    1.8532 H   0  0  0  0  0  0  0  0  0  0  0  0
  1  2  1  0
  2  3  1  0
  3  4  2  0
  4  5  1  0
  5  6  1  0
  6  7  1  0
  7  8  1  0
  8  9  1  0
  9  3  1  0
  8  5  1  0
  1 10  1  0
  1 11  1  0
  1 12  1  0
  2 13  1  0
  2 14  1  0
  4 15  1  0
  5 16  1  0
  7 17  1  0
  7 18  1  0
  8 19  1  0
  9 20  1  0
  9 21  1  0
M  END
