
     RDKit          3D

 21 22  0  0  0  0  0  0  0  0999 V2000
   -2.1717    0.1642    0.7636 C   0  0  0  0  0  0  0  0  0  0  0  0
   -1.9437   -0.8381   -0.3547 C   0  0  0  0  0  0  0  0  0  0  0  0
   -0.5209   -0.7534   -0.7836 C   0  0  0  0  0  0  0  0  0  0  0  0
    0.5405   -1.0239    0.1793 C   0  0  0  0  0  0  0  0  0  0  0  0
    1.3890   -0.0209    0.1939 C   0  0  0  0  0  0  0  0  0  0  0  0
    2.6194    0.0600    1.0655 C   0  0  0  0  0  0  0  0  0  0  0  0
    1.0060    1.0253   -0.7377 C   0  0  0  0  0  0  0  0  0  0  0  0
   -0.1480    0.5189   -1.5101 C   0  0  0  0  0  0  0  0  0  0  0  0
   -0.1703   -0.7128   -2.1226 O   0  0  0  0  0  0  0  0  0  0  0  0
   -2.9438   -0.1931    1.4777 H   0  0  0  0  0  0  0  0  0  0  0  0
   -1.2340    0.2724    1.3483 H   0  0  0  0  0  0  0  0  0  0  0  0
   -2.5255    1.1534    0.3573 H   0  0  0  0  0  0  0  0  0  0  0  0
   -2.6380   -0.6563   -1.1896 H   0  0  0  0  0  0  0  0  0  0  0  0
   -2.1789   -1.8498    0.0462 H   0  0  0  0  0  0  0  0  0  0  0  0
    0.6340   -1.9064    0.7958 H   0  0  0  0  0  0  0  0  0  0  0  0
    2.9384   -0.9637    1.3437 H   0  0  0  0  0  0  0  0  0  0  0  0
    2.4075    0.6780    1.9567 H   0  0  0  0  0  0  0  0  0  0  0  0
    3.4276    0.5307    0.4496 H   0  0  0  0  0  0  0  0  0  0  0  0
    1.8503    1.3945   -1.3594 H   0  0  0  0  0  0  0  0  0  0  0  0
    0.6365    1.9033   -0.1260 H   0  0  0  0  0  0  0  0  0  0  0  0
   -0.9745    1.2176   -1.7941 H   0  0  0  0  0  0  0  0  0  0  0  0
  1  2  1  0
  2  3  1  0
  3  4  1  0
  4  5  2  0
  5  6  1  0
  5  7  1  0
  7  8  1  0
  8  9  1  0
  8  3  1  0
  9  3  1  0
  1 10  1  0
  1 11  1  0
  1 12  1  0
  2 13  1  0
  2 14  1  0
  4 15  1  0
  6 16  1  0
  6 17  1  0
  6 18  1  0
  7 19  1  0
  7 20  1  0
  8 21  1  0
M  END
