
     RDKit          3D

 22 23  0  0  0  0  0  0  0  0999 V2000
    2.3301    0.4342    0.7586 C   0  0  0  0  0  0  0  0  0  0  0  0
    1.7056   -0.1326   -0.4902 C   0  0  0  0  0  0  0  0  0  0  0  0
    0.2180   -0.1631   -0.4647 C   0  0  0  0  0  0  0  0  0  0  0  0
   -0.4546    1.1690   -0.3059 C   0  0  0  0  0  0  0  0  0  0  0  0
   -1.7799    0.9452    0.3466 C   0  0  0  0  0  0  0  0  0  0  0  0
   -1.8960   -0.5026    0.6762 C   0  0  0  0  0  0  0  0  0  0  0  0
   -0.5790   -1.1242    0.2834 C   0  0  0  0  0  0  0  0  0  0  0  0
   -0.4266   -1.2610   -1.2312 C   0  0  0  0  0  0  0  0  0  0  0  0
    2.0215   -0.1290    1.6483 H   0  0  0  0  0  0  0  0  0  0  0  0
    3.4438    0.3611    0.6077 H   0  0  0  0  0  0  0  0  0  0  0  0
    2.1412    1.5372    0.8505 H   0  0  0  0  0  0  0  0  0  0  0  0
    2.1016   -1.1768   -0.5956 H   0  0  0  0  0  0  0  0  0  0  0  0
    2.0659    0.4357   -1.3735 H   0  0  0  0  0  0  0  0  0  0  0  0
    0.1645    1.7752    0.4049 H   0  0  0  0  0  0  0  0  0  0  0  0
   -0.4921    1.7303   -1.2478 H   0  0  0  0  0  0  0  0  0  0  0  0
   -1.9258    1.5288    1.2789 H   0  0  0  0  0  0  0  0  0  0  0  0
   -2.5655    1.3087   -0.3663 H   0  0  0  0  0  0  0  0  0  0  0  0
   -2.2190   -0.7361    1.6876 H   0  0  0  0  0  0  0  0  0  0  0  0
   -2.6701   -0.9436   -0.0176 H   0  0  0  0  0  0  0  0  0  0  0  0
   -0.0914   -1.8467    0.9413 H   0  0  0  0  0  0  0  0  0  0  0  0
   -1.2936   -1.0980   -1.8762 H   0  0  0  0  0  0  0  0  0  0  0  0
    0.2015   -2.1117   -1.5152 H   0  0  0  0  0  0  0  0  0  0  0  0
  1  2  1  0
  2  3  1  0
  3  4  1  0
  4  5  1  0
  5  6  1  0
  6  7  1  0
  7  8  1  0
  7  3  1  0
  8  3  1  0
  1  9  1  0
  1 10  1  0
  1 11  1  0
  2 12  1  0
  2 13  1  0
  4 14  1  0
  4 15  1  0
  5 16  1  0
  5 17  1  0
  6 18  1  0
  6 19  1  0
  7 20  1  0
  8 21  1  0
  8 22  1  0
M  END
