
     RDKit          3D

 19 22  0  0  0  0  0  0  0  0999 V2000
    2.1683   -1.0875   -0.1919 C   0  0  0  0  0  0  0  0  0  0  0  0
    1.3585   -0.1571    0.7233 C   0  0  0  0  0  0  0  0  0  0  0  0
    0.1344    0.2083    0.1289 C   0  0  0  0  0  0  0  0  0  0  0  0
   -0.2333    0.8935   -1.0798 C   0  0  0  0  0  0  0  0  0  0  0  0
   -1.5367    0.1878   -1.0382 C   0  0  0  0  0  0  0  0  0  0  0  0
   -1.7978    0.9214    0.3066 C   0  0  0  0  0  0  0  0  0  0  0  0
   -0.5132    1.5741    0.1334 C   0  0  0  0  0  0  0  0  0  0  0  0
   -1.2190   -0.3866    0.2183 C   0  0  0  0  0  0  0  0  0  0  0  0
   -1.5580   -1.5285    0.7991 O   0  0  0  0  0  0  0  0  0  0  0  0
    2.1650   -0.6759   -1.2207 H   0  0  0  0  0  0  0  0  0  0  0  0
    3.2142   -1.1748    0.1597 H   0  0  0  0  0  0  0  0  0  0  0  0
    1.7349   -2.1010   -0.1982 H   0  0  0  0  0  0  0  0  0  0  0  0
    2.0297    0.7325    0.9114 H   0  0  0  0  0  0  0  0  0  0  0  0
    1.2556   -0.6854    1.6784 H   0  0  0  0  0  0  0  0  0  0  0  0
    0.3280    1.1385   -1.9410 H   0  0  0  0  0  0  0  0  0  0  0  0
   -2.2749    0.0982   -1.7636 H   0  0  0  0  0  0  0  0  0  0  0  0
   -2.7469    1.2871    0.5470 H   0  0  0  0  0  0  0  0  0  0  0  0
   -0.0295    2.3156    0.7025 H   0  0  0  0  0  0  0  0  0  0  0  0
   -2.4793   -1.5602    1.1248 H   0  0  0  0  0  0  0  0  0  0  0  0
  1  2  1  0
  2  3  1  0
  3  4  1  0
  4  5  1  0
  5  6  1  0
  6  7  1  0
  6  8  1  0
  8  9  1  0
  7  3  1  0
  8  3  1  0
  7  4  1  0
  8  5  1  0
  1 10  1  0
  1 11  1  0
  1 12  1  0
  2 13  1  0
  2 14  1  0
  4 15  1  0
  5 16  1  0
  6 17  1  0
  7 18  1  0
  9 19  1  0
M  END
