
     RDKit          3D

 21 22  0  0  0  0  0  0  0  0999 V2000
   -2.6232    0.1066    0.3945 C   0  0  0  0  0  0  0  0  0  0  0  0
   -1.2519   -0.3026    0.9387 C   0  0  0  0  0  0  0  0  0  0  0  0
   -0.2233    0.3612    0.0967 C   0  0  0  0  0  0  0  0  0  0  0  0
   -0.3408   -0.0587   -1.3444 C   0  0  0  0  0  0  0  0  0  0  0  0
    0.5400    0.5604   -2.1950 O   0  0  0  0  0  0  0  0  0  0  0  0
    1.1271   -0.3618   -1.3674 C   0  0  0  0  0  0  0  0  0  0  0  0
    1.1605   -0.1654    0.1223 C   0  0  0  0  0  0  0  0  0  0  0  0
    2.1983    0.9186    0.4428 C   0  0  0  0  0  0  0  0  0  0  0  0
    1.4053   -1.3165    0.8296 O   0  0  0  0  0  0  0  0  0  0  0  0
   -3.0951    0.8652    1.0526 H   0  0  0  0  0  0  0  0  0  0  0  0
   -2.5266    0.5954   -0.6066 H   0  0  0  0  0  0  0  0  0  0  0  0
   -3.2918   -0.7507    0.2660 H   0  0  0  0  0  0  0  0  0  0  0  0
   -1.1936   -1.4086    0.8048 H   0  0  0  0  0  0  0  0  0  0  0  0
   -1.1639   -0.0110    1.9986 H   0  0  0  0  0  0  0  0  0  0  0  0
   -0.2532    1.4703    0.1620 H   0  0  0  0  0  0  0  0  0  0  0  0
   -1.0405   -0.8250   -1.6624 H   0  0  0  0  0  0  0  0  0  0  0  0
    1.4394   -1.3081   -1.8214 H   0  0  0  0  0  0  0  0  0  0  0  0
    2.9501    1.0032   -0.3675 H   0  0  0  0  0  0  0  0  0  0  0  0
    2.6531    0.7401    1.4393 H   0  0  0  0  0  0  0  0  0  0  0  0
    1.7019    1.9259    0.5131 H   0  0  0  0  0  0  0  0  0  0  0  0
    1.8283   -2.0384    0.3036 H   0  0  0  0  0  0  0  0  0  0  0  0
  1  2  1  0
  2  3  1  0
  3  4  1  0
  4  5  1  0
  5  6  1  0
  6  7  1  0
  7  8  1  0
  7  9  1  0
  7  3  1  0
  6  4  1  0
  1 10  1  0
  1 11  1  0
  1 12  1  0
  2 13  1  0
  2 14  1  0
  3 15  1  0
  4 16  1  0
  6 17  1  0
  8 18  1  0
  8 19  1  0
  8 20  1  0
  9 21  1  0
M  END
