
     RDKit          3D

 23 23  0  0  0  0  0  0  0  0999 V2000
    2.4493   -0.3735   -0.6137 C   0  0  0  0  0  0  0  0  0  0  0  0
    1.1740   -0.8076    0.0379 C   0  0  0  0  0  0  0  0  0  0  0  0
    0.0683    0.2325   -0.0996 C   0  0  0  0  0  0  0  0  0  0  0  0
    0.4296    1.5668    0.5291 C   0  0  0  0  0  0  0  0  0  0  0  0
   -0.6331    2.4286    0.6726 O   0  0  0  0  0  0  0  0  0  0  0  0
   -0.4576    0.3187   -1.3703 O   0  0  0  0  0  0  0  0  0  0  0  0
   -1.7307    0.4010   -0.8497 C   0  0  0  0  0  0  0  0  0  0  0  0
   -1.2548   -0.2510    0.4096 C   0  0  0  0  0  0  0  0  0  0  0  0
   -1.4680   -1.7439    0.3587 C   0  0  0  0  0  0  0  0  0  0  0  0
    3.1163   -1.2641   -0.6564 H   0  0  0  0  0  0  0  0  0  0  0  0
    2.3187   -0.0378   -1.6598 H   0  0  0  0  0  0  0  0  0  0  0  0
    3.0068    0.3781   -0.0006 H   0  0  0  0  0  0  0  0  0  0  0  0
    1.4099   -0.9925    1.1059 H   0  0  0  0  0  0  0  0  0  0  0  0
    0.8154   -1.7221   -0.4732 H   0  0  0  0  0  0  0  0  0  0  0  0
    0.9135    1.4549    1.5027 H   0  0  0  0  0  0  0  0  0  0  0  0
    1.2084    2.0449   -0.1368 H   0  0  0  0  0  0  0  0  0  0  0  0
   -0.4939    3.3279    0.3097 H   0  0  0  0  0  0  0  0  0  0  0  0
   -2.1143    1.4441   -0.7748 H   0  0  0  0  0  0  0  0  0  0  0  0
   -2.4909   -0.2441   -1.3604 H   0  0  0  0  0  0  0  0  0  0  0  0
   -1.5831    0.2279    1.3576 H   0  0  0  0  0  0  0  0  0  0  0  0
   -2.3861   -1.9490    0.9687 H   0  0  0  0  0  0  0  0  0  0  0  0
   -1.6358   -2.1118   -0.6710 H   0  0  0  0  0  0  0  0  0  0  0  0
   -0.6619   -2.3279    0.7979 H   0  0  0  0  0  0  0  0  0  0  0  0
  1  2  1  0
  2  3  1  0
  3  4  1  0
  4  5  1  0
  3  6  1  0
  6  7  1  0
  7  8  1  0
  8  9  1  0
  8  3  1  0
  1 10  1  0
  1 11  1  0
  1 12  1  0
  2 13  1  0
  2 14  1  0
  4 15  1  0
  4 16  1  0
  5 17  1  0
  7 18  1  0
  7 19  1  0
  8 20  1  0
  9 21  1  0
  9 22  1  0
  9 23  1  0
M  END
