
     RDKit          3D

 21 22  0  0  0  0  0  0  0  0999 V2000
    2.6836    0.8541    0.4054 C   0  0  0  0  0  0  0  0  0  0  0  0
    1.9610   -0.4592    0.4062 C   0  0  0  0  0  0  0  0  0  0  0  0
    0.7184   -0.4046   -0.4578 C   0  0  0  0  0  0  0  0  0  0  0  0
   -0.1304   -1.5895   -0.5907 C   0  0  0  0  0  0  0  0  0  0  0  0
   -1.4140   -1.3132   -0.7337 C   0  0  0  0  0  0  0  0  0  0  0  0
   -1.5929    0.1452   -0.7144 C   0  0  0  0  0  0  0  0  0  0  0  0
   -2.7282    0.5844    0.1822 C   0  0  0  0  0  0  0  0  0  0  0  0
   -0.2714    0.6817   -0.2870 C   0  0  0  0  0  0  0  0  0  0  0  0
    0.6788    0.6657   -1.3031 O   0  0  0  0  0  0  0  0  0  0  0  0
    3.7335    0.7333    0.7434 H   0  0  0  0  0  0  0  0  0  0  0  0
    2.2200    1.6202    1.0442 H   0  0  0  0  0  0  0  0  0  0  0  0
    2.7528    1.1851   -0.6659 H   0  0  0  0  0  0  0  0  0  0  0  0
    1.7567   -0.8662    1.3949 H   0  0  0  0  0  0  0  0  0  0  0  0
    2.6459   -1.1999   -0.1010 H   0  0  0  0  0  0  0  0  0  0  0  0
    0.2436   -2.6160   -0.5756 H   0  0  0  0  0  0  0  0  0  0  0  0
   -2.2383   -2.0529   -0.8508 H   0  0  0  0  0  0  0  0  0  0  0  0
   -1.8760    0.5268   -1.7425 H   0  0  0  0  0  0  0  0  0  0  0  0
   -3.5759   -0.1136    0.0827 H   0  0  0  0  0  0  0  0  0  0  0  0
   -3.0658    1.5894   -0.1475 H   0  0  0  0  0  0  0  0  0  0  0  0
   -2.3337    0.6553    1.2155 H   0  0  0  0  0  0  0  0  0  0  0  0
   -0.1678    1.3739    0.5608 H   0  0  0  0  0  0  0  0  0  0  0  0
  1  2  1  0
  2  3  1  0
  3  4  1  0
  4  5  2  0
  5  6  1  0
  6  7  1  0
  6  8  1  0
  8  9  1  0
  8  3  1  0
  9  3  1  0
  1 10  1  0
  1 11  1  0
  1 12  1  0
  2 13  1  0
  2 14  1  0
  4 15  1  0
  5 16  1  0
  6 17  1  0
  7 18  1  0
  7 19  1  0
  7 20  1  0
  8 21  1  0
M  END
