
     RDKit          3D

 23 24  0  0  0  0  0  0  0  0999 V2000
    3.1276    0.7371    0.1562 C   0  0  0  0  0  0  0  0  0  0  0  0
    2.2059   -0.3157   -0.4238 C   0  0  0  0  0  0  0  0  0  0  0  0
    0.8885   -0.3768    0.3150 C   0  0  0  0  0  0  0  0  0  0  0  0
   -0.0110   -1.4240   -0.2725 C   0  0  0  0  0  0  0  0  0  0  0  0
   -0.5966   -0.2092   -0.9199 C   0  0  0  0  0  0  0  0  0  0  0  0
   -2.0912   -0.0778   -0.7343 C   0  0  0  0  0  0  0  0  0  0  0  0
   -2.6792    0.0201    0.6028 C   0  0  0  0  0  0  0  0  0  0  0  0
   -2.5772    1.2725   -0.1639 C   0  0  0  0  0  0  0  0  0  0  0  0
    0.0649    0.6579   -0.0658 O   0  0  0  0  0  0  0  0  0  0  0  0
    4.0771    0.2527    0.4661 H   0  0  0  0  0  0  0  0  0  0  0  0
    3.3386    1.5410   -0.5938 H   0  0  0  0  0  0  0  0  0  0  0  0
    2.7058    1.2306    1.0398 H   0  0  0  0  0  0  0  0  0  0  0  0
    2.6612   -1.3310   -0.3464 H   0  0  0  0  0  0  0  0  0  0  0  0
    2.0215   -0.0809   -1.4792 H   0  0  0  0  0  0  0  0  0  0  0  0
    1.0206   -0.4077    1.4109 H   0  0  0  0  0  0  0  0  0  0  0  0
   -0.6782   -1.9472    0.4430 H   0  0  0  0  0  0  0  0  0  0  0  0
    0.4750   -2.1498   -0.9321 H   0  0  0  0  0  0  0  0  0  0  0  0
   -0.2839   -0.1486   -1.9796 H   0  0  0  0  0  0  0  0  0  0  0  0
   -2.6940   -0.5125   -1.5507 H   0  0  0  0  0  0  0  0  0  0  0  0
   -3.7206   -0.3866    0.7548 H   0  0  0  0  0  0  0  0  0  0  0  0
   -2.0612   -0.0820    1.5218 H   0  0  0  0  0  0  0  0  0  0  0  0
   -1.7647    2.0171    0.0446 H   0  0  0  0  0  0  0  0  0  0  0  0
   -3.4287    1.7210   -0.6896 H   0  0  0  0  0  0  0  0  0  0  0  0
  1  2  1  0
  2  3  1  0
  3  4  1  0
  4  5  1  0
  5  6  1  0
  6  7  1  0
  7  8  1  0
  5  9  1  0
  9  3  1  0
  8  6  1  0
  1 10  1  0
  1 11  1  0
  1 12  1  0
  2 13  1  0
  2 14  1  0
  3 15  1  0
  4 16  1  0
  4 17  1  0
  5 18  1  0
  6 19  1  0
  7 20  1  0
  7 21  1  0
  8 22  1  0
  8 23  1  0
M  END
