
     RDKit          3D

 21 22  0  0  0  0  0  0  0  0999 V2000
    2.6529    0.0941   -0.4144 C   0  0  0  0  0  0  0  0  0  0  0  0
    1.4020   -0.4703    0.2143 C   0  0  0  0  0  0  0  0  0  0  0  0
    0.1661   -0.2186   -0.5799 C   0  0  0  0  0  0  0  0  0  0  0  0
   -0.2811    1.1832   -0.8858 C   0  0  0  0  0  0  0  0  0  0  0  0
   -1.6396    0.8043   -0.2806 C   0  0  0  0  0  0  0  0  0  0  0  0
   -1.7652    1.4107    0.9612 O   0  0  0  0  0  0  0  0  0  0  0  0
   -1.1085   -0.6057   -0.1666 C   0  0  0  0  0  0  0  0  0  0  0  0
   -1.4910   -1.4517    1.0074 C   0  0  0  0  0  0  0  0  0  0  0  0
   -0.5032   -1.2166   -1.2345 O   0  0  0  0  0  0  0  0  0  0  0  0
    2.8726   -0.3525   -1.3997 H   0  0  0  0  0  0  0  0  0  0  0  0
    2.6854    1.1955   -0.4002 H   0  0  0  0  0  0  0  0  0  0  0  0
    3.5032   -0.2343    0.2518 H   0  0  0  0  0  0  0  0  0  0  0  0
    1.3497   -0.0917    1.2558 H   0  0  0  0  0  0  0  0  0  0  0  0
    1.5480   -1.5776    0.2652 H   0  0  0  0  0  0  0  0  0  0  0  0
   -0.4115    1.3037   -1.9815 H   0  0  0  0  0  0  0  0  0  0  0  0
    0.2366    1.9980   -0.3849 H   0  0  0  0  0  0  0  0  0  0  0  0
   -2.4895    0.9108   -0.9685 H   0  0  0  0  0  0  0  0  0  0  0  0
   -1.8912    2.3895    0.8431 H   0  0  0  0  0  0  0  0  0  0  0  0
   -0.6247   -1.7703    1.6213 H   0  0  0  0  0  0  0  0  0  0  0  0
   -1.9724   -2.3858    0.6334 H   0  0  0  0  0  0  0  0  0  0  0  0
   -2.2387   -0.9146    1.6429 H   0  0  0  0  0  0  0  0  0  0  0  0
  1  2  1  0
  2  3  1  0
  3  4  1  0
  4  5  1  0
  5  6  1  0
  5  7  1  0
  7  8  1  0
  7  9  1  0
  7  3  1  0
  9  3  1  0
  1 10  1  0
  1 11  1  0
  1 12  1  0
  2 13  1  0
  2 14  1  0
  4 15  1  0
  4 16  1  0
  5 17  1  0
  6 18  1  0
  8 19  1  0
  8 20  1  0
  8 21  1  0
M  END
