
     RDKit          3D

 21 22  0  0  0  0  0  0  0  0999 V2000
    2.5191    0.3730   -0.8034 C   0  0  0  0  0  0  0  0  0  0  0  0
    1.8512   -0.3086    0.3840 C   0  0  0  0  0  0  0  0  0  0  0  0
    0.5138    0.3262    0.5722 C   0  0  0  0  0  0  0  0  0  0  0  0
   -0.3307   -0.1937    1.6991 C   0  0  0  0  0  0  0  0  0  0  0  0
   -1.4927   -0.4070    0.7990 C   0  0  0  0  0  0  0  0  0  0  0  0
   -1.8316    0.5179   -0.3049 C   0  0  0  0  0  0  0  0  0  0  0  0
   -2.7670    0.0863   -1.3679 C   0  0  0  0  0  0  0  0  0  0  0  0
   -3.0132   -1.0724   -1.6450 O   0  0  0  0  0  0  0  0  0  0  0  0
   -0.5097   -0.1982   -0.3781 C   0  0  0  0  0  0  0  0  0  0  0  0
    1.9357    1.2529   -1.1536 H   0  0  0  0  0  0  0  0  0  0  0  0
    3.5467    0.7378   -0.5209 H   0  0  0  0  0  0  0  0  0  0  0  0
    2.6414   -0.3044   -1.6547 H   0  0  0  0  0  0  0  0  0  0  0  0
    2.5002   -0.2612    1.2923 H   0  0  0  0  0  0  0  0  0  0  0  0
    1.7111   -1.3929    0.1405 H   0  0  0  0  0  0  0  0  0  0  0  0
    0.5453    1.4467    0.5199 H   0  0  0  0  0  0  0  0  0  0  0  0
   -0.5350    0.5322    2.4955 H   0  0  0  0  0  0  0  0  0  0  0  0
    0.0690   -1.1391    2.1606 H   0  0  0  0  0  0  0  0  0  0  0  0
   -1.9939   -1.3700    0.8794 H   0  0  0  0  0  0  0  0  0  0  0  0
   -1.7242    1.6093   -0.1859 H   0  0  0  0  0  0  0  0  0  0  0  0
   -3.2711    0.8464   -1.9436 H   0  0  0  0  0  0  0  0  0  0  0  0
   -0.3645   -1.0813   -0.9848 H   0  0  0  0  0  0  0  0  0  0  0  0
  1  2  1  0
  2  3  1  0
  3  4  1  0
  4  5  1  0
  5  6  1  0
  6  7  1  0
  7  8  2  0
  6  9  1  0
  9  3  1  0
  9  5  1  0
  1 10  1  0
  1 11  1  0
  1 12  1  0
  2 13  1  0
  2 14  1  0
  3 15  1  0
  4 16  1  0
  4 17  1  0
  5 18  1  0
  6 19  1  0
  7 20  1  0
  9 21  1  0
M  END
