
     RDKit          3D

 23 24  0  0  0  0  0  0  0  0999 V2000
    2.4265    0.5535    0.6081 C   0  0  0  0  0  0  0  0  0  0  0  0
    1.6979   -0.5419   -0.1402 C   0  0  0  0  0  0  0  0  0  0  0  0
    0.3536   -0.0233   -0.5871 C   0  0  0  0  0  0  0  0  0  0  0  0
   -0.5079   -1.0208   -1.3625 C   0  0  0  0  0  0  0  0  0  0  0  0
   -0.9075   -0.4939   -0.0384 C   0  0  0  0  0  0  0  0  0  0  0  0
   -1.0462   -1.3895    1.1374 C   0  0  0  0  0  0  0  0  0  0  0  0
   -1.7873    0.7544   -0.0246 C   0  0  0  0  0  0  0  0  0  0  0  0
   -0.8421    1.8603   -0.4288 C   0  0  0  0  0  0  0  0  0  0  0  0
    0.2572    1.2674   -1.0238 O   0  0  0  0  0  0  0  0  0  0  0  0
    2.1566    0.5377    1.6699 H   0  0  0  0  0  0  0  0  0  0  0  0
    3.5291    0.3881    0.4631 H   0  0  0  0  0  0  0  0  0  0  0  0
    2.1976    1.5151    0.0972 H   0  0  0  0  0  0  0  0  0  0  0  0
    2.3113   -0.7953   -1.0300 H   0  0  0  0  0  0  0  0  0  0  0  0
    1.6029   -1.4626    0.4739 H   0  0  0  0  0  0  0  0  0  0  0  0
   -1.0428   -0.6596   -2.2643 H   0  0  0  0  0  0  0  0  0  0  0  0
   -0.1333   -2.0546   -1.4440 H   0  0  0  0  0  0  0  0  0  0  0  0
   -1.0060   -2.4834    0.8573 H   0  0  0  0  0  0  0  0  0  0  0  0
   -0.3772   -1.1790    1.9751 H   0  0  0  0  0  0  0  0  0  0  0  0
   -2.0946   -1.2596    1.5379 H   0  0  0  0  0  0  0  0  0  0  0  0
   -2.5809    0.5810   -0.7588 H   0  0  0  0  0  0  0  0  0  0  0  0
   -2.2266    0.9188    0.9691 H   0  0  0  0  0  0  0  0  0  0  0  0
   -0.5639    2.4721    0.4521 H   0  0  0  0  0  0  0  0  0  0  0  0
   -1.4166    2.5151   -1.1385 H   0  0  0  0  0  0  0  0  0  0  0  0
  1  2  1  0
  2  3  1  0
  3  4  1  0
  4  5  1  0
  5  6  1  0
  5  7  1  0
  7  8  1  0
  8  9  1  0
  5  3  1  0
  9  3  1  0
  1 10  1  0
  1 11  1  0
  1 12  1  0
  2 13  1  0
  2 14  1  0
  4 15  1  0
  4 16  1  0
  6 17  1  0
  6 18  1  0
  6 19  1  0
  7 20  1  0
  7 21  1  0
  8 22  1  0
  8 23  1  0
M  END
