
     RDKit          3D

 21 22  0  0  0  0  0  0  0  0999 V2000
    2.4297   -0.7913    0.0742 C   0  0  0  0  0  0  0  0  0  0  0  0
    1.3085   -0.1212   -0.6686 C   0  0  0  0  0  0  0  0  0  0  0  0
    0.3665    0.4602    0.3191 C   0  0  0  0  0  0  0  0  0  0  0  0
   -0.8191    1.1701   -0.3648 C   0  0  0  0  0  0  0  0  0  0  0  0
   -1.6738    1.3724    0.8251 C   0  0  0  0  0  0  0  0  0  0  0  0
   -1.5007    0.3535    1.6650 C   0  0  0  0  0  0  0  0  0  0  0  0
   -0.5541   -0.5855    0.9546 C   0  0  0  0  0  0  0  0  0  0  0  0
   -1.2777   -1.0345   -0.2516 C   0  0  0  0  0  0  0  0  0  0  0  0
   -1.3919   -0.0046   -1.0872 C   0  0  0  0  0  0  0  0  0  0  0  0
    2.2744   -0.7478    1.1898 H   0  0  0  0  0  0  0  0  0  0  0  0
    2.5005   -1.8891   -0.1505 H   0  0  0  0  0  0  0  0  0  0  0  0
    3.4088   -0.2970   -0.1482 H   0  0  0  0  0  0  0  0  0  0  0  0
    0.7924   -0.7901   -1.3758 H   0  0  0  0  0  0  0  0  0  0  0  0
    1.7216    0.7143   -1.2795 H   0  0  0  0  0  0  0  0  0  0  0  0
    0.8058    1.1429    1.0279 H   0  0  0  0  0  0  0  0  0  0  0  0
   -0.5607    2.0121   -0.9446 H   0  0  0  0  0  0  0  0  0  0  0  0
   -2.3333    2.2075    0.9928 H   0  0  0  0  0  0  0  0  0  0  0  0
   -1.9527    0.2525    2.6332 H   0  0  0  0  0  0  0  0  0  0  0  0
   -0.0843   -1.3074    1.5601 H   0  0  0  0  0  0  0  0  0  0  0  0
   -1.6389   -2.0402   -0.3955 H   0  0  0  0  0  0  0  0  0  0  0  0
   -1.8210   -0.0769   -2.0707 H   0  0  0  0  0  0  0  0  0  0  0  0
  1  2  1  0
  2  3  1  0
  3  4  1  0
  4  5  1  0
  5  6  2  0
  6  7  1  0
  7  8  1  0
  8  9  2  0
  7  3  1  0
  9  4  1  0
  1 10  1  0
  1 11  1  0
  1 12  1  0
  2 13  1  0
  2 14  1  0
  3 15  1  0
  4 16  1  0
  5 17  1  0
  6 18  1  0
  7 19  1  0
  8 20  1  0
  9 21  1  0
M  END
