
     RDKit          3D

 23 24  0  0  0  0  0  0  0  0999 V2000
    2.5334   -0.6638   -0.2080 C   0  0  0  0  0  0  0  0  0  0  0  0
    1.6707    0.0979   -1.1362 C   0  0  0  0  0  0  0  0  0  0  0  0
    0.2586    0.3108   -0.8146 C   0  0  0  0  0  0  0  0  0  0  0  0
   -0.2239    1.0073    0.3958 C   0  0  0  0  0  0  0  0  0  0  0  0
   -1.5240    1.7518    0.3607 C   0  0  0  0  0  0  0  0  0  0  0  0
   -2.5984    0.7896    0.0324 C   0  0  0  0  0  0  0  0  0  0  0  0
   -2.0660   -0.4023   -0.0815 C   0  0  0  0  0  0  0  0  0  0  0  0
   -0.5799   -0.3827    0.1551 C   0  0  0  0  0  0  0  0  0  0  0  0
   -0.1540   -1.5119    1.0368 C   0  0  0  0  0  0  0  0  0  0  0  0
    2.6270   -0.2729    0.7945 H   0  0  0  0  0  0  0  0  0  0  0  0
    3.6042   -0.7393   -0.5918 H   0  0  0  0  0  0  0  0  0  0  0  0
    2.2085   -1.7203   -0.1609 H   0  0  0  0  0  0  0  0  0  0  0  0
    2.1837    1.1062   -1.2634 H   0  0  0  0  0  0  0  0  0  0  0  0
    1.7437   -0.3135   -2.1943 H   0  0  0  0  0  0  0  0  0  0  0  0
   -0.3269    0.6490   -1.7435 H   0  0  0  0  0  0  0  0  0  0  0  0
    0.4558    1.3418    1.1979 H   0  0  0  0  0  0  0  0  0  0  0  0
   -1.7690    2.2386    1.3269 H   0  0  0  0  0  0  0  0  0  0  0  0
   -1.4383    2.5397   -0.4205 H   0  0  0  0  0  0  0  0  0  0  0  0
   -3.6719    1.0527   -0.0927 H   0  0  0  0  0  0  0  0  0  0  0  0
   -2.6208   -1.3138   -0.3203 H   0  0  0  0  0  0  0  0  0  0  0  0
    0.7259   -1.3544    1.6543 H   0  0  0  0  0  0  0  0  0  0  0  0
   -1.0486   -1.8035    1.6697 H   0  0  0  0  0  0  0  0  0  0  0  0
    0.0101   -2.4068    0.4037 H   0  0  0  0  0  0  0  0  0  0  0  0
  1  2  1  0
  2  3  1  0
  3  4  1  0
  4  5  1  0
  5  6  1  0
  6  7  2  0
  7  8  1  0
  8  9  1  0
  8  3  1  0
  8  4  1  0
  1 10  1  0
  1 11  1  0
  1 12  1  0
  2 13  1  0
  2 14  1  0
  3 15  1  0
  4 16  1  0
  5 17  1  0
  5 18  1  0
  6 19  1  0
  7 20  1  0
  9 21  1  0
  9 22  1  0
  9 23  1  0
M  END
