
     RDKit          3D

 25 25  0  0  0  0  0  0  0  0999 V2000
    0.6794    2.2518   -0.0165 C   0  0  0  0  0  0  0  0  0  0  0  0
   -0.2473    1.2629   -0.6010 C   0  0  0  0  0  0  0  0  0  0  0  0
   -0.2004   -0.1286   -0.1382 C   0  0  0  0  0  0  0  0  0  0  0  0
    1.0962   -0.8800   -0.3222 C   0  0  0  0  0  0  0  0  0  0  0  0
    2.2703   -0.2898    0.3715 C   0  0  0  0  0  0  0  0  0  0  0  0
   -0.8232   -0.4980    1.1642 C   0  0  0  0  0  0  0  0  0  0  0  0
   -1.5434   -1.6360    0.4761 C   0  0  0  0  0  0  0  0  0  0  0  0
   -1.3131   -0.9364   -0.8240 C   0  0  0  0  0  0  0  0  0  0  0  0
   -2.3711   -0.1138   -1.2228 O   0  0  0  0  0  0  0  0  0  0  0  0
    1.7325    2.1903   -0.3576 H   0  0  0  0  0  0  0  0  0  0  0  0
    0.6456    2.3376    1.0854 H   0  0  0  0  0  0  0  0  0  0  0  0
    0.3498    3.2767   -0.3688 H   0  0  0  0  0  0  0  0  0  0  0  0
   -0.0465    1.2549   -1.7161 H   0  0  0  0  0  0  0  0  0  0  0  0
   -1.2899    1.6901   -0.5450 H   0  0  0  0  0  0  0  0  0  0  0  0
    0.9201   -1.9207    0.0359 H   0  0  0  0  0  0  0  0  0  0  0  0
    1.3496   -0.9670   -1.4034 H   0  0  0  0  0  0  0  0  0  0  0  0
    2.9884    0.1610   -0.3511 H   0  0  0  0  0  0  0  0  0  0  0  0
    2.0303    0.3971    1.2052 H   0  0  0  0  0  0  0  0  0  0  0  0
    2.8478   -1.1313    0.8521 H   0  0  0  0  0  0  0  0  0  0  0  0
   -1.5385    0.1852    1.6140 H   0  0  0  0  0  0  0  0  0  0  0  0
   -0.1076   -0.9003    1.9134 H   0  0  0  0  0  0  0  0  0  0  0  0
   -2.6265   -1.7026    0.6935 H   0  0  0  0  0  0  0  0  0  0  0  0
   -1.0367   -2.6233    0.5486 H   0  0  0  0  0  0  0  0  0  0  0  0
   -0.9472   -1.5488   -1.6566 H   0  0  0  0  0  0  0  0  0  0  0  0
   -2.8184    0.2689   -0.4366 H   0  0  0  0  0  0  0  0  0  0  0  0
  1  2  1  0
  2  3  1  0
  3  4  1  0
  4  5  1  0
  3  6  1  0
  6  7  1  0
  7  8  1  0
  8  9  1  0
  8  3  1  0
  1 10  1  0
  1 11  1  0
  1 12  1  0
  2 13  1  0
  2 14  1  0
  4 15  1  0
  4 16  1  0
  5 17  1  0
  5 18  1  0
  5 19  1  0
  6 20  1  0
  6 21  1  0
  7 22  1  0
  7 23  1  0
  8 24  1  0
  9 25  1  0
M  END
