
     RDKit          3D

 21 22  0  0  0  0  0  0  0  0999 V2000
    2.5298    0.2051    0.2976 C   0  0  0  0  0  0  0  0  0  0  0  0
    1.1471    0.7756    0.6590 C   0  0  0  0  0  0  0  0  0  0  0  0
    0.2267    0.3194   -0.4228 C   0  0  0  0  0  0  0  0  0  0  0  0
   -1.1990    0.7039   -0.3846 C   0  0  0  0  0  0  0  0  0  0  0  0
   -1.7505    1.8190   -0.5132 O   0  0  0  0  0  0  0  0  0  0  0  0
   -1.4138   -0.5081   -1.2972 C   0  0  0  0  0  0  0  0  0  0  0  0
   -0.4669   -1.0054   -0.2266 C   0  0  0  0  0  0  0  0  0  0  0  0
    0.0491   -2.1407   -0.1416 O   0  0  0  0  0  0  0  0  0  0  0  0
   -1.3683   -0.2962    0.7229 C   0  0  0  0  0  0  0  0  0  0  0  0
    2.3396   -0.8609    0.0460 H   0  0  0  0  0  0  0  0  0  0  0  0
    3.2180    0.2308    1.1415 H   0  0  0  0  0  0  0  0  0  0  0  0
    2.9100    0.6997   -0.6235 H   0  0  0  0  0  0  0  0  0  0  0  0
    1.2507    1.8734    0.7143 H   0  0  0  0  0  0  0  0  0  0  0  0
    0.9472    0.3522    1.6632 H   0  0  0  0  0  0  0  0  0  0  0  0
    0.6620    0.3824   -1.4622 H   0  0  0  0  0  0  0  0  0  0  0  0
   -2.0809    2.2662    0.3057 H   0  0  0  0  0  0  0  0  0  0  0  0
   -0.9155   -0.4404   -2.2737 H   0  0  0  0  0  0  0  0  0  0  0  0
   -2.4144   -0.9449   -1.2580 H   0  0  0  0  0  0  0  0  0  0  0  0
   -0.2344   -2.7065    0.6273 H   0  0  0  0  0  0  0  0  0  0  0  0
   -1.0052   -0.0343    1.7181 H   0  0  0  0  0  0  0  0  0  0  0  0
   -2.4312   -0.6903    0.7076 H   0  0  0  0  0  0  0  0  0  0  0  0
  1  2  1  0
  2  3  1  0
  3  4  1  0
  4  5  1  0
  4  6  1  0
  6  7  1  0
  7  8  1  0
  7  9  1  0
  7  3  1  0
  9  4  1  0
  1 10  1  0
  1 11  1  0
  1 12  1  0
  2 13  1  0
  2 14  1  0
  3 15  1  0
  5 16  1  0
  6 17  1  0
  6 18  1  0
  8 19  1  0
  9 20  1  0
  9 21  1  0
M  END
