
     RDKit          3D

 23 24  0  0  0  0  0  0  0  0999 V2000
    1.8485   -1.2375    0.2695 C   0  0  0  0  0  0  0  0  0  0  0  0
    1.5062    0.1767   -0.0169 C   0  0  0  0  0  0  0  0  0  0  0  0
    0.0962    0.5599   -0.1198 C   0  0  0  0  0  0  0  0  0  0  0  0
   -0.0023    2.0666   -0.4201 C   0  0  0  0  0  0  0  0  0  0  0  0
   -0.8632    0.1847    0.9514 C   0  0  0  0  0  0  0  0  0  0  0  0
   -0.8482   -1.3022    0.9557 C   0  0  0  0  0  0  0  0  0  0  0  0
   -0.8056   -1.5886   -0.3713 C   0  0  0  0  0  0  0  0  0  0  0  0
   -0.8314   -0.2478   -0.9899 C   0  0  0  0  0  0  0  0  0  0  0  0
   -1.9382    0.4009   -0.1337 C   0  0  0  0  0  0  0  0  0  0  0  0
    2.9828   -1.2707    0.3102 H   0  0  0  0  0  0  0  0  0  0  0  0
    1.6113   -1.9556   -0.5403 H   0  0  0  0  0  0  0  0  0  0  0  0
    1.5617   -1.5987    1.2834 H   0  0  0  0  0  0  0  0  0  0  0  0
    2.0966    0.4817   -0.9201 H   0  0  0  0  0  0  0  0  0  0  0  0
    1.9690    0.7891    0.8140 H   0  0  0  0  0  0  0  0  0  0  0  0
   -0.3784    2.2421   -1.4440 H   0  0  0  0  0  0  0  0  0  0  0  0
    0.9890    2.5607   -0.3593 H   0  0  0  0  0  0  0  0  0  0  0  0
   -0.6280    2.5776    0.3602 H   0  0  0  0  0  0  0  0  0  0  0  0
   -0.9566    0.7236    1.8471 H   0  0  0  0  0  0  0  0  0  0  0  0
   -0.8657   -2.0035    1.7826 H   0  0  0  0  0  0  0  0  0  0  0  0
   -0.7637   -2.5707   -0.8241 H   0  0  0  0  0  0  0  0  0  0  0  0
   -0.8646   -0.1117   -2.0277 H   0  0  0  0  0  0  0  0  0  0  0  0
   -2.1515    1.4348   -0.3683 H   0  0  0  0  0  0  0  0  0  0  0  0
   -2.7638   -0.3114   -0.0388 H   0  0  0  0  0  0  0  0  0  0  0  0
  1  2  1  0
  2  3  1  0
  3  4  1  0
  3  5  1  0
  5  6  1  0
  6  7  2  0
  7  8  1  0
  8  9  1  0
  8  3  1  0
  9  5  1  0
  1 10  1  0
  1 11  1  0
  1 12  1  0
  2 13  1  0
  2 14  1  0
  4 15  1  0
  4 16  1  0
  4 17  1  0
  5 18  1  0
  6 19  1  0
  7 20  1  0
  8 21  1  0
  9 22  1  0
  9 23  1  0
M  END
