
     RDKit          3D

 27 27  0  0  0  0  0  0  0  0999 V2000
    1.4729    2.1775   -0.3356 C   0  0  0  0  0  0  0  0  0  0  0  0
    0.3826    1.2622   -0.8782 C   0  0  0  0  0  0  0  0  0  0  0  0
    0.1080    0.2299    0.1849 C   0  0  0  0  0  0  0  0  0  0  0  0
    1.2659   -0.6265    0.5751 C   0  0  0  0  0  0  0  0  0  0  0  0
    1.7645   -1.3966   -0.6505 C   0  0  0  0  0  0  0  0  0  0  0  0
   -0.8508    0.7262    1.2537 C   0  0  0  0  0  0  0  0  0  0  0  0
   -1.2369   -0.3800    0.3236 C   0  0  0  0  0  0  0  0  0  0  0  0
   -1.3973   -1.7230    0.9558 C   0  0  0  0  0  0  0  0  0  0  0  0
   -2.1877   -0.0889   -0.8241 C   0  0  0  0  0  0  0  0  0  0  0  0
    2.4499    1.8936   -0.7847 H   0  0  0  0  0  0  0  0  0  0  0  0
    1.2460    3.2428   -0.5174 H   0  0  0  0  0  0  0  0  0  0  0  0
    1.5917    2.0592    0.7708 H   0  0  0  0  0  0  0  0  0  0  0  0
    0.6498    0.8169   -1.8487 H   0  0  0  0  0  0  0  0  0  0  0  0
   -0.5430    1.8773   -1.0789 H   0  0  0  0  0  0  0  0  0  0  0  0
    2.1146    0.0600    0.8478 H   0  0  0  0  0  0  0  0  0  0  0  0
    1.0995   -1.2690    1.4370 H   0  0  0  0  0  0  0  0  0  0  0  0
    2.6455   -2.0191   -0.3925 H   0  0  0  0  0  0  0  0  0  0  0  0
    0.9898   -2.1026   -1.0251 H   0  0  0  0  0  0  0  0  0  0  0  0
    2.0078   -0.6440   -1.4213 H   0  0  0  0  0  0  0  0  0  0  0  0
   -0.5875    0.4611    2.2985 H   0  0  0  0  0  0  0  0  0  0  0  0
   -1.3721    1.6726    1.1226 H   0  0  0  0  0  0  0  0  0  0  0  0
   -0.8508   -1.7595    1.9014 H   0  0  0  0  0  0  0  0  0  0  0  0
   -2.4875   -1.8519    1.2204 H   0  0  0  0  0  0  0  0  0  0  0  0
   -1.1661   -2.5677    0.2791 H   0  0  0  0  0  0  0  0  0  0  0  0
   -3.0502   -0.7682   -0.8467 H   0  0  0  0  0  0  0  0  0  0  0  0
   -2.4458    0.9788   -0.8035 H   0  0  0  0  0  0  0  0  0  0  0  0
   -1.6125   -0.2613   -1.7635 H   0  0  0  0  0  0  0  0  0  0  0  0
  1  2  1  0
  2  3  1  0
  3  4  1  0
  4  5  1  0
  3  6  1  0
  6  7  1  0
  7  8  1  0
  7  9  1  0
  7  3  1  0
  1 10  1  0
  1 11  1  0
  1 12  1  0
  2 13  1  0
  2 14  1  0
  4 15  1  0
  4 16  1  0
  5 17  1  0
  5 18  1  0
  5 19  1  0
  6 20  1  0
  6 21  1  0
  8 22  1  0
  8 23  1  0
  8 24  1  0
  9 25  1  0
  9 26  1  0
  9 27  1  0
M  END
