
     RDKit          3D

 25 25  0  0  0  0  0  0  0  0999 V2000
   -2.1643    1.6169   -0.3074 C   0  0  0  0  0  0  0  0  0  0  0  0
   -1.8756    0.3759   -1.1558 C   0  0  0  0  0  0  0  0  0  0  0  0
   -0.7682   -0.4521   -0.5279 C   0  0  0  0  0  0  0  0  0  0  0  0
    0.5224    0.2698   -0.3828 C   0  0  0  0  0  0  0  0  0  0  0  0
    1.6290   -0.5298    0.2350 C   0  0  0  0  0  0  0  0  0  0  0  0
    2.8778    0.3244    0.3211 C   0  0  0  0  0  0  0  0  0  0  0  0
    3.2260    0.7091   -0.9535 O   0  0  0  0  0  0  0  0  0  0  0  0
   -1.2515   -1.3107    0.6308 C   0  0  0  0  0  0  0  0  0  0  0  0
   -0.8872   -1.9018   -0.7280 C   0  0  0  0  0  0  0  0  0  0  0  0
   -3.1596    1.9783   -0.6338 H   0  0  0  0  0  0  0  0  0  0  0  0
   -2.1071    1.3805    0.7622 H   0  0  0  0  0  0  0  0  0  0  0  0
   -1.4431    2.4357   -0.5788 H   0  0  0  0  0  0  0  0  0  0  0  0
   -1.4698    0.7422   -2.1327 H   0  0  0  0  0  0  0  0  0  0  0  0
   -2.7998   -0.1959   -1.2894 H   0  0  0  0  0  0  0  0  0  0  0  0
    0.8595    0.5998   -1.3960 H   0  0  0  0  0  0  0  0  0  0  0  0
    0.3980    1.1953    0.2169 H   0  0  0  0  0  0  0  0  0  0  0  0
    1.8969   -1.4328   -0.3313 H   0  0  0  0  0  0  0  0  0  0  0  0
    1.3761   -0.8487    1.2660 H   0  0  0  0  0  0  0  0  0  0  0  0
    3.6900   -0.1699    0.8773 H   0  0  0  0  0  0  0  0  0  0  0  0
    2.5786    1.2560    0.8819 H   0  0  0  0  0  0  0  0  0  0  0  0
    3.5767    1.6278   -0.9333 H   0  0  0  0  0  0  0  0  0  0  0  0
   -2.3212   -1.2815    0.9136 H   0  0  0  0  0  0  0  0  0  0  0  0
   -0.5803   -1.4770    1.4843 H   0  0  0  0  0  0  0  0  0  0  0  0
   -1.7524   -2.3059   -1.3032 H   0  0  0  0  0  0  0  0  0  0  0  0
   -0.0509   -2.6056   -0.6731 H   0  0  0  0  0  0  0  0  0  0  0  0
  1  2  1  0
  2  3  1  0
  3  4  1  0
  4  5  1  0
  5  6  1  0
  6  7  1  0
  3  8  1  0
  8  9  1  0
  9  3  1  0
  1 10  1  0
  1 11  1  0
  1 12  1  0
  2 13  1  0
  2 14  1  0
  4 15  1  0
  4 16  1  0
  5 17  1  0
  5 18  1  0
  6 19  1  0
  6 20  1  0
  7 21  1  0
  8 22  1  0
  8 23  1  0
  9 24  1  0
  9 25  1  0
M  END
