
     RDKit          3D

 23 23  0  0  0  0  0  0  0  0999 V2000
   -2.6830   -0.2182    0.7184 C   0  0  0  0  0  0  0  0  0  0  0  0
   -1.7827    0.1297   -0.4341 C   0  0  0  0  0  0  0  0  0  0  0  0
   -0.4780    0.7099   -0.0173 C   0  0  0  0  0  0  0  0  0  0  0  0
    0.5469    1.1174   -1.0209 C   0  0  0  0  0  0  0  0  0  0  0  0
    0.7409   -0.1331   -0.2851 C   0  0  0  0  0  0  0  0  0  0  0  0
    0.5226   -1.4245   -1.0896 C   0  0  0  0  0  0  0  0  0  0  0  0
    1.7656   -0.3187    0.7976 C   0  0  0  0  0  0  0  0  0  0  0  0
    2.3974    0.9053    1.2910 C   0  0  0  0  0  0  0  0  0  0  0  0
    3.2357    0.8229    2.1558 O   0  0  0  0  0  0  0  0  0  0  0  0
   -2.1104   -0.7437    1.5040 H   0  0  0  0  0  0  0  0  0  0  0  0
   -3.1662    0.7192    1.0942 H   0  0  0  0  0  0  0  0  0  0  0  0
   -3.4814   -0.8717    0.3324 H   0  0  0  0  0  0  0  0  0  0  0  0
   -1.5991   -0.8056   -0.9946 H   0  0  0  0  0  0  0  0  0  0  0  0
   -2.3571    0.7872   -1.1362 H   0  0  0  0  0  0  0  0  0  0  0  0
   -0.5289    1.3232    0.9041 H   0  0  0  0  0  0  0  0  0  0  0  0
    0.1974    1.0631   -2.0881 H   0  0  0  0  0  0  0  0  0  0  0  0
    1.1468    2.0368   -0.8553 H   0  0  0  0  0  0  0  0  0  0  0  0
    0.0975   -1.1622   -2.0528 H   0  0  0  0  0  0  0  0  0  0  0  0
    1.5483   -1.8445   -1.2387 H   0  0  0  0  0  0  0  0  0  0  0  0
   -0.1132   -2.1111   -0.5012 H   0  0  0  0  0  0  0  0  0  0  0  0
    1.3777   -0.8958    1.6579 H   0  0  0  0  0  0  0  0  0  0  0  0
    2.5877   -0.9525    0.3529 H   0  0  0  0  0  0  0  0  0  0  0  0
    2.1355    1.8669    0.9056 H   0  0  0  0  0  0  0  0  0  0  0  0
  1  2  1  0
  2  3  1  0
  3  4  1  0
  4  5  1  0
  5  6  1  0
  5  7  1  0
  7  8  1  0
  8  9  2  0
  5  3  1  0
  1 10  1  0
  1 11  1  0
  1 12  1  0
  2 13  1  0
  2 14  1  0
  3 15  1  0
  4 16  1  0
  4 17  1  0
  6 18  1  0
  6 19  1  0
  6 20  1  0
  7 21  1  0
  7 22  1  0
  8 23  1  0
M  END
