
     RDKit          3D

 20 21  0  0  0  0  0  0  0  0999 V2000
   -2.7060    0.0847    0.4145 C   0  0  0  0  0  0  0  0  0  0  0  0
   -1.7048    0.6132   -0.6023 C   0  0  0  0  0  0  0  0  0  0  0  0
   -0.4491   -0.1524   -0.4293 C   0  0  0  0  0  0  0  0  0  0  0  0
    0.2403   -0.1035    0.8837 C   0  0  0  0  0  0  0  0  0  0  0  0
    0.6242    1.1879    0.5759 O   0  0  0  0  0  0  0  0  0  0  0  0
    0.8503    0.5456   -0.6307 C   0  0  0  0  0  0  0  0  0  0  0  0
    1.4688   -0.5670    0.1594 C   0  0  0  0  0  0  0  0  0  0  0  0
    2.7821   -0.3005    0.8041 C   0  0  0  0  0  0  0  0  0  0  0  0
   -2.8919   -0.9816    0.1193 H   0  0  0  0  0  0  0  0  0  0  0  0
   -2.2022    0.0834    1.3933 H   0  0  0  0  0  0  0  0  0  0  0  0
   -3.6535    0.6296    0.3972 H   0  0  0  0  0  0  0  0  0  0  0  0
   -1.6089    1.7007   -0.5078 H   0  0  0  0  0  0  0  0  0  0  0  0
   -2.1364    0.3283   -1.6068 H   0  0  0  0  0  0  0  0  0  0  0  0
   -0.4513   -1.1534   -0.9050 H   0  0  0  0  0  0  0  0  0  0  0  0
   -0.0918   -0.4414    1.7739 H   0  0  0  0  0  0  0  0  0  0  0  0
    1.2083    0.9571   -1.4793 H   0  0  0  0  0  0  0  0  0  0  0  0
    1.3744   -1.5505   -0.3101 H   0  0  0  0  0  0  0  0  0  0  0  0
    2.9402   -1.1002    1.5823 H   0  0  0  0  0  0  0  0  0  0  0  0
    2.8261    0.6766    1.2850 H   0  0  0  0  0  0  0  0  0  0  0  0
    3.5813   -0.4566    0.0326 H   0  0  0  0  0  0  0  0  0  0  0  0
  1  2  1  0
  2  3  1  0
  3  4  1  0
  4  5  1  0
  5  6  1  0
  6  7  1  0
  7  8  1  0
  6  3  1  0
  7  4  1  0
  1  9  1  0
  1 10  1  0
  1 11  1  0
  2 12  1  0
  2 13  1  0
  3 14  1  0
  4 15  1  0
  6 16  1  0
  7 17  1  0
  8 18  1  0
  8 19  1  0
  8 20  1  0
M  END
