
     RDKit          3D

 19 20  0  0  0  0  0  0  0  0999 V2000
    2.4571   -0.1122   -0.3494 C   0  0  0  0  0  0  0  0  0  0  0  0
    1.4753    0.7747    0.3841 C   0  0  0  0  0  0  0  0  0  0  0  0
    0.1562    0.4022    0.2441 C   0  0  0  0  0  0  0  0  0  0  0  0
   -0.4495   -0.9092    0.6489 C   0  0  0  0  0  0  0  0  0  0  0  0
   -1.5547   -0.0236    0.1839 C   0  0  0  0  0  0  0  0  0  0  0  0
   -2.8897   -0.2760    0.1483 C   0  0  0  0  0  0  0  0  0  0  0  0
   -3.7294    0.4143    0.7532 O   0  0  0  0  0  0  0  0  0  0  0  0
   -0.6668    0.3375   -0.9812 C   0  0  0  0  0  0  0  0  0  0  0  0
   -0.9360    0.9986    0.8692 O   0  0  0  0  0  0  0  0  0  0  0  0
    3.4745    0.2307   -0.0721 H   0  0  0  0  0  0  0  0  0  0  0  0
    2.2565   -1.1496   -0.0171 H   0  0  0  0  0  0  0  0  0  0  0  0
    2.2516    0.0034   -1.4436 H   0  0  0  0  0  0  0  0  0  0  0  0
    1.6906    1.8126    0.0535 H   0  0  0  0  0  0  0  0  0  0  0  0
    1.8140    0.7562    1.4634 H   0  0  0  0  0  0  0  0  0  0  0  0
   -0.2743   -1.7377   -0.0729 H   0  0  0  0  0  0  0  0  0  0  0  0
   -0.4033   -1.1653    1.7056 H   0  0  0  0  0  0  0  0  0  0  0  0
   -3.3337   -1.0978   -0.4088 H   0  0  0  0  0  0  0  0  0  0  0  0
   -0.3915   -0.5205   -1.6215 H   0  0  0  0  0  0  0  0  0  0  0  0
   -0.9471    1.2618   -1.4876 H   0  0  0  0  0  0  0  0  0  0  0  0
  1  2  1  0
  2  3  1  0
  3  4  1  0
  4  5  1  0
  5  6  1  0
  6  7  2  0
  5  8  1  0
  5  9  1  0
  8  3  1  0
  9  3  1  0
  1 10  1  0
  1 11  1  0
  1 12  1  0
  2 13  1  0
  2 14  1  0
  4 15  1  0
  4 16  1  0
  6 17  1  0
  8 18  1  0
  8 19  1  0
M  END
