
     RDKit          3D

 21 22  0  0  0  0  0  0  0  0999 V2000
    2.4490   -0.2247    0.1966 C   0  0  0  0  0  0  0  0  0  0  0  0
    1.3624   -0.7300   -0.7134 C   0  0  0  0  0  0  0  0  0  0  0  0
    0.1967    0.2400   -0.6340 C   0  0  0  0  0  0  0  0  0  0  0  0
   -0.8181   -0.1756   -1.4445 O   0  0  0  0  0  0  0  0  0  0  0  0
   -1.8210   -0.7243   -0.6981 C   0  0  0  0  0  0  0  0  0  0  0  0
   -1.6383   -0.3547    0.7322 C   0  0  0  0  0  0  0  0  0  0  0  0
   -2.2127    0.8708    1.0142 O   0  0  0  0  0  0  0  0  0  0  0  0
   -0.9974    1.5304    1.2094 C   0  0  0  0  0  0  0  0  0  0  0  0
   -0.2796    0.2863    0.7769 C   0  0  0  0  0  0  0  0  0  0  0  0
    2.4890    0.8980    0.1298 H   0  0  0  0  0  0  0  0  0  0  0  0
    2.3593   -0.5737    1.2355 H   0  0  0  0  0  0  0  0  0  0  0  0
    3.4200   -0.5690   -0.2219 H   0  0  0  0  0  0  0  0  0  0  0  0
    1.7334   -0.7569   -1.7673 H   0  0  0  0  0  0  0  0  0  0  0  0
    1.0716   -1.7457   -0.4384 H   0  0  0  0  0  0  0  0  0  0  0  0
    0.5223    1.2513   -0.9368 H   0  0  0  0  0  0  0  0  0  0  0  0
   -2.7937   -0.3105   -1.0917 H   0  0  0  0  0  0  0  0  0  0  0  0
   -1.9167   -1.8202   -0.7828 H   0  0  0  0  0  0  0  0  0  0  0  0
   -1.8212   -1.1559    1.4658 H   0  0  0  0  0  0  0  0  0  0  0  0
   -0.8898    1.7792    2.2847 H   0  0  0  0  0  0  0  0  0  0  0  0
   -0.8209    2.3644    0.5151 H   0  0  0  0  0  0  0  0  0  0  0  0
    0.4056   -0.0793    1.5565 H   0  0  0  0  0  0  0  0  0  0  0  0
  1  2  1  0
  2  3  1  0
  3  4  1  0
  4  5  1  0
  5  6  1  0
  6  7  1  0
  7  8  1  0
  8  9  1  0
  9  3  1  0
  9  6  1  0
  1 10  1  0
  1 11  1  0
  1 12  1  0
  2 13  1  0
  2 14  1  0
  3 15  1  0
  5 16  1  0
  5 17  1  0
  6 18  1  0
  8 19  1  0
  8 20  1  0
  9 21  1  0
M  END
