
     RDKit          3D

 18 19  0  0  0  0  0  0  0  0999 V2000
   -2.0998   -0.0656   -0.3506 C   0  0  0  0  0  0  0  0  0  0  0  0
   -1.0990    0.0533    0.8073 C   0  0  0  0  0  0  0  0  0  0  0  0
    0.1976    0.0247    0.3683 C   0  0  0  0  0  0  0  0  0  0  0  0
    0.8434    0.9958   -0.5892 C   0  0  0  0  0  0  0  0  0  0  0  0
    1.9245    0.0044   -0.2541 C   0  0  0  0  0  0  0  0  0  0  0  0
    0.8571   -1.0370   -0.4636 C   0  0  0  0  0  0  0  0  0  0  0  0
    1.4412    0.0791    1.1109 C   0  0  0  0  0  0  0  0  0  0  0  0
    1.8306    0.1474    2.2295 O   0  0  0  0  0  0  0  0  0  0  0  0
   -1.6542   -0.7270   -1.1281 H   0  0  0  0  0  0  0  0  0  0  0  0
   -3.0451   -0.5179    0.0136 H   0  0  0  0  0  0  0  0  0  0  0  0
   -2.3053    0.9093   -0.8087 H   0  0  0  0  0  0  0  0  0  0  0  0
   -1.3644   -0.7385    1.5114 H   0  0  0  0  0  0  0  0  0  0  0  0
   -1.3715    1.0178    1.3059 H   0  0  0  0  0  0  0  0  0  0  0  0
    0.4588    0.9735   -1.6202 H   0  0  0  0  0  0  0  0  0  0  0  0
    1.0222    1.9750   -0.1375 H   0  0  0  0  0  0  0  0  0  0  0  0
    2.8588   -0.0136   -0.6106 H   0  0  0  0  0  0  0  0  0  0  0  0
    1.0647   -1.9609    0.0862 H   0  0  0  0  0  0  0  0  0  0  0  0
    0.4404   -1.1197   -1.4704 H   0  0  0  0  0  0  0  0  0  0  0  0
  1  2  1  0
  2  3  1  0
  3  4  1  0
  4  5  1  0
  5  6  1  0
  5  7  1  0
  7  8  2  0
  6  3  1  0
  7  3  1  0
  1  9  1  0
  1 10  1  0
  1 11  1  0
  2 12  1  0
  2 13  1  0
  4 14  1  0
  4 15  1  0
  5 16  1  0
  6 17  1  0
  6 18  1  0
M  END
