
     RDKit          3D

 23 24  0  0  0  0  0  0  0  0999 V2000
   -2.1101    0.4213   -1.3133 C   0  0  0  0  0  0  0  0  0  0  0  0
   -1.8914   -0.3742   -0.0464 C   0  0  0  0  0  0  0  0  0  0  0  0
   -0.4485   -0.4207    0.3527 C   0  0  0  0  0  0  0  0  0  0  0  0
   -0.2527   -1.1568    1.5244 O   0  0  0  0  0  0  0  0  0  0  0  0
    0.1662    0.9360    0.5079 C   0  0  0  0  0  0  0  0  0  0  0  0
    1.6464    0.6331    0.5990 C   0  0  0  0  0  0  0  0  0  0  0  0
    2.4256    0.5580   -0.6910 C   0  0  0  0  0  0  0  0  0  0  0  0
    1.8244   -0.6498   -0.1274 C   0  0  0  0  0  0  0  0  0  0  0  0
    0.4572   -1.0455   -0.6879 C   0  0  0  0  0  0  0  0  0  0  0  0
   -3.1958    0.4347   -1.5481 H   0  0  0  0  0  0  0  0  0  0  0  0
   -1.6177   -0.0612   -2.1556 H   0  0  0  0  0  0  0  0  0  0  0  0
   -1.8422    1.5044   -1.1890 H   0  0  0  0  0  0  0  0  0  0  0  0
   -2.4325    0.1090    0.8091 H   0  0  0  0  0  0  0  0  0  0  0  0
   -2.3128   -1.3820   -0.2363 H   0  0  0  0  0  0  0  0  0  0  0  0
   -0.9389   -0.9780    2.2067 H   0  0  0  0  0  0  0  0  0  0  0  0
    0.0096    1.5853   -0.3567 H   0  0  0  0  0  0  0  0  0  0  0  0
   -0.1723    1.4728    1.4202 H   0  0  0  0  0  0  0  0  0  0  0  0
    2.2171    0.9025    1.4865 H   0  0  0  0  0  0  0  0  0  0  0  0
    3.5277    0.6475   -0.6209 H   0  0  0  0  0  0  0  0  0  0  0  0
    1.9241    1.0565   -1.5350 H   0  0  0  0  0  0  0  0  0  0  0  0
    2.3926   -1.4623    0.3537 H   0  0  0  0  0  0  0  0  0  0  0  0
    0.3415   -2.1418   -0.7401 H   0  0  0  0  0  0  0  0  0  0  0  0
    0.2826   -0.5889   -1.6685 H   0  0  0  0  0  0  0  0  0  0  0  0
  1  2  1  0
  2  3  1  0
  3  4  1  0
  3  5  1  0
  5  6  1  0
  6  7  1  0
  7  8  1  0
  8  9  1  0
  9  3  1  0
  8  6  1  0
  1 10  1  0
  1 11  1  0
  1 12  1  0
  2 13  1  0
  2 14  1  0
  4 15  1  0
  5 16  1  0
  5 17  1  0
  6 18  1  0
  7 19  1  0
  7 20  1  0
  8 21  1  0
  9 22  1  0
  9 23  1  0
M  END
