
     RDKit          3D

 17 18  0  0  0  0  0  0  0  0999 V2000
    1.9799    0.4854   -0.9926 C   0  0  0  0  0  0  0  0  0  0  0  0
    1.4355   -0.0512    0.3202 C   0  0  0  0  0  0  0  0  0  0  0  0
    0.0768   -0.6624    0.1762 C   0  0  0  0  0  0  0  0  0  0  0  0
   -0.1543   -1.7252   -0.6486 O   0  0  0  0  0  0  0  0  0  0  0  0
   -0.8565   -0.5404   -0.8082 C   0  0  0  0  0  0  0  0  0  0  0  0
   -1.9133   -0.1626    0.2075 C   0  0  0  0  0  0  0  0  0  0  0  0
   -2.0976    1.2373    0.1709 O   0  0  0  0  0  0  0  0  0  0  0  0
   -0.9199   -0.4818    1.2654 C   0  0  0  0  0  0  0  0  0  0  0  0
   -0.8564   -0.5759    2.4677 O   0  0  0  0  0  0  0  0  0  0  0  0
    1.1783    0.7732   -1.6888 H   0  0  0  0  0  0  0  0  0  0  0  0
    2.6531    1.3473   -0.7894 H   0  0  0  0  0  0  0  0  0  0  0  0
    2.5797   -0.3367   -1.4506 H   0  0  0  0  0  0  0  0  0  0  0  0
    1.3262    0.8233    1.0182 H   0  0  0  0  0  0  0  0  0  0  0  0
    2.1619   -0.7324    0.8060 H   0  0  0  0  0  0  0  0  0  0  0  0
   -0.8812   -0.1407   -1.8208 H   0  0  0  0  0  0  0  0  0  0  0  0
   -2.8293   -0.7509    0.2001 H   0  0  0  0  0  0  0  0  0  0  0  0
   -2.8829    1.4937   -0.3554 H   0  0  0  0  0  0  0  0  0  0  0  0
  1  2  1  0
  2  3  1  0
  3  4  1  0
  4  5  1  0
  5  6  1  0
  6  7  1  0
  6  8  1  0
  8  9  2  0
  5  3  1  0
  8  3  1  0
  1 10  1  0
  1 11  1  0
  1 12  1  0
  2 13  1  0
  2 14  1  0
  5 15  1  0
  6 16  1  0
  7 17  1  0
M  END
