
     RDKit          3D

 21 22  0  0  0  0  0  0  0  0999 V2000
   -2.8117    0.3855    0.3645 C   0  0  0  0  0  0  0  0  0  0  0  0
   -1.6982   -0.4991   -0.1100 C   0  0  0  0  0  0  0  0  0  0  0  0
   -0.4175   -0.2638    0.6925 C   0  0  0  0  0  0  0  0  0  0  0  0
    0.6992   -1.0630    0.3114 C   0  0  0  0  0  0  0  0  0  0  0  0
    1.7794   -0.8026   -0.7036 C   0  0  0  0  0  0  0  0  0  0  0  0
    2.1731    0.2443    0.3589 C   0  0  0  0  0  0  0  0  0  0  0  0
    2.9534    1.2693   -0.1133 O   0  0  0  0  0  0  0  0  0  0  0  0
    0.6726    0.5207    0.2328 C   0  0  0  0  0  0  0  0  0  0  0  0
    0.4796    1.0776   -1.0295 O   0  0  0  0  0  0  0  0  0  0  0  0
   -2.6121    1.4395    0.0960 H   0  0  0  0  0  0  0  0  0  0  0  0
   -2.9524    0.3630    1.4632 H   0  0  0  0  0  0  0  0  0  0  0  0
   -3.7419    0.0432   -0.1346 H   0  0  0  0  0  0  0  0  0  0  0  0
   -1.9924   -1.5680    0.0425 H   0  0  0  0  0  0  0  0  0  0  0  0
   -1.5611   -0.3646   -1.1773 H   0  0  0  0  0  0  0  0  0  0  0  0
   -0.7284   -0.0659    1.7641 H   0  0  0  0  0  0  0  0  0  0  0  0
    1.2401   -1.4546    1.2351 H   0  0  0  0  0  0  0  0  0  0  0  0
    2.4847   -1.6297   -0.8077 H   0  0  0  0  0  0  0  0  0  0  0  0
    1.5045   -0.4051   -1.6655 H   0  0  0  0  0  0  0  0  0  0  0  0
    2.4811   -0.2340    1.2905 H   0  0  0  0  0  0  0  0  0  0  0  0
    2.4953    1.6625   -0.9028 H   0  0  0  0  0  0  0  0  0  0  0  0
   -0.4471    1.3447   -1.2071 H   0  0  0  0  0  0  0  0  0  0  0  0
  1  2  1  0
  2  3  1  0
  3  4  1  0
  4  5  1  0
  5  6  1  0
  6  7  1  0
  6  8  1  0
  8  9  1  0
  8  3  1  0
  8  4  1  0
  1 10  1  0
  1 11  1  0
  1 12  1  0
  2 13  1  0
  2 14  1  0
  3 15  1  0
  4 16  1  0
  5 17  1  0
  5 18  1  0
  6 19  1  0
  7 20  1  0
  9 21  1  0
M  END
