
     RDKit          3D

 20 20  0  0  0  0  0  0  0  0999 V2000
   -2.4283   -0.4231    0.7006 C   0  0  0  0  0  0  0  0  0  0  0  0
   -1.6588   -0.4554   -0.5767 C   0  0  0  0  0  0  0  0  0  0  0  0
   -0.4232    0.3934   -0.4800 C   0  0  0  0  0  0  0  0  0  0  0  0
   -0.6810    1.7366   -0.2092 O   0  0  0  0  0  0  0  0  0  0  0  0
    0.5881    0.0619   -1.5650 C   0  0  0  0  0  0  0  0  0  0  0  0
    0.8889   -0.1296   -0.1308 C   0  0  0  0  0  0  0  0  0  0  0  0
    1.8339    0.7354    0.3993 O   0  0  0  0  0  0  0  0  0  0  0  0
    2.6578    0.0804    1.3123 C   0  0  0  0  0  0  0  0  0  0  0  0
   -1.8266   -0.9724    1.4640 H   0  0  0  0  0  0  0  0  0  0  0  0
   -3.4194   -0.9170    0.5530 H   0  0  0  0  0  0  0  0  0  0  0  0
   -2.5530    0.6190    1.0828 H   0  0  0  0  0  0  0  0  0  0  0  0
   -2.2952   -0.1029   -1.4406 H   0  0  0  0  0  0  0  0  0  0  0  0
   -1.3280   -1.5129   -0.7606 H   0  0  0  0  0  0  0  0  0  0  0  0
   -0.3929    2.2479   -1.0165 H   0  0  0  0  0  0  0  0  0  0  0  0
    0.9269    0.9451   -2.1262 H   0  0  0  0  0  0  0  0  0  0  0  0
    0.4738   -0.8395   -2.1687 H   0  0  0  0  0  0  0  0  0  0  0  0
    0.9483   -1.1657    0.2513 H   0  0  0  0  0  0  0  0  0  0  0  0
    3.3954    0.7965    1.7130 H   0  0  0  0  0  0  0  0  0  0  0  0
    2.0903   -0.3311    2.1704 H   0  0  0  0  0  0  0  0  0  0  0  0
    3.2032   -0.7665    0.8276 H   0  0  0  0  0  0  0  0  0  0  0  0
  1  2  1  0
  2  3  1  0
  3  4  1  0
  3  5  1  0
  5  6  1  0
  6  7  1  0
  7  8  1  0
  6  3  1  0
  1  9  1  0
  1 10  1  0
  1 11  1  0
  2 12  1  0
  2 13  1  0
  4 14  1  0
  5 15  1  0
  5 16  1  0
  6 17  1  0
  8 18  1  0
  8 19  1  0
  8 20  1  0
M  END
