
     RDKit          3D

 20 21  0  0  0  0  0  0  0  0999 V2000
    2.7045    0.6232    0.1719 C   0  0  0  0  0  0  0  0  0  0  0  0
    1.7747   -0.5121   -0.1923 C   0  0  0  0  0  0  0  0  0  0  0  0
    0.4320   -0.0081   -0.5730 C   0  0  0  0  0  0  0  0  0  0  0  0
   -0.6614   -0.9755   -0.9764 C   0  0  0  0  0  0  0  0  0  0  0  0
   -1.6450    0.1517   -0.6325 C   0  0  0  0  0  0  0  0  0  0  0  0
   -2.6598   -0.2172    0.4042 C   0  0  0  0  0  0  0  0  0  0  0  0
   -0.4269    0.8898   -0.0770 C   0  0  0  0  0  0  0  0  0  0  0  0
    0.4280    1.2567   -1.2173 O   0  0  0  0  0  0  0  0  0  0  0  0
    2.4181    1.0960    1.1433 H   0  0  0  0  0  0  0  0  0  0  0  0
    2.6405    1.3970   -0.6450 H   0  0  0  0  0  0  0  0  0  0  0  0
    3.7708    0.2897    0.1866 H   0  0  0  0  0  0  0  0  0  0  0  0
    1.7891   -1.2348    0.6339 H   0  0  0  0  0  0  0  0  0  0  0  0
    2.2372   -1.0035   -1.0967 H   0  0  0  0  0  0  0  0  0  0  0  0
   -0.6942   -1.8136   -0.2517 H   0  0  0  0  0  0  0  0  0  0  0  0
   -0.6693   -1.2630   -2.0449 H   0  0  0  0  0  0  0  0  0  0  0  0
   -2.0990    0.6106   -1.5110 H   0  0  0  0  0  0  0  0  0  0  0  0
   -3.3996   -0.8932   -0.0851 H   0  0  0  0  0  0  0  0  0  0  0  0
   -2.2077   -0.7136    1.2871 H   0  0  0  0  0  0  0  0  0  0  0  0
   -3.2071    0.6938    0.6841 H   0  0  0  0  0  0  0  0  0  0  0  0
   -0.5247    1.6259    0.6983 H   0  0  0  0  0  0  0  0  0  0  0  0
  1  2  1  0
  2  3  1  0
  3  4  1  0
  4  5  1  0
  5  6  1  0
  5  7  1  0
  7  8  1  0
  7  3  1  0
  8  3  1  0
  1  9  1  0
  1 10  1  0
  1 11  1  0
  2 12  1  0
  2 13  1  0
  4 14  1  0
  4 15  1  0
  5 16  1  0
  6 17  1  0
  6 18  1  0
  6 19  1  0
  7 20  1  0
M  END
