
     RDKit          3D

 19 19  0  0  0  0  0  0  0  0999 V2000
   -1.9973   -0.6744   -0.7134 C   0  0  0  0  0  0  0  0  0  0  0  0
   -1.5359    0.1717    0.4367 C   0  0  0  0  0  0  0  0  0  0  0  0
   -0.0510    0.4562    0.2717 C   0  0  0  0  0  0  0  0  0  0  0  0
    0.7949   -0.7876    0.2453 C   0  0  0  0  0  0  0  0  0  0  0  0
    2.2530   -0.4878    0.0824 C   0  0  0  0  0  0  0  0  0  0  0  0
    0.3124    1.5960   -0.5321 C   0  0  0  0  0  0  0  0  0  0  0  0
    0.3794    1.5645    0.9633 O   0  0  0  0  0  0  0  0  0  0  0  0
   -1.7556   -1.7211   -0.4872 H   0  0  0  0  0  0  0  0  0  0  0  0
   -3.0942   -0.5272   -0.9115 H   0  0  0  0  0  0  0  0  0  0  0  0
   -1.4501   -0.3034   -1.6192 H   0  0  0  0  0  0  0  0  0  0  0  0
   -1.6359   -0.3825    1.3926 H   0  0  0  0  0  0  0  0  0  0  0  0
   -2.1349    1.0817    0.4758 H   0  0  0  0  0  0  0  0  0  0  0  0
    0.6879   -1.3936    1.1907 H   0  0  0  0  0  0  0  0  0  0  0  0
    0.4923   -1.4499   -0.5900 H   0  0  0  0  0  0  0  0  0  0  0  0
    2.6925    0.0040    0.9866 H   0  0  0  0  0  0  0  0  0  0  0  0
    2.4352    0.1548   -0.7979 H   0  0  0  0  0  0  0  0  0  0  0  0
    2.7747   -1.4817   -0.0279 H   0  0  0  0  0  0  0  0  0  0  0  0
   -0.4748    2.3285   -0.8017 H   0  0  0  0  0  0  0  0  0  0  0  0
    1.3074    1.8520   -0.8889 H   0  0  0  0  0  0  0  0  0  0  0  0
  1  2  1  0
  2  3  1  0
  3  4  1  0
  4  5  1  0
  3  6  1  0
  6  7  1  0
  7  3  1  0
  1  8  1  0
  1  9  1  0
  1 10  1  0
  2 11  1  0
  2 12  1  0
  4 13  1  0
  4 14  1  0
  5 15  1  0
  5 16  1  0
  5 17  1  0
  6 18  1  0
  6 19  1  0
M  END
