
     RDKit          3D

 25 26  0  0  0  0  0  0  0  0999 V2000
    1.8565   -0.1848    1.4880 C   0  0  0  0  0  0  0  0  0  0  0  0
    1.3749   -0.4108    0.0875 C   0  0  0  0  0  0  0  0  0  0  0  0
   -0.1108   -0.1090   -0.0627 C   0  0  0  0  0  0  0  0  0  0  0  0
   -0.3466    1.3551    0.2953 C   0  0  0  0  0  0  0  0  0  0  0  0
    0.4207    2.2848   -0.6092 C   0  0  0  0  0  0  0  0  0  0  0  0
   -0.7860   -0.6380   -1.2600 C   0  0  0  0  0  0  0  0  0  0  0  0
   -0.7069   -2.0067   -0.6269 C   0  0  0  0  0  0  0  0  0  0  0  0
   -1.0612   -1.0847    0.5066 C   0  0  0  0  0  0  0  0  0  0  0  0
   -2.0797   -0.5543   -0.4786 C   0  0  0  0  0  0  0  0  0  0  0  0
    1.0166   -0.2860    2.2334 H   0  0  0  0  0  0  0  0  0  0  0  0
    2.6930   -0.8975    1.7404 H   0  0  0  0  0  0  0  0  0  0  0  0
    2.2886    0.8287    1.6500 H   0  0  0  0  0  0  0  0  0  0  0  0
    1.6012   -1.3767   -0.3551 H   0  0  0  0  0  0  0  0  0  0  0  0
    1.9592    0.3326   -0.5460 H   0  0  0  0  0  0  0  0  0  0  0  0
    0.2037    1.4589    1.2921 H   0  0  0  0  0  0  0  0  0  0  0  0
   -1.3847    1.5859    0.3938 H   0  0  0  0  0  0  0  0  0  0  0  0
    0.0215    3.3132   -0.3841 H   0  0  0  0  0  0  0  0  0  0  0  0
    1.4768    2.3011   -0.3504 H   0  0  0  0  0  0  0  0  0  0  0  0
    0.2122    2.1257   -1.6828 H   0  0  0  0  0  0  0  0  0  0  0  0
   -0.6698   -0.4202   -2.2268 H   0  0  0  0  0  0  0  0  0  0  0  0
   -1.6040   -2.6583   -0.8623 H   0  0  0  0  0  0  0  0  0  0  0  0
    0.1900   -2.5639   -0.6448 H   0  0  0  0  0  0  0  0  0  0  0  0
   -1.2378   -1.3303    1.4594 H   0  0  0  0  0  0  0  0  0  0  0  0
   -2.7617   -1.4380   -0.7219 H   0  0  0  0  0  0  0  0  0  0  0  0
   -2.5657    0.3732   -0.3351 H   0  0  0  0  0  0  0  0  0  0  0  0
  1  2  1  0
  2  3  1  0
  3  4  1  0
  4  5  1  0
  3  6  1  0
  6  7  1  0
  7  8  1  0
  8  9  1  0
  8  3  1  0
  9  6  1  0
  1 10  1  0
  1 11  1  0
  1 12  1  0
  2 13  1  0
  2 14  1  0
  4 15  1  0
  4 16  1  0
  5 17  1  0
  5 18  1  0
  5 19  1  0
  6 20  1  0
  7 21  1  0
  7 22  1  0
  8 23  1  0
  9 24  1  0
  9 25  1  0
M  END
