
     RDKit          3D

 23 23  0  0  0  0  0  0  0  0999 V2000
    3.0479    0.0145   -0.6399 C   0  0  0  0  0  0  0  0  0  0  0  0
    2.0043    0.3175    0.4246 C   0  0  0  0  0  0  0  0  0  0  0  0
    0.6458   -0.0939   -0.0371 C   0  0  0  0  0  0  0  0  0  0  0  0
   -0.2767    0.8439   -0.1201 C   0  0  0  0  0  0  0  0  0  0  0  0
   -1.6357    0.4177   -0.5847 C   0  0  0  0  0  0  0  0  0  0  0  0
   -2.6575    1.2808    0.0815 C   0  0  0  0  0  0  0  0  0  0  0  0
   -1.8177   -1.0207   -0.2191 C   0  0  0  0  0  0  0  0  0  0  0  0
   -0.8375   -1.8331   -0.7427 O   0  0  0  0  0  0  0  0  0  0  0  0
    0.4380   -1.5177   -0.3654 C   0  0  0  0  0  0  0  0  0  0  0  0
    4.0347    0.2268   -0.1808 H   0  0  0  0  0  0  0  0  0  0  0  0
    3.0411   -1.0254   -0.9668 H   0  0  0  0  0  0  0  0  0  0  0  0
    2.9275    0.7042   -1.5023 H   0  0  0  0  0  0  0  0  0  0  0  0
    2.0732    1.3882    0.6571 H   0  0  0  0  0  0  0  0  0  0  0  0
    2.3073   -0.2595    1.3231 H   0  0  0  0  0  0  0  0  0  0  0  0
   -0.0760    1.8705    0.1311 H   0  0  0  0  0  0  0  0  0  0  0  0
   -1.6428    0.5550   -1.6944 H   0  0  0  0  0  0  0  0  0  0  0  0
   -2.7520    2.2725   -0.4496 H   0  0  0  0  0  0  0  0  0  0  0  0
   -3.6489    0.7743    0.1544 H   0  0  0  0  0  0  0  0  0  0  0  0
   -2.3237    1.4628    1.1209 H   0  0  0  0  0  0  0  0  0  0  0  0
   -2.7886   -1.3525   -0.6898 H   0  0  0  0  0  0  0  0  0  0  0  0
   -1.9642   -1.1098    0.8626 H   0  0  0  0  0  0  0  0  0  0  0  0
    0.7841   -2.1423    0.4908 H   0  0  0  0  0  0  0  0  0  0  0  0
    1.1173   -1.7740   -1.2101 H   0  0  0  0  0  0  0  0  0  0  0  0
  1  2  1  0
  2  3  1  0
  3  4  2  0
  4  5  1  0
  5  6  1  0
  5  7  1  0
  7  8  1  0
  8  9  1  0
  9  3  1  0
  1 10  1  0
  1 11  1  0
  1 12  1  0
  2 13  1  0
  2 14  1  0
  4 15  1  0
  5 16  1  0
  6 17  1  0
  6 18  1  0
  6 19  1  0
  7 20  1  0
  7 21  1  0
  9 22  1  0
  9 23  1  0
M  END
