
     RDKit          3D

 25 25  0  0  0  0  0  0  0  0999 V2000
    2.9745   -0.2821    0.4128 C   0  0  0  0  0  0  0  0  0  0  0  0
    1.8245    0.1872   -0.4304 C   0  0  0  0  0  0  0  0  0  0  0  0
    0.5277    0.2699    0.3334 C   0  0  0  0  0  0  0  0  0  0  0  0
   -0.6381    0.7450   -0.5186 C   0  0  0  0  0  0  0  0  0  0  0  0
   -1.4134    1.8934    0.0839 C   0  0  0  0  0  0  0  0  0  0  0  0
   -2.4619    2.3049   -0.7043 O   0  0  0  0  0  0  0  0  0  0  0  0
   -0.6140   -0.5899    0.0731 C   0  0  0  0  0  0  0  0  0  0  0  0
   -1.5317   -0.8790    1.2506 C   0  0  0  0  0  0  0  0  0  0  0  0
   -0.5263   -1.7685   -0.8911 C   0  0  0  0  0  0  0  0  0  0  0  0
    2.7500   -1.1449    1.0486 H   0  0  0  0  0  0  0  0  0  0  0  0
    3.3693    0.5254    1.0629 H   0  0  0  0  0  0  0  0  0  0  0  0
    3.7967   -0.5668   -0.3052 H   0  0  0  0  0  0  0  0  0  0  0  0
    1.7346   -0.3725   -1.3834 H   0  0  0  0  0  0  0  0  0  0  0  0
    2.0699    1.2450   -0.7416 H   0  0  0  0  0  0  0  0  0  0  0  0
    0.6444    0.6987    1.3480 H   0  0  0  0  0  0  0  0  0  0  0  0
   -0.5073    0.8222   -1.6129 H   0  0  0  0  0  0  0  0  0  0  0  0
   -1.7867    1.6738    1.0889 H   0  0  0  0  0  0  0  0  0  0  0  0
   -0.7133    2.7725    0.1889 H   0  0  0  0  0  0  0  0  0  0  0  0
   -2.6434    1.6860   -1.4527 H   0  0  0  0  0  0  0  0  0  0  0  0
   -2.5545   -0.9974    0.8386 H   0  0  0  0  0  0  0  0  0  0  0  0
   -1.1971   -1.8605    1.6803 H   0  0  0  0  0  0  0  0  0  0  0  0
   -1.4999   -0.1159    2.0249 H   0  0  0  0  0  0  0  0  0  0  0  0
   -0.3883   -1.4322   -1.9298 H   0  0  0  0  0  0  0  0  0  0  0  0
   -1.4822   -2.3399   -0.8618 H   0  0  0  0  0  0  0  0  0  0  0  0
    0.2668   -2.4743   -0.6031 H   0  0  0  0  0  0  0  0  0  0  0  0
  1  2  1  0
  2  3  1  0
  3  4  1  0
  4  5  1  0
  5  6  1  0
  4  7  1  0
  7  8  1  0
  7  9  1  0
  7  3  1  0
  1 10  1  0
  1 11  1  0
  1 12  1  0
  2 13  1  0
  2 14  1  0
  3 15  1  0
  4 16  1  0
  5 17  1  0
  5 18  1  0
  6 19  1  0
  8 20  1  0
  8 21  1  0
  8 22  1  0
  9 23  1  0
  9 24  1  0
  9 25  1  0
M  END
