
     RDKit          3D

 21 21  0  0  0  0  0  0  0  0999 V2000
    2.3988   -0.6418    0.4950 C   0  0  0  0  0  0  0  0  0  0  0  0
    1.5717    0.3818   -0.2157 C   0  0  0  0  0  0  0  0  0  0  0  0
    0.1470   -0.0090   -0.4210 C   0  0  0  0  0  0  0  0  0  0  0  0
   -0.0652   -1.1653   -1.1694 O   0  0  0  0  0  0  0  0  0  0  0  0
   -0.7751    1.1546   -0.7649 C   0  0  0  0  0  0  0  0  0  0  0  0
   -1.6874    0.9615   -1.8066 O   0  0  0  0  0  0  0  0  0  0  0  0
   -0.9328    0.3707    0.5052 C   0  0  0  0  0  0  0  0  0  0  0  0
   -2.1755   -0.5007    0.5513 C   0  0  0  0  0  0  0  0  0  0  0  0
   -0.6790    1.0385    1.6911 O   0  0  0  0  0  0  0  0  0  0  0  0
    2.1956   -0.5377    1.5877 H   0  0  0  0  0  0  0  0  0  0  0  0
    2.2531   -1.6691    0.1614 H   0  0  0  0  0  0  0  0  0  0  0  0
    3.4784   -0.3915    0.2833 H   0  0  0  0  0  0  0  0  0  0  0  0
    1.6788    1.3479    0.2978 H   0  0  0  0  0  0  0  0  0  0  0  0
    2.0296    0.5166   -1.2360 H   0  0  0  0  0  0  0  0  0  0  0  0
    0.5194   -1.8908   -0.8920 H   0  0  0  0  0  0  0  0  0  0  0  0
   -0.3723    2.1904   -0.6460 H   0  0  0  0  0  0  0  0  0  0  0  0
   -1.2004    0.4340   -2.4973 H   0  0  0  0  0  0  0  0  0  0  0  0
   -2.0989   -1.2617    1.3556 H   0  0  0  0  0  0  0  0  0  0  0  0
   -2.2300   -1.0424   -0.4313 H   0  0  0  0  0  0  0  0  0  0  0  0
   -3.0603    0.1577    0.6706 H   0  0  0  0  0  0  0  0  0  0  0  0
   -0.9956    0.5563    2.4811 H   0  0  0  0  0  0  0  0  0  0  0  0
  1  2  1  0
  2  3  1  0
  3  4  1  0
  3  5  1  0
  5  6  1  0
  5  7  1  0
  7  8  1  0
  7  9  1  0
  7  3  1  0
  1 10  1  0
  1 11  1  0
  1 12  1  0
  2 13  1  0
  2 14  1  0
  4 15  1  0
  5 16  1  0
  6 17  1  0
  8 18  1  0
  8 19  1  0
  8 20  1  0
  9 21  1  0
M  END
