
     RDKit          3D

 20 21  0  0  0  0  0  0  0  0999 V2000
    2.6238    0.3228    0.6414 C   0  0  0  0  0  0  0  0  0  0  0  0
    1.3323    1.0295    0.2223 C   0  0  0  0  0  0  0  0  0  0  0  0
    0.6183    0.1055   -0.7211 C   0  0  0  0  0  0  0  0  0  0  0  0
    0.2475   -1.2429   -0.1495 C   0  0  0  0  0  0  0  0  0  0  0  0
   -0.8039   -0.2342   -0.5752 C   0  0  0  0  0  0  0  0  0  0  0  0
   -1.6693    0.3015    0.5099 C   0  0  0  0  0  0  0  0  0  0  0  0
   -3.1128   -0.1918    0.4590 C   0  0  0  0  0  0  0  0  0  0  0  0
   -2.2141   -0.5404    1.4665 O   0  0  0  0  0  0  0  0  0  0  0  0
    3.4671    1.0280    0.6408 H   0  0  0  0  0  0  0  0  0  0  0  0
    2.5251   -0.1272    1.6483 H   0  0  0  0  0  0  0  0  0  0  0  0
    2.8722   -0.5055   -0.0655 H   0  0  0  0  0  0  0  0  0  0  0  0
    1.6209    1.9768   -0.3072 H   0  0  0  0  0  0  0  0  0  0  0  0
    0.7689    1.2290    1.1562 H   0  0  0  0  0  0  0  0  0  0  0  0
    1.0768    0.0577   -1.7291 H   0  0  0  0  0  0  0  0  0  0  0  0
    0.4046   -1.3937    0.9267 H   0  0  0  0  0  0  0  0  0  0  0  0
    0.3871   -2.1508   -0.7579 H   0  0  0  0  0  0  0  0  0  0  0  0
   -1.3324   -0.5225   -1.5274 H   0  0  0  0  0  0  0  0  0  0  0  0
   -1.5671    1.3817    0.8057 H   0  0  0  0  0  0  0  0  0  0  0  0
   -3.3385   -1.0630   -0.2149 H   0  0  0  0  0  0  0  0  0  0  0  0
   -3.9064    0.5395    0.6479 H   0  0  0  0  0  0  0  0  0  0  0  0
  1  2  1  0
  2  3  1  0
  3  4  1  0
  4  5  1  0
  5  6  1  0
  6  7  1  0
  7  8  1  0
  5  3  1  0
  8  6  1  0
  1  9  1  0
  1 10  1  0
  1 11  1  0
  2 12  1  0
  2 13  1  0
  3 14  1  0
  4 15  1  0
  4 16  1  0
  5 17  1  0
  6 18  1  0
  7 19  1  0
  7 20  1  0
M  END
