
     RDKit          3D

 25 25  0  0  0  0  0  0  0  0999 V2000
    2.1899    1.0743   -1.0185 C   0  0  0  0  0  0  0  0  0  0  0  0
    2.0957   -0.0983   -0.1013 C   0  0  0  0  0  0  0  0  0  0  0  0
    0.6756   -0.4517    0.2647 C   0  0  0  0  0  0  0  0  0  0  0  0
    0.5943   -1.6375    1.1914 C   0  0  0  0  0  0  0  0  0  0  0  0
   -0.1657    0.7294    0.6626 C   0  0  0  0  0  0  0  0  0  0  0  0
   -1.1986    0.0462   -0.2375 C   0  0  0  0  0  0  0  0  0  0  0  0
   -2.1701   -0.8004    0.5442 C   0  0  0  0  0  0  0  0  0  0  0  0
   -1.8680    1.0432   -1.1535 C   0  0  0  0  0  0  0  0  0  0  0  0
   -0.1523   -0.6574   -0.8415 O   0  0  0  0  0  0  0  0  0  0  0  0
    2.0488    2.0464   -0.4695 H   0  0  0  0  0  0  0  0  0  0  0  0
    3.2484    1.1162   -1.3934 H   0  0  0  0  0  0  0  0  0  0  0  0
    1.5338    1.0021   -1.8991 H   0  0  0  0  0  0  0  0  0  0  0  0
    2.6525    0.1250    0.8246 H   0  0  0  0  0  0  0  0  0  0  0  0
    2.5836   -0.9682   -0.5817 H   0  0  0  0  0  0  0  0  0  0  0  0
    0.4125   -1.2920    2.2378 H   0  0  0  0  0  0  0  0  0  0  0  0
    1.5802   -2.1760    1.1495 H   0  0  0  0  0  0  0  0  0  0  0  0
   -0.1621   -2.3874    0.8605 H   0  0  0  0  0  0  0  0  0  0  0  0
    0.1623    1.6749    0.2157 H   0  0  0  0  0  0  0  0  0  0  0  0
   -0.4438    0.7564    1.7319 H   0  0  0  0  0  0  0  0  0  0  0  0
   -2.3519   -1.7928    0.0784 H   0  0  0  0  0  0  0  0  0  0  0  0
   -1.8693   -0.8778    1.6132 H   0  0  0  0  0  0  0  0  0  0  0  0
   -3.1733   -0.2807    0.5285 H   0  0  0  0  0  0  0  0  0  0  0  0
   -1.7171    0.7350   -2.2067 H   0  0  0  0  0  0  0  0  0  0  0  0
   -2.9812    0.9986   -0.9931 H   0  0  0  0  0  0  0  0  0  0  0  0
   -1.5244    2.0723   -1.0071 H   0  0  0  0  0  0  0  0  0  0  0  0
  1  2  1  0
  2  3  1  0
  3  4  1  0
  3  5  1  0
  5  6  1  0
  6  7  1  0
  6  8  1  0
  6  9  1  0
  9  3  1  0
  1 10  1  0
  1 11  1  0
  1 12  1  0
  2 13  1  0
  2 14  1  0
  4 15  1  0
  4 16  1  0
  4 17  1  0
  5 18  1  0
  5 19  1  0
  7 20  1  0
  7 21  1  0
  7 22  1  0
  8 23  1  0
  8 24  1  0
  8 25  1  0
M  END
