
     RDKit          3D

 19 19  0  0  0  0  0  0  0  0999 V2000
    2.4343   -0.0646    0.2974 C   0  0  0  0  0  0  0  0  0  0  0  0
    1.3733    0.8140   -0.3268 C   0  0  0  0  0  0  0  0  0  0  0  0
    0.3108   -0.0408   -0.9480 C   0  0  0  0  0  0  0  0  0  0  0  0
   -0.7686    0.5245   -1.5821 O   0  0  0  0  0  0  0  0  0  0  0  0
   -0.9857   -0.1033   -0.3083 C   0  0  0  0  0  0  0  0  0  0  0  0
   -1.4719    0.8766    0.7133 C   0  0  0  0  0  0  0  0  0  0  0  0
   -1.7396   -1.4243   -0.3511 C   0  0  0  0  0  0  0  0  0  0  0  0
    3.0415   -0.4825   -0.5470 H   0  0  0  0  0  0  0  0  0  0  0  0
    1.9771   -0.8848    0.8611 H   0  0  0  0  0  0  0  0  0  0  0  0
    3.0586    0.5767    0.9429 H   0  0  0  0  0  0  0  0  0  0  0  0
    1.8755    1.4750   -1.0653 H   0  0  0  0  0  0  0  0  0  0  0  0
    0.8980    1.4778    0.4117 H   0  0  0  0  0  0  0  0  0  0  0  0
    0.6839   -0.9661   -1.4368 H   0  0  0  0  0  0  0  0  0  0  0  0
   -2.5924    0.9391    0.5902 H   0  0  0  0  0  0  0  0  0  0  0  0
   -1.0995    1.8969    0.5670 H   0  0  0  0  0  0  0  0  0  0  0  0
   -1.3225    0.5381    1.7596 H   0  0  0  0  0  0  0  0  0  0  0  0
   -2.7822   -1.2009   -0.6367 H   0  0  0  0  0  0  0  0  0  0  0  0
   -1.2284   -2.1012   -1.0706 H   0  0  0  0  0  0  0  0  0  0  0  0
   -1.6622   -1.8504    0.6712 H   0  0  0  0  0  0  0  0  0  0  0  0
  1  2  1  0
  2  3  1  0
  3  4  1  0
  4  5  1  0
  5  6  1  0
  5  7  1  0
  5  3  1  0
  1  8  1  0
  1  9  1  0
  1 10  1  0
  2 11  1  0
  2 12  1  0
  3 13  1  0
  6 14  1  0
  6 15  1  0
  6 16  1  0
  7 17  1  0
  7 18  1  0
  7 19  1  0
M  END
