
     RDKit          3D

 23 23  0  0  0  0  0  0  0  0999 V2000
   -0.9121   -2.0959    0.2183 C   0  0  0  0  0  0  0  0  0  0  0  0
   -1.1343   -0.9055   -0.6579 C   0  0  0  0  0  0  0  0  0  0  0  0
   -0.7810    0.3442    0.0775 C   0  0  0  0  0  0  0  0  0  0  0  0
   -0.9961    1.5973   -0.7857 C   0  0  0  0  0  0  0  0  0  0  0  0
   -0.1771    2.5668    0.0443 C   0  0  0  0  0  0  0  0  0  0  0  0
    0.8877    1.8698    0.5657 O   0  0  0  0  0  0  0  0  0  0  0  0
    0.7164    0.5159    0.2837 C   0  0  0  0  0  0  0  0  0  0  0  0
    1.2451   -0.3103    1.2281 O   0  0  0  0  0  0  0  0  0  0  0  0
    2.2572   -1.0676    0.6472 C   0  0  0  0  0  0  0  0  0  0  0  0
   -1.8632   -2.6921    0.3452 H   0  0  0  0  0  0  0  0  0  0  0  0
   -0.5678   -1.7850    1.2105 H   0  0  0  0  0  0  0  0  0  0  0  0
   -0.1774   -2.8220   -0.1825 H   0  0  0  0  0  0  0  0  0  0  0  0
   -2.2112   -0.8567   -0.9165 H   0  0  0  0  0  0  0  0  0  0  0  0
   -0.5894   -0.9683   -1.6205 H   0  0  0  0  0  0  0  0  0  0  0  0
   -1.3419    0.4457    1.0033 H   0  0  0  0  0  0  0  0  0  0  0  0
   -2.0549    1.8789   -0.8384 H   0  0  0  0  0  0  0  0  0  0  0  0
   -0.5313    1.4411   -1.7901 H   0  0  0  0  0  0  0  0  0  0  0  0
    0.1078    3.4728   -0.5254 H   0  0  0  0  0  0  0  0  0  0  0  0
   -0.8373    2.8426    0.9181 H   0  0  0  0  0  0  0  0  0  0  0  0
    1.2277    0.3585   -0.6875 H   0  0  0  0  0  0  0  0  0  0  0  0
    2.7198   -1.7630    1.3888 H   0  0  0  0  0  0  0  0  0  0  0  0
    3.0972   -0.4178    0.2799 H   0  0  0  0  0  0  0  0  0  0  0  0
    1.9160   -1.6493   -0.2062 H   0  0  0  0  0  0  0  0  0  0  0  0
  1  2  1  0
  2  3  1  0
  3  4  1  0
  4  5  1  0
  5  6  1  0
  6  7  1  0
  7  8  1  0
  8  9  1  0
  7  3  1  0
  1 10  1  0
  1 11  1  0
  1 12  1  0
  2 13  1  0
  2 14  1  0
  3 15  1  0
  4 16  1  0
  4 17  1  0
  5 18  1  0
  5 19  1  0
  7 20  1  0
  9 21  1  0
  9 22  1  0
  9 23  1  0
M  END
