
     RDKit          3D

 23 25  0  0  0  0  0  0  0  0999 V2000
    3.2449   -0.2999    0.1242 C   0  0  0  0  0  0  0  0  0  0  0  0
    2.1099   -0.3544   -0.8544 C   0  0  0  0  0  0  0  0  0  0  0  0
    0.7702   -0.5387   -0.2107 C   0  0  0  0  0  0  0  0  0  0  0  0
    0.3345    0.4948    0.7432 C   0  0  0  0  0  0  0  0  0  0  0  0
   -1.0614    0.5891    1.2751 C   0  0  0  0  0  0  0  0  0  0  0  0
   -1.5997    0.2280   -0.0439 C   0  0  0  0  0  0  0  0  0  0  0  0
   -2.4920   -0.9003   -0.2458 C   0  0  0  0  0  0  0  0  0  0  0  0
   -2.8894    0.5495   -0.5995 C   0  0  0  0  0  0  0  0  0  0  0  0
   -0.2875    0.4264   -0.6718 C   0  0  0  0  0  0  0  0  0  0  0  0
    3.0116   -0.8979    1.0148 H   0  0  0  0  0  0  0  0  0  0  0  0
    4.1599   -0.6829   -0.3955 H   0  0  0  0  0  0  0  0  0  0  0  0
    3.4049    0.7620    0.3998 H   0  0  0  0  0  0  0  0  0  0  0  0
    2.3159   -1.1738   -1.5963 H   0  0  0  0  0  0  0  0  0  0  0  0
    2.1549    0.5862   -1.4682 H   0  0  0  0  0  0  0  0  0  0  0  0
    0.4202   -1.5916   -0.1478 H   0  0  0  0  0  0  0  0  0  0  0  0
    1.0270    1.3066    0.9616 H   0  0  0  0  0  0  0  0  0  0  0  0
   -1.3283   -0.1149    2.0908 H   0  0  0  0  0  0  0  0  0  0  0  0
   -1.2941    1.6241    1.6247 H   0  0  0  0  0  0  0  0  0  0  0  0
   -2.3295   -1.5970   -1.0857 H   0  0  0  0  0  0  0  0  0  0  0  0
   -2.9739   -1.3555    0.6359 H   0  0  0  0  0  0  0  0  0  0  0  0
   -3.7272    0.9267   -0.0235 H   0  0  0  0  0  0  0  0  0  0  0  0
   -2.9362    0.7375   -1.7108 H   0  0  0  0  0  0  0  0  0  0  0  0
   -0.0345    1.2760   -1.3135 H   0  0  0  0  0  0  0  0  0  0  0  0
  1  2  1  0
  2  3  1  0
  3  4  1  0
  4  5  1  0
  5  6  1  0
  6  7  1  0
  7  8  1  0
  6  9  1  0
  9  3  1  0
  9  4  1  0
  8  6  1  0
  1 10  1  0
  1 11  1  0
  1 12  1  0
  2 13  1  0
  2 14  1  0
  3 15  1  0
  4 16  1  0
  5 17  1  0
  5 18  1  0
  7 19  1  0
  7 20  1  0
  8 21  1  0
  8 22  1  0
  9 23  1  0
M  END
