
     RDKit          3D

 18 20  0  0  0  0  0  0  0  0999 V2000
   -2.1022   -0.0650   -0.1786 C   0  0  0  0  0  0  0  0  0  0  0  0
   -0.9561   -0.9620    0.0870 C   0  0  0  0  0  0  0  0  0  0  0  0
    0.3470   -0.3251    0.3305 C   0  0  0  0  0  0  0  0  0  0  0  0
    0.6377    0.6142    1.4134 C   0  0  0  0  0  0  0  0  0  0  0  0
    0.6742    1.0776    0.0087 C   0  0  0  0  0  0  0  0  0  0  0  0
    1.7057    0.5799   -0.9589 C   0  0  0  0  0  0  0  0  0  0  0  0
    1.3672   -0.4378   -1.8609 O   0  0  0  0  0  0  0  0  0  0  0  0
    1.5419   -0.7265   -0.5403 C   0  0  0  0  0  0  0  0  0  0  0  0
   -1.8632    0.9238   -0.5760 H   0  0  0  0  0  0  0  0  0  0  0  0
   -2.7294    0.1112    0.7413 H   0  0  0  0  0  0  0  0  0  0  0  0
   -2.7736   -0.5476   -0.9499 H   0  0  0  0  0  0  0  0  0  0  0  0
   -0.8418   -1.6949   -0.7581 H   0  0  0  0  0  0  0  0  0  0  0  0
   -1.2020   -1.6121    0.9766 H   0  0  0  0  0  0  0  0  0  0  0  0
   -0.2125    0.9645    2.0131 H   0  0  0  0  0  0  0  0  0  0  0  0
    1.5961    0.4990    1.9960 H   0  0  0  0  0  0  0  0  0  0  0  0
   -0.0452    1.8161   -0.3316 H   0  0  0  0  0  0  0  0  0  0  0  0
    2.5586    1.1762   -1.2624 H   0  0  0  0  0  0  0  0  0  0  0  0
    2.2976   -1.3914   -0.1498 H   0  0  0  0  0  0  0  0  0  0  0  0
  1  2  1  0
  2  3  1  0
  3  4  1  0
  4  5  1  0
  5  6  1  0
  6  7  1  0
  7  8  1  0
  5  3  1  0
  8  6  1  0
  8  3  1  0
  1  9  1  0
  1 10  1  0
  1 11  1  0
  2 12  1  0
  2 13  1  0
  4 14  1  0
  4 15  1  0
  5 16  1  0
  6 17  1  0
  8 18  1  0
M  END
