
     RDKit          3D

 25 25  0  0  0  0  0  0  0  0999 V2000
   -2.1282   -1.8600   -0.1619 C   0  0  0  0  0  0  0  0  0  0  0  0
   -0.6555   -1.6773   -0.3626 C   0  0  0  0  0  0  0  0  0  0  0  0
   -0.0882   -0.4897    0.3640 C   0  0  0  0  0  0  0  0  0  0  0  0
   -0.7377    0.7973   -0.0887 C   0  0  0  0  0  0  0  0  0  0  0  0
   -0.4985    1.9151    0.9107 C   0  0  0  0  0  0  0  0  0  0  0  0
   -0.0073    1.1428   -1.3103 C   0  0  0  0  0  0  0  0  0  0  0  0
    1.1485    0.5466   -1.3521 C   0  0  0  0  0  0  0  0  0  0  0  0
    1.3306   -0.2811   -0.1453 C   0  0  0  0  0  0  0  0  0  0  0  0
    2.2182    0.3668    0.8746 C   0  0  0  0  0  0  0  0  0  0  0  0
   -2.6349   -1.5106   -1.0966 H   0  0  0  0  0  0  0  0  0  0  0  0
   -2.4386   -1.2464    0.7198 H   0  0  0  0  0  0  0  0  0  0  0  0
   -2.4218   -2.9080    0.0618 H   0  0  0  0  0  0  0  0  0  0  0  0
   -0.1313   -2.5918   -0.0200 H   0  0  0  0  0  0  0  0  0  0  0  0
   -0.3852   -1.5780   -1.4507 H   0  0  0  0  0  0  0  0  0  0  0  0
   -0.1422   -0.6624    1.4374 H   0  0  0  0  0  0  0  0  0  0  0  0
   -1.8199    0.6179   -0.2534 H   0  0  0  0  0  0  0  0  0  0  0  0
   -1.2916    2.6746    0.7168 H   0  0  0  0  0  0  0  0  0  0  0  0
   -0.4942    1.5684    1.9522 H   0  0  0  0  0  0  0  0  0  0  0  0
    0.4636    2.4354    0.7227 H   0  0  0  0  0  0  0  0  0  0  0  0
   -0.3491    1.8191   -2.1254 H   0  0  0  0  0  0  0  0  0  0  0  0
    1.9274    0.6042   -2.1393 H   0  0  0  0  0  0  0  0  0  0  0  0
    1.7631   -1.2652   -0.4922 H   0  0  0  0  0  0  0  0  0  0  0  0
    2.5857    1.3248    0.4221 H   0  0  0  0  0  0  0  0  0  0  0  0
    3.1216   -0.2736    1.0090 H   0  0  0  0  0  0  0  0  0  0  0  0
    1.6651    0.5311    1.8074 H   0  0  0  0  0  0  0  0  0  0  0  0
  1  2  1  0
  2  3  1  0
  3  4  1  0
  4  5  1  0
  4  6  1  0
  6  7  2  0
  7  8  1  0
  8  9  1  0
  8  3  1  0
  1 10  1  0
  1 11  1  0
  1 12  1  0
  2 13  1  0
  2 14  1  0
  3 15  1  0
  4 16  1  0
  5 17  1  0
  5 18  1  0
  5 19  1  0
  6 20  1  0
  7 21  1  0
  8 22  1  0
  9 23  1  0
  9 24  1  0
  9 25  1  0
M  END
