
     RDKit          3D

 21 22  0  0  0  0  0  0  0  0999 V2000
    2.2145   -0.5165   -0.3673 C   0  0  0  0  0  0  0  0  0  0  0  0
    1.2450    0.4403    0.3045 C   0  0  0  0  0  0  0  0  0  0  0  0
   -0.1659   -0.0125    0.2636 C   0  0  0  0  0  0  0  0  0  0  0  0
   -1.0214    0.8747    0.8858 O   0  0  0  0  0  0  0  0  0  0  0  0
   -1.0552    2.1390    0.3449 C   0  0  0  0  0  0  0  0  0  0  0  0
   -0.4289   -1.4509    0.5860 C   0  0  0  0  0  0  0  0  0  0  0  0
   -1.7353   -1.3077   -0.1310 C   0  0  0  0  0  0  0  0  0  0  0  0
   -0.6643   -0.6708   -0.9690 C   0  0  0  0  0  0  0  0  0  0  0  0
    0.1298   -1.7643   -0.6320 O   0  0  0  0  0  0  0  0  0  0  0  0
    3.2209   -0.0062   -0.2762 H   0  0  0  0  0  0  0  0  0  0  0  0
    1.9796   -0.5957   -1.4278 H   0  0  0  0  0  0  0  0  0  0  0  0
    2.2814   -1.4454    0.1982 H   0  0  0  0  0  0  0  0  0  0  0  0
    1.4041    1.4472   -0.0862 H   0  0  0  0  0  0  0  0  0  0  0  0
    1.5554    0.4620    1.3882 H   0  0  0  0  0  0  0  0  0  0  0  0
   -1.3729    2.0318   -0.7178 H   0  0  0  0  0  0  0  0  0  0  0  0
   -0.1072    2.6655    0.3778 H   0  0  0  0  0  0  0  0  0  0  0  0
   -1.8105    2.7322    0.9148 H   0  0  0  0  0  0  0  0  0  0  0  0
   -0.2740   -1.9096    1.4719 H   0  0  0  0  0  0  0  0  0  0  0  0
   -2.4647   -0.6059    0.3279 H   0  0  0  0  0  0  0  0  0  0  0  0
   -2.1538   -2.2288   -0.5658 H   0  0  0  0  0  0  0  0  0  0  0  0
   -0.7764   -0.2785   -1.8906 H   0  0  0  0  0  0  0  0  0  0  0  0
  1  2  1  0
  2  3  1  0
  3  4  1  0
  4  5  1  0
  3  6  1  0
  6  7  1  0
  7  8  1  0
  8  9  1  0
  8  3  1  0
  9  6  1  0
  1 10  1  0
  1 11  1  0
  1 12  1  0
  2 13  1  0
  2 14  1  0
  5 15  1  0
  5 16  1  0
  5 17  1  0
  6 18  1  0
  7 19  1  0
  7 20  1  0
  8 21  1  0
M  END
