
     RDKit          3D

 19 20  0  0  0  0  0  0  0  0999 V2000
   -2.5227    0.3301   -0.7018 C   0  0  0  0  0  0  0  0  0  0  0  0
   -1.3510   -0.6199   -0.7038 C   0  0  0  0  0  0  0  0  0  0  0  0
   -0.3094   -0.1941    0.3429 C   0  0  0  0  0  0  0  0  0  0  0  0
   -0.8923   -0.1973    1.6194 O   0  0  0  0  0  0  0  0  0  0  0  0
    0.9751   -0.7295    0.1466 C   0  0  0  0  0  0  0  0  0  0  0  0
    1.9117   -0.6430   -0.8356 O   0  0  0  0  0  0  0  0  0  0  0  0
    2.7010    0.4261   -0.3390 C   0  0  0  0  0  0  0  0  0  0  0  0
    1.8530    1.1693    0.5217 O   0  0  0  0  0  0  0  0  0  0  0  0
    0.6317    0.8152    0.0553 C   0  0  0  0  0  0  0  0  0  0  0  0
   -2.9960    0.3494    0.2812 H   0  0  0  0  0  0  0  0  0  0  0  0
   -3.2631   -0.0754   -1.4201 H   0  0  0  0  0  0  0  0  0  0  0  0
   -2.2497    1.3389   -1.0840 H   0  0  0  0  0  0  0  0  0  0  0  0
   -0.8324   -0.6185   -1.6682 H   0  0  0  0  0  0  0  0  0  0  0  0
   -1.7374   -1.6094   -0.3917 H   0  0  0  0  0  0  0  0  0  0  0  0
   -0.5152   -0.9492    2.1686 H   0  0  0  0  0  0  0  0  0  0  0  0
    1.5026   -1.0428    1.1025 H   0  0  0  0  0  0  0  0  0  0  0  0
    3.0398    1.0912   -1.1354 H   0  0  0  0  0  0  0  0  0  0  0  0
    3.5142   -0.0631    0.2330 H   0  0  0  0  0  0  0  0  0  0  0  0
    0.5399    1.2220   -1.0022 H   0  0  0  0  0  0  0  0  0  0  0  0
  1  2  1  0
  2  3  1  0
  3  4  1  0
  3  5  1  0
  5  6  1  0
  6  7  1  0
  7  8  1  0
  8  9  1  0
  9  3  1  0
  9  5  1  0
  1 10  1  0
  1 11  1  0
  1 12  1  0
  2 13  1  0
  2 14  1  0
  4 15  1  0
  5 16  1  0
  7 17  1  0
  7 18  1  0
  9 19  1  0
M  END
