
     RDKit          3D

 23 23  0  0  0  0  0  0  0  0999 V2000
    3.0751   -0.1078    0.1114 C   0  0  0  0  0  0  0  0  0  0  0  0
    2.0153   -0.7920   -0.7206 C   0  0  0  0  0  0  0  0  0  0  0  0
    0.6450   -0.5192   -0.2522 C   0  0  0  0  0  0  0  0  0  0  0  0
   -0.2610   -1.3935    0.1651 C   0  0  0  0  0  0  0  0  0  0  0  0
   -1.5238   -0.7370    0.5555 C   0  0  0  0  0  0  0  0  0  0  0  0
   -2.4812   -1.0687   -0.4039 O   0  0  0  0  0  0  0  0  0  0  0  0
   -1.2172    0.7220    0.5951 C   0  0  0  0  0  0  0  0  0  0  0  0
   -2.2790    1.5746   -0.0531 C   0  0  0  0  0  0  0  0  0  0  0  0
    0.0569    0.8476   -0.1785 C   0  0  0  0  0  0  0  0  0  0  0  0
    2.9016    0.9825    0.0580 H   0  0  0  0  0  0  0  0  0  0  0  0
    4.0477   -0.3040   -0.3782 H   0  0  0  0  0  0  0  0  0  0  0  0
    3.0705   -0.4301    1.1670 H   0  0  0  0  0  0  0  0  0  0  0  0
    2.2689   -1.8712   -0.7292 H   0  0  0  0  0  0  0  0  0  0  0  0
    2.1614   -0.4214   -1.7710 H   0  0  0  0  0  0  0  0  0  0  0  0
   -0.1091   -2.4737    0.2202 H   0  0  0  0  0  0  0  0  0  0  0  0
   -1.8074   -1.1302    1.5533 H   0  0  0  0  0  0  0  0  0  0  0  0
   -2.3808   -2.0546   -0.5677 H   0  0  0  0  0  0  0  0  0  0  0  0
   -1.1352    1.0309    1.6555 H   0  0  0  0  0  0  0  0  0  0  0  0
   -1.7993    2.3395   -0.7012 H   0  0  0  0  0  0  0  0  0  0  0  0
   -2.9589    0.9952   -0.7012 H   0  0  0  0  0  0  0  0  0  0  0  0
   -2.8828    2.1114    0.7065 H   0  0  0  0  0  0  0  0  0  0  0  0
    0.7713    1.5442    0.3043 H   0  0  0  0  0  0  0  0  0  0  0  0
   -0.1783    1.1553   -1.2207 H   0  0  0  0  0  0  0  0  0  0  0  0
  1  2  1  0
  2  3  1  0
  3  4  2  0
  4  5  1  0
  5  6  1  0
  5  7  1  0
  7  8  1  0
  7  9  1  0
  9  3  1  0
  1 10  1  0
  1 11  1  0
  1 12  1  0
  2 13  1  0
  2 14  1  0
  4 15  1  0
  5 16  1  0
  6 17  1  0
  7 18  1  0
  8 19  1  0
  8 20  1  0
  8 21  1  0
  9 22  1  0
  9 23  1  0
M  END
