
     RDKit          3D

 23 24  0  0  0  0  0  0  0  0999 V2000
   -3.0822   -0.0761    0.6438 C   0  0  0  0  0  0  0  0  0  0  0  0
   -1.9513    0.3183   -0.2812 C   0  0  0  0  0  0  0  0  0  0  0  0
   -0.6910   -0.4610   -0.0232 C   0  0  0  0  0  0  0  0  0  0  0  0
   -0.2512   -0.1961    1.4268 C   0  0  0  0  0  0  0  0  0  0  0  0
    1.1774   -0.0687    0.9516 C   0  0  0  0  0  0  0  0  0  0  0  0
    2.4787   -0.0049    0.7867 C   0  0  0  0  0  0  0  0  0  0  0  0
    2.8224    0.2803   -0.6605 C   0  0  0  0  0  0  0  0  0  0  0  0
    1.5465   -0.3301   -1.3097 C   0  0  0  0  0  0  0  0  0  0  0  0
    0.5484    0.2657   -0.3929 C   0  0  0  0  0  0  0  0  0  0  0  0
   -3.3834   -1.1033    0.3541 H   0  0  0  0  0  0  0  0  0  0  0  0
   -3.9190    0.6250    0.4324 H   0  0  0  0  0  0  0  0  0  0  0  0
   -2.8303    0.0370    1.7007 H   0  0  0  0  0  0  0  0  0  0  0  0
   -2.3177    0.2247   -1.3224 H   0  0  0  0  0  0  0  0  0  0  0  0
   -1.6937    1.4111   -0.1618 H   0  0  0  0  0  0  0  0  0  0  0  0
   -0.7507   -1.5152   -0.2874 H   0  0  0  0  0  0  0  0  0  0  0  0
   -0.5741    0.7620    1.8417 H   0  0  0  0  0  0  0  0  0  0  0  0
   -0.4720   -1.0617    2.0437 H   0  0  0  0  0  0  0  0  0  0  0  0
    3.2110   -0.1421    1.5989 H   0  0  0  0  0  0  0  0  0  0  0  0
    3.7231   -0.2685   -0.9678 H   0  0  0  0  0  0  0  0  0  0  0  0
    2.8578    1.3620   -0.8078 H   0  0  0  0  0  0  0  0  0  0  0  0
    1.6366   -1.4152   -1.2759 H   0  0  0  0  0  0  0  0  0  0  0  0
    1.4703    0.0027   -2.3579 H   0  0  0  0  0  0  0  0  0  0  0  0
    0.4443    1.3541   -0.5494 H   0  0  0  0  0  0  0  0  0  0  0  0
  1  2  1  0
  2  3  1  0
  3  4  1  0
  4  5  1  0
  5  6  2  0
  6  7  1  0
  7  8  1  0
  8  9  1  0
  9  3  1  0
  9  5  1  0
  1 10  1  0
  1 11  1  0
  1 12  1  0
  2 13  1  0
  2 14  1  0
  3 15  1  0
  4 16  1  0
  4 17  1  0
  6 18  1  0
  7 19  1  0
  7 20  1  0
  8 21  1  0
  8 22  1  0
  9 23  1  0
M  END
