
     RDKit          3D

 21 22  0  0  0  0  0  0  0  0999 V2000
    2.5826    0.7156   -0.0239 C   0  0  0  0  0  0  0  0  0  0  0  0
    1.6512   -0.4800    0.2679 C   0  0  0  0  0  0  0  0  0  0  0  0
    0.3909   -0.1516   -0.4944 C   0  0  0  0  0  0  0  0  0  0  0  0
   -0.1699    1.0653   -0.0251 C   0  0  0  0  0  0  0  0  0  0  0  0
   -0.9783   -0.1175    0.2327 C   0  0  0  0  0  0  0  0  0  0  0  0
   -2.2450   -0.0722   -0.6038 C   0  0  0  0  0  0  0  0  0  0  0  0
   -2.3266    1.0482   -1.4352 O   0  0  0  0  0  0  0  0  0  0  0  0
   -0.5269   -1.5439    0.3108 C   0  0  0  0  0  0  0  0  0  0  0  0
   -0.1555   -1.2837   -1.0366 O   0  0  0  0  0  0  0  0  0  0  0  0
    2.5836    0.9013   -1.1042 H   0  0  0  0  0  0  0  0  0  0  0  0
    2.0994    1.5840    0.4650 H   0  0  0  0  0  0  0  0  0  0  0  0
    3.5743    0.5629    0.4215 H   0  0  0  0  0  0  0  0  0  0  0  0
    1.5222   -0.3807    1.3891 H   0  0  0  0  0  0  0  0  0  0  0  0
    2.1481   -1.3890   -0.0361 H   0  0  0  0  0  0  0  0  0  0  0  0
   -0.4098    1.8454   -0.8096 H   0  0  0  0  0  0  0  0  0  0  0  0
    0.1207    1.6017    0.9222 H   0  0  0  0  0  0  0  0  0  0  0  0
   -2.4451   -0.9760   -1.1848 H   0  0  0  0  0  0  0  0  0  0  0  0
   -3.0599    0.1027    0.1648 H   0  0  0  0  0  0  0  0  0  0  0  0
   -3.2447    1.0931   -1.7562 H   0  0  0  0  0  0  0  0  0  0  0  0
   -1.3600   -2.2760    0.3814 H   0  0  0  0  0  0  0  0  0  0  0  0
    0.2490   -1.8497    0.9830 H   0  0  0  0  0  0  0  0  0  0  0  0
  1  2  1  0
  2  3  1  0
  3  4  1  0
  4  5  1  0
  5  6  1  0
  6  7  1  0
  5  8  1  0
  8  9  1  0
  5  3  1  0
  9  3  1  0
  1 10  1  0
  1 11  1  0
  1 12  1  0
  2 13  1  0
  2 14  1  0
  4 15  1  0
  4 16  1  0
  6 17  1  0
  6 18  1  0
  7 19  1  0
  8 20  1  0
  8 21  1  0
M  END
