
     RDKit          3D

 19 19  0  0  0  0  0  0  0  0999 V2000
   -2.1002   -0.5864    0.3809 C   0  0  0  0  0  0  0  0  0  0  0  0
   -0.9135   -0.5156   -0.5603 C   0  0  0  0  0  0  0  0  0  0  0  0
    0.1722    0.3825   -0.0285 C   0  0  0  0  0  0  0  0  0  0  0  0
   -0.2440    1.7931    0.1924 C   0  0  0  0  0  0  0  0  0  0  0  0
    0.1270    2.6946   -0.5406 O   0  0  0  0  0  0  0  0  0  0  0  0
    1.4113    0.2911   -0.8869 C   0  0  0  0  0  0  0  0  0  0  0  0
    1.8508   -0.8050    0.0532 C   0  0  0  0  0  0  0  0  0  0  0  0
    0.9638   -0.2057    1.0805 C   0  0  0  0  0  0  0  0  0  0  0  0
    0.9246   -0.2106    2.3157 O   0  0  0  0  0  0  0  0  0  0  0  0
   -2.0556    0.3241    1.0229 H   0  0  0  0  0  0  0  0  0  0  0  0
   -3.0724   -0.6170   -0.1783 H   0  0  0  0  0  0  0  0  0  0  0  0
   -2.0407   -1.4559    1.0708 H   0  0  0  0  0  0  0  0  0  0  0  0
   -1.2327   -0.2269   -1.5800 H   0  0  0  0  0  0  0  0  0  0  0  0
   -0.5143   -1.5449   -0.6423 H   0  0  0  0  0  0  0  0  0  0  0  0
   -0.8922    2.0583    1.0161 H   0  0  0  0  0  0  0  0  0  0  0  0
    1.2186   -0.0318   -1.9289 H   0  0  0  0  0  0  0  0  0  0  0  0
    2.0071    1.2277   -0.8076 H   0  0  0  0  0  0  0  0  0  0  0  0
    2.9314   -0.7915    0.3077 H   0  0  0  0  0  0  0  0  0  0  0  0
    1.4588   -1.7801   -0.2869 H   0  0  0  0  0  0  0  0  0  0  0  0
  1  2  1  0
  2  3  1  0
  3  4  1  0
  4  5  2  0
  3  6  1  0
  6  7  1  0
  7  8  1  0
  8  9  2  0
  8  3  1  0
  1 10  1  0
  1 11  1  0
  1 12  1  0
  2 13  1  0
  2 14  1  0
  4 15  1  0
  6 16  1  0
  6 17  1  0
  7 18  1  0
  7 19  1  0
M  END
