
     RDKit          3D

 22 23  0  0  0  0  0  0  0  0999 V2000
   -2.0644    0.5836    0.5011 C   0  0  0  0  0  0  0  0  0  0  0  0
   -1.7732   -0.6195   -0.3368 C   0  0  0  0  0  0  0  0  0  0  0  0
   -0.3745   -0.8203   -0.7337 C   0  0  0  0  0  0  0  0  0  0  0  0
    0.5878   -0.9757    0.4510 C   0  0  0  0  0  0  0  0  0  0  0  0
    1.2501    0.3474    0.4051 C   0  0  0  0  0  0  0  0  0  0  0  0
    2.4151    0.8574   -0.1805 C   0  0  0  0  0  0  0  0  0  0  0  0
    1.6149    0.2147   -1.1315 C   0  0  0  0  0  0  0  0  0  0  0  0
    0.2012    0.3384   -1.5683 C   0  0  0  0  0  0  0  0  0  0  0  0
   -3.1902    0.6228    0.6114 H   0  0  0  0  0  0  0  0  0  0  0  0
   -1.8093    1.5454   -0.0052 H   0  0  0  0  0  0  0  0  0  0  0  0
   -1.6834    0.5242    1.5351 H   0  0  0  0  0  0  0  0  0  0  0  0
   -2.1283   -1.5057    0.1973 H   0  0  0  0  0  0  0  0  0  0  0  0
   -2.3857   -0.5371   -1.2599 H   0  0  0  0  0  0  0  0  0  0  0  0
   -0.2887   -1.7337   -1.3501 H   0  0  0  0  0  0  0  0  0  0  0  0
    0.0472   -1.1940    1.3832 H   0  0  0  0  0  0  0  0  0  0  0  0
    1.3398   -1.7677    0.2524 H   0  0  0  0  0  0  0  0  0  0  0  0
    0.4623    1.1297    0.6475 H   0  0  0  0  0  0  0  0  0  0  0  0
    3.4013    0.4194    0.1170 H   0  0  0  0  0  0  0  0  0  0  0  0
    2.5574    1.9750   -0.2797 H   0  0  0  0  0  0  0  0  0  0  0  0
    1.9812   -0.8124   -1.4479 H   0  0  0  0  0  0  0  0  0  0  0  0
    0.0369    0.1062   -2.6351 H   0  0  0  0  0  0  0  0  0  0  0  0
   -0.1976    1.3016   -1.2444 H   0  0  0  0  0  0  0  0  0  0  0  0
  1  2  1  0
  2  3  1  0
  3  4  1  0
  4  5  1  0
  5  6  1  0
  6  7  1  0
  7  8  1  0
  8  3  1  0
  7  5  1  0
  1  9  1  0
  1 10  1  0
  1 11  1  0
  2 12  1  0
  2 13  1  0
  3 14  1  0
  4 15  1  0
  4 16  1  0
  5 17  1  0
  6 18  1  0
  6 19  1  0
  7 20  1  0
  8 21  1  0
  8 22  1  0
M  END
