
     RDKit          3D

 21 23  0  0  0  0  0  0  0  0999 V2000
    2.4973    0.4151    0.6064 C   0  0  0  0  0  0  0  0  0  0  0  0
    1.5769   -0.6233   -0.0365 C   0  0  0  0  0  0  0  0  0  0  0  0
    0.1822   -0.0880    0.0481 C   0  0  0  0  0  0  0  0  0  0  0  0
   -0.1228    1.2136   -0.6215 C   0  0  0  0  0  0  0  0  0  0  0  0
   -1.5011    0.6426   -0.9839 C   0  0  0  0  0  0  0  0  0  0  0  0
   -2.3332    0.7677    0.1028 O   0  0  0  0  0  0  0  0  0  0  0  0
   -2.2082   -0.3076    0.9344 C   0  0  0  0  0  0  0  0  0  0  0  0
   -0.8968   -0.9977    0.5260 C   0  0  0  0  0  0  0  0  0  0  0  0
   -0.8814   -0.7171   -0.8926 C   0  0  0  0  0  0  0  0  0  0  0  0
    2.0952    0.5603    1.6460 H   0  0  0  0  0  0  0  0  0  0  0  0
    2.5418    1.3432    0.0462 H   0  0  0  0  0  0  0  0  0  0  0  0
    3.4940   -0.0295    0.6987 H   0  0  0  0  0  0  0  0  0  0  0  0
    1.8708   -0.7864   -1.0992 H   0  0  0  0  0  0  0  0  0  0  0  0
    1.6663   -1.5571    0.5482 H   0  0  0  0  0  0  0  0  0  0  0  0
    0.4319    1.3575   -1.5904 H   0  0  0  0  0  0  0  0  0  0  0  0
   -0.2124    2.1029   -0.0041 H   0  0  0  0  0  0  0  0  0  0  0  0
   -1.8778    0.9549   -1.9576 H   0  0  0  0  0  0  0  0  0  0  0  0
   -3.0541   -1.0157    0.6892 H   0  0  0  0  0  0  0  0  0  0  0  0
   -2.2081   -0.0716    2.0120 H   0  0  0  0  0  0  0  0  0  0  0  0
   -0.5978   -1.9051    1.0283 H   0  0  0  0  0  0  0  0  0  0  0  0
   -0.4627   -1.2586   -1.7004 H   0  0  0  0  0  0  0  0  0  0  0  0
  1  2  1  0
  2  3  1  0
  3  4  1  0
  4  5  1  0
  5  6  1  0
  6  7  1  0
  7  8  1  0
  8  9  1  0
  8  3  1  0
  9  3  1  0
  9  5  1  0
  1 10  1  0
  1 11  1  0
  1 12  1  0
  2 13  1  0
  2 14  1  0
  4 15  1  0
  4 16  1  0
  5 17  1  0
  7 18  1  0
  7 19  1  0
  8 20  1  0
  9 21  1  0
M  END
