
     RDKit          3D

 20 20  0  0  0  0  0  0  0  0999 V2000
    2.4930    0.1992   -0.3542 C   0  0  0  0  0  0  0  0  0  0  0  0
    1.2493   -0.4158   -0.9184 C   0  0  0  0  0  0  0  0  0  0  0  0
    0.0949   -0.4238    0.0412 C   0  0  0  0  0  0  0  0  0  0  0  0
    0.3396   -1.1287    1.2152 O   0  0  0  0  0  0  0  0  0  0  0  0
   -1.2640   -0.2869   -0.5109 C   0  0  0  0  0  0  0  0  0  0  0  0
   -2.4783   -0.8054    0.2134 C   0  0  0  0  0  0  0  0  0  0  0  0
   -0.6279    0.9158    0.1466 C   0  0  0  0  0  0  0  0  0  0  0  0
   -0.2603    1.9320   -0.7203 O   0  0  0  0  0  0  0  0  0  0  0  0
    3.0118   -0.5084    0.3222 H   0  0  0  0  0  0  0  0  0  0  0  0
    2.2822    1.1451    0.1753 H   0  0  0  0  0  0  0  0  0  0  0  0
    3.1480    0.4724   -1.2226 H   0  0  0  0  0  0  0  0  0  0  0  0
    1.0092    0.1456   -1.8573 H   0  0  0  0  0  0  0  0  0  0  0  0
    1.4409   -1.4628   -1.2220 H   0  0  0  0  0  0  0  0  0  0  0  0
    0.9996   -0.6206    1.7675 H   0  0  0  0  0  0  0  0  0  0  0  0
   -1.3413   -0.2826   -1.6265 H   0  0  0  0  0  0  0  0  0  0  0  0
   -3.2911   -1.0323   -0.5033 H   0  0  0  0  0  0  0  0  0  0  0  0
   -2.8964   -0.0747    0.9415 H   0  0  0  0  0  0  0  0  0  0  0  0
   -2.2878   -1.7433    0.7736 H   0  0  0  0  0  0  0  0  0  0  0  0
   -0.9451    1.2106    1.1613 H   0  0  0  0  0  0  0  0  0  0  0  0
   -0.6763    2.7646   -0.4080 H   0  0  0  0  0  0  0  0  0  0  0  0
  1  2  1  0
  2  3  1  0
  3  4  1  0
  3  5  1  0
  5  6  1  0
  5  7  1  0
  7  8  1  0
  7  3  1  0
  1  9  1  0
  1 10  1  0
  1 11  1  0
  2 12  1  0
  2 13  1  0
  4 14  1  0
  5 15  1  0
  6 16  1  0
  6 17  1  0
  6 18  1  0
  7 19  1  0
  8 20  1  0
M  END
