
     RDKit          3D

 18 19  0  0  0  0  0  0  0  0999 V2000
    2.3875    0.6288   -0.4917 C   0  0  0  0  0  0  0  0  0  0  0  0
    1.5154   -0.5271   -0.1546 C   0  0  0  0  0  0  0  0  0  0  0  0
    0.1012   -0.1722    0.0640 C   0  0  0  0  0  0  0  0  0  0  0  0
   -0.4673    1.0240   -0.0033 C   0  0  0  0  0  0  0  0  0  0  0  0
   -1.9384    0.9127    0.2949 C   0  0  0  0  0  0  0  0  0  0  0  0
   -2.6587    0.1405   -0.6849 O   0  0  0  0  0  0  0  0  0  0  0  0
   -2.2043   -0.3855    0.6129 C   0  0  0  0  0  0  0  0  0  0  0  0
   -0.9368   -1.1990    0.4141 C   0  0  0  0  0  0  0  0  0  0  0  0
    2.0640    1.5855   -0.0694 H   0  0  0  0  0  0  0  0  0  0  0  0
    2.4238    0.7330   -1.6161 H   0  0  0  0  0  0  0  0  0  0  0  0
    3.4460    0.4849   -0.1904 H   0  0  0  0  0  0  0  0  0  0  0  0
    1.9046   -1.0445    0.7672 H   0  0  0  0  0  0  0  0  0  0  0  0
    1.5311   -1.3130   -0.9531 H   0  0  0  0  0  0  0  0  0  0  0  0
    0.0622    1.9340   -0.2388 H   0  0  0  0  0  0  0  0  0  0  0  0
   -2.4507    1.7976    0.6946 H   0  0  0  0  0  0  0  0  0  0  0  0
   -3.0114   -0.9194    1.1089 H   0  0  0  0  0  0  0  0  0  0  0  0
   -1.0824   -1.9098   -0.4177 H   0  0  0  0  0  0  0  0  0  0  0  0
   -0.6859   -1.7704    1.3038 H   0  0  0  0  0  0  0  0  0  0  0  0
  1  2  1  0
  2  3  1  0
  3  4  2  0
  4  5  1  0
  5  6  1  0
  6  7  1  0
  7  8  1  0
  8  3  1  0
  7  5  1  0
  1  9  1  0
  1 10  1  0
  1 11  1  0
  2 12  1  0
  2 13  1  0
  4 14  1  0
  5 15  1  0
  7 16  1  0
  8 17  1  0
  8 18  1  0
M  END
