
     RDKit          3D

 23 23  0  0  0  0  0  0  0  0999 V2000
    2.2938    0.2690    0.8561 C   0  0  0  0  0  0  0  0  0  0  0  0
    1.5960   -0.7387   -0.0325 C   0  0  0  0  0  0  0  0  0  0  0  0
    0.3402   -0.0653   -0.5564 C   0  0  0  0  0  0  0  0  0  0  0  0
    0.6602    1.0767   -1.2823 O   0  0  0  0  0  0  0  0  0  0  0  0
   -0.5544   -0.9915   -1.3524 C   0  0  0  0  0  0  0  0  0  0  0  0
   -1.5217   -0.9962   -0.2088 C   0  0  0  0  0  0  0  0  0  0  0  0
   -0.7603    0.1220    0.4270 C   0  0  0  0  0  0  0  0  0  0  0  0
   -1.4353    1.4767    0.3719 C   0  0  0  0  0  0  0  0  0  0  0  0
   -0.4716   -0.1896    1.7566 O   0  0  0  0  0  0  0  0  0  0  0  0
    1.5315    0.9192    1.2988 H   0  0  0  0  0  0  0  0  0  0  0  0
    2.9684   -0.2074    1.5947 H   0  0  0  0  0  0  0  0  0  0  0  0
    2.8887    0.9254    0.1581 H   0  0  0  0  0  0  0  0  0  0  0  0
    1.3497   -1.6511    0.5505 H   0  0  0  0  0  0  0  0  0  0  0  0
    2.2311   -1.0684   -0.8755 H   0  0  0  0  0  0  0  0  0  0  0  0
    0.0506    1.2335   -2.0502 H   0  0  0  0  0  0  0  0  0  0  0  0
   -0.0478   -1.9468   -1.5764 H   0  0  0  0  0  0  0  0  0  0  0  0
   -0.9034   -0.5374   -2.2974 H   0  0  0  0  0  0  0  0  0  0  0  0
   -1.4452   -1.9599    0.3440 H   0  0  0  0  0  0  0  0  0  0  0  0
   -2.5693   -0.7712   -0.4956 H   0  0  0  0  0  0  0  0  0  0  0  0
   -2.4946    1.3425    0.6512 H   0  0  0  0  0  0  0  0  0  0  0  0
   -0.9877    2.1256    1.1611 H   0  0  0  0  0  0  0  0  0  0  0  0
   -1.3473    1.9260   -0.6429 H   0  0  0  0  0  0  0  0  0  0  0  0
   -1.3714   -0.2932    2.2003 H   0  0  0  0  0  0  0  0  0  0  0  0
  1  2  1  0
  2  3  1  0
  3  4  1  0
  3  5  1  0
  5  6  1  0
  6  7  1  0
  7  8  1  0
  7  9  1  0
  7  3  1  0
  1 10  1  0
  1 11  1  0
  1 12  1  0
  2 13  1  0
  2 14  1  0
  4 15  1  0
  5 16  1  0
  5 17  1  0
  6 18  1  0
  6 19  1  0
  8 20  1  0
  8 21  1  0
  8 22  1  0
  9 23  1  0
M  END
