
     RDKit          3D

 23 23  0  0  0  0  0  0  0  0999 V2000
    2.3074    0.6059    0.5763 C   0  0  0  0  0  0  0  0  0  0  0  0
    1.2313   -0.4264    0.6096 C   0  0  0  0  0  0  0  0  0  0  0  0
    0.0459   -0.0923   -0.2629 C   0  0  0  0  0  0  0  0  0  0  0  0
    0.3135    0.0756   -1.7157 C   0  0  0  0  0  0  0  0  0  0  0  0
   -0.8442    0.9945    0.3563 C   0  0  0  0  0  0  0  0  0  0  0  0
   -0.7297    0.9182    1.7380 O   0  0  0  0  0  0  0  0  0  0  0  0
   -2.0252    0.1482   -0.1390 C   0  0  0  0  0  0  0  0  0  0  0  0
   -1.0928   -1.0496    0.0369 C   0  0  0  0  0  0  0  0  0  0  0  0
   -1.2727   -2.0726   -0.8547 O   0  0  0  0  0  0  0  0  0  0  0  0
    2.5231    0.9085    1.6329 H   0  0  0  0  0  0  0  0  0  0  0  0
    3.2669    0.1709    0.1936 H   0  0  0  0  0  0  0  0  0  0  0  0
    2.0249    1.5234    0.0201 H   0  0  0  0  0  0  0  0  0  0  0  0
    1.5879   -1.4376    0.2716 H   0  0  0  0  0  0  0  0  0  0  0  0
    0.8311   -0.5818    1.6393 H   0  0  0  0  0  0  0  0  0  0  0  0
   -0.5113    0.6823   -2.1649 H   0  0  0  0  0  0  0  0  0  0  0  0
    0.3578   -0.8727   -2.2859 H   0  0  0  0  0  0  0  0  0  0  0  0
    1.2494    0.6252   -1.8907 H   0  0  0  0  0  0  0  0  0  0  0  0
   -0.7494    1.9723   -0.1010 H   0  0  0  0  0  0  0  0  0  0  0  0
   -1.2951    1.5773    2.2037 H   0  0  0  0  0  0  0  0  0  0  0  0
   -2.8353    0.2218    0.5846 H   0  0  0  0  0  0  0  0  0  0  0  0
   -2.3119    0.3596   -1.1771 H   0  0  0  0  0  0  0  0  0  0  0  0
   -1.1100   -1.3338    1.1235 H   0  0  0  0  0  0  0  0  0  0  0  0
   -0.9616   -2.9168   -0.3947 H   0  0  0  0  0  0  0  0  0  0  0  0
  1  2  1  0
  2  3  1  0
  3  4  1  0
  3  5  1  0
  5  6  1  0
  5  7  1  0
  7  8  1  0
  8  9  1  0
  8  3  1  0
  1 10  1  0
  1 11  1  0
  1 12  1  0
  2 13  1  0
  2 14  1  0
  4 15  1  0
  4 16  1  0
  4 17  1  0
  5 18  1  0
  6 19  1  0
  7 20  1  0
  7 21  1  0
  8 22  1  0
  9 23  1  0
M  END
