
     RDKit          3D

 20 21  0  0  0  0  0  0  0  0999 V2000
   -2.3276    0.5690    0.2042 C   0  0  0  0  0  0  0  0  0  0  0  0
   -1.4388   -0.4974   -0.3979 C   0  0  0  0  0  0  0  0  0  0  0  0
   -0.1075   -0.2674   -0.1695 C   0  0  0  0  0  0  0  0  0  0  0  0
    0.7321    0.8844   -0.5642 C   0  0  0  0  0  0  0  0  0  0  0  0
    1.7073   -0.0407    0.1562 C   0  0  0  0  0  0  0  0  0  0  0  0
    2.9188    0.1561    0.3652 O   0  0  0  0  0  0  0  0  0  0  0  0
    1.0417   -1.1387   -0.6294 C   0  0  0  0  0  0  0  0  0  0  0  0
    0.5938   -0.2321    1.1598 C   0  0  0  0  0  0  0  0  0  0  0  0
   -1.7416    1.4489    0.5607 H   0  0  0  0  0  0  0  0  0  0  0  0
   -3.0497    0.9622   -0.5349 H   0  0  0  0  0  0  0  0  0  0  0  0
   -2.9165    0.2024    1.0697 H   0  0  0  0  0  0  0  0  0  0  0  0
   -1.6918   -0.5998   -1.4736 H   0  0  0  0  0  0  0  0  0  0  0  0
   -1.7883   -1.4671    0.0613 H   0  0  0  0  0  0  0  0  0  0  0  0
    0.5643    1.8490   -0.0695 H   0  0  0  0  0  0  0  0  0  0  0  0
    0.9613    0.9238   -1.6468 H   0  0  0  0  0  0  0  0  0  0  0  0
    3.2629    1.0632    0.2960 H   0  0  0  0  0  0  0  0  0  0  0  0
    1.2884   -1.0967   -1.6893 H   0  0  0  0  0  0  0  0  0  0  0  0
    1.0504   -2.1385   -0.1498 H   0  0  0  0  0  0  0  0  0  0  0  0
    0.5750   -1.2200    1.6548 H   0  0  0  0  0  0  0  0  0  0  0  0
    0.3657    0.6396    1.7967 H   0  0  0  0  0  0  0  0  0  0  0  0
  1  2  1  0
  2  3  1  0
  3  4  1  0
  4  5  1  0
  5  6  1  0
  5  7  1  0
  5  8  1  0
  7  3  1  0
  8  3  1  0
  1  9  1  0
  1 10  1  0
  1 11  1  0
  2 12  1  0
  2 13  1  0
  4 14  1  0
  4 15  1  0
  6 16  1  0
  7 17  1  0
  7 18  1  0
  8 19  1  0
  8 20  1  0
M  END
