
     RDKit          3D

 23 23  0  0  0  0  0  0  0  0999 V2000
    2.3380    0.3106   -0.8027 C   0  0  0  0  0  0  0  0  0  0  0  0
    1.5312    1.0076    0.2545 C   0  0  0  0  0  0  0  0  0  0  0  0
    0.3984    0.1585    0.7100 C   0  0  0  0  0  0  0  0  0  0  0  0
   -0.6302   -0.2494   -0.3278 C   0  0  0  0  0  0  0  0  0  0  0  0
   -0.1619   -1.3962   -1.2026 C   0  0  0  0  0  0  0  0  0  0  0  0
   -1.8063   -0.6451    0.3599 O   0  0  0  0  0  0  0  0  0  0  0  0
   -2.8324    0.1984   -0.0431 C   0  0  0  0  0  0  0  0  0  0  0  0
    0.0411    0.2633    2.1102 C   0  0  0  0  0  0  0  0  0  0  0  0
    0.8217   -0.8873    1.6264 O   0  0  0  0  0  0  0  0  0  0  0  0
    2.7837   -0.6559   -0.4488 H   0  0  0  0  0  0  0  0  0  0  0  0
    3.2417    0.9628   -1.0310 H   0  0  0  0  0  0  0  0  0  0  0  0
    1.7929    0.1547   -1.7370 H   0  0  0  0  0  0  0  0  0  0  0  0
    1.0835    1.9018   -0.2449 H   0  0  0  0  0  0  0  0  0  0  0  0
    2.1926    1.3349    1.0833 H   0  0  0  0  0  0  0  0  0  0  0  0
   -0.9076    0.6021   -0.9628 H   0  0  0  0  0  0  0  0  0  0  0  0
   -0.9573   -2.1992   -1.1610 H   0  0  0  0  0  0  0  0  0  0  0  0
    0.7936   -1.8420   -0.8934 H   0  0  0  0  0  0  0  0  0  0  0  0
   -0.1010   -1.1421   -2.2753 H   0  0  0  0  0  0  0  0  0  0  0  0
   -3.0323    0.1600   -1.1294 H   0  0  0  0  0  0  0  0  0  0  0  0
   -3.7297   -0.0911    0.5498 H   0  0  0  0  0  0  0  0  0  0  0  0
   -2.5560    1.2331    0.2618 H   0  0  0  0  0  0  0  0  0  0  0  0
    0.5882    0.9490    2.7560 H   0  0  0  0  0  0  0  0  0  0  0  0
   -0.8919   -0.1286    2.5476 H   0  0  0  0  0  0  0  0  0  0  0  0
  1  2  1  0
  2  3  1  0
  3  4  1  0
  4  5  1  0
  4  6  1  0
  6  7  1  0
  3  8  1  0
  8  9  1  0
  9  3  1  0
  1 10  1  0
  1 11  1  0
  1 12  1  0
  2 13  1  0
  2 14  1  0
  4 15  1  0
  5 16  1  0
  5 17  1  0
  5 18  1  0
  7 19  1  0
  7 20  1  0
  7 21  1  0
  8 22  1  0
  8 23  1  0
M  END
