
     RDKit          3D

 21 22  0  0  0  0  0  0  0  0999 V2000
   -2.5813    0.4926    0.2857 C   0  0  0  0  0  0  0  0  0  0  0  0
   -1.5565    0.0808   -0.7331 C   0  0  0  0  0  0  0  0  0  0  0  0
   -0.3030   -0.4850   -0.0962 C   0  0  0  0  0  0  0  0  0  0  0  0
    0.2559    0.6430    0.7880 C   0  0  0  0  0  0  0  0  0  0  0  0
    1.5175    0.4305    1.2389 O   0  0  0  0  0  0  0  0  0  0  0  0
    2.4387    0.0127    0.2648 C   0  0  0  0  0  0  0  0  0  0  0  0
    1.8935   -1.2324   -0.2989 C   0  0  0  0  0  0  0  0  0  0  0  0
    1.5295   -1.6351   -1.4869 O   0  0  0  0  0  0  0  0  0  0  0  0
    0.7164   -0.6751   -1.1461 C   0  0  0  0  0  0  0  0  0  0  0  0
   -3.4791    0.8248   -0.2642 H   0  0  0  0  0  0  0  0  0  0  0  0
   -2.2005    1.3716    0.8335 H   0  0  0  0  0  0  0  0  0  0  0  0
   -2.8382   -0.3598    0.9527 H   0  0  0  0  0  0  0  0  0  0  0  0
   -1.9570   -0.5979   -1.5115 H   0  0  0  0  0  0  0  0  0  0  0  0
   -1.2256    1.0042   -1.2834 H   0  0  0  0  0  0  0  0  0  0  0  0
   -0.5205   -1.3817    0.5107 H   0  0  0  0  0  0  0  0  0  0  0  0
   -0.4012    0.8396    1.6336 H   0  0  0  0  0  0  0  0  0  0  0  0
    0.2663    1.5574    0.1272 H   0  0  0  0  0  0  0  0  0  0  0  0
    2.4907    0.8562   -0.4778 H   0  0  0  0  0  0  0  0  0  0  0  0
    3.4181   -0.0674    0.7489 H   0  0  0  0  0  0  0  0  0  0  0  0
    1.6219   -1.9696    0.5156 H   0  0  0  0  0  0  0  0  0  0  0  0
    0.9145    0.2904   -1.7026 H   0  0  0  0  0  0  0  0  0  0  0  0
  1  2  1  0
  2  3  1  0
  3  4  1  0
  4  5  1  0
  5  6  1  0
  6  7  1  0
  7  8  1  0
  8  9  1  0
  9  3  1  0
  9  7  1  0
  1 10  1  0
  1 11  1  0
  1 12  1  0
  2 13  1  0
  2 14  1  0
  3 15  1  0
  4 16  1  0
  4 17  1  0
  6 18  1  0
  6 19  1  0
  7 20  1  0
  9 21  1  0
M  END
