
     RDKit          3D

 21 22  0  0  0  0  0  0  0  0999 V2000
    2.4577   -0.4493    0.6539 C   0  0  0  0  0  0  0  0  0  0  0  0
    1.6028   -0.1659   -0.5381 C   0  0  0  0  0  0  0  0  0  0  0  0
    0.2810    0.4581   -0.1849 C   0  0  0  0  0  0  0  0  0  0  0  0
    0.3854    1.6751    0.4782 O   0  0  0  0  0  0  0  0  0  0  0  0
   -0.6974    0.5746   -1.3285 C   0  0  0  0  0  0  0  0  0  0  0  0
   -1.8158    0.0625   -0.4935 C   0  0  0  0  0  0  0  0  0  0  0  0
   -2.6384   -0.8652   -1.0870 O   0  0  0  0  0  0  0  0  0  0  0  0
   -1.9282    0.2463    0.9571 C   0  0  0  0  0  0  0  0  0  0  0  0
   -0.7193   -0.4579    0.4725 C   0  0  0  0  0  0  0  0  0  0  0  0
    3.4995   -0.5762    0.3203 H   0  0  0  0  0  0  0  0  0  0  0  0
    2.0902   -1.2583    1.2950 H   0  0  0  0  0  0  0  0  0  0  0  0
    2.4522    0.4763    1.2882 H   0  0  0  0  0  0  0  0  0  0  0  0
    1.4503   -1.0340   -1.1979 H   0  0  0  0  0  0  0  0  0  0  0  0
    2.1518    0.5921   -1.1610 H   0  0  0  0  0  0  0  0  0  0  0  0
    0.4687    1.5567    1.4556 H   0  0  0  0  0  0  0  0  0  0  0  0
   -0.4079   -0.1510   -2.1245 H   0  0  0  0  0  0  0  0  0  0  0  0
   -0.7993    1.6249   -1.7087 H   0  0  0  0  0  0  0  0  0  0  0  0
   -2.8333   -1.6423   -0.4854 H   0  0  0  0  0  0  0  0  0  0  0  0
   -2.6630   -0.3579    1.4871 H   0  0  0  0  0  0  0  0  0  0  0  0
   -1.7209    1.2263    1.4562 H   0  0  0  0  0  0  0  0  0  0  0  0
   -0.6161   -1.5350    0.4456 H   0  0  0  0  0  0  0  0  0  0  0  0
  1  2  1  0
  2  3  1  0
  3  4  1  0
  3  5  1  0
  5  6  1  0
  6  7  1  0
  6  8  1  0
  8  9  1  0
  9  3  1  0
  9  6  1  0
  1 10  1  0
  1 11  1  0
  1 12  1  0
  2 13  1  0
  2 14  1  0
  4 15  1  0
  5 16  1  0
  5 17  1  0
  7 18  1  0
  8 19  1  0
  8 20  1  0
  9 21  1  0
M  END
