
     RDKit          3D

 17 18  0  0  0  0  0  0  0  0999 V2000
   -2.0388    0.6320    0.7179 C   0  0  0  0  0  0  0  0  0  0  0  0
   -1.1124   -0.4687    0.2576 C   0  0  0  0  0  0  0  0  0  0  0  0
    0.2509    0.0298   -0.1078 C   0  0  0  0  0  0  0  0  0  0  0  0
    0.3200    0.9530   -1.1181 O   0  0  0  0  0  0  0  0  0  0  0  0
    1.3116   -1.0169   -0.1143 C   0  0  0  0  0  0  0  0  0  0  0  0
    1.1560   -1.0477    1.2687 O   0  0  0  0  0  0  0  0  0  0  0  0
    1.1907    0.3174    1.0243 C   0  0  0  0  0  0  0  0  0  0  0  0
    2.2774    0.0411    0.1070 C   0  0  0  0  0  0  0  0  0  0  0  0
    3.3448    0.3903   -0.3005 O   0  0  0  0  0  0  0  0  0  0  0  0
   -3.0774    0.2133    0.6809 H   0  0  0  0  0  0  0  0  0  0  0  0
   -1.7834    1.0174    1.7148 H   0  0  0  0  0  0  0  0  0  0  0  0
   -2.0225    1.4632   -0.0137 H   0  0  0  0  0  0  0  0  0  0  0  0
   -1.0496   -1.2748    0.9938 H   0  0  0  0  0  0  0  0  0  0  0  0
   -1.5716   -0.9225   -0.6622 H   0  0  0  0  0  0  0  0  0  0  0  0
    0.3210    0.4458   -1.9903 H   0  0  0  0  0  0  0  0  0  0  0  0
    1.3778   -1.8232   -0.7149 H   0  0  0  0  0  0  0  0  0  0  0  0
    1.1056    1.0506    1.7084 H   0  0  0  0  0  0  0  0  0  0  0  0
  1  2  1  0
  2  3  1  0
  3  4  1  0
  3  5  1  0
  5  6  1  0
  6  7  1  0
  7  8  1  0
  8  9  2  0
  7  3  1  0
  8  5  1  0
  1 10  1  0
  1 11  1  0
  1 12  1  0
  2 13  1  0
  2 14  1  0
  4 15  1  0
  5 16  1  0
  7 17  1  0
M  END
