
     RDKit          3D

 23 24  0  0  0  0  0  0  0  0999 V2000
    2.8303    0.1821    0.6119 C   0  0  0  0  0  0  0  0  0  0  0  0
    1.9143    0.0988   -0.6038 C   0  0  0  0  0  0  0  0  0  0  0  0
    0.5531   -0.3669   -0.2149 C   0  0  0  0  0  0  0  0  0  0  0  0
   -0.0407   -1.4474   -0.6599 C   0  0  0  0  0  0  0  0  0  0  0  0
   -1.4018   -1.6087   -0.0579 C   0  0  0  0  0  0  0  0  0  0  0  0
   -1.6464   -0.3367    0.6832 C   0  0  0  0  0  0  0  0  0  0  0  0
   -2.1730    0.7608   -0.2130 C   0  0  0  0  0  0  0  0  0  0  0  0
   -0.9741    1.5961    0.2069 C   0  0  0  0  0  0  0  0  0  0  0  0
   -0.3146    0.3553    0.7468 C   0  0  0  0  0  0  0  0  0  0  0  0
    3.6106    0.9120    0.4052 H   0  0  0  0  0  0  0  0  0  0  0  0
    3.2964   -0.8089    0.7906 H   0  0  0  0  0  0  0  0  0  0  0  0
    2.2243    0.4557    1.5077 H   0  0  0  0  0  0  0  0  0  0  0  0
    1.8802    1.1277   -1.0258 H   0  0  0  0  0  0  0  0  0  0  0  0
    2.3948   -0.5444   -1.3489 H   0  0  0  0  0  0  0  0  0  0  0  0
    0.3687   -2.1586   -1.3731 H   0  0  0  0  0  0  0  0  0  0  0  0
   -1.3100   -2.4247    0.6905 H   0  0  0  0  0  0  0  0  0  0  0  0
   -2.1318   -1.8233   -0.8564 H   0  0  0  0  0  0  0  0  0  0  0  0
   -2.1260   -0.4154    1.6768 H   0  0  0  0  0  0  0  0  0  0  0  0
   -2.1710    0.4911   -1.3029 H   0  0  0  0  0  0  0  0  0  0  0  0
   -3.1457    1.1145    0.1592 H   0  0  0  0  0  0  0  0  0  0  0  0
   -1.2858    2.2802    1.0226 H   0  0  0  0  0  0  0  0  0  0  0  0
   -0.4482    2.0819   -0.6440 H   0  0  0  0  0  0  0  0  0  0  0  0
    0.0964    0.4788    1.7495 H   0  0  0  0  0  0  0  0  0  0  0  0
  1  2  1  0
  2  3  1  0
  3  4  2  0
  4  5  1  0
  5  6  1  0
  6  7  1  0
  7  8  1  0
  8  9  1  0
  9  3  1  0
  9  6  1  0
  1 10  1  0
  1 11  1  0
  1 12  1  0
  2 13  1  0
  2 14  1  0
  4 15  1  0
  5 16  1  0
  5 17  1  0
  6 18  1  0
  7 19  1  0
  7 20  1  0
  8 21  1  0
  8 22  1  0
  9 23  1  0
M  END
