
     RDKit          3D

 23 23  0  0  0  0  0  0  0  0999 V2000
   -1.7880   -1.5085    0.0748 C   0  0  0  0  0  0  0  0  0  0  0  0
   -0.8947   -0.5946    0.9271 C   0  0  0  0  0  0  0  0  0  0  0  0
   -0.0107    0.1489   -0.0068 C   0  0  0  0  0  0  0  0  0  0  0  0
   -0.7178    0.9162   -0.9047 O   0  0  0  0  0  0  0  0  0  0  0  0
   -1.5146    1.8742   -0.2940 C   0  0  0  0  0  0  0  0  0  0  0  0
    0.8519   -0.8591   -0.7810 C   0  0  0  0  0  0  0  0  0  0  0  0
    2.0385   -0.0068   -0.4758 C   0  0  0  0  0  0  0  0  0  0  0  0
    3.0868   -0.6935    0.1462 O   0  0  0  0  0  0  0  0  0  0  0  0
    1.2350    0.7607    0.5502 C   0  0  0  0  0  0  0  0  0  0  0  0
   -1.7847   -1.1660   -0.9966 H   0  0  0  0  0  0  0  0  0  0  0  0
   -1.4066   -2.5413    0.0549 H   0  0  0  0  0  0  0  0  0  0  0  0
   -2.8189   -1.4071    0.4258 H   0  0  0  0  0  0  0  0  0  0  0  0
   -1.4692   -0.0006    1.6320 H   0  0  0  0  0  0  0  0  0  0  0  0
   -0.2655   -1.2919    1.5499 H   0  0  0  0  0  0  0  0  0  0  0  0
   -2.0753    2.4856   -1.0320 H   0  0  0  0  0  0  0  0  0  0  0  0
   -2.2640    1.4183    0.4158 H   0  0  0  0  0  0  0  0  0  0  0  0
   -0.8390    2.5451    0.2738 H   0  0  0  0  0  0  0  0  0  0  0  0
    0.5573   -0.9822   -1.8232 H   0  0  0  0  0  0  0  0  0  0  0  0
    0.9442   -1.8419   -0.2712 H   0  0  0  0  0  0  0  0  0  0  0  0
    2.3913    0.5710   -1.3359 H   0  0  0  0  0  0  0  0  0  0  0  0
    3.9351   -0.2533   -0.0611 H   0  0  0  0  0  0  0  0  0  0  0  0
    1.3359    1.8534    0.3334 H   0  0  0  0  0  0  0  0  0  0  0  0
    1.4730    0.5736    1.5983 H   0  0  0  0  0  0  0  0  0  0  0  0
  1  2  1  0
  2  3  1  0
  3  4  1  0
  4  5  1  0
  3  6  1  0
  6  7  1  0
  7  8  1  0
  7  9  1  0
  9  3  1  0
  1 10  1  0
  1 11  1  0
  1 12  1  0
  2 13  1  0
  2 14  1  0
  5 15  1  0
  5 16  1  0
  5 17  1  0
  6 18  1  0
  6 19  1  0
  7 20  1  0
  8 21  1  0
  9 22  1  0
  9 23  1  0
M  END
