
     RDKit          3D

 20 21  0  0  0  0  0  0  0  0999 V2000
   -2.6493    0.3118   -0.6093 C   0  0  0  0  0  0  0  0  0  0  0  0
   -1.6128   -0.8015   -0.5972 C   0  0  0  0  0  0  0  0  0  0  0  0
   -0.2683   -0.1332   -0.4281 C   0  0  0  0  0  0  0  0  0  0  0  0
   -0.0401    0.6870    0.8054 C   0  0  0  0  0  0  0  0  0  0  0  0
    0.7134   -0.5689    0.5571 C   0  0  0  0  0  0  0  0  0  0  0  0
    1.6426   -0.5497   -0.6197 C   0  0  0  0  0  0  0  0  0  0  0  0
    2.7205    0.5123   -0.5776 C   0  0  0  0  0  0  0  0  0  0  0  0
    0.6217   -0.0900   -1.4786 O   0  0  0  0  0  0  0  0  0  0  0  0
   -3.4950    0.0919    0.0813 H   0  0  0  0  0  0  0  0  0  0  0  0
   -2.2291    1.2790   -0.2763 H   0  0  0  0  0  0  0  0  0  0  0  0
   -3.0060    0.4888   -1.6602 H   0  0  0  0  0  0  0  0  0  0  0  0
   -1.6804   -1.4013   -1.5059 H   0  0  0  0  0  0  0  0  0  0  0  0
   -1.7629   -1.4640    0.2937 H   0  0  0  0  0  0  0  0  0  0  0  0
    0.4282    1.6590    0.6427 H   0  0  0  0  0  0  0  0  0  0  0  0
   -0.8427    0.6162    1.5608 H   0  0  0  0  0  0  0  0  0  0  0  0
    0.6174   -1.4538    1.1898 H   0  0  0  0  0  0  0  0  0  0  0  0
    2.0032   -1.5364   -0.9339 H   0  0  0  0  0  0  0  0  0  0  0  0
    2.8578    0.8421   -1.6447 H   0  0  0  0  0  0  0  0  0  0  0  0
    3.6495    0.1117   -0.1613 H   0  0  0  0  0  0  0  0  0  0  0  0
    2.3322    1.3992   -0.0433 H   0  0  0  0  0  0  0  0  0  0  0  0
  1  2  1  0
  2  3  1  0
  3  4  1  0
  4  5  1  0
  5  6  1  0
  6  7  1  0
  6  8  1  0
  5  3  1  0
  8  3  1  0
  1  9  1  0
  1 10  1  0
  1 11  1  0
  2 12  1  0
  2 13  1  0
  4 14  1  0
  4 15  1  0
  5 16  1  0
  6 17  1  0
  7 18  1  0
  7 19  1  0
  7 20  1  0
M  END
