
     RDKit          3D

 18 18  0  0  0  0  0  0  0  0999 V2000
    1.9759    0.6356   -0.3192 C   0  0  0  0  0  0  0  0  0  0  0  0
    1.5229   -0.6218    0.3426 C   0  0  0  0  0  0  0  0  0  0  0  0
    0.0375   -0.8005    0.3837 C   0  0  0  0  0  0  0  0  0  0  0  0
   -0.7340    0.2655    1.1100 C   0  0  0  0  0  0  0  0  0  0  0  0
   -1.8050    0.0216    0.0354 C   0  0  0  0  0  0  0  0  0  0  0  0
   -2.4804    1.1537   -0.3617 O   0  0  0  0  0  0  0  0  0  0  0  0
   -0.7041   -0.4344   -0.8427 C   0  0  0  0  0  0  0  0  0  0  0  0
   -0.4998   -0.4858   -2.0287 O   0  0  0  0  0  0  0  0  0  0  0  0
    2.9919    0.9056    0.0931 H   0  0  0  0  0  0  0  0  0  0  0  0
    1.3130    1.5050   -0.1603 H   0  0  0  0  0  0  0  0  0  0  0  0
    2.1690    0.4436   -1.4069 H   0  0  0  0  0  0  0  0  0  0  0  0
    1.9437   -1.4771   -0.2333 H   0  0  0  0  0  0  0  0  0  0  0  0
    1.9094   -0.7312    1.3739 H   0  0  0  0  0  0  0  0  0  0  0  0
   -0.2202   -1.7983    0.7746 H   0  0  0  0  0  0  0  0  0  0  0  0
   -0.3633    1.3005    0.9843 H   0  0  0  0  0  0  0  0  0  0  0  0
   -1.1318    0.0073    2.0981 H   0  0  0  0  0  0  0  0  0  0  0  0
   -2.4655   -0.8342    0.3551 H   0  0  0  0  0  0  0  0  0  0  0  0
   -3.4592    0.9452   -0.3172 H   0  0  0  0  0  0  0  0  0  0  0  0
  1  2  1  0
  2  3  1  0
  3  4  1  0
  4  5  1  0
  5  6  1  0
  5  7  1  0
  7  8  2  0
  7  3  1  0
  1  9  1  0
  1 10  1  0
  1 11  1  0
  2 12  1  0
  2 13  1  0
  3 14  1  0
  4 15  1  0
  4 16  1  0
  5 17  1  0
  6 18  1  0
M  END
