
     RDKit          3D

 19 20  0  0  0  0  0  0  0  0999 V2000
    2.2415    0.6991    0.2421 C   0  0  0  0  0  0  0  0  0  0  0  0
    1.3111    0.2401   -0.8345 C   0  0  0  0  0  0  0  0  0  0  0  0
    0.0179   -0.2749   -0.3849 C   0  0  0  0  0  0  0  0  0  0  0  0
   -0.1348   -1.4555    0.5253 C   0  0  0  0  0  0  0  0  0  0  0  0
   -1.6173   -1.0573    0.6494 C   0  0  0  0  0  0  0  0  0  0  0  0
   -1.2320    0.1473   -0.2156 C   0  0  0  0  0  0  0  0  0  0  0  0
   -1.9387    1.4035   -0.1027 C   0  0  0  0  0  0  0  0  0  0  0  0
   -2.2546    1.9006    0.9437 O   0  0  0  0  0  0  0  0  0  0  0  0
   -0.9234   -0.3189   -1.5372 O   0  0  0  0  0  0  0  0  0  0  0  0
    2.6289   -0.1214    0.8792 H   0  0  0  0  0  0  0  0  0  0  0  0
    1.7404    1.4772    0.8436 H   0  0  0  0  0  0  0  0  0  0  0  0
    3.1483    1.1257   -0.2707 H   0  0  0  0  0  0  0  0  0  0  0  0
    1.8684   -0.5471   -1.4248 H   0  0  0  0  0  0  0  0  0  0  0  0
    1.1582    1.0838   -1.5332 H   0  0  0  0  0  0  0  0  0  0  0  0
    0.4016   -1.2980    1.4592 H   0  0  0  0  0  0  0  0  0  0  0  0
    0.0245   -2.4081   -0.0036 H   0  0  0  0  0  0  0  0  0  0  0  0
   -1.9271   -0.8158    1.6660 H   0  0  0  0  0  0  0  0  0  0  0  0
   -2.3016   -1.7306    0.1194 H   0  0  0  0  0  0  0  0  0  0  0  0
   -2.2114    1.9504   -1.0205 H   0  0  0  0  0  0  0  0  0  0  0  0
  1  2  1  0
  2  3  1  0
  3  4  1  0
  4  5  1  0
  5  6  1  0
  6  7  1  0
  7  8  2  0
  6  9  1  0
  6  3  1  0
  9  3  1  0
  1 10  1  0
  1 11  1  0
  1 12  1  0
  2 13  1  0
  2 14  1  0
  4 15  1  0
  4 16  1  0
  5 17  1  0
  5 18  1  0
  7 19  1  0
M  END
