
     RDKit          3D

 17 18  0  0  0  0  0  0  0  0999 V2000
    2.0802    0.5854   -0.0104 C   0  0  0  0  0  0  0  0  0  0  0  0
    1.0380   -0.5023    0.2861 C   0  0  0  0  0  0  0  0  0  0  0  0
   -0.1644   -0.2549   -0.3420 C   0  0  0  0  0  0  0  0  0  0  0  0
   -1.4003   -1.0901   -0.2838 C   0  0  0  0  0  0  0  0  0  0  0  0
   -1.6595    0.0344   -1.2327 C   0  0  0  0  0  0  0  0  0  0  0  0
   -1.0301    0.9478   -0.2229 C   0  0  0  0  0  0  0  0  0  0  0  0
   -0.3766   -0.1798   -1.7155 O   0  0  0  0  0  0  0  0  0  0  0  0
    2.1167    1.3255    0.8164 H   0  0  0  0  0  0  0  0  0  0  0  0
    3.0983    0.1480   -0.0941 H   0  0  0  0  0  0  0  0  0  0  0  0
    1.8081    1.0453   -0.9775 H   0  0  0  0  0  0  0  0  0  0  0  0
    0.9764   -0.5472    1.3933 H   0  0  0  0  0  0  0  0  0  0  0  0
    1.5120   -1.4576   -0.0246 H   0  0  0  0  0  0  0  0  0  0  0  0
   -1.9390   -1.0640    0.6809 H   0  0  0  0  0  0  0  0  0  0  0  0
   -1.3362   -2.0887   -0.7677 H   0  0  0  0  0  0  0  0  0  0  0  0
   -2.4932    0.2075   -1.7741 H   0  0  0  0  0  0  0  0  0  0  0  0
   -1.5356    1.0121    0.7589 H   0  0  0  0  0  0  0  0  0  0  0  0
   -0.6948    1.8789   -0.6782 H   0  0  0  0  0  0  0  0  0  0  0  0
  1  2  1  0
  2  3  1  0
  3  4  1  0
  4  5  1  0
  5  6  1  0
  5  7  1  0
  6  3  1  0
  7  3  1  0
  1  8  1  0
  1  9  1  0
  1 10  1  0
  2 11  1  0
  2 12  1  0
  4 13  1  0
  4 14  1  0
  5 15  1  0
  6 16  1  0
  6 17  1  0
M  END
