
     RDKit          3D

 23 24  0  0  0  0  0  0  0  0999 V2000
    2.9603    0.3181   -0.4269 C   0  0  0  0  0  0  0  0  0  0  0  0
    1.9391   -0.7683   -0.3999 C   0  0  0  0  0  0  0  0  0  0  0  0
    0.5184   -0.2748   -0.4917 C   0  0  0  0  0  0  0  0  0  0  0  0
   -0.0670    0.6299    0.4908 C   0  0  0  0  0  0  0  0  0  0  0  0
   -1.2592    1.4614    0.1401 C   0  0  0  0  0  0  0  0  0  0  0  0
   -2.1428    0.5847   -0.7466 C   0  0  0  0  0  0  0  0  0  0  0  0
   -1.9801   -0.7385   -0.0634 C   0  0  0  0  0  0  0  0  0  0  0  0
   -0.5413   -0.8205    0.4009 C   0  0  0  0  0  0  0  0  0  0  0  0
   -0.2365   -1.6789    1.4282 O   0  0  0  0  0  0  0  0  0  0  0  0
    2.6376    1.2656    0.0225 H   0  0  0  0  0  0  0  0  0  0  0  0
    3.3181    0.5520   -1.4534 H   0  0  0  0  0  0  0  0  0  0  0  0
    3.8750   -0.0469    0.1265 H   0  0  0  0  0  0  0  0  0  0  0  0
    2.0135   -1.3809    0.5471 H   0  0  0  0  0  0  0  0  0  0  0  0
    2.1804   -1.4822   -1.2149 H   0  0  0  0  0  0  0  0  0  0  0  0
    0.1902   -0.1124   -1.5519 H   0  0  0  0  0  0  0  0  0  0  0  0
    0.3931    0.8686    1.4633 H   0  0  0  0  0  0  0  0  0  0  0  0
   -1.0003    2.4050   -0.3837 H   0  0  0  0  0  0  0  0  0  0  0  0
   -1.8731    1.6861    1.0408 H   0  0  0  0  0  0  0  0  0  0  0  0
   -1.8403    0.5965   -1.7915 H   0  0  0  0  0  0  0  0  0  0  0  0
   -3.2052    0.8801   -0.6876 H   0  0  0  0  0  0  0  0  0  0  0  0
   -2.2910   -1.5965   -0.6683 H   0  0  0  0  0  0  0  0  0  0  0  0
   -2.6392   -0.7088    0.8480 H   0  0  0  0  0  0  0  0  0  0  0  0
   -0.9497   -1.6392    2.1037 H   0  0  0  0  0  0  0  0  0  0  0  0
  1  2  1  0
  2  3  1  0
  3  4  1  0
  4  5  1  0
  5  6  1  0
  6  7  1  0
  7  8  1  0
  8  9  1  0
  8  3  1  0
  8  4  1  0
  1 10  1  0
  1 11  1  0
  1 12  1  0
  2 13  1  0
  2 14  1  0
  3 15  1  0
  4 16  1  0
  5 17  1  0
  5 18  1  0
  6 19  1  0
  6 20  1  0
  7 21  1  0
  7 22  1  0
  9 23  1  0
M  END
