
     RDKit          3D

 23 24  0  0  0  0  0  0  0  0999 V2000
    2.8870    0.3896   -0.4563 C   0  0  0  0  0  0  0  0  0  0  0  0
    1.9730   -0.8211   -0.2342 C   0  0  0  0  0  0  0  0  0  0  0  0
    0.7128   -0.4311    0.4163 C   0  0  0  0  0  0  0  0  0  0  0  0
    0.2644   -0.8678    1.5780 C   0  0  0  0  0  0  0  0  0  0  0  0
   -1.0356   -0.2721    1.9375 C   0  0  0  0  0  0  0  0  0  0  0  0
   -1.4757    0.4721    0.7411 C   0  0  0  0  0  0  0  0  0  0  0  0
   -1.5450   -0.1554   -0.6092 C   0  0  0  0  0  0  0  0  0  0  0  0
   -2.2818    0.5548   -1.7055 C   0  0  0  0  0  0  0  0  0  0  0  0
   -0.2783    0.5240   -0.1279 C   0  0  0  0  0  0  0  0  0  0  0  0
    2.3002    1.1396   -1.0276 H   0  0  0  0  0  0  0  0  0  0  0  0
    3.2066    0.7217    0.5313 H   0  0  0  0  0  0  0  0  0  0  0  0
    3.7376   -0.0094   -1.0752 H   0  0  0  0  0  0  0  0  0  0  0  0
    2.5340   -1.5952    0.3019 H   0  0  0  0  0  0  0  0  0  0  0  0
    1.8082   -1.2349   -1.2730 H   0  0  0  0  0  0  0  0  0  0  0  0
    0.7691   -1.5992    2.2466 H   0  0  0  0  0  0  0  0  0  0  0  0
   -1.7449   -1.0495    2.2878 H   0  0  0  0  0  0  0  0  0  0  0  0
   -0.8922    0.4497    2.7897 H   0  0  0  0  0  0  0  0  0  0  0  0
   -1.9748    1.4453    0.9318 H   0  0  0  0  0  0  0  0  0  0  0  0
   -1.5685   -1.2619   -0.7029 H   0  0  0  0  0  0  0  0  0  0  0  0
   -3.1555    1.0717   -1.2650 H   0  0  0  0  0  0  0  0  0  0  0  0
   -1.5805    1.2243   -2.2265 H   0  0  0  0  0  0  0  0  0  0  0  0
   -2.7092   -0.1572   -2.4693 H   0  0  0  0  0  0  0  0  0  0  0  0
    0.0490    1.4621   -0.5895 H   0  0  0  0  0  0  0  0  0  0  0  0
  1  2  1  0
  2  3  1  0
  3  4  2  0
  4  5  1  0
  5  6  1  0
  6  7  1  0
  7  8  1  0
  7  9  1  0
  9  3  1  0
  9  6  1  0
  1 10  1  0
  1 11  1  0
  1 12  1  0
  2 13  1  0
  2 14  1  0
  4 15  1  0
  5 16  1  0
  5 17  1  0
  6 18  1  0
  7 19  1  0
  8 20  1  0
  8 21  1  0
  8 22  1  0
  9 23  1  0
M  END
