
     RDKit          3D

 21 21  0  0  0  0  0  0  0  0999 V2000
    2.8637    0.1402    0.0677 C   0  0  0  0  0  0  0  0  0  0  0  0
    1.6181    0.7991   -0.4768 C   0  0  0  0  0  0  0  0  0  0  0  0
    0.4439    0.3422    0.3480 C   0  0  0  0  0  0  0  0  0  0  0  0
    0.2653   -1.1360    0.2991 C   0  0  0  0  0  0  0  0  0  0  0  0
   -1.0319   -1.4169    0.3737 C   0  0  0  0  0  0  0  0  0  0  0  0
   -1.8176   -0.1520    0.4778 C   0  0  0  0  0  0  0  0  0  0  0  0
   -3.1338   -0.2289   -0.1544 C   0  0  0  0  0  0  0  0  0  0  0  0
   -4.0815   -0.5564    0.5520 O   0  0  0  0  0  0  0  0  0  0  0  0
   -0.8681    0.8051   -0.2557 C   0  0  0  0  0  0  0  0  0  0  0  0
    3.7698    0.6158   -0.4017 H   0  0  0  0  0  0  0  0  0  0  0  0
    2.8875    0.3910    1.1658 H   0  0  0  0  0  0  0  0  0  0  0  0
    2.8278   -0.9453   -0.1146 H   0  0  0  0  0  0  0  0  0  0  0  0
    1.4358    0.6080   -1.5293 H   0  0  0  0  0  0  0  0  0  0  0  0
    1.7286    1.8901   -0.3301 H   0  0  0  0  0  0  0  0  0  0  0  0
    0.5341    0.6209    1.4115 H   0  0  0  0  0  0  0  0  0  0  0  0
    1.0424   -1.8864    0.2166 H   0  0  0  0  0  0  0  0  0  0  0  0
   -1.4472   -2.4083    0.3606 H   0  0  0  0  0  0  0  0  0  0  0  0
   -1.8285    0.1263    1.5452 H   0  0  0  0  0  0  0  0  0  0  0  0
   -3.2647   -0.0041   -1.2093 H   0  0  0  0  0  0  0  0  0  0  0  0
   -0.8390    0.5478   -1.3275 H   0  0  0  0  0  0  0  0  0  0  0  0
   -1.1049    1.8475   -0.0428 H   0  0  0  0  0  0  0  0  0  0  0  0
  1  2  1  0
  2  3  1  0
  3  4  1  0
  4  5  2  0
  5  6  1  0
  6  7  1  0
  7  8  2  0
  6  9  1  0
  9  3  1  0
  1 10  1  0
  1 11  1  0
  1 12  1  0
  2 13  1  0
  2 14  1  0
  3 15  1  0
  4 16  1  0
  5 17  1  0
  6 18  1  0
  7 19  1  0
  9 20  1  0
  9 21  1  0
M  END
