
     RDKit          3D

 23 23  0  0  0  0  0  0  0  0999 V2000
   -1.8198    0.1176   -1.5965 C   0  0  0  0  0  0  0  0  0  0  0  0
   -1.8104   -0.2714   -0.1660 C   0  0  0  0  0  0  0  0  0  0  0  0
   -0.4717   -0.2738    0.4947 C   0  0  0  0  0  0  0  0  0  0  0  0
   -0.6193   -0.6920    1.9558 C   0  0  0  0  0  0  0  0  0  0  0  0
    0.3503    0.9668    0.4008 C   0  0  0  0  0  0  0  0  0  0  0  0
    1.5536    0.0226    0.2619 C   0  0  0  0  0  0  0  0  0  0  0  0
    2.5846    0.4735   -0.7232 C   0  0  0  0  0  0  0  0  0  0  0  0
    0.6008   -1.0026   -0.2212 C   0  0  0  0  0  0  0  0  0  0  0  0
    0.6591   -1.9969   -0.8989 O   0  0  0  0  0  0  0  0  0  0  0  0
   -0.8266    0.1733   -2.0705 H   0  0  0  0  0  0  0  0  0  0  0  0
   -2.4111    1.0570   -1.7893 H   0  0  0  0  0  0  0  0  0  0  0  0
   -2.3852   -0.6798   -2.1599 H   0  0  0  0  0  0  0  0  0  0  0  0
   -2.4464    0.4757    0.3953 H   0  0  0  0  0  0  0  0  0  0  0  0
   -2.2884   -1.2523    0.0364 H   0  0  0  0  0  0  0  0  0  0  0  0
    0.3402   -1.0469    2.3757 H   0  0  0  0  0  0  0  0  0  0  0  0
   -1.2963   -1.5808    1.9341 H   0  0  0  0  0  0  0  0  0  0  0  0
   -1.0618    0.1357    2.5487 H   0  0  0  0  0  0  0  0  0  0  0  0
    0.2733    1.5612   -0.5138 H   0  0  0  0  0  0  0  0  0  0  0  0
    0.3938    1.6191    1.2856 H   0  0  0  0  0  0  0  0  0  0  0  0
    2.0290   -0.2217    1.2322 H   0  0  0  0  0  0  0  0  0  0  0  0
    2.1789    1.0943   -1.5232 H   0  0  0  0  0  0  0  0  0  0  0  0
    3.3762    1.0316   -0.1514 H   0  0  0  0  0  0  0  0  0  0  0  0
    3.0972   -0.4516   -1.1073 H   0  0  0  0  0  0  0  0  0  0  0  0
  1  2  1  0
  2  3  1  0
  3  4  1  0
  3  5  1  0
  5  6  1  0
  6  7  1  0
  6  8  1  0
  8  9  2  0
  8  3  1  0
  1 10  1  0
  1 11  1  0
  1 12  1  0
  2 13  1  0
  2 14  1  0
  4 15  1  0
  4 16  1  0
  4 17  1  0
  5 18  1  0
  5 19  1  0
  6 20  1  0
  7 21  1  0
  7 22  1  0
  7 23  1  0
M  END
