
     RDKit          3D

 25 25  0  0  0  0  0  0  0  0999 V2000
   -2.7907   -0.3344   -0.8055 C   0  0  0  0  0  0  0  0  0  0  0  0
   -2.0743   -0.3719    0.5027 C   0  0  0  0  0  0  0  0  0  0  0  0
   -0.6393    0.0353    0.4358 C   0  0  0  0  0  0  0  0  0  0  0  0
   -0.4471    1.4495   -0.0708 C   0  0  0  0  0  0  0  0  0  0  0  0
    0.9603    1.8581    0.2741 C   0  0  0  0  0  0  0  0  0  0  0  0
    1.9195    0.7425    0.1966 C   0  0  0  0  0  0  0  0  0  0  0  0
    1.6278   -0.5074   -0.1011 C   0  0  0  0  0  0  0  0  0  0  0  0
    2.6957   -1.5253   -0.1421 C   0  0  0  0  0  0  0  0  0  0  0  0
    0.2232   -0.8644   -0.3900 C   0  0  0  0  0  0  0  0  0  0  0  0
   -3.6757   -1.0272   -0.7175 H   0  0  0  0  0  0  0  0  0  0  0  0
   -3.2490    0.6817   -0.9731 H   0  0  0  0  0  0  0  0  0  0  0  0
   -2.1710   -0.5409   -1.6794 H   0  0  0  0  0  0  0  0  0  0  0  0
   -2.5897    0.3320    1.1914 H   0  0  0  0  0  0  0  0  0  0  0  0
   -2.1391   -1.3675    0.9760 H   0  0  0  0  0  0  0  0  0  0  0  0
   -0.2469    0.0404    1.4808 H   0  0  0  0  0  0  0  0  0  0  0  0
   -1.1996    2.1262    0.3758 H   0  0  0  0  0  0  0  0  0  0  0  0
   -0.5203    1.4034   -1.1788 H   0  0  0  0  0  0  0  0  0  0  0  0
    0.9633    2.2329    1.3166 H   0  0  0  0  0  0  0  0  0  0  0  0
    1.3274    2.6649   -0.3884 H   0  0  0  0  0  0  0  0  0  0  0  0
    2.9673    0.9929    0.4089 H   0  0  0  0  0  0  0  0  0  0  0  0
    3.1302   -1.6715   -1.1439 H   0  0  0  0  0  0  0  0  0  0  0  0
    2.3373   -2.5390    0.1945 H   0  0  0  0  0  0  0  0  0  0  0  0
    3.5452   -1.2830    0.5478 H   0  0  0  0  0  0  0  0  0  0  0  0
    0.0030   -1.9400   -0.2599 H   0  0  0  0  0  0  0  0  0  0  0  0
    0.0423   -0.5874   -1.4699 H   0  0  0  0  0  0  0  0  0  0  0  0
  1  2  1  0
  2  3  1  0
  3  4  1  0
  4  5  1  0
  5  6  1  0
  6  7  2  0
  7  8  1  0
  7  9  1  0
  9  3  1  0
  1 10  1  0
  1 11  1  0
  1 12  1  0
  2 13  1  0
  2 14  1  0
  3 15  1  0
  4 16  1  0
  4 17  1  0
  5 18  1  0
  5 19  1  0
  6 20  1  0
  8 21  1  0
  8 22  1  0
  8 23  1  0
  9 24  1  0
  9 25  1  0
M  END
