
     RDKit          3D

 25 26  0  0  0  0  0  0  0  0999 V2000
    2.7494    0.0535    0.6346 C   0  0  0  0  0  0  0  0  0  0  0  0
    2.1860   -0.2799   -0.6921 C   0  0  0  0  0  0  0  0  0  0  0  0
    0.7116   -0.1202   -0.8282 C   0  0  0  0  0  0  0  0  0  0  0  0
    0.1972    1.2676   -0.5849 C   0  0  0  0  0  0  0  0  0  0  0  0
   -0.5669    0.7512    0.6047 C   0  0  0  0  0  0  0  0  0  0  0  0
   -2.0530    0.8391    0.5363 C   0  0  0  0  0  0  0  0  0  0  0  0
   -2.5723   -0.4884    0.0714 C   0  0  0  0  0  0  0  0  0  0  0  0
   -1.3972   -1.3728   -0.2137 C   0  0  0  0  0  0  0  0  0  0  0  0
   -0.1591   -0.6418    0.2627 C   0  0  0  0  0  0  0  0  0  0  0  0
    3.5297   -0.7108    0.9223 H   0  0  0  0  0  0  0  0  0  0  0  0
    2.0365    0.0851    1.4672 H   0  0  0  0  0  0  0  0  0  0  0  0
    3.3056    1.0292    0.6626 H   0  0  0  0  0  0  0  0  0  0  0  0
    2.6641    0.4062   -1.4521 H   0  0  0  0  0  0  0  0  0  0  0  0
    2.4794   -1.3030   -1.0226 H   0  0  0  0  0  0  0  0  0  0  0  0
    0.3715   -0.4936   -1.8173 H   0  0  0  0  0  0  0  0  0  0  0  0
    0.9951    1.9731   -0.2950 H   0  0  0  0  0  0  0  0  0  0  0  0
   -0.4918    1.6415   -1.3668 H   0  0  0  0  0  0  0  0  0  0  0  0
   -0.1385    1.0936    1.5764 H   0  0  0  0  0  0  0  0  0  0  0  0
   -2.4359    0.9853    1.5863 H   0  0  0  0  0  0  0  0  0  0  0  0
   -2.4255    1.6901   -0.0871 H   0  0  0  0  0  0  0  0  0  0  0  0
   -3.2744   -0.9613    0.8165 H   0  0  0  0  0  0  0  0  0  0  0  0
   -3.1800   -0.3485   -0.8437 H   0  0  0  0  0  0  0  0  0  0  0  0
   -1.3157   -1.5632   -1.3176 H   0  0  0  0  0  0  0  0  0  0  0  0
   -1.5286   -2.3364    0.3022 H   0  0  0  0  0  0  0  0  0  0  0  0
    0.3127   -1.1954    1.0776 H   0  0  0  0  0  0  0  0  0  0  0  0
  1  2  1  0
  2  3  1  0
  3  4  1  0
  4  5  1  0
  5  6  1  0
  6  7  1  0
  7  8  1  0
  8  9  1  0
  9  3  1  0
  9  5  1  0
  1 10  1  0
  1 11  1  0
  1 12  1  0
  2 13  1  0
  2 14  1  0
  3 15  1  0
  4 16  1  0
  4 17  1  0
  5 18  1  0
  6 19  1  0
  6 20  1  0
  7 21  1  0
  7 22  1  0
  8 23  1  0
  8 24  1  0
  9 25  1  0
M  END
