
     RDKit          3D

 20 21  0  0  0  0  0  0  0  0999 V2000
    2.6298    0.3068    0.0418 C   0  0  0  0  0  0  0  0  0  0  0  0
    1.5043   -0.6217   -0.3052 C   0  0  0  0  0  0  0  0  0  0  0  0
    0.2172    0.1266   -0.2757 C   0  0  0  0  0  0  0  0  0  0  0  0
   -0.1145    0.7278    1.0204 C   0  0  0  0  0  0  0  0  0  0  0  0
   -1.3501    0.4275    1.3968 C   0  0  0  0  0  0  0  0  0  0  0  0
   -2.0309   -0.4269    0.3967 C   0  0  0  0  0  0  0  0  0  0  0  0
   -2.2084    0.0988   -0.9719 C   0  0  0  0  0  0  0  0  0  0  0  0
   -0.9854   -0.7122   -0.5972 C   0  0  0  0  0  0  0  0  0  0  0  0
    2.2322    1.2736    0.4031 H   0  0  0  0  0  0  0  0  0  0  0  0
    3.2136    0.5371   -0.8827 H   0  0  0  0  0  0  0  0  0  0  0  0
    3.2997   -0.1376    0.8347 H   0  0  0  0  0  0  0  0  0  0  0  0
    1.6720   -1.0560   -1.2907 H   0  0  0  0  0  0  0  0  0  0  0  0
    1.4267   -1.4639    0.4151 H   0  0  0  0  0  0  0  0  0  0  0  0
    0.2750    0.9295   -1.0637 H   0  0  0  0  0  0  0  0  0  0  0  0
    0.5782    1.3436    1.5937 H   0  0  0  0  0  0  0  0  0  0  0  0
   -1.7880    0.7755    2.3267 H   0  0  0  0  0  0  0  0  0  0  0  0
   -2.7373   -1.1871    0.7661 H   0  0  0  0  0  0  0  0  0  0  0  0
   -2.8706   -0.4005   -1.6848 H   0  0  0  0  0  0  0  0  0  0  0  0
   -2.1004    1.1937   -1.1245 H   0  0  0  0  0  0  0  0  0  0  0  0
   -0.8630   -1.7345   -0.9985 H   0  0  0  0  0  0  0  0  0  0  0  0
  1  2  1  0
  2  3  1  0
  3  4  1  0
  4  5  2  0
  5  6  1  0
  6  7  1  0
  7  8  1  0
  8  3  1  0
  8  6  1  0
  1  9  1  0
  1 10  1  0
  1 11  1  0
  2 12  1  0
  2 13  1  0
  3 14  1  0
  4 15  1  0
  5 16  1  0
  6 17  1  0
  7 18  1  0
  7 19  1  0
  8 20  1  0
M  END
