
     RDKit          3D

 23 24  0  0  0  0  0  0  0  0999 V2000
   -0.2825    2.3726    0.1637 C   0  0  0  0  0  0  0  0  0  0  0  0
   -1.1297    1.2045   -0.1592 C   0  0  0  0  0  0  0  0  0  0  0  0
   -0.4675   -0.1096   -0.3313 C   0  0  0  0  0  0  0  0  0  0  0  0
   -1.4210   -1.1983   -0.6505 C   0  0  0  0  0  0  0  0  0  0  0  0
   -1.2382   -2.2906    0.0584 C   0  0  0  0  0  0  0  0  0  0  0  0
   -0.1085   -2.0966    0.9818 C   0  0  0  0  0  0  0  0  0  0  0  0
    0.3404   -0.6875    0.7556 C   0  0  0  0  0  0  0  0  0  0  0  0
    0.9293   -0.3532   -0.6229 C   0  0  0  0  0  0  0  0  0  0  0  0
    2.0503    0.6142   -0.5708 C   0  0  0  0  0  0  0  0  0  0  0  0
    0.4440    2.6691   -0.5891 H   0  0  0  0  0  0  0  0  0  0  0  0
   -0.9890    3.2543    0.2542 H   0  0  0  0  0  0  0  0  0  0  0  0
    0.1480    2.2985    1.2052 H   0  0  0  0  0  0  0  0  0  0  0  0
   -1.9056    1.1051    0.6379 H   0  0  0  0  0  0  0  0  0  0  0  0
   -1.7091    1.4425   -1.0900 H   0  0  0  0  0  0  0  0  0  0  0  0
   -2.2285   -1.1418   -1.4079 H   0  0  0  0  0  0  0  0  0  0  0  0
   -1.8442   -3.2286   -0.0218 H   0  0  0  0  0  0  0  0  0  0  0  0
   -0.4071   -2.2563    2.0389 H   0  0  0  0  0  0  0  0  0  0  0  0
    0.7287   -2.7772    0.6894 H   0  0  0  0  0  0  0  0  0  0  0  0
    0.6394   -0.0565    1.6154 H   0  0  0  0  0  0  0  0  0  0  0  0
    1.1742   -1.2750   -1.2328 H   0  0  0  0  0  0  0  0  0  0  0  0
    3.0263    0.0378   -0.5720 H   0  0  0  0  0  0  0  0  0  0  0  0
    2.1098    1.2251    0.3514 H   0  0  0  0  0  0  0  0  0  0  0  0
    2.1406    1.2473   -1.5034 H   0  0  0  0  0  0  0  0  0  0  0  0
  1  2  1  0
  2  3  1  0
  3  4  1  0
  4  5  2  0
  5  6  1  0
  6  7  1  0
  7  8  1  0
  8  9  1  0
  7  3  1  0
  8  3  1  0
  1 10  1  0
  1 11  1  0
  1 12  1  0
  2 13  1  0
  2 14  1  0
  4 15  1  0
  5 16  1  0
  6 17  1  0
  6 18  1  0
  7 19  1  0
  8 20  1  0
  9 21  1  0
  9 22  1  0
  9 23  1  0
M  END
