
     RDKit          3D

 25 25  0  0  0  0  0  0  0  0999 V2000
   -1.4423   -1.8572   -0.0986 C   0  0  0  0  0  0  0  0  0  0  0  0
   -1.0222   -0.8125    0.9161 C   0  0  0  0  0  0  0  0  0  0  0  0
   -0.3769    0.3441    0.2368 C   0  0  0  0  0  0  0  0  0  0  0  0
   -1.2196    1.0726   -0.7613 C   0  0  0  0  0  0  0  0  0  0  0  0
   -2.3550    1.5716   -0.0979 O   0  0  0  0  0  0  0  0  0  0  0  0
    0.5883    1.2381    0.9713 C   0  0  0  0  0  0  0  0  0  0  0  0
    1.1048    0.2296    0.0388 C   0  0  0  0  0  0  0  0  0  0  0  0
    1.5672    0.5845   -1.3510 C   0  0  0  0  0  0  0  0  0  0  0  0
    1.8633   -0.8989    0.6890 C   0  0  0  0  0  0  0  0  0  0  0  0
   -0.5793   -2.4626   -0.4495 H   0  0  0  0  0  0  0  0  0  0  0  0
   -2.1627   -2.5847    0.3406 H   0  0  0  0  0  0  0  0  0  0  0  0
   -1.9166   -1.4292   -0.9913 H   0  0  0  0  0  0  0  0  0  0  0  0
   -1.9450   -0.5268    1.4870 H   0  0  0  0  0  0  0  0  0  0  0  0
   -0.3625   -1.3158    1.6436 H   0  0  0  0  0  0  0  0  0  0  0  0
   -1.5558    0.4805   -1.6105 H   0  0  0  0  0  0  0  0  0  0  0  0
   -0.6996    1.9910   -1.1590 H   0  0  0  0  0  0  0  0  0  0  0  0
   -2.2898    2.5256    0.1007 H   0  0  0  0  0  0  0  0  0  0  0  0
    0.6890    2.2987    0.6808 H   0  0  0  0  0  0  0  0  0  0  0  0
    0.6332    1.0672    2.0483 H   0  0  0  0  0  0  0  0  0  0  0  0
    2.1899    1.4895   -1.3902 H   0  0  0  0  0  0  0  0  0  0  0  0
    2.1981   -0.2412   -1.7691 H   0  0  0  0  0  0  0  0  0  0  0  0
    0.7008    0.6544   -2.0725 H   0  0  0  0  0  0  0  0  0  0  0  0
    1.6438   -0.9767    1.7863 H   0  0  0  0  0  0  0  0  0  0  0  0
    2.9516   -0.5961    0.6535 H   0  0  0  0  0  0  0  0  0  0  0  0
    1.7975   -1.8457    0.1579 H   0  0  0  0  0  0  0  0  0  0  0  0
  1  2  1  0
  2  3  1  0
  3  4  1  0
  4  5  1  0
  3  6  1  0
  6  7  1  0
  7  8  1  0
  7  9  1  0
  7  3  1  0
  1 10  1  0
  1 11  1  0
  1 12  1  0
  2 13  1  0
  2 14  1  0
  4 15  1  0
  4 16  1  0
  5 17  1  0
  6 18  1  0
  6 19  1  0
  8 20  1  0
  8 21  1  0
  8 22  1  0
  9 23  1  0
  9 24  1  0
  9 25  1  0
M  END
