
     RDKit          3D

 23 23  0  0  0  0  0  0  0  0999 V2000
    2.0173   -0.5338    0.8696 C   0  0  0  0  0  0  0  0  0  0  0  0
    1.7047    0.0286   -0.4751 C   0  0  0  0  0  0  0  0  0  0  0  0
    0.2454   -0.0589   -0.8453 C   0  0  0  0  0  0  0  0  0  0  0  0
   -0.2590   -1.4631   -0.8742 C   0  0  0  0  0  0  0  0  0  0  0  0
   -1.6528   -1.4156   -1.0186 O   0  0  0  0  0  0  0  0  0  0  0  0
   -2.1697   -1.0235    0.2149 C   0  0  0  0  0  0  0  0  0  0  0  0
   -1.7531    0.3895    0.4320 C   0  0  0  0  0  0  0  0  0  0  0  0
   -0.6112    0.8437   -0.0698 C   0  0  0  0  0  0  0  0  0  0  0  0
   -0.2983    2.2665    0.2097 C   0  0  0  0  0  0  0  0  0  0  0  0
    1.1393   -0.6410    1.5317 H   0  0  0  0  0  0  0  0  0  0  0  0
    2.7217    0.1483    1.4224 H   0  0  0  0  0  0  0  0  0  0  0  0
    2.5743   -1.5073    0.7979 H   0  0  0  0  0  0  0  0  0  0  0  0
    2.2747   -0.5719   -1.2315 H   0  0  0  0  0  0  0  0  0  0  0  0
    2.0742    1.0498   -0.5474 H   0  0  0  0  0  0  0  0  0  0  0  0
    0.1947    0.3095   -1.9155 H   0  0  0  0  0  0  0  0  0  0  0  0
    0.1388   -1.9828   -1.7633 H   0  0  0  0  0  0  0  0  0  0  0  0
   -0.0685   -2.0270    0.0582 H   0  0  0  0  0  0  0  0  0  0  0  0
   -3.2872   -1.0623    0.2229 H   0  0  0  0  0  0  0  0  0  0  0  0
   -1.7739   -1.7082    0.9962 H   0  0  0  0  0  0  0  0  0  0  0  0
   -2.4159    1.0581    1.0224 H   0  0  0  0  0  0  0  0  0  0  0  0
   -0.2515    2.3589    1.3305 H   0  0  0  0  0  0  0  0  0  0  0  0
   -1.1481    2.9088   -0.1028 H   0  0  0  0  0  0  0  0  0  0  0  0
    0.6043    2.6338   -0.2648 H   0  0  0  0  0  0  0  0  0  0  0  0
  1  2  1  0
  2  3  1  0
  3  4  1  0
  4  5  1  0
  5  6  1  0
  6  7  1  0
  7  8  2  0
  8  9  1  0
  8  3  1  0
  1 10  1  0
  1 11  1  0
  1 12  1  0
  2 13  1  0
  2 14  1  0
  3 15  1  0
  4 16  1  0
  4 17  1  0
  6 18  1  0
  6 19  1  0
  7 20  1  0
  9 21  1  0
  9 22  1  0
  9 23  1  0
M  END
