
     RDKit          3D

 25 26  0  0  0  0  0  0  0  0999 V2000
    2.6837    0.2746    0.6328 C   0  0  0  0  0  0  0  0  0  0  0  0
    1.6632   -0.0715   -0.3989 C   0  0  0  0  0  0  0  0  0  0  0  0
    0.2550   -0.0866    0.0853 C   0  0  0  0  0  0  0  0  0  0  0  0
   -0.2131    1.2210    0.6298 C   0  0  0  0  0  0  0  0  0  0  0  0
   -1.6239    1.4190    0.1296 C   0  0  0  0  0  0  0  0  0  0  0  0
   -1.8571    0.4377   -0.9694 C   0  0  0  0  0  0  0  0  0  0  0  0
   -0.6933   -0.5207   -0.9889 C   0  0  0  0  0  0  0  0  0  0  0  0
   -0.9861   -1.8224   -0.2480 C   0  0  0  0  0  0  0  0  0  0  0  0
   -0.1859   -1.2412    0.9181 C   0  0  0  0  0  0  0  0  0  0  0  0
    2.9498   -0.5411    1.3099 H   0  0  0  0  0  0  0  0  0  0  0  0
    2.3686    1.1958    1.1581 H   0  0  0  0  0  0  0  0  0  0  0  0
    3.6252    0.5444    0.0764 H   0  0  0  0  0  0  0  0  0  0  0  0
    1.9452   -1.0283   -0.8844 H   0  0  0  0  0  0  0  0  0  0  0  0
    1.7328    0.7095   -1.2039 H   0  0  0  0  0  0  0  0  0  0  0  0
    0.4139    2.0713    0.2457 H   0  0  0  0  0  0  0  0  0  0  0  0
   -0.1409    1.2725    1.7355 H   0  0  0  0  0  0  0  0  0  0  0  0
   -2.2967    1.2201    1.0130 H   0  0  0  0  0  0  0  0  0  0  0  0
   -1.7646    2.4497   -0.2268 H   0  0  0  0  0  0  0  0  0  0  0  0
   -2.7687   -0.1625   -0.7113 H   0  0  0  0  0  0  0  0  0  0  0  0
   -1.9597    0.9078   -1.9737 H   0  0  0  0  0  0  0  0  0  0  0  0
   -0.2673   -0.7384   -1.9752 H   0  0  0  0  0  0  0  0  0  0  0  0
   -2.0793   -1.9132   -0.0344 H   0  0  0  0  0  0  0  0  0  0  0  0
   -0.5309   -2.7127   -0.7122 H   0  0  0  0  0  0  0  0  0  0  0  0
    0.5778   -1.9317    1.2823 H   0  0  0  0  0  0  0  0  0  0  0  0
   -0.8479   -0.9530    1.7807 H   0  0  0  0  0  0  0  0  0  0  0  0
  1  2  1  0
  2  3  1  0
  3  4  1  0
  4  5  1  0
  5  6  1  0
  6  7  1  0
  7  8  1  0
  8  9  1  0
  7  3  1  0
  9  3  1  0
  1 10  1  0
  1 11  1  0
  1 12  1  0
  2 13  1  0
  2 14  1  0
  4 15  1  0
  4 16  1  0
  5 17  1  0
  5 18  1  0
  6 19  1  0
  6 20  1  0
  7 21  1  0
  8 22  1  0
  8 23  1  0
  9 24  1  0
  9 25  1  0
M  END
