
     RDKit          3D

 21 22  0  0  0  0  0  0  0  0999 V2000
   -2.8955   -0.0978    0.5274 C   0  0  0  0  0  0  0  0  0  0  0  0
   -1.8707    0.3821   -0.4556 C   0  0  0  0  0  0  0  0  0  0  0  0
   -0.5517   -0.2318   -0.1886 C   0  0  0  0  0  0  0  0  0  0  0  0
    0.6150    0.1353   -1.0846 C   0  0  0  0  0  0  0  0  0  0  0  0
    1.5210   -0.3840    0.0404 C   0  0  0  0  0  0  0  0  0  0  0  0
    2.5637    0.5745    0.4951 C   0  0  0  0  0  0  0  0  0  0  0  0
    1.9912   -1.6736   -0.2530 O   0  0  0  0  0  0  0  0  0  0  0  0
    0.2391   -0.4020    0.8748 C   0  0  0  0  0  0  0  0  0  0  0  0
   -0.5937   -1.5037    0.3767 O   0  0  0  0  0  0  0  0  0  0  0  0
   -2.4480   -0.6558    1.3794 H   0  0  0  0  0  0  0  0  0  0  0  0
   -3.6227   -0.8165    0.0602 H   0  0  0  0  0  0  0  0  0  0  0  0
   -3.5085    0.7625    0.8758 H   0  0  0  0  0  0  0  0  0  0  0  0
   -2.2089    0.0550   -1.4674 H   0  0  0  0  0  0  0  0  0  0  0  0
   -1.8682    1.4951   -0.4896 H   0  0  0  0  0  0  0  0  0  0  0  0
    0.6890   -0.3980   -2.0248 H   0  0  0  0  0  0  0  0  0  0  0  0
    0.7327    1.2461   -1.1240 H   0  0  0  0  0  0  0  0  0  0  0  0
    3.5572    0.0562    0.4064 H   0  0  0  0  0  0  0  0  0  0  0  0
    2.6106    1.4101   -0.2548 H   0  0  0  0  0  0  0  0  0  0  0  0
    2.4358    0.9509    1.5217 H   0  0  0  0  0  0  0  0  0  0  0  0
    2.3440   -1.7559   -1.1525 H   0  0  0  0  0  0  0  0  0  0  0  0
    0.2685   -0.2770    1.9369 H   0  0  0  0  0  0  0  0  0  0  0  0
  1  2  1  0
  2  3  1  0
  3  4  1  0
  4  5  1  0
  5  6  1  0
  5  7  1  0
  5  8  1  0
  8  9  1  0
  8  3  1  0
  9  3  1  0
  1 10  1  0
  1 11  1  0
  1 12  1  0
  2 13  1  0
  2 14  1  0
  4 15  1  0
  4 16  1  0
  6 17  1  0
  6 18  1  0
  6 19  1  0
  7 20  1  0
  8 21  1  0
M  END
