
     RDKit          3D

 23 24  0  0  0  0  0  0  0  0999 V2000
    2.8367    0.8896   -0.8227 C   0  0  0  0  0  0  0  0  0  0  0  0
    2.1394   -0.3451   -0.2751 C   0  0  0  0  0  0  0  0  0  0  0  0
    0.8101    0.0352    0.3314 C   0  0  0  0  0  0  0  0  0  0  0  0
    0.1565   -1.2312    0.8622 C   0  0  0  0  0  0  0  0  0  0  0  0
   -1.3043   -0.8025    0.9113 C   0  0  0  0  0  0  0  0  0  0  0  0
   -2.0847   -1.0892   -0.2994 C   0  0  0  0  0  0  0  0  0  0  0  0
   -1.3675    0.2501   -0.1302 C   0  0  0  0  0  0  0  0  0  0  0  0
   -2.3050    1.4214   -0.0097 C   0  0  0  0  0  0  0  0  0  0  0  0
   -0.1101    0.4080   -0.6610 O   0  0  0  0  0  0  0  0  0  0  0  0
    3.7862    0.5395   -1.2953 H   0  0  0  0  0  0  0  0  0  0  0  0
    3.1289    1.5684   -0.0071 H   0  0  0  0  0  0  0  0  0  0  0  0
    2.1688    1.4154   -1.5042 H   0  0  0  0  0  0  0  0  0  0  0  0
    2.7487   -0.8672    0.4737 H   0  0  0  0  0  0  0  0  0  0  0  0
    1.9352   -1.0278   -1.1430 H   0  0  0  0  0  0  0  0  0  0  0  0
    0.9533    0.7972    1.0965 H   0  0  0  0  0  0  0  0  0  0  0  0
    0.5446   -1.5420    1.8353 H   0  0  0  0  0  0  0  0  0  0  0  0
    0.3226   -2.0078    0.0820 H   0  0  0  0  0  0  0  0  0  0  0  0
   -1.7263   -0.6069    1.8950 H   0  0  0  0  0  0  0  0  0  0  0  0
   -3.1709   -1.1151   -0.2207 H   0  0  0  0  0  0  0  0  0  0  0  0
   -1.6624   -1.7829   -1.0571 H   0  0  0  0  0  0  0  0  0  0  0  0
   -3.2036    1.1968   -0.6568 H   0  0  0  0  0  0  0  0  0  0  0  0
   -2.7105    1.5380    1.0144 H   0  0  0  0  0  0  0  0  0  0  0  0
   -1.8857    2.3583   -0.4195 H   0  0  0  0  0  0  0  0  0  0  0  0
  1  2  1  0
  2  3  1  0
  3  4  1  0
  4  5  1  0
  5  6  1  0
  6  7  1  0
  7  8  1  0
  7  9  1  0
  9  3  1  0
  7  5  1  0
  1 10  1  0
  1 11  1  0
  1 12  1  0
  2 13  1  0
  2 14  1  0
  3 15  1  0
  4 16  1  0
  4 17  1  0
  5 18  1  0
  6 19  1  0
  6 20  1  0
  8 21  1  0
  8 22  1  0
  8 23  1  0
M  END
