
     RDKit          3D

 23 24  0  0  0  0  0  0  0  0999 V2000
    3.2004    0.3473    0.8086 C   0  0  0  0  0  0  0  0  0  0  0  0
    1.9325    0.8201    0.1672 C   0  0  0  0  0  0  0  0  0  0  0  0
    0.6878    0.2404    0.8576 C   0  0  0  0  0  0  0  0  0  0  0  0
    0.6940   -1.2452    0.7942 O   0  0  0  0  0  0  0  0  0  0  0  0
   -0.2452   -0.4621    0.1689 C   0  0  0  0  0  0  0  0  0  0  0  0
   -0.4225   -0.4972   -1.3216 C   0  0  0  0  0  0  0  0  0  0  0  0
   -1.9174   -0.2788   -1.0893 C   0  0  0  0  0  0  0  0  0  0  0  0
   -1.6968   -0.6854    0.3739 C   0  0  0  0  0  0  0  0  0  0  0  0
   -2.4119    0.2003    1.3360 C   0  0  0  0  0  0  0  0  0  0  0  0
    3.9685    1.1693    0.8419 H   0  0  0  0  0  0  0  0  0  0  0  0
    2.9814    0.0218    1.8455 H   0  0  0  0  0  0  0  0  0  0  0  0
    3.6563   -0.5187    0.2930 H   0  0  0  0  0  0  0  0  0  0  0  0
    1.9083    0.4528   -0.9000 H   0  0  0  0  0  0  0  0  0  0  0  0
    1.8420    1.9195    0.0918 H   0  0  0  0  0  0  0  0  0  0  0  0
    0.6248    0.5473    1.9141 H   0  0  0  0  0  0  0  0  0  0  0  0
    0.0049    0.3279   -1.8971 H   0  0  0  0  0  0  0  0  0  0  0  0
   -0.2263   -1.5288   -1.7230 H   0  0  0  0  0  0  0  0  0  0  0  0
   -2.2156    0.7845   -1.1864 H   0  0  0  0  0  0  0  0  0  0  0  0
   -2.5398   -1.0041   -1.6513 H   0  0  0  0  0  0  0  0  0  0  0  0
   -1.9212   -1.7861    0.4724 H   0  0  0  0  0  0  0  0  0  0  0  0
   -3.1808    0.7852    0.7860 H   0  0  0  0  0  0  0  0  0  0  0  0
   -1.7220    0.8585    1.9125 H   0  0  0  0  0  0  0  0  0  0  0  0
   -3.0016   -0.4683    2.0283 H   0  0  0  0  0  0  0  0  0  0  0  0
  1  2  1  0
  2  3  1  0
  3  4  1  0
  4  5  1  0
  5  6  1  0
  6  7  1  0
  7  8  1  0
  8  9  1  0
  5  3  1  0
  8  5  1  0
  1 10  1  0
  1 11  1  0
  1 12  1  0
  2 13  1  0
  2 14  1  0
  3 15  1  0
  6 16  1  0
  6 17  1  0
  7 18  1  0
  7 19  1  0
  8 20  1  0
  9 21  1  0
  9 22  1  0
  9 23  1  0
M  END
