
     RDKit          3D

 21 22  0  0  0  0  0  0  0  0999 V2000
   -2.7236    0.5655    0.1830 C   0  0  0  0  0  0  0  0  0  0  0  0
   -1.7644   -0.4770   -0.3204 C   0  0  0  0  0  0  0  0  0  0  0  0
   -0.3191   -0.0333   -0.2220 C   0  0  0  0  0  0  0  0  0  0  0  0
    0.6151   -1.0988   -0.7336 C   0  0  0  0  0  0  0  0  0  0  0  0
    2.0438   -0.6617   -0.7853 C   0  0  0  0  0  0  0  0  0  0  0  0
    2.4673    0.2274    0.2971 C   0  0  0  0  0  0  0  0  0  0  0  0
    1.5819    0.9352    0.9687 C   0  0  0  0  0  0  0  0  0  0  0  0
    0.1410    0.8718    0.6721 C   0  0  0  0  0  0  0  0  0  0  0  0
   -0.1375    1.2820   -0.7006 O   0  0  0  0  0  0  0  0  0  0  0  0
   -2.9894    0.3021    1.2300 H   0  0  0  0  0  0  0  0  0  0  0  0
   -2.2565    1.5766    0.1994 H   0  0  0  0  0  0  0  0  0  0  0  0
   -3.6099    0.5423   -0.4891 H   0  0  0  0  0  0  0  0  0  0  0  0
   -1.9471   -0.6943   -1.3962 H   0  0  0  0  0  0  0  0  0  0  0  0
   -1.8504   -1.4376    0.2268 H   0  0  0  0  0  0  0  0  0  0  0  0
    0.5137   -1.9761   -0.0617 H   0  0  0  0  0  0  0  0  0  0  0  0
    0.2647   -1.4228   -1.7297 H   0  0  0  0  0  0  0  0  0  0  0  0
    2.6973   -1.5809   -0.7383 H   0  0  0  0  0  0  0  0  0  0  0  0
    2.2259   -0.2358   -1.8023 H   0  0  0  0  0  0  0  0  0  0  0  0
    3.5492    0.2743    0.5186 H   0  0  0  0  0  0  0  0  0  0  0  0
    1.9798    1.5889    1.7775 H   0  0  0  0  0  0  0  0  0  0  0  0
   -0.4818    1.4523    1.3872 H   0  0  0  0  0  0  0  0  0  0  0  0
  1  2  1  0
  2  3  1  0
  3  4  1  0
  4  5  1  0
  5  6  1  0
  6  7  2  0
  7  8  1  0
  8  9  1  0
  8  3  1  0
  9  3  1  0
  1 10  1  0
  1 11  1  0
  1 12  1  0
  2 13  1  0
  2 14  1  0
  4 15  1  0
  4 16  1  0
  5 17  1  0
  5 18  1  0
  6 19  1  0
  7 20  1  0
  8 21  1  0
M  END
