
     RDKit          3D

 21 22  0  0  0  0  0  0  0  0999 V2000
    2.5504    0.1073    0.1179 C   0  0  0  0  0  0  0  0  0  0  0  0
    1.2523   -0.5293    0.4710 C   0  0  0  0  0  0  0  0  0  0  0  0
    0.0503    0.2711    0.1640 C   0  0  0  0  0  0  0  0  0  0  0  0
    0.1249    1.5440    0.9172 O   0  0  0  0  0  0  0  0  0  0  0  0
   -0.1641    1.4902   -0.4237 C   0  0  0  0  0  0  0  0  0  0  0  0
   -1.6787    1.5663   -0.6904 C   0  0  0  0  0  0  0  0  0  0  0  0
   -1.9771    0.2042   -0.8067 O   0  0  0  0  0  0  0  0  0  0  0  0
   -1.3006   -0.4076    0.2372 C   0  0  0  0  0  0  0  0  0  0  0  0
   -1.1419   -1.8773    0.0257 C   0  0  0  0  0  0  0  0  0  0  0  0
    3.2809    0.0787    0.9621 H   0  0  0  0  0  0  0  0  0  0  0  0
    3.0440   -0.4201   -0.7393 H   0  0  0  0  0  0  0  0  0  0  0  0
    2.4311    1.1577   -0.2150 H   0  0  0  0  0  0  0  0  0  0  0  0
    1.3036   -0.8241    1.5612 H   0  0  0  0  0  0  0  0  0  0  0  0
    1.1947   -1.5198   -0.0657 H   0  0  0  0  0  0  0  0  0  0  0  0
    0.4184    2.0349   -1.1664 H   0  0  0  0  0  0  0  0  0  0  0  0
   -2.2319    1.9365    0.1819 H   0  0  0  0  0  0  0  0  0  0  0  0
   -1.9079    2.1308   -1.5985 H   0  0  0  0  0  0  0  0  0  0  0  0
   -1.8131   -0.1970    1.2042 H   0  0  0  0  0  0  0  0  0  0  0  0
   -0.5820   -2.0605   -0.9099 H   0  0  0  0  0  0  0  0  0  0  0  0
   -2.1538   -2.3500   -0.1441 H   0  0  0  0  0  0  0  0  0  0  0  0
   -0.6993   -2.3361    0.9172 H   0  0  0  0  0  0  0  0  0  0  0  0
  1  2  1  0
  2  3  1  0
  3  4  1  0
  4  5  1  0
  5  6  1  0
  6  7  1  0
  7  8  1  0
  8  9  1  0
  5  3  1  0
  8  3  1  0
  1 10  1  0
  1 11  1  0
  1 12  1  0
  2 13  1  0
  2 14  1  0
  5 15  1  0
  6 16  1  0
  6 17  1  0
  8 18  1  0
  9 19  1  0
  9 20  1  0
  9 21  1  0
M  END
