
     RDKit          3D

 25 26  0  0  0  0  0  0  0  0999 V2000
    2.2242   -0.9190   -0.4440 C   0  0  0  0  0  0  0  0  0  0  0  0
    1.0246   -0.1941   -1.0549 C   0  0  0  0  0  0  0  0  0  0  0  0
    0.2678    0.4422    0.0496 C   0  0  0  0  0  0  0  0  0  0  0  0
    1.1107    1.4308    0.8026 C   0  0  0  0  0  0  0  0  0  0  0  0
   -1.1062    0.9655   -0.2519 C   0  0  0  0  0  0  0  0  0  0  0  0
   -1.8078   -0.1599   -0.9616 C   0  0  0  0  0  0  0  0  0  0  0  0
   -1.2970   -1.3338   -0.1030 C   0  0  0  0  0  0  0  0  0  0  0  0
   -0.4676   -0.5692    0.8853 C   0  0  0  0  0  0  0  0  0  0  0  0
   -1.4404    0.5816    1.1984 C   0  0  0  0  0  0  0  0  0  0  0  0
    1.9629   -1.9337   -0.1037 H   0  0  0  0  0  0  0  0  0  0  0  0
    3.0426   -1.0159   -1.1817 H   0  0  0  0  0  0  0  0  0  0  0  0
    2.6172   -0.3677    0.4167 H   0  0  0  0  0  0  0  0  0  0  0  0
    1.4912    0.5919   -1.7221 H   0  0  0  0  0  0  0  0  0  0  0  0
    0.4643   -0.8445   -1.7218 H   0  0  0  0  0  0  0  0  0  0  0  0
    1.8284    1.8619    0.0682 H   0  0  0  0  0  0  0  0  0  0  0  0
    1.6974    0.9979    1.6207 H   0  0  0  0  0  0  0  0  0  0  0  0
    0.5374    2.2850    1.2051 H   0  0  0  0  0  0  0  0  0  0  0  0
   -1.2557    1.9687   -0.5437 H   0  0  0  0  0  0  0  0  0  0  0  0
   -1.5266   -0.2734   -2.0074 H   0  0  0  0  0  0  0  0  0  0  0  0
   -2.8924   -0.0368   -0.8701 H   0  0  0  0  0  0  0  0  0  0  0  0
   -2.1378   -1.7920    0.4571 H   0  0  0  0  0  0  0  0  0  0  0  0
   -0.7787   -2.0792   -0.6879 H   0  0  0  0  0  0  0  0  0  0  0  0
    0.0046   -1.0490    1.6959 H   0  0  0  0  0  0  0  0  0  0  0  0
   -2.4633    0.1663    1.3013 H   0  0  0  0  0  0  0  0  0  0  0  0
   -1.1000    1.2764    1.9528 H   0  0  0  0  0  0  0  0  0  0  0  0
  1  2  1  0
  2  3  1  0
  3  4  1  0
  3  5  1  0
  5  6  1  0
  6  7  1  0
  7  8  1  0
  8  9  1  0
  8  3  1  0
  9  5  1  0
  1 10  1  0
  1 11  1  0
  1 12  1  0
  2 13  1  0
  2 14  1  0
  4 15  1  0
  4 16  1  0
  4 17  1  0
  5 18  1  0
  6 19  1  0
  6 20  1  0
  7 21  1  0
  7 22  1  0
  8 23  1  0
  9 24  1  0
  9 25  1  0
M  END
