
     RDKit          3D

 18 19  0  0  0  0  0  0  0  0999 V2000
    2.2101   -0.3242    0.8281 C   0  0  0  0  0  0  0  0  0  0  0  0
    1.1210    0.7405    0.7907 C   0  0  0  0  0  0  0  0  0  0  0  0
    0.0957    0.2703   -0.2251 C   0  0  0  0  0  0  0  0  0  0  0  0
   -1.0245    1.2164   -0.3629 C   0  0  0  0  0  0  0  0  0  0  0  0
   -2.1692    0.5645   -0.3418 C   0  0  0  0  0  0  0  0  0  0  0  0
   -1.9326   -0.8908   -0.1861 C   0  0  0  0  0  0  0  0  0  0  0  0
   -1.4615   -1.2293    1.0788 O   0  0  0  0  0  0  0  0  0  0  0  0
   -0.4956   -1.0374    0.1152 C   0  0  0  0  0  0  0  0  0  0  0  0
    2.5015   -0.6336   -0.2018 H   0  0  0  0  0  0  0  0  0  0  0  0
    3.0725    0.1140    1.3743 H   0  0  0  0  0  0  0  0  0  0  0  0
    1.7574   -1.1894    1.3893 H   0  0  0  0  0  0  0  0  0  0  0  0
    1.5337    1.6992    0.4371 H   0  0  0  0  0  0  0  0  0  0  0  0
    0.6635    0.7685    1.7799 H   0  0  0  0  0  0  0  0  0  0  0  0
    0.6108    0.1268   -1.2274 H   0  0  0  0  0  0  0  0  0  0  0  0
   -0.9372    2.3308   -0.4708 H   0  0  0  0  0  0  0  0  0  0  0  0
   -3.1314    1.0587   -0.4289 H   0  0  0  0  0  0  0  0  0  0  0  0
   -2.4755   -1.6192   -0.7967 H   0  0  0  0  0  0  0  0  0  0  0  0
    0.0613   -1.9657   -0.1456 H   0  0  0  0  0  0  0  0  0  0  0  0
  1  2  1  0
  2  3  1  0
  3  4  1  0
  4  5  2  0
  5  6  1  0
  6  7  1  0
  7  8  1  0
  8  3  1  0
  8  6  1  0
  1  9  1  0
  1 10  1  0
  1 11  1  0
  2 12  1  0
  2 13  1  0
  3 14  1  0
  4 15  1  0
  5 16  1  0
  6 17  1  0
  8 18  1  0
M  END
