
     RDKit          3D

 23 23  0  0  0  0  0  0  0  0999 V2000
   -2.5638    0.7030   -0.0515 C   0  0  0  0  0  0  0  0  0  0  0  0
   -1.4627    0.4102    0.9246 C   0  0  0  0  0  0  0  0  0  0  0  0
   -0.3086   -0.3367    0.3234 C   0  0  0  0  0  0  0  0  0  0  0  0
   -0.6983   -1.6807   -0.2488 C   0  0  0  0  0  0  0  0  0  0  0  0
    0.7617   -0.3665    1.2179 O   0  0  0  0  0  0  0  0  0  0  0  0
    1.4869    0.6234    0.5553 C   0  0  0  0  0  0  0  0  0  0  0  0
    2.9031    0.1774    0.3412 C   0  0  0  0  0  0  0  0  0  0  0  0
    0.5647    0.4354   -0.6229 C   0  0  0  0  0  0  0  0  0  0  0  0
    1.1709   -0.3828   -1.5757 O   0  0  0  0  0  0  0  0  0  0  0  0
   -2.7982    1.7998   -0.0260 H   0  0  0  0  0  0  0  0  0  0  0  0
   -2.2441    0.4866   -1.1039 H   0  0  0  0  0  0  0  0  0  0  0  0
   -3.5196    0.1915    0.2014 H   0  0  0  0  0  0  0  0  0  0  0  0
   -1.0956    1.3250    1.4303 H   0  0  0  0  0  0  0  0  0  0  0  0
   -1.8939   -0.2545    1.7206 H   0  0  0  0  0  0  0  0  0  0  0  0
   -1.8071   -1.7806   -0.2902 H   0  0  0  0  0  0  0  0  0  0  0  0
   -0.3553   -1.7717   -1.3062 H   0  0  0  0  0  0  0  0  0  0  0  0
   -0.2488   -2.4979    0.3554 H   0  0  0  0  0  0  0  0  0  0  0  0
    1.3942    1.6357    0.9541 H   0  0  0  0  0  0  0  0  0  0  0  0
    3.1361   -0.7899    0.8265 H   0  0  0  0  0  0  0  0  0  0  0  0
    3.0245    0.0312   -0.7715 H   0  0  0  0  0  0  0  0  0  0  0  0
    3.6164    0.9307    0.6882 H   0  0  0  0  0  0  0  0  0  0  0  0
    0.1383    1.3484   -1.0613 H   0  0  0  0  0  0  0  0  0  0  0  0
    0.7992   -0.2369   -2.4808 H   0  0  0  0  0  0  0  0  0  0  0  0
  1  2  1  0
  2  3  1  0
  3  4  1  0
  3  5  1  0
  5  6  1  0
  6  7  1  0
  6  8  1  0
  8  9  1  0
  8  3  1  0
  1 10  1  0
  1 11  1  0
  1 12  1  0
  2 13  1  0
  2 14  1  0
  4 15  1  0
  4 16  1  0
  4 17  1  0
  6 18  1  0
  7 19  1  0
  7 20  1  0
  7 21  1  0
  8 22  1  0
  9 23  1  0
M  END
