
     RDKit          3D

 25 25  0  0  0  0  0  0  0  0999 V2000
    2.8774   -0.0467    0.2546 C   0  0  0  0  0  0  0  0  0  0  0  0
    1.4845    0.0408    0.8297 C   0  0  0  0  0  0  0  0  0  0  0  0
    0.5041    0.2128   -0.2884 C   0  0  0  0  0  0  0  0  0  0  0  0
    0.5189   -0.8989   -1.2588 C   0  0  0  0  0  0  0  0  0  0  0  0
   -0.6800   -0.9720   -1.8073 C   0  0  0  0  0  0  0  0  0  0  0  0
   -1.5854    0.0822   -1.2458 C   0  0  0  0  0  0  0  0  0  0  0  0
   -0.9187    0.2748    0.1312 C   0  0  0  0  0  0  0  0  0  0  0  0
   -1.3305    1.6058    0.7146 C   0  0  0  0  0  0  0  0  0  0  0  0
   -1.3746   -0.8603    0.9860 C   0  0  0  0  0  0  0  0  0  0  0  0
    3.0082   -1.0200   -0.2686 H   0  0  0  0  0  0  0  0  0  0  0  0
    3.6609   -0.0136    1.0405 H   0  0  0  0  0  0  0  0  0  0  0  0
    3.0573    0.7475   -0.5171 H   0  0  0  0  0  0  0  0  0  0  0  0
    1.3052   -0.9455    1.3461 H   0  0  0  0  0  0  0  0  0  0  0  0
    1.4084    0.8200    1.5968 H   0  0  0  0  0  0  0  0  0  0  0  0
    0.7493    1.1363   -0.8404 H   0  0  0  0  0  0  0  0  0  0  0  0
    1.3822   -1.5210   -1.4564 H   0  0  0  0  0  0  0  0  0  0  0  0
   -0.9369   -1.7132   -2.5630 H   0  0  0  0  0  0  0  0  0  0  0  0
   -1.4543    1.0225   -1.8036 H   0  0  0  0  0  0  0  0  0  0  0  0
   -2.6153   -0.2511   -1.1311 H   0  0  0  0  0  0  0  0  0  0  0  0
   -1.2860    1.5632    1.8333 H   0  0  0  0  0  0  0  0  0  0  0  0
   -2.4063    1.7678    0.4675 H   0  0  0  0  0  0  0  0  0  0  0  0
   -0.6937    2.3779    0.2845 H   0  0  0  0  0  0  0  0  0  0  0  0
   -2.3207   -0.5207    1.5008 H   0  0  0  0  0  0  0  0  0  0  0  0
   -1.6780   -1.7537    0.4002 H   0  0  0  0  0  0  0  0  0  0  0  0
   -0.6758   -1.1349    1.7942 H   0  0  0  0  0  0  0  0  0  0  0  0
  1  2  1  0
  2  3  1  0
  3  4  1  0
  4  5  2  0
  5  6  1  0
  6  7  1  0
  7  8  1  0
  7  9  1  0
  7  3  1  0
  1 10  1  0
  1 11  1  0
  1 12  1  0
  2 13  1  0
  2 14  1  0
  3 15  1  0
  4 16  1  0
  5 17  1  0
  6 18  1  0
  6 19  1  0
  8 20  1  0
  8 21  1  0
  8 22  1  0
  9 23  1  0
  9 24  1  0
  9 25  1  0
M  END
