
     RDKit          3D

 23 24  0  0  0  0  0  0  0  0999 V2000
    2.5129   -0.2434   -0.1822 C   0  0  0  0  0  0  0  0  0  0  0  0
    1.3310   -0.3995   -1.1533 C   0  0  0  0  0  0  0  0  0  0  0  0
    0.1128   -0.0277   -0.4447 C   0  0  0  0  0  0  0  0  0  0  0  0
    0.0843    1.3685    0.0711 C   0  0  0  0  0  0  0  0  0  0  0  0
   -0.6719    1.4257    1.1886 C   0  0  0  0  0  0  0  0  0  0  0  0
   -1.2985    0.0827    1.2974 C   0  0  0  0  0  0  0  0  0  0  0  0
   -2.1695   -0.1023    0.0785 C   0  0  0  0  0  0  0  0  0  0  0  0
   -1.1928   -0.3044   -1.0968 C   0  0  0  0  0  0  0  0  0  0  0  0
   -0.0886   -0.7791    0.8848 C   0  0  0  0  0  0  0  0  0  0  0  0
    3.3816    0.2106   -0.6899 H   0  0  0  0  0  0  0  0  0  0  0  0
    2.7439   -1.2088    0.3127 H   0  0  0  0  0  0  0  0  0  0  0  0
    2.2389    0.4615    0.6445 H   0  0  0  0  0  0  0  0  0  0  0  0
    1.3071   -1.4183   -1.5272 H   0  0  0  0  0  0  0  0  0  0  0  0
    1.4696    0.2737   -2.0175 H   0  0  0  0  0  0  0  0  0  0  0  0
    0.5983    2.2021   -0.3919 H   0  0  0  0  0  0  0  0  0  0  0  0
   -0.7468    2.2905    1.8042 H   0  0  0  0  0  0  0  0  0  0  0  0
   -1.7220   -0.1777    2.2360 H   0  0  0  0  0  0  0  0  0  0  0  0
   -2.8108   -0.9997    0.2052 H   0  0  0  0  0  0  0  0  0  0  0  0
   -2.7663    0.8173   -0.1505 H   0  0  0  0  0  0  0  0  0  0  0  0
   -1.2706   -1.3813   -1.4171 H   0  0  0  0  0  0  0  0  0  0  0  0
   -1.4182    0.3713   -1.9264 H   0  0  0  0  0  0  0  0  0  0  0  0
   -0.3736   -1.8199    0.7122 H   0  0  0  0  0  0  0  0  0  0  0  0
    0.7492   -0.6418    1.5621 H   0  0  0  0  0  0  0  0  0  0  0  0
  1  2  1  0
  2  3  1  0
  3  4  1  0
  4  5  2  0
  5  6  1  0
  6  7  1  0
  7  8  1  0
  6  9  1  0
  8  3  1  0
  9  3  1  0
  1 10  1  0
  1 11  1  0
  1 12  1  0
  2 13  1  0
  2 14  1  0
  4 15  1  0
  5 16  1  0
  6 17  1  0
  7 18  1  0
  7 19  1  0
  8 20  1  0
  8 21  1  0
  9 22  1  0
  9 23  1  0
M  END
