
     RDKit          3D

 23 23  0  0  0  0  0  0  0  0999 V2000
   -1.5456    1.7518    0.2946 C   0  0  0  0  0  0  0  0  0  0  0  0
   -1.7577    0.3294   -0.1138 C   0  0  0  0  0  0  0  0  0  0  0  0
   -0.5236   -0.5128   -0.0834 C   0  0  0  0  0  0  0  0  0  0  0  0
   -0.9138   -1.9154   -0.5224 C   0  0  0  0  0  0  0  0  0  0  0  0
    0.1103   -0.6182    1.2647 C   0  0  0  0  0  0  0  0  0  0  0  0
    1.4794   -0.7212    0.9155 O   0  0  0  0  0  0  0  0  0  0  0  0
    1.5287    0.2844   -0.0739 C   0  0  0  0  0  0  0  0  0  0  0  0
    2.8499    0.3590   -0.7548 C   0  0  0  0  0  0  0  0  0  0  0  0
    0.4705   -0.0190   -0.9283 O   0  0  0  0  0  0  0  0  0  0  0  0
   -0.6972    2.2497   -0.2003 H   0  0  0  0  0  0  0  0  0  0  0  0
   -1.4504    1.8366    1.4103 H   0  0  0  0  0  0  0  0  0  0  0  0
   -2.4605    2.3228   -0.0423 H   0  0  0  0  0  0  0  0  0  0  0  0
   -2.1277    0.3380   -1.1665 H   0  0  0  0  0  0  0  0  0  0  0  0
   -2.5288   -0.1105    0.5139 H   0  0  0  0  0  0  0  0  0  0  0  0
   -0.0711   -2.6170   -0.4887 H   0  0  0  0  0  0  0  0  0  0  0  0
   -1.7183   -2.2828    0.1542 H   0  0  0  0  0  0  0  0  0  0  0  0
   -1.3560   -1.8314   -1.5295 H   0  0  0  0  0  0  0  0  0  0  0  0
   -0.1625   -1.5443    1.7988 H   0  0  0  0  0  0  0  0  0  0  0  0
   -0.0717    0.2638    1.9004 H   0  0  0  0  0  0  0  0  0  0  0  0
    1.3714    1.2387    0.4779 H   0  0  0  0  0  0  0  0  0  0  0  0
    3.3437    1.3628   -0.6459 H   0  0  0  0  0  0  0  0  0  0  0  0
    2.6780    0.2191   -1.8486 H   0  0  0  0  0  0  0  0  0  0  0  0
    3.5531   -0.3835   -0.3319 H   0  0  0  0  0  0  0  0  0  0  0  0
  1  2  1  0
  2  3  1  0
  3  4  1  0
  3  5  1  0
  5  6  1  0
  6  7  1  0
  7  8  1  0
  7  9  1  0
  9  3  1  0
  1 10  1  0
  1 11  1  0
  1 12  1  0
  2 13  1  0
  2 14  1  0
  4 15  1  0
  4 16  1  0
  4 17  1  0
  5 18  1  0
  5 19  1  0
  7 20  1  0
  8 21  1  0
  8 22  1  0
  8 23  1  0
M  END
