
     RDKit          3D

 19 20  0  0  0  0  0  0  0  0999 V2000
   -2.1359   -0.3172   -0.9535 C   0  0  0  0  0  0  0  0  0  0  0  0
   -1.7981    0.2568    0.3694 C   0  0  0  0  0  0  0  0  0  0  0  0
   -0.3558    0.2383    0.7257 C   0  0  0  0  0  0  0  0  0  0  0  0
    0.6124    0.9472   -0.1226 C   0  0  0  0  0  0  0  0  0  0  0  0
    0.3996   -0.0125   -1.1014 O   0  0  0  0  0  0  0  0  0  0  0  0
    0.4775   -0.7992    0.0388 C   0  0  0  0  0  0  0  0  0  0  0  0
    1.6737    0.0150    0.4113 C   0  0  0  0  0  0  0  0  0  0  0  0
    2.8659   -0.1414   -0.4338 C   0  0  0  0  0  0  0  0  0  0  0  0
    3.4882    0.8834   -0.7247 O   0  0  0  0  0  0  0  0  0  0  0  0
   -1.9927    0.3471   -1.8086 H   0  0  0  0  0  0  0  0  0  0  0  0
   -3.2206   -0.6266   -0.9775 H   0  0  0  0  0  0  0  0  0  0  0  0
   -1.5746   -1.2619   -1.1250 H   0  0  0  0  0  0  0  0  0  0  0  0
   -2.3557   -0.2776    1.1810 H   0  0  0  0  0  0  0  0  0  0  0  0
   -2.1498    1.3220    0.4472 H   0  0  0  0  0  0  0  0  0  0  0  0
   -0.1142    0.3085    1.8049 H   0  0  0  0  0  0  0  0  0  0  0  0
    0.7325    1.9376   -0.2745 H   0  0  0  0  0  0  0  0  0  0  0  0
    0.3737   -1.7996    0.0933 H   0  0  0  0  0  0  0  0  0  0  0  0
    1.8305    0.0491    1.5010 H   0  0  0  0  0  0  0  0  0  0  0  0
    3.2436   -1.0690   -0.8208 H   0  0  0  0  0  0  0  0  0  0  0  0
  1  2  1  0
  2  3  1  0
  3  4  1  0
  4  5  1  0
  5  6  1  0
  6  7  1  0
  7  8  1  0
  8  9  2  0
  6  3  1  0
  7  4  1  0
  1 10  1  0
  1 11  1  0
  1 12  1  0
  2 13  1  0
  2 14  1  0
  3 15  1  0
  4 16  1  0
  6 17  1  0
  7 18  1  0
  8 19  1  0
M  END
