
     RDKit          3D

 21 21  0  0  0  0  0  0  0  0999 V2000
    2.4888   -0.4273   -0.2394 C   0  0  0  0  0  0  0  0  0  0  0  0
    1.4125    0.6397   -0.1742 C   0  0  0  0  0  0  0  0  0  0  0  0
    0.2459    0.0694    0.5496 C   0  0  0  0  0  0  0  0  0  0  0  0
   -0.9465    0.9779    0.7255 C   0  0  0  0  0  0  0  0  0  0  0  0
   -1.1348    1.9054   -0.2894 O   0  0  0  0  0  0  0  0  0  0  0  0
   -1.8161   -0.2580    0.4512 C   0  0  0  0  0  0  0  0  0  0  0  0
   -2.9307   -0.0234   -0.3095 O   0  0  0  0  0  0  0  0  0  0  0  0
   -0.6359   -0.7734   -0.3828 C   0  0  0  0  0  0  0  0  0  0  0  0
   -0.4226   -2.1281   -0.3066 O   0  0  0  0  0  0  0  0  0  0  0  0
    3.0739   -0.4852    0.7007 H   0  0  0  0  0  0  0  0  0  0  0  0
    1.9614   -1.4037   -0.3453 H   0  0  0  0  0  0  0  0  0  0  0  0
    3.2105   -0.2608   -1.0517 H   0  0  0  0  0  0  0  0  0  0  0  0
    1.8560    1.5308    0.2900 H   0  0  0  0  0  0  0  0  0  0  0  0
    1.1183    0.8361   -1.2437 H   0  0  0  0  0  0  0  0  0  0  0  0
    0.4992   -0.4430    1.4906 H   0  0  0  0  0  0  0  0  0  0  0  0
   -1.1120    1.3641    1.7479 H   0  0  0  0  0  0  0  0  0  0  0  0
   -0.2829    2.3211   -0.5901 H   0  0  0  0  0  0  0  0  0  0  0  0
   -1.9336   -0.8743    1.3506 H   0  0  0  0  0  0  0  0  0  0  0  0
   -3.6607    0.3152    0.2336 H   0  0  0  0  0  0  0  0  0  0  0  0
   -0.5898   -0.3220   -1.3920 H   0  0  0  0  0  0  0  0  0  0  0  0
   -0.4009   -2.5609   -1.2151 H   0  0  0  0  0  0  0  0  0  0  0  0
  1  2  1  0
  2  3  1  0
  3  4  1  0
  4  5  1  0
  4  6  1  0
  6  7  1  0
  6  8  1  0
  8  9  1  0
  8  3  1  0
  1 10  1  0
  1 11  1  0
  1 12  1  0
  2 13  1  0
  2 14  1  0
  3 15  1  0
  4 16  1  0
  5 17  1  0
  6 18  1  0
  7 19  1  0
  8 20  1  0
  9 21  1  0
M  END
