
     RDKit          3D

 21 21  0  0  0  0  0  0  0  0999 V2000
    2.4361   -0.5962   -0.0747 C   0  0  0  0  0  0  0  0  0  0  0  0
    0.9528   -0.8415   -0.3268 C   0  0  0  0  0  0  0  0  0  0  0  0
    0.2728    0.4985   -0.2099 C   0  0  0  0  0  0  0  0  0  0  0  0
    0.5173    1.0332    1.1819 C   0  0  0  0  0  0  0  0  0  0  0  0
    1.3828    1.7252    1.6538 O   0  0  0  0  0  0  0  0  0  0  0  0
   -0.7293    0.3289    1.5875 C   0  0  0  0  0  0  0  0  0  0  0  0
   -1.1815    0.4814    0.1313 C   0  0  0  0  0  0  0  0  0  0  0  0
   -1.9992   -0.6443   -0.3921 C   0  0  0  0  0  0  0  0  0  0  0  0
   -1.7463    1.7401   -0.0260 O   0  0  0  0  0  0  0  0  0  0  0  0
    2.6917    0.4816   -0.1323 H   0  0  0  0  0  0  0  0  0  0  0  0
    2.7275   -0.9157    0.9627 H   0  0  0  0  0  0  0  0  0  0  0  0
    3.0729   -1.1158   -0.8031 H   0  0  0  0  0  0  0  0  0  0  0  0
    0.8772   -1.2609   -1.3471 H   0  0  0  0  0  0  0  0  0  0  0  0
    0.6201   -1.5366    0.4553 H   0  0  0  0  0  0  0  0  0  0  0  0
    0.5284    1.1844   -1.0175 H   0  0  0  0  0  0  0  0  0  0  0  0
   -0.6220   -0.7211    1.8589 H   0  0  0  0  0  0  0  0  0  0  0  0
   -1.3096    0.9129    2.2999 H   0  0  0  0  0  0  0  0  0  0  0  0
   -3.0729   -0.4057   -0.1652 H   0  0  0  0  0  0  0  0  0  0  0  0
   -1.9015   -0.8371   -1.4587 H   0  0  0  0  0  0  0  0  0  0  0  0
   -1.7936   -1.5974    0.1770 H   0  0  0  0  0  0  0  0  0  0  0  0
   -1.7237    2.0861   -0.9326 H   0  0  0  0  0  0  0  0  0  0  0  0
  1  2  1  0
  2  3  1  0
  3  4  1  0
  4  5  2  0
  4  6  1  0
  6  7  1  0
  7  8  1  0
  7  9  1  0
  7  3  1  0
  1 10  1  0
  1 11  1  0
  1 12  1  0
  2 13  1  0
  2 14  1  0
  3 15  1  0
  6 16  1  0
  6 17  1  0
  8 18  1  0
  8 19  1  0
  8 20  1  0
  9 21  1  0
M  END
