
     RDKit          3D

 17 18  0  0  0  0  0  0  0  0999 V2000
    2.0310    0.1275   -0.2010 C   0  0  0  0  0  0  0  0  0  0  0  0
    0.9197   -0.7426    0.2985 C   0  0  0  0  0  0  0  0  0  0  0  0
   -0.4160   -0.0807    0.3207 C   0  0  0  0  0  0  0  0  0  0  0  0
   -0.6503    1.1281    1.1228 C   0  0  0  0  0  0  0  0  0  0  0  0
   -0.2583    1.5256    2.2346 O   0  0  0  0  0  0  0  0  0  0  0  0
   -1.4923    1.7148    0.1957 O   0  0  0  0  0  0  0  0  0  0  0  0
   -0.8970    0.8112   -0.7504 C   0  0  0  0  0  0  0  0  0  0  0  0
   -1.4016   -0.5553   -0.6789 C   0  0  0  0  0  0  0  0  0  0  0  0
   -2.7182   -0.8338   -0.2843 O   0  0  0  0  0  0  0  0  0  0  0  0
    1.9808    0.1390   -1.3087 H   0  0  0  0  0  0  0  0  0  0  0  0
    1.9155    1.1232    0.2557 H   0  0  0  0  0  0  0  0  0  0  0  0
    2.9875   -0.3728    0.0683 H   0  0  0  0  0  0  0  0  0  0  0  0
    1.1737   -1.0009    1.3693 H   0  0  0  0  0  0  0  0  0  0  0  0
    0.8552   -1.6898   -0.2319 H   0  0  0  0  0  0  0  0  0  0  0  0
   -0.2636    1.2086   -1.5405 H   0  0  0  0  0  0  0  0  0  0  0  0
   -1.0454   -1.2507   -1.4621 H   0  0  0  0  0  0  0  0  0  0  0  0
   -2.7206   -1.2515    0.5921 H   0  0  0  0  0  0  0  0  0  0  0  0
  1  2  1  0
  2  3  1  0
  3  4  1  0
  4  5  2  0
  4  6  1  0
  6  7  1  0
  7  8  1  0
  8  9  1  0
  7  3  1  0
  8  3  1  0
  1 10  1  0
  1 11  1  0
  1 12  1  0
  2 13  1  0
  2 14  1  0
  7 15  1  0
  8 16  1  0
  9 17  1  0
M  END
