
     RDKit          3D

 20 20  0  0  0  0  0  0  0  0999 V2000
   -2.0160    0.7272   -0.0644 C   0  0  0  0  0  0  0  0  0  0  0  0
   -0.8566    0.2917   -0.9367 C   0  0  0  0  0  0  0  0  0  0  0  0
    0.1082   -0.4444   -0.0530 C   0  0  0  0  0  0  0  0  0  0  0  0
   -0.5572   -1.6283    0.5531 C   0  0  0  0  0  0  0  0  0  0  0  0
   -0.8244   -1.6546    1.7419 O   0  0  0  0  0  0  0  0  0  0  0  0
    1.4798   -0.6667   -0.5986 C   0  0  0  0  0  0  0  0  0  0  0  0
    1.8950    0.6598   -0.0033 C   0  0  0  0  0  0  0  0  0  0  0  0
    0.7148    0.5089    0.9565 C   0  0  0  0  0  0  0  0  0  0  0  0
   -1.7909    1.7257    0.3722 H   0  0  0  0  0  0  0  0  0  0  0  0
   -2.9627    0.7072   -0.6206 H   0  0  0  0  0  0  0  0  0  0  0  0
   -2.1483    0.0478    0.8156 H   0  0  0  0  0  0  0  0  0  0  0  0
   -1.2187   -0.4487   -1.7072 H   0  0  0  0  0  0  0  0  0  0  0  0
   -0.3513    1.1308   -1.4307 H   0  0  0  0  0  0  0  0  0  0  0  0
   -0.7826   -2.4520   -0.1303 H   0  0  0  0  0  0  0  0  0  0  0  0
    2.0256   -1.4861   -0.1106 H   0  0  0  0  0  0  0  0  0  0  0  0
    1.5315   -0.6263   -1.6860 H   0  0  0  0  0  0  0  0  0  0  0  0
    2.8239    0.6166    0.5707 H   0  0  0  0  0  0  0  0  0  0  0  0
    1.7826    1.5362   -0.6797 H   0  0  0  0  0  0  0  0  0  0  0  0
    0.1909    1.4511    1.1054 H   0  0  0  0  0  0  0  0  0  0  0  0
    0.9564    0.0040    1.9057 H   0  0  0  0  0  0  0  0  0  0  0  0
  1  2  1  0
  2  3  1  0
  3  4  1  0
  4  5  2  0
  3  6  1  0
  6  7  1  0
  7  8  1  0
  8  3  1  0
  1  9  1  0
  1 10  1  0
  1 11  1  0
  2 12  1  0
  2 13  1  0
  4 14  1  0
  6 15  1  0
  6 16  1  0
  7 17  1  0
  7 18  1  0
  8 19  1  0
  8 20  1  0
M  END
