
     RDKit          3D

 21 22  0  0  0  0  0  0  0  0999 V2000
    2.4225   -0.1000   -0.7125 C   0  0  0  0  0  0  0  0  0  0  0  0
    0.9945    0.2063   -1.1117 C   0  0  0  0  0  0  0  0  0  0  0  0
    0.0518    0.0261    0.0676 C   0  0  0  0  0  0  0  0  0  0  0  0
    0.4291    0.9543    1.2125 C   0  0  0  0  0  0  0  0  0  0  0  0
    0.0789   -1.3219    0.4563 O   0  0  0  0  0  0  0  0  0  0  0  0
   -0.9830   -1.5409   -0.4246 C   0  0  0  0  0  0  0  0  0  0  0  0
   -1.3767   -0.1181   -0.2305 C   0  0  0  0  0  0  0  0  0  0  0  0
   -2.5286    0.3814    0.2700 C   0  0  0  0  0  0  0  0  0  0  0  0
   -2.0635    0.6014   -1.1488 O   0  0  0  0  0  0  0  0  0  0  0  0
    3.0362   -0.1004   -1.6333 H   0  0  0  0  0  0  0  0  0  0  0  0
    2.8223    0.6666   -0.0473 H   0  0  0  0  0  0  0  0  0  0  0  0
    2.4912   -1.1094   -0.2491 H   0  0  0  0  0  0  0  0  0  0  0  0
    0.6477   -0.4300   -1.9233 H   0  0  0  0  0  0  0  0  0  0  0  0
    0.9899    1.2665   -1.4669 H   0  0  0  0  0  0  0  0  0  0  0  0
    0.9198    0.3478    2.0023 H   0  0  0  0  0  0  0  0  0  0  0  0
   -0.4487    1.5088    1.5897 H   0  0  0  0  0  0  0  0  0  0  0  0
    1.1652    1.7016    0.8645 H   0  0  0  0  0  0  0  0  0  0  0  0
   -1.7811   -2.2144   -0.0011 H   0  0  0  0  0  0  0  0  0  0  0  0
   -0.7158   -1.8660   -1.4325 H   0  0  0  0  0  0  0  0  0  0  0  0
   -2.6590    1.3483    0.7975 H   0  0  0  0  0  0  0  0  0  0  0  0
   -3.4927   -0.2080    0.2668 H   0  0  0  0  0  0  0  0  0  0  0  0
  1  2  1  0
  2  3  1  0
  3  4  1  0
  3  5  1  0
  5  6  1  0
  6  7  1  0
  7  8  1  0
  8  9  1  0
  7  3  1  0
  9  7  1  0
  1 10  1  0
  1 11  1  0
  1 12  1  0
  2 13  1  0
  2 14  1  0
  4 15  1  0
  4 16  1  0
  4 17  1  0
  6 18  1  0
  6 19  1  0
  8 20  1  0
  8 21  1  0
M  END
