
     RDKit          3D

 23 24  0  0  0  0  0  0  0  0999 V2000
    1.9163   -0.5661    0.7987 C   0  0  0  0  0  0  0  0  0  0  0  0
    1.4979   -0.5733   -0.6300 C   0  0  0  0  0  0  0  0  0  0  0  0
    0.1363    0.0220   -0.8720 C   0  0  0  0  0  0  0  0  0  0  0  0
   -0.9429   -0.6442   -0.1830 C   0  0  0  0  0  0  0  0  0  0  0  0
   -1.1011   -2.1193    0.0075 C   0  0  0  0  0  0  0  0  0  0  0  0
   -1.7981    0.2379    0.2715 C   0  0  0  0  0  0  0  0  0  0  0  0
   -1.3886    1.6221   -0.0624 C   0  0  0  0  0  0  0  0  0  0  0  0
   -0.1992    2.1074    0.6767 C   0  0  0  0  0  0  0  0  0  0  0  0
    0.0321    1.4641   -0.6273 C   0  0  0  0  0  0  0  0  0  0  0  0
    2.5569    0.3379    0.9823 H   0  0  0  0  0  0  0  0  0  0  0  0
    2.5737   -1.4375    1.0666 H   0  0  0  0  0  0  0  0  0  0  0  0
    1.0954   -0.5256    1.5251 H   0  0  0  0  0  0  0  0  0  0  0  0
    2.2079   -0.0462   -1.2893 H   0  0  0  0  0  0  0  0  0  0  0  0
    1.4585   -1.6266   -1.0031 H   0  0  0  0  0  0  0  0  0  0  0  0
   -0.0430   -0.1416   -1.9839 H   0  0  0  0  0  0  0  0  0  0  0  0
   -0.2290   -2.6786   -0.3580 H   0  0  0  0  0  0  0  0  0  0  0  0
   -1.1743   -2.2914    1.1005 H   0  0  0  0  0  0  0  0  0  0  0  0
   -2.0194   -2.4283   -0.5395 H   0  0  0  0  0  0  0  0  0  0  0  0
   -2.7112    0.0234    0.8312 H   0  0  0  0  0  0  0  0  0  0  0  0
   -2.0793    2.3040   -0.5760 H   0  0  0  0  0  0  0  0  0  0  0  0
    0.0236    1.6190    1.6316 H   0  0  0  0  0  0  0  0  0  0  0  0
   -0.0520    3.2062    0.7188 H   0  0  0  0  0  0  0  0  0  0  0  0
    0.2397    2.1347   -1.4861 H   0  0  0  0  0  0  0  0  0  0  0  0
  1  2  1  0
  2  3  1  0
  3  4  1  0
  4  5  1  0
  4  6  2  0
  6  7  1  0
  7  8  1  0
  8  9  1  0
  9  3  1  0
  9  7  1  0
  1 10  1  0
  1 11  1  0
  1 12  1  0
  2 13  1  0
  2 14  1  0
  3 15  1  0
  5 16  1  0
  5 17  1  0
  5 18  1  0
  6 19  1  0
  7 20  1  0
  8 21  1  0
  8 22  1  0
  9 23  1  0
M  END
