
     RDKit          3D

 21 22  0  0  0  0  0  0  0  0999 V2000
   -2.8908   -0.0772   -0.4992 C   0  0  0  0  0  0  0  0  0  0  0  0
   -1.7766   -0.1795    0.5047 C   0  0  0  0  0  0  0  0  0  0  0  0
   -0.5234    0.5455    0.0676 C   0  0  0  0  0  0  0  0  0  0  0  0
    0.0477    0.1179   -1.1062 O   0  0  0  0  0  0  0  0  0  0  0  0
    1.2944    0.0266   -0.5292 C   0  0  0  0  0  0  0  0  0  0  0  0
    2.3230    1.0756   -0.7653 C   0  0  0  0  0  0  0  0  0  0  0  0
    1.4803   -1.0774    0.4393 C   0  0  0  0  0  0  0  0  0  0  0  0
    0.8744   -2.2822    0.0304 O   0  0  0  0  0  0  0  0  0  0  0  0
    0.6571    0.0753    0.8550 C   0  0  0  0  0  0  0  0  0  0  0  0
   -2.7877    0.8546   -1.0909 H   0  0  0  0  0  0  0  0  0  0  0  0
   -3.8811   -0.1826   -0.0148 H   0  0  0  0  0  0  0  0  0  0  0  0
   -2.8045   -0.9438   -1.1989 H   0  0  0  0  0  0  0  0  0  0  0  0
   -1.5548   -1.2020    0.8302 H   0  0  0  0  0  0  0  0  0  0  0  0
   -2.1357    0.3630    1.4268 H   0  0  0  0  0  0  0  0  0  0  0  0
   -0.6700    1.6515    0.0345 H   0  0  0  0  0  0  0  0  0  0  0  0
    1.7890    2.0713   -0.7620 H   0  0  0  0  0  0  0  0  0  0  0  0
    3.0594    1.1530    0.0643 H   0  0  0  0  0  0  0  0  0  0  0  0
    2.8910    0.9609   -1.6923 H   0  0  0  0  0  0  0  0  0  0  0  0
    2.4235   -1.2204    0.9915 H   0  0  0  0  0  0  0  0  0  0  0  0
    1.1402   -2.4930   -0.9163 H   0  0  0  0  0  0  0  0  0  0  0  0
    1.0446    0.7630    1.6088 H   0  0  0  0  0  0  0  0  0  0  0  0
  1  2  1  0
  2  3  1  0
  3  4  1  0
  4  5  1  0
  5  6  1  0
  5  7  1  0
  7  8  1  0
  7  9  1  0
  9  3  1  0
  9  5  1  0
  1 10  1  0
  1 11  1  0
  1 12  1  0
  2 13  1  0
  2 14  1  0
  3 15  1  0
  6 16  1  0
  6 17  1  0
  6 18  1  0
  7 19  1  0
  8 20  1  0
  9 21  1  0
M  END
