
     RDKit          3D

 23 24  0  0  0  0  0  0  0  0999 V2000
    2.1775    0.8557    0.4879 C   0  0  0  0  0  0  0  0  0  0  0  0
    2.0139   -0.5076   -0.0954 C   0  0  0  0  0  0  0  0  0  0  0  0
    0.5831   -0.9541   -0.1855 C   0  0  0  0  0  0  0  0  0  0  0  0
   -0.0939   -1.0091    1.1182 C   0  0  0  0  0  0  0  0  0  0  0  0
   -0.9535   -0.0250    1.2906 C   0  0  0  0  0  0  0  0  0  0  0  0
   -0.9399    0.8209    0.0768 C   0  0  0  0  0  0  0  0  0  0  0  0
   -2.2267    0.7222   -0.7289 C   0  0  0  0  0  0  0  0  0  0  0  0
   -1.6330   -0.5462   -1.3457 C   0  0  0  0  0  0  0  0  0  0  0  0
   -0.2778    0.0054   -0.9681 C   0  0  0  0  0  0  0  0  0  0  0  0
    1.4421    1.0974    1.2876 H   0  0  0  0  0  0  0  0  0  0  0  0
    3.1837    0.9099    0.9968 H   0  0  0  0  0  0  0  0  0  0  0  0
    2.1994    1.6233   -0.3161 H   0  0  0  0  0  0  0  0  0  0  0  0
    2.4649   -0.5160   -1.1090 H   0  0  0  0  0  0  0  0  0  0  0  0
    2.5651   -1.2399    0.5198 H   0  0  0  0  0  0  0  0  0  0  0  0
    0.5264   -1.9416   -0.6768 H   0  0  0  0  0  0  0  0  0  0  0  0
    0.0986   -1.7947    1.8747 H   0  0  0  0  0  0  0  0  0  0  0  0
   -1.5870    0.1445    2.1985 H   0  0  0  0  0  0  0  0  0  0  0  0
   -0.5729    1.8536    0.2210 H   0  0  0  0  0  0  0  0  0  0  0  0
   -3.1359    0.5306   -0.1199 H   0  0  0  0  0  0  0  0  0  0  0  0
   -2.3008    1.5098   -1.4800 H   0  0  0  0  0  0  0  0  0  0  0  0
   -1.9126   -1.4078   -0.7180 H   0  0  0  0  0  0  0  0  0  0  0  0
   -1.8214   -0.6490   -2.4312 H   0  0  0  0  0  0  0  0  0  0  0  0
    0.2006    0.5176   -1.8087 H   0  0  0  0  0  0  0  0  0  0  0  0
  1  2  1  0
  2  3  1  0
  3  4  1  0
  4  5  2  0
  5  6  1  0
  6  7  1  0
  7  8  1  0
  8  9  1  0
  9  3  1  0
  9  6  1  0
  1 10  1  0
  1 11  1  0
  1 12  1  0
  2 13  1  0
  2 14  1  0
  3 15  1  0
  4 16  1  0
  5 17  1  0
  6 18  1  0
  7 19  1  0
  7 20  1  0
  8 21  1  0
  8 22  1  0
  9 23  1  0
M  END
