
     RDKit          3D

 21 22  0  0  0  0  0  0  0  0999 V2000
   -2.5055   -0.1706    0.6552 C   0  0  0  0  0  0  0  0  0  0  0  0
   -1.0069   -0.2327    0.8603 C   0  0  0  0  0  0  0  0  0  0  0  0
   -0.3269   -0.0052   -0.4711 C   0  0  0  0  0  0  0  0  0  0  0  0
    1.1656   -0.0152   -0.5556 C   0  0  0  0  0  0  0  0  0  0  0  0
    1.7827   -1.3532   -0.1099 C   0  0  0  0  0  0  0  0  0  0  0  0
    2.0314   -0.0530    0.6368 C   0  0  0  0  0  0  0  0  0  0  0  0
    3.3318    0.4181    0.4892 O   0  0  0  0  0  0  0  0  0  0  0  0
   -1.1415    0.3491   -1.6419 C   0  0  0  0  0  0  0  0  0  0  0  0
   -0.8594   -1.0065   -1.4310 O   0  0  0  0  0  0  0  0  0  0  0  0
   -3.0067   -0.3795    1.6287 H   0  0  0  0  0  0  0  0  0  0  0  0
   -2.8456   -0.8997   -0.0815 H   0  0  0  0  0  0  0  0  0  0  0  0
   -2.7501    0.8868    0.3962 H   0  0  0  0  0  0  0  0  0  0  0  0
   -0.7781   -1.2695    1.2178 H   0  0  0  0  0  0  0  0  0  0  0  0
   -0.7373    0.5026    1.6110 H   0  0  0  0  0  0  0  0  0  0  0  0
    1.5768    0.4560   -1.4619 H   0  0  0  0  0  0  0  0  0  0  0  0
    1.1491   -2.0617    0.4372 H   0  0  0  0  0  0  0  0  0  0  0  0
    2.5567   -1.7329   -0.8048 H   0  0  0  0  0  0  0  0  0  0  0  0
    1.6375    0.0425    1.6687 H   0  0  0  0  0  0  0  0  0  0  0  0
    3.5123    1.2365    1.0053 H   0  0  0  0  0  0  0  0  0  0  0  0
   -2.1789    0.6774   -1.5519 H   0  0  0  0  0  0  0  0  0  0  0  0
   -0.6069    0.8522   -2.4967 H   0  0  0  0  0  0  0  0  0  0  0  0
  1  2  1  0
  2  3  1  0
  3  4  1  0
  4  5  1  0
  5  6  1  0
  6  7  1  0
  3  8  1  0
  8  9  1  0
  9  3  1  0
  6  4  1  0
  1 10  1  0
  1 11  1  0
  1 12  1  0
  2 13  1  0
  2 14  1  0
  4 15  1  0
  5 16  1  0
  5 17  1  0
  6 18  1  0
  7 19  1  0
  8 20  1  0
  8 21  1  0
M  END
