
     RDKit          3D

 21 22  0  0  0  0  0  0  0  0999 V2000
    2.3399   -0.7439    0.2556 C   0  0  0  0  0  0  0  0  0  0  0  0
    1.5464    0.3046   -0.4657 C   0  0  0  0  0  0  0  0  0  0  0  0
    0.1035    0.2926   -0.1659 C   0  0  0  0  0  0  0  0  0  0  0  0
   -0.6228   -0.9749   -0.4971 C   0  0  0  0  0  0  0  0  0  0  0  0
   -2.0765   -0.4872   -0.3950 C   0  0  0  0  0  0  0  0  0  0  0  0
   -1.8685    1.0204   -0.2509 C   0  0  0  0  0  0  0  0  0  0  0  0
   -1.5340    1.2668    1.0751 O   0  0  0  0  0  0  0  0  0  0  0  0
   -0.2167    0.8004    1.2063 C   0  0  0  0  0  0  0  0  0  0  0  0
   -0.6458    1.2091   -0.9439 O   0  0  0  0  0  0  0  0  0  0  0  0
    2.0456   -0.8676    1.3100 H   0  0  0  0  0  0  0  0  0  0  0  0
    2.2492   -1.6851   -0.3237 H   0  0  0  0  0  0  0  0  0  0  0  0
    3.4101   -0.3952    0.2609 H   0  0  0  0  0  0  0  0  0  0  0  0
    1.7479    0.2108   -1.5585 H   0  0  0  0  0  0  0  0  0  0  0  0
    1.9655    1.2896   -0.1717 H   0  0  0  0  0  0  0  0  0  0  0  0
   -0.4563   -1.2383   -1.5517 H   0  0  0  0  0  0  0  0  0  0  0  0
   -0.4220   -1.7903    0.2068 H   0  0  0  0  0  0  0  0  0  0  0  0
   -2.5486   -0.8262    0.5400 H   0  0  0  0  0  0  0  0  0  0  0  0
   -2.6643   -0.7520   -1.2711 H   0  0  0  0  0  0  0  0  0  0  0  0
   -2.6763    1.6105   -0.6428 H   0  0  0  0  0  0  0  0  0  0  0  0
    0.4273    1.6961    1.3840 H   0  0  0  0  0  0  0  0  0  0  0  0
   -0.1036    0.0599    1.9991 H   0  0  0  0  0  0  0  0  0  0  0  0
  1  2  1  0
  2  3  1  0
  3  4  1  0
  4  5  1  0
  5  6  1  0
  6  7  1  0
  7  8  1  0
  6  9  1  0
  8  3  1  0
  9  3  1  0
  1 10  1  0
  1 11  1  0
  1 12  1  0
  2 13  1  0
  2 14  1  0
  4 15  1  0
  4 16  1  0
  5 17  1  0
  5 18  1  0
  6 19  1  0
  8 20  1  0
  8 21  1  0
M  END
