
     RDKit          3D

 23 23  0  0  0  0  0  0  0  0999 V2000
    2.1945    0.5459   -1.1066 C   0  0  0  0  0  0  0  0  0  0  0  0
    1.6631    0.4265    0.2995 C   0  0  0  0  0  0  0  0  0  0  0  0
    0.5579   -0.5628    0.4039 C   0  0  0  0  0  0  0  0  0  0  0  0
    0.0508   -0.6610    1.8051 C   0  0  0  0  0  0  0  0  0  0  0  0
    0.4354   -0.5622    2.9453 O   0  0  0  0  0  0  0  0  0  0  0  0
   -1.2936   -0.9695    1.1870 C   0  0  0  0  0  0  0  0  0  0  0  0
   -0.8016   -0.1537   -0.0182 C   0  0  0  0  0  0  0  0  0  0  0  0
   -1.3163   -0.7250   -1.3135 C   0  0  0  0  0  0  0  0  0  0  0  0
   -1.2020    1.2654    0.1448 C   0  0  0  0  0  0  0  0  0  0  0  0
    3.2896    0.7300   -1.0773 H   0  0  0  0  0  0  0  0  0  0  0  0
    1.7222    1.3729   -1.6568 H   0  0  0  0  0  0  0  0  0  0  0  0
    2.0678   -0.4387   -1.6104 H   0  0  0  0  0  0  0  0  0  0  0  0
    1.3813    1.3790    0.7414 H   0  0  0  0  0  0  0  0  0  0  0  0
    2.5194    0.0333    0.9239 H   0  0  0  0  0  0  0  0  0  0  0  0
    0.7981   -1.5837    0.0481 H   0  0  0  0  0  0  0  0  0  0  0  0
   -2.1375   -0.5195    1.7209 H   0  0  0  0  0  0  0  0  0  0  0  0
   -1.3723   -2.0161    0.8837 H   0  0  0  0  0  0  0  0  0  0  0  0
   -2.3013   -0.2289   -1.5109 H   0  0  0  0  0  0  0  0  0  0  0  0
   -1.4185   -1.8166   -1.1879 H   0  0  0  0  0  0  0  0  0  0  0  0
   -0.6669   -0.4374   -2.1663 H   0  0  0  0  0  0  0  0  0  0  0  0
   -0.5984    1.8633    0.8243 H   0  0  0  0  0  0  0  0  0  0  0  0
   -1.3227    1.7871   -0.8499 H   0  0  0  0  0  0  0  0  0  0  0  0
   -2.2489    1.2717    0.5700 H   0  0  0  0  0  0  0  0  0  0  0  0
  1  2  1  0
  2  3  1  0
  3  4  1  0
  4  5  2  0
  4  6  1  0
  6  7  1  0
  7  8  1  0
  7  9  1  0
  7  3  1  0
  1 10  1  0
  1 11  1  0
  1 12  1  0
  2 13  1  0
  2 14  1  0
  3 15  1  0
  6 16  1  0
  6 17  1  0
  8 18  1  0
  8 19  1  0
  8 20  1  0
  9 21  1  0
  9 22  1  0
  9 23  1  0
M  END
