
     RDKit          3D

 21 23  0  0  0  0  0  0  0  0999 V2000
    2.4811    0.2984   -0.3550 C   0  0  0  0  0  0  0  0  0  0  0  0
    1.4673   -0.2622    0.6162 C   0  0  0  0  0  0  0  0  0  0  0  0
    0.2345    0.5656    0.5454 C   0  0  0  0  0  0  0  0  0  0  0  0
   -0.8685    0.1239    1.4630 C   0  0  0  0  0  0  0  0  0  0  0  0
   -1.3195   -1.1606    0.8127 C   0  0  0  0  0  0  0  0  0  0  0  0
   -1.5496   -0.6123   -0.6059 C   0  0  0  0  0  0  0  0  0  0  0  0
   -1.9064    0.7806   -0.3634 C   0  0  0  0  0  0  0  0  0  0  0  0
   -1.8988    0.9819    1.0283 O   0  0  0  0  0  0  0  0  0  0  0  0
   -0.5117    0.4065   -0.7703 C   0  0  0  0  0  0  0  0  0  0  0  0
    2.0872    1.2050   -0.8890 H   0  0  0  0  0  0  0  0  0  0  0  0
    3.4218    0.5604    0.1956 H   0  0  0  0  0  0  0  0  0  0  0  0
    2.6983   -0.4355   -1.1853 H   0  0  0  0  0  0  0  0  0  0  0  0
    1.8378   -0.2268    1.6669 H   0  0  0  0  0  0  0  0  0  0  0  0
    1.3238   -1.3162    0.3686 H   0  0  0  0  0  0  0  0  0  0  0  0
    0.4906    1.6189    0.7616 H   0  0  0  0  0  0  0  0  0  0  0  0
   -0.6799    0.1080    2.5009 H   0  0  0  0  0  0  0  0  0  0  0  0
   -0.5699   -1.9449    0.7850 H   0  0  0  0  0  0  0  0  0  0  0  0
   -2.2414   -1.5702    1.2393 H   0  0  0  0  0  0  0  0  0  0  0  0
   -1.9259   -1.2564   -1.3791 H   0  0  0  0  0  0  0  0  0  0  0  0
   -2.5016    1.4127   -1.0077 H   0  0  0  0  0  0  0  0  0  0  0  0
   -0.0691    0.7233   -1.7018 H   0  0  0  0  0  0  0  0  0  0  0  0
  1  2  1  0
  2  3  1  0
  3  4  1  0
  4  5  1  0
  5  6  1  0
  6  7  1  0
  7  8  1  0
  7  9  1  0
  9  3  1  0
  8  4  1  0
  9  6  1  0
  1 10  1  0
  1 11  1  0
  1 12  1  0
  2 13  1  0
  2 14  1  0
  3 15  1  0
  4 16  1  0
  5 17  1  0
  5 18  1  0
  6 19  1  0
  7 20  1  0
  9 21  1  0
M  END
