
     RDKit          3D

 19 19  0  0  0  0  0  0  0  0999 V2000
    2.2415   -0.4772    0.5366 C   0  0  0  0  0  0  0  0  0  0  0  0
    1.1052   -0.7481   -0.4590 C   0  0  0  0  0  0  0  0  0  0  0  0
    0.0576    0.3183   -0.3146 C   0  0  0  0  0  0  0  0  0  0  0  0
   -1.1912    0.0586    0.0100 C   0  0  0  0  0  0  0  0  0  0  0  0
   -1.7383   -1.3268    0.2789 C   0  0  0  0  0  0  0  0  0  0  0  0
   -1.9393    1.3058    0.0648 C   0  0  0  0  0  0  0  0  0  0  0  0
   -3.1665    1.3972    0.3493 O   0  0  0  0  0  0  0  0  0  0  0  0
   -1.0522    2.3024   -0.2467 O   0  0  0  0  0  0  0  0  0  0  0  0
    0.2031    1.7612   -0.4932 C   0  0  0  0  0  0  0  0  0  0  0  0
    1.9813   -0.8731    1.5406 H   0  0  0  0  0  0  0  0  0  0  0  0
    2.3189    0.6111    0.6223 H   0  0  0  0  0  0  0  0  0  0  0  0
    3.1632   -0.9875    0.2192 H   0  0  0  0  0  0  0  0  0  0  0  0
    1.4724   -0.8192   -1.4911 H   0  0  0  0  0  0  0  0  0  0  0  0
    0.6900   -1.7252   -0.1585 H   0  0  0  0  0  0  0  0  0  0  0  0
   -1.3070   -2.0655   -0.3987 H   0  0  0  0  0  0  0  0  0  0  0  0
   -1.4882   -1.5726    1.3127 H   0  0  0  0  0  0  0  0  0  0  0  0
   -2.8294   -1.2809    0.0759 H   0  0  0  0  0  0  0  0  0  0  0  0
    1.0066    2.2070    0.1333 H   0  0  0  0  0  0  0  0  0  0  0  0
    0.4723    1.9145   -1.5819 H   0  0  0  0  0  0  0  0  0  0  0  0
  1  2  1  0
  2  3  1  0
  3  4  2  0
  4  5  1  0
  4  6  1  0
  6  7  2  0
  6  8  1  0
  8  9  1  0
  9  3  1  0
  1 10  1  0
  1 11  1  0
  1 12  1  0
  2 13  1  0
  2 14  1  0
  5 15  1  0
  5 16  1  0
  5 17  1  0
  9 18  1  0
  9 19  1  0
M  END
