
     RDKit          3D

 21 21  0  0  0  0  0  0  0  0999 V2000
    2.5504   -0.0900    0.0646 C   0  0  0  0  0  0  0  0  0  0  0  0
    1.2856    0.7069   -0.2076 C   0  0  0  0  0  0  0  0  0  0  0  0
    0.0470   -0.1483    0.0039 C   0  0  0  0  0  0  0  0  0  0  0  0
    0.0557   -1.3221   -0.9066 C   0  0  0  0  0  0  0  0  0  0  0  0
   -0.0644   -0.4448    1.3979 O   0  0  0  0  0  0  0  0  0  0  0  0
   -0.7852    0.7512    1.5149 C   0  0  0  0  0  0  0  0  0  0  0  0
   -1.0496    1.5879    2.4153 O   0  0  0  0  0  0  0  0  0  0  0  0
   -1.1679    0.6906    0.0788 C   0  0  0  0  0  0  0  0  0  0  0  0
   -2.5023    0.0252   -0.0583 C   0  0  0  0  0  0  0  0  0  0  0  0
    2.3066   -1.1617   -0.1573 H   0  0  0  0  0  0  0  0  0  0  0  0
    2.7953   -0.0110    1.1336 H   0  0  0  0  0  0  0  0  0  0  0  0
    3.3568    0.2977   -0.5764 H   0  0  0  0  0  0  0  0  0  0  0  0
    1.3183    1.1521   -1.2123 H   0  0  0  0  0  0  0  0  0  0  0  0
    1.3061    1.5661    0.5185 H   0  0  0  0  0  0  0  0  0  0  0  0
   -0.9426   -1.6364   -1.2582 H   0  0  0  0  0  0  0  0  0  0  0  0
    0.5225   -2.1783   -0.3651 H   0  0  0  0  0  0  0  0  0  0  0  0
    0.7204   -1.1380   -1.7982 H   0  0  0  0  0  0  0  0  0  0  0  0
   -1.0922    1.6872   -0.3769 H   0  0  0  0  0  0  0  0  0  0  0  0
   -3.2784    0.8222    0.0291 H   0  0  0  0  0  0  0  0  0  0  0  0
   -2.6643   -0.4734   -1.0169 H   0  0  0  0  0  0  0  0  0  0  0  0
   -2.7178   -0.6832    0.7771 H   0  0  0  0  0  0  0  0  0  0  0  0
  1  2  1  0
  2  3  1  0
  3  4  1  0
  3  5  1  0
  5  6  1  0
  6  7  2  0
  6  8  1  0
  8  9  1  0
  8  3  1  0
  1 10  1  0
  1 11  1  0
  1 12  1  0
  2 13  1  0
  2 14  1  0
  4 15  1  0
  4 16  1  0
  4 17  1  0
  8 18  1  0
  9 19  1  0
  9 20  1  0
  9 21  1  0
M  END
