
     RDKit          3D

 21 22  0  0  0  0  0  0  0  0999 V2000
   -2.5875    0.1342    0.3088 C   0  0  0  0  0  0  0  0  0  0  0  0
   -1.4264   -0.1203   -0.5794 C   0  0  0  0  0  0  0  0  0  0  0  0
   -0.1146   -0.1132    0.0366 C   0  0  0  0  0  0  0  0  0  0  0  0
    0.3028    1.1735    0.7152 C   0  0  0  0  0  0  0  0  0  0  0  0
    1.7066    1.2341    0.6122 O   0  0  0  0  0  0  0  0  0  0  0  0
    2.1019    0.0194    0.0748 C   0  0  0  0  0  0  0  0  0  0  0  0
    1.6332   -1.0591    1.0284 C   0  0  0  0  0  0  0  0  0  0  0  0
    0.2351   -1.1524    0.8441 O   0  0  0  0  0  0  0  0  0  0  0  0
    1.0187   -0.1632   -1.0074 C   0  0  0  0  0  0  0  0  0  0  0  0
   -3.5233   -0.0761   -0.2622 H   0  0  0  0  0  0  0  0  0  0  0  0
   -2.6036   -0.4806    1.2229 H   0  0  0  0  0  0  0  0  0  0  0  0
   -2.6194    1.2175    0.5429 H   0  0  0  0  0  0  0  0  0  0  0  0
   -1.4538    0.6512   -1.3987 H   0  0  0  0  0  0  0  0  0  0  0  0
   -1.5837   -1.0873   -1.1007 H   0  0  0  0  0  0  0  0  0  0  0  0
   -0.0256    1.1589    1.7633 H   0  0  0  0  0  0  0  0  0  0  0  0
   -0.1823    1.9988    0.1443 H   0  0  0  0  0  0  0  0  0  0  0  0
    3.0949   -0.0506   -0.2824 H   0  0  0  0  0  0  0  0  0  0  0  0
    1.8757   -0.8272    2.0831 H   0  0  0  0  0  0  0  0  0  0  0  0
    2.1055   -2.0063    0.6831 H   0  0  0  0  0  0  0  0  0  0  0  0
    0.9713    0.6924   -1.6794 H   0  0  0  0  0  0  0  0  0  0  0  0
    1.0744   -1.1437   -1.4765 H   0  0  0  0  0  0  0  0  0  0  0  0
  1  2  1  0
  2  3  1  0
  3  4  1  0
  4  5  1  0
  5  6  1  0
  6  7  1  0
  7  8  1  0
  6  9  1  0
  8  3  1  0
  9  3  1  0
  1 10  1  0
  1 11  1  0
  1 12  1  0
  2 13  1  0
  2 14  1  0
  4 15  1  0
  4 16  1  0
  6 17  1  0
  7 18  1  0
  7 19  1  0
  9 20  1  0
  9 21  1  0
M  END
