
     RDKit          3D

 23 24  0  0  0  0  0  0  0  0999 V2000
    2.3432   -1.0685    0.3720 C   0  0  0  0  0  0  0  0  0  0  0  0
    2.0743    0.3497    0.7540 C   0  0  0  0  0  0  0  0  0  0  0  0
    0.7535    0.8830    0.3114 C   0  0  0  0  0  0  0  0  0  0  0  0
    0.5060    0.8891   -1.1108 C   0  0  0  0  0  0  0  0  0  0  0  0
   -0.7133    0.4496   -1.3511 C   0  0  0  0  0  0  0  0  0  0  0  0
   -1.4658    0.0832   -0.1366 C   0  0  0  0  0  0  0  0  0  0  0  0
   -2.3541   -1.1379   -0.2299 C   0  0  0  0  0  0  0  0  0  0  0  0
   -1.6866    0.9691    0.9958 C   0  0  0  0  0  0  0  0  0  0  0  0
   -0.4185    0.1676    0.9196 C   0  0  0  0  0  0  0  0  0  0  0  0
    1.6633   -1.7589    0.9354 H   0  0  0  0  0  0  0  0  0  0  0  0
    3.3678   -1.3242    0.7165 H   0  0  0  0  0  0  0  0  0  0  0  0
    2.3254   -1.2512   -0.7151 H   0  0  0  0  0  0  0  0  0  0  0  0
    2.1147    0.4123    1.8639 H   0  0  0  0  0  0  0  0  0  0  0  0
    2.9003    0.9824    0.3714 H   0  0  0  0  0  0  0  0  0  0  0  0
    0.7257    1.9556    0.6617 H   0  0  0  0  0  0  0  0  0  0  0  0
    1.1536    1.1898   -1.9543 H   0  0  0  0  0  0  0  0  0  0  0  0
   -1.1938    0.3395   -2.3441 H   0  0  0  0  0  0  0  0  0  0  0  0
   -2.0745   -1.9311    0.4804 H   0  0  0  0  0  0  0  0  0  0  0  0
   -3.4019   -0.7679   -0.0270 H   0  0  0  0  0  0  0  0  0  0  0  0
   -2.3782   -1.4826   -1.2842 H   0  0  0  0  0  0  0  0  0  0  0  0
   -1.5598    2.0737    0.9425 H   0  0  0  0  0  0  0  0  0  0  0  0
   -2.4218    0.6694    1.7491 H   0  0  0  0  0  0  0  0  0  0  0  0
   -0.2595   -0.6914    1.5947 H   0  0  0  0  0  0  0  0  0  0  0  0
  1  2  1  0
  2  3  1  0
  3  4  1  0
  4  5  2  0
  5  6  1  0
  6  7  1  0
  6  8  1  0
  8  9  1  0
  9  3  1  0
  9  6  1  0
  1 10  1  0
  1 11  1  0
  1 12  1  0
  2 13  1  0
  2 14  1  0
  3 15  1  0
  4 16  1  0
  5 17  1  0
  7 18  1  0
  7 19  1  0
  7 20  1  0
  8 21  1  0
  8 22  1  0
  9 23  1  0
M  END
