
     RDKit          3D

 23 24  0  0  0  0  0  0  0  0999 V2000
   -2.8368    0.7212    0.2375 C   0  0  0  0  0  0  0  0  0  0  0  0
   -2.1058   -0.3546   -0.5434 C   0  0  0  0  0  0  0  0  0  0  0  0
   -0.6516   -0.0485   -0.7256 C   0  0  0  0  0  0  0  0  0  0  0  0
    0.1790    0.1096    0.4799 C   0  0  0  0  0  0  0  0  0  0  0  0
    1.6619    0.1945    0.4502 C   0  0  0  0  0  0  0  0  0  0  0  0
    2.2755    1.5418    0.2398 C   0  0  0  0  0  0  0  0  0  0  0  0
    1.7587   -0.7683   -0.7006 C   0  0  0  0  0  0  0  0  0  0  0  0
    0.3155   -1.1296   -0.4499 C   0  0  0  0  0  0  0  0  0  0  0  0
   -0.0220   -2.3071    0.1610 O   0  0  0  0  0  0  0  0  0  0  0  0
   -2.8191    1.6930   -0.2952 H   0  0  0  0  0  0  0  0  0  0  0  0
   -3.8918    0.3721    0.3449 H   0  0  0  0  0  0  0  0  0  0  0  0
   -2.3910    0.7654    1.2321 H   0  0  0  0  0  0  0  0  0  0  0  0
   -2.2054   -1.2990    0.0485 H   0  0  0  0  0  0  0  0  0  0  0  0
   -2.6234   -0.5516   -1.5027 H   0  0  0  0  0  0  0  0  0  0  0  0
   -0.4443    0.5658   -1.6460 H   0  0  0  0  0  0  0  0  0  0  0  0
   -0.3121   -0.0371    1.4445 H   0  0  0  0  0  0  0  0  0  0  0  0
    2.0903   -0.2871    1.3776 H   0  0  0  0  0  0  0  0  0  0  0  0
    3.2366    1.6424    0.8244 H   0  0  0  0  0  0  0  0  0  0  0  0
    2.5740    1.7026   -0.8325 H   0  0  0  0  0  0  0  0  0  0  0  0
    1.6317    2.3837    0.5668 H   0  0  0  0  0  0  0  0  0  0  0  0
    1.8801   -0.2381   -1.6649 H   0  0  0  0  0  0  0  0  0  0  0  0
    2.4899   -1.5777   -0.5999 H   0  0  0  0  0  0  0  0  0  0  0  0
    0.2100   -3.0935   -0.3605 H   0  0  0  0  0  0  0  0  0  0  0  0
  1  2  1  0
  2  3  1  0
  3  4  1  0
  4  5  1  0
  5  6  1  0
  5  7  1  0
  7  8  1  0
  8  9  1  0
  8  3  1  0
  8  4  1  0
  1 10  1  0
  1 11  1  0
  1 12  1  0
  2 13  1  0
  2 14  1  0
  3 15  1  0
  4 16  1  0
  5 17  1  0
  6 18  1  0
  6 19  1  0
  6 20  1  0
  7 21  1  0
  7 22  1  0
  9 23  1  0
M  END
