
     RDKit          3D

 18 19  0  0  0  0  0  0  0  0999 V2000
   -2.4369    0.0515    0.3049 C   0  0  0  0  0  0  0  0  0  0  0  0
   -1.4434   -0.5487   -0.6904 C   0  0  0  0  0  0  0  0  0  0  0  0
   -0.0434   -0.2135   -0.3240 C   0  0  0  0  0  0  0  0  0  0  0  0
    0.8858   -1.1204   -0.0506 C   0  0  0  0  0  0  0  0  0  0  0  0
    2.1742   -0.4898    0.2779 C   0  0  0  0  0  0  0  0  0  0  0  0
    1.8346    0.9570    0.3665 C   0  0  0  0  0  0  0  0  0  0  0  0
    1.6161    1.5539   -0.8708 O   0  0  0  0  0  0  0  0  0  0  0  0
    0.4597    1.1552   -0.2253 C   0  0  0  0  0  0  0  0  0  0  0  0
   -1.8766    0.6513    1.0376 H   0  0  0  0  0  0  0  0  0  0  0  0
   -3.1673    0.7160   -0.2112 H   0  0  0  0  0  0  0  0  0  0  0  0
   -3.0121   -0.7237    0.8344 H   0  0  0  0  0  0  0  0  0  0  0  0
   -1.6275   -1.6404   -0.7078 H   0  0  0  0  0  0  0  0  0  0  0  0
   -1.6382   -0.0869   -1.6776 H   0  0  0  0  0  0  0  0  0  0  0  0
    0.7561   -2.2167   -0.0559 H   0  0  0  0  0  0  0  0  0  0  0  0
    2.8640   -0.6937   -0.5867 H   0  0  0  0  0  0  0  0  0  0  0  0
    2.6536   -0.9051    1.1805 H   0  0  0  0  0  0  0  0  0  0  0  0
    2.1630    1.5742    1.2209 H   0  0  0  0  0  0  0  0  0  0  0  0
   -0.1617    1.9796    0.1776 H   0  0  0  0  0  0  0  0  0  0  0  0
  1  2  1  0
  2  3  1  0
  3  4  2  0
  4  5  1  0
  5  6  1  0
  6  7  1  0
  7  8  1  0
  8  3  1  0
  8  6  1  0
  1  9  1  0
  1 10  1  0
  1 11  1  0
  2 12  1  0
  2 13  1  0
  4 14  1  0
  5 15  1  0
  5 16  1  0
  6 17  1  0
  8 18  1  0
M  END
