
     RDKit          3D

 21 21  0  0  0  0  0  0  0  0999 V2000
    2.5565    0.2739   -0.7796 C   0  0  0  0  0  0  0  0  0  0  0  0
    1.3768    0.7106    0.0209 C   0  0  0  0  0  0  0  0  0  0  0  0
    0.2445   -0.3063   -0.0104 C   0  0  0  0  0  0  0  0  0  0  0  0
   -0.9454    0.1135    0.7854 C   0  0  0  0  0  0  0  0  0  0  0  0
   -2.0771   -0.8628    0.7765 C   0  0  0  0  0  0  0  0  0  0  0  0
   -1.4565    1.4091    0.2544 C   0  0  0  0  0  0  0  0  0  0  0  0
   -2.0676    2.1586    1.0022 O   0  0  0  0  0  0  0  0  0  0  0  0
    0.0018   -1.0989   -1.2193 C   0  0  0  0  0  0  0  0  0  0  0  0
    0.6367   -1.6404   -0.0398 O   0  0  0  0  0  0  0  0  0  0  0  0
    2.6684    0.9866   -1.6449 H   0  0  0  0  0  0  0  0  0  0  0  0
    2.4760   -0.7344   -1.2002 H   0  0  0  0  0  0  0  0  0  0  0  0
    3.4811    0.3558   -0.1466 H   0  0  0  0  0  0  0  0  0  0  0  0
    0.9299    1.6800   -0.3368 H   0  0  0  0  0  0  0  0  0  0  0  0
    1.6626    0.8717    1.1012 H   0  0  0  0  0  0  0  0  0  0  0  0
   -0.6602    0.2797    1.8539 H   0  0  0  0  0  0  0  0  0  0  0  0
   -2.8606   -0.4697    1.4593 H   0  0  0  0  0  0  0  0  0  0  0  0
   -2.5528   -0.9810   -0.2092 H   0  0  0  0  0  0  0  0  0  0  0  0
   -1.7999   -1.8617    1.1785 H   0  0  0  0  0  0  0  0  0  0  0  0
   -1.3056    1.7200   -0.7873 H   0  0  0  0  0  0  0  0  0  0  0  0
    0.6676   -1.0364   -2.1146 H   0  0  0  0  0  0  0  0  0  0  0  0
   -0.9765   -1.5679   -1.3679 H   0  0  0  0  0  0  0  0  0  0  0  0
  1  2  1  0
  2  3  1  0
  3  4  1  0
  4  5  1  0
  4  6  1  0
  6  7  2  0
  3  8  1  0
  8  9  1  0
  9  3  1  0
  1 10  1  0
  1 11  1  0
  1 12  1  0
  2 13  1  0
  2 14  1  0
  4 15  1  0
  5 16  1  0
  5 17  1  0
  5 18  1  0
  6 19  1  0
  8 20  1  0
  8 21  1  0
M  END
