
     RDKit          3D

 21 22  0  0  0  0  0  0  0  0999 V2000
    2.1872    1.1782   -0.4321 C   0  0  0  0  0  0  0  0  0  0  0  0
    1.0083    0.4998   -1.1233 C   0  0  0  0  0  0  0  0  0  0  0  0
    0.2600   -0.2526   -0.0579 C   0  0  0  0  0  0  0  0  0  0  0  0
    1.0027   -1.2209    0.5918 O   0  0  0  0  0  0  0  0  0  0  0  0
    0.0919   -2.2357    0.3712 C   0  0  0  0  0  0  0  0  0  0  0  0
   -0.7532   -1.2729   -0.4004 C   0  0  0  0  0  0  0  0  0  0  0  0
   -1.1388    0.0286    0.2611 C   0  0  0  0  0  0  0  0  0  0  0  0
   -1.8661    0.9859   -0.6373 C   0  0  0  0  0  0  0  0  0  0  0  0
   -1.5119   -0.0679    1.5945 O   0  0  0  0  0  0  0  0  0  0  0  0
    2.8090    0.3716    0.0495 H   0  0  0  0  0  0  0  0  0  0  0  0
    2.7869    1.7832   -1.1280 H   0  0  0  0  0  0  0  0  0  0  0  0
    1.8057    1.7951    0.4066 H   0  0  0  0  0  0  0  0  0  0  0  0
    0.3736    1.3072   -1.5483 H   0  0  0  0  0  0  0  0  0  0  0  0
    1.4006   -0.1242   -1.9242 H   0  0  0  0  0  0  0  0  0  0  0  0
    0.4215   -3.0813   -0.2434 H   0  0  0  0  0  0  0  0  0  0  0  0
   -0.3265   -2.5747    1.3498 H   0  0  0  0  0  0  0  0  0  0  0  0
   -1.0568   -1.4793   -1.4389 H   0  0  0  0  0  0  0  0  0  0  0  0
   -1.9631    0.5905   -1.6878 H   0  0  0  0  0  0  0  0  0  0  0  0
   -1.4098    1.9712   -0.7158 H   0  0  0  0  0  0  0  0  0  0  0  0
   -2.9333    1.0293   -0.2715 H   0  0  0  0  0  0  0  0  0  0  0  0
   -1.1879    0.7689    2.0497 H   0  0  0  0  0  0  0  0  0  0  0  0
  1  2  1  0
  2  3  1  0
  3  4  1  0
  4  5  1  0
  5  6  1  0
  6  7  1  0
  7  8  1  0
  7  9  1  0
  6  3  1  0
  7  3  1  0
  1 10  1  0
  1 11  1  0
  1 12  1  0
  2 13  1  0
  2 14  1  0
  5 15  1  0
  5 16  1  0
  6 17  1  0
  8 18  1  0
  8 19  1  0
  8 20  1  0
  9 21  1  0
M  END
