
     RDKit          3D

 21 21  0  0  0  0  0  0  0  0999 V2000
    2.3126   -0.0127    0.1164 C   0  0  0  0  0  0  0  0  0  0  0  0
    1.1758   -0.9567   -0.0301 C   0  0  0  0  0  0  0  0  0  0  0  0
   -0.1625   -0.3422   -0.1793 C   0  0  0  0  0  0  0  0  0  0  0  0
   -1.2945   -1.3626   -0.3265 C   0  0  0  0  0  0  0  0  0  0  0  0
   -2.4921   -0.6870   -0.4584 O   0  0  0  0  0  0  0  0  0  0  0  0
   -0.3993    1.0144   -0.6990 C   0  0  0  0  0  0  0  0  0  0  0  0
    0.6001    1.8317   -1.1685 O   0  0  0  0  0  0  0  0  0  0  0  0
   -0.4752    0.8253    0.7807 C   0  0  0  0  0  0  0  0  0  0  0  0
   -1.7201    0.7803    1.4082 O   0  0  0  0  0  0  0  0  0  0  0  0
    2.5323    0.5636   -0.8209 H   0  0  0  0  0  0  0  0  0  0  0  0
    3.2403   -0.6400    0.2683 H   0  0  0  0  0  0  0  0  0  0  0  0
    2.2652    0.6617    0.9689 H   0  0  0  0  0  0  0  0  0  0  0  0
    1.1698   -1.6317    0.8507 H   0  0  0  0  0  0  0  0  0  0  0  0
    1.3889   -1.6144   -0.9072 H   0  0  0  0  0  0  0  0  0  0  0  0
   -1.2994   -2.0886    0.5105 H   0  0  0  0  0  0  0  0  0  0  0  0
   -1.1069   -1.8705   -1.3119 H   0  0  0  0  0  0  0  0  0  0  0  0
   -3.2599   -1.1696   -0.0618 H   0  0  0  0  0  0  0  0  0  0  0  0
   -1.3796    1.1708   -1.2214 H   0  0  0  0  0  0  0  0  0  0  0  0
    0.2950    2.7823   -1.1682 H   0  0  0  0  0  0  0  0  0  0  0  0
    0.3506    1.2129    1.4018 H   0  0  0  0  0  0  0  0  0  0  0  0
   -1.7411    1.5328    2.0478 H   0  0  0  0  0  0  0  0  0  0  0  0
  1  2  1  0
  2  3  1  0
  3  4  1  0
  4  5  1  0
  3  6  1  0
  6  7  1  0
  6  8  1  0
  8  9  1  0
  8  3  1  0
  1 10  1  0
  1 11  1  0
  1 12  1  0
  2 13  1  0
  2 14  1  0
  4 15  1  0
  4 16  1  0
  5 17  1  0
  6 18  1  0
  7 19  1  0
  8 20  1  0
  9 21  1  0
M  END
