
     RDKit          3D

 21 22  0  0  0  0  0  0  0  0999 V2000
   -2.2393    0.5021   -0.3969 C   0  0  0  0  0  0  0  0  0  0  0  0
   -1.6135   -0.8647   -0.2589 C   0  0  0  0  0  0  0  0  0  0  0  0
   -0.1183   -0.8074   -0.0951 C   0  0  0  0  0  0  0  0  0  0  0  0
    0.7161   -0.1855   -1.1693 C   0  0  0  0  0  0  0  0  0  0  0  0
    1.0887    0.9011   -0.1724 C   0  0  0  0  0  0  0  0  0  0  0  0
    2.5273    1.1958   -0.0726 C   0  0  0  0  0  0  0  0  0  0  0  0
    3.4183    0.4178   -0.2599 O   0  0  0  0  0  0  0  0  0  0  0  0
    0.4695    0.1270    0.9390 C   0  0  0  0  0  0  0  0  0  0  0  0
    0.5794   -1.3340    1.0710 C   0  0  0  0  0  0  0  0  0  0  0  0
   -3.3410    0.3788   -0.2751 H   0  0  0  0  0  0  0  0  0  0  0  0
   -2.0930    0.9296   -1.4097 H   0  0  0  0  0  0  0  0  0  0  0  0
   -1.9066    1.2099    0.3851 H   0  0  0  0  0  0  0  0  0  0  0  0
   -1.8123   -1.4052   -1.2223 H   0  0  0  0  0  0  0  0  0  0  0  0
   -2.0788   -1.4572    0.5307 H   0  0  0  0  0  0  0  0  0  0  0  0
    0.1629    0.1631   -2.0551 H   0  0  0  0  0  0  0  0  0  0  0  0
    1.5903   -0.8369   -1.3946 H   0  0  0  0  0  0  0  0  0  0  0  0
    0.4642    1.8056   -0.4083 H   0  0  0  0  0  0  0  0  0  0  0  0
    2.8081    2.2219    0.1980 H   0  0  0  0  0  0  0  0  0  0  0  0
   -0.2031    0.6694    1.6299 H   0  0  0  0  0  0  0  0  0  0  0  0
    0.0062   -1.8049    1.8703 H   0  0  0  0  0  0  0  0  0  0  0  0
    1.5749   -1.8265    0.8611 H   0  0  0  0  0  0  0  0  0  0  0  0
  1  2  1  0
  2  3  1  0
  3  4  1  0
  4  5  1  0
  5  6  1  0
  6  7  2  0
  5  8  1  0
  8  9  1  0
  8  3  1  0
  9  3  1  0
  1 10  1  0
  1 11  1  0
  1 12  1  0
  2 13  1  0
  2 14  1  0
  4 15  1  0
  4 16  1  0
  5 17  1  0
  6 18  1  0
  8 19  1  0
  9 20  1  0
  9 21  1  0
M  END
