
     RDKit          3D

 21 21  0  0  0  0  0  0  0  0999 V2000
    2.2245   -0.8096   -0.2091 C   0  0  0  0  0  0  0  0  0  0  0  0
    1.0830   -0.0260   -0.7610 C   0  0  0  0  0  0  0  0  0  0  0  0
    0.1879    0.5691    0.3007 C   0  0  0  0  0  0  0  0  0  0  0  0
   -0.4144   -0.5449    1.1749 C   0  0  0  0  0  0  0  0  0  0  0  0
   -1.1187    0.0162    2.2128 O   0  0  0  0  0  0  0  0  0  0  0  0
   -1.3736   -1.1516    0.2029 C   0  0  0  0  0  0  0  0  0  0  0  0
   -1.7491   -0.2609   -0.6957 C   0  0  0  0  0  0  0  0  0  0  0  0
   -1.0731    1.0182   -0.3997 C   0  0  0  0  0  0  0  0  0  0  0  0
   -0.7545    1.7305   -1.5533 O   0  0  0  0  0  0  0  0  0  0  0  0
    2.9555   -0.9700   -1.0399 H   0  0  0  0  0  0  0  0  0  0  0  0
    2.7457   -0.1774    0.5445 H   0  0  0  0  0  0  0  0  0  0  0  0
    1.8798   -1.7544    0.2311 H   0  0  0  0  0  0  0  0  0  0  0  0
    0.4420   -0.7177   -1.3629 H   0  0  0  0  0  0  0  0  0  0  0  0
    1.4068    0.7709   -1.4421 H   0  0  0  0  0  0  0  0  0  0  0  0
    0.6687    1.3450    0.8964 H   0  0  0  0  0  0  0  0  0  0  0  0
    0.3209   -1.2896    1.4622 H   0  0  0  0  0  0  0  0  0  0  0  0
   -0.5863    0.5644    2.8129 H   0  0  0  0  0  0  0  0  0  0  0  0
   -1.6911   -2.1712    0.2572 H   0  0  0  0  0  0  0  0  0  0  0  0
   -2.4432   -0.4281   -1.5250 H   0  0  0  0  0  0  0  0  0  0  0  0
   -1.7434    1.5927    0.2692 H   0  0  0  0  0  0  0  0  0  0  0  0
   -0.9675    2.6944   -1.3760 H   0  0  0  0  0  0  0  0  0  0  0  0
  1  2  1  0
  2  3  1  0
  3  4  1  0
  4  5  1  0
  4  6  1  0
  6  7  2  0
  7  8  1  0
  8  9  1  0
  8  3  1  0
  1 10  1  0
  1 11  1  0
  1 12  1  0
  2 13  1  0
  2 14  1  0
  3 15  1  0
  4 16  1  0
  5 17  1  0
  6 18  1  0
  7 19  1  0
  8 20  1  0
  9 21  1  0
M  END
