
     RDKit          3D

 22 22  0  0  0  0  0  0  0  0999 V2000
    2.0254   -0.6593   -0.4065 C   0  0  0  0  0  0  0  0  0  0  0  0
    1.5271    0.2843    0.6313 C   0  0  0  0  0  0  0  0  0  0  0  0
    0.0316    0.4673    0.6271 C   0  0  0  0  0  0  0  0  0  0  0  0
   -0.2606    1.3807    1.6597 O   0  0  0  0  0  0  0  0  0  0  0  0
   -0.7316   -0.7794    0.8990 C   0  0  0  0  0  0  0  0  0  0  0  0
   -1.8288   -0.8034   -0.1635 C   0  0  0  0  0  0  0  0  0  0  0  0
   -1.2983   -0.0112   -1.3309 C   0  0  0  0  0  0  0  0  0  0  0  0
   -0.4893    1.0605   -0.6512 C   0  0  0  0  0  0  0  0  0  0  0  0
    3.1292   -0.4708   -0.5253 H   0  0  0  0  0  0  0  0  0  0  0  0
    1.9519   -1.7287   -0.1053 H   0  0  0  0  0  0  0  0  0  0  0  0
    1.5561   -0.5558   -1.3828 H   0  0  0  0  0  0  0  0  0  0  0  0
    1.9675    1.2947    0.4259 H   0  0  0  0  0  0  0  0  0  0  0  0
    1.8560   -0.0030    1.6274 H   0  0  0  0  0  0  0  0  0  0  0  0
    0.5091    1.9497    1.8781 H   0  0  0  0  0  0  0  0  0  0  0  0
   -1.2546   -0.7980    1.8773 H   0  0  0  0  0  0  0  0  0  0  0  0
   -0.1271   -1.7044    0.8339 H   0  0  0  0  0  0  0  0  0  0  0  0
   -2.7254   -0.3062    0.2272 H   0  0  0  0  0  0  0  0  0  0  0  0
   -1.9853   -1.8367   -0.5073 H   0  0  0  0  0  0  0  0  0  0  0  0
   -2.1984    0.4280   -1.8455 H   0  0  0  0  0  0  0  0  0  0  0  0
   -0.7456   -0.6016   -2.0616 H   0  0  0  0  0  0  0  0  0  0  0  0
    0.3023    1.4895   -1.2653 H   0  0  0  0  0  0  0  0  0  0  0  0
   -1.2112    1.9037   -0.4418 H   0  0  0  0  0  0  0  0  0  0  0  0
  1  2  1  0
  2  3  1  0
  3  4  1  0
  3  5  1  0
  5  6  1  0
  6  7  1  0
  7  8  1  0
  8  3  1  0
  1  9  1  0
  1 10  1  0
  1 11  1  0
  2 12  1  0
  2 13  1  0
  4 14  1  0
  5 15  1  0
  5 16  1  0
  6 17  1  0
  6 18  1  0
  7 19  1  0
  7 20  1  0
  8 21  1  0
  8 22  1  0
M  END
