
     RDKit          3D

 25 25  0  0  0  0  0  0  0  0999 V2000
    1.8841    1.0405    0.9974 C   0  0  0  0  0  0  0  0  0  0  0  0
    1.3214   -0.3680    1.0273 C   0  0  0  0  0  0  0  0  0  0  0  0
    0.4904   -0.5494   -0.1946 C   0  0  0  0  0  0  0  0  0  0  0  0
    1.2465   -0.3754   -1.3511 O   0  0  0  0  0  0  0  0  0  0  0  0
   -0.3114   -1.8187   -0.2954 C   0  0  0  0  0  0  0  0  0  0  0  0
   -1.2697   -0.9735   -1.1541 C   0  0  0  0  0  0  0  0  0  0  0  0
   -0.7942    0.1992   -0.2815 C   0  0  0  0  0  0  0  0  0  0  0  0
   -1.6429    0.2647    0.9440 C   0  0  0  0  0  0  0  0  0  0  0  0
   -0.6412    1.4877   -1.0499 C   0  0  0  0  0  0  0  0  0  0  0  0
    2.8731    1.0874    1.5123 H   0  0  0  0  0  0  0  0  0  0  0  0
    1.1984    1.7827    1.4386 H   0  0  0  0  0  0  0  0  0  0  0  0
    2.0886    1.3538   -0.0547 H   0  0  0  0  0  0  0  0  0  0  0  0
    0.7395   -0.4437    1.9733 H   0  0  0  0  0  0  0  0  0  0  0  0
    2.1354   -1.1154    1.1171 H   0  0  0  0  0  0  0  0  0  0  0  0
    2.0354   -0.9553   -1.3602 H   0  0  0  0  0  0  0  0  0  0  0  0
    0.1480   -2.6501   -0.8332 H   0  0  0  0  0  0  0  0  0  0  0  0
   -0.8111   -2.1614    0.6198 H   0  0  0  0  0  0  0  0  0  0  0  0
   -0.8615   -0.9445   -2.1886 H   0  0  0  0  0  0  0  0  0  0  0  0
   -2.3203   -1.2268   -1.0489 H   0  0  0  0  0  0  0  0  0  0  0  0
   -1.1119    0.4082    1.8806 H   0  0  0  0  0  0  0  0  0  0  0  0
   -2.3497    1.1381    0.8413 H   0  0  0  0  0  0  0  0  0  0  0  0
   -2.3054   -0.6309    1.0741 H   0  0  0  0  0  0  0  0  0  0  0  0
   -1.5495    1.7377   -1.6379 H   0  0  0  0  0  0  0  0  0  0  0  0
   -0.4592    2.2871   -0.3031 H   0  0  0  0  0  0  0  0  0  0  0  0
    0.2674    1.4260   -1.6727 H   0  0  0  0  0  0  0  0  0  0  0  0
  1  2  1  0
  2  3  1  0
  3  4  1  0
  3  5  1  0
  5  6  1  0
  6  7  1  0
  7  8  1  0
  7  9  1  0
  7  3  1  0
  1 10  1  0
  1 11  1  0
  1 12  1  0
  2 13  1  0
  2 14  1  0
  4 15  1  0
  5 16  1  0
  5 17  1  0
  6 18  1  0
  6 19  1  0
  8 20  1  0
  8 21  1  0
  8 22  1  0
  9 23  1  0
  9 24  1  0
  9 25  1  0
M  END
