
     RDKit          3D

 20 20  0  0  0  0  0  0  0  0999 V2000
    2.5438    0.5794    0.2600 C   0  0  0  0  0  0  0  0  0  0  0  0
    1.6840   -0.6241    0.0025 C   0  0  0  0  0  0  0  0  0  0  0  0
    0.2420   -0.2889   -0.1430 C   0  0  0  0  0  0  0  0  0  0  0  0
   -0.2089    0.9375   -0.0520 C   0  0  0  0  0  0  0  0  0  0  0  0
   -1.6743    1.1508   -0.2153 C   0  0  0  0  0  0  0  0  0  0  0  0
   -2.3567   -0.0711    0.3651 C   0  0  0  0  0  0  0  0  0  0  0  0
   -1.9849   -1.1556   -0.4103 O   0  0  0  0  0  0  0  0  0  0  0  0
   -0.6558   -1.4460   -0.3996 C   0  0  0  0  0  0  0  0  0  0  0  0
    2.2148    1.1932    1.1058 H   0  0  0  0  0  0  0  0  0  0  0  0
    2.6493    1.1993   -0.6557 H   0  0  0  0  0  0  0  0  0  0  0  0
    3.5586    0.2093    0.5146 H   0  0  0  0  0  0  0  0  0  0  0  0
    2.0282   -1.0772   -0.9553 H   0  0  0  0  0  0  0  0  0  0  0  0
    1.8339   -1.3702    0.7907 H   0  0  0  0  0  0  0  0  0  0  0  0
    0.4714    1.7518    0.1348 H   0  0  0  0  0  0  0  0  0  0  0  0
   -1.9752    1.1962   -1.2900 H   0  0  0  0  0  0  0  0  0  0  0  0
   -2.0116    2.0837    0.2793 H   0  0  0  0  0  0  0  0  0  0  0  0
   -3.4731    0.0194    0.2663 H   0  0  0  0  0  0  0  0  0  0  0  0
   -2.0884   -0.2329    1.4279 H   0  0  0  0  0  0  0  0  0  0  0  0
   -0.4200   -2.2130    0.3755 H   0  0  0  0  0  0  0  0  0  0  0  0
   -0.3773   -1.8417   -1.4012 H   0  0  0  0  0  0  0  0  0  0  0  0
  1  2  1  0
  2  3  1  0
  3  4  2  0
  4  5  1  0
  5  6  1  0
  6  7  1  0
  7  8  1  0
  8  3  1  0
  1  9  1  0
  1 10  1  0
  1 11  1  0
  2 12  1  0
  2 13  1  0
  4 14  1  0
  5 15  1  0
  5 16  1  0
  6 17  1  0
  6 18  1  0
  8 19  1  0
  8 20  1  0
M  END
