
     RDKit          3D

 23 23  0  0  0  0  0  0  0  0999 V2000
    2.7859    0.2905   -0.8637 C   0  0  0  0  0  0  0  0  0  0  0  0
    1.9562   -0.1124    0.3026 C   0  0  0  0  0  0  0  0  0  0  0  0
    0.5193    0.3037    0.2200 C   0  0  0  0  0  0  0  0  0  0  0  0
   -0.2060   -0.2577   -0.9610 C   0  0  0  0  0  0  0  0  0  0  0  0
   -1.5866    0.3268   -1.0307 C   0  0  0  0  0  0  0  0  0  0  0  0
   -2.3274    0.3372    0.2604 C   0  0  0  0  0  0  0  0  0  0  0  0
   -1.6536   -0.2748    1.4219 C   0  0  0  0  0  0  0  0  0  0  0  0
   -0.1889   -0.2071    1.4224 C   0  0  0  0  0  0  0  0  0  0  0  0
    0.4341   -0.5676    2.4016 O   0  0  0  0  0  0  0  0  0  0  0  0
    2.4609    1.3105   -1.1819 H   0  0  0  0  0  0  0  0  0  0  0  0
    3.8471    0.3371   -0.5329 H   0  0  0  0  0  0  0  0  0  0  0  0
    2.6127   -0.4026   -1.6943 H   0  0  0  0  0  0  0  0  0  0  0  0
    2.3674    0.2624    1.2582 H   0  0  0  0  0  0  0  0  0  0  0  0
    1.9599   -1.2373    0.3917 H   0  0  0  0  0  0  0  0  0  0  0  0
    0.4688    1.4123    0.1474 H   0  0  0  0  0  0  0  0  0  0  0  0
   -0.1957   -1.3502   -0.9511 H   0  0  0  0  0  0  0  0  0  0  0  0
    0.3244    0.0571   -1.9062 H   0  0  0  0  0  0  0  0  0  0  0  0
   -1.4858    1.3669   -1.4094 H   0  0  0  0  0  0  0  0  0  0  0  0
   -2.1298   -0.2245   -1.8433 H   0  0  0  0  0  0  0  0  0  0  0  0
   -2.6453    1.3850    0.5263 H   0  0  0  0  0  0  0  0  0  0  0  0
   -3.2997   -0.2023    0.0883 H   0  0  0  0  0  0  0  0  0  0  0  0
   -2.0248   -1.3328    1.5679 H   0  0  0  0  0  0  0  0  0  0  0  0
   -1.9933    0.2474    2.3657 H   0  0  0  0  0  0  0  0  0  0  0  0
  1  2  1  0
  2  3  1  0
  3  4  1  0
  4  5  1  0
  5  6  1  0
  6  7  1  0
  7  8  1  0
  8  9  2  0
  8  3  1  0
  1 10  1  0
  1 11  1  0
  1 12  1  0
  2 13  1  0
  2 14  1  0
  3 15  1  0
  4 16  1  0
  4 17  1  0
  5 18  1  0
  5 19  1  0
  6 20  1  0
  6 21  1  0
  7 22  1  0
  7 23  1  0
M  END
