
     RDKit          3D

 25 25  0  0  0  0  0  0  0  0999 V2000
    2.9498    0.9154    0.3948 C   0  0  0  0  0  0  0  0  0  0  0  0
    2.1425   -0.3126    0.1202 C   0  0  0  0  0  0  0  0  0  0  0  0
    0.6949   -0.1836    0.4723 C   0  0  0  0  0  0  0  0  0  0  0  0
    0.0392   -1.5267    0.1240 C   0  0  0  0  0  0  0  0  0  0  0  0
   -1.4165   -1.1586    0.1642 C   0  0  0  0  0  0  0  0  0  0  0  0
   -1.4389    0.1599   -0.6198 C   0  0  0  0  0  0  0  0  0  0  0  0
   -2.5169    1.0018    0.0289 C   0  0  0  0  0  0  0  0  0  0  0  0
   -1.7237   -0.0776   -1.9613 O   0  0  0  0  0  0  0  0  0  0  0  0
   -0.0581    0.7602   -0.4300 C   0  0  0  0  0  0  0  0  0  0  0  0
    4.0289    0.6333    0.2601 H   0  0  0  0  0  0  0  0  0  0  0  0
    2.7657    1.7478   -0.2928 H   0  0  0  0  0  0  0  0  0  0  0  0
    2.8443    1.1765    1.4655 H   0  0  0  0  0  0  0  0  0  0  0  0
    2.2168   -0.6424   -0.9319 H   0  0  0  0  0  0  0  0  0  0  0  0
    2.5629   -1.1391    0.7332 H   0  0  0  0  0  0  0  0  0  0  0  0
    0.5043    0.1019    1.5115 H   0  0  0  0  0  0  0  0  0  0  0  0
    0.3974   -1.7812   -0.8839 H   0  0  0  0  0  0  0  0  0  0  0  0
    0.3483   -2.2247    0.9035 H   0  0  0  0  0  0  0  0  0  0  0  0
   -1.6665   -0.9493    1.2328 H   0  0  0  0  0  0  0  0  0  0  0  0
   -2.0859   -1.9044   -0.2621 H   0  0  0  0  0  0  0  0  0  0  0  0
   -2.1638    1.2169    1.0671 H   0  0  0  0  0  0  0  0  0  0  0  0
   -3.3941    0.3059    0.1734 H   0  0  0  0  0  0  0  0  0  0  0  0
   -2.7865    1.8906   -0.5393 H   0  0  0  0  0  0  0  0  0  0  0  0
   -2.4991   -0.6907   -1.9999 H   0  0  0  0  0  0  0  0  0  0  0  0
    0.4602    0.9153   -1.4006 H   0  0  0  0  0  0  0  0  0  0  0  0
   -0.2051    1.7652    0.0184 H   0  0  0  0  0  0  0  0  0  0  0  0
  1  2  1  0
  2  3  1  0
  3  4  1  0
  4  5  1  0
  5  6  1  0
  6  7  1  0
  6  8  1  0
  6  9  1  0
  9  3  1  0
  1 10  1  0
  1 11  1  0
  1 12  1  0
  2 13  1  0
  2 14  1  0
  3 15  1  0
  4 16  1  0
  4 17  1  0
  5 18  1  0
  5 19  1  0
  7 20  1  0
  7 21  1  0
  7 22  1  0
  8 23  1  0
  9 24  1  0
  9 25  1  0
M  END
