
     RDKit          3D

 23 23  0  0  0  0  0  0  0  0999 V2000
    2.2628   -0.1966   -0.5490 C   0  0  0  0  0  0  0  0  0  0  0  0
    1.1436   -0.7846    0.2311 C   0  0  0  0  0  0  0  0  0  0  0  0
    0.0459    0.1816    0.5723 C   0  0  0  0  0  0  0  0  0  0  0  0
    0.4892    1.3442    1.3902 C   0  0  0  0  0  0  0  0  0  0  0  0
   -0.8844   -0.5306    1.3611 O   0  0  0  0  0  0  0  0  0  0  0  0
   -1.6902   -1.2278    0.5056 C   0  0  0  0  0  0  0  0  0  0  0  0
   -1.9656   -0.3089   -0.6743 C   0  0  0  0  0  0  0  0  0  0  0  0
   -0.7518    0.6068   -0.6143 C   0  0  0  0  0  0  0  0  0  0  0  0
   -0.0138    0.4988   -1.7900 O   0  0  0  0  0  0  0  0  0  0  0  0
    2.1849   -0.3774   -1.6467 H   0  0  0  0  0  0  0  0  0  0  0  0
    2.4271    0.8882   -0.3796 H   0  0  0  0  0  0  0  0  0  0  0  0
    3.2352   -0.6869   -0.2522 H   0  0  0  0  0  0  0  0  0  0  0  0
    0.6710   -1.6099   -0.3619 H   0  0  0  0  0  0  0  0  0  0  0  0
    1.5175   -1.2704    1.1609 H   0  0  0  0  0  0  0  0  0  0  0  0
    0.9834    2.1464    0.8209 H   0  0  0  0  0  0  0  0  0  0  0  0
   -0.4289    1.7874    1.8704 H   0  0  0  0  0  0  0  0  0  0  0  0
    1.1384    1.0343    2.2106 H   0  0  0  0  0  0  0  0  0  0  0  0
   -1.2181   -2.1729    0.1756 H   0  0  0  0  0  0  0  0  0  0  0  0
   -2.6511   -1.4455    1.0428 H   0  0  0  0  0  0  0  0  0  0  0  0
   -2.0282   -0.8540   -1.6180 H   0  0  0  0  0  0  0  0  0  0  0  0
   -2.9057    0.2477   -0.4242 H   0  0  0  0  0  0  0  0  0  0  0  0
   -1.0987    1.6720   -0.5379 H   0  0  0  0  0  0  0  0  0  0  0  0
   -0.4626    1.0581   -2.4933 H   0  0  0  0  0  0  0  0  0  0  0  0
  1  2  1  0
  2  3  1  0
  3  4  1  0
  3  5  1  0
  5  6  1  0
  6  7  1  0
  7  8  1  0
  8  9  1  0
  8  3  1  0
  1 10  1  0
  1 11  1  0
  1 12  1  0
  2 13  1  0
  2 14  1  0
  4 15  1  0
  4 16  1  0
  4 17  1  0
  6 18  1  0
  6 19  1  0
  7 20  1  0
  7 21  1  0
  8 22  1  0
  9 23  1  0
M  END
