
     RDKit          3D

 21 22  0  0  0  0  0  0  0  0999 V2000
   -3.0452   -0.6541   -0.1263 C   0  0  0  0  0  0  0  0  0  0  0  0
   -1.9491   -0.5892    0.9468 C   0  0  0  0  0  0  0  0  0  0  0  0
   -0.6525   -0.4541    0.1840 C   0  0  0  0  0  0  0  0  0  0  0  0
   -0.7763    0.8146   -0.6096 O   0  0  0  0  0  0  0  0  0  0  0  0
    0.2552    0.5317    0.4487 C   0  0  0  0  0  0  0  0  0  0  0  0
    1.5853    0.6909   -0.2414 C   0  0  0  0  0  0  0  0  0  0  0  0
    1.7688    1.9906   -0.7670 O   0  0  0  0  0  0  0  0  0  0  0  0
    2.8144    0.0729    0.3012 C   0  0  0  0  0  0  0  0  0  0  0  0
    2.2011   -0.4156   -0.9885 C   0  0  0  0  0  0  0  0  0  0  0  0
   -3.9638   -0.1438    0.2127 H   0  0  0  0  0  0  0  0  0  0  0  0
   -2.7117   -0.0829   -1.0400 H   0  0  0  0  0  0  0  0  0  0  0  0
   -3.2325   -1.6768   -0.4560 H   0  0  0  0  0  0  0  0  0  0  0  0
   -2.0013   -1.4808    1.5677 H   0  0  0  0  0  0  0  0  0  0  0  0
   -2.1574    0.3378    1.5189 H   0  0  0  0  0  0  0  0  0  0  0  0
   -0.4565   -1.3205   -0.4866 H   0  0  0  0  0  0  0  0  0  0  0  0
    0.1340    1.2492    1.3074 H   0  0  0  0  0  0  0  0  0  0  0  0
    1.1750    2.6454   -0.3167 H   0  0  0  0  0  0  0  0  0  0  0  0
    3.7831    0.6254    0.2159 H   0  0  0  0  0  0  0  0  0  0  0  0
    2.7127   -0.5124    1.2238 H   0  0  0  0  0  0  0  0  0  0  0  0
    1.8017   -1.4437   -0.9520 H   0  0  0  0  0  0  0  0  0  0  0  0
    2.7151   -0.1846   -1.9431 H   0  0  0  0  0  0  0  0  0  0  0  0
  1  2  1  0
  2  3  1  0
  3  4  1  0
  4  5  1  0
  5  6  1  0
  6  7  1  0
  6  8  1  0
  8  9  1  0
  5  3  1  0
  9  6  1  0
  1 10  1  0
  1 11  1  0
  1 12  1  0
  2 13  1  0
  2 14  1  0
  3 15  1  0
  5 16  1  0
  7 17  1  0
  8 18  1  0
  8 19  1  0
  9 20  1  0
  9 21  1  0
M  END
