
     RDKit          3D

 23 24  0  0  0  0  0  0  0  0999 V2000
   -2.6755    1.1393    0.3562 C   0  0  0  0  0  0  0  0  0  0  0  0
   -1.7201    0.3109   -0.4313 C   0  0  0  0  0  0  0  0  0  0  0  0
   -0.9979   -0.7345    0.3553 C   0  0  0  0  0  0  0  0  0  0  0  0
   -0.0567   -1.5076   -0.5623 C   0  0  0  0  0  0  0  0  0  0  0  0
    1.1510   -0.8501    0.1057 C   0  0  0  0  0  0  0  0  0  0  0  0
    1.8096    0.2104   -0.7071 C   0  0  0  0  0  0  0  0  0  0  0  0
    3.0024    0.9188   -0.1518 C   0  0  0  0  0  0  0  0  0  0  0  0
    3.1854   -0.1423   -1.0379 O   0  0  0  0  0  0  0  0  0  0  0  0
    0.1900   -0.3132    1.1425 C   0  0  0  0  0  0  0  0  0  0  0  0
   -3.3727    0.4401    0.8978 H   0  0  0  0  0  0  0  0  0  0  0  0
   -3.2988    1.7129   -0.3830 H   0  0  0  0  0  0  0  0  0  0  0  0
   -2.2321    1.8134    1.0792 H   0  0  0  0  0  0  0  0  0  0  0  0
   -2.3254   -0.2222   -1.2192 H   0  0  0  0  0  0  0  0  0  0  0  0
   -1.0175    0.9601   -0.9936 H   0  0  0  0  0  0  0  0  0  0  0  0
   -1.7048   -1.3983    0.8957 H   0  0  0  0  0  0  0  0  0  0  0  0
   -0.1322   -2.5980   -0.3916 H   0  0  0  0  0  0  0  0  0  0  0  0
   -0.0901   -1.2207   -1.6163 H   0  0  0  0  0  0  0  0  0  0  0  0
    1.8291   -1.6312    0.4699 H   0  0  0  0  0  0  0  0  0  0  0  0
    1.3159    0.5886   -1.6254 H   0  0  0  0  0  0  0  0  0  0  0  0
    3.2228    0.7304    0.9216 H   0  0  0  0  0  0  0  0  0  0  0  0
    3.2693    1.9351   -0.5123 H   0  0  0  0  0  0  0  0  0  0  0  0
    0.2990   -0.8915    2.0831 H   0  0  0  0  0  0  0  0  0  0  0  0
    0.3492    0.7493    1.3248 H   0  0  0  0  0  0  0  0  0  0  0  0
  1  2  1  0
  2  3  1  0
  3  4  1  0
  4  5  1  0
  5  6  1  0
  6  7  1  0
  7  8  1  0
  5  9  1  0
  9  3  1  0
  8  6  1  0
  1 10  1  0
  1 11  1  0
  1 12  1  0
  2 13  1  0
  2 14  1  0
  3 15  1  0
  4 16  1  0
  4 17  1  0
  5 18  1  0
  6 19  1  0
  7 20  1  0
  7 21  1  0
  9 22  1  0
  9 23  1  0
M  END
