
     RDKit          3D

 23 24  0  0  0  0  0  0  0  0999 V2000
    2.7364    0.1494    0.3306 C   0  0  0  0  0  0  0  0  0  0  0  0
    1.4474   -0.1845    1.0520 C   0  0  0  0  0  0  0  0  0  0  0  0
    0.2775   -0.2447    0.0996 C   0  0  0  0  0  0  0  0  0  0  0  0
   -0.0027    1.0184   -0.6432 C   0  0  0  0  0  0  0  0  0  0  0  0
   -1.2386    1.6890   -0.2544 C   0  0  0  0  0  0  0  0  0  0  0  0
   -2.3038    0.9896    0.0789 C   0  0  0  0  0  0  0  0  0  0  0  0
   -2.2149   -0.4870    0.0486 C   0  0  0  0  0  0  0  0  0  0  0  0
   -0.8944   -0.9964    0.5523 C   0  0  0  0  0  0  0  0  0  0  0  0
   -0.0038   -1.5853   -0.4898 C   0  0  0  0  0  0  0  0  0  0  0  0
    3.5568   -0.3916    0.8302 H   0  0  0  0  0  0  0  0  0  0  0  0
    2.9657    1.2389    0.3843 H   0  0  0  0  0  0  0  0  0  0  0  0
    2.6418   -0.2047   -0.7236 H   0  0  0  0  0  0  0  0  0  0  0  0
    1.2293    0.6040    1.8245 H   0  0  0  0  0  0  0  0  0  0  0  0
    1.5783   -1.1467    1.6039 H   0  0  0  0  0  0  0  0  0  0  0  0
   -0.0371    0.7905   -1.7335 H   0  0  0  0  0  0  0  0  0  0  0  0
    0.8479    1.7117   -0.5109 H   0  0  0  0  0  0  0  0  0  0  0  0
   -1.2666    2.7714   -0.2449 H   0  0  0  0  0  0  0  0  0  0  0  0
   -3.2160    1.5262    0.3663 H   0  0  0  0  0  0  0  0  0  0  0  0
   -3.0499   -0.9086    0.6620 H   0  0  0  0  0  0  0  0  0  0  0  0
   -2.3879   -0.7858   -1.0256 H   0  0  0  0  0  0  0  0  0  0  0  0
   -0.9172   -1.4306    1.5701 H   0  0  0  0  0  0  0  0  0  0  0  0
    0.6079   -2.4629   -0.1996 H   0  0  0  0  0  0  0  0  0  0  0  0
   -0.3565   -1.6606   -1.5460 H   0  0  0  0  0  0  0  0  0  0  0  0
  1  2  1  0
  2  3  1  0
  3  4  1  0
  4  5  1  0
  5  6  2  0
  6  7  1  0
  7  8  1  0
  8  9  1  0
  8  3  1  0
  9  3  1  0
  1 10  1  0
  1 11  1  0
  1 12  1  0
  2 13  1  0
  2 14  1  0
  4 15  1  0
  4 16  1  0
  5 17  1  0
  6 18  1  0
  7 19  1  0
  7 20  1  0
  8 21  1  0
  9 22  1  0
  9 23  1  0
M  END
