
     RDKit          3D

 21 22  0  0  0  0  0  0  0  0999 V2000
    1.8394    1.2438   -0.2083 C   0  0  0  0  0  0  0  0  0  0  0  0
    1.7667   -0.0290   -1.0082 C   0  0  0  0  0  0  0  0  0  0  0  0
    0.6404   -0.9209   -0.6146 C   0  0  0  0  0  0  0  0  0  0  0  0
    0.6227   -1.4136    0.8075 C   0  0  0  0  0  0  0  0  0  0  0  0
   -0.4449   -0.5059    0.2486 C   0  0  0  0  0  0  0  0  0  0  0  0
   -1.8061   -1.0387    0.2207 C   0  0  0  0  0  0  0  0  0  0  0  0
   -2.6455   -0.0248    0.3098 C   0  0  0  0  0  0  0  0  0  0  0  0
   -1.8373    1.2094    0.3982 C   0  0  0  0  0  0  0  0  0  0  0  0
   -0.5801    0.7785    0.7698 O   0  0  0  0  0  0  0  0  0  0  0  0
    1.9444    1.0673    0.8793 H   0  0  0  0  0  0  0  0  0  0  0  0
    1.0276    1.9513   -0.4566 H   0  0  0  0  0  0  0  0  0  0  0  0
    2.7963    1.7553   -0.5196 H   0  0  0  0  0  0  0  0  0  0  0  0
    2.7313   -0.5808   -0.8039 H   0  0  0  0  0  0  0  0  0  0  0  0
    1.7836    0.2158   -2.0716 H   0  0  0  0  0  0  0  0  0  0  0  0
    0.3942   -1.6996   -1.3938 H   0  0  0  0  0  0  0  0  0  0  0  0
    0.3430   -2.4922    0.9858 H   0  0  0  0  0  0  0  0  0  0  0  0
    1.2754   -0.9117    1.5561 H   0  0  0  0  0  0  0  0  0  0  0  0
   -2.0742   -2.0900    0.1403 H   0  0  0  0  0  0  0  0  0  0  0  0
   -3.7621   -0.0889    0.3171 H   0  0  0  0  0  0  0  0  0  0  0  0
   -2.2674    1.9577    1.0891 H   0  0  0  0  0  0  0  0  0  0  0  0
   -1.7472    1.6170   -0.6458 H   0  0  0  0  0  0  0  0  0  0  0  0
  1  2  1  0
  2  3  1  0
  3  4  1  0
  4  5  1  0
  5  6  1  0
  6  7  2  0
  7  8  1  0
  8  9  1  0
  5  3  1  0
  9  5  1  0
  1 10  1  0
  1 11  1  0
  1 12  1  0
  2 13  1  0
  2 14  1  0
  3 15  1  0
  4 16  1  0
  4 17  1  0
  6 18  1  0
  7 19  1  0
  8 20  1  0
  8 21  1  0
M  END
