
     RDKit          3D

 21 21  0  0  0  0  0  0  0  0999 V2000
   -1.9910    1.2958    0.3632 C   0  0  0  0  0  0  0  0  0  0  0  0
   -1.7178   -0.0701   -0.1717 C   0  0  0  0  0  0  0  0  0  0  0  0
   -0.2555   -0.3910   -0.3003 C   0  0  0  0  0  0  0  0  0  0  0  0
   -0.0355   -1.7759   -0.8426 C   0  0  0  0  0  0  0  0  0  0  0  0
    0.5695   -0.1388    0.9407 C   0  0  0  0  0  0  0  0  0  0  0  0
    1.5986    0.0789   -0.1798 C   0  0  0  0  0  0  0  0  0  0  0  0
    2.6400    1.0539    0.1404 C   0  0  0  0  0  0  0  0  0  0  0  0
    2.6222    2.2205   -0.2046 O   0  0  0  0  0  0  0  0  0  0  0  0
    0.5271    0.5559   -0.9338 O   0  0  0  0  0  0  0  0  0  0  0  0
   -1.0921    1.8981    0.5723 H   0  0  0  0  0  0  0  0  0  0  0  0
   -2.5777    1.2594    1.3246 H   0  0  0  0  0  0  0  0  0  0  0  0
   -2.6647    1.8694   -0.3372 H   0  0  0  0  0  0  0  0  0  0  0  0
   -2.1981   -0.2765   -1.1428 H   0  0  0  0  0  0  0  0  0  0  0  0
   -2.1465   -0.8197    0.5490 H   0  0  0  0  0  0  0  0  0  0  0  0
   -1.0015   -2.2994   -1.0053 H   0  0  0  0  0  0  0  0  0  0  0  0
    0.4931   -1.7288   -1.8263 H   0  0  0  0  0  0  0  0  0  0  0  0
    0.5483   -2.3866   -0.1278 H   0  0  0  0  0  0  0  0  0  0  0  0
    0.7673   -1.0093    1.5714 H   0  0  0  0  0  0  0  0  0  0  0  0
    0.4076    0.8212    1.4397 H   0  0  0  0  0  0  0  0  0  0  0  0
    2.0163   -0.8853   -0.5529 H   0  0  0  0  0  0  0  0  0  0  0  0
    3.4905    0.7283    0.7238 H   0  0  0  0  0  0  0  0  0  0  0  0
  1  2  1  0
  2  3  1  0
  3  4  1  0
  3  5  1  0
  5  6  1  0
  6  7  1  0
  7  8  2  0
  6  9  1  0
  9  3  1  0
  1 10  1  0
  1 11  1  0
  1 12  1  0
  2 13  1  0
  2 14  1  0
  4 15  1  0
  4 16  1  0
  4 17  1  0
  5 18  1  0
  5 19  1  0
  6 20  1  0
  7 21  1  0
M  END
