
     RDKit          3D

 23 24  0  0  0  0  0  0  0  0999 V2000
    2.8715   -0.6727   -0.2295 C   0  0  0  0  0  0  0  0  0  0  0  0
    1.6576   -0.3207    0.5884 C   0  0  0  0  0  0  0  0  0  0  0  0
    0.3804   -0.4175   -0.1486 C   0  0  0  0  0  0  0  0  0  0  0  0
    0.1497    0.4074   -1.3526 C   0  0  0  0  0  0  0  0  0  0  0  0
   -0.6833    0.5635   -0.1485 C   0  0  0  0  0  0  0  0  0  0  0  0
   -0.6831    1.8504    0.5818 C   0  0  0  0  0  0  0  0  0  0  0  0
   -1.5991   -0.5607    0.2140 C   0  0  0  0  0  0  0  0  0  0  0  0
   -2.5574   -0.9839   -0.8785 C   0  0  0  0  0  0  0  0  0  0  0  0
   -0.4946   -1.4126    0.2226 O   0  0  0  0  0  0  0  0  0  0  0  0
    2.6928   -1.4781   -0.9585 H   0  0  0  0  0  0  0  0  0  0  0  0
    3.2241    0.2776   -0.7163 H   0  0  0  0  0  0  0  0  0  0  0  0
    3.6612   -1.0243    0.4618 H   0  0  0  0  0  0  0  0  0  0  0  0
    1.6381   -1.0114    1.4567 H   0  0  0  0  0  0  0  0  0  0  0  0
    1.8241    0.6917    1.0057 H   0  0  0  0  0  0  0  0  0  0  0  0
    0.9022    1.2164   -1.5170 H   0  0  0  0  0  0  0  0  0  0  0  0
   -0.3337   -0.0127   -2.2521 H   0  0  0  0  0  0  0  0  0  0  0  0
   -0.6989    1.7685    1.6786 H   0  0  0  0  0  0  0  0  0  0  0  0
    0.1731    2.4630    0.2167 H   0  0  0  0  0  0  0  0  0  0  0  0
   -1.6004    2.4318    0.2898 H   0  0  0  0  0  0  0  0  0  0  0  0
   -2.0884   -0.4694    1.2186 H   0  0  0  0  0  0  0  0  0  0  0  0
   -3.3723   -1.5896   -0.4134 H   0  0  0  0  0  0  0  0  0  0  0  0
   -3.0138   -0.0818   -1.3687 H   0  0  0  0  0  0  0  0  0  0  0  0
   -2.0496   -1.6351   -1.6169 H   0  0  0  0  0  0  0  0  0  0  0  0
  1  2  1  0
  2  3  1  0
  3  4  1  0
  4  5  1  0
  5  6  1  0
  5  7  1  0
  7  8  1  0
  7  9  1  0
  5  3  1  0
  9  3  1  0
  1 10  1  0
  1 11  1  0
  1 12  1  0
  2 13  1  0
  2 14  1  0
  4 15  1  0
  4 16  1  0
  6 17  1  0
  6 18  1  0
  6 19  1  0
  7 20  1  0
  8 21  1  0
  8 22  1  0
  8 23  1  0
M  END
