
     RDKit          3D

 23 24  0  0  0  0  0  0  0  0999 V2000
    2.6462    0.3667    0.6292 C   0  0  0  0  0  0  0  0  0  0  0  0
    2.0218   -0.4540   -0.4384 C   0  0  0  0  0  0  0  0  0  0  0  0
    0.5470   -0.3214   -0.5639 C   0  0  0  0  0  0  0  0  0  0  0  0
   -0.2158   -0.7123    0.6808 C   0  0  0  0  0  0  0  0  0  0  0  0
   -1.6123   -0.3540    0.2039 C   0  0  0  0  0  0  0  0  0  0  0  0
   -2.6224   -0.4228    1.3111 C   0  0  0  0  0  0  0  0  0  0  0  0
   -1.3894    1.0222   -0.3351 C   0  0  0  0  0  0  0  0  0  0  0  0
   -1.0571    1.2258   -1.6617 O   0  0  0  0  0  0  0  0  0  0  0  0
    0.0583    1.0702   -0.8110 C   0  0  0  0  0  0  0  0  0  0  0  0
    3.2519    1.1963    0.1634 H   0  0  0  0  0  0  0  0  0  0  0  0
    3.3957   -0.2155    1.2311 H   0  0  0  0  0  0  0  0  0  0  0  0
    1.9637    0.8331    1.3387 H   0  0  0  0  0  0  0  0  0  0  0  0
    2.2296   -1.5353   -0.1927 H   0  0  0  0  0  0  0  0  0  0  0  0
    2.5010   -0.2940   -1.4259 H   0  0  0  0  0  0  0  0  0  0  0  0
    0.1587   -0.9629   -1.3816 H   0  0  0  0  0  0  0  0  0  0  0  0
   -0.1104   -1.7830    0.9239 H   0  0  0  0  0  0  0  0  0  0  0  0
   -0.0035   -0.0470    1.5363 H   0  0  0  0  0  0  0  0  0  0  0  0
   -1.8830   -1.0928   -0.5665 H   0  0  0  0  0  0  0  0  0  0  0  0
   -3.6102   -0.1822    0.8725 H   0  0  0  0  0  0  0  0  0  0  0  0
   -2.6684   -1.4795    1.6490 H   0  0  0  0  0  0  0  0  0  0  0  0
   -2.4285    0.2874    2.1235 H   0  0  0  0  0  0  0  0  0  0  0  0
   -1.8127    1.9039    0.1741 H   0  0  0  0  0  0  0  0  0  0  0  0
    0.6398    1.9511   -0.5274 H   0  0  0  0  0  0  0  0  0  0  0  0
  1  2  1  0
  2  3  1  0
  3  4  1  0
  4  5  1  0
  5  6  1  0
  5  7  1  0
  7  8  1  0
  8  9  1  0
  9  3  1  0
  9  7  1  0
  1 10  1  0
  1 11  1  0
  1 12  1  0
  2 13  1  0
  2 14  1  0
  3 15  1  0
  4 16  1  0
  4 17  1  0
  5 18  1  0
  6 19  1  0
  6 20  1  0
  6 21  1  0
  7 22  1  0
  9 23  1  0
M  END
