
     RDKit          3D

 23 24  0  0  0  0  0  0  0  0999 V2000
    2.3795    0.1352   -0.7319 C   0  0  0  0  0  0  0  0  0  0  0  0
    1.2233    0.6872    0.0413 C   0  0  0  0  0  0  0  0  0  0  0  0
    0.0353   -0.2487    0.0884 C   0  0  0  0  0  0  0  0  0  0  0  0
    0.3010   -1.5829    0.7173 C   0  0  0  0  0  0  0  0  0  0  0  0
   -0.5841   -0.4467   -1.3001 C   0  0  0  0  0  0  0  0  0  0  0  0
   -1.7170    0.4887   -0.8959 C   0  0  0  0  0  0  0  0  0  0  0  0
   -1.1976    0.4658    0.4853 C   0  0  0  0  0  0  0  0  0  0  0  0
   -1.7736    0.6997    1.6971 C   0  0  0  0  0  0  0  0  0  0  0  0
   -1.0603    1.7638    1.1148 O   0  0  0  0  0  0  0  0  0  0  0  0
    3.3267    0.5162   -0.2593 H   0  0  0  0  0  0  0  0  0  0  0  0
    2.4108    0.5246   -1.7889 H   0  0  0  0  0  0  0  0  0  0  0  0
    2.3950   -0.9746   -0.7075 H   0  0  0  0  0  0  0  0  0  0  0  0
    1.4693    0.9584    1.0868 H   0  0  0  0  0  0  0  0  0  0  0  0
    0.8864    1.6137   -0.4818 H   0  0  0  0  0  0  0  0  0  0  0  0
    0.7647   -2.2423   -0.0733 H   0  0  0  0  0  0  0  0  0  0  0  0
   -0.5908   -2.0417    1.1537 H   0  0  0  0  0  0  0  0  0  0  0  0
    1.0889   -1.4662    1.4880 H   0  0  0  0  0  0  0  0  0  0  0  0
    0.0802   -0.0816   -2.0808 H   0  0  0  0  0  0  0  0  0  0  0  0
   -0.9191   -1.4805   -1.4917 H   0  0  0  0  0  0  0  0  0  0  0  0
   -1.5839    1.4541   -1.4612 H   0  0  0  0  0  0  0  0  0  0  0  0
   -2.7285    0.1037   -1.0706 H   0  0  0  0  0  0  0  0  0  0  0  0
   -1.3229    0.3135    2.6454 H   0  0  0  0  0  0  0  0  0  0  0  0
   -2.8833    0.8408    1.8249 H   0  0  0  0  0  0  0  0  0  0  0  0
  1  2  1  0
  2  3  1  0
  3  4  1  0
  3  5  1  0
  5  6  1  0
  6  7  1  0
  7  8  1  0
  8  9  1  0
  7  3  1  0
  9  7  1  0
  1 10  1  0
  1 11  1  0
  1 12  1  0
  2 13  1  0
  2 14  1  0
  4 15  1  0
  4 16  1  0
  4 17  1  0
  5 18  1  0
  5 19  1  0
  6 20  1  0
  6 21  1  0
  8 22  1  0
  8 23  1  0
M  END
