
     RDKit          3D

 21 23  0  0  0  0  0  0  0  0999 V2000
    2.8877   -0.3256   -0.1779 C   0  0  0  0  0  0  0  0  0  0  0  0
    1.6256   -0.7630    0.5719 C   0  0  0  0  0  0  0  0  0  0  0  0
    0.7465    0.4412    0.6752 C   0  0  0  0  0  0  0  0  0  0  0  0
    0.3517    1.0051   -0.7063 C   0  0  0  0  0  0  0  0  0  0  0  0
   -0.6375    0.4944    0.2898 C   0  0  0  0  0  0  0  0  0  0  0  0
   -1.6027    1.2703    0.8427 O   0  0  0  0  0  0  0  0  0  0  0  0
   -2.4948    0.6455   -0.0507 C   0  0  0  0  0  0  0  0  0  0  0  0
   -2.9707   -0.6712    0.3718 C   0  0  0  0  0  0  0  0  0  0  0  0
   -1.5420   -0.5891   -0.0896 C   0  0  0  0  0  0  0  0  0  0  0  0
    2.5769    0.3816   -0.9761 H   0  0  0  0  0  0  0  0  0  0  0  0
    3.5358    0.2832    0.5108 H   0  0  0  0  0  0  0  0  0  0  0  0
    3.4260   -1.1998   -0.5900 H   0  0  0  0  0  0  0  0  0  0  0  0
    1.1793   -1.5671   -0.0494 H   0  0  0  0  0  0  0  0  0  0  0  0
    1.8857   -1.2115    1.5450 H   0  0  0  0  0  0  0  0  0  0  0  0
    1.1270    1.2171    1.3772 H   0  0  0  0  0  0  0  0  0  0  0  0
    0.4911    0.3636   -1.5875 H   0  0  0  0  0  0  0  0  0  0  0  0
    0.4094    2.1047   -0.8324 H   0  0  0  0  0  0  0  0  0  0  0  0
   -2.6880    1.1074   -1.0142 H   0  0  0  0  0  0  0  0  0  0  0  0
   -3.7351   -1.1602   -0.2774 H   0  0  0  0  0  0  0  0  0  0  0  0
   -3.1858   -0.7944    1.4628 H   0  0  0  0  0  0  0  0  0  0  0  0
   -1.3861   -1.0322   -1.1008 H   0  0  0  0  0  0  0  0  0  0  0  0
  1  2  1  0
  2  3  1  0
  3  4  1  0
  4  5  1  0
  5  6  1  0
  6  7  1  0
  7  8  1  0
  8  9  1  0
  5  3  1  0
  9  7  1  0
  9  5  1  0
  1 10  1  0
  1 11  1  0
  1 12  1  0
  2 13  1  0
  2 14  1  0
  3 15  1  0
  4 16  1  0
  4 17  1  0
  7 18  1  0
  8 19  1  0
  8 20  1  0
  9 21  1  0
M  END
