
     RDKit          3D

 23 23  0  0  0  0  0  0  0  0999 V2000
    3.0061    0.1830    0.3134 C   0  0  0  0  0  0  0  0  0  0  0  0
    1.9405   -0.7099   -0.2872 C   0  0  0  0  0  0  0  0  0  0  0  0
    0.5715   -0.3421    0.2279 C   0  0  0  0  0  0  0  0  0  0  0  0
    0.3590    0.6185    1.0752 C   0  0  0  0  0  0  0  0  0  0  0  0
   -1.0695    0.7364    1.3869 C   0  0  0  0  0  0  0  0  0  0  0  0
   -1.7754   -0.0666    0.3297 C   0  0  0  0  0  0  0  0  0  0  0  0
   -2.2758    0.8702   -0.7393 C   0  0  0  0  0  0  0  0  0  0  0  0
   -0.6981   -0.9890   -0.1335 C   0  0  0  0  0  0  0  0  0  0  0  0
   -0.7919   -1.2982   -1.4853 O   0  0  0  0  0  0  0  0  0  0  0  0
    2.9235    0.1784    1.4301 H   0  0  0  0  0  0  0  0  0  0  0  0
    3.9840   -0.2840    0.0793 H   0  0  0  0  0  0  0  0  0  0  0  0
    2.9451    1.2319   -0.0914 H   0  0  0  0  0  0  0  0  0  0  0  0
    2.1916   -1.7454   -0.0387 H   0  0  0  0  0  0  0  0  0  0  0  0
    1.9558   -0.5156   -1.3899 H   0  0  0  0  0  0  0  0  0  0  0  0
    1.1267    1.2790    1.5225 H   0  0  0  0  0  0  0  0  0  0  0  0
   -1.3161    0.4071    2.4168 H   0  0  0  0  0  0  0  0  0  0  0  0
   -1.3417    1.8126    1.3382 H   0  0  0  0  0  0  0  0  0  0  0  0
   -2.6567   -0.5938    0.7669 H   0  0  0  0  0  0  0  0  0  0  0  0
   -2.6437    1.7906   -0.2008 H   0  0  0  0  0  0  0  0  0  0  0  0
   -3.1880    0.4595   -1.2627 H   0  0  0  0  0  0  0  0  0  0  0  0
   -1.4997    1.1920   -1.4472 H   0  0  0  0  0  0  0  0  0  0  0  0
   -0.7819   -1.9299    0.4828 H   0  0  0  0  0  0  0  0  0  0  0  0
   -0.9653   -2.2846   -1.6123 H   0  0  0  0  0  0  0  0  0  0  0  0
  1  2  1  0
  2  3  1  0
  3  4  2  0
  4  5  1  0
  5  6  1  0
  6  7  1  0
  6  8  1  0
  8  9  1  0
  8  3  1  0
  1 10  1  0
  1 11  1  0
  1 12  1  0
  2 13  1  0
  2 14  1  0
  4 15  1  0
  5 16  1  0
  5 17  1  0
  6 18  1  0
  7 19  1  0
  7 20  1  0
  7 21  1  0
  8 22  1  0
  9 23  1  0
M  END
