
     RDKit          3D

 25 25  0  0  0  0  0  0  0  0999 V2000
    3.1981   -0.2272    0.2448 C   0  0  0  0  0  0  0  0  0  0  0  0
    2.1400    0.4429   -0.5980 C   0  0  0  0  0  0  0  0  0  0  0  0
    0.7697    0.0490   -0.1156 C   0  0  0  0  0  0  0  0  0  0  0  0
   -0.0498    0.9762    0.3004 C   0  0  0  0  0  0  0  0  0  0  0  0
   -1.3999    0.5847    0.7753 C   0  0  0  0  0  0  0  0  0  0  0  0
   -2.3593    1.7518    0.7620 C   0  0  0  0  0  0  0  0  0  0  0  0
   -1.9142   -0.4633   -0.1925 C   0  0  0  0  0  0  0  0  0  0  0  0
   -1.0265   -1.6747   -0.2409 C   0  0  0  0  0  0  0  0  0  0  0  0
    0.4296   -1.3762   -0.1414 C   0  0  0  0  0  0  0  0  0  0  0  0
    2.9268   -0.0480    1.3038 H   0  0  0  0  0  0  0  0  0  0  0  0
    3.3163   -1.2900   -0.0116 H   0  0  0  0  0  0  0  0  0  0  0  0
    4.1583    0.3252    0.0577 H   0  0  0  0  0  0  0  0  0  0  0  0
    2.2199    0.1761   -1.6713 H   0  0  0  0  0  0  0  0  0  0  0  0
    2.2997    1.5443   -0.4986 H   0  0  0  0  0  0  0  0  0  0  0  0
    0.2510    2.0159    0.2991 H   0  0  0  0  0  0  0  0  0  0  0  0
   -1.4002    0.1509    1.7852 H   0  0  0  0  0  0  0  0  0  0  0  0
   -1.7349    2.6757    0.6308 H   0  0  0  0  0  0  0  0  0  0  0  0
   -3.0997    1.6886   -0.0481 H   0  0  0  0  0  0  0  0  0  0  0  0
   -2.9116    1.8555    1.7226 H   0  0  0  0  0  0  0  0  0  0  0  0
   -2.9110   -0.7773    0.2022 H   0  0  0  0  0  0  0  0  0  0  0  0
   -2.1071   -0.0277   -1.1949 H   0  0  0  0  0  0  0  0  0  0  0  0
   -1.2680   -2.2228   -1.1811 H   0  0  0  0  0  0  0  0  0  0  0  0
   -1.3361   -2.3812    0.5842 H   0  0  0  0  0  0  0  0  0  0  0  0
    0.8533   -1.8586    0.7727 H   0  0  0  0  0  0  0  0  0  0  0  0
    0.9556   -1.8899   -0.9988 H   0  0  0  0  0  0  0  0  0  0  0  0
  1  2  1  0
  2  3  1  0
  3  4  2  0
  4  5  1  0
  5  6  1  0
  5  7  1  0
  7  8  1  0
  8  9  1  0
  9  3  1  0
  1 10  1  0
  1 11  1  0
  1 12  1  0
  2 13  1  0
  2 14  1  0
  4 15  1  0
  5 16  1  0
  6 17  1  0
  6 18  1  0
  6 19  1  0
  7 20  1  0
  7 21  1  0
  8 22  1  0
  8 23  1  0
  9 24  1  0
  9 25  1  0
M  END
