
     RDKit          3D

 20 21  0  0  0  0  0  0  0  0999 V2000
    2.5543    0.4597    0.1647 C   0  0  0  0  0  0  0  0  0  0  0  0
    1.6842   -0.7743    0.0844 C   0  0  0  0  0  0  0  0  0  0  0  0
    0.2360   -0.4550    0.1536 C   0  0  0  0  0  0  0  0  0  0  0  0
   -0.6968   -0.8399    1.0351 C   0  0  0  0  0  0  0  0  0  0  0  0
   -1.9195   -0.1857    0.5122 C   0  0  0  0  0  0  0  0  0  0  0  0
   -1.7699   -0.4547   -0.9878 C   0  0  0  0  0  0  0  0  0  0  0  0
   -0.5036    0.3924   -0.7807 C   0  0  0  0  0  0  0  0  0  0  0  0
   -1.3897    1.2085    0.1665 C   0  0  0  0  0  0  0  0  0  0  0  0
    3.3841    0.4134   -0.5854 H   0  0  0  0  0  0  0  0  0  0  0  0
    1.9807    1.3805   -0.0269 H   0  0  0  0  0  0  0  0  0  0  0  0
    2.9654    0.5291    1.1911 H   0  0  0  0  0  0  0  0  0  0  0  0
    1.9555   -1.4873    0.9143 H   0  0  0  0  0  0  0  0  0  0  0  0
    1.9509   -1.3287   -0.8554 H   0  0  0  0  0  0  0  0  0  0  0  0
   -0.5512   -1.4770    1.9072 H   0  0  0  0  0  0  0  0  0  0  0  0
   -2.8511   -0.2900    0.9688 H   0  0  0  0  0  0  0  0  0  0  0  0
   -2.5127    0.0184   -1.6243 H   0  0  0  0  0  0  0  0  0  0  0  0
   -1.4531   -1.4847   -1.2353 H   0  0  0  0  0  0  0  0  0  0  0  0
   -0.0703    0.8621   -1.6077 H   0  0  0  0  0  0  0  0  0  0  0  0
   -2.1636    1.8097   -0.3553 H   0  0  0  0  0  0  0  0  0  0  0  0
   -0.8296    1.7034    0.9608 H   0  0  0  0  0  0  0  0  0  0  0  0
  1  2  1  0
  2  3  1  0
  3  4  2  0
  4  5  1  0
  5  6  1  0
  6  7  1  0
  7  8  1  0
  7  3  1  0
  8  5  1  0
  1  9  1  0
  1 10  1  0
  1 11  1  0
  2 12  1  0
  2 13  1  0
  4 14  1  0
  5 15  1  0
  6 16  1  0
  6 17  1  0
  7 18  1  0
  8 19  1  0
  8 20  1  0
M  END
