
     RDKit          3D

 23 24  0  0  0  0  0  0  0  0999 V2000
    2.6081   -0.2148    0.6350 C   0  0  0  0  0  0  0  0  0  0  0  0
    1.4801    0.7501    0.5292 C   0  0  0  0  0  0  0  0  0  0  0  0
    0.2999    0.2319   -0.2540 C   0  0  0  0  0  0  0  0  0  0  0  0
   -0.8304    1.2352   -0.3437 C   0  0  0  0  0  0  0  0  0  0  0  0
   -1.9180    0.8412    0.6660 C   0  0  0  0  0  0  0  0  0  0  0  0
   -2.5257   -0.3983    0.0818 C   0  0  0  0  0  0  0  0  0  0  0  0
   -1.6545   -1.3315   -0.2923 C   0  0  0  0  0  0  0  0  0  0  0  0
   -0.1881   -1.1355   -0.1319 C   0  0  0  0  0  0  0  0  0  0  0  0
    0.4982   -0.6905   -1.3989 C   0  0  0  0  0  0  0  0  0  0  0  0
    3.4904    0.3634    1.0393 H   0  0  0  0  0  0  0  0  0  0  0  0
    2.4274   -1.0045    1.4113 H   0  0  0  0  0  0  0  0  0  0  0  0
    2.9468   -0.6579   -0.3009 H   0  0  0  0  0  0  0  0  0  0  0  0
    1.1991    1.0657    1.5537 H   0  0  0  0  0  0  0  0  0  0  0  0
    1.8674    1.6791    0.0315 H   0  0  0  0  0  0  0  0  0  0  0  0
   -1.2602    1.1804   -1.3739 H   0  0  0  0  0  0  0  0  0  0  0  0
   -0.4908    2.2711   -0.1516 H   0  0  0  0  0  0  0  0  0  0  0  0
   -2.6427    1.6395    0.8266 H   0  0  0  0  0  0  0  0  0  0  0  0
   -1.4263    0.5019    1.6208 H   0  0  0  0  0  0  0  0  0  0  0  0
   -3.5967   -0.5182   -0.0248 H   0  0  0  0  0  0  0  0  0  0  0  0
   -1.9845   -2.2685   -0.7276 H   0  0  0  0  0  0  0  0  0  0  0  0
    0.3457   -1.8923    0.5149 H   0  0  0  0  0  0  0  0  0  0  0  0
    1.4598   -1.1589   -1.6015 H   0  0  0  0  0  0  0  0  0  0  0  0
   -0.1049   -0.4888   -2.3091 H   0  0  0  0  0  0  0  0  0  0  0  0
  1  2  1  0
  2  3  1  0
  3  4  1  0
  4  5  1  0
  5  6  1  0
  6  7  2  0
  7  8  1  0
  8  9  1  0
  8  3  1  0
  9  3  1  0
  1 10  1  0
  1 11  1  0
  1 12  1  0
  2 13  1  0
  2 14  1  0
  4 15  1  0
  4 16  1  0
  5 17  1  0
  5 18  1  0
  6 19  1  0
  7 20  1  0
  8 21  1  0
  9 22  1  0
  9 23  1  0
M  END
