
     RDKit          3D

 23 24  0  0  0  0  0  0  0  0999 V2000
    2.5949   -0.5212    0.0513 C   0  0  0  0  0  0  0  0  0  0  0  0
    1.6007    0.5128   -0.3410 C   0  0  0  0  0  0  0  0  0  0  0  0
    0.2723    0.3882    0.3567 C   0  0  0  0  0  0  0  0  0  0  0  0
   -0.5959    1.4987   -0.1543 C   0  0  0  0  0  0  0  0  0  0  0  0
   -2.0465    1.2351    0.0498 C   0  0  0  0  0  0  0  0  0  0  0  0
   -2.4363    0.0161   -0.4142 O   0  0  0  0  0  0  0  0  0  0  0  0
   -1.7533   -1.0635    0.0284 C   0  0  0  0  0  0  0  0  0  0  0  0
   -0.7241   -1.6052   -0.9891 C   0  0  0  0  0  0  0  0  0  0  0  0
   -0.3340   -0.9609    0.2901 C   0  0  0  0  0  0  0  0  0  0  0  0
    3.4857   -0.0832    0.5752 H   0  0  0  0  0  0  0  0  0  0  0  0
    2.1862   -1.3496    0.6563 H   0  0  0  0  0  0  0  0  0  0  0  0
    3.0263   -0.9443   -0.9039 H   0  0  0  0  0  0  0  0  0  0  0  0
    1.4463    0.6005   -1.4420 H   0  0  0  0  0  0  0  0  0  0  0  0
    2.0178    1.5184   -0.0380 H   0  0  0  0  0  0  0  0  0  0  0  0
    0.4711    0.6172    1.4450 H   0  0  0  0  0  0  0  0  0  0  0  0
   -0.4102    1.6078   -1.2550 H   0  0  0  0  0  0  0  0  0  0  0  0
   -0.2807    2.4455    0.3138 H   0  0  0  0  0  0  0  0  0  0  0  0
   -2.3396    1.3679    1.1115 H   0  0  0  0  0  0  0  0  0  0  0  0
   -2.6100    2.0152   -0.5427 H   0  0  0  0  0  0  0  0  0  0  0  0
   -2.3944   -1.8467    0.5271 H   0  0  0  0  0  0  0  0  0  0  0  0
   -0.7061   -2.7166   -1.0779 H   0  0  0  0  0  0  0  0  0  0  0  0
   -0.5580   -1.0438   -1.9079 H   0  0  0  0  0  0  0  0  0  0  0  0
    0.0878   -1.6883    1.0472 H   0  0  0  0  0  0  0  0  0  0  0  0
  1  2  1  0
  2  3  1  0
  3  4  1  0
  4  5  1  0
  5  6  1  0
  6  7  1  0
  7  8  1  0
  8  9  1  0
  9  3  1  0
  9  7  1  0
  1 10  1  0
  1 11  1  0
  1 12  1  0
  2 13  1  0
  2 14  1  0
  3 15  1  0
  4 16  1  0
  4 17  1  0
  5 18  1  0
  5 19  1  0
  7 20  1  0
  8 21  1  0
  8 22  1  0
  9 23  1  0
M  END
