
     RDKit          3D

 23 23  0  0  0  0  0  0  0  0999 V2000
    2.5651    0.2750    0.7387 C   0  0  0  0  0  0  0  0  0  0  0  0
    1.4532    0.6131   -0.2111 C   0  0  0  0  0  0  0  0  0  0  0  0
    0.4118   -0.4515   -0.3320 C   0  0  0  0  0  0  0  0  0  0  0  0
    0.8502   -1.6960   -0.7831 O   0  0  0  0  0  0  0  0  0  0  0  0
   -0.9183    0.0487   -0.9172 C   0  0  0  0  0  0  0  0  0  0  0  0
   -1.1004    1.5429   -1.0521 C   0  0  0  0  0  0  0  0  0  0  0  0
   -0.7823   -0.4278    0.5082 C   0  0  0  0  0  0  0  0  0  0  0  0
   -1.5820   -1.6631    0.8282 C   0  0  0  0  0  0  0  0  0  0  0  0
   -0.8155    0.5299    1.5330 O   0  0  0  0  0  0  0  0  0  0  0  0
    2.6727    1.0466    1.5459 H   0  0  0  0  0  0  0  0  0  0  0  0
    2.4107   -0.6993    1.2526 H   0  0  0  0  0  0  0  0  0  0  0  0
    3.5648    0.2900    0.2144 H   0  0  0  0  0  0  0  0  0  0  0  0
    1.0177    1.5723    0.1076 H   0  0  0  0  0  0  0  0  0  0  0  0
    1.8947    0.7786   -1.2243 H   0  0  0  0  0  0  0  0  0  0  0  0
    0.6887   -1.7409   -1.7508 H   0  0  0  0  0  0  0  0  0  0  0  0
   -1.4232   -0.5762   -1.6527 H   0  0  0  0  0  0  0  0  0  0  0  0
   -0.4473    1.9557   -1.8455 H   0  0  0  0  0  0  0  0  0  0  0  0
   -2.1627    1.7091   -1.3268 H   0  0  0  0  0  0  0  0  0  0  0  0
   -0.9491    2.0791   -0.0896 H   0  0  0  0  0  0  0  0  0  0  0  0
   -1.3970   -2.4999    0.1419 H   0  0  0  0  0  0  0  0  0  0  0  0
   -2.6627   -1.3800    0.6952 H   0  0  0  0  0  0  0  0  0  0  0  0
   -1.4923   -1.9641    1.8920 H   0  0  0  0  0  0  0  0  0  0  0  0
   -1.7967    0.6578    1.7275 H   0  0  0  0  0  0  0  0  0  0  0  0
  1  2  1  0
  2  3  1  0
  3  4  1  0
  3  5  1  0
  5  6  1  0
  5  7  1  0
  7  8  1  0
  7  9  1  0
  7  3  1  0
  1 10  1  0
  1 11  1  0
  1 12  1  0
  2 13  1  0
  2 14  1  0
  4 15  1  0
  5 16  1  0
  6 17  1  0
  6 18  1  0
  6 19  1  0
  8 20  1  0
  8 21  1  0
  8 22  1  0
  9 23  1  0
M  END
