
     RDKit          3D

 25 25  0  0  0  0  0  0  0  0999 V2000
    2.2205   -0.6444    0.3912 C   0  0  0  0  0  0  0  0  0  0  0  0
    0.7340   -0.9332    0.3437 C   0  0  0  0  0  0  0  0  0  0  0  0
    0.0193   -0.0986   -0.6709 C   0  0  0  0  0  0  0  0  0  0  0  0
    0.4702   -0.2805   -1.9516 O   0  0  0  0  0  0  0  0  0  0  0  0
   -1.4964   -0.2523   -0.5006 C   0  0  0  0  0  0  0  0  0  0  0  0
   -1.9261   -1.5520    0.0884 C   0  0  0  0  0  0  0  0  0  0  0  0
   -1.3787    0.9034    0.5044 C   0  0  0  0  0  0  0  0  0  0  0  0
   -0.2017    1.3412   -0.3431 C   0  0  0  0  0  0  0  0  0  0  0  0
    0.8754    2.0867    0.3393 C   0  0  0  0  0  0  0  0  0  0  0  0
    2.5065    0.0778    1.1543 H   0  0  0  0  0  0  0  0  0  0  0  0
    2.5646   -0.2785   -0.6123 H   0  0  0  0  0  0  0  0  0  0  0  0
    2.7794   -1.5943    0.6420 H   0  0  0  0  0  0  0  0  0  0  0  0
    0.6495   -2.0033   -0.0067 H   0  0  0  0  0  0  0  0  0  0  0  0
    0.2752   -0.9147    1.3398 H   0  0  0  0  0  0  0  0  0  0  0  0
    0.6548   -1.2358   -2.1095 H   0  0  0  0  0  0  0  0  0  0  0  0
   -2.0847    0.0287   -1.3773 H   0  0  0  0  0  0  0  0  0  0  0  0
   -1.4843   -2.3673   -0.5521 H   0  0  0  0  0  0  0  0  0  0  0  0
   -1.6217   -1.7107    1.1351 H   0  0  0  0  0  0  0  0  0  0  0  0
   -3.0137   -1.6417   -0.0119 H   0  0  0  0  0  0  0  0  0  0  0  0
   -1.1529    0.5371    1.5021 H   0  0  0  0  0  0  0  0  0  0  0  0
   -2.2399    1.6113    0.4554 H   0  0  0  0  0  0  0  0  0  0  0  0
   -0.6073    1.8664   -1.2516 H   0  0  0  0  0  0  0  0  0  0  0  0
    1.8548    1.9695   -0.1693 H   0  0  0  0  0  0  0  0  0  0  0  0
    0.9644    1.8969    1.4174 H   0  0  0  0  0  0  0  0  0  0  0  0
    0.6386    3.1883    0.2438 H   0  0  0  0  0  0  0  0  0  0  0  0
  1  2  1  0
  2  3  1  0
  3  4  1  0
  3  5  1  0
  5  6  1  0
  5  7  1  0
  7  8  1  0
  8  9  1  0
  8  3  1  0
  1 10  1  0
  1 11  1  0
  1 12  1  0
  2 13  1  0
  2 14  1  0
  4 15  1  0
  5 16  1  0
  6 17  1  0
  6 18  1  0
  6 19  1  0
  7 20  1  0
  7 21  1  0
  8 22  1  0
  9 23  1  0
  9 24  1  0
  9 25  1  0
M  END
