
     RDKit          3D

 19 20  0  0  0  0  0  0  0  0999 V2000
    2.2520    0.0440    0.8290 C   0  0  0  0  0  0  0  0  0  0  0  0
    1.3910   -0.4784   -0.2596 C   0  0  0  0  0  0  0  0  0  0  0  0
    0.0053    0.0663   -0.3002 C   0  0  0  0  0  0  0  0  0  0  0  0
   -0.8320   -0.5170   -1.4519 C   0  0  0  0  0  0  0  0  0  0  0  0
   -1.1945   -0.7014   -0.0001 C   0  0  0  0  0  0  0  0  0  0  0  0
   -2.2231    0.2525    0.5751 C   0  0  0  0  0  0  0  0  0  0  0  0
   -1.5566    1.5032    0.7157 O   0  0  0  0  0  0  0  0  0  0  0  0
   -0.2977    1.4409    0.1184 C   0  0  0  0  0  0  0  0  0  0  0  0
    0.4300    2.4611   -0.0134 O   0  0  0  0  0  0  0  0  0  0  0  0
    2.0869    1.1004    1.0798 H   0  0  0  0  0  0  0  0  0  0  0  0
    3.3263   -0.1297    0.5252 H   0  0  0  0  0  0  0  0  0  0  0  0
    2.1137   -0.6272    1.7259 H   0  0  0  0  0  0  0  0  0  0  0  0
    1.8812   -0.2439   -1.2344 H   0  0  0  0  0  0  0  0  0  0  0  0
    1.3265   -1.5810   -0.1732 H   0  0  0  0  0  0  0  0  0  0  0  0
   -0.4693   -1.4018   -1.9683 H   0  0  0  0  0  0  0  0  0  0  0  0
   -1.3938    0.2191   -2.0698 H   0  0  0  0  0  0  0  0  0  0  0  0
   -1.2259   -1.7146    0.3955 H   0  0  0  0  0  0  0  0  0  0  0  0
   -2.5343   -0.1013    1.5753 H   0  0  0  0  0  0  0  0  0  0  0  0
   -3.0858    0.4088   -0.0689 H   0  0  0  0  0  0  0  0  0  0  0  0
  1  2  1  0
  2  3  1  0
  3  4  1  0
  4  5  1  0
  5  6  1  0
  6  7  1  0
  7  8  1  0
  8  9  2  0
  5  3  1  0
  8  3  1  0
  1 10  1  0
  1 11  1  0
  1 12  1  0
  2 13  1  0
  2 14  1  0
  4 15  1  0
  4 16  1  0
  5 17  1  0
  6 18  1  0
  6 19  1  0
M  END
