
     RDKit          3D

 23 24  0  0  0  0  0  0  0  0999 V2000
    2.7191    0.0381    0.4874 C   0  0  0  0  0  0  0  0  0  0  0  0
    1.6218   -0.3805   -0.4409 C   0  0  0  0  0  0  0  0  0  0  0  0
    0.2685    0.1707   -0.0488 C   0  0  0  0  0  0  0  0  0  0  0  0
    0.2105    1.6846   -0.0216 C   0  0  0  0  0  0  0  0  0  0  0  0
   -0.5688   -0.6633    0.8021 C   0  0  0  0  0  0  0  0  0  0  0  0
   -2.0134   -0.4264    1.0635 C   0  0  0  0  0  0  0  0  0  0  0  0
   -2.2408    0.0937   -0.3604 C   0  0  0  0  0  0  0  0  0  0  0  0
   -0.8900   -0.4797   -0.7047 C   0  0  0  0  0  0  0  0  0  0  0  0
   -0.7791   -1.6267   -1.4444 O   0  0  0  0  0  0  0  0  0  0  0  0
    3.2522    0.9341    0.0521 H   0  0  0  0  0  0  0  0  0  0  0  0
    2.4073    0.2673    1.5035 H   0  0  0  0  0  0  0  0  0  0  0  0
    3.4924   -0.7688    0.4856 H   0  0  0  0  0  0  0  0  0  0  0  0
    1.8394    0.0220   -1.4586 H   0  0  0  0  0  0  0  0  0  0  0  0
    1.6134   -1.4831   -0.5471 H   0  0  0  0  0  0  0  0  0  0  0  0
   -0.6366    2.0669    0.5480 H   0  0  0  0  0  0  0  0  0  0  0  0
    1.1377    2.0200    0.5105 H   0  0  0  0  0  0  0  0  0  0  0  0
    0.2201    2.0157   -1.0831 H   0  0  0  0  0  0  0  0  0  0  0  0
   -0.1745   -1.6455    1.1106 H   0  0  0  0  0  0  0  0  0  0  0  0
   -2.2934    0.2711    1.8557 H   0  0  0  0  0  0  0  0  0  0  0  0
   -2.5760   -1.3957    1.2027 H   0  0  0  0  0  0  0  0  0  0  0  0
   -3.1055   -0.3333   -0.8723 H   0  0  0  0  0  0  0  0  0  0  0  0
   -2.2954    1.1998   -0.3252 H   0  0  0  0  0  0  0  0  0  0  0  0
   -1.2090   -1.5807   -2.3148 H   0  0  0  0  0  0  0  0  0  0  0  0
  1  2  1  0
  2  3  1  0
  3  4  1  0
  3  5  1  0
  5  6  1  0
  6  7  1  0
  7  8  1  0
  8  9  1  0
  8  3  1  0
  8  5  1  0
  1 10  1  0
  1 11  1  0
  1 12  1  0
  2 13  1  0
  2 14  1  0
  4 15  1  0
  4 16  1  0
  4 17  1  0
  5 18  1  0
  6 19  1  0
  6 20  1  0
  7 21  1  0
  7 22  1  0
  9 23  1  0
M  END
