
     RDKit          3D

 25 25  0  0  0  0  0  0  0  0999 V2000
    2.8120    1.1404   -0.3320 C   0  0  0  0  0  0  0  0  0  0  0  0
    1.7772    0.5605    0.6245 C   0  0  0  0  0  0  0  0  0  0  0  0
    1.0350   -0.5803    0.0311 C   0  0  0  0  0  0  0  0  0  0  0  0
   -0.0147   -1.1843    0.9721 C   0  0  0  0  0  0  0  0  0  0  0  0
   -0.3642   -0.5736   -0.3942 C   0  0  0  0  0  0  0  0  0  0  0  0
   -0.8083   -1.6587   -1.3760 C   0  0  0  0  0  0  0  0  0  0  0  0
   -1.0902    0.7287   -0.3811 C   0  0  0  0  0  0  0  0  0  0  0  0
   -2.5238    0.6176   -0.8461 C   0  0  0  0  0  0  0  0  0  0  0  0
   -1.1077    1.2634    0.9266 O   0  0  0  0  0  0  0  0  0  0  0  0
    3.1854    2.0988    0.0763 H   0  0  0  0  0  0  0  0  0  0  0  0
    2.4007    1.3284   -1.3353 H   0  0  0  0  0  0  0  0  0  0  0  0
    3.6964    0.4485   -0.3649 H   0  0  0  0  0  0  0  0  0  0  0  0
    1.1919    1.3528    1.0881 H   0  0  0  0  0  0  0  0  0  0  0  0
    2.3997    0.1285    1.4686 H   0  0  0  0  0  0  0  0  0  0  0  0
    1.6932   -1.2979   -0.5098 H   0  0  0  0  0  0  0  0  0  0  0  0
    0.0558   -2.2712    1.0821 H   0  0  0  0  0  0  0  0  0  0  0  0
   -0.3459   -0.5804    1.8273 H   0  0  0  0  0  0  0  0  0  0  0  0
   -1.3108   -1.2445   -2.2565 H   0  0  0  0  0  0  0  0  0  0  0  0
    0.0582   -2.2922   -1.6526 H   0  0  0  0  0  0  0  0  0  0  0  0
   -1.5010   -2.3119   -0.7968 H   0  0  0  0  0  0  0  0  0  0  0  0
   -0.5831    1.4443   -1.0519 H   0  0  0  0  0  0  0  0  0  0  0  0
   -3.1359    1.3453   -0.2860 H   0  0  0  0  0  0  0  0  0  0  0  0
   -2.9585   -0.3745   -0.7097 H   0  0  0  0  0  0  0  0  0  0  0  0
   -2.6010    0.9346   -1.9248 H   0  0  0  0  0  0  0  0  0  0  0  0
   -1.9604    0.9777    1.3570 H   0  0  0  0  0  0  0  0  0  0  0  0
  1  2  1  0
  2  3  1  0
  3  4  1  0
  4  5  1  0
  5  6  1  0
  5  7  1  0
  7  8  1  0
  7  9  1  0
  5  3  1  0
  1 10  1  0
  1 11  1  0
  1 12  1  0
  2 13  1  0
  2 14  1  0
  3 15  1  0
  4 16  1  0
  4 17  1  0
  6 18  1  0
  6 19  1  0
  6 20  1  0
  7 21  1  0
  8 22  1  0
  8 23  1  0
  8 24  1  0
  9 25  1  0
M  END
