
     RDKit          3D

 21 22  0  0  0  0  0  0  0  0999 V2000
   -2.6606   -1.0427    0.4460 C   0  0  0  0  0  0  0  0  0  0  0  0
   -1.6368   -0.3904   -0.4368 C   0  0  0  0  0  0  0  0  0  0  0  0
   -1.0509    0.8630    0.2139 C   0  0  0  0  0  0  0  0  0  0  0  0
   -0.0437    1.5734   -0.5647 C   0  0  0  0  0  0  0  0  0  0  0  0
    0.8407    0.7315   -1.2744 O   0  0  0  0  0  0  0  0  0  0  0  0
    1.5370    0.6267   -0.0721 C   0  0  0  0  0  0  0  0  0  0  0  0
    2.2826   -0.6679    0.1070 C   0  0  0  0  0  0  0  0  0  0  0  0
    3.2218   -0.8193   -0.9147 O   0  0  0  0  0  0  0  0  0  0  0  0
    0.3251    0.8349    0.7504 C   0  0  0  0  0  0  0  0  0  0  0  0
   -2.5542   -2.1402    0.3319 H   0  0  0  0  0  0  0  0  0  0  0  0
   -2.3953   -0.7833    1.5016 H   0  0  0  0  0  0  0  0  0  0  0  0
   -3.6979   -0.7368    0.1866 H   0  0  0  0  0  0  0  0  0  0  0  0
   -2.1719   -0.0825   -1.3757 H   0  0  0  0  0  0  0  0  0  0  0  0
   -0.8294   -1.1089   -0.6905 H   0  0  0  0  0  0  0  0  0  0  0  0
   -1.8287    1.4790    0.7086 H   0  0  0  0  0  0  0  0  0  0  0  0
    0.1436    2.6443   -0.5402 H   0  0  0  0  0  0  0  0  0  0  0  0
    2.2401    1.4897    0.0033 H   0  0  0  0  0  0  0  0  0  0  0  0
    1.6339   -1.5458    0.1665 H   0  0  0  0  0  0  0  0  0  0  0  0
    2.8610   -0.6261    1.0533 H   0  0  0  0  0  0  0  0  0  0  0  0
    3.3112   -1.7896   -1.1262 H   0  0  0  0  0  0  0  0  0  0  0  0
    0.4724    1.4911    1.6497 H   0  0  0  0  0  0  0  0  0  0  0  0
  1  2  1  0
  2  3  1  0
  3  4  1  0
  4  5  1  0
  5  6  1  0
  6  7  1  0
  7  8  1  0
  6  9  1  0
  9  3  1  0
  9  4  1  0
  1 10  1  0
  1 11  1  0
  1 12  1  0
  2 13  1  0
  2 14  1  0
  3 15  1  0
  4 16  1  0
  6 17  1  0
  7 18  1  0
  7 19  1  0
  8 20  1  0
  9 21  1  0
M  END
