
     RDKit          3D

 21 22  0  0  0  0  0  0  0  0999 V2000
    2.7536    0.1966   -0.0004 C   0  0  0  0  0  0  0  0  0  0  0  0
    1.5048   -0.1673   -0.6961 C   0  0  0  0  0  0  0  0  0  0  0  0
    0.2205    0.3373   -0.0119 C   0  0  0  0  0  0  0  0  0  0  0  0
    0.0164   -0.1662    1.3971 C   0  0  0  0  0  0  0  0  0  0  0  0
   -0.0543   -1.3362    0.6464 O   0  0  0  0  0  0  0  0  0  0  0  0
   -0.9208   -0.6195   -0.1654 C   0  0  0  0  0  0  0  0  0  0  0  0
   -2.2463   -0.6951    0.4495 C   0  0  0  0  0  0  0  0  0  0  0  0
   -0.7976    0.5804   -0.9457 C   0  0  0  0  0  0  0  0  0  0  0  0
   -1.5848    1.7420   -0.7176 O   0  0  0  0  0  0  0  0  0  0  0  0
    2.6991    0.3526    1.0731 H   0  0  0  0  0  0  0  0  0  0  0  0
    3.5277   -0.5911   -0.1756 H   0  0  0  0  0  0  0  0  0  0  0  0
    3.1768    1.1237   -0.4502 H   0  0  0  0  0  0  0  0  0  0  0  0
    1.5020    0.2784   -1.7115 H   0  0  0  0  0  0  0  0  0  0  0  0
    1.4654   -1.2666   -0.8519 H   0  0  0  0  0  0  0  0  0  0  0  0
   -0.9053    0.2406    1.7951 H   0  0  0  0  0  0  0  0  0  0  0  0
    0.8272   -0.0586    2.0958 H   0  0  0  0  0  0  0  0  0  0  0  0
   -2.4628   -1.4321    1.2163 H   0  0  0  0  0  0  0  0  0  0  0  0
   -2.6801    0.2808    0.7992 H   0  0  0  0  0  0  0  0  0  0  0  0
   -2.9437   -0.9787   -0.4027 H   0  0  0  0  0  0  0  0  0  0  0  0
   -0.7186    0.4238   -2.0633 H   0  0  0  0  0  0  0  0  0  0  0  0
   -2.3790    1.7551   -1.2802 H   0  0  0  0  0  0  0  0  0  0  0  0
  1  2  1  0
  2  3  1  0
  3  4  1  0
  4  5  1  0
  5  6  1  0
  6  7  1  0
  6  8  1  0
  8  9  1  0
  6  3  1  0
  8  3  1  0
  1 10  1  0
  1 11  1  0
  1 12  1  0
  2 13  1  0
  2 14  1  0
  4 15  1  0
  4 16  1  0
  7 17  1  0
  7 18  1  0
  7 19  1  0
  8 20  1  0
  9 21  1  0
M  END
