
     RDKit          3D

 24 24  0  0  0  0  0  0  0  0999 V2000
    3.0556   -0.7878    0.4197 C   0  0  0  0  0  0  0  0  0  0  0  0
    2.1773    0.3292   -0.0671 C   0  0  0  0  0  0  0  0  0  0  0  0
    0.8302   -0.2181   -0.5019 C   0  0  0  0  0  0  0  0  0  0  0  0
   -0.1271    0.8340   -1.0096 C   0  0  0  0  0  0  0  0  0  0  0  0
   -0.8354    0.8573    0.2869 C   0  0  0  0  0  0  0  0  0  0  0  0
   -2.3102    0.6761    0.3139 C   0  0  0  0  0  0  0  0  0  0  0  0
   -2.8265   -0.5946   -0.2359 C   0  0  0  0  0  0  0  0  0  0  0  0
   -0.0925   -0.4104    0.6833 C   0  0  0  0  0  0  0  0  0  0  0  0
    3.8375   -1.0673   -0.3277 H   0  0  0  0  0  0  0  0  0  0  0  0
    3.6335   -0.4986    1.3448 H   0  0  0  0  0  0  0  0  0  0  0  0
    2.4467   -1.6670    0.6995 H   0  0  0  0  0  0  0  0  0  0  0  0
    2.6445    0.7809   -0.9637 H   0  0  0  0  0  0  0  0  0  0  0  0
    2.0828    1.0922    0.7251 H   0  0  0  0  0  0  0  0  0  0  0  0
    0.9608   -1.0973   -1.1424 H   0  0  0  0  0  0  0  0  0  0  0  0
    0.4401    1.7546   -1.2774 H   0  0  0  0  0  0  0  0  0  0  0  0
   -0.6781    0.4866   -1.8993 H   0  0  0  0  0  0  0  0  0  0  0  0
   -0.5354    1.7349    0.8970 H   0  0  0  0  0  0  0  0  0  0  0  0
   -2.7938    1.5232   -0.2556 H   0  0  0  0  0  0  0  0  0  0  0  0
   -2.6557    0.7986    1.3611 H   0  0  0  0  0  0  0  0  0  0  0  0
   -3.8173   -0.4945   -0.7564 H   0  0  0  0  0  0  0  0  0  0  0  0
   -3.0063   -1.3087    0.6031 H   0  0  0  0  0  0  0  0  0  0  0  0
   -2.1101   -1.1280   -0.9137 H   0  0  0  0  0  0  0  0  0  0  0  0
   -0.6985   -1.3149    0.5471 H   0  0  0  0  0  0  0  0  0  0  0  0
    0.3780   -0.2806    1.6759 H   0  0  0  0  0  0  0  0  0  0  0  0
  1  2  1  0
  2  3  1  0
  3  4  1  0
  4  5  1  0
  5  6  1  0
  6  7  1  0
  5  8  1  0
  8  3  1  0
  1  9  1  0
  1 10  1  0
  1 11  1  0
  2 12  1  0
  2 13  1  0
  3 14  1  0
  4 15  1  0
  4 16  1  0
  5 17  1  0
  6 18  1  0
  6 19  1  0
  7 20  1  0
  7 21  1  0
  7 22  1  0
  8 23  1  0
  8 24  1  0
M  END
