
     RDKit          3D

 23 24  0  0  0  0  0  0  0  0999 V2000
    3.0561    0.6735    0.2499 C   0  0  0  0  0  0  0  0  0  0  0  0
    2.3450   -0.4514   -0.4776 C   0  0  0  0  0  0  0  0  0  0  0  0
    0.8603   -0.3250   -0.1277 C   0  0  0  0  0  0  0  0  0  0  0  0
    0.4513    0.9314   -0.5717 O   0  0  0  0  0  0  0  0  0  0  0  0
   -0.7959    0.4150   -0.5719 C   0  0  0  0  0  0  0  0  0  0  0  0
   -1.4331    0.4627    0.7572 C   0  0  0  0  0  0  0  0  0  0  0  0
   -2.8571   -0.1225    0.7848 C   0  0  0  0  0  0  0  0  0  0  0  0
   -1.4627   -0.5011   -1.4489 C   0  0  0  0  0  0  0  0  0  0  0  0
   -0.0993   -0.8328   -1.1570 C   0  0  0  0  0  0  0  0  0  0  0  0
    4.1587    0.5828    0.1947 H   0  0  0  0  0  0  0  0  0  0  0  0
    2.7450    0.7891    1.2885 H   0  0  0  0  0  0  0  0  0  0  0  0
    2.7966    1.6085   -0.2878 H   0  0  0  0  0  0  0  0  0  0  0  0
    2.7424   -1.4005   -0.0667 H   0  0  0  0  0  0  0  0  0  0  0  0
    2.5322   -0.3121   -1.5499 H   0  0  0  0  0  0  0  0  0  0  0  0
    0.7402   -0.6177    0.8913 H   0  0  0  0  0  0  0  0  0  0  0  0
   -0.8730    0.1963    1.6402 H   0  0  0  0  0  0  0  0  0  0  0  0
   -1.6454    1.5729    0.9238 H   0  0  0  0  0  0  0  0  0  0  0  0
   -2.8545   -1.2090    0.8427 H   0  0  0  0  0  0  0  0  0  0  0  0
   -3.3429    0.2901    1.7109 H   0  0  0  0  0  0  0  0  0  0  0  0
   -3.4476    0.2724   -0.0669 H   0  0  0  0  0  0  0  0  0  0  0  0
   -1.8669   -0.0491   -2.4045 H   0  0  0  0  0  0  0  0  0  0  0  0
   -2.2146   -1.2623   -1.0929 H   0  0  0  0  0  0  0  0  0  0  0  0
    0.4652   -0.7114   -2.1427 H   0  0  0  0  0  0  0  0  0  0  0  0
  1  2  1  0
  2  3  1  0
  3  4  1  0
  4  5  1  0
  5  6  1  0
  6  7  1  0
  5  8  1  0
  8  9  1  0
  9  3  1  0
  9  5  1  0
  1 10  1  0
  1 11  1  0
  1 12  1  0
  2 13  1  0
  2 14  1  0
  3 15  1  0
  6 16  1  0
  6 17  1  0
  7 18  1  0
  7 19  1  0
  7 20  1  0
  8 21  1  0
  8 22  1  0
  9 23  1  0
M  END
