
     RDKit          3D

 21 22  0  0  0  0  0  0  0  0999 V2000
    2.9450    0.6399   -0.2382 C   0  0  0  0  0  0  0  0  0  0  0  0
    1.7974    0.3791    0.7210 C   0  0  0  0  0  0  0  0  0  0  0  0
    0.7326   -0.4757    0.0630 C   0  0  0  0  0  0  0  0  0  0  0  0
   -0.3963   -0.7258    1.0227 C   0  0  0  0  0  0  0  0  0  0  0  0
   -1.1609   -0.1218   -0.0706 C   0  0  0  0  0  0  0  0  0  0  0  0
   -2.2810   -0.8650   -0.6890 C   0  0  0  0  0  0  0  0  0  0  0  0
   -3.0978   -0.3335    0.3397 O   0  0  0  0  0  0  0  0  0  0  0  0
   -2.2700    0.8144    0.2341 C   0  0  0  0  0  0  0  0  0  0  0  0
   -0.1075    0.2640   -0.8022 O   0  0  0  0  0  0  0  0  0  0  0  0
    3.9301    0.5688    0.2930 H   0  0  0  0  0  0  0  0  0  0  0  0
    2.9902   -0.1467   -1.0374 H   0  0  0  0  0  0  0  0  0  0  0  0
    2.8286    1.6275   -0.7214 H   0  0  0  0  0  0  0  0  0  0  0  0
    1.3730    1.3783    1.0209 H   0  0  0  0  0  0  0  0  0  0  0  0
    2.1588   -0.1241    1.6415 H   0  0  0  0  0  0  0  0  0  0  0  0
    1.1558   -1.3393   -0.4511 H   0  0  0  0  0  0  0  0  0  0  0  0
   -0.3829   -0.1531    1.9581 H   0  0  0  0  0  0  0  0  0  0  0  0
   -0.6524   -1.7930    1.2037 H   0  0  0  0  0  0  0  0  0  0  0  0
   -2.1803   -1.9518   -0.6792 H   0  0  0  0  0  0  0  0  0  0  0  0
   -2.5979   -0.4050   -1.6569 H   0  0  0  0  0  0  0  0  0  0  0  0
   -2.1823    1.3977    1.1455 H   0  0  0  0  0  0  0  0  0  0  0  0
   -2.6021    1.3653   -0.6831 H   0  0  0  0  0  0  0  0  0  0  0  0
  1  2  1  0
  2  3  1  0
  3  4  1  0
  4  5  1  0
  5  6  1  0
  6  7  1  0
  7  8  1  0
  5  9  1  0
  9  3  1  0
  8  5  1  0
  1 10  1  0
  1 11  1  0
  1 12  1  0
  2 13  1  0
  2 14  1  0
  3 15  1  0
  4 16  1  0
  4 17  1  0
  6 18  1  0
  6 19  1  0
  8 20  1  0
  8 21  1  0
M  END
