
     RDKit          3D

 23 23  0  0  0  0  0  0  0  0999 V2000
    2.8277    0.1798    0.4446 C   0  0  0  0  0  0  0  0  0  0  0  0
    1.7648   -0.8341    0.0861 C   0  0  0  0  0  0  0  0  0  0  0  0
    0.4221   -0.1516    0.1707 C   0  0  0  0  0  0  0  0  0  0  0  0
    0.2998    0.9968   -0.7456 C   0  0  0  0  0  0  0  0  0  0  0  0
   -0.8880    1.4820   -1.0033 C   0  0  0  0  0  0  0  0  0  0  0  0
   -2.1194    0.9214   -0.4088 C   0  0  0  0  0  0  0  0  0  0  0  0
   -1.9739   -0.4258    0.2068 C   0  0  0  0  0  0  0  0  0  0  0  0
   -1.8878   -0.3535    1.6173 O   0  0  0  0  0  0  0  0  0  0  0  0
   -0.7038   -1.1103   -0.2469 C   0  0  0  0  0  0  0  0  0  0  0  0
    3.2130    0.0235    1.4745 H   0  0  0  0  0  0  0  0  0  0  0  0
    3.7243    0.0998   -0.2290 H   0  0  0  0  0  0  0  0  0  0  0  0
    2.4806    1.2216    0.3606 H   0  0  0  0  0  0  0  0  0  0  0  0
    1.9294   -1.2795   -0.9025 H   0  0  0  0  0  0  0  0  0  0  0  0
    1.7951   -1.6331    0.8413 H   0  0  0  0  0  0  0  0  0  0  0  0
    0.2586    0.2067    1.2024 H   0  0  0  0  0  0  0  0  0  0  0  0
    1.1728    1.4251   -1.1919 H   0  0  0  0  0  0  0  0  0  0  0  0
   -1.0072    2.3269   -1.6744 H   0  0  0  0  0  0  0  0  0  0  0  0
   -2.9302    0.8992   -1.1719 H   0  0  0  0  0  0  0  0  0  0  0  0
   -2.4678    1.6520    0.3588 H   0  0  0  0  0  0  0  0  0  0  0  0
   -2.8676   -1.0864    0.0232 H   0  0  0  0  0  0  0  0  0  0  0  0
   -1.8001   -1.3169    1.9046 H   0  0  0  0  0  0  0  0  0  0  0  0
   -0.7047   -1.1725   -1.3545 H   0  0  0  0  0  0  0  0  0  0  0  0
   -0.5374   -2.0712    0.2378 H   0  0  0  0  0  0  0  0  0  0  0  0
  1  2  1  0
  2  3  1  0
  3  4  1  0
  4  5  2  0
  5  6  1  0
  6  7  1  0
  7  8  1  0
  7  9  1  0
  9  3  1  0
  1 10  1  0
  1 11  1  0
  1 12  1  0
  2 13  1  0
  2 14  1  0
  3 15  1  0
  4 16  1  0
  5 17  1  0
  6 18  1  0
  6 19  1  0
  7 20  1  0
  8 21  1  0
  9 22  1  0
  9 23  1  0
M  END
