
     RDKit          3D

 18 20  0  0  0  0  0  0  0  0999 V2000
    2.2012   -0.5091   -0.4546 C   0  0  0  0  0  0  0  0  0  0  0  0
    1.6016    0.3685    0.5790 C   0  0  0  0  0  0  0  0  0  0  0  0
    0.1292    0.3005    0.7193 C   0  0  0  0  0  0  0  0  0  0  0  0
   -0.6654    0.6611   -0.4966 C   0  0  0  0  0  0  0  0  0  0  0  0
   -2.1593    0.7315   -0.2622 C   0  0  0  0  0  0  0  0  0  0  0  0
   -2.8860   -0.2138   -0.9572 O   0  0  0  0  0  0  0  0  0  0  0  0
   -2.2243   -0.5075    0.2677 C   0  0  0  0  0  0  0  0  0  0  0  0
   -0.7308   -0.7412    0.1889 C   0  0  0  0  0  0  0  0  0  0  0  0
    2.5389    0.0708   -1.3625 H   0  0  0  0  0  0  0  0  0  0  0  0
    3.1560   -0.9772   -0.0737 H   0  0  0  0  0  0  0  0  0  0  0  0
    1.5248   -1.2775   -0.8193 H   0  0  0  0  0  0  0  0  0  0  0  0
    2.0526    0.1900    1.5922 H   0  0  0  0  0  0  0  0  0  0  0  0
    1.8689    1.4337    0.3129 H   0  0  0  0  0  0  0  0  0  0  0  0
   -0.2495    0.8166    1.6518 H   0  0  0  0  0  0  0  0  0  0  0  0
   -0.2518    0.6357   -1.4992 H   0  0  0  0  0  0  0  0  0  0  0  0
   -2.6163    1.6784    0.0512 H   0  0  0  0  0  0  0  0  0  0  0  0
   -2.8474   -1.0594    0.9612 H   0  0  0  0  0  0  0  0  0  0  0  0
   -0.4423   -1.6013   -0.3988 H   0  0  0  0  0  0  0  0  0  0  0  0
  1  2  1  0
  2  3  1  0
  3  4  1  0
  4  5  1  0
  5  6  1  0
  6  7  1  0
  7  8  1  0
  8  3  1  0
  8  4  1  0
  7  5  1  0
  1  9  1  0
  1 10  1  0
  1 11  1  0
  2 12  1  0
  2 13  1  0
  3 14  1  0
  4 15  1  0
  5 16  1  0
  7 17  1  0
  8 18  1  0
M  END
