
     RDKit          3D

 19 20  0  0  0  0  0  0  0  0999 V2000
   -2.8190    0.1687    0.1876 C   0  0  0  0  0  0  0  0  0  0  0  0
   -1.4992    0.7530    0.6346 C   0  0  0  0  0  0  0  0  0  0  0  0
   -0.4685   -0.3669    0.6017 C   0  0  0  0  0  0  0  0  0  0  0  0
   -0.2786   -0.9646   -0.7122 O   0  0  0  0  0  0  0  0  0  0  0  0
    0.7352   -0.3689   -0.0473 C   0  0  0  0  0  0  0  0  0  0  0  0
    1.9387   -1.1116    0.4491 C   0  0  0  0  0  0  0  0  0  0  0  0
    2.7351    0.1304    0.1464 C   0  0  0  0  0  0  0  0  0  0  0  0
    3.8550    0.5034    0.3936 O   0  0  0  0  0  0  0  0  0  0  0  0
    1.5682    0.7267   -0.5937 C   0  0  0  0  0  0  0  0  0  0  0  0
   -2.7402   -0.4624   -0.7045 H   0  0  0  0  0  0  0  0  0  0  0  0
   -3.5568    0.9744    0.1280 H   0  0  0  0  0  0  0  0  0  0  0  0
   -3.1540   -0.5036    1.0296 H   0  0  0  0  0  0  0  0  0  0  0  0
   -1.1915    1.6389    0.0924 H   0  0  0  0  0  0  0  0  0  0  0  0
   -1.6133    1.0196    1.7052 H   0  0  0  0  0  0  0  0  0  0  0  0
   -0.7274   -1.1552    1.3682 H   0  0  0  0  0  0  0  0  0  0  0  0
    1.8468   -1.3180    1.5391 H   0  0  0  0  0  0  0  0  0  0  0  0
    2.2671   -1.9796   -0.1334 H   0  0  0  0  0  0  0  0  0  0  0  0
    1.3404    1.7564   -0.3207 H   0  0  0  0  0  0  0  0  0  0  0  0
    1.7621    0.5594   -1.6934 H   0  0  0  0  0  0  0  0  0  0  0  0
  1  2  1  0
  2  3  1  0
  3  4  1  0
  4  5  1  0
  5  6  1  0
  6  7  1  0
  7  8  2  0
  7  9  1  0
  5  3  1  0
  9  5  1  0
  1 10  1  0
  1 11  1  0
  1 12  1  0
  2 13  1  0
  2 14  1  0
  3 15  1  0
  6 16  1  0
  6 17  1  0
  9 18  1  0
  9 19  1  0
M  END
