
     RDKit          3D

 19 20  0  0  0  0  0  0  0  0999 V2000
    2.0807    0.6606    0.0998 C   0  0  0  0  0  0  0  0  0  0  0  0
    1.3409   -0.5245   -0.4466 C   0  0  0  0  0  0  0  0  0  0  0  0
   -0.1294   -0.2446   -0.6441 C   0  0  0  0  0  0  0  0  0  0  0  0
   -1.0247   -1.3096   -1.1808 C   0  0  0  0  0  0  0  0  0  0  0  0
   -2.3209   -0.9048   -0.8191 O   0  0  0  0  0  0  0  0  0  0  0  0
   -2.2669   -0.1764    0.3462 C   0  0  0  0  0  0  0  0  0  0  0  0
   -3.1826   -0.0442    1.1723 O   0  0  0  0  0  0  0  0  0  0  0  0
   -0.9187    0.4167    0.4288 C   0  0  0  0  0  0  0  0  0  0  0  0
   -0.4942    1.1799   -0.7818 C   0  0  0  0  0  0  0  0  0  0  0  0
    1.5765    1.0560    1.0248 H   0  0  0  0  0  0  0  0  0  0  0  0
    3.0741    0.2714    0.4699 H   0  0  0  0  0  0  0  0  0  0  0  0
    2.2204    1.4741   -0.6277 H   0  0  0  0  0  0  0  0  0  0  0  0
    1.7956   -0.7868   -1.4261 H   0  0  0  0  0  0  0  0  0  0  0  0
    1.5240   -1.3816    0.2275 H   0  0  0  0  0  0  0  0  0  0  0  0
   -0.8460   -2.3039   -0.7139 H   0  0  0  0  0  0  0  0  0  0  0  0
   -0.9639   -1.3518   -2.2887 H   0  0  0  0  0  0  0  0  0  0  0  0
   -0.4539    0.5908    1.4066 H   0  0  0  0  0  0  0  0  0  0  0  0
   -1.2528    1.4079   -1.5521 H   0  0  0  0  0  0  0  0  0  0  0  0
    0.2419    1.9709   -0.6359 H   0  0  0  0  0  0  0  0  0  0  0  0
  1  2  1  0
  2  3  1  0
  3  4  1  0
  4  5  1  0
  5  6  1  0
  6  7  2  0
  6  8  1  0
  8  9  1  0
  8  3  1  0
  9  3  1  0
  1 10  1  0
  1 11  1  0
  1 12  1  0
  2 13  1  0
  2 14  1  0
  4 15  1  0
  4 16  1  0
  8 17  1  0
  9 18  1  0
  9 19  1  0
M  END
