
     RDKit          3D

 23 23  0  0  0  0  0  0  0  0999 V2000
    2.9973    0.5746    0.6970 C   0  0  0  0  0  0  0  0  0  0  0  0
    2.4254   -0.3448   -0.3819 C   0  0  0  0  0  0  0  0  0  0  0  0
    0.9194   -0.0415   -0.4261 C   0  0  0  0  0  0  0  0  0  0  0  0
    0.3273   -0.8268   -1.3720 O   0  0  0  0  0  0  0  0  0  0  0  0
   -1.0201   -0.9573   -1.3099 C   0  0  0  0  0  0  0  0  0  0  0  0
   -1.7049   -0.4645   -0.1059 C   0  0  0  0  0  0  0  0  0  0  0  0
   -2.8119    0.5501   -0.4220 C   0  0  0  0  0  0  0  0  0  0  0  0
   -0.8392    0.1458    0.9433 C   0  0  0  0  0  0  0  0  0  0  0  0
    0.4474   -0.3172    0.8469 O   0  0  0  0  0  0  0  0  0  0  0  0
    2.2815    0.5456    1.5458 H   0  0  0  0  0  0  0  0  0  0  0  0
    2.9486    1.6079    0.2580 H   0  0  0  0  0  0  0  0  0  0  0  0
    4.0160    0.2895    0.9732 H   0  0  0  0  0  0  0  0  0  0  0  0
    2.8845   -0.1510   -1.3566 H   0  0  0  0  0  0  0  0  0  0  0  0
    2.6022   -1.4019   -0.1255 H   0  0  0  0  0  0  0  0  0  0  0  0
    0.7612    1.0282   -0.6732 H   0  0  0  0  0  0  0  0  0  0  0  0
   -1.4540   -0.4195   -2.2056 H   0  0  0  0  0  0  0  0  0  0  0  0
   -1.2691   -2.0408   -1.5156 H   0  0  0  0  0  0  0  0  0  0  0  0
   -2.2525   -1.3243    0.3823 H   0  0  0  0  0  0  0  0  0  0  0  0
   -2.3421    1.5363   -0.6534 H   0  0  0  0  0  0  0  0  0  0  0  0
   -3.4066    0.2455   -1.2966 H   0  0  0  0  0  0  0  0  0  0  0  0
   -3.4200    0.6192    0.5072 H   0  0  0  0  0  0  0  0  0  0  0  0
   -0.8974    1.2728    0.9287 H   0  0  0  0  0  0  0  0  0  0  0  0
   -1.1930   -0.1261    1.9796 H   0  0  0  0  0  0  0  0  0  0  0  0
  1  2  1  0
  2  3  1  0
  3  4  1  0
  4  5  1  0
  5  6  1  0
  6  7  1  0
  6  8  1  0
  8  9  1  0
  9  3  1  0
  1 10  1  0
  1 11  1  0
  1 12  1  0
  2 13  1  0
  2 14  1  0
  3 15  1  0
  5 16  1  0
  5 17  1  0
  6 18  1  0
  7 19  1  0
  7 20  1  0
  7 21  1  0
  8 22  1  0
  8 23  1  0
M  END
