
     RDKit          3D

 23 23  0  0  0  0  0  0  0  0999 V2000
   -1.5829    1.8651    0.1175 C   0  0  0  0  0  0  0  0  0  0  0  0
   -1.3706    0.6900   -0.7976 C   0  0  0  0  0  0  0  0  0  0  0  0
   -0.4587   -0.3528   -0.2365 C   0  0  0  0  0  0  0  0  0  0  0  0
    0.9039    0.1884    0.0537 C   0  0  0  0  0  0  0  0  0  0  0  0
    1.7779   -0.7502    0.5756 O   0  0  0  0  0  0  0  0  0  0  0  0
    3.0013   -0.0727    0.7862 C   0  0  0  0  0  0  0  0  0  0  0  0
   -1.0644   -1.2608    0.7815 C   0  0  0  0  0  0  0  0  0  0  0  0
   -0.6833   -2.4006    0.0576 O   0  0  0  0  0  0  0  0  0  0  0  0
   -0.4912   -1.6006   -1.0817 C   0  0  0  0  0  0  0  0  0  0  0  0
   -0.6688    2.4044    0.3802 H   0  0  0  0  0  0  0  0  0  0  0  0
   -2.2641    2.5686   -0.4150 H   0  0  0  0  0  0  0  0  0  0  0  0
   -2.1215    1.4901    1.0227 H   0  0  0  0  0  0  0  0  0  0  0  0
   -0.9456    1.0119   -1.7784 H   0  0  0  0  0  0  0  0  0  0  0  0
   -2.3695    0.2462   -0.9965 H   0  0  0  0  0  0  0  0  0  0  0  0
    0.8180    1.0493    0.7178 H   0  0  0  0  0  0  0  0  0  0  0  0
    1.3479    0.5549   -0.9013 H   0  0  0  0  0  0  0  0  0  0  0  0
    3.3790    0.3298   -0.1778 H   0  0  0  0  0  0  0  0  0  0  0  0
    2.7992    0.7672    1.4774 H   0  0  0  0  0  0  0  0  0  0  0  0
    3.7762   -0.7599    1.1617 H   0  0  0  0  0  0  0  0  0  0  0  0
   -2.1791   -1.1555    0.8612 H   0  0  0  0  0  0  0  0  0  0  0  0
   -0.6223   -1.2821    1.7757 H   0  0  0  0  0  0  0  0  0  0  0  0
   -1.3954   -1.7013   -1.7282 H   0  0  0  0  0  0  0  0  0  0  0  0
    0.4139   -1.8298   -1.6560 H   0  0  0  0  0  0  0  0  0  0  0  0
  1  2  1  0
  2  3  1  0
  3  4  1  0
  4  5  1  0
  5  6  1  0
  3  7  1  0
  7  8  1  0
  8  9  1  0
  9  3  1  0
  1 10  1  0
  1 11  1  0
  1 12  1  0
  2 13  1  0
  2 14  1  0
  4 15  1  0
  4 16  1  0
  6 17  1  0
  6 18  1  0
  6 19  1  0
  7 20  1  0
  7 21  1  0
  9 22  1  0
  9 23  1  0
M  END
