
     RDKit          3D

 23 24  0  0  0  0  0  0  0  0999 V2000
    2.0071    1.0549   -0.5009 C   0  0  0  0  0  0  0  0  0  0  0  0
    1.6555   -0.0187    0.4369 C   0  0  0  0  0  0  0  0  0  0  0  0
    0.3381   -0.5972    0.4571 C   0  0  0  0  0  0  0  0  0  0  0  0
   -0.2335   -1.2767   -0.7517 C   0  0  0  0  0  0  0  0  0  0  0  0
   -1.4706   -1.9033   -0.1426 C   0  0  0  0  0  0  0  0  0  0  0  0
   -1.8911   -0.7903    0.6367 O   0  0  0  0  0  0  0  0  0  0  0  0
   -0.9137    0.2013    0.3729 C   0  0  0  0  0  0  0  0  0  0  0  0
   -1.0806    1.4651    1.0289 C   0  0  0  0  0  0  0  0  0  0  0  0
   -0.8393    0.0843   -1.1209 C   0  0  0  0  0  0  0  0  0  0  0  0
    2.1507    0.7051   -1.5664 H   0  0  0  0  0  0  0  0  0  0  0  0
    1.3939    1.9700   -0.4362 H   0  0  0  0  0  0  0  0  0  0  0  0
    3.0500    1.4081   -0.2238 H   0  0  0  0  0  0  0  0  0  0  0  0
    1.9048    0.3401    1.4795 H   0  0  0  0  0  0  0  0  0  0  0  0
    2.4058   -0.8531    0.2783 H   0  0  0  0  0  0  0  0  0  0  0  0
    0.2424   -1.3116    1.3334 H   0  0  0  0  0  0  0  0  0  0  0  0
    0.3534   -1.7846   -1.4457 H   0  0  0  0  0  0  0  0  0  0  0  0
   -1.2503   -2.7281    0.5434 H   0  0  0  0  0  0  0  0  0  0  0  0
   -2.2249   -2.1919   -0.8750 H   0  0  0  0  0  0  0  0  0  0  0  0
   -0.1600    1.9742    1.4128 H   0  0  0  0  0  0  0  0  0  0  0  0
   -1.7312    1.3545    1.9443 H   0  0  0  0  0  0  0  0  0  0  0  0
   -1.6212    2.2370    0.4080 H   0  0  0  0  0  0  0  0  0  0  0  0
   -0.2379    0.7551   -1.6944 H   0  0  0  0  0  0  0  0  0  0  0  0
   -1.8474   -0.0942   -1.5744 H   0  0  0  0  0  0  0  0  0  0  0  0
  1  2  1  0
  2  3  1  0
  3  4  1  0
  4  5  1  0
  5  6  1  0
  6  7  1  0
  7  8  1  0
  7  9  1  0
  7  3  1  0
  9  4  1  0
  1 10  1  0
  1 11  1  0
  1 12  1  0
  2 13  1  0
  2 14  1  0
  3 15  1  0
  4 16  1  0
  5 17  1  0
  5 18  1  0
  8 19  1  0
  8 20  1  0
  8 21  1  0
  9 22  1  0
  9 23  1  0
M  END
