
     RDKit          3D

 25 25  0  0  0  0  0  0  0  0999 V2000
    3.4346    0.3420   -0.0873 C   0  0  0  0  0  0  0  0  0  0  0  0
    2.1459    0.1450   -0.8517 C   0  0  0  0  0  0  0  0  0  0  0  0
    0.9349    0.3960   -0.0027 C   0  0  0  0  0  0  0  0  0  0  0  0
    0.6776   -0.4035    1.2206 C   0  0  0  0  0  0  0  0  0  0  0  0
   -0.0706   -0.7477   -0.0156 C   0  0  0  0  0  0  0  0  0  0  0  0
   -1.4997   -0.3856   -0.2111 C   0  0  0  0  0  0  0  0  0  0  0  0
   -2.3492   -1.6599   -0.1945 C   0  0  0  0  0  0  0  0  0  0  0  0
   -1.9023    0.4815    0.7941 O   0  0  0  0  0  0  0  0  0  0  0  0
   -2.3629    1.6828    0.2822 C   0  0  0  0  0  0  0  0  0  0  0  0
    3.6026    1.4004    0.1133 H   0  0  0  0  0  0  0  0  0  0  0  0
    4.2530   -0.0150   -0.7598 H   0  0  0  0  0  0  0  0  0  0  0  0
    3.3572   -0.2786    0.8328 H   0  0  0  0  0  0  0  0  0  0  0  0
    2.1246   -0.8663   -1.2856 H   0  0  0  0  0  0  0  0  0  0  0  0
    2.1497    0.8898   -1.6744 H   0  0  0  0  0  0  0  0  0  0  0  0
    0.5867    1.4389   -0.0130 H   0  0  0  0  0  0  0  0  0  0  0  0
    0.0782    0.0970    2.0045 H   0  0  0  0  0  0  0  0  0  0  0  0
    1.4784   -1.0886    1.5773 H   0  0  0  0  0  0  0  0  0  0  0  0
    0.2307   -1.7035   -0.4874 H   0  0  0  0  0  0  0  0  0  0  0  0
   -1.6337    0.1285   -1.1870 H   0  0  0  0  0  0  0  0  0  0  0  0
   -3.1988   -1.4723    0.4862 H   0  0  0  0  0  0  0  0  0  0  0  0
   -1.7470   -2.4729    0.2501 H   0  0  0  0  0  0  0  0  0  0  0  0
   -2.6683   -1.8748   -1.2182 H   0  0  0  0  0  0  0  0  0  0  0  0
   -1.6300    2.2436   -0.3118 H   0  0  0  0  0  0  0  0  0  0  0  0
   -2.7625    2.2879    1.1227 H   0  0  0  0  0  0  0  0  0  0  0  0
   -3.2290    1.4353   -0.3837 H   0  0  0  0  0  0  0  0  0  0  0  0
  1  2  1  0
  2  3  1  0
  3  4  1  0
  4  5  1  0
  5  6  1  0
  6  7  1  0
  6  8  1  0
  8  9  1  0
  5  3  1  0
  1 10  1  0
  1 11  1  0
  1 12  1  0
  2 13  1  0
  2 14  1  0
  3 15  1  0
  4 16  1  0
  4 17  1  0
  5 18  1  0
  6 19  1  0
  7 20  1  0
  7 21  1  0
  7 22  1  0
  9 23  1  0
  9 24  1  0
  9 25  1  0
M  END
