
     RDKit          3D

 21 22  0  0  0  0  0  0  0  0999 V2000
    2.0745    0.8994    0.6304 C   0  0  0  0  0  0  0  0  0  0  0  0
    1.6260   -0.2432   -0.2198 C   0  0  0  0  0  0  0  0  0  0  0  0
    0.2040   -0.6586   -0.0209 C   0  0  0  0  0  0  0  0  0  0  0  0
   -0.3133   -1.8272   -0.8585 C   0  0  0  0  0  0  0  0  0  0  0  0
   -1.6686   -1.8781   -0.5300 O   0  0  0  0  0  0  0  0  0  0  0  0
   -2.0632   -0.5244   -0.5374 C   0  0  0  0  0  0  0  0  0  0  0  0
   -0.9313    0.1470    0.2066 C   0  0  0  0  0  0  0  0  0  0  0  0
   -1.0399    1.5578    0.6355 C   0  0  0  0  0  0  0  0  0  0  0  0
   -0.3341   -0.6854    1.2643 O   0  0  0  0  0  0  0  0  0  0  0  0
    1.3796    1.0387    1.4725 H   0  0  0  0  0  0  0  0  0  0  0  0
    2.0955    1.8200    0.0411 H   0  0  0  0  0  0  0  0  0  0  0  0
    3.1149    0.6965    0.9637 H   0  0  0  0  0  0  0  0  0  0  0  0
    1.8636    0.0066   -1.2717 H   0  0  0  0  0  0  0  0  0  0  0  0
    2.2564   -1.1520    0.0058 H   0  0  0  0  0  0  0  0  0  0  0  0
    0.1951   -2.7259   -0.4798 H   0  0  0  0  0  0  0  0  0  0  0  0
   -0.1655   -1.6497   -1.9426 H   0  0  0  0  0  0  0  0  0  0  0  0
   -2.0003   -0.1952   -1.5940 H   0  0  0  0  0  0  0  0  0  0  0  0
   -3.0421   -0.3793   -0.0749 H   0  0  0  0  0  0  0  0  0  0  0  0
   -0.2595    2.1906    0.1665 H   0  0  0  0  0  0  0  0  0  0  0  0
   -2.0646    1.9337    0.4099 H   0  0  0  0  0  0  0  0  0  0  0  0
   -0.9271    1.6289    1.7333 H   0  0  0  0  0  0  0  0  0  0  0  0
  1  2  1  0
  2  3  1  0
  3  4  1  0
  4  5  1  0
  5  6  1  0
  6  7  1  0
  7  8  1  0
  7  9  1  0
  7  3  1  0
  9  3  1  0
  1 10  1  0
  1 11  1  0
  1 12  1  0
  2 13  1  0
  2 14  1  0
  4 15  1  0
  4 16  1  0
  6 17  1  0
  6 18  1  0
  8 19  1  0
  8 20  1  0
  8 21  1  0
M  END
