
     RDKit          3D

 21 22  0  0  0  0  0  0  0  0999 V2000
    2.9478    0.1960    0.6014 C   0  0  0  0  0  0  0  0  0  0  0  0
    1.8182   -0.7276    0.2505 C   0  0  0  0  0  0  0  0  0  0  0  0
    0.8188   -0.0636   -0.6649 C   0  0  0  0  0  0  0  0  0  0  0  0
   -0.2535   -1.0384   -0.9580 O   0  0  0  0  0  0  0  0  0  0  0  0
   -0.4326    0.2500   -0.2298 C   0  0  0  0  0  0  0  0  0  0  0  0
   -1.1137   -0.0722    1.0689 C   0  0  0  0  0  0  0  0  0  0  0  0
   -2.4852   -0.4557    0.5577 C   0  0  0  0  0  0  0  0  0  0  0  0
   -2.7041    0.1689   -0.5913 C   0  0  0  0  0  0  0  0  0  0  0  0
   -1.5289    1.0073   -0.9468 C   0  0  0  0  0  0  0  0  0  0  0  0
    3.0038    0.2922    1.7131 H   0  0  0  0  0  0  0  0  0  0  0  0
    2.8567    1.1906    0.1165 H   0  0  0  0  0  0  0  0  0  0  0  0
    3.9332   -0.2307    0.2827 H   0  0  0  0  0  0  0  0  0  0  0  0
    1.3345   -1.1540    1.1477 H   0  0  0  0  0  0  0  0  0  0  0  0
    2.2389   -1.5996   -0.3209 H   0  0  0  0  0  0  0  0  0  0  0  0
    1.2396    0.3078   -1.5977 H   0  0  0  0  0  0  0  0  0  0  0  0
   -1.2656    0.8228    1.7032 H   0  0  0  0  0  0  0  0  0  0  0  0
   -0.6475   -0.9128    1.6167 H   0  0  0  0  0  0  0  0  0  0  0  0
   -3.1854   -1.1264    1.0360 H   0  0  0  0  0  0  0  0  0  0  0  0
   -3.6039    0.0755   -1.1728 H   0  0  0  0  0  0  0  0  0  0  0  0
   -1.3613    1.0664   -2.0345 H   0  0  0  0  0  0  0  0  0  0  0  0
   -1.6097    2.0033   -0.4621 H   0  0  0  0  0  0  0  0  0  0  0  0
  1  2  1  0
  2  3  1  0
  3  4  1  0
  4  5  1  0
  5  6  1  0
  6  7  1  0
  7  8  2  0
  8  9  1  0
  5  3  1  0
  9  5  1  0
  1 10  1  0
  1 11  1  0
  1 12  1  0
  2 13  1  0
  2 14  1  0
  3 15  1  0
  6 16  1  0
  6 17  1  0
  7 18  1  0
  8 19  1  0
  9 20  1  0
  9 21  1  0
M  END
