
     RDKit          3D

 20 21  0  0  0  0  0  0  0  0999 V2000
    2.7666    0.0638   -0.3696 C   0  0  0  0  0  0  0  0  0  0  0  0
    1.6167   -0.0878    0.5692 C   0  0  0  0  0  0  0  0  0  0  0  0
    0.3358    0.5509    0.0383 C   0  0  0  0  0  0  0  0  0  0  0  0
   -0.8995    0.5363    0.7550 C   0  0  0  0  0  0  0  0  0  0  0  0
   -2.3064    0.2806    0.2739 C   0  0  0  0  0  0  0  0  0  0  0  0
   -1.7043   -1.1315    0.1075 C   0  0  0  0  0  0  0  0  0  0  0  0
   -0.6141   -0.2892   -0.5705 C   0  0  0  0  0  0  0  0  0  0  0  0
   -1.2042    0.2503   -1.7436 O   0  0  0  0  0  0  0  0  0  0  0  0
    2.7825   -0.7800   -1.1094 H   0  0  0  0  0  0  0  0  0  0  0  0
    3.7046   -0.0849    0.2415 H   0  0  0  0  0  0  0  0  0  0  0  0
    2.8537    1.0374   -0.8526 H   0  0  0  0  0  0  0  0  0  0  0  0
    1.8208    0.3282    1.5768 H   0  0  0  0  0  0  0  0  0  0  0  0
    1.4013   -1.1672    0.6938 H   0  0  0  0  0  0  0  0  0  0  0  0
    0.6071    1.5553   -0.4159 H   0  0  0  0  0  0  0  0  0  0  0  0
   -0.7958   -0.0865    1.7070 H   0  0  0  0  0  0  0  0  0  0  0  0
   -2.6541    0.7595   -0.6232 H   0  0  0  0  0  0  0  0  0  0  0  0
   -3.0577    0.3579    1.0679 H   0  0  0  0  0  0  0  0  0  0  0  0
   -2.2388   -1.7765   -0.5764 H   0  0  0  0  0  0  0  0  0  0  0  0
   -1.3466   -1.5296    1.0518 H   0  0  0  0  0  0  0  0  0  0  0  0
   -1.0675    1.2130   -1.8215 H   0  0  0  0  0  0  0  0  0  0  0  0
  1  2  1  0
  2  3  1  0
  3  4  1  0
  4  5  1  0
  5  6  1  0
  6  7  1  0
  7  8  1  0
  7  3  1  0
  7  4  1  0
  1  9  1  0
  1 10  1  0
  1 11  1  0
  2 12  1  0
  2 13  1  0
  3 14  1  0
  4 15  1  0
  5 16  1  0
  5 17  1  0
  6 18  1  0
  6 19  1  0
  8 20  1  0
M  END
