
     RDKit          3D

 25 25  0  0  0  0  0  0  0  0999 V2000
    3.3433    0.2730   -0.2002 C   0  0  0  0  0  0  0  0  0  0  0  0
    2.3684   -0.4878   -1.0739 C   0  0  0  0  0  0  0  0  0  0  0  0
    1.1773   -0.8498   -0.2489 C   0  0  0  0  0  0  0  0  0  0  0  0
    0.4074    0.2850    0.3538 C   0  0  0  0  0  0  0  0  0  0  0  0
   -0.6708   -0.7658    0.1671 C   0  0  0  0  0  0  0  0  0  0  0  0
   -2.0445   -0.2325    0.0319 C   0  0  0  0  0  0  0  0  0  0  0  0
   -2.2214    0.6913   -1.1415 C   0  0  0  0  0  0  0  0  0  0  0  0
   -2.4294    0.4189    1.3415 C   0  0  0  0  0  0  0  0  0  0  0  0
    0.0029   -1.1229   -0.9918 O   0  0  0  0  0  0  0  0  0  0  0  0
    3.4227    1.3384   -0.5327 H   0  0  0  0  0  0  0  0  0  0  0  0
    3.0020    0.3060    0.8627 H   0  0  0  0  0  0  0  0  0  0  0  0
    4.3515   -0.2144   -0.1753 H   0  0  0  0  0  0  0  0  0  0  0  0
    2.8764   -1.4408   -1.3604 H   0  0  0  0  0  0  0  0  0  0  0  0
    2.0740    0.0761   -1.9755 H   0  0  0  0  0  0  0  0  0  0  0  0
    1.3580   -1.6410    0.5014 H   0  0  0  0  0  0  0  0  0  0  0  0
    0.6201    0.5372    1.3962 H   0  0  0  0  0  0  0  0  0  0  0  0
    0.2018    1.1355   -0.3285 H   0  0  0  0  0  0  0  0  0  0  0  0
   -0.6239   -1.6046    0.8920 H   0  0  0  0  0  0  0  0  0  0  0  0
   -2.7427   -1.0826   -0.1147 H   0  0  0  0  0  0  0  0  0  0  0  0
   -1.7544    1.6774   -1.0005 H   0  0  0  0  0  0  0  0  0  0  0  0
   -1.8325    0.1691   -2.0344 H   0  0  0  0  0  0  0  0  0  0  0  0
   -3.3236    0.8617   -1.2502 H   0  0  0  0  0  0  0  0  0  0  0  0
   -1.7764    0.0268    2.1744 H   0  0  0  0  0  0  0  0  0  0  0  0
   -2.3142    1.5204    1.3251 H   0  0  0  0  0  0  0  0  0  0  0  0
   -3.4720    0.1252    1.6522 H   0  0  0  0  0  0  0  0  0  0  0  0
  1  2  1  0
  2  3  1  0
  3  4  1  0
  4  5  1  0
  5  6  1  0
  6  7  1  0
  6  8  1  0
  5  9  1  0
  9  3  1  0
  1 10  1  0
  1 11  1  0
  1 12  1  0
  2 13  1  0
  2 14  1  0
  3 15  1  0
  4 16  1  0
  4 17  1  0
  5 18  1  0
  6 19  1  0
  7 20  1  0
  7 21  1  0
  7 22  1  0
  8 23  1  0
  8 24  1  0
  8 25  1  0
M  END
