
     RDKit          3D

 21 23  0  0  0  0  0  0  0  0999 V2000
   -2.7021    0.5474    0.0203 C   0  0  0  0  0  0  0  0  0  0  0  0
   -1.5231    0.3352   -0.9140 C   0  0  0  0  0  0  0  0  0  0  0  0
   -0.2767    0.3850   -0.0730 C   0  0  0  0  0  0  0  0  0  0  0  0
    1.0181    0.1910   -0.8389 C   0  0  0  0  0  0  0  0  0  0  0  0
    2.1089    0.8608   -0.0753 C   0  0  0  0  0  0  0  0  0  0  0  0
    2.3464    0.1477    1.0124 C   0  0  0  0  0  0  0  0  0  0  0  0
    1.4586   -1.0411    1.0747 C   0  0  0  0  0  0  0  0  0  0  0  0
    1.0633   -1.1959   -0.3325 C   0  0  0  0  0  0  0  0  0  0  0  0
    0.0582   -0.8559    0.6914 C   0  0  0  0  0  0  0  0  0  0  0  0
   -2.3664    1.0857    0.9438 H   0  0  0  0  0  0  0  0  0  0  0  0
   -3.1180   -0.4267    0.3722 H   0  0  0  0  0  0  0  0  0  0  0  0
   -3.5149    1.1292   -0.4468 H   0  0  0  0  0  0  0  0  0  0  0  0
   -1.5034    1.2136   -1.5904 H   0  0  0  0  0  0  0  0  0  0  0  0
   -1.6476   -0.6020   -1.4589 H   0  0  0  0  0  0  0  0  0  0  0  0
   -0.2951    1.2725    0.5932 H   0  0  0  0  0  0  0  0  0  0  0  0
    0.9863    0.3719   -1.9051 H   0  0  0  0  0  0  0  0  0  0  0  0
    2.6034    1.7819   -0.3916 H   0  0  0  0  0  0  0  0  0  0  0  0
    3.1155    0.4499    1.7379 H   0  0  0  0  0  0  0  0  0  0  0  0
    1.8189   -1.9433    1.6178 H   0  0  0  0  0  0  0  0  0  0  0  0
    1.0946   -2.0883   -0.9189 H   0  0  0  0  0  0  0  0  0  0  0  0
   -0.7248   -1.6187    0.8818 H   0  0  0  0  0  0  0  0  0  0  0  0
  1  2  1  0
  2  3  1  0
  3  4  1  0
  4  5  1  0
  5  6  2  0
  6  7  1  0
  7  8  1  0
  8  9  1  0
  9  3  1  0
  8  4  1  0
  9  7  1  0
  1 10  1  0
  1 11  1  0
  1 12  1  0
  2 13  1  0
  2 14  1  0
  3 15  1  0
  4 16  1  0
  5 17  1  0
  6 18  1  0
  7 19  1  0
  8 20  1  0
  9 21  1  0
M  END
