
     RDKit          3D

 21 22  0  0  0  0  0  0  0  0999 V2000
    2.4412    0.1314   -0.9117 C   0  0  0  0  0  0  0  0  0  0  0  0
    1.1896    0.3782   -0.0722 C   0  0  0  0  0  0  0  0  0  0  0  0
    0.2875   -0.7939   -0.0073 C   0  0  0  0  0  0  0  0  0  0  0  0
    0.9675   -1.8196    0.5346 O   0  0  0  0  0  0  0  0  0  0  0  0
   -0.0358   -1.5410    1.3138 C   0  0  0  0  0  0  0  0  0  0  0  0
   -0.7383   -0.2753    1.6489 C   0  0  0  0  0  0  0  0  0  0  0  0
   -1.1315   -0.4076    0.1647 C   0  0  0  0  0  0  0  0  0  0  0  0
   -1.5745    0.8489   -0.4700 C   0  0  0  0  0  0  0  0  0  0  0  0
   -1.3644    0.7507   -1.8493 O   0  0  0  0  0  0  0  0  0  0  0  0
    2.7920    1.0703   -1.3402 H   0  0  0  0  0  0  0  0  0  0  0  0
    2.1611   -0.6416   -1.6588 H   0  0  0  0  0  0  0  0  0  0  0  0
    3.1842   -0.3171   -0.1916 H   0  0  0  0  0  0  0  0  0  0  0  0
    0.6501    1.1637   -0.6438 H   0  0  0  0  0  0  0  0  0  0  0  0
    1.5219    0.8274    0.8511 H   0  0  0  0  0  0  0  0  0  0  0  0
   -0.8414   -2.3392    1.1365 H   0  0  0  0  0  0  0  0  0  0  0  0
   -1.5846   -0.4190    2.3484 H   0  0  0  0  0  0  0  0  0  0  0  0
   -0.1893    0.6051    1.9137 H   0  0  0  0  0  0  0  0  0  0  0  0
   -1.8282   -1.2363    0.0134 H   0  0  0  0  0  0  0  0  0  0  0  0
   -1.1775    1.7814   -0.0761 H   0  0  0  0  0  0  0  0  0  0  0  0
   -2.7013    0.9377   -0.3667 H   0  0  0  0  0  0  0  0  0  0  0  0
   -2.0282    1.2956   -2.3374 H   0  0  0  0  0  0  0  0  0  0  0  0
  1  2  1  0
  2  3  1  0
  3  4  1  0
  4  5  1  0
  5  6  1  0
  6  7  1  0
  7  8  1  0
  8  9  1  0
  5  3  1  0
  7  3  1  0
  1 10  1  0
  1 11  1  0
  1 12  1  0
  2 13  1  0
  2 14  1  0
  5 15  1  0
  6 16  1  0
  6 17  1  0
  7 18  1  0
  8 19  1  0
  8 20  1  0
  9 21  1  0
M  END
