
     RDKit          3D

 19 19  0  0  0  0  0  0  0  0999 V2000
   -2.6094   -0.0654    0.2846 C   0  0  0  0  0  0  0  0  0  0  0  0
   -1.6054    0.8662   -0.3688 C   0  0  0  0  0  0  0  0  0  0  0  0
   -0.2543    0.2496   -0.1156 C   0  0  0  0  0  0  0  0  0  0  0  0
    0.7508    0.8035    0.5384 C   0  0  0  0  0  0  0  0  0  0  0  0
    1.8756   -0.1494    0.5498 C   0  0  0  0  0  0  0  0  0  0  0  0
    3.1115    0.4841    0.4713 O   0  0  0  0  0  0  0  0  0  0  0  0
    1.5998   -1.0255   -0.6436 C   0  0  0  0  0  0  0  0  0  0  0  0
    0.1198   -1.0703   -0.5928 C   0  0  0  0  0  0  0  0  0  0  0  0
   -0.6144   -2.0182   -0.8906 O   0  0  0  0  0  0  0  0  0  0  0  0
   -2.1406   -0.4021    1.2435 H   0  0  0  0  0  0  0  0  0  0  0  0
   -2.8330   -0.9429   -0.3579 H   0  0  0  0  0  0  0  0  0  0  0  0
   -3.4927    0.5279    0.5301 H   0  0  0  0  0  0  0  0  0  0  0  0
   -1.6733    1.8409    0.1792 H   0  0  0  0  0  0  0  0  0  0  0  0
   -1.8012    1.0377   -1.4296 H   0  0  0  0  0  0  0  0  0  0  0  0
    0.6853    1.8008    0.9692 H   0  0  0  0  0  0  0  0  0  0  0  0
    1.8109   -0.7918    1.4707 H   0  0  0  0  0  0  0  0  0  0  0  0
    3.0766    1.3560    0.9137 H   0  0  0  0  0  0  0  0  0  0  0  0
    1.9347   -0.4734   -1.5402 H   0  0  0  0  0  0  0  0  0  0  0  0
    2.0592   -2.0276   -0.5560 H   0  0  0  0  0  0  0  0  0  0  0  0
  1  2  1  0
  2  3  1  0
  3  4  2  0
  4  5  1  0
  5  6  1  0
  5  7  1  0
  7  8  1  0
  8  9  2  0
  8  3  1  0
  1 10  1  0
  1 11  1  0
  1 12  1  0
  2 13  1  0
  2 14  1  0
  4 15  1  0
  5 16  1  0
  6 17  1  0
  7 18  1  0
  7 19  1  0
M  END
