
     RDKit          3D

 21 23  0  0  0  0  0  0  0  0999 V2000
   -2.4800   -0.3952    0.0387 C   0  0  0  0  0  0  0  0  0  0  0  0
   -1.5583    0.7751    0.0491 C   0  0  0  0  0  0  0  0  0  0  0  0
   -0.1412    0.3054   -0.0509 C   0  0  0  0  0  0  0  0  0  0  0  0
    0.9678    1.3609   -0.0565 C   0  0  0  0  0  0  0  0  0  0  0  0
    2.2082    0.5021   -0.1723 C   0  0  0  0  0  0  0  0  0  0  0  0
    1.8340   -0.8899    0.2736 C   0  0  0  0  0  0  0  0  0  0  0  0
    1.3137   -1.5838   -0.8360 O   0  0  0  0  0  0  0  0  0  0  0  0
    0.0982   -0.9742   -0.7283 C   0  0  0  0  0  0  0  0  0  0  0  0
    0.4333   -0.7472    0.7708 C   0  0  0  0  0  0  0  0  0  0  0  0
   -2.0951   -1.2776    0.5860 H   0  0  0  0  0  0  0  0  0  0  0  0
   -3.4297   -0.0929    0.5625 H   0  0  0  0  0  0  0  0  0  0  0  0
   -2.7763   -0.7177   -0.9766 H   0  0  0  0  0  0  0  0  0  0  0  0
   -1.7142    1.4527    0.9138 H   0  0  0  0  0  0  0  0  0  0  0  0
   -1.7694    1.3745   -0.8815 H   0  0  0  0  0  0  0  0  0  0  0  0
    0.8537    2.0838   -0.8635 H   0  0  0  0  0  0  0  0  0  0  0  0
    0.9854    1.8625    0.9552 H   0  0  0  0  0  0  0  0  0  0  0  0
    2.4823    0.5101   -1.2679 H   0  0  0  0  0  0  0  0  0  0  0  0
    3.0727    0.9116    0.3634 H   0  0  0  0  0  0  0  0  0  0  0  0
    2.5492   -1.4294    0.8808 H   0  0  0  0  0  0  0  0  0  0  0  0
   -0.7700   -1.5861   -0.9699 H   0  0  0  0  0  0  0  0  0  0  0  0
   -0.0643   -1.4444    1.4095 H   0  0  0  0  0  0  0  0  0  0  0  0
  1  2  1  0
  2  3  1  0
  3  4  1  0
  4  5  1  0
  5  6  1  0
  6  7  1  0
  7  8  1  0
  8  9  1  0
  8  3  1  0
  9  3  1  0
  9  6  1  0
  1 10  1  0
  1 11  1  0
  1 12  1  0
  2 13  1  0
  2 14  1  0
  4 15  1  0
  4 16  1  0
  5 17  1  0
  5 18  1  0
  6 19  1  0
  8 20  1  0
  9 21  1  0
M  END
