
     RDKit          3D

 25 26  0  0  0  0  0  0  0  0999 V2000
    2.3438    1.0126   -0.0212 C   0  0  0  0  0  0  0  0  0  0  0  0
    1.7081   -0.2952   -0.4331 C   0  0  0  0  0  0  0  0  0  0  0  0
    0.4568   -0.5601    0.3492 C   0  0  0  0  0  0  0  0  0  0  0  0
   -0.1462   -1.8845   -0.0967 C   0  0  0  0  0  0  0  0  0  0  0  0
   -1.3430   -1.5453   -0.9436 C   0  0  0  0  0  0  0  0  0  0  0  0
   -1.5459   -0.0473   -0.8870 C   0  0  0  0  0  0  0  0  0  0  0  0
   -0.6141    0.4503    0.1904 C   0  0  0  0  0  0  0  0  0  0  0  0
   -0.5810    1.8501    0.5490 C   0  0  0  0  0  0  0  0  0  0  0  0
   -1.3093    0.8872    1.4906 C   0  0  0  0  0  0  0  0  0  0  0  0
    2.2529    1.1278    1.0581 H   0  0  0  0  0  0  0  0  0  0  0  0
    1.9048    1.8044   -0.6380 H   0  0  0  0  0  0  0  0  0  0  0  0
    3.4460    0.9801   -0.2342 H   0  0  0  0  0  0  0  0  0  0  0  0
    1.5442   -0.2689   -1.5253 H   0  0  0  0  0  0  0  0  0  0  0  0
    2.4589   -1.0861   -0.2481 H   0  0  0  0  0  0  0  0  0  0  0  0
    0.7239   -0.6748    1.4172 H   0  0  0  0  0  0  0  0  0  0  0  0
    0.6041   -2.4423   -0.7190 H   0  0  0  0  0  0  0  0  0  0  0  0
   -0.4124   -2.5326    0.7648 H   0  0  0  0  0  0  0  0  0  0  0  0
   -2.2328   -2.0869   -0.5060 H   0  0  0  0  0  0  0  0  0  0  0  0
   -1.1702   -1.8199   -1.9889 H   0  0  0  0  0  0  0  0  0  0  0  0
   -2.5902    0.1934   -0.6233 H   0  0  0  0  0  0  0  0  0  0  0  0
   -1.2418    0.4427   -1.8326 H   0  0  0  0  0  0  0  0  0  0  0  0
   -1.3050    2.5165   -0.0088 H   0  0  0  0  0  0  0  0  0  0  0  0
    0.2409    2.4203    0.9679 H   0  0  0  0  0  0  0  0  0  0  0  0
   -2.4081    0.8618    1.4812 H   0  0  0  0  0  0  0  0  0  0  0  0
   -0.7846    0.6968    2.4375 H   0  0  0  0  0  0  0  0  0  0  0  0
  1  2  1  0
  2  3  1  0
  3  4  1  0
  4  5  1  0
  5  6  1  0
  6  7  1  0
  7  8  1  0
  8  9  1  0
  7  3  1  0
  9  7  1  0
  1 10  1  0
  1 11  1  0
  1 12  1  0
  2 13  1  0
  2 14  1  0
  3 15  1  0
  4 16  1  0
  4 17  1  0
  5 18  1  0
  5 19  1  0
  6 20  1  0
  6 21  1  0
  8 22  1  0
  8 23  1  0
  9 24  1  0
  9 25  1  0
M  END
