
     RDKit          3D

 23 23  0  0  0  0  0  0  0  0999 V2000
    2.7929    0.7871    0.6444 C   0  0  0  0  0  0  0  0  0  0  0  0
    2.0880   -0.3992    0.0859 C   0  0  0  0  0  0  0  0  0  0  0  0
    0.6823   -0.0937   -0.3978 C   0  0  0  0  0  0  0  0  0  0  0  0
    0.1242   -1.3984   -0.9264 C   0  0  0  0  0  0  0  0  0  0  0  0
   -1.2711   -1.1629   -1.3683 C   0  0  0  0  0  0  0  0  0  0  0  0
   -1.9400   -0.1644   -0.8273 C   0  0  0  0  0  0  0  0  0  0  0  0
   -1.3365    0.7167    0.1992 C   0  0  0  0  0  0  0  0  0  0  0  0
   -2.3602    0.8638    1.3062 C   0  0  0  0  0  0  0  0  0  0  0  0
   -0.1157    0.3095    0.6678 O   0  0  0  0  0  0  0  0  0  0  0  0
    3.5955    0.4288    1.3301 H   0  0  0  0  0  0  0  0  0  0  0  0
    3.2849    1.3455   -0.1867 H   0  0  0  0  0  0  0  0  0  0  0  0
    2.1232    1.4606    1.1915 H   0  0  0  0  0  0  0  0  0  0  0  0
    1.9839   -1.1713    0.8869 H   0  0  0  0  0  0  0  0  0  0  0  0
    2.6972   -0.8441   -0.7249 H   0  0  0  0  0  0  0  0  0  0  0  0
    0.6983    0.6229   -1.2321 H   0  0  0  0  0  0  0  0  0  0  0  0
    0.1265   -2.1066   -0.0496 H   0  0  0  0  0  0  0  0  0  0  0  0
    0.7562   -1.8354   -1.7190 H   0  0  0  0  0  0  0  0  0  0  0  0
   -1.7260   -1.8154   -2.1323 H   0  0  0  0  0  0  0  0  0  0  0  0
   -2.9612    0.0154   -1.1440 H   0  0  0  0  0  0  0  0  0  0  0  0
   -1.2718    1.7435   -0.2704 H   0  0  0  0  0  0  0  0  0  0  0  0
   -2.0453    1.5232    2.1112 H   0  0  0  0  0  0  0  0  0  0  0  0
   -2.6565   -0.1199    1.7178 H   0  0  0  0  0  0  0  0  0  0  0  0
   -3.2688    1.2943    0.8379 H   0  0  0  0  0  0  0  0  0  0  0  0
  1  2  1  0
  2  3  1  0
  3  4  1  0
  4  5  1  0
  5  6  2  0
  6  7  1  0
  7  8  1  0
  7  9  1  0
  9  3  1  0
  1 10  1  0
  1 11  1  0
  1 12  1  0
  2 13  1  0
  2 14  1  0
  3 15  1  0
  4 16  1  0
  4 17  1  0
  5 18  1  0
  6 19  1  0
  7 20  1  0
  8 21  1  0
  8 22  1  0
  8 23  1  0
M  END
