
     RDKit          3D

 25 25  0  0  0  0  0  0  0  0999 V2000
    2.4375   -0.3515    0.4321 C   0  0  0  0  0  0  0  0  0  0  0  0
    2.0841    0.8122   -0.4038 C   0  0  0  0  0  0  0  0  0  0  0  0
    0.5836    0.9418   -0.6777 C   0  0  0  0  0  0  0  0  0  0  0  0
    0.0062   -0.2067   -1.3743 C   0  0  0  0  0  0  0  0  0  0  0  0
   -0.6557   -1.2674   -0.5799 C   0  0  0  0  0  0  0  0  0  0  0  0
   -2.0692   -0.9162   -0.1581 C   0  0  0  0  0  0  0  0  0  0  0  0
   -2.1547    0.5084    0.3421 C   0  0  0  0  0  0  0  0  0  0  0  0
   -0.8684    0.7334    1.1461 C   0  0  0  0  0  0  0  0  0  0  0  0
   -0.0105    1.4484    0.4098 O   0  0  0  0  0  0  0  0  0  0  0  0
    2.5311   -1.3062   -0.1594 H   0  0  0  0  0  0  0  0  0  0  0  0
    3.4890   -0.1762    0.8115 H   0  0  0  0  0  0  0  0  0  0  0  0
    1.8353   -0.5261    1.3203 H   0  0  0  0  0  0  0  0  0  0  0  0
    2.3655    1.7463    0.1566 H   0  0  0  0  0  0  0  0  0  0  0  0
    2.6689    0.8025   -1.3252 H   0  0  0  0  0  0  0  0  0  0  0  0
    0.5744    1.7915   -1.4389 H   0  0  0  0  0  0  0  0  0  0  0  0
    0.8289   -0.7067   -1.9698 H   0  0  0  0  0  0  0  0  0  0  0  0
   -0.7289    0.1081   -2.1739 H   0  0  0  0  0  0  0  0  0  0  0  0
   -0.0477   -1.6800    0.2421 H   0  0  0  0  0  0  0  0  0  0  0  0
   -0.7964   -2.1418   -1.2878 H   0  0  0  0  0  0  0  0  0  0  0  0
   -2.3207   -1.5749    0.6997 H   0  0  0  0  0  0  0  0  0  0  0  0
   -2.8108   -1.0752   -0.9468 H   0  0  0  0  0  0  0  0  0  0  0  0
   -2.2140    1.2222   -0.5019 H   0  0  0  0  0  0  0  0  0  0  0  0
   -3.0300    0.6613    0.9759 H   0  0  0  0  0  0  0  0  0  0  0  0
   -0.5266   -0.2141    1.5747 H   0  0  0  0  0  0  0  0  0  0  0  0
   -1.1709    1.3669    2.0340 H   0  0  0  0  0  0  0  0  0  0  0  0
  1  2  1  0
  2  3  1  0
  3  4  1  0
  4  5  1  0
  5  6  1  0
  6  7  1  0
  7  8  1  0
  8  9  1  0
  9  3  1  0
  1 10  1  0
  1 11  1  0
  1 12  1  0
  2 13  1  0
  2 14  1  0
  3 15  1  0
  4 16  1  0
  4 17  1  0
  5 18  1  0
  5 19  1  0
  6 20  1  0
  6 21  1  0
  7 22  1  0
  7 23  1  0
  8 24  1  0
  8 25  1  0
M  END
