
     RDKit          3D

 18 18  0  0  0  0  0  0  0  0999 V2000
    2.1195   -0.1502    0.2250 C   0  0  0  0  0  0  0  0  0  0  0  0
    1.0050    0.0680   -0.7829 C   0  0  0  0  0  0  0  0  0  0  0  0
   -0.3045    0.0025   -0.0565 C   0  0  0  0  0  0  0  0  0  0  0  0
   -0.5021   -1.3305    0.6117 C   0  0  0  0  0  0  0  0  0  0  0  0
   -0.4534    1.1080    0.7711 O   0  0  0  0  0  0  0  0  0  0  0  0
   -1.6886    1.4403    0.2140 C   0  0  0  0  0  0  0  0  0  0  0  0
   -1.4982    0.4070   -0.8355 C   0  0  0  0  0  0  0  0  0  0  0  0
   -2.1271    0.1334   -1.8355 O   0  0  0  0  0  0  0  0  0  0  0  0
    1.8133    0.1877    1.2543 H   0  0  0  0  0  0  0  0  0  0  0  0
    3.0312    0.4213   -0.0613 H   0  0  0  0  0  0  0  0  0  0  0  0
    2.3444   -1.2387    0.3178 H   0  0  0  0  0  0  0  0  0  0  0  0
    1.1501    0.9964   -1.3514 H   0  0  0  0  0  0  0  0  0  0  0  0
    1.1094   -0.7706   -1.5289 H   0  0  0  0  0  0  0  0  0  0  0  0
   -0.9009   -1.1244    1.6310 H   0  0  0  0  0  0  0  0  0  0  0  0
    0.4405   -1.8990    0.6404 H   0  0  0  0  0  0  0  0  0  0  0  0
   -1.2737   -1.8899    0.0331 H   0  0  0  0  0  0  0  0  0  0  0  0
   -2.4966    1.1838    0.9597 H   0  0  0  0  0  0  0  0  0  0  0  0
   -1.7685    2.4548   -0.2061 H   0  0  0  0  0  0  0  0  0  0  0  0
  1  2  1  0
  2  3  1  0
  3  4  1  0
  3  5  1  0
  5  6  1  0
  6  7  1  0
  7  8  2  0
  7  3  1  0
  1  9  1  0
  1 10  1  0
  1 11  1  0
  2 12  1  0
  2 13  1  0
  4 14  1  0
  4 15  1  0
  4 16  1  0
  6 17  1  0
  6 18  1  0
M  END
