
     RDKit          3D

 25 25  0  0  0  0  0  0  0  0999 V2000
    3.2354    0.9872    0.2279 C   0  0  0  0  0  0  0  0  0  0  0  0
    2.1990   -0.0527    0.5877 C   0  0  0  0  0  0  0  0  0  0  0  0
    1.5101   -0.6186   -0.6339 C   0  0  0  0  0  0  0  0  0  0  0  0
    0.7513    0.2824   -1.5443 C   0  0  0  0  0  0  0  0  0  0  0  0
    0.0489   -0.7842   -0.6745 C   0  0  0  0  0  0  0  0  0  0  0  0
   -0.8436   -0.2583    0.4151 C   0  0  0  0  0  0  0  0  0  0  0  0
   -2.2919   -0.5832    0.0892 C   0  0  0  0  0  0  0  0  0  0  0  0
   -3.2363   -0.0880    1.1333 C   0  0  0  0  0  0  0  0  0  0  0  0
   -2.6724   -0.0745   -1.1490 O   0  0  0  0  0  0  0  0  0  0  0  0
    3.7787    1.2275    1.1748 H   0  0  0  0  0  0  0  0  0  0  0  0
    3.9932    0.5754   -0.4713 H   0  0  0  0  0  0  0  0  0  0  0  0
    2.7927    1.9358   -0.1252 H   0  0  0  0  0  0  0  0  0  0  0  0
    1.4900    0.3973    1.3058 H   0  0  0  0  0  0  0  0  0  0  0  0
    2.7314   -0.8668    1.1204 H   0  0  0  0  0  0  0  0  0  0  0  0
    2.1009   -1.4088   -1.1514 H   0  0  0  0  0  0  0  0  0  0  0  0
    0.7476    0.1209   -2.6415 H   0  0  0  0  0  0  0  0  0  0  0  0
    0.5989    1.3423   -1.2659 H   0  0  0  0  0  0  0  0  0  0  0  0
   -0.3949   -1.6111   -1.2703 H   0  0  0  0  0  0  0  0  0  0  0  0
   -0.6281   -0.6648    1.4099 H   0  0  0  0  0  0  0  0  0  0  0  0
   -0.7825    0.8577    0.4646 H   0  0  0  0  0  0  0  0  0  0  0  0
   -2.3893   -1.6831    0.0277 H   0  0  0  0  0  0  0  0  0  0  0  0
   -3.7377   -0.9248    1.6947 H   0  0  0  0  0  0  0  0  0  0  0  0
   -4.0643    0.5248    0.7182 H   0  0  0  0  0  0  0  0  0  0  0  0
   -2.7151    0.5823    1.8758 H   0  0  0  0  0  0  0  0  0  0  0  0
   -2.2219    0.7853   -1.3178 H   0  0  0  0  0  0  0  0  0  0  0  0
  1  2  1  0
  2  3  1  0
  3  4  1  0
  4  5  1  0
  5  6  1  0
  6  7  1  0
  7  8  1  0
  7  9  1  0
  5  3  1  0
  1 10  1  0
  1 11  1  0
  1 12  1  0
  2 13  1  0
  2 14  1  0
  3 15  1  0
  4 16  1  0
  4 17  1  0
  5 18  1  0
  6 19  1  0
  6 20  1  0
  7 21  1  0
  8 22  1  0
  8 23  1  0
  8 24  1  0
  9 25  1  0
M  END
