
     RDKit          3D

 21 22  0  0  0  0  0  0  0  0999 V2000
    2.5436   -0.6281    0.3185 C   0  0  0  0  0  0  0  0  0  0  0  0
    1.2145   -0.6875   -0.3828 C   0  0  0  0  0  0  0  0  0  0  0  0
    0.1196    0.0122    0.3845 C   0  0  0  0  0  0  0  0  0  0  0  0
    0.2491    1.4683    0.6910 C   0  0  0  0  0  0  0  0  0  0  0  0
   -1.0912    2.0199    0.3261 C   0  0  0  0  0  0  0  0  0  0  0  0
   -1.9032    1.0661   -0.0565 C   0  0  0  0  0  0  0  0  0  0  0  0
   -1.2351   -0.2432   -0.0042 C   0  0  0  0  0  0  0  0  0  0  0  0
   -1.7143   -1.3696   -0.8586 C   0  0  0  0  0  0  0  0  0  0  0  0
   -0.7041   -0.6853    1.2310 O   0  0  0  0  0  0  0  0  0  0  0  0
    2.7541   -1.5737    0.8775 H   0  0  0  0  0  0  0  0  0  0  0  0
    3.3341   -0.5505   -0.4586 H   0  0  0  0  0  0  0  0  0  0  0  0
    2.5872    0.2630    0.9647 H   0  0  0  0  0  0  0  0  0  0  0  0
    1.3024   -0.1781   -1.3690 H   0  0  0  0  0  0  0  0  0  0  0  0
    0.9473   -1.7353   -0.5864 H   0  0  0  0  0  0  0  0  0  0  0  0
    1.0772    1.9721    0.1924 H   0  0  0  0  0  0  0  0  0  0  0  0
    0.3423    1.5625    1.8078 H   0  0  0  0  0  0  0  0  0  0  0  0
   -1.3140    3.0777    0.3866 H   0  0  0  0  0  0  0  0  0  0  0  0
   -2.9283    1.2164   -0.3696 H   0  0  0  0  0  0  0  0  0  0  0  0
   -1.8299   -1.1025   -1.9289 H   0  0  0  0  0  0  0  0  0  0  0  0
   -2.7244   -1.6761   -0.4540 H   0  0  0  0  0  0  0  0  0  0  0  0
   -1.0271   -2.2282   -0.7117 H   0  0  0  0  0  0  0  0  0  0  0  0
  1  2  1  0
  2  3  1  0
  3  4  1  0
  4  5  1  0
  5  6  2  0
  6  7  1  0
  7  8  1  0
  7  9  1  0
  7  3  1  0
  9  3  1  0
  1 10  1  0
  1 11  1  0
  1 12  1  0
  2 13  1  0
  2 14  1  0
  4 15  1  0
  4 16  1  0
  5 17  1  0
  6 18  1  0
  8 19  1  0
  8 20  1  0
  8 21  1  0
M  END
