
     RDKit          3D

 21 21  0  0  0  0  0  0  0  0999 V2000
    2.4180   -0.2758    0.0811 C   0  0  0  0  0  0  0  0  0  0  0  0
    1.3680    0.7716   -0.0478 C   0  0  0  0  0  0  0  0  0  0  0  0
   -0.0165    0.2151    0.0722 C   0  0  0  0  0  0  0  0  0  0  0  0
   -1.0898    1.2745   -0.0603 C   0  0  0  0  0  0  0  0  0  0  0  0
   -2.4596    0.7935    0.0466 C   0  0  0  0  0  0  0  0  0  0  0  0
   -2.9797    0.6554    1.1333 O   0  0  0  0  0  0  0  0  0  0  0  0
   -0.3382   -0.8569    1.0744 C   0  0  0  0  0  0  0  0  0  0  0  0
   -0.2386   -1.1645   -0.3705 C   0  0  0  0  0  0  0  0  0  0  0  0
   -1.3838   -1.4980   -1.0914 O   0  0  0  0  0  0  0  0  0  0  0  0
    3.4334    0.1965    0.0859 H   0  0  0  0  0  0  0  0  0  0  0  0
    2.2234   -0.8868    0.9553 H   0  0  0  0  0  0  0  0  0  0  0  0
    2.4225   -0.8774   -0.8736 H   0  0  0  0  0  0  0  0  0  0  0  0
    1.5408    1.6548    0.6097 H   0  0  0  0  0  0  0  0  0  0  0  0
    1.4478    1.1827   -1.0946 H   0  0  0  0  0  0  0  0  0  0  0  0
   -0.8895    2.0375    0.7506 H   0  0  0  0  0  0  0  0  0  0  0  0
   -0.9886    1.8251   -1.0407 H   0  0  0  0  0  0  0  0  0  0  0  0
   -3.0283    0.5548   -0.8386 H   0  0  0  0  0  0  0  0  0  0  0  0
    0.4232   -1.1876    1.8098 H   0  0  0  0  0  0  0  0  0  0  0  0
   -1.3598   -0.9598    1.4901 H   0  0  0  0  0  0  0  0  0  0  0  0
    0.6300   -1.7938   -0.6508 H   0  0  0  0  0  0  0  0  0  0  0  0
   -1.1349   -1.6609   -2.0405 H   0  0  0  0  0  0  0  0  0  0  0  0
  1  2  1  0
  2  3  1  0
  3  4  1  0
  4  5  1  0
  5  6  2  0
  3  7  1  0
  7  8  1  0
  8  9  1  0
  8  3  1  0
  1 10  1  0
  1 11  1  0
  1 12  1  0
  2 13  1  0
  2 14  1  0
  4 15  1  0
  4 16  1  0
  5 17  1  0
  7 18  1  0
  7 19  1  0
  8 20  1  0
  9 21  1  0
M  END
