
     RDKit          3D

 22 22  0  0  0  0  0  0  0  0999 V2000
   -0.8492    2.0669    0.7035 C   0  0  0  0  0  0  0  0  0  0  0  0
   -0.5156    1.3136   -0.5853 C   0  0  0  0  0  0  0  0  0  0  0  0
    0.2112    0.0243   -0.2370 C   0  0  0  0  0  0  0  0  0  0  0  0
   -0.6115   -0.8883    0.6367 C   0  0  0  0  0  0  0  0  0  0  0  0
   -1.9093   -1.2954   -0.0269 C   0  0  0  0  0  0  0  0  0  0  0  0
    0.7704   -0.5843   -1.4067 O   0  0  0  0  0  0  0  0  0  0  0  0
    1.6242   -0.0004   -0.3410 C   0  0  0  0  0  0  0  0  0  0  0  0
    2.5386   -1.0526    0.1870 C   0  0  0  0  0  0  0  0  0  0  0  0
    0.0679    2.0562    1.3128 H   0  0  0  0  0  0  0  0  0  0  0  0
   -1.0875    3.1108    0.3750 H   0  0  0  0  0  0  0  0  0  0  0  0
   -1.7207    1.5953    1.2023 H   0  0  0  0  0  0  0  0  0  0  0  0
   -1.4792    1.1020   -1.0741 H   0  0  0  0  0  0  0  0  0  0  0  0
    0.0828    1.9568   -1.2553 H   0  0  0  0  0  0  0  0  0  0  0  0
   -0.0224   -1.7842    0.9619 H   0  0  0  0  0  0  0  0  0  0  0  0
   -0.8748   -0.2949    1.5470 H   0  0  0  0  0  0  0  0  0  0  0  0
   -2.7944   -0.9340    0.5507 H   0  0  0  0  0  0  0  0  0  0  0  0
   -2.0025   -2.4115   -0.0395 H   0  0  0  0  0  0  0  0  0  0  0  0
   -2.0075   -0.8696   -1.0468 H   0  0  0  0  0  0  0  0  0  0  0  0
    2.1558    0.9220   -0.6883 H   0  0  0  0  0  0  0  0  0  0  0  0
    2.0620   -2.0529    0.2161 H   0  0  0  0  0  0  0  0  0  0  0  0
    3.4131   -1.1206   -0.5251 H   0  0  0  0  0  0  0  0  0  0  0  0
    2.9485   -0.8592    1.1801 H   0  0  0  0  0  0  0  0  0  0  0  0
  1  2  1  0
  2  3  1  0
  3  4  1  0
  4  5  1  0
  3  6  1  0
  6  7  1  0
  7  8  1  0
  7  3  1  0
  1  9  1  0
  1 10  1  0
  1 11  1  0
  2 12  1  0
  2 13  1  0
  4 14  1  0
  4 15  1  0
  5 16  1  0
  5 17  1  0
  5 18  1  0
  7 19  1  0
  8 20  1  0
  8 21  1  0
  8 22  1  0
M  END
