
     RDKit          3D

 25 26  0  0  0  0  0  0  0  0999 V2000
   -3.1809    0.1993    0.2459 C   0  0  0  0  0  0  0  0  0  0  0  0
   -1.9311   -0.5233   -0.1313 C   0  0  0  0  0  0  0  0  0  0  0  0
   -0.7037   -0.0878    0.5794 C   0  0  0  0  0  0  0  0  0  0  0  0
   -0.2555    1.3226    0.4521 C   0  0  0  0  0  0  0  0  0  0  0  0
    0.3929    0.7061   -0.7394 C   0  0  0  0  0  0  0  0  0  0  0  0
    1.6020    0.1215   -0.8737 C   0  0  0  0  0  0  0  0  0  0  0  0
    2.8266    0.6936   -0.1474 C   0  0  0  0  0  0  0  0  0  0  0  0
    0.5314   -0.5717   -0.1218 C   0  0  0  0  0  0  0  0  0  0  0  0
    1.2473   -1.5174    0.6727 C   0  0  0  0  0  0  0  0  0  0  0  0
   -3.0732    0.9073    1.0718 H   0  0  0  0  0  0  0  0  0  0  0  0
   -3.5615    0.7861   -0.6417 H   0  0  0  0  0  0  0  0  0  0  0  0
   -4.0141   -0.4871    0.5051 H   0  0  0  0  0  0  0  0  0  0  0  0
   -1.8364   -0.5396   -1.2356 H   0  0  0  0  0  0  0  0  0  0  0  0
   -2.0928   -1.6083    0.1473 H   0  0  0  0  0  0  0  0  0  0  0  0
   -0.8103   -0.3214    1.6674 H   0  0  0  0  0  0  0  0  0  0  0  0
   -1.0128    2.0910    0.2450 H   0  0  0  0  0  0  0  0  0  0  0  0
    0.4064    1.6458    1.2750 H   0  0  0  0  0  0  0  0  0  0  0  0
   -0.3126    0.7386   -1.6305 H   0  0  0  0  0  0  0  0  0  0  0  0
    1.9211   -0.4103   -1.8052 H   0  0  0  0  0  0  0  0  0  0  0  0
    3.6532   -0.0714   -0.2209 H   0  0  0  0  0  0  0  0  0  0  0  0
    3.1846    1.5661   -0.7173 H   0  0  0  0  0  0  0  0  0  0  0  0
    2.6294    0.8941    0.9049 H   0  0  0  0  0  0  0  0  0  0  0  0
    1.8592   -1.0935    1.5230 H   0  0  0  0  0  0  0  0  0  0  0  0
    0.5513   -2.2384    1.1810 H   0  0  0  0  0  0  0  0  0  0  0  0
    1.9794   -2.2017    0.1460 H   0  0  0  0  0  0  0  0  0  0  0  0
  1  2  1  0
  2  3  1  0
  3  4  1  0
  4  5  1  0
  5  6  1  0
  6  7  1  0
  6  8  1  0
  8  9  1  0
  8  3  1  0
  8  5  1  0
  1 10  1  0
  1 11  1  0
  1 12  1  0
  2 13  1  0
  2 14  1  0
  3 15  1  0
  4 16  1  0
  4 17  1  0
  5 18  1  0
  6 19  1  0
  7 20  1  0
  7 21  1  0
  7 22  1  0
  9 23  1  0
  9 24  1  0
  9 25  1  0
M  END
