
     RDKit          3D

 20 20  0  0  0  0  0  0  0  0999 V2000
    2.6687   -0.3427   -0.6287 C   0  0  0  0  0  0  0  0  0  0  0  0
    1.7302    0.4765    0.2390 C   0  0  0  0  0  0  0  0  0  0  0  0
    0.3266    0.3502   -0.2589 C   0  0  0  0  0  0  0  0  0  0  0  0
   -0.1617   -1.0422   -0.2451 C   0  0  0  0  0  0  0  0  0  0  0  0
   -1.4540   -1.2645   -0.0306 C   0  0  0  0  0  0  0  0  0  0  0  0
   -2.4088   -0.1372    0.1943 C   0  0  0  0  0  0  0  0  0  0  0  0
   -1.7475    1.1798   -0.1519 C   0  0  0  0  0  0  0  0  0  0  0  0
   -0.5003    1.1841    0.5152 O   0  0  0  0  0  0  0  0  0  0  0  0
    2.6215    0.0250   -1.6746 H   0  0  0  0  0  0  0  0  0  0  0  0
    3.6926   -0.1654   -0.2337 H   0  0  0  0  0  0  0  0  0  0  0  0
    2.4732   -1.4152   -0.5400 H   0  0  0  0  0  0  0  0  0  0  0  0
    2.0302    1.5458    0.1595 H   0  0  0  0  0  0  0  0  0  0  0  0
    1.8044    0.1068    1.2711 H   0  0  0  0  0  0  0  0  0  0  0  0
    0.2512    0.7550   -1.3030 H   0  0  0  0  0  0  0  0  0  0  0  0
    0.4937   -1.8901   -0.4032 H   0  0  0  0  0  0  0  0  0  0  0  0
   -1.8564   -2.2852   -0.0127 H   0  0  0  0  0  0  0  0  0  0  0  0
   -3.3536   -0.2868   -0.3648 H   0  0  0  0  0  0  0  0  0  0  0  0
   -2.6540   -0.0992    1.2757 H   0  0  0  0  0  0  0  0  0  0  0  0
   -2.3883    1.9959    0.2319 H   0  0  0  0  0  0  0  0  0  0  0  0
   -1.5676    1.3094   -1.2221 H   0  0  0  0  0  0  0  0  0  0  0  0
  1  2  1  0
  2  3  1  0
  3  4  1  0
  4  5  2  0
  5  6  1  0
  6  7  1  0
  7  8  1  0
  8  3  1  0
  1  9  1  0
  1 10  1  0
  1 11  1  0
  2 12  1  0
  2 13  1  0
  3 14  1  0
  4 15  1  0
  5 16  1  0
  6 17  1  0
  6 18  1  0
  7 19  1  0
  7 20  1  0
M  END
