
     RDKit          3D

 21 23  0  0  0  0  0  0  0  0999 V2000
    2.5403    0.2432    0.0705 C   0  0  0  0  0  0  0  0  0  0  0  0
    1.4746   -0.7694    0.4020 C   0  0  0  0  0  0  0  0  0  0  0  0
    0.1771   -0.3061   -0.0311 C   0  0  0  0  0  0  0  0  0  0  0  0
   -0.3036    0.9947    0.5775 C   0  0  0  0  0  0  0  0  0  0  0  0
   -1.6490    1.0606   -0.1033 C   0  0  0  0  0  0  0  0  0  0  0  0
   -2.1059   -0.3163   -0.2758 C   0  0  0  0  0  0  0  0  0  0  0  0
   -1.0048   -1.2067    0.3238 C   0  0  0  0  0  0  0  0  0  0  0  0
   -1.3894    0.3316   -1.3898 C   0  0  0  0  0  0  0  0  0  0  0  0
   -0.0403   -0.0926   -1.3603 O   0  0  0  0  0  0  0  0  0  0  0  0
    3.0112    0.6767    0.9952 H   0  0  0  0  0  0  0  0  0  0  0  0
    2.0946    1.1037   -0.4592 H   0  0  0  0  0  0  0  0  0  0  0  0
    3.3130   -0.1731   -0.6080 H   0  0  0  0  0  0  0  0  0  0  0  0
    1.5046   -0.9212    1.5042 H   0  0  0  0  0  0  0  0  0  0  0  0
    1.7781   -1.7262   -0.0571 H   0  0  0  0  0  0  0  0  0  0  0  0
    0.3372    1.8453    0.3673 H   0  0  0  0  0  0  0  0  0  0  0  0
   -0.4874    0.8044    1.6480 H   0  0  0  0  0  0  0  0  0  0  0  0
   -2.2384    1.9528   -0.1549 H   0  0  0  0  0  0  0  0  0  0  0  0
   -3.1252   -0.6613   -0.3020 H   0  0  0  0  0  0  0  0  0  0  0  0
   -1.1379   -1.3153    1.4080 H   0  0  0  0  0  0  0  0  0  0  0  0
   -0.9070   -2.1529   -0.2260 H   0  0  0  0  0  0  0  0  0  0  0  0
   -1.8419    0.6283   -2.3291 H   0  0  0  0  0  0  0  0  0  0  0  0
  1  2  1  0
  2  3  1  0
  3  4  1  0
  4  5  1  0
  5  6  1  0
  6  7  1  0
  6  8  1  0
  8  9  1  0
  7  3  1  0
  9  3  1  0
  8  5  1  0
  1 10  1  0
  1 11  1  0
  1 12  1  0
  2 13  1  0
  2 14  1  0
  4 15  1  0
  4 16  1  0
  5 17  1  0
  6 18  1  0
  7 19  1  0
  7 20  1  0
  8 21  1  0
M  END
