
     RDKit          3D

 22 22  0  0  0  0  0  0  0  0999 V2000
    2.3444    0.5397    0.6058 C   0  0  0  0  0  0  0  0  0  0  0  0
    1.6225   -0.7080    0.1386 C   0  0  0  0  0  0  0  0  0  0  0  0
    0.4376   -0.2670   -0.7122 C   0  0  0  0  0  0  0  0  0  0  0  0
   -0.2440   -1.3609   -1.1564 O   0  0  0  0  0  0  0  0  0  0  0  0
   -1.4694   -1.4377   -0.5635 C   0  0  0  0  0  0  0  0  0  0  0  0
   -1.3619   -0.6215    0.7251 C   0  0  0  0  0  0  0  0  0  0  0  0
   -0.4775    0.5153    0.2172 C   0  0  0  0  0  0  0  0  0  0  0  0
   -1.2847    1.5494   -0.5279 C   0  0  0  0  0  0  0  0  0  0  0  0
    3.4087    0.4118    0.3510 H   0  0  0  0  0  0  0  0  0  0  0  0
    1.9216    1.4459    0.1331 H   0  0  0  0  0  0  0  0  0  0  0  0
    2.2909    0.6720    1.7019 H   0  0  0  0  0  0  0  0  0  0  0  0
    2.2540   -1.3853   -0.4450 H   0  0  0  0  0  0  0  0  0  0  0  0
    1.2996   -1.2443    1.0429 H   0  0  0  0  0  0  0  0  0  0  0  0
    0.7344    0.4084   -1.5139 H   0  0  0  0  0  0  0  0  0  0  0  0
   -1.7765   -2.4575   -0.2634 H   0  0  0  0  0  0  0  0  0  0  0  0
   -2.2644   -1.0416   -1.2186 H   0  0  0  0  0  0  0  0  0  0  0  0
   -2.3234   -0.2798    1.0945 H   0  0  0  0  0  0  0  0  0  0  0  0
   -0.7600   -1.2173    1.4167 H   0  0  0  0  0  0  0  0  0  0  0  0
    0.0601    0.9664    1.0625 H   0  0  0  0  0  0  0  0  0  0  0  0
   -0.6072    2.0880   -1.2244 H   0  0  0  0  0  0  0  0  0  0  0  0
   -1.6579    2.3046    0.1886 H   0  0  0  0  0  0  0  0  0  0  0  0
   -2.1467    1.1192   -1.0526 H   0  0  0  0  0  0  0  0  0  0  0  0
  1  2  1  0
  2  3  1  0
  3  4  1  0
  4  5  1  0
  5  6  1  0
  6  7  1  0
  7  8  1  0
  7  3  1  0
  1  9  1  0
  1 10  1  0
  1 11  1  0
  2 12  1  0
  2 13  1  0
  3 14  1  0
  5 15  1  0
  5 16  1  0
  6 17  1  0
  6 18  1  0
  7 19  1  0
  8 20  1  0
  8 21  1  0
  8 22  1  0
M  END
