
     RDKit          3D

 21 22  0  0  0  0  0  0  0  0999 V2000
    2.3626   -0.3115    0.5812 C   0  0  0  0  0  0  0  0  0  0  0  0
    1.1584   -0.9154   -0.1197 C   0  0  0  0  0  0  0  0  0  0  0  0
    0.2667    0.1669   -0.6510 C   0  0  0  0  0  0  0  0  0  0  0  0
   -0.9439   -0.3713   -1.3568 C   0  0  0  0  0  0  0  0  0  0  0  0
   -1.9031   -0.8329   -0.2533 C   0  0  0  0  0  0  0  0  0  0  0  0
   -1.8838    0.6437   -0.0373 C   0  0  0  0  0  0  0  0  0  0  0  0
   -1.7437    0.7668   -1.4395 O   0  0  0  0  0  0  0  0  0  0  0  0
   -0.4849    0.8860    0.4897 C   0  0  0  0  0  0  0  0  0  0  0  0
   -0.2410    2.2374    0.4751 O   0  0  0  0  0  0  0  0  0  0  0  0
    3.0692   -1.1435    0.8339 H   0  0  0  0  0  0  0  0  0  0  0  0
    2.0639    0.2062    1.5116 H   0  0  0  0  0  0  0  0  0  0  0  0
    2.8417    0.4069   -0.1277 H   0  0  0  0  0  0  0  0  0  0  0  0
    1.5580   -1.4663   -0.9965 H   0  0  0  0  0  0  0  0  0  0  0  0
    0.6138   -1.5970    0.5523 H   0  0  0  0  0  0  0  0  0  0  0  0
    0.8196    0.9269   -1.2003 H   0  0  0  0  0  0  0  0  0  0  0  0
   -0.8356   -0.9971   -2.2078 H   0  0  0  0  0  0  0  0  0  0  0  0
   -1.4156   -1.4732    0.4748 H   0  0  0  0  0  0  0  0  0  0  0  0
   -2.8627   -1.1574   -0.6707 H   0  0  0  0  0  0  0  0  0  0  0  0
   -2.7042    1.1396    0.4222 H   0  0  0  0  0  0  0  0  0  0  0  0
   -0.2915    0.3828    1.4375 H   0  0  0  0  0  0  0  0  0  0  0  0
    0.5561    2.5025   -0.0638 H   0  0  0  0  0  0  0  0  0  0  0  0
  1  2  1  0
  2  3  1  0
  3  4  1  0
  4  5  1  0
  5  6  1  0
  6  7  1  0
  6  8  1  0
  8  9  1  0
  8  3  1  0
  7  4  1  0
  1 10  1  0
  1 11  1  0
  1 12  1  0
  2 13  1  0
  2 14  1  0
  3 15  1  0
  4 16  1  0
  5 17  1  0
  5 18  1  0
  6 19  1  0
  8 20  1  0
  9 21  1  0
M  END
