
     RDKit          3D

 23 24  0  0  0  0  0  0  0  0999 V2000
    2.5216   -0.6690    0.8828 C   0  0  0  0  0  0  0  0  0  0  0  0
    1.6867   -0.4281   -0.3389 C   0  0  0  0  0  0  0  0  0  0  0  0
    0.7401    0.7178   -0.1908 C   0  0  0  0  0  0  0  0  0  0  0  0
   -0.0580    0.8949   -1.4521 C   0  0  0  0  0  0  0  0  0  0  0  0
   -0.1986    2.2427   -1.8416 O   0  0  0  0  0  0  0  0  0  0  0  0
   -1.2676    0.2930   -0.8286 C   0  0  0  0  0  0  0  0  0  0  0  0
   -1.2631   -0.7670    0.1760 C   0  0  0  0  0  0  0  0  0  0  0  0
   -2.5583   -1.0032    0.9276 C   0  0  0  0  0  0  0  0  0  0  0  0
   -0.5434    0.4687    0.5253 C   0  0  0  0  0  0  0  0  0  0  0  0
    2.3934   -1.7239    1.2470 H   0  0  0  0  0  0  0  0  0  0  0  0
    3.6135   -0.4843    0.7102 H   0  0  0  0  0  0  0  0  0  0  0  0
    2.2455   -0.0236    1.7446 H   0  0  0  0  0  0  0  0  0  0  0  0
    1.1937   -1.3561   -0.7107 H   0  0  0  0  0  0  0  0  0  0  0  0
    2.4069   -0.1466   -1.1642 H   0  0  0  0  0  0  0  0  0  0  0  0
    1.2536    1.6051    0.1960 H   0  0  0  0  0  0  0  0  0  0  0  0
    0.2831    0.3102   -2.3316 H   0  0  0  0  0  0  0  0  0  0  0  0
   -0.0642    2.8478   -1.0681 H   0  0  0  0  0  0  0  0  0  0  0  0
   -2.2012    0.8481   -0.9866 H   0  0  0  0  0  0  0  0  0  0  0  0
   -0.6488   -1.6833    0.1014 H   0  0  0  0  0  0  0  0  0  0  0  0
   -3.1251   -0.0596    1.0732 H   0  0  0  0  0  0  0  0  0  0  0  0
   -3.1617   -1.6946    0.2955 H   0  0  0  0  0  0  0  0  0  0  0  0
   -2.2821   -1.4605    1.9043 H   0  0  0  0  0  0  0  0  0  0  0  0
   -0.9658    1.2714    1.1294 H   0  0  0  0  0  0  0  0  0  0  0  0
  1  2  1  0
  2  3  1  0
  3  4  1  0
  4  5  1  0
  4  6  1  0
  6  7  1  0
  7  8  1  0
  7  9  1  0
  9  3  1  0
  9  6  1  0
  1 10  1  0
  1 11  1  0
  1 12  1  0
  2 13  1  0
  2 14  1  0
  3 15  1  0
  4 16  1  0
  5 17  1  0
  6 18  1  0
  7 19  1  0
  8 20  1  0
  8 21  1  0
  8 22  1  0
  9 23  1  0
M  END
