
     RDKit          3D

 23 24  0  0  0  0  0  0  0  0999 V2000
    1.8717   -0.7669   -1.0394 C   0  0  0  0  0  0  0  0  0  0  0  0
    0.9480   -1.2126    0.0702 C   0  0  0  0  0  0  0  0  0  0  0  0
   -0.0180   -0.1351    0.4515 C   0  0  0  0  0  0  0  0  0  0  0  0
    0.5607    1.1456    0.9464 C   0  0  0  0  0  0  0  0  0  0  0  0
   -0.4692    1.9180    0.1814 C   0  0  0  0  0  0  0  0  0  0  0  0
    0.0124    2.9187   -0.6449 O   0  0  0  0  0  0  0  0  0  0  0  0
   -0.7713    0.6393   -0.5633 C   0  0  0  0  0  0  0  0  0  0  0  0
   -1.4364   -0.3954    0.2545 C   0  0  0  0  0  0  0  0  0  0  0  0
   -1.8009   -1.6674   -0.4773 C   0  0  0  0  0  0  0  0  0  0  0  0
    2.6358   -0.1069   -0.5783 H   0  0  0  0  0  0  0  0  0  0  0  0
    1.3382   -0.1648   -1.8105 H   0  0  0  0  0  0  0  0  0  0  0  0
    2.3647   -1.6572   -1.4398 H   0  0  0  0  0  0  0  0  0  0  0  0
    0.4408   -2.1524   -0.1397 H   0  0  0  0  0  0  0  0  0  0  0  0
    1.6035   -1.3861    0.9702 H   0  0  0  0  0  0  0  0  0  0  0  0
    0.5851    1.3095    2.0343 H   0  0  0  0  0  0  0  0  0  0  0  0
    1.5797    1.3779    0.5297 H   0  0  0  0  0  0  0  0  0  0  0  0
   -1.2783    2.2491    0.8839 H   0  0  0  0  0  0  0  0  0  0  0  0
    0.1903    3.7056   -0.0749 H   0  0  0  0  0  0  0  0  0  0  0  0
   -0.5744    0.5383   -1.6244 H   0  0  0  0  0  0  0  0  0  0  0  0
   -2.1637   -0.1023    1.0358 H   0  0  0  0  0  0  0  0  0  0  0  0
   -1.5354   -2.5383    0.1901 H   0  0  0  0  0  0  0  0  0  0  0  0
   -2.8787   -1.7009   -0.7408 H   0  0  0  0  0  0  0  0  0  0  0  0
   -1.2045   -1.8157   -1.4011 H   0  0  0  0  0  0  0  0  0  0  0  0
  1  2  1  0
  2  3  1  0
  3  4  1  0
  4  5  1  0
  5  6  1  0
  5  7  1  0
  7  8  1  0
  8  9  1  0
  7  3  1  0
  8  3  1  0
  1 10  1  0
  1 11  1  0
  1 12  1  0
  2 13  1  0
  2 14  1  0
  4 15  1  0
  4 16  1  0
  5 17  1  0
  6 18  1  0
  7 19  1  0
  8 20  1  0
  9 21  1  0
  9 22  1  0
  9 23  1  0
M  END
