
     RDKit          3D

 20 20  0  0  0  0  0  0  0  0999 V2000
    2.2467    0.1240    0.6649 C   0  0  0  0  0  0  0  0  0  0  0  0
    1.6990   -0.5468   -0.5679 C   0  0  0  0  0  0  0  0  0  0  0  0
    0.2135   -0.4710   -0.5486 C   0  0  0  0  0  0  0  0  0  0  0  0
   -0.1653    1.0158   -0.5269 C   0  0  0  0  0  0  0  0  0  0  0  0
   -1.5104    1.0525   -0.9000 O   0  0  0  0  0  0  0  0  0  0  0  0
   -2.2160    0.4777    0.1679 C   0  0  0  0  0  0  0  0  0  0  0  0
   -1.7443   -0.9099    0.4893 C   0  0  0  0  0  0  0  0  0  0  0  0
   -0.3795   -1.0444    0.5508 O   0  0  0  0  0  0  0  0  0  0  0  0
    3.3331   -0.0907    0.6996 H   0  0  0  0  0  0  0  0  0  0  0  0
    2.1320    1.2227    0.5386 H   0  0  0  0  0  0  0  0  0  0  0  0
    1.7586   -0.1774    1.5940 H   0  0  0  0  0  0  0  0  0  0  0  0
    2.0760   -1.5841   -0.6883 H   0  0  0  0  0  0  0  0  0  0  0  0
    2.0631    0.0174   -1.4492 H   0  0  0  0  0  0  0  0  0  0  0  0
   -0.2176   -0.8545   -1.5176 H   0  0  0  0  0  0  0  0  0  0  0  0
    0.4935    1.5733   -1.1909 H   0  0  0  0  0  0  0  0  0  0  0  0
   -0.0796    1.3183    0.5415 H   0  0  0  0  0  0  0  0  0  0  0  0
   -3.2700    0.4682   -0.1152 H   0  0  0  0  0  0  0  0  0  0  0  0
   -2.0553    1.1903    1.0308 H   0  0  0  0  0  0  0  0  0  0  0  0
   -2.1729   -1.1847    1.4753 H   0  0  0  0  0  0  0  0  0  0  0  0
   -2.2044   -1.5969   -0.2479 H   0  0  0  0  0  0  0  0  0  0  0  0
  1  2  1  0
  2  3  1  0
  3  4  1  0
  4  5  1  0
  5  6  1  0
  6  7  1  0
  7  8  1  0
  8  3  1  0
  1  9  1  0
  1 10  1  0
  1 11  1  0
  2 12  1  0
  2 13  1  0
  3 14  1  0
  4 15  1  0
  4 16  1  0
  6 17  1  0
  6 18  1  0
  7 19  1  0
  7 20  1  0
M  END
