
     RDKit          3D

 25 25  0  0  0  0  0  0  0  0999 V2000
    2.0134   -1.3649    0.0281 C   0  0  0  0  0  0  0  0  0  0  0  0
    1.5533   -0.1362   -0.7028 C   0  0  0  0  0  0  0  0  0  0  0  0
    0.4622    0.6299   -0.0460 C   0  0  0  0  0  0  0  0  0  0  0  0
    0.1210    1.8543   -0.9028 C   0  0  0  0  0  0  0  0  0  0  0  0
    0.7154    0.8869    1.2612 O   0  0  0  0  0  0  0  0  0  0  0  0
   -0.1457   -0.0978    1.6476 C   0  0  0  0  0  0  0  0  0  0  0  0
   -0.7953   -0.0664    0.3198 C   0  0  0  0  0  0  0  0  0  0  0  0
   -1.1191   -1.3407   -0.3581 C   0  0  0  0  0  0  0  0  0  0  0  0
   -2.0062    0.8543    0.3627 C   0  0  0  0  0  0  0  0  0  0  0  0
    1.2972   -2.1777    0.1072 H   0  0  0  0  0  0  0  0  0  0  0  0
    2.9111   -1.8270   -0.4924 H   0  0  0  0  0  0  0  0  0  0  0  0
    2.4376   -1.0488    1.0086 H   0  0  0  0  0  0  0  0  0  0  0  0
    1.3262   -0.3976   -1.7678 H   0  0  0  0  0  0  0  0  0  0  0  0
    2.4678    0.5258   -0.7984 H   0  0  0  0  0  0  0  0  0  0  0  0
   -0.2973    2.6679   -0.3178 H   0  0  0  0  0  0  0  0  0  0  0  0
   -0.6480    1.4996   -1.6222 H   0  0  0  0  0  0  0  0  0  0  0  0
    0.9908    2.1695   -1.5176 H   0  0  0  0  0  0  0  0  0  0  0  0
    0.2612   -1.0855    1.9406 H   0  0  0  0  0  0  0  0  0  0  0  0
   -0.7972    0.2896    2.4705 H   0  0  0  0  0  0  0  0  0  0  0  0
   -2.1494   -1.2730   -0.7841 H   0  0  0  0  0  0  0  0  0  0  0  0
   -1.0781   -2.2471    0.2410 H   0  0  0  0  0  0  0  0  0  0  0  0
   -0.4715   -1.4057   -1.2835 H   0  0  0  0  0  0  0  0  0  0  0  0
   -2.4013    1.0745   -0.6408 H   0  0  0  0  0  0  0  0  0  0  0  0
   -2.8050    0.2641    0.8834 H   0  0  0  0  0  0  0  0  0  0  0  0
   -1.8428    1.7520    0.9636 H   0  0  0  0  0  0  0  0  0  0  0  0
  1  2  1  0
  2  3  1  0
  3  4  1  0
  3  5  1  0
  5  6  1  0
  6  7  1  0
  7  8  1  0
  7  9  1  0
  7  3  1  0
  1 10  1  0
  1 11  1  0
  1 12  1  0
  2 13  1  0
  2 14  1  0
  4 15  1  0
  4 16  1  0
  4 17  1  0
  6 18  1  0
  6 19  1  0
  8 20  1  0
  8 21  1  0
  8 22  1  0
  9 23  1  0
  9 24  1  0
  9 25  1  0
M  END
