
     RDKit          3D

 21 23  0  0  0  0  0  0  0  0999 V2000
    2.6479    0.1585    0.1690 C   0  0  0  0  0  0  0  0  0  0  0  0
    1.5504    0.2444   -0.8294 C   0  0  0  0  0  0  0  0  0  0  0  0
    0.3530   -0.5779   -0.5355 C   0  0  0  0  0  0  0  0  0  0  0  0
   -0.7603   -0.4948   -1.5421 C   0  0  0  0  0  0  0  0  0  0  0  0
   -1.9387   -0.0172   -0.7898 C   0  0  0  0  0  0  0  0  0  0  0  0
   -1.8867    1.0961    0.1782 C   0  0  0  0  0  0  0  0  0  0  0  0
   -1.6628   -0.3678    0.6153 C   0  0  0  0  0  0  0  0  0  0  0  0
   -0.2391   -0.7113    0.7956 C   0  0  0  0  0  0  0  0  0  0  0  0
    0.3999   -1.7410    0.1811 O   0  0  0  0  0  0  0  0  0  0  0  0
    2.8669   -0.8375    0.5544 H   0  0  0  0  0  0  0  0  0  0  0  0
    2.4470    0.9078    0.9906 H   0  0  0  0  0  0  0  0  0  0  0  0
    3.5802    0.5628   -0.3281 H   0  0  0  0  0  0  0  0  0  0  0  0
    1.2180    1.3235   -0.8714 H   0  0  0  0  0  0  0  0  0  0  0  0
    1.9356    0.0327   -1.8505 H   0  0  0  0  0  0  0  0  0  0  0  0
   -0.4905    0.0727   -2.4351 H   0  0  0  0  0  0  0  0  0  0  0  0
   -0.9840   -1.5431   -1.9006 H   0  0  0  0  0  0  0  0  0  0  0  0
   -2.9171   -0.1982   -1.2649 H   0  0  0  0  0  0  0  0  0  0  0  0
   -1.0453    1.7865    0.2166 H   0  0  0  0  0  0  0  0  0  0  0  0
   -2.8372    1.5116    0.5379 H   0  0  0  0  0  0  0  0  0  0  0  0
   -2.4736   -0.8667    1.1664 H   0  0  0  0  0  0  0  0  0  0  0  0
    0.2365   -0.3411    1.7222 H   0  0  0  0  0  0  0  0  0  0  0  0
  1  2  1  0
  2  3  1  0
  3  4  1  0
  4  5  1  0
  5  6  1  0
  6  7  1  0
  7  8  1  0
  8  9  1  0
  8  3  1  0
  9  3  1  0
  7  5  1  0
  1 10  1  0
  1 11  1  0
  1 12  1  0
  2 13  1  0
  2 14  1  0
  4 15  1  0
  4 16  1  0
  5 17  1  0
  6 18  1  0
  6 19  1  0
  7 20  1  0
  8 21  1  0
M  END
