
     RDKit          3D

 23 24  0  0  0  0  0  0  0  0999 V2000
   -2.6639    0.7762    0.3176 C   0  0  0  0  0  0  0  0  0  0  0  0
   -1.8735   -0.4393    0.6927 C   0  0  0  0  0  0  0  0  0  0  0  0
   -0.5324   -0.5107    0.0465 C   0  0  0  0  0  0  0  0  0  0  0  0
    0.3132   -1.6936    0.3720 C   0  0  0  0  0  0  0  0  0  0  0  0
    1.4797   -1.1859    0.9930 O   0  0  0  0  0  0  0  0  0  0  0  0
    1.7725   -0.0968    0.2028 C   0  0  0  0  0  0  0  0  0  0  0  0
    2.8649    0.7722    0.7272 C   0  0  0  0  0  0  0  0  0  0  0  0
    0.4406    0.6132    0.1132 C   0  0  0  0  0  0  0  0  0  0  0  0
   -0.3092    0.3044   -1.1659 C   0  0  0  0  0  0  0  0  0  0  0  0
   -2.1436    1.7155    0.5902 H   0  0  0  0  0  0  0  0  0  0  0  0
   -3.6544    0.6899    0.8490 H   0  0  0  0  0  0  0  0  0  0  0  0
   -2.9326    0.7352   -0.7686 H   0  0  0  0  0  0  0  0  0  0  0  0
   -1.7993   -0.5241    1.7953 H   0  0  0  0  0  0  0  0  0  0  0  0
   -2.4622   -1.3307    0.3339 H   0  0  0  0  0  0  0  0  0  0  0  0
   -0.1809   -2.3391    1.1293 H   0  0  0  0  0  0  0  0  0  0  0  0
    0.5598   -2.3297   -0.4855 H   0  0  0  0  0  0  0  0  0  0  0  0
    2.1067   -0.4916   -0.7923 H   0  0  0  0  0  0  0  0  0  0  0  0
    3.1964    1.4372   -0.1233 H   0  0  0  0  0  0  0  0  0  0  0  0
    3.7418    0.1266    0.9420 H   0  0  0  0  0  0  0  0  0  0  0  0
    2.6144    1.3317    1.6284 H   0  0  0  0  0  0  0  0  0  0  0  0
    0.2455    1.5227    0.6727 H   0  0  0  0  0  0  0  0  0  0  0  0
   -1.0359    1.0543   -1.4479 H   0  0  0  0  0  0  0  0  0  0  0  0
    0.2522   -0.1378   -2.0213 H   0  0  0  0  0  0  0  0  0  0  0  0
  1  2  1  0
  2  3  1  0
  3  4  1  0
  4  5  1  0
  5  6  1  0
  6  7  1  0
  6  8  1  0
  8  9  1  0
  8  3  1  0
  9  3  1  0
  1 10  1  0
  1 11  1  0
  1 12  1  0
  2 13  1  0
  2 14  1  0
  4 15  1  0
  4 16  1  0
  6 17  1  0
  7 18  1  0
  7 19  1  0
  7 20  1  0
  8 21  1  0
  9 22  1  0
  9 23  1  0
M  END
