
     RDKit          3D

 23 23  0  0  0  0  0  0  0  0999 V2000
   -2.5139    0.0667   -1.0551 C   0  0  0  0  0  0  0  0  0  0  0  0
   -0.9611    0.0266   -0.9984 C   0  0  0  0  0  0  0  0  0  0  0  0
   -0.6674    0.4119    0.4030 C   0  0  0  0  0  0  0  0  0  0  0  0
   -1.2758   -0.5243    1.2668 O   0  0  0  0  0  0  0  0  0  0  0  0
   -0.2297   -0.9522    2.0538 C   0  0  0  0  0  0  0  0  0  0  0  0
    0.6345    0.1144    2.2022 O   0  0  0  0  0  0  0  0  0  0  0  0
    0.6992    0.5969    0.8630 C   0  0  0  0  0  0  0  0  0  0  0  0
    1.8340   -0.0809    0.2110 C   0  0  0  0  0  0  0  0  0  0  0  0
    2.0566    0.2640   -1.2252 C   0  0  0  0  0  0  0  0  0  0  0  0
   -2.8051    1.0131   -0.5559 H   0  0  0  0  0  0  0  0  0  0  0  0
   -2.8334   -0.7730   -0.4247 H   0  0  0  0  0  0  0  0  0  0  0  0
   -2.8566    0.0220   -2.0970 H   0  0  0  0  0  0  0  0  0  0  0  0
   -0.5583    0.7015   -1.7512 H   0  0  0  0  0  0  0  0  0  0  0  0
   -0.6704   -1.0088   -1.2740 H   0  0  0  0  0  0  0  0  0  0  0  0
   -1.2602    1.3682    0.5875 H   0  0  0  0  0  0  0  0  0  0  0  0
   -0.6538   -1.3008    3.0166 H   0  0  0  0  0  0  0  0  0  0  0  0
    0.2447   -1.8260    1.5390 H   0  0  0  0  0  0  0  0  0  0  0  0
    0.9133    1.7068    0.9056 H   0  0  0  0  0  0  0  0  0  0  0  0
    2.7684    0.2617    0.7578 H   0  0  0  0  0  0  0  0  0  0  0  0
    1.7804   -1.1948    0.3537 H   0  0  0  0  0  0  0  0  0  0  0  0
    1.6767    1.2794   -1.4218 H   0  0  0  0  0  0  0  0  0  0  0  0
    3.1620    0.2622   -1.4789 H   0  0  0  0  0  0  0  0  0  0  0  0
    1.5159   -0.4346   -1.8777 H   0  0  0  0  0  0  0  0  0  0  0  0
  1  2  1  0
  2  3  1  0
  3  4  1  0
  4  5  1  0
  5  6  1  0
  6  7  1  0
  7  8  1  0
  8  9  1  0
  7  3  1  0
  1 10  1  0
  1 11  1  0
  1 12  1  0
  2 13  1  0
  2 14  1  0
  3 15  1  0
  5 16  1  0
  5 17  1  0
  7 18  1  0
  8 19  1  0
  8 20  1  0
  9 21  1  0
  9 22  1  0
  9 23  1  0
M  END
