
     RDKit          3D

 22 22  0  0  0  0  0  0  0  0999 V2000
   -3.3321    0.4926   -0.1219 C   0  0  0  0  0  0  0  0  0  0  0  0
   -2.0109    0.4897    0.6474 C   0  0  0  0  0  0  0  0  0  0  0  0
   -0.9974   -0.4028   -0.0308 C   0  0  0  0  0  0  0  0  0  0  0  0
    0.2975   -0.3998    0.7322 C   0  0  0  0  0  0  0  0  0  0  0  0
    0.8195   -0.5183   -0.6793 C   0  0  0  0  0  0  0  0  0  0  0  0
    2.0736    0.2454   -0.9523 C   0  0  0  0  0  0  0  0  0  0  0  0
    3.2210   -0.1895   -0.0799 C   0  0  0  0  0  0  0  0  0  0  0  0
   -0.3177    0.2074   -1.0925 O   0  0  0  0  0  0  0  0  0  0  0  0
   -3.1709    0.3903   -1.2097 H   0  0  0  0  0  0  0  0  0  0  0  0
   -4.0104   -0.2845    0.2532 H   0  0  0  0  0  0  0  0  0  0  0  0
   -3.8009    1.4716    0.0639 H   0  0  0  0  0  0  0  0  0  0  0  0
   -2.2364    0.0935    1.6575 H   0  0  0  0  0  0  0  0  0  0  0  0
   -1.6544    1.5253    0.7520 H   0  0  0  0  0  0  0  0  0  0  0  0
   -1.3519   -1.3850   -0.3370 H   0  0  0  0  0  0  0  0  0  0  0  0
    0.5124    0.5773    1.2093 H   0  0  0  0  0  0  0  0  0  0  0  0
    0.4163   -1.2839    1.3700 H   0  0  0  0  0  0  0  0  0  0  0  0
    0.7579   -1.5443   -1.0568 H   0  0  0  0  0  0  0  0  0  0  0  0
    1.8407    1.3277   -0.8555 H   0  0  0  0  0  0  0  0  0  0  0  0
    2.3677    0.0513   -2.0048 H   0  0  0  0  0  0  0  0  0  0  0  0
    4.0551   -0.6454   -0.6808 H   0  0  0  0  0  0  0  0  0  0  0  0
    3.6125    0.7175    0.4247 H   0  0  0  0  0  0  0  0  0  0  0  0
    2.9088   -0.9361    0.6838 H   0  0  0  0  0  0  0  0  0  0  0  0
  1  2  1  0
  2  3  1  0
  3  4  1  0
  4  5  1  0
  5  6  1  0
  6  7  1  0
  5  8  1  0
  8  3  1  0
  1  9  1  0
  1 10  1  0
  1 11  1  0
  2 12  1  0
  2 13  1  0
  3 14  1  0
  4 15  1  0
  4 16  1  0
  5 17  1  0
  6 18  1  0
  6 19  1  0
  7 20  1  0
  7 21  1  0
  7 22  1  0
M  END
