
     RDKit          3D

 27 27  0  0  0  0  0  0  0  0999 V2000
   -3.0218   -0.0184   -1.0388 C   0  0  0  0  0  0  0  0  0  0  0  0
   -2.6490    0.8657    0.1074 C   0  0  0  0  0  0  0  0  0  0  0  0
   -1.2242    0.7473    0.5419 C   0  0  0  0  0  0  0  0  0  0  0  0
   -0.1671    1.0664   -0.4567 C   0  0  0  0  0  0  0  0  0  0  0  0
    0.4685   -0.2833   -0.2392 C   0  0  0  0  0  0  0  0  0  0  0  0
    1.7815   -0.2426    0.5114 C   0  0  0  0  0  0  0  0  0  0  0  0
    2.8262    0.5758   -0.1985 C   0  0  0  0  0  0  0  0  0  0  0  0
    2.2836   -1.6606    0.6653 C   0  0  0  0  0  0  0  0  0  0  0  0
   -0.6689   -0.6295    0.6952 C   0  0  0  0  0  0  0  0  0  0  0  0
   -2.3904    0.1262   -1.9351 H   0  0  0  0  0  0  0  0  0  0  0  0
   -3.0508   -1.0859   -0.7408 H   0  0  0  0  0  0  0  0  0  0  0  0
   -4.0565    0.2444   -1.3433 H   0  0  0  0  0  0  0  0  0  0  0  0
   -2.8637    1.9196   -0.1163 H   0  0  0  0  0  0  0  0  0  0  0  0
   -3.2888    0.5851    0.9707 H   0  0  0  0  0  0  0  0  0  0  0  0
   -1.0661    1.3308    1.4750 H   0  0  0  0  0  0  0  0  0  0  0  0
   -0.4743    1.1750   -1.5106 H   0  0  0  0  0  0  0  0  0  0  0  0
    0.4913    1.9254   -0.1789 H   0  0  0  0  0  0  0  0  0  0  0  0
    0.4988   -0.9553   -1.0982 H   0  0  0  0  0  0  0  0  0  0  0  0
    1.5915    0.2455    1.4919 H   0  0  0  0  0  0  0  0  0  0  0  0
    3.8359    0.1857    0.0569 H   0  0  0  0  0  0  0  0  0  0  0  0
    2.7198    0.5565   -1.2969 H   0  0  0  0  0  0  0  0  0  0  0  0
    2.8175    1.6414    0.1041 H   0  0  0  0  0  0  0  0  0  0  0  0
    3.0893   -1.8853   -0.0690 H   0  0  0  0  0  0  0  0  0  0  0  0
    2.7430   -1.7393    1.6671 H   0  0  0  0  0  0  0  0  0  0  0  0
    1.4683   -2.4043    0.5247 H   0  0  0  0  0  0  0  0  0  0  0  0
   -0.3325   -0.8829    1.7404 H   0  0  0  0  0  0  0  0  0  0  0  0
   -1.3610   -1.4037    0.3572 H   0  0  0  0  0  0  0  0  0  0  0  0
  1  2  1  0
  2  3  1  0
  3  4  1  0
  4  5  1  0
  5  6  1  0
  6  7  1  0
  6  8  1  0
  5  9  1  0
  9  3  1  0
  1 10  1  0
  1 11  1  0
  1 12  1  0
  2 13  1  0
  2 14  1  0
  3 15  1  0
  4 16  1  0
  4 17  1  0
  5 18  1  0
  6 19  1  0
  7 20  1  0
  7 21  1  0
  7 22  1  0
  8 23  1  0
  8 24  1  0
  8 25  1  0
  9 26  1  0
  9 27  1  0
M  END
