
     RDKit          3D

 23 24  0  0  0  0  0  0  0  0999 V2000
    2.8151   -0.0719    0.7688 C   0  0  0  0  0  0  0  0  0  0  0  0
    2.0114   -0.0361   -0.4981 C   0  0  0  0  0  0  0  0  0  0  0  0
    0.5509    0.1958   -0.1972 C   0  0  0  0  0  0  0  0  0  0  0  0
    0.2022    0.3278    1.0555 C   0  0  0  0  0  0  0  0  0  0  0  0
   -1.2029    0.5583    1.4672 C   0  0  0  0  0  0  0  0  0  0  0  0
   -2.1767   -0.0836    0.4981 C   0  0  0  0  0  0  0  0  0  0  0  0
   -1.8364    0.2239   -0.9222 C   0  0  0  0  0  0  0  0  0  0  0  0
   -1.2028   -0.9283   -1.7077 C   0  0  0  0  0  0  0  0  0  0  0  0
   -0.4383    0.2716   -1.2871 C   0  0  0  0  0  0  0  0  0  0  0  0
    2.4995   -0.9053    1.4335 H   0  0  0  0  0  0  0  0  0  0  0  0
    2.7720    0.8734    1.3159 H   0  0  0  0  0  0  0  0  0  0  0  0
    3.9042   -0.2476    0.5196 H   0  0  0  0  0  0  0  0  0  0  0  0
    2.3970    0.7361   -1.1698 H   0  0  0  0  0  0  0  0  0  0  0  0
    2.1160   -1.0189   -1.0033 H   0  0  0  0  0  0  0  0  0  0  0  0
    0.9275    0.2785    1.8860 H   0  0  0  0  0  0  0  0  0  0  0  0
   -1.3988    1.6476    1.5390 H   0  0  0  0  0  0  0  0  0  0  0  0
   -1.3647    0.0535    2.4412 H   0  0  0  0  0  0  0  0  0  0  0  0
   -3.1754    0.3757    0.7134 H   0  0  0  0  0  0  0  0  0  0  0  0
   -2.2693   -1.1706    0.6993 H   0  0  0  0  0  0  0  0  0  0  0  0
   -2.5415    0.8759   -1.5172 H   0  0  0  0  0  0  0  0  0  0  0  0
   -0.9981   -1.8702   -1.1534 H   0  0  0  0  0  0  0  0  0  0  0  0
   -1.4540   -1.0540   -2.7618 H   0  0  0  0  0  0  0  0  0  0  0  0
   -0.1370    0.9685   -2.1199 H   0  0  0  0  0  0  0  0  0  0  0  0
  1  2  1  0
  2  3  1  0
  3  4  2  0
  4  5  1  0
  5  6  1  0
  6  7  1  0
  7  8  1  0
  8  9  1  0
  9  3  1  0
  9  7  1  0
  1 10  1  0
  1 11  1  0
  1 12  1  0
  2 13  1  0
  2 14  1  0
  4 15  1  0
  5 16  1  0
  5 17  1  0
  6 18  1  0
  6 19  1  0
  7 20  1  0
  8 21  1  0
  8 22  1  0
  9 23  1  0
M  END
