
     RDKit          3D

 19 21  0  0  0  0  0  0  0  0999 V2000
    1.8343    0.8686    0.0207 C   0  0  0  0  0  0  0  0  0  0  0  0
    1.4747   -0.5519    0.3372 C   0  0  0  0  0  0  0  0  0  0  0  0
    0.0431   -0.8887    0.1877 C   0  0  0  0  0  0  0  0  0  0  0  0
   -0.5037   -0.6863   -1.2025 C   0  0  0  0  0  0  0  0  0  0  0  0
   -1.8515   -0.9958   -0.9886 O   0  0  0  0  0  0  0  0  0  0  0  0
   -2.1744   -0.1353    0.0541 C   0  0  0  0  0  0  0  0  0  0  0  0
   -1.3033    1.0055   -0.1125 C   0  0  0  0  0  0  0  0  0  0  0  0
   -0.5572    0.6989   -1.2761 O   0  0  0  0  0  0  0  0  0  0  0  0
   -0.9052    0.0318    0.8954 C   0  0  0  0  0  0  0  0  0  0  0  0
    1.2927    1.6106    0.6449 H   0  0  0  0  0  0  0  0  0  0  0  0
    1.7254    1.1439   -1.0277 H   0  0  0  0  0  0  0  0  0  0  0  0
    2.9208    0.9905    0.2794 H   0  0  0  0  0  0  0  0  0  0  0  0
    2.0701   -1.2054   -0.3150 H   0  0  0  0  0  0  0  0  0  0  0  0
    1.7831   -0.7555    1.3741 H   0  0  0  0  0  0  0  0  0  0  0  0
   -0.1270   -1.9136    0.5383 H   0  0  0  0  0  0  0  0  0  0  0  0
   -0.0186   -1.2007   -1.9939 H   0  0  0  0  0  0  0  0  0  0  0  0
   -3.1385   -0.1686    0.5427 H   0  0  0  0  0  0  0  0  0  0  0  0
   -1.5641    2.0508    0.0858 H   0  0  0  0  0  0  0  0  0  0  0  0
   -1.0008    0.1011    1.9559 H   0  0  0  0  0  0  0  0  0  0  0  0
  1  2  1  0
  2  3  1  0
  3  4  1  0
  4  5  1  0
  5  6  1  0
  6  7  1  0
  7  8  1  0
  7  9  1  0
  9  3  1  0
  8  4  1  0
  9  6  1  0
  1 10  1  0
  1 11  1  0
  1 12  1  0
  2 13  1  0
  2 14  1  0
  3 15  1  0
  4 16  1  0
  6 17  1  0
  7 18  1  0
  9 19  1  0
M  END
