
     RDKit          3D

 21 21  0  0  0  0  0  0  0  0999 V2000
   -3.0437    0.3823    0.5354 C   0  0  0  0  0  0  0  0  0  0  0  0
   -1.7812    1.1534    0.2021 C   0  0  0  0  0  0  0  0  0  0  0  0
   -0.6143    0.2436    0.0593 C   0  0  0  0  0  0  0  0  0  0  0  0
    0.4833    0.3091    0.8046 C   0  0  0  0  0  0  0  0  0  0  0  0
    1.3746   -0.7693    0.3292 C   0  0  0  0  0  0  0  0  0  0  0  0
    2.8434   -0.3681    0.3972 C   0  0  0  0  0  0  0  0  0  0  0  0
    3.0769    0.8359   -0.2271 O   0  0  0  0  0  0  0  0  0  0  0  0
    0.9893   -0.8866   -1.0117 O   0  0  0  0  0  0  0  0  0  0  0  0
   -0.4094   -0.8697   -0.8765 C   0  0  0  0  0  0  0  0  0  0  0  0
   -3.3251    0.5657    1.6108 H   0  0  0  0  0  0  0  0  0  0  0  0
   -2.8431   -0.7184    0.4111 H   0  0  0  0  0  0  0  0  0  0  0  0
   -3.9012    0.6624   -0.0813 H   0  0  0  0  0  0  0  0  0  0  0  0
   -1.6164    1.9206    0.9539 H   0  0  0  0  0  0  0  0  0  0  0  0
   -1.9842    1.6833   -0.7657 H   0  0  0  0  0  0  0  0  0  0  0  0
    0.6658    1.0230    1.5999 H   0  0  0  0  0  0  0  0  0  0  0  0
    1.1777   -1.6991    0.8568 H   0  0  0  0  0  0  0  0  0  0  0  0
    3.3957   -1.2069   -0.1164 H   0  0  0  0  0  0  0  0  0  0  0  0
    3.1780   -0.4062    1.4519 H   0  0  0  0  0  0  0  0  0  0  0  0
    3.9358    0.7374   -0.7330 H   0  0  0  0  0  0  0  0  0  0  0  0
   -0.9225   -0.7585   -1.8403 H   0  0  0  0  0  0  0  0  0  0  0  0
   -0.6794   -1.8341   -0.3671 H   0  0  0  0  0  0  0  0  0  0  0  0
  1  2  1  0
  2  3  1  0
  3  4  2  0
  4  5  1  0
  5  6  1  0
  6  7  1  0
  5  8  1  0
  8  9  1  0
  9  3  1  0
  1 10  1  0
  1 11  1  0
  1 12  1  0
  2 13  1  0
  2 14  1  0
  4 15  1  0
  5 16  1  0
  6 17  1  0
  6 18  1  0
  7 19  1  0
  9 20  1  0
  9 21  1  0
M  END
