
     RDKit          3D

 19 19  0  0  0  0  0  0  0  0999 V2000
    1.4886   -0.3233   -1.2175 C   0  0  0  0  0  0  0  0  0  0  0  0
    1.4651    0.2265    0.1510 C   0  0  0  0  0  0  0  0  0  0  0  0
    0.1864    0.2570    0.8916 C   0  0  0  0  0  0  0  0  0  0  0  0
    0.4026    0.8251    2.1932 O   0  0  0  0  0  0  0  0  0  0  0  0
   -0.8118   -0.8175    0.9249 C   0  0  0  0  0  0  0  0  0  0  0  0
   -0.8159   -1.8926    0.0601 O   0  0  0  0  0  0  0  0  0  0  0  0
   -1.1403    0.5690    0.3655 C   0  0  0  0  0  0  0  0  0  0  0  0
   -1.5587    0.5503   -1.0309 C   0  0  0  0  0  0  0  0  0  0  0  0
   -2.5166    1.1864   -1.4156 O   0  0  0  0  0  0  0  0  0  0  0  0
    1.2794    0.4129   -2.0215 H   0  0  0  0  0  0  0  0  0  0  0  0
    0.9492   -1.2770   -1.3179 H   0  0  0  0  0  0  0  0  0  0  0  0
    2.5726   -0.6079   -1.4209 H   0  0  0  0  0  0  0  0  0  0  0  0
    1.9566    1.2307    0.1308 H   0  0  0  0  0  0  0  0  0  0  0  0
    2.1860   -0.3905    0.7732 H   0  0  0  0  0  0  0  0  0  0  0  0
   -0.0242    1.7263    2.1838 H   0  0  0  0  0  0  0  0  0  0  0  0
   -1.3820   -1.0546    1.8705 H   0  0  0  0  0  0  0  0  0  0  0  0
   -1.3827   -1.8001   -0.7218 H   0  0  0  0  0  0  0  0  0  0  0  0
   -1.8333    1.2140    0.9994 H   0  0  0  0  0  0  0  0  0  0  0  0
   -1.0209   -0.0346   -1.7543 H   0  0  0  0  0  0  0  0  0  0  0  0
  1  2  1  0
  2  3  1  0
  3  4  1  0
  3  5  1  0
  5  6  1  0
  5  7  1  0
  7  8  1  0
  8  9  2  0
  7  3  1  0
  1 10  1  0
  1 11  1  0
  1 12  1  0
  2 13  1  0
  2 14  1  0
  4 15  1  0
  5 16  1  0
  6 17  1  0
  7 18  1  0
  8 19  1  0
M  END
