
     RDKit          3D

 19 20  0  0  0  0  0  0  0  0999 V2000
    2.1823    0.4958   -0.1026 C   0  0  0  0  0  0  0  0  0  0  0  0
    1.1446   -0.1400    0.8355 C   0  0  0  0  0  0  0  0  0  0  0  0
   -0.0977   -0.2789    0.1411 C   0  0  0  0  0  0  0  0  0  0  0  0
   -0.7781    0.9886   -0.4021 C   0  0  0  0  0  0  0  0  0  0  0  0
   -1.9958    0.0595   -0.4263 C   0  0  0  0  0  0  0  0  0  0  0  0
   -1.3966   -0.5020    0.8723 C   0  0  0  0  0  0  0  0  0  0  0  0
   -1.6073   -0.9052   -1.3684 O   0  0  0  0  0  0  0  0  0  0  0  0
   -0.2642   -1.1660   -1.0112 C   0  0  0  0  0  0  0  0  0  0  0  0
    0.5687   -1.9391   -1.5266 O   0  0  0  0  0  0  0  0  0  0  0  0
    3.2082    0.2034    0.1735 H   0  0  0  0  0  0  0  0  0  0  0  0
    2.0221    1.5715   -0.1900 H   0  0  0  0  0  0  0  0  0  0  0  0
    1.9507    0.0612   -1.1140 H   0  0  0  0  0  0  0  0  0  0  0  0
    1.0448    0.5790    1.6748 H   0  0  0  0  0  0  0  0  0  0  0  0
    1.5072   -1.0921    1.2161 H   0  0  0  0  0  0  0  0  0  0  0  0
   -0.3674    1.1957   -1.3974 H   0  0  0  0  0  0  0  0  0  0  0  0
   -0.8474    1.8110    0.3093 H   0  0  0  0  0  0  0  0  0  0  0  0
   -2.9578    0.4743   -0.4025 H   0  0  0  0  0  0  0  0  0  0  0  0
   -1.5884    0.1252    1.7379 H   0  0  0  0  0  0  0  0  0  0  0  0
   -1.7278   -1.5420    0.9807 H   0  0  0  0  0  0  0  0  0  0  0  0
  1  2  1  0
  2  3  1  0
  3  4  1  0
  4  5  1  0
  5  6  1  0
  5  7  1  0
  7  8  1  0
  8  9  2  0
  6  3  1  0
  8  3  1  0
  1 10  1  0
  1 11  1  0
  1 12  1  0
  2 13  1  0
  2 14  1  0
  4 15  1  0
  4 16  1  0
  5 17  1  0
  6 18  1  0
  6 19  1  0
M  END
