
     RDKit          3D

 23 24  0  0  0  0  0  0  0  0999 V2000
    2.4919    0.2693    0.2440 C   0  0  0  0  0  0  0  0  0  0  0  0
    1.5770   -0.6762   -0.4934 C   0  0  0  0  0  0  0  0  0  0  0  0
    0.1977   -0.3116   -0.2642 C   0  0  0  0  0  0  0  0  0  0  0  0
   -0.3296    1.0221   -0.6513 C   0  0  0  0  0  0  0  0  0  0  0  0
   -1.7756    0.8719   -0.1371 C   0  0  0  0  0  0  0  0  0  0  0  0
   -2.0258    1.7395    0.9039 O   0  0  0  0  0  0  0  0  0  0  0  0
   -1.7164   -0.5541    0.3229 C   0  0  0  0  0  0  0  0  0  0  0  0
   -0.4077   -0.5667    1.1116 C   0  0  0  0  0  0  0  0  0  0  0  0
   -0.8970   -1.2399   -0.7820 C   0  0  0  0  0  0  0  0  0  0  0  0
    2.8277   -0.1656    1.2275 H   0  0  0  0  0  0  0  0  0  0  0  0
    3.4209    0.3655   -0.3558 H   0  0  0  0  0  0  0  0  0  0  0  0
    2.0649    1.2683    0.4002 H   0  0  0  0  0  0  0  0  0  0  0  0
    1.8128   -0.6485   -1.5672 H   0  0  0  0  0  0  0  0  0  0  0  0
    1.7748   -1.6897   -0.0852 H   0  0  0  0  0  0  0  0  0  0  0  0
   -0.4107    1.0454   -1.7699 H   0  0  0  0  0  0  0  0  0  0  0  0
    0.1678    1.8808   -0.2218 H   0  0  0  0  0  0  0  0  0  0  0  0
   -2.5051    1.0281   -0.9317 H   0  0  0  0  0  0  0  0  0  0  0  0
   -1.2374    2.0117    1.4100 H   0  0  0  0  0  0  0  0  0  0  0  0
   -2.5555   -1.0527    0.7096 H   0  0  0  0  0  0  0  0  0  0  0  0
   -0.2463   -1.5753    1.5125 H   0  0  0  0  0  0  0  0  0  0  0  0
   -0.2992    0.2472    1.8289 H   0  0  0  0  0  0  0  0  0  0  0  0
   -1.2306   -0.9701   -1.8037 H   0  0  0  0  0  0  0  0  0  0  0  0
   -0.6987   -2.2992   -0.6079 H   0  0  0  0  0  0  0  0  0  0  0  0
  1  2  1  0
  2  3  1  0
  3  4  1  0
  4  5  1  0
  5  6  1  0
  5  7  1  0
  7  8  1  0
  7  9  1  0
  8  3  1  0
  9  3  1  0
  1 10  1  0
  1 11  1  0
  1 12  1  0
  2 13  1  0
  2 14  1  0
  4 15  1  0
  4 16  1  0
  5 17  1  0
  6 18  1  0
  7 19  1  0
  8 20  1  0
  8 21  1  0
  9 22  1  0
  9 23  1  0
M  END
