
     RDKit          3D

 23 23  0  0  0  0  0  0  0  0999 V2000
   -2.7979   -0.3122   -0.9180 C   0  0  0  0  0  0  0  0  0  0  0  0
   -1.7724    0.4963   -0.1536 C   0  0  0  0  0  0  0  0  0  0  0  0
   -0.9078   -0.3599    0.7154 C   0  0  0  0  0  0  0  0  0  0  0  0
   -0.0802   -1.4230    0.1150 C   0  0  0  0  0  0  0  0  0  0  0  0
    0.5903   -0.1570    0.6003 C   0  0  0  0  0  0  0  0  0  0  0  0
    1.3766   -0.2897    1.8488 C   0  0  0  0  0  0  0  0  0  0  0  0
    0.9705   -1.0048    2.7302 O   0  0  0  0  0  0  0  0  0  0  0  0
    1.1093    0.7390   -0.4910 C   0  0  0  0  0  0  0  0  0  0  0  0
    2.5924    0.8583   -0.5022 C   0  0  0  0  0  0  0  0  0  0  0  0
   -2.3354   -1.2444   -1.3081 H   0  0  0  0  0  0  0  0  0  0  0  0
   -3.7037   -0.5290   -0.3183 H   0  0  0  0  0  0  0  0  0  0  0  0
   -3.1033    0.2841   -1.8084 H   0  0  0  0  0  0  0  0  0  0  0  0
   -1.1203    0.9751   -0.9422 H   0  0  0  0  0  0  0  0  0  0  0  0
   -2.2653    1.2551    0.4552 H   0  0  0  0  0  0  0  0  0  0  0  0
   -1.2918   -0.4587    1.7723 H   0  0  0  0  0  0  0  0  0  0  0  0
    0.1587   -2.3681    0.6468 H   0  0  0  0  0  0  0  0  0  0  0  0
   -0.2208   -1.5595   -0.9869 H   0  0  0  0  0  0  0  0  0  0  0  0
    2.2952    0.2457    1.9625 H   0  0  0  0  0  0  0  0  0  0  0  0
    0.6876    1.7712   -0.4041 H   0  0  0  0  0  0  0  0  0  0  0  0
    0.7873    0.3305   -1.4664 H   0  0  0  0  0  0  0  0  0  0  0  0
    2.9589    1.7952    0.0058 H   0  0  0  0  0  0  0  0  0  0  0  0
    3.1153    0.0183   -0.0067 H   0  0  0  0  0  0  0  0  0  0  0  0
    2.9568    0.9375   -1.5464 H   0  0  0  0  0  0  0  0  0  0  0  0
  1  2  1  0
  2  3  1  0
  3  4  1  0
  4  5  1  0
  5  6  1  0
  6  7  2  0
  5  8  1  0
  8  9  1  0
  5  3  1  0
  1 10  1  0
  1 11  1  0
  1 12  1  0
  2 13  1  0
  2 14  1  0
  3 15  1  0
  4 16  1  0
  4 17  1  0
  6 18  1  0
  8 19  1  0
  8 20  1  0
  9 21  1  0
  9 22  1  0
  9 23  1  0
M  END
