
     RDKit          3D

 21 22  0  0  0  0  0  0  0  0999 V2000
   -2.8244   -0.0812   -0.0252 C   0  0  0  0  0  0  0  0  0  0  0  0
   -1.5902   -0.2844   -0.9205 C   0  0  0  0  0  0  0  0  0  0  0  0
   -0.4634    0.4089   -0.2496 C   0  0  0  0  0  0  0  0  0  0  0  0
    0.8858    0.3993   -0.8726 C   0  0  0  0  0  0  0  0  0  0  0  0
    1.0165   -1.0199   -0.4059 C   0  0  0  0  0  0  0  0  0  0  0  0
    0.3646   -0.3464    0.7426 C   0  0  0  0  0  0  0  0  0  0  0  0
    1.3748    0.7606    0.5095 C   0  0  0  0  0  0  0  0  0  0  0  0
    2.7650    0.4520    0.8193 C   0  0  0  0  0  0  0  0  0  0  0  0
    3.1558   -0.3705    1.6320 O   0  0  0  0  0  0  0  0  0  0  0  0
   -2.9074    1.0370    0.0798 H   0  0  0  0  0  0  0  0  0  0  0  0
   -2.5265   -0.4514    0.9721 H   0  0  0  0  0  0  0  0  0  0  0  0
   -3.7154   -0.5450   -0.4438 H   0  0  0  0  0  0  0  0  0  0  0  0
   -1.4421   -1.3344   -1.1594 H   0  0  0  0  0  0  0  0  0  0  0  0
   -1.7637    0.2382   -1.9072 H   0  0  0  0  0  0  0  0  0  0  0  0
   -0.7235    1.4086    0.2051 H   0  0  0  0  0  0  0  0  0  0  0  0
    1.1902    0.7935   -1.7357 H   0  0  0  0  0  0  0  0  0  0  0  0
    0.4992   -1.8045   -0.9450 H   0  0  0  0  0  0  0  0  0  0  0  0
    2.1039   -1.2715   -0.2511 H   0  0  0  0  0  0  0  0  0  0  0  0
    0.0892   -0.7107    1.6291 H   0  0  0  0  0  0  0  0  0  0  0  0
    0.9617    1.7209    0.8180 H   0  0  0  0  0  0  0  0  0  0  0  0
    3.5500    1.0006    0.2813 H   0  0  0  0  0  0  0  0  0  0  0  0
  1  2  1  0
  2  3  1  0
  3  4  1  0
  4  5  1  0
  5  6  1  0
  6  7  1  0
  7  8  1  0
  8  9  2  0
  6  3  1  0
  7  4  1  0
  1 10  1  0
  1 11  1  0
  1 12  1  0
  2 13  1  0
  2 14  1  0
  3 15  1  0
  4 16  1  0
  5 17  1  0
  5 18  1  0
  6 19  1  0
  7 20  1  0
  8 21  1  0
M  END
