
     RDKit          3D

 23 24  0  0  0  0  0  0  0  0999 V2000
    2.0931   -0.9703    0.6569 C   0  0  0  0  0  0  0  0  0  0  0  0
    1.5107    0.3895    0.4636 C   0  0  0  0  0  0  0  0  0  0  0  0
    0.2220    0.4683   -0.1673 C   0  0  0  0  0  0  0  0  0  0  0  0
   -0.0284   -0.0453   -1.5408 C   0  0  0  0  0  0  0  0  0  0  0  0
   -1.4245    0.1946   -1.6414 O   0  0  0  0  0  0  0  0  0  0  0  0
   -1.6996    0.8959   -0.4952 C   0  0  0  0  0  0  0  0  0  0  0  0
   -0.4865    1.8102   -0.2528 C   0  0  0  0  0  0  0  0  0  0  0  0
   -1.0180    0.0115    0.5650 C   0  0  0  0  0  0  0  0  0  0  0  0
   -1.3614   -1.4254    0.4732 C   0  0  0  0  0  0  0  0  0  0  0  0
    2.2187   -1.5491   -0.2608 H   0  0  0  0  0  0  0  0  0  0  0  0
    1.4530   -1.5027    1.4064 H   0  0  0  0  0  0  0  0  0  0  0  0
    3.1179   -0.8361    1.0902 H   0  0  0  0  0  0  0  0  0  0  0  0
    2.2390    1.0557   -0.0737 H   0  0  0  0  0  0  0  0  0  0  0  0
    1.4403    0.8558    1.4917 H   0  0  0  0  0  0  0  0  0  0  0  0
    0.2317   -1.0772   -1.7258 H   0  0  0  0  0  0  0  0  0  0  0  0
    0.4324    0.6835   -2.2635 H   0  0  0  0  0  0  0  0  0  0  0  0
   -2.6588    1.2767   -0.2749 H   0  0  0  0  0  0  0  0  0  0  0  0
   -0.5229    2.3061    0.7113 H   0  0  0  0  0  0  0  0  0  0  0  0
   -0.1974    2.4053   -1.1293 H   0  0  0  0  0  0  0  0  0  0  0  0
   -1.0743    0.4735    1.5820 H   0  0  0  0  0  0  0  0  0  0  0  0
   -0.6315   -2.0399   -0.0869 H   0  0  0  0  0  0  0  0  0  0  0  0
   -2.3377   -1.5623   -0.0404 H   0  0  0  0  0  0  0  0  0  0  0  0
   -1.5180   -1.8181    1.5126 H   0  0  0  0  0  0  0  0  0  0  0  0
  1  2  1  0
  2  3  1  0
  3  4  1  0
  4  5  1  0
  5  6  1  0
  6  7  1  0
  6  8  1  0
  8  9  1  0
  7  3  1  0
  8  3  1  0
  1 10  1  0
  1 11  1  0
  1 12  1  0
  2 13  1  0
  2 14  1  0
  4 15  1  0
  4 16  1  0
  6 17  1  0
  7 18  1  0
  7 19  1  0
  8 20  1  0
  9 21  1  0
  9 22  1  0
  9 23  1  0
M  END
