
     RDKit          3D

 19 20  0  0  0  0  0  0  0  0999 V2000
    2.2906   -0.4385    0.4681 C   0  0  0  0  0  0  0  0  0  0  0  0
    1.3016   -0.7055   -0.6355 C   0  0  0  0  0  0  0  0  0  0  0  0
    0.1212    0.1665   -0.5272 C   0  0  0  0  0  0  0  0  0  0  0  0
   -0.8179   -0.1318   -1.6287 O   0  0  0  0  0  0  0  0  0  0  0  0
   -1.1985    0.0166   -0.3275 C   0  0  0  0  0  0  0  0  0  0  0  0
   -1.9636   -1.0060    0.4222 C   0  0  0  0  0  0  0  0  0  0  0  0
   -1.3289    1.4973    0.0794 C   0  0  0  0  0  0  0  0  0  0  0  0
    0.1439    1.5389   -0.0700 C   0  0  0  0  0  0  0  0  0  0  0  0
    1.0010    2.3575    0.1091 O   0  0  0  0  0  0  0  0  0  0  0  0
    3.1266   -1.1863    0.4319 H   0  0  0  0  0  0  0  0  0  0  0  0
    1.8399   -0.4452    1.4703 H   0  0  0  0  0  0  0  0  0  0  0  0
    2.7424    0.5704    0.2485 H   0  0  0  0  0  0  0  0  0  0  0  0
    1.8218   -0.4589   -1.6009 H   0  0  0  0  0  0  0  0  0  0  0  0
    1.0206   -1.7712   -0.6994 H   0  0  0  0  0  0  0  0  0  0  0  0
   -1.9705   -0.7015    1.5062 H   0  0  0  0  0  0  0  0  0  0  0  0
   -3.0155   -1.0068    0.0271 H   0  0  0  0  0  0  0  0  0  0  0  0
   -1.4905   -1.9908    0.3778 H   0  0  0  0  0  0  0  0  0  0  0  0
   -1.7332    1.6553    1.0802 H   0  0  0  0  0  0  0  0  0  0  0  0
   -1.8909    2.0401   -0.7316 H   0  0  0  0  0  0  0  0  0  0  0  0
  1  2  1  0
  2  3  1  0
  3  4  1  0
  4  5  1  0
  5  6  1  0
  5  7  1  0
  7  8  1  0
  8  9  2  0
  5  3  1  0
  8  3  1  0
  1 10  1  0
  1 11  1  0
  1 12  1  0
  2 13  1  0
  2 14  1  0
  6 15  1  0
  6 16  1  0
  6 17  1  0
  7 18  1  0
  7 19  1  0
M  END
