
     RDKit          3D

 23 23  0  0  0  0  0  0  0  0999 V2000
   -2.6659    0.5912   -1.0286 C   0  0  0  0  0  0  0  0  0  0  0  0
   -1.9114   -0.5762   -0.4186 C   0  0  0  0  0  0  0  0  0  0  0  0
   -0.8649   -0.0698    0.5261 C   0  0  0  0  0  0  0  0  0  0  0  0
    0.0210   -0.9981    1.2629 C   0  0  0  0  0  0  0  0  0  0  0  0
   -0.2573   -2.3517    1.0615 O   0  0  0  0  0  0  0  0  0  0  0  0
    0.5634   -0.2113    0.1385 C   0  0  0  0  0  0  0  0  0  0  0  0
    1.4142    1.0098    0.3526 C   0  0  0  0  0  0  0  0  0  0  0  0
    2.8442    0.7670   -0.0701 C   0  0  0  0  0  0  0  0  0  0  0  0
    2.8475    0.4430   -1.4069 O   0  0  0  0  0  0  0  0  0  0  0  0
   -2.3093    0.8217   -2.0599 H   0  0  0  0  0  0  0  0  0  0  0  0
   -2.4424    1.5040   -0.4239 H   0  0  0  0  0  0  0  0  0  0  0  0
   -3.7499    0.3636   -1.0182 H   0  0  0  0  0  0  0  0  0  0  0  0
   -2.6024   -1.3082    0.0454 H   0  0  0  0  0  0  0  0  0  0  0  0
   -1.4083   -1.0950   -1.2464 H   0  0  0  0  0  0  0  0  0  0  0  0
   -1.1627    0.8453    1.1046 H   0  0  0  0  0  0  0  0  0  0  0  0
    0.3513   -0.7303    2.2981 H   0  0  0  0  0  0  0  0  0  0  0  0
   -1.1973   -2.4925    1.3500 H   0  0  0  0  0  0  0  0  0  0  0  0
    0.8174   -0.7895   -0.7702 H   0  0  0  0  0  0  0  0  0  0  0  0
    1.3735    1.3471    1.4039 H   0  0  0  0  0  0  0  0  0  0  0  0
    0.9634    1.8284   -0.2526 H   0  0  0  0  0  0  0  0  0  0  0  0
    3.4012    1.7118    0.1358 H   0  0  0  0  0  0  0  0  0  0  0  0
    3.2610   -0.0740    0.4957 H   0  0  0  0  0  0  0  0  0  0  0  0
    2.7135   -0.5363   -1.4798 H   0  0  0  0  0  0  0  0  0  0  0  0
  1  2  1  0
  2  3  1  0
  3  4  1  0
  4  5  1  0
  4  6  1  0
  6  7  1  0
  7  8  1  0
  8  9  1  0
  6  3  1  0
  1 10  1  0
  1 11  1  0
  1 12  1  0
  2 13  1  0
  2 14  1  0
  3 15  1  0
  4 16  1  0
  5 17  1  0
  6 18  1  0
  7 19  1  0
  7 20  1  0
  8 21  1  0
  8 22  1  0
  9 23  1  0
M  END
