
     RDKit          3D

 21 22  0  0  0  0  0  0  0  0999 V2000
    2.3508    0.0157   -0.0892 C   0  0  0  0  0  0  0  0  0  0  0  0
    1.0516   -0.2139   -0.8193 C   0  0  0  0  0  0  0  0  0  0  0  0
   -0.1539    0.1858    0.0269 C   0  0  0  0  0  0  0  0  0  0  0  0
   -0.1267    1.6459    0.4150 C   0  0  0  0  0  0  0  0  0  0  0  0
   -1.4189   -0.2350   -0.7203 C   0  0  0  0  0  0  0  0  0  0  0  0
   -2.4731    0.6174   -0.3921 O   0  0  0  0  0  0  0  0  0  0  0  0
   -1.4466   -1.4364    0.2067 C   0  0  0  0  0  0  0  0  0  0  0  0
   -1.6975   -1.1347    1.5116 O   0  0  0  0  0  0  0  0  0  0  0  0
   -0.4379   -0.7829    1.1190 C   0  0  0  0  0  0  0  0  0  0  0  0
    2.1390    0.3099    0.9475 H   0  0  0  0  0  0  0  0  0  0  0  0
    2.9558    0.8287   -0.5636 H   0  0  0  0  0  0  0  0  0  0  0  0
    2.9695   -0.9144   -0.1424 H   0  0  0  0  0  0  0  0  0  0  0  0
    1.0442    0.4600   -1.7195 H   0  0  0  0  0  0  0  0  0  0  0  0
    0.9728   -1.2575   -1.1377 H   0  0  0  0  0  0  0  0  0  0  0  0
   -1.0833    1.8613    0.9290 H   0  0  0  0  0  0  0  0  0  0  0  0
    0.7537    1.8035    1.0491 H   0  0  0  0  0  0  0  0  0  0  0  0
   -0.1296    2.2585   -0.5133 H   0  0  0  0  0  0  0  0  0  0  0  0
   -1.2833   -0.4559   -1.7791 H   0  0  0  0  0  0  0  0  0  0  0  0
   -3.0614    0.2661    0.2959 H   0  0  0  0  0  0  0  0  0  0  0  0
   -1.3082   -2.4359   -0.1761 H   0  0  0  0  0  0  0  0  0  0  0  0
    0.3831   -1.3864    1.5519 H   0  0  0  0  0  0  0  0  0  0  0  0
  1  2  1  0
  2  3  1  0
  3  4  1  0
  3  5  1  0
  5  6  1  0
  5  7  1  0
  7  8  1  0
  8  9  1  0
  9  3  1  0
  9  7  1  0
  1 10  1  0
  1 11  1  0
  1 12  1  0
  2 13  1  0
  2 14  1  0
  4 15  1  0
  4 16  1  0
  4 17  1  0
  5 18  1  0
  6 19  1  0
  7 20  1  0
  9 21  1  0
M  END
