
     RDKit          3D

 23 24  0  0  0  0  0  0  0  0999 V2000
   -1.7829    1.3162    0.1142 C   0  0  0  0  0  0  0  0  0  0  0  0
   -2.3459   -0.0609    0.1429 C   0  0  0  0  0  0  0  0  0  0  0  0
   -1.3528   -1.1556    0.2049 C   0  0  0  0  0  0  0  0  0  0  0  0
   -0.4913   -1.2163    1.2643 O   0  0  0  0  0  0  0  0  0  0  0  0
    0.4466   -1.7803    0.3712 C   0  0  0  0  0  0  0  0  0  0  0  0
    1.1628   -0.7763   -0.4410 C   0  0  0  0  0  0  0  0  0  0  0  0
    1.6916    0.4006    0.3418 C   0  0  0  0  0  0  0  0  0  0  0  0
    2.4140    1.4017   -0.5181 C   0  0  0  0  0  0  0  0  0  0  0  0
   -0.2314   -0.9767   -0.7855 C   0  0  0  0  0  0  0  0  0  0  0  0
   -1.4077    1.5861    1.1347 H   0  0  0  0  0  0  0  0  0  0  0  0
   -2.5268    2.0475   -0.2385 H   0  0  0  0  0  0  0  0  0  0  0  0
   -0.9250    1.3915   -0.6162 H   0  0  0  0  0  0  0  0  0  0  0  0
   -2.9774   -0.1925   -0.7607 H   0  0  0  0  0  0  0  0  0  0  0  0
   -3.0663   -0.1068    1.0053 H   0  0  0  0  0  0  0  0  0  0  0  0
   -1.8787   -2.1510    0.1032 H   0  0  0  0  0  0  0  0  0  0  0  0
    0.5138   -2.8506    0.2461 H   0  0  0  0  0  0  0  0  0  0  0  0
    1.9518   -1.1898   -1.1367 H   0  0  0  0  0  0  0  0  0  0  0  0
    0.9343    0.8372    0.9888 H   0  0  0  0  0  0  0  0  0  0  0  0
    2.4760   -0.0284    1.0350 H   0  0  0  0  0  0  0  0  0  0  0  0
    1.7676    2.2765   -0.7914 H   0  0  0  0  0  0  0  0  0  0  0  0
    3.3038    1.8327   -0.0178 H   0  0  0  0  0  0  0  0  0  0  0  0
    2.7486    0.9561   -1.4712 H   0  0  0  0  0  0  0  0  0  0  0  0
   -0.4248   -1.5610   -1.7296 H   0  0  0  0  0  0  0  0  0  0  0  0
  1  2  1  0
  2  3  1  0
  3  4  1  0
  4  5  1  0
  5  6  1  0
  6  7  1  0
  7  8  1  0
  6  9  1  0
  9  3  1  0
  9  5  1  0
  1 10  1  0
  1 11  1  0
  1 12  1  0
  2 13  1  0
  2 14  1  0
  3 15  1  0
  5 16  1  0
  6 17  1  0
  7 18  1  0
  7 19  1  0
  8 20  1  0
  8 21  1  0
  8 22  1  0
  9 23  1  0
M  END
