
     RDKit          3D

 23 23  0  0  0  0  0  0  0  0999 V2000
   -2.9111    0.4057   -0.4741 C   0  0  0  0  0  0  0  0  0  0  0  0
   -1.4866    0.9376   -0.4734 C   0  0  0  0  0  0  0  0  0  0  0  0
   -0.7363    0.3252    0.6937 C   0  0  0  0  0  0  0  0  0  0  0  0
   -0.6810   -1.1683    0.6163 C   0  0  0  0  0  0  0  0  0  0  0  0
    0.8343   -1.4001    0.5426 C   0  0  0  0  0  0  0  0  0  0  0  0
    1.2295   -0.0790   -0.1253 C   0  0  0  0  0  0  0  0  0  0  0  0
    2.7242    0.1417   -0.0407 C   0  0  0  0  0  0  0  0  0  0  0  0
    2.9463    1.4672   -0.4636 O   0  0  0  0  0  0  0  0  0  0  0  0
    0.5618    0.8208    0.6991 O   0  0  0  0  0  0  0  0  0  0  0  0
   -3.6649    1.2144   -0.5019 H   0  0  0  0  0  0  0  0  0  0  0  0
   -3.1233   -0.1733    0.4589 H   0  0  0  0  0  0  0  0  0  0  0  0
   -3.0425   -0.2512   -1.3353 H   0  0  0  0  0  0  0  0  0  0  0  0
   -0.9697    0.7564   -1.4166 H   0  0  0  0  0  0  0  0  0  0  0  0
   -1.5715    2.0364   -0.3511 H   0  0  0  0  0  0  0  0  0  0  0  0
   -1.2086    0.6397    1.6493 H   0  0  0  0  0  0  0  0  0  0  0  0
   -1.1285   -1.5745   -0.3138 H   0  0  0  0  0  0  0  0  0  0  0  0
   -1.0688   -1.6747    1.5130 H   0  0  0  0  0  0  0  0  0  0  0  0
    1.2526   -1.3785    1.5529 H   0  0  0  0  0  0  0  0  0  0  0  0
    1.0891   -2.2666   -0.0639 H   0  0  0  0  0  0  0  0  0  0  0  0
    0.8567   -0.0928   -1.1482 H   0  0  0  0  0  0  0  0  0  0  0  0
    3.2803   -0.5869   -0.6334 H   0  0  0  0  0  0  0  0  0  0  0  0
    3.0376    0.1080    1.0198 H   0  0  0  0  0  0  0  0  0  0  0  0
    3.7804    1.7927   -0.0232 H   0  0  0  0  0  0  0  0  0  0  0  0
  1  2  1  0
  2  3  1  0
  3  4  1  0
  4  5  1  0
  5  6  1  0
  6  7  1  0
  7  8  1  0
  6  9  1  0
  9  3  1  0
  1 10  1  0
  1 11  1  0
  1 12  1  0
  2 13  1  0
  2 14  1  0
  3 15  1  0
  4 16  1  0
  4 17  1  0
  5 18  1  0
  5 19  1  0
  6 20  1  0
  7 21  1  0
  7 22  1  0
  8 23  1  0
M  END
