
     RDKit          3D

 23 24  0  0  0  0  0  0  0  0999 V2000
    3.1943    0.3768    0.2096 C   0  0  0  0  0  0  0  0  0  0  0  0
    2.2177   -0.3297   -0.7383 C   0  0  0  0  0  0  0  0  0  0  0  0
    0.9105   -0.4032   -0.0261 C   0  0  0  0  0  0  0  0  0  0  0  0
   -0.2222   -1.0657   -0.7691 C   0  0  0  0  0  0  0  0  0  0  0  0
   -0.9454    0.0487   -0.1338 C   0  0  0  0  0  0  0  0  0  0  0  0
   -2.1874    0.5660   -0.6944 C   0  0  0  0  0  0  0  0  0  0  0  0
   -2.7034    0.7954    0.7330 C   0  0  0  0  0  0  0  0  0  0  0  0
   -1.5966   -0.1689    1.1831 C   0  0  0  0  0  0  0  0  0  0  0  0
    0.1973    0.8124   -0.1613 O   0  0  0  0  0  0  0  0  0  0  0  0
    3.6873   -0.3834    0.8260 H   0  0  0  0  0  0  0  0  0  0  0  0
    3.8960    1.0206   -0.3161 H   0  0  0  0  0  0  0  0  0  0  0  0
    2.6118    1.0501    0.9043 H   0  0  0  0  0  0  0  0  0  0  0  0
    2.6002   -1.3547   -0.9803 H   0  0  0  0  0  0  0  0  0  0  0  0
    2.1341    0.3142   -1.6331 H   0  0  0  0  0  0  0  0  0  0  0  0
    0.9503   -0.7249    1.0335 H   0  0  0  0  0  0  0  0  0  0  0  0
   -0.1301   -1.0176   -1.8629 H   0  0  0  0  0  0  0  0  0  0  0  0
   -0.5033   -2.0638   -0.3551 H   0  0  0  0  0  0  0  0  0  0  0  0
   -2.1784    1.5038   -1.2806 H   0  0  0  0  0  0  0  0  0  0  0  0
   -2.8508   -0.1780   -1.2172 H   0  0  0  0  0  0  0  0  0  0  0  0
   -3.6711    0.3505    0.9519 H   0  0  0  0  0  0  0  0  0  0  0  0
   -2.5136    1.8299    1.0208 H   0  0  0  0  0  0  0  0  0  0  0  0
   -1.9331   -1.2121    1.3013 H   0  0  0  0  0  0  0  0  0  0  0  0
   -0.9643    0.2338    2.0049 H   0  0  0  0  0  0  0  0  0  0  0  0
  1  2  1  0
  2  3  1  0
  3  4  1  0
  4  5  1  0
  5  6  1  0
  6  7  1  0
  7  8  1  0
  5  9  1  0
  9  3  1  0
  8  5  1  0
  1 10  1  0
  1 11  1  0
  1 12  1  0
  2 13  1  0
  2 14  1  0
  3 15  1  0
  4 16  1  0
  4 17  1  0
  6 18  1  0
  6 19  1  0
  7 20  1  0
  7 21  1  0
  8 22  1  0
  8 23  1  0
M  END
