
     RDKit          3D

 21 21  0  0  0  0  0  0  0  0999 V2000
    1.5251   -1.1142    0.9181 C   0  0  0  0  0  0  0  0  0  0  0  0
    1.2467   -0.4711   -0.3661 C   0  0  0  0  0  0  0  0  0  0  0  0
   -0.0917    0.1853   -0.5598 C   0  0  0  0  0  0  0  0  0  0  0  0
   -1.3050   -0.6574   -0.4120 C   0  0  0  0  0  0  0  0  0  0  0  0
   -1.7778   -1.3294    0.8207 C   0  0  0  0  0  0  0  0  0  0  0  0
   -2.0148   -0.8063   -1.4396 O   0  0  0  0  0  0  0  0  0  0  0  0
   -0.2831    1.4947    0.2037 C   0  0  0  0  0  0  0  0  0  0  0  0
   -0.1344    1.5019   -1.2816 C   0  0  0  0  0  0  0  0  0  0  0  0
    1.0602    2.1338   -1.6859 O   0  0  0  0  0  0  0  0  0  0  0  0
    1.9364   -2.1611    0.7582 H   0  0  0  0  0  0  0  0  0  0  0  0
    0.7364   -1.1979    1.6422 H   0  0  0  0  0  0  0  0  0  0  0  0
    2.3897   -0.5728    1.4415 H   0  0  0  0  0  0  0  0  0  0  0  0
    2.0865    0.2660   -0.5931 H   0  0  0  0  0  0  0  0  0  0  0  0
    1.3530   -1.2306   -1.1989 H   0  0  0  0  0  0  0  0  0  0  0  0
   -2.9220   -1.1363    0.7985 H   0  0  0  0  0  0  0  0  0  0  0  0
   -1.5993   -2.4062    0.8991 H   0  0  0  0  0  0  0  0  0  0  0  0
   -1.4787   -0.8341    1.7578 H   0  0  0  0  0  0  0  0  0  0  0  0
   -1.2674    1.7221    0.6126 H   0  0  0  0  0  0  0  0  0  0  0  0
    0.5494    1.7636    0.8725 H   0  0  0  0  0  0  0  0  0  0  0  0
   -1.0159    1.8018   -1.9046 H   0  0  0  0  0  0  0  0  0  0  0  0
    1.0064    3.0482   -1.2834 H   0  0  0  0  0  0  0  0  0  0  0  0
  1  2  1  0
  2  3  1  0
  3  4  1  0
  4  5  1  0
  4  6  2  0
  3  7  1  0
  7  8  1  0
  8  9  1  0
  8  3  1  0
  1 10  1  0
  1 11  1  0
  1 12  1  0
  2 13  1  0
  2 14  1  0
  5 15  1  0
  5 16  1  0
  5 17  1  0
  7 18  1  0
  7 19  1  0
  8 20  1  0
  9 21  1  0
M  END
