
     RDKit          3D

 25 26  0  0  0  0  0  0  0  0999 V2000
    3.4664    0.6168    0.4472 C   0  0  0  0  0  0  0  0  0  0  0  0
    2.5868   -0.2798   -0.4162 C   0  0  0  0  0  0  0  0  0  0  0  0
    1.1712    0.2124   -0.3697 C   0  0  0  0  0  0  0  0  0  0  0  0
    0.5678    0.2241    1.0230 C   0  0  0  0  0  0  0  0  0  0  0  0
    0.0383   -0.6593   -0.0141 C   0  0  0  0  0  0  0  0  0  0  0  0
   -1.3277   -0.4696   -0.6080 C   0  0  0  0  0  0  0  0  0  0  0  0
   -1.9882    0.8515   -0.3598 C   0  0  0  0  0  0  0  0  0  0  0  0
   -3.3106    0.0864   -0.2008 C   0  0  0  0  0  0  0  0  0  0  0  0
   -2.4462   -1.1091    0.2251 C   0  0  0  0  0  0  0  0  0  0  0  0
    2.8594    1.4440    0.9006 H   0  0  0  0  0  0  0  0  0  0  0  0
    4.2535    1.1229   -0.1469 H   0  0  0  0  0  0  0  0  0  0  0  0
    3.9450    0.0607    1.2701 H   0  0  0  0  0  0  0  0  0  0  0  0
    2.6001   -1.2857    0.0585 H   0  0  0  0  0  0  0  0  0  0  0  0
    2.9832   -0.4072   -1.4320 H   0  0  0  0  0  0  0  0  0  0  0  0
    0.9594    1.0570   -1.0481 H   0  0  0  0  0  0  0  0  0  0  0  0
    0.1361    1.1989    1.2956 H   0  0  0  0  0  0  0  0  0  0  0  0
    1.1625   -0.2206    1.8634 H   0  0  0  0  0  0  0  0  0  0  0  0
    0.3081   -1.7502    0.0990 H   0  0  0  0  0  0  0  0  0  0  0  0
   -1.4471   -0.7755   -1.6537 H   0  0  0  0  0  0  0  0  0  0  0  0
   -2.0608    1.5358   -1.2227 H   0  0  0  0  0  0  0  0  0  0  0  0
   -1.7703    1.3563    0.5874 H   0  0  0  0  0  0  0  0  0  0  0  0
   -3.9582    0.4805    0.6057 H   0  0  0  0  0  0  0  0  0  0  0  0
   -3.7887   -0.1457   -1.1533 H   0  0  0  0  0  0  0  0  0  0  0  0
   -2.7906   -2.0777   -0.1260 H   0  0  0  0  0  0  0  0  0  0  0  0
   -2.1493   -1.0667    1.2927 H   0  0  0  0  0  0  0  0  0  0  0  0
  1  2  1  0
  2  3  1  0
  3  4  1  0
  4  5  1  0
  5  6  1  0
  6  7  1  0
  7  8  1  0
  8  9  1  0
  5  3  1  0
  9  6  1  0
  1 10  1  0
  1 11  1  0
  1 12  1  0
  2 13  1  0
  2 14  1  0
  3 15  1  0
  4 16  1  0
  4 17  1  0
  5 18  1  0
  6 19  1  0
  7 20  1  0
  7 21  1  0
  8 22  1  0
  8 23  1  0
  9 24  1  0
  9 25  1  0
M  END
