
     RDKit          3D

 23 25  0  0  0  0  0  0  0  0999 V2000
    2.7515    0.5413   -0.6603 C   0  0  0  0  0  0  0  0  0  0  0  0
    2.0090    0.0243    0.5870 C   0  0  0  0  0  0  0  0  0  0  0  0
    0.5827    0.3118    0.3862 C   0  0  0  0  0  0  0  0  0  0  0  0
   -0.1646   -0.2503   -0.7639 C   0  0  0  0  0  0  0  0  0  0  0  0
   -0.1437   -1.5669   -0.0222 C   0  0  0  0  0  0  0  0  0  0  0  0
   -0.4551   -0.5686    1.0411 C   0  0  0  0  0  0  0  0  0  0  0  0
   -1.3668    0.0248    0.0453 C   0  0  0  0  0  0  0  0  0  0  0  0
   -2.7312   -0.1912   -0.2155 C   0  0  0  0  0  0  0  0  0  0  0  0
   -2.1471    1.2214    0.1313 C   0  0  0  0  0  0  0  0  0  0  0  0
    2.2841   -0.0099   -1.5098 H   0  0  0  0  0  0  0  0  0  0  0  0
    3.8132    0.3006   -0.6245 H   0  0  0  0  0  0  0  0  0  0  0  0
    2.5252    1.6157   -0.8197 H   0  0  0  0  0  0  0  0  0  0  0  0
    2.3095   -1.0347    0.6700 H   0  0  0  0  0  0  0  0  0  0  0  0
    2.4204    0.6154    1.4624 H   0  0  0  0  0  0  0  0  0  0  0  0
    0.2851    1.3825    0.5761 H   0  0  0  0  0  0  0  0  0  0  0  0
   -0.0025   -0.1262   -1.7451 H   0  0  0  0  0  0  0  0  0  0  0  0
   -1.0482   -2.1512   -0.3082 H   0  0  0  0  0  0  0  0  0  0  0  0
    0.7750   -2.1328    0.0115 H   0  0  0  0  0  0  0  0  0  0  0  0
   -0.5737   -0.7181    2.0227 H   0  0  0  0  0  0  0  0  0  0  0  0
   -3.1084   -0.2490   -1.2613 H   0  0  0  0  0  0  0  0  0  0  0  0
   -3.4720   -0.5847    0.5117 H   0  0  0  0  0  0  0  0  0  0  0  0
   -2.1206    1.9544   -0.6780 H   0  0  0  0  0  0  0  0  0  0  0  0
   -2.4218    1.5913    1.1632 H   0  0  0  0  0  0  0  0  0  0  0  0
  1  2  1  0
  2  3  1  0
  3  4  1  0
  4  5  1  0
  5  6  1  0
  6  7  1  0
  7  8  1  0
  8  9  1  0
  6  3  1  0
  9  7  1  0
  7  4  1  0
  1 10  1  0
  1 11  1  0
  1 12  1  0
  2 13  1  0
  2 14  1  0
  3 15  1  0
  4 16  1  0
  5 17  1  0
  5 18  1  0
  6 19  1  0
  8 20  1  0
  8 21  1  0
  9 22  1  0
  9 23  1  0
M  END
