
     RDKit          3D

 23 23  0  0  0  0  0  0  0  0999 V2000
   -2.0907    1.7645    0.3222 C   0  0  0  0  0  0  0  0  0  0  0  0
   -1.6337    0.7979   -0.7367 C   0  0  0  0  0  0  0  0  0  0  0  0
   -0.5861   -0.1584   -0.2203 C   0  0  0  0  0  0  0  0  0  0  0  0
   -1.1623   -0.9362    0.9116 C   0  0  0  0  0  0  0  0  0  0  0  0
    0.6938    0.5273    0.0930 C   0  0  0  0  0  0  0  0  0  0  0  0
    1.6514   -0.3382   -0.2147 C   0  0  0  0  0  0  0  0  0  0  0  0
    3.1323   -0.1496   -0.0911 C   0  0  0  0  0  0  0  0  0  0  0  0
    0.9707   -1.5633   -0.7075 C   0  0  0  0  0  0  0  0  0  0  0  0
   -0.2147   -1.0693   -1.2369 O   0  0  0  0  0  0  0  0  0  0  0  0
   -3.1200    2.1113    0.0279 H   0  0  0  0  0  0  0  0  0  0  0  0
   -1.3989    2.6370    0.3034 H   0  0  0  0  0  0  0  0  0  0  0  0
   -2.1877    1.3250    1.3222 H   0  0  0  0  0  0  0  0  0  0  0  0
   -1.2494    1.4180   -1.5902 H   0  0  0  0  0  0  0  0  0  0  0  0
   -2.5220    0.2722   -1.1277 H   0  0  0  0  0  0  0  0  0  0  0  0
   -2.2502   -0.6999    1.0972 H   0  0  0  0  0  0  0  0  0  0  0  0
   -0.6590   -0.7705    1.8735 H   0  0  0  0  0  0  0  0  0  0  0  0
   -1.1655   -2.0479    0.7271 H   0  0  0  0  0  0  0  0  0  0  0  0
    0.8984    1.5126    0.4874 H   0  0  0  0  0  0  0  0  0  0  0  0
    3.5714   -0.5239   -1.0477 H   0  0  0  0  0  0  0  0  0  0  0  0
    3.5673   -0.7388    0.7271 H   0  0  0  0  0  0  0  0  0  0  0  0
    3.3834    0.9206    0.0182 H   0  0  0  0  0  0  0  0  0  0  0  0
    1.5781   -2.0876   -1.4780 H   0  0  0  0  0  0  0  0  0  0  0  0
    0.7937   -2.2027    0.1869 H   0  0  0  0  0  0  0  0  0  0  0  0
  1  2  1  0
  2  3  1  0
  3  4  1  0
  3  5  1  0
  5  6  2  0
  6  7  1  0
  6  8  1  0
  8  9  1  0
  9  3  1  0
  1 10  1  0
  1 11  1  0
  1 12  1  0
  2 13  1  0
  2 14  1  0
  4 15  1  0
  4 16  1  0
  4 17  1  0
  5 18  1  0
  7 19  1  0
  7 20  1  0
  7 21  1  0
  8 22  1  0
  8 23  1  0
M  END
