
     RDKit          3D

 19 20  0  0  0  0  0  0  0  0999 V2000
   -2.3065    0.1022   -0.4909 C   0  0  0  0  0  0  0  0  0  0  0  0
   -1.3552   -0.5035    0.5543 C   0  0  0  0  0  0  0  0  0  0  0  0
   -0.0331    0.0003    0.3276 C   0  0  0  0  0  0  0  0  0  0  0  0
    0.6584   -0.2518   -0.9998 C   0  0  0  0  0  0  0  0  0  0  0  0
    1.9042    0.0934   -0.1621 C   0  0  0  0  0  0  0  0  0  0  0  0
    1.1788   -0.6741    0.9409 C   0  0  0  0  0  0  0  0  0  0  0  0
    1.5873    1.4754    0.1923 C   0  0  0  0  0  0  0  0  0  0  0  0
    2.3681    2.4510    0.1773 O   0  0  0  0  0  0  0  0  0  0  0  0
    0.2337    1.3966    0.5344 O   0  0  0  0  0  0  0  0  0  0  0  0
   -1.8007    0.9355   -1.0401 H   0  0  0  0  0  0  0  0  0  0  0  0
   -3.1658    0.5359    0.0208 H   0  0  0  0  0  0  0  0  0  0  0  0
   -2.5635   -0.6502   -1.2548 H   0  0  0  0  0  0  0  0  0  0  0  0
   -1.4034   -1.5992    0.4314 H   0  0  0  0  0  0  0  0  0  0  0  0
   -1.7328   -0.2883    1.5659 H   0  0  0  0  0  0  0  0  0  0  0  0
    0.4104    0.5208   -1.7512 H   0  0  0  0  0  0  0  0  0  0  0  0
    0.6318   -1.2916   -1.3403 H   0  0  0  0  0  0  0  0  0  0  0  0
    2.8398   -0.2249   -0.4947 H   0  0  0  0  0  0  0  0  0  0  0  0
    1.1690   -1.7577    0.8304 H   0  0  0  0  0  0  0  0  0  0  0  0
    1.3796   -0.2698    1.9585 H   0  0  0  0  0  0  0  0  0  0  0  0
  1  2  1  0
  2  3  1  0
  3  4  1  0
  4  5  1  0
  5  6  1  0
  5  7  1  0
  7  8  2  0
  7  9  1  0
  6  3  1  0
  9  3  1  0
  1 10  1  0
  1 11  1  0
  1 12  1  0
  2 13  1  0
  2 14  1  0
  4 15  1  0
  4 16  1  0
  5 17  1  0
  6 18  1  0
  6 19  1  0
M  END
