
     RDKit          3D

 23 24  0  0  0  0  0  0  0  0999 V2000
   -2.0871   -1.2829    0.0064 C   0  0  0  0  0  0  0  0  0  0  0  0
   -1.5755    0.0443    0.4771 C   0  0  0  0  0  0  0  0  0  0  0  0
   -0.4156    0.5769   -0.2619 C   0  0  0  0  0  0  0  0  0  0  0  0
   -0.0160    1.9659    0.3148 C   0  0  0  0  0  0  0  0  0  0  0  0
    1.4012    2.1110   -0.0500 C   0  0  0  0  0  0  0  0  0  0  0  0
    1.8963    0.9360   -0.3544 C   0  0  0  0  0  0  0  0  0  0  0  0
    0.8630   -0.1270   -0.2267 C   0  0  0  0  0  0  0  0  0  0  0  0
    1.2298   -1.2784    0.6003 C   0  0  0  0  0  0  0  0  0  0  0  0
    1.0487   -1.4416   -0.8548 C   0  0  0  0  0  0  0  0  0  0  0  0
   -1.5221   -2.1325    0.3939 H   0  0  0  0  0  0  0  0  0  0  0  0
   -2.0981   -1.3340   -1.1218 H   0  0  0  0  0  0  0  0  0  0  0  0
   -3.1472   -1.4147    0.3608 H   0  0  0  0  0  0  0  0  0  0  0  0
   -2.4246    0.7764    0.3267 H   0  0  0  0  0  0  0  0  0  0  0  0
   -1.4197   -0.0584    1.5744 H   0  0  0  0  0  0  0  0  0  0  0  0
   -0.7227    0.7814   -1.3078 H   0  0  0  0  0  0  0  0  0  0  0  0
   -0.6659    2.7527   -0.1162 H   0  0  0  0  0  0  0  0  0  0  0  0
   -0.1695    1.9266    1.4273 H   0  0  0  0  0  0  0  0  0  0  0  0
    1.9115    3.0984   -0.0467 H   0  0  0  0  0  0  0  0  0  0  0  0
    2.9176    0.7570   -0.6582 H   0  0  0  0  0  0  0  0  0  0  0  0
    2.3176   -1.3559    0.9147 H   0  0  0  0  0  0  0  0  0  0  0  0
    0.5948   -1.7309    1.3679 H   0  0  0  0  0  0  0  0  0  0  0  0
    0.1569   -1.9559   -1.2360 H   0  0  0  0  0  0  0  0  0  0  0  0
    1.9265   -1.6147   -1.5297 H   0  0  0  0  0  0  0  0  0  0  0  0
  1  2  1  0
  2  3  1  0
  3  4  1  0
  4  5  1  0
  5  6  2  0
  6  7  1  0
  7  8  1  0
  8  9  1  0
  7  3  1  0
  9  7  1  0
  1 10  1  0
  1 11  1  0
  1 12  1  0
  2 13  1  0
  2 14  1  0
  3 15  1  0
  4 16  1  0
  4 17  1  0
  5 18  1  0
  6 19  1  0
  8 20  1  0
  8 21  1  0
  9 22  1  0
  9 23  1  0
M  END
