
     RDKit          3D

 21 22  0  0  0  0  0  0  0  0999 V2000
   -2.5565    0.1857    0.4430 C   0  0  0  0  0  0  0  0  0  0  0  0
   -1.2837   -0.0701   -0.3596 C   0  0  0  0  0  0  0  0  0  0  0  0
   -0.0631    0.3826    0.4518 C   0  0  0  0  0  0  0  0  0  0  0  0
   -0.0628    1.8274    0.8115 C   0  0  0  0  0  0  0  0  0  0  0  0
    0.1110   -0.5054    1.5136 O   0  0  0  0  0  0  0  0  0  0  0  0
    0.9382   -1.2495    0.6864 C   0  0  0  0  0  0  0  0  0  0  0  0
    2.3022   -0.7137    0.4831 C   0  0  0  0  0  0  0  0  0  0  0  0
    3.1718   -1.5373   -0.2209 O   0  0  0  0  0  0  0  0  0  0  0  0
    1.1836   -0.1020   -0.2427 C   0  0  0  0  0  0  0  0  0  0  0  0
   -3.2966   -0.5889    0.1866 H   0  0  0  0  0  0  0  0  0  0  0  0
   -2.2822    0.1992    1.5063 H   0  0  0  0  0  0  0  0  0  0  0  0
   -2.9381    1.1740    0.1059 H   0  0  0  0  0  0  0  0  0  0  0  0
   -1.2814    0.4729   -1.3173 H   0  0  0  0  0  0  0  0  0  0  0  0
   -1.2248   -1.1714   -0.4857 H   0  0  0  0  0  0  0  0  0  0  0  0
    0.4047    2.3983   -0.0126 H   0  0  0  0  0  0  0  0  0  0  0  0
   -1.0868    2.1795    1.0118 H   0  0  0  0  0  0  0  0  0  0  0  0
    0.6046    1.9624    1.7050 H   0  0  0  0  0  0  0  0  0  0  0  0
    0.6451   -2.2331    0.3252 H   0  0  0  0  0  0  0  0  0  0  0  0
    2.8111   -0.0808    1.2325 H   0  0  0  0  0  0  0  0  0  0  0  0
    2.7314   -2.2842   -0.6669 H   0  0  0  0  0  0  0  0  0  0  0  0
    1.1722   -0.2459   -1.3399 H   0  0  0  0  0  0  0  0  0  0  0  0
  1  2  1  0
  2  3  1  0
  3  4  1  0
  3  5  1  0
  5  6  1  0
  6  7  1  0
  7  8  1  0
  7  9  1  0
  9  3  1  0
  9  6  1  0
  1 10  1  0
  1 11  1  0
  1 12  1  0
  2 13  1  0
  2 14  1  0
  4 15  1  0
  4 16  1  0
  4 17  1  0
  6 18  1  0
  7 19  1  0
  8 20  1  0
  9 21  1  0
M  END
