
     RDKit          3D

 23 23  0  0  0  0  0  0  0  0999 V2000
   -3.4252   -0.1491    0.9077 C   0  0  0  0  0  0  0  0  0  0  0  0
   -2.3636   -0.9124    0.1099 C   0  0  0  0  0  0  0  0  0  0  0  0
   -1.3787    0.0947   -0.4186 C   0  0  0  0  0  0  0  0  0  0  0  0
   -0.2822   -0.5683   -1.2274 C   0  0  0  0  0  0  0  0  0  0  0  0
    0.4630    0.6160   -0.6036 C   0  0  0  0  0  0  0  0  0  0  0  0
    1.9051    0.2561   -0.3852 C   0  0  0  0  0  0  0  0  0  0  0  0
    2.4924    1.0157    0.6251 O   0  0  0  0  0  0  0  0  0  0  0  0
    3.8306    0.5696    0.7136 C   0  0  0  0  0  0  0  0  0  0  0  0
   -0.3658    0.4421    0.5044 O   0  0  0  0  0  0  0  0  0  0  0  0
   -4.2232    0.2310    0.2556 H   0  0  0  0  0  0  0  0  0  0  0  0
   -2.9043    0.6965    1.3979 H   0  0  0  0  0  0  0  0  0  0  0  0
   -3.8913   -0.7830    1.6797 H   0  0  0  0  0  0  0  0  0  0  0  0
   -2.8954   -1.3785   -0.7418 H   0  0  0  0  0  0  0  0  0  0  0  0
   -1.9041   -1.6733    0.7342 H   0  0  0  0  0  0  0  0  0  0  0  0
   -1.7900    1.0034   -0.8499 H   0  0  0  0  0  0  0  0  0  0  0  0
   -0.3901   -0.5170   -2.3147 H   0  0  0  0  0  0  0  0  0  0  0  0
    0.0229   -1.5349   -0.7919 H   0  0  0  0  0  0  0  0  0  0  0  0
    0.2481    1.5204   -1.1687 H   0  0  0  0  0  0  0  0  0  0  0  0
    1.9748   -0.8014   -0.1218 H   0  0  0  0  0  0  0  0  0  0  0  0
    2.4502    0.5045   -1.3190 H   0  0  0  0  0  0  0  0  0  0  0  0
    3.7871   -0.4976    0.9606 H   0  0  0  0  0  0  0  0  0  0  0  0
    4.3940    1.1795    1.4531 H   0  0  0  0  0  0  0  0  0  0  0  0
    4.2459    0.6861   -0.3249 H   0  0  0  0  0  0  0  0  0  0  0  0
  1  2  1  0
  2  3  1  0
  3  4  1  0
  4  5  1  0
  5  6  1  0
  6  7  1  0
  7  8  1  0
  5  9  1  0
  9  3  1  0
  1 10  1  0
  1 11  1  0
  1 12  1  0
  2 13  1  0
  2 14  1  0
  3 15  1  0
  4 16  1  0
  4 17  1  0
  5 18  1  0
  6 19  1  0
  6 20  1  0
  8 21  1  0
  8 22  1  0
  8 23  1  0
M  END
