
     RDKit          3D

 23 25  0  0  0  0  0  0  0  0999 V2000
    2.7974   -0.1607   -0.1864 C   0  0  0  0  0  0  0  0  0  0  0  0
    1.6940    0.5789    0.5193 C   0  0  0  0  0  0  0  0  0  0  0  0
    0.3371    0.1083    0.2384 C   0  0  0  0  0  0  0  0  0  0  0  0
   -0.2645    0.0993   -1.1433 C   0  0  0  0  0  0  0  0  0  0  0  0
   -1.7277   -0.1458   -0.7484 C   0  0  0  0  0  0  0  0  0  0  0  0
   -1.5617   -1.3515    0.1385 C   0  0  0  0  0  0  0  0  0  0  0  0
   -0.4388   -0.8291    1.0499 C   0  0  0  0  0  0  0  0  0  0  0  0
   -0.7370    0.5903    1.1906 C   0  0  0  0  0  0  0  0  0  0  0  0
   -1.8962    0.9517    0.2704 C   0  0  0  0  0  0  0  0  0  0  0  0
    2.4437   -0.7496   -1.0486 H   0  0  0  0  0  0  0  0  0  0  0  0
    3.6115    0.5416   -0.5151 H   0  0  0  0  0  0  0  0  0  0  0  0
    3.2922   -0.8442    0.5436 H   0  0  0  0  0  0  0  0  0  0  0  0
    1.8475    0.6177    1.6175 H   0  0  0  0  0  0  0  0  0  0  0  0
    1.7780    1.6547    0.1829 H   0  0  0  0  0  0  0  0  0  0  0  0
    0.1456   -0.7783   -1.6786 H   0  0  0  0  0  0  0  0  0  0  0  0
   -0.1436    1.0416   -1.6835 H   0  0  0  0  0  0  0  0  0  0  0  0
   -2.4159   -0.1995   -1.5428 H   0  0  0  0  0  0  0  0  0  0  0  0
   -1.2406   -2.2217   -0.4342 H   0  0  0  0  0  0  0  0  0  0  0  0
   -2.4901   -1.5075    0.7307 H   0  0  0  0  0  0  0  0  0  0  0  0
   -0.0543   -1.4732    1.8279 H   0  0  0  0  0  0  0  0  0  0  0  0
   -0.4932    1.2174    2.0400 H   0  0  0  0  0  0  0  0  0  0  0  0
   -1.6233    1.9048   -0.2223 H   0  0  0  0  0  0  0  0  0  0  0  0
   -2.8603    0.9549    0.7760 H   0  0  0  0  0  0  0  0  0  0  0  0
  1  2  1  0
  2  3  1  0
  3  4  1  0
  4  5  1  0
  5  6  1  0
  6  7  1  0
  7  8  1  0
  8  9  1  0
  7  3  1  0
  8  3  1  0
  9  5  1  0
  1 10  1  0
  1 11  1  0
  1 12  1  0
  2 13  1  0
  2 14  1  0
  4 15  1  0
  4 16  1  0
  5 17  1  0
  6 18  1  0
  6 19  1  0
  7 20  1  0
  8 21  1  0
  9 22  1  0
  9 23  1  0
M  END
