
     RDKit          3D

 18 18  0  0  0  0  0  0  0  0999 V2000
    2.2830   -0.2335   -0.5315 C   0  0  0  0  0  0  0  0  0  0  0  0
    1.1874   -0.3371    0.4833 C   0  0  0  0  0  0  0  0  0  0  0  0
    0.0250    0.5049    0.0600 C   0  0  0  0  0  0  0  0  0  0  0  0
   -1.1459    0.5145    0.9550 C   0  0  0  0  0  0  0  0  0  0  0  0
   -1.3131    0.4278    2.1364 O   0  0  0  0  0  0  0  0  0  0  0  0
   -1.9721    0.6752   -0.2548 C   0  0  0  0  0  0  0  0  0  0  0  0
   -0.8794   -0.1139   -0.9920 C   0  0  0  0  0  0  0  0  0  0  0  0
   -1.1092   -1.4698   -0.7935 O   0  0  0  0  0  0  0  0  0  0  0  0
    2.7911   -1.2027   -0.6208 H   0  0  0  0  0  0  0  0  0  0  0  0
    3.0520    0.5303   -0.2509 H   0  0  0  0  0  0  0  0  0  0  0  0
    1.9152    0.0495   -1.5409 H   0  0  0  0  0  0  0  0  0  0  0  0
    0.9078   -1.3843    0.7258 H   0  0  0  0  0  0  0  0  0  0  0  0
    1.5789    0.0941    1.4357 H   0  0  0  0  0  0  0  0  0  0  0  0
    0.3720    1.4912   -0.2925 H   0  0  0  0  0  0  0  0  0  0  0  0
   -1.9599    1.7089   -0.7029 H   0  0  0  0  0  0  0  0  0  0  0  0
   -2.9586    0.1835   -0.2526 H   0  0  0  0  0  0  0  0  0  0  0  0
   -0.7184    0.2124   -2.0151 H   0  0  0  0  0  0  0  0  0  0  0  0
   -2.0560   -1.6510   -0.5002 H   0  0  0  0  0  0  0  0  0  0  0  0
  1  2  1  0
  2  3  1  0
  3  4  1  0
  4  5  2  0
  4  6  1  0
  6  7  1  0
  7  8  1  0
  7  3  1  0
  1  9  1  0
  1 10  1  0
  1 11  1  0
  2 12  1  0
  2 13  1  0
  3 14  1  0
  6 15  1  0
  6 16  1  0
  7 17  1  0
  8 18  1  0
M  END
