
     RDKit          3D

 25 25  0  0  0  0  0  0  0  0999 V2000
    2.7345   -0.7482   -0.3157 C   0  0  0  0  0  0  0  0  0  0  0  0
    1.8517    0.4685   -0.0424 C   0  0  0  0  0  0  0  0  0  0  0  0
    0.5793   -0.0307    0.5486 C   0  0  0  0  0  0  0  0  0  0  0  0
   -0.0803   -0.9583   -0.4287 C   0  0  0  0  0  0  0  0  0  0  0  0
   -1.5189   -0.7936   -0.1425 C   0  0  0  0  0  0  0  0  0  0  0  0
   -2.6429   -1.7159   -0.5701 C   0  0  0  0  0  0  0  0  0  0  0  0
   -1.6997    0.3064    0.5625 C   0  0  0  0  0  0  0  0  0  0  0  0
   -0.4360    1.0238    0.8461 C   0  0  0  0  0  0  0  0  0  0  0  0
   -0.2704    2.3014    0.1227 C   0  0  0  0  0  0  0  0  0  0  0  0
    2.4107   -1.2898   -1.2308 H   0  0  0  0  0  0  0  0  0  0  0  0
    2.7741   -1.4355    0.5426 H   0  0  0  0  0  0  0  0  0  0  0  0
    3.7479   -0.3292   -0.5764 H   0  0  0  0  0  0  0  0  0  0  0  0
    2.3901    1.0778    0.7085 H   0  0  0  0  0  0  0  0  0  0  0  0
    1.7287    0.9731   -1.0185 H   0  0  0  0  0  0  0  0  0  0  0  0
    0.8189   -0.5510    1.4945 H   0  0  0  0  0  0  0  0  0  0  0  0
    0.2795   -1.9920   -0.2761 H   0  0  0  0  0  0  0  0  0  0  0  0
    0.0793   -0.6295   -1.4883 H   0  0  0  0  0  0  0  0  0  0  0  0
   -3.4526   -1.0484   -0.9561 H   0  0  0  0  0  0  0  0  0  0  0  0
   -3.0428   -2.2269    0.3184 H   0  0  0  0  0  0  0  0  0  0  0  0
   -2.2530   -2.3905   -1.3339 H   0  0  0  0  0  0  0  0  0  0  0  0
   -2.6591    0.7015    0.9283 H   0  0  0  0  0  0  0  0  0  0  0  0
   -0.4687    1.2585    1.9514 H   0  0  0  0  0  0  0  0  0  0  0  0
   -0.9644    2.2883   -0.7676 H   0  0  0  0  0  0  0  0  0  0  0  0
    0.7302    2.5559   -0.2089 H   0  0  0  0  0  0  0  0  0  0  0  0
   -0.6362    3.1843    0.7257 H   0  0  0  0  0  0  0  0  0  0  0  0
  1  2  1  0
  2  3  1  0
  3  4  1  0
  4  5  1  0
  5  6  1  0
  5  7  2  0
  7  8  1  0
  8  9  1  0
  8  3  1  0
  1 10  1  0
  1 11  1  0
  1 12  1  0
  2 13  1  0
  2 14  1  0
  3 15  1  0
  4 16  1  0
  4 17  1  0
  6 18  1  0
  6 19  1  0
  6 20  1  0
  7 21  1  0
  8 22  1  0
  9 23  1  0
  9 24  1  0
  9 25  1  0
M  END
