
     RDKit          3D

 21 21  0  0  0  0  0  0  0  0999 V2000
    2.4547   -0.2002    0.6255 C   0  0  0  0  0  0  0  0  0  0  0  0
    1.4956   -0.6380   -0.4625 C   0  0  0  0  0  0  0  0  0  0  0  0
    0.2948    0.2693   -0.3765 C   0  0  0  0  0  0  0  0  0  0  0  0
   -0.7511   -0.0635   -1.4197 C   0  0  0  0  0  0  0  0  0  0  0  0
   -1.9498    0.6104   -0.8525 C   0  0  0  0  0  0  0  0  0  0  0  0
   -2.9520    0.9007   -1.4744 O   0  0  0  0  0  0  0  0  0  0  0  0
   -1.7391    0.8775    0.5950 C   0  0  0  0  0  0  0  0  0  0  0  0
   -0.4850    0.0467    0.9029 C   0  0  0  0  0  0  0  0  0  0  0  0
   -0.8725   -1.2655    1.0011 O   0  0  0  0  0  0  0  0  0  0  0  0
    2.4661    0.9227    0.7132 H   0  0  0  0  0  0  0  0  0  0  0  0
    3.4828   -0.5397    0.4153 H   0  0  0  0  0  0  0  0  0  0  0  0
    2.1120   -0.6145    1.5986 H   0  0  0  0  0  0  0  0  0  0  0  0
    1.1184   -1.6732   -0.2130 H   0  0  0  0  0  0  0  0  0  0  0  0
    1.9755   -0.6325   -1.4426 H   0  0  0  0  0  0  0  0  0  0  0  0
    0.5410    1.3384   -0.4369 H   0  0  0  0  0  0  0  0  0  0  0  0
   -0.8503   -1.1668   -1.4251 H   0  0  0  0  0  0  0  0  0  0  0  0
   -0.4915    0.2795   -2.4246 H   0  0  0  0  0  0  0  0  0  0  0  0
   -2.5857    0.5560    1.2199 H   0  0  0  0  0  0  0  0  0  0  0  0
   -1.4599    1.9367    0.7846 H   0  0  0  0  0  0  0  0  0  0  0  0
    0.0415    0.4411    1.7875 H   0  0  0  0  0  0  0  0  0  0  0  0
   -1.8456   -1.3852    0.8842 H   0  0  0  0  0  0  0  0  0  0  0  0
  1  2  1  0
  2  3  1  0
  3  4  1  0
  4  5  1  0
  5  6  2  0
  5  7  1  0
  7  8  1  0
  8  9  1  0
  8  3  1  0
  1 10  1  0
  1 11  1  0
  1 12  1  0
  2 13  1  0
  2 14  1  0
  3 15  1  0
  4 16  1  0
  4 17  1  0
  7 18  1  0
  7 19  1  0
  8 20  1  0
  9 21  1  0
M  END
