
     RDKit          3D

 25 26  0  0  0  0  0  0  0  0999 V2000
    2.6799    0.4903    0.4865 C   0  0  0  0  0  0  0  0  0  0  0  0
    1.9472   -0.7618    0.2194 C   0  0  0  0  0  0  0  0  0  0  0  0
    0.5271   -0.7786   -0.1044 C   0  0  0  0  0  0  0  0  0  0  0  0
   -0.4866   -0.2683    0.8339 C   0  0  0  0  0  0  0  0  0  0  0  0
   -0.2605    1.0961    0.3036 C   0  0  0  0  0  0  0  0  0  0  0  0
   -1.4759    2.0251    0.3271 C   0  0  0  0  0  0  0  0  0  0  0  0
   -0.1604    0.2464   -0.9011 C   0  0  0  0  0  0  0  0  0  0  0  0
   -1.4451   -0.4063   -0.3464 C   0  0  0  0  0  0  0  0  0  0  0  0
   -1.7277   -1.7806   -0.8347 C   0  0  0  0  0  0  0  0  0  0  0  0
    2.6148    1.2560   -0.2901 H   0  0  0  0  0  0  0  0  0  0  0  0
    3.8219    0.2776    0.5272 H   0  0  0  0  0  0  0  0  0  0  0  0
    2.4969    0.8335    1.5233 H   0  0  0  0  0  0  0  0  0  0  0  0
    2.4865   -1.2389   -0.6811 H   0  0  0  0  0  0  0  0  0  0  0  0
    2.1637   -1.5365    1.0347 H   0  0  0  0  0  0  0  0  0  0  0  0
    0.2132   -1.8382   -0.4994 H   0  0  0  0  0  0  0  0  0  0  0  0
   -0.6969   -0.5530    1.7724 H   0  0  0  0  0  0  0  0  0  0  0  0
    0.5921    1.6806    0.6226 H   0  0  0  0  0  0  0  0  0  0  0  0
   -2.1485    1.6621    1.1189 H   0  0  0  0  0  0  0  0  0  0  0  0
   -1.1669    3.0703    0.6497 H   0  0  0  0  0  0  0  0  0  0  0  0
   -1.8957    2.1558   -0.6657 H   0  0  0  0  0  0  0  0  0  0  0  0
   -0.0550    0.5085   -1.8614 H   0  0  0  0  0  0  0  0  0  0  0  0
   -2.3082    0.2700   -0.2720 H   0  0  0  0  0  0  0  0  0  0  0  0
   -2.8438   -1.8092   -1.0540 H   0  0  0  0  0  0  0  0  0  0  0  0
   -1.2779   -2.0076   -1.8250 H   0  0  0  0  0  0  0  0  0  0  0  0
   -1.5939   -2.5934   -0.0840 H   0  0  0  0  0  0  0  0  0  0  0  0
  1  2  1  0
  2  3  1  0
  3  4  1  0
  4  5  1  0
  5  6  1  0
  5  7  1  0
  7  8  1  0
  8  9  1  0
  7  3  1  0
  8  4  1  0
  1 10  1  0
  1 11  1  0
  1 12  1  0
  2 13  1  0
  2 14  1  0
  3 15  1  0
  4 16  1  0
  5 17  1  0
  6 18  1  0
  6 19  1  0
  6 20  1  0
  7 21  1  0
  8 22  1  0
  9 23  1  0
  9 24  1  0
  9 25  1  0
M  END
