
     RDKit          3D

 20 21  0  0  0  0  0  0  0  0999 V2000
    2.3797   -0.3805   -0.4491 C   0  0  0  0  0  0  0  0  0  0  0  0
    1.4487   -0.0384    0.6871 C   0  0  0  0  0  0  0  0  0  0  0  0
    0.1839    0.5371    0.1803 C   0  0  0  0  0  0  0  0  0  0  0  0
   -0.6527   -0.3055   -0.7407 C   0  0  0  0  0  0  0  0  0  0  0  0
   -1.8251    0.6224   -0.9435 C   0  0  0  0  0  0  0  0  0  0  0  0
   -2.0615    1.0453    0.3010 C   0  0  0  0  0  0  0  0  0  0  0  0
   -1.0228    0.3623    1.0953 C   0  0  0  0  0  0  0  0  0  0  0  0
   -1.1153   -1.0398    0.5196 C   0  0  0  0  0  0  0  0  0  0  0  0
    3.0295    0.4944   -0.7173 H   0  0  0  0  0  0  0  0  0  0  0  0
    3.0803   -1.1735   -0.1213 H   0  0  0  0  0  0  0  0  0  0  0  0
    1.8163   -0.6487   -1.3678 H   0  0  0  0  0  0  0  0  0  0  0  0
    1.9577    0.7578    1.2936 H   0  0  0  0  0  0  0  0  0  0  0  0
    1.3686   -0.9187    1.3224 H   0  0  0  0  0  0  0  0  0  0  0  0
    0.3065    1.5727   -0.1574 H   0  0  0  0  0  0  0  0  0  0  0  0
   -0.2543   -0.8349   -1.5409 H   0  0  0  0  0  0  0  0  0  0  0  0
   -2.3083    0.8482   -1.8814 H   0  0  0  0  0  0  0  0  0  0  0  0
   -2.8020    1.7150    0.7097 H   0  0  0  0  0  0  0  0  0  0  0  0
   -0.9202    0.5061    2.1261 H   0  0  0  0  0  0  0  0  0  0  0  0
   -0.4330   -1.7802    0.9156 H   0  0  0  0  0  0  0  0  0  0  0  0
   -2.1758   -1.3412    0.4263 H   0  0  0  0  0  0  0  0  0  0  0  0
  1  2  1  0
  2  3  1  0
  3  4  1  0
  4  5  1  0
  5  6  2  0
  6  7  1  0
  7  8  1  0
  7  3  1  0
  8  4  1  0
  1  9  1  0
  1 10  1  0
  1 11  1  0
  2 12  1  0
  2 13  1  0
  3 14  1  0
  4 15  1  0
  5 16  1  0
  6 17  1  0
  7 18  1  0
  8 19  1  0
  8 20  1  0
M  END
