
     RDKit          3D

 21 23  0  0  0  0  0  0  0  0999 V2000
   -2.8255   -0.1721    0.0007 C   0  0  0  0  0  0  0  0  0  0  0  0
   -1.8885    0.7992    0.6602 C   0  0  0  0  0  0  0  0  0  0  0  0
   -0.4635    0.5495    0.3146 C   0  0  0  0  0  0  0  0  0  0  0  0
    0.3730    1.4206   -0.3020 C   0  0  0  0  0  0  0  0  0  0  0  0
    1.6222    0.6567   -0.4076 C   0  0  0  0  0  0  0  0  0  0  0  0
    1.1750   -0.7313   -0.7434 C   0  0  0  0  0  0  0  0  0  0  0  0
    2.3188   -1.2042    0.1130 C   0  0  0  0  0  0  0  0  0  0  0  0
    1.7241   -0.0677    0.8987 C   0  0  0  0  0  0  0  0  0  0  0  0
    0.3919   -0.6350    0.5276 C   0  0  0  0  0  0  0  0  0  0  0  0
   -3.8613    0.2383    0.1438 H   0  0  0  0  0  0  0  0  0  0  0  0
   -2.6651   -0.2797   -1.0770 H   0  0  0  0  0  0  0  0  0  0  0  0
   -2.8159   -1.1654    0.5300 H   0  0  0  0  0  0  0  0  0  0  0  0
   -2.0473    0.6876    1.7713 H   0  0  0  0  0  0  0  0  0  0  0  0
   -2.1555    1.8219    0.3811 H   0  0  0  0  0  0  0  0  0  0  0  0
    0.1700    2.4320   -0.6351 H   0  0  0  0  0  0  0  0  0  0  0  0
    2.4847    1.0724   -0.8632 H   0  0  0  0  0  0  0  0  0  0  0  0
    0.8845   -1.0939   -1.6272 H   0  0  0  0  0  0  0  0  0  0  0  0
    2.2327   -2.2005    0.5456 H   0  0  0  0  0  0  0  0  0  0  0  0
    3.3054   -0.9132   -0.2853 H   0  0  0  0  0  0  0  0  0  0  0  0
    2.0266    0.2872    1.7823 H   0  0  0  0  0  0  0  0  0  0  0  0
    0.0136   -1.5024    1.0035 H   0  0  0  0  0  0  0  0  0  0  0  0
  1  2  1  0
  2  3  1  0
  3  4  2  0
  4  5  1  0
  5  6  1  0
  6  7  1  0
  7  8  1  0
  8  9  1  0
  9  3  1  0
  8  5  1  0
  9  6  1  0
  1 10  1  0
  1 11  1  0
  1 12  1  0
  2 13  1  0
  2 14  1  0
  4 15  1  0
  5 16  1  0
  6 17  1  0
  7 18  1  0
  7 19  1  0
  8 20  1  0
  9 21  1  0
M  END
