
     RDKit          3D

 23 23  0  0  0  0  0  0  0  0999 V2000
    2.6955   -0.9502    0.2705 C   0  0  0  0  0  0  0  0  0  0  0  0
    2.0127    0.3746    0.4310 C   0  0  0  0  0  0  0  0  0  0  0  0
    0.7877    0.4858   -0.4905 C   0  0  0  0  0  0  0  0  0  0  0  0
   -0.2091   -0.5630   -0.1997 C   0  0  0  0  0  0  0  0  0  0  0  0
   -1.6010   -0.0938    0.0408 C   0  0  0  0  0  0  0  0  0  0  0  0
   -2.6538   -1.0600   -0.4403 C   0  0  0  0  0  0  0  0  0  0  0  0
   -1.7854    1.0966   -0.6619 O   0  0  0  0  0  0  0  0  0  0  0  0
   -0.9022    2.0119   -0.0441 C   0  0  0  0  0  0  0  0  0  0  0  0
    0.3726    1.7787   -0.4295 O   0  0  0  0  0  0  0  0  0  0  0  0
    2.5806   -1.4975    1.2358 H   0  0  0  0  0  0  0  0  0  0  0  0
    2.2468   -1.5672   -0.5280 H   0  0  0  0  0  0  0  0  0  0  0  0
    3.7782   -0.7646    0.1273 H   0  0  0  0  0  0  0  0  0  0  0  0
    2.6823    1.2202    0.0966 H   0  0  0  0  0  0  0  0  0  0  0  0
    1.7338    0.5931    1.4668 H   0  0  0  0  0  0  0  0  0  0  0  0
    1.2116    0.3176   -1.5248 H   0  0  0  0  0  0  0  0  0  0  0  0
    0.1635   -1.1666    0.6726 H   0  0  0  0  0  0  0  0  0  0  0  0
   -0.2613   -1.3180   -1.0400 H   0  0  0  0  0  0  0  0  0  0  0  0
   -1.7117    0.1123    1.1389 H   0  0  0  0  0  0  0  0  0  0  0  0
   -2.2441   -1.8336   -1.1185 H   0  0  0  0  0  0  0  0  0  0  0  0
   -3.4650   -0.5365   -0.9847 H   0  0  0  0  0  0  0  0  0  0  0  0
   -3.1212   -1.5233    0.4536 H   0  0  0  0  0  0  0  0  0  0  0  0
   -1.0819    1.8683    1.0582 H   0  0  0  0  0  0  0  0  0  0  0  0
   -1.2287    3.0154   -0.3813 H   0  0  0  0  0  0  0  0  0  0  0  0
  1  2  1  0
  2  3  1  0
  3  4  1  0
  4  5  1  0
  5  6  1  0
  5  7  1  0
  7  8  1  0
  8  9  1  0
  9  3  1  0
  1 10  1  0
  1 11  1  0
  1 12  1  0
  2 13  1  0
  2 14  1  0
  3 15  1  0
  4 16  1  0
  4 17  1  0
  5 18  1  0
  6 19  1  0
  6 20  1  0
  6 21  1  0
  8 22  1  0
  8 23  1  0
M  END
