
     RDKit          3D

 22 22  0  0  0  0  0  0  0  0999 V2000
    2.6259    0.5660   -0.5855 C   0  0  0  0  0  0  0  0  0  0  0  0
    1.6071   -0.5535   -0.4941 C   0  0  0  0  0  0  0  0  0  0  0  0
    0.5218   -0.1134    0.4998 C   0  0  0  0  0  0  0  0  0  0  0  0
   -0.5265   -1.1445    0.6603 C   0  0  0  0  0  0  0  0  0  0  0  0
   -1.8638   -0.8427    0.1138 C   0  0  0  0  0  0  0  0  0  0  0  0
   -2.1023    0.5838   -0.2610 C   0  0  0  0  0  0  0  0  0  0  0  0
   -0.8487    1.2561   -0.7659 C   0  0  0  0  0  0  0  0  0  0  0  0
    0.0910    1.1544    0.2317 O   0  0  0  0  0  0  0  0  0  0  0  0
    3.6375    0.1463   -0.7785 H   0  0  0  0  0  0  0  0  0  0  0  0
    2.6553    1.0362    0.4398 H   0  0  0  0  0  0  0  0  0  0  0  0
    2.3510    1.3064   -1.3589 H   0  0  0  0  0  0  0  0  0  0  0  0
    2.1616   -1.4352   -0.0637 H   0  0  0  0  0  0  0  0  0  0  0  0
    1.1922   -0.8433   -1.4555 H   0  0  0  0  0  0  0  0  0  0  0  0
    1.0845   -0.0521    1.4808 H   0  0  0  0  0  0  0  0  0  0  0  0
   -0.6553   -1.4626    1.7377 H   0  0  0  0  0  0  0  0  0  0  0  0
   -0.1546   -2.0876    0.1593 H   0  0  0  0  0  0  0  0  0  0  0  0
   -2.0931   -1.4597   -0.8055 H   0  0  0  0  0  0  0  0  0  0  0  0
   -2.6915   -1.1299    0.8292 H   0  0  0  0  0  0  0  0  0  0  0  0
   -2.4782    1.2002    0.5834 H   0  0  0  0  0  0  0  0  0  0  0  0
   -2.8893    0.6492   -1.0552 H   0  0  0  0  0  0  0  0  0  0  0  0
   -1.0967    2.3370   -0.8843 H   0  0  0  0  0  0  0  0  0  0  0  0
   -0.5278    0.8890   -1.7465 H   0  0  0  0  0  0  0  0  0  0  0  0
  1  2  1  0
  2  3  1  0
  3  4  1  0
  4  5  1  0
  5  6  1  0
  6  7  1  0
  7  8  1  0
  8  3  1  0
  1  9  1  0
  1 10  1  0
  1 11  1  0
  2 12  1  0
  2 13  1  0
  3 14  1  0
  4 15  1  0
  4 16  1  0
  5 17  1  0
  5 18  1  0
  6 19  1  0
  6 20  1  0
  7 21  1  0
  7 22  1  0
M  END
