
     RDKit          3D

 23 24  0  0  0  0  0  0  0  0999 V2000
    2.7090    0.9941   -0.8581 C   0  0  0  0  0  0  0  0  0  0  0  0
    2.3547   -0.2857   -0.1452 C   0  0  0  0  0  0  0  0  0  0  0  0
    0.8575   -0.3630    0.0872 C   0  0  0  0  0  0  0  0  0  0  0  0
   -0.0374    0.5338   -0.2657 C   0  0  0  0  0  0  0  0  0  0  0  0
   -1.4251    0.1897    0.0927 C   0  0  0  0  0  0  0  0  0  0  0  0
   -2.2364    1.3690    0.5835 C   0  0  0  0  0  0  0  0  0  0  0  0
   -2.0937   -1.0649   -0.2808 C   0  0  0  0  0  0  0  0  0  0  0  0
   -1.2437   -1.0123    0.9379 C   0  0  0  0  0  0  0  0  0  0  0  0
    0.1696   -1.4812    0.7505 C   0  0  0  0  0  0  0  0  0  0  0  0
    2.2102    1.8202   -0.2833 H   0  0  0  0  0  0  0  0  0  0  0  0
    2.2668    1.0103   -1.8679 H   0  0  0  0  0  0  0  0  0  0  0  0
    3.8020    1.1023   -0.8444 H   0  0  0  0  0  0  0  0  0  0  0  0
    2.6106   -1.1421   -0.7700 H   0  0  0  0  0  0  0  0  0  0  0  0
    2.9048   -0.3468    0.8147 H   0  0  0  0  0  0  0  0  0  0  0  0
    0.2672    1.4604   -0.7887 H   0  0  0  0  0  0  0  0  0  0  0  0
   -3.1367    1.0390    1.1132 H   0  0  0  0  0  0  0  0  0  0  0  0
   -2.5872    1.9051   -0.3404 H   0  0  0  0  0  0  0  0  0  0  0  0
   -1.6229    2.0959    1.1502 H   0  0  0  0  0  0  0  0  0  0  0  0
   -3.1884   -1.0841   -0.1353 H   0  0  0  0  0  0  0  0  0  0  0  0
   -1.7640   -1.6141   -1.1768 H   0  0  0  0  0  0  0  0  0  0  0  0
   -1.6867   -1.0111    1.9498 H   0  0  0  0  0  0  0  0  0  0  0  0
    0.6443   -1.7717    1.7143 H   0  0  0  0  0  0  0  0  0  0  0  0
    0.2254   -2.3426    0.0153 H   0  0  0  0  0  0  0  0  0  0  0  0
  1  2  1  0
  2  3  1  0
  3  4  2  0
  4  5  1  0
  5  6  1  0
  5  7  1  0
  7  8  1  0
  8  9  1  0
  9  3  1  0
  8  5  1  0
  1 10  1  0
  1 11  1  0
  1 12  1  0
  2 13  1  0
  2 14  1  0
  4 15  1  0
  6 16  1  0
  6 17  1  0
  6 18  1  0
  7 19  1  0
  7 20  1  0
  8 21  1  0
  9 22  1  0
  9 23  1  0
M  END
