
     RDKit          3D

 19 20  0  0  0  0  0  0  0  0999 V2000
    2.4530    0.4684    0.2656 C   0  0  0  0  0  0  0  0  0  0  0  0
    1.3802   -0.5408    0.1072 C   0  0  0  0  0  0  0  0  0  0  0  0
    0.1445   -0.0505   -0.5754 C   0  0  0  0  0  0  0  0  0  0  0  0
   -0.8792   -1.1169   -0.6953 C   0  0  0  0  0  0  0  0  0  0  0  0
   -0.7116   -2.1781   -1.2551 O   0  0  0  0  0  0  0  0  0  0  0  0
   -2.1432   -0.7062   -0.0333 C   0  0  0  0  0  0  0  0  0  0  0  0
   -1.9557    0.7412    0.3466 C   0  0  0  0  0  0  0  0  0  0  0  0
   -1.5780    1.6578   -0.6127 O   0  0  0  0  0  0  0  0  0  0  0  0
   -0.5306    1.0835    0.1455 C   0  0  0  0  0  0  0  0  0  0  0  0
    2.6344    0.9754   -0.7097 H   0  0  0  0  0  0  0  0  0  0  0  0
    3.3950   -0.0685    0.5439 H   0  0  0  0  0  0  0  0  0  0  0  0
    2.2786    1.2024    1.0744 H   0  0  0  0  0  0  0  0  0  0  0  0
    1.0701   -0.9545    1.1034 H   0  0  0  0  0  0  0  0  0  0  0  0
    1.7725   -1.3993   -0.4740 H   0  0  0  0  0  0  0  0  0  0  0  0
    0.3911    0.2878   -1.6039 H   0  0  0  0  0  0  0  0  0  0  0  0
   -2.1931   -1.3057    0.9226 H   0  0  0  0  0  0  0  0  0  0  0  0
   -3.0393   -0.8869   -0.6388 H   0  0  0  0  0  0  0  0  0  0  0  0
   -2.5088    1.0738    1.2434 H   0  0  0  0  0  0  0  0  0  0  0  0
    0.0201    1.7173    0.8455 H   0  0  0  0  0  0  0  0  0  0  0  0
  1  2  1  0
  2  3  1  0
  3  4  1  0
  4  5  2  0
  4  6  1  0
  6  7  1  0
  7  8  1  0
  8  9  1  0
  9  3  1  0
  9  7  1  0
  1 10  1  0
  1 11  1  0
  1 12  1  0
  2 13  1  0
  2 14  1  0
  3 15  1  0
  6 16  1  0
  6 17  1  0
  7 18  1  0
  9 19  1  0
M  END
