
     RDKit          3D

 23 24  0  0  0  0  0  0  0  0999 V2000
    2.5916   -0.9806   -0.3140 C   0  0  0  0  0  0  0  0  0  0  0  0
    1.4916   -0.4746    0.6175 C   0  0  0  0  0  0  0  0  0  0  0  0
    0.7165    0.5956   -0.0656 C   0  0  0  0  0  0  0  0  0  0  0  0
   -0.4205    1.2878    0.5789 C   0  0  0  0  0  0  0  0  0  0  0  0
   -1.1069    0.7390    1.7535 C   0  0  0  0  0  0  0  0  0  0  0  0
   -1.6644   -0.4334    1.4777 C   0  0  0  0  0  0  0  0  0  0  0  0
   -1.4335   -0.8399    0.0820 C   0  0  0  0  0  0  0  0  0  0  0  0
   -0.6445    0.2886   -0.5079 C   0  0  0  0  0  0  0  0  0  0  0  0
   -1.1455    0.7683   -1.8578 C   0  0  0  0  0  0  0  0  0  0  0  0
    3.4245   -0.2546   -0.2296 H   0  0  0  0  0  0  0  0  0  0  0  0
    2.8902   -2.0056   -0.0951 H   0  0  0  0  0  0  0  0  0  0  0  0
    2.1813   -0.8577   -1.3585 H   0  0  0  0  0  0  0  0  0  0  0  0
    2.0053   -0.0780    1.5168 H   0  0  0  0  0  0  0  0  0  0  0  0
    0.8604   -1.3446    0.8709 H   0  0  0  0  0  0  0  0  0  0  0  0
    1.3201    1.2371   -0.7622 H   0  0  0  0  0  0  0  0  0  0  0  0
   -0.5848    2.3668    0.3688 H   0  0  0  0  0  0  0  0  0  0  0  0
   -1.1482    1.2425    2.7319 H   0  0  0  0  0  0  0  0  0  0  0  0
   -2.2246   -1.0058    2.2256 H   0  0  0  0  0  0  0  0  0  0  0  0
   -2.4375   -0.9006   -0.4040 H   0  0  0  0  0  0  0  0  0  0  0  0
   -0.9079   -1.8256   -0.0134 H   0  0  0  0  0  0  0  0  0  0  0  0
   -2.0448    1.4000   -1.7814 H   0  0  0  0  0  0  0  0  0  0  0  0
   -0.3085    1.2401   -2.3976 H   0  0  0  0  0  0  0  0  0  0  0  0
   -1.4098   -0.1647   -2.4362 H   0  0  0  0  0  0  0  0  0  0  0  0
  1  2  1  0
  2  3  1  0
  3  4  1  0
  4  5  1  0
  5  6  2  0
  6  7  1  0
  7  8  1  0
  8  9  1  0
  8  3  1  0
  8  4  1  0
  1 10  1  0
  1 11  1  0
  1 12  1  0
  2 13  1  0
  2 14  1  0
  3 15  1  0
  4 16  1  0
  5 17  1  0
  6 18  1  0
  7 19  1  0
  7 20  1  0
  9 21  1  0
  9 22  1  0
  9 23  1  0
M  END
