
     RDKit          3D

 21 22  0  0  0  0  0  0  0  0999 V2000
    2.0948    0.6777   -0.4162 C   0  0  0  0  0  0  0  0  0  0  0  0
    0.8917    0.3478   -1.2740 C   0  0  0  0  0  0  0  0  0  0  0  0
   -0.1727   -0.3373   -0.5791 C   0  0  0  0  0  0  0  0  0  0  0  0
    0.1002   -1.6786    0.0644 C   0  0  0  0  0  0  0  0  0  0  0  0
   -1.3985   -1.7007   -0.1021 C   0  0  0  0  0  0  0  0  0  0  0  0
   -1.8152   -0.6154    0.8391 C   0  0  0  0  0  0  0  0  0  0  0  0
   -0.9340    0.3587    0.4938 C   0  0  0  0  0  0  0  0  0  0  0  0
   -0.7973    1.7273    1.0536 C   0  0  0  0  0  0  0  0  0  0  0  0
   -1.1703   -0.9858   -1.2949 O   0  0  0  0  0  0  0  0  0  0  0  0
    2.6160    1.5478   -0.8340 H   0  0  0  0  0  0  0  0  0  0  0  0
    1.8110    0.8166    0.6637 H   0  0  0  0  0  0  0  0  0  0  0  0
    2.7997   -0.2003   -0.4222 H   0  0  0  0  0  0  0  0  0  0  0  0
    1.2790   -0.2957   -2.1037 H   0  0  0  0  0  0  0  0  0  0  0  0
    0.5574    1.3043   -1.7197 H   0  0  0  0  0  0  0  0  0  0  0  0
    0.6582   -2.4007   -0.5503 H   0  0  0  0  0  0  0  0  0  0  0  0
    0.4174   -1.6524    1.1151 H   0  0  0  0  0  0  0  0  0  0  0  0
   -1.9284   -2.6099   -0.1337 H   0  0  0  0  0  0  0  0  0  0  0  0
   -2.5936   -0.5917    1.5889 H   0  0  0  0  0  0  0  0  0  0  0  0
   -1.7773    1.9892    1.5086 H   0  0  0  0  0  0  0  0  0  0  0  0
   -0.5968    2.4817    0.2704 H   0  0  0  0  0  0  0  0  0  0  0  0
   -0.0412    1.8175    1.8324 H   0  0  0  0  0  0  0  0  0  0  0  0
  1  2  1  0
  2  3  1  0
  3  4  1  0
  4  5  1  0
  5  6  1  0
  6  7  2  0
  7  8  1  0
  5  9  1  0
  7  3  1  0
  9  3  1  0
  1 10  1  0
  1 11  1  0
  1 12  1  0
  2 13  1  0
  2 14  1  0
  4 15  1  0
  4 16  1  0
  5 17  1  0
  6 18  1  0
  8 19  1  0
  8 20  1  0
  8 21  1  0
M  END
