
     RDKit          3D

 23 24  0  0  0  0  0  0  0  0999 V2000
    2.0072    0.9456    0.5103 C   0  0  0  0  0  0  0  0  0  0  0  0
    1.4719    0.0487   -0.5885 C   0  0  0  0  0  0  0  0  0  0  0  0
    0.1588   -0.5935   -0.2131 C   0  0  0  0  0  0  0  0  0  0  0  0
   -0.3572   -1.4700   -1.2959 C   0  0  0  0  0  0  0  0  0  0  0  0
    0.1378   -1.1827    1.1894 C   0  0  0  0  0  0  0  0  0  0  0  0
   -0.2687    0.0800    1.6861 O   0  0  0  0  0  0  0  0  0  0  0  0
   -0.7695    0.3386    0.4506 C   0  0  0  0  0  0  0  0  0  0  0  0
   -2.1977    0.4402    0.2585 C   0  0  0  0  0  0  0  0  0  0  0  0
   -1.2545    1.5895   -0.0610 C   0  0  0  0  0  0  0  0  0  0  0  0
    2.8344    1.5387    0.0728 H   0  0  0  0  0  0  0  0  0  0  0  0
    1.2176    1.6627    0.8050 H   0  0  0  0  0  0  0  0  0  0  0  0
    2.4091    0.3635    1.3654 H   0  0  0  0  0  0  0  0  0  0  0  0
    2.2075   -0.6901   -0.9064 H   0  0  0  0  0  0  0  0  0  0  0  0
    1.2433    0.7325   -1.4556 H   0  0  0  0  0  0  0  0  0  0  0  0
   -1.4453   -1.4604   -1.4314 H   0  0  0  0  0  0  0  0  0  0  0  0
   -0.0548   -2.5269   -1.0550 H   0  0  0  0  0  0  0  0  0  0  0  0
    0.1793   -1.2432   -2.2627 H   0  0  0  0  0  0  0  0  0  0  0  0
    1.1190   -1.4266    1.6138 H   0  0  0  0  0  0  0  0  0  0  0  0
   -0.6428   -1.9495    1.3079 H   0  0  0  0  0  0  0  0  0  0  0  0
   -2.6937   -0.1066   -0.5365 H   0  0  0  0  0  0  0  0  0  0  0  0
   -2.8262    0.6457    1.1727 H   0  0  0  0  0  0  0  0  0  0  0  0
   -1.1748    1.7562   -1.1754 H   0  0  0  0  0  0  0  0  0  0  0  0
   -1.3006    2.5078    0.5492 H   0  0  0  0  0  0  0  0  0  0  0  0
  1  2  1  0
  2  3  1  0
  3  4  1  0
  3  5  1  0
  5  6  1  0
  6  7  1  0
  7  8  1  0
  8  9  1  0
  7  3  1  0
  9  7  1  0
  1 10  1  0
  1 11  1  0
  1 12  1  0
  2 13  1  0
  2 14  1  0
  4 15  1  0
  4 16  1  0
  4 17  1  0
  5 18  1  0
  5 19  1  0
  8 20  1  0
  8 21  1  0
  9 22  1  0
  9 23  1  0
M  END
