
     RDKit          3D

 21 22  0  0  0  0  0  0  0  0999 V2000
    2.6603   -0.7919   -0.3860 C   0  0  0  0  0  0  0  0  0  0  0  0
    1.7886    0.3900   -0.6577 C   0  0  0  0  0  0  0  0  0  0  0  0
    0.4216    0.1977   -0.1459 C   0  0  0  0  0  0  0  0  0  0  0  0
   -0.0932   -0.8555    0.4964 C   0  0  0  0  0  0  0  0  0  0  0  0
   -1.4864   -0.5075    0.9665 C   0  0  0  0  0  0  0  0  0  0  0  0
   -2.3269   -0.4443   -0.2317 C   0  0  0  0  0  0  0  0  0  0  0  0
   -1.8658    0.5580   -0.9677 C   0  0  0  0  0  0  0  0  0  0  0  0
   -0.7077    1.1718   -0.2424 C   0  0  0  0  0  0  0  0  0  0  0  0
   -1.2479    1.0012    1.1970 C   0  0  0  0  0  0  0  0  0  0  0  0
    3.7193   -0.4584   -0.3634 H   0  0  0  0  0  0  0  0  0  0  0  0
    2.5672   -1.5728   -1.1535 H   0  0  0  0  0  0  0  0  0  0  0  0
    2.3842   -1.2300    0.6016 H   0  0  0  0  0  0  0  0  0  0  0  0
    2.2997    1.2861   -0.1997 H   0  0  0  0  0  0  0  0  0  0  0  0
    1.7627    0.6033   -1.7544 H   0  0  0  0  0  0  0  0  0  0  0  0
    0.4257   -1.7989    0.6440 H   0  0  0  0  0  0  0  0  0  0  0  0
   -1.8277   -1.0350    1.8134 H   0  0  0  0  0  0  0  0  0  0  0  0
   -3.1524   -1.1009   -0.4424 H   0  0  0  0  0  0  0  0  0  0  0  0
   -2.2401    0.8919   -1.9223 H   0  0  0  0  0  0  0  0  0  0  0  0
   -0.4605    2.1661   -0.5014 H   0  0  0  0  0  0  0  0  0  0  0  0
   -2.1756    1.5419    1.3474 H   0  0  0  0  0  0  0  0  0  0  0  0
   -0.4452    1.1831    1.9022 H   0  0  0  0  0  0  0  0  0  0  0  0
  1  2  1  0
  2  3  1  0
  3  4  2  0
  4  5  1  0
  5  6  1  0
  6  7  2  0
  7  8  1  0
  8  9  1  0
  8  3  1  0
  9  5  1  0
  1 10  1  0
  1 11  1  0
  1 12  1  0
  2 13  1  0
  2 14  1  0
  4 15  1  0
  5 16  1  0
  6 17  1  0
  7 18  1  0
  8 19  1  0
  9 20  1  0
  9 21  1  0
M  END
