
     RDKit          3D

 16 16  0  0  0  0  0  0  0  0999 V2000
   -2.0535   -0.0062    0.2790 C   0  0  0  0  0  0  0  0  0  0  0  0
   -0.8811    0.1199   -0.6740 C   0  0  0  0  0  0  0  0  0  0  0  0
    0.4207    0.3235    0.0686 C   0  0  0  0  0  0  0  0  0  0  0  0
    0.4881    1.4459    0.8658 O   0  0  0  0  0  0  0  0  0  0  0  0
    1.2359   -0.8373    0.4965 C   0  0  0  0  0  0  0  0  0  0  0  0
    1.6354   -0.1107   -0.7296 C   0  0  0  0  0  0  0  0  0  0  0  0
   -2.2963   -1.0825    0.3508 H   0  0  0  0  0  0  0  0  0  0  0  0
   -2.9079    0.6158   -0.0396 H   0  0  0  0  0  0  0  0  0  0  0  0
   -1.7005    0.4058    1.2586 H   0  0  0  0  0  0  0  0  0  0  0  0
   -0.8237   -0.7299   -1.3831 H   0  0  0  0  0  0  0  0  0  0  0  0
   -1.0848    1.0303   -1.3031 H   0  0  0  0  0  0  0  0  0  0  0  0
    1.3031    1.4062    1.4201 H   0  0  0  0  0  0  0  0  0  0  0  0
    1.8475   -0.7332    1.4298 H   0  0  0  0  0  0  0  0  0  0  0  0
    0.8625   -1.8787    0.3784 H   0  0  0  0  0  0  0  0  0  0  0  0
    1.5137   -0.6198   -1.6891 H   0  0  0  0  0  0  0  0  0  0  0  0
    2.4408    0.6511   -0.7290 H   0  0  0  0  0  0  0  0  0  0  0  0
  1  2  1  0
  2  3  1  0
  3  4  1  0
  3  5  1  0
  5  6  1  0
  6  3  1  0
  1  7  1  0
  1  8  1  0
  1  9  1  0
  2 10  1  0
  2 11  1  0
  4 12  1  0
  5 13  1  0
  5 14  1  0
  6 15  1  0
  6 16  1  0
M  END
