
     RDKit          3D

 16 18  0  0  0  0  0  0  0  0999 V2000
    2.1025    0.7113   -0.0676 C   0  0  0  0  0  0  0  0  0  0  0  0
    1.1124   -0.1848   -0.7743 C   0  0  0  0  0  0  0  0  0  0  0  0
   -0.2101   -0.1980   -0.0649 C   0  0  0  0  0  0  0  0  0  0  0  0
   -0.1850   -0.6435    1.2404 O   0  0  0  0  0  0  0  0  0  0  0  0
   -1.0193   -1.2231    0.3117 C   0  0  0  0  0  0  0  0  0  0  0  0
   -2.2849   -0.4071    0.0454 C   0  0  0  0  0  0  0  0  0  0  0  0
   -2.4077    0.0793   -1.2385 O   0  0  0  0  0  0  0  0  0  0  0  0
   -1.3494    0.6486   -0.5637 C   0  0  0  0  0  0  0  0  0  0  0  0
    2.9014    0.0362    0.3445 H   0  0  0  0  0  0  0  0  0  0  0  0
    1.6495    1.3075    0.7420 H   0  0  0  0  0  0  0  0  0  0  0  0
    2.6082    1.4134   -0.7506 H   0  0  0  0  0  0  0  0  0  0  0  0
    1.5135   -1.1962   -0.9769 H   0  0  0  0  0  0  0  0  0  0  0  0
    0.9320    0.2838   -1.7782 H   0  0  0  0  0  0  0  0  0  0  0  0
   -1.0408   -2.2994    0.1361 H   0  0  0  0  0  0  0  0  0  0  0  0
   -2.8640   -0.0187    0.8789 H   0  0  0  0  0  0  0  0  0  0  0  0
   -1.4584    1.6907   -0.2549 H   0  0  0  0  0  0  0  0  0  0  0  0
  1  2  1  0
  2  3  1  0
  3  4  1  0
  4  5  1  0
  5  6  1  0
  6  7  1  0
  7  8  1  0
  5  3  1  0
  8  6  1  0
  8  3  1  0
  1  9  1  0
  1 10  1  0
  1 11  1  0
  2 12  1  0
  2 13  1  0
  5 14  1  0
  6 15  1  0
  8 16  1  0
M  END
