
     RDKit          3D

 21 22  0  0  0  0  0  0  0  0999 V2000
    2.5682   -0.4273    0.4923 C   0  0  0  0  0  0  0  0  0  0  0  0
    1.3734    0.4757    0.5368 C   0  0  0  0  0  0  0  0  0  0  0  0
    0.5651    0.4850   -0.7282 C   0  0  0  0  0  0  0  0  0  0  0  0
    0.0169   -0.8491   -1.0979 C   0  0  0  0  0  0  0  0  0  0  0  0
   -0.8359   -1.3949   -0.1740 O   0  0  0  0  0  0  0  0  0  0  0  0
   -1.6315   -0.5346    0.5068 C   0  0  0  0  0  0  0  0  0  0  0  0
   -2.6898    0.2756   -0.1814 C   0  0  0  0  0  0  0  0  0  0  0  0
   -1.3930    0.8837    0.4178 C   0  0  0  0  0  0  0  0  0  0  0  0
   -0.5160    1.3474   -0.5212 O   0  0  0  0  0  0  0  0  0  0  0  0
    2.6021   -0.9668    1.4845 H   0  0  0  0  0  0  0  0  0  0  0  0
    2.5510   -1.1748   -0.3074 H   0  0  0  0  0  0  0  0  0  0  0  0
    3.5097    0.1818    0.4715 H   0  0  0  0  0  0  0  0  0  0  0  0
    0.6724    0.1930    1.3706 H   0  0  0  0  0  0  0  0  0  0  0  0
    1.7132    1.5052    0.7669 H   0  0  0  0  0  0  0  0  0  0  0  0
    1.1322    0.8875   -1.5933 H   0  0  0  0  0  0  0  0  0  0  0  0
    0.8242   -1.5806   -1.3109 H   0  0  0  0  0  0  0  0  0  0  0  0
   -0.5565   -0.7098   -2.0581 H   0  0  0  0  0  0  0  0  0  0  0  0
   -1.9758   -0.9270    1.5100 H   0  0  0  0  0  0  0  0  0  0  0  0
   -3.6101    0.5509    0.3574 H   0  0  0  0  0  0  0  0  0  0  0  0
   -2.7859    0.2664   -1.2719 H   0  0  0  0  0  0  0  0  0  0  0  0
   -1.5338    1.5129    1.3296 H   0  0  0  0  0  0  0  0  0  0  0  0
  1  2  1  0
  2  3  1  0
  3  4  1  0
  4  5  1  0
  5  6  1  0
  6  7  1  0
  7  8  1  0
  8  9  1  0
  9  3  1  0
  8  6  1  0
  1 10  1  0
  1 11  1  0
  1 12  1  0
  2 13  1  0
  2 14  1  0
  3 15  1  0
  4 16  1  0
  4 17  1  0
  6 18  1  0
  7 19  1  0
  7 20  1  0
  8 21  1  0
M  END
