
     RDKit          3D

 25 25  0  0  0  0  0  0  0  0999 V2000
   -2.0516   -1.6526   -0.6317 C   0  0  0  0  0  0  0  0  0  0  0  0
   -0.9679   -1.4936    0.4092 C   0  0  0  0  0  0  0  0  0  0  0  0
   -0.3614   -0.0649    0.3165 C   0  0  0  0  0  0  0  0  0  0  0  0
   -1.2868    0.8723    0.5284 O   0  0  0  0  0  0  0  0  0  0  0  0
   -1.0257    2.1900    0.5126 C   0  0  0  0  0  0  0  0  0  0  0  0
    1.0289    0.0968    0.7430 C   0  0  0  0  0  0  0  0  0  0  0  0
    1.7359    1.3361    1.1212 C   0  0  0  0  0  0  0  0  0  0  0  0
    0.6627    0.0416   -0.7519 C   0  0  0  0  0  0  0  0  0  0  0  0
    1.2407   -1.1148   -1.4676 C   0  0  0  0  0  0  0  0  0  0  0  0
   -1.7616   -0.9953   -1.4952 H   0  0  0  0  0  0  0  0  0  0  0  0
   -2.1151   -2.7129   -0.8999 H   0  0  0  0  0  0  0  0  0  0  0  0
   -3.0210   -1.3190   -0.1969 H   0  0  0  0  0  0  0  0  0  0  0  0
   -0.2030   -2.2559    0.2031 H   0  0  0  0  0  0  0  0  0  0  0  0
   -1.3543   -1.6119    1.4262 H   0  0  0  0  0  0  0  0  0  0  0  0
   -2.0305    2.7192    0.6782 H   0  0  0  0  0  0  0  0  0  0  0  0
   -0.4518    2.5245    1.4104 H   0  0  0  0  0  0  0  0  0  0  0  0
   -0.6102    2.6396   -0.3859 H   0  0  0  0  0  0  0  0  0  0  0  0
    1.4967   -0.8323    1.1677 H   0  0  0  0  0  0  0  0  0  0  0  0
    2.8665    1.1521    1.0803 H   0  0  0  0  0  0  0  0  0  0  0  0
    1.6041    2.1384    0.3675 H   0  0  0  0  0  0  0  0  0  0  0  0
    1.5893    1.6809    2.1668 H   0  0  0  0  0  0  0  0  0  0  0  0
    0.6959    1.0002   -1.3249 H   0  0  0  0  0  0  0  0  0  0  0  0
    2.0716   -1.5395   -0.8699 H   0  0  0  0  0  0  0  0  0  0  0  0
    1.7076   -0.8404   -2.4517 H   0  0  0  0  0  0  0  0  0  0  0  0
    0.5410   -1.9587   -1.6557 H   0  0  0  0  0  0  0  0  0  0  0  0
  1  2  1  0
  2  3  1  0
  3  4  1  0
  4  5  1  0
  3  6  1  0
  6  7  1  0
  6  8  1  0
  8  9  1  0
  8  3  1  0
  1 10  1  0
  1 11  1  0
  1 12  1  0
  2 13  1  0
  2 14  1  0
  5 15  1  0
  5 16  1  0
  5 17  1  0
  6 18  1  0
  7 19  1  0
  7 20  1  0
  7 21  1  0
  8 22  1  0
  9 23  1  0
  9 24  1  0
  9 25  1  0
M  END
