
     RDKit          3D

 16 16  0  0  0  0  0  0  0  0999 V2000
    2.1324   -0.1712   -0.4944 C   0  0  0  0  0  0  0  0  0  0  0  0
    1.0175    0.3081    0.3735 C   0  0  0  0  0  0  0  0  0  0  0  0
   -0.3062   -0.3392    0.0691 C   0  0  0  0  0  0  0  0  0  0  0  0
   -1.4345    0.1671    0.9707 C   0  0  0  0  0  0  0  0  0  0  0  0
   -1.4437    0.4209   -0.4803 C   0  0  0  0  0  0  0  0  0  0  0  0
   -2.3647   -0.2806   -1.2798 O   0  0  0  0  0  0  0  0  0  0  0  0
    2.6904   -1.0295   -0.0365 H   0  0  0  0  0  0  0  0  0  0  0  0
    1.8414   -0.3772   -1.5356 H   0  0  0  0  0  0  0  0  0  0  0  0
    2.8934    0.6621   -0.5395 H   0  0  0  0  0  0  0  0  0  0  0  0
    1.2657    0.0369    1.4354 H   0  0  0  0  0  0  0  0  0  0  0  0
    0.8882    1.4112    0.3811 H   0  0  0  0  0  0  0  0  0  0  0  0
   -0.2950   -1.4528   -0.0555 H   0  0  0  0  0  0  0  0  0  0  0  0
   -1.2545    1.0279    1.6209 H   0  0  0  0  0  0  0  0  0  0  0  0
   -2.1070   -0.5952    1.4238 H   0  0  0  0  0  0  0  0  0  0  0  0
   -1.2492    1.4558   -0.8293 H   0  0  0  0  0  0  0  0  0  0  0  0
   -2.2743   -1.2442   -1.0235 H   0  0  0  0  0  0  0  0  0  0  0  0
  1  2  1  0
  2  3  1  0
  3  4  1  0
  4  5  1  0
  5  6  1  0
  5  3  1  0
  1  7  1  0
  1  8  1  0
  1  9  1  0
  2 10  1  0
  2 11  1  0
  3 12  1  0
  4 13  1  0
  4 14  1  0
  5 15  1  0
  6 16  1  0
M  END
