
     RDKit          3D

 25 25  0  0  0  0  0  0  0  0999 V2000
    1.9137    0.4333    1.0636 C   0  0  0  0  0  0  0  0  0  0  0  0
    2.1016   -0.1454   -0.2984 C   0  0  0  0  0  0  0  0  0  0  0  0
    0.7924   -0.2985   -1.0769 C   0  0  0  0  0  0  0  0  0  0  0  0
    0.1454    0.9838   -1.2523 C   0  0  0  0  0  0  0  0  0  0  0  0
   -1.0304    1.3025   -0.7935 C   0  0  0  0  0  0  0  0  0  0  0  0
   -1.7915    0.2876   -0.0242 C   0  0  0  0  0  0  0  0  0  0  0  0
   -1.4847    0.5018    1.4334 C   0  0  0  0  0  0  0  0  0  0  0  0
   -1.4812   -1.1246   -0.3761 C   0  0  0  0  0  0  0  0  0  0  0  0
   -0.0317   -1.4204   -0.5695 C   0  0  0  0  0  0  0  0  0  0  0  0
    1.2642    1.3297    1.0601 H   0  0  0  0  0  0  0  0  0  0  0  0
    1.5938   -0.3079    1.8212 H   0  0  0  0  0  0  0  0  0  0  0  0
    2.9250    0.8221    1.3830 H   0  0  0  0  0  0  0  0  0  0  0  0
    2.8479    0.4351   -0.8694 H   0  0  0  0  0  0  0  0  0  0  0  0
    2.5309   -1.1662   -0.1809 H   0  0  0  0  0  0  0  0  0  0  0  0
    1.1621   -0.5974   -2.1103 H   0  0  0  0  0  0  0  0  0  0  0  0
    0.7158    1.7404   -1.8266 H   0  0  0  0  0  0  0  0  0  0  0  0
   -1.4759    2.3147   -0.9654 H   0  0  0  0  0  0  0  0  0  0  0  0
   -2.8833    0.4902   -0.2168 H   0  0  0  0  0  0  0  0  0  0  0  0
   -1.0785    1.5188    1.6298 H   0  0  0  0  0  0  0  0  0  0  0  0
   -0.8011   -0.3001    1.7601 H   0  0  0  0  0  0  0  0  0  0  0  0
   -2.4062    0.4102    2.0641 H   0  0  0  0  0  0  0  0  0  0  0  0
   -1.8728   -1.7681    0.4415 H   0  0  0  0  0  0  0  0  0  0  0  0
   -2.0842   -1.3873   -1.2746 H   0  0  0  0  0  0  0  0  0  0  0  0
    0.0436   -2.3088   -1.2303 H   0  0  0  0  0  0  0  0  0  0  0  0
    0.3853   -1.7456    0.4085 H   0  0  0  0  0  0  0  0  0  0  0  0
  1  2  1  0
  2  3  1  0
  3  4  1  0
  4  5  2  0
  5  6  1  0
  6  7  1  0
  6  8  1  0
  8  9  1  0
  9  3  1  0
  1 10  1  0
  1 11  1  0
  1 12  1  0
  2 13  1  0
  2 14  1  0
  3 15  1  0
  4 16  1  0
  5 17  1  0
  6 18  1  0
  7 19  1  0
  7 20  1  0
  7 21  1  0
  8 22  1  0
  8 23  1  0
  9 24  1  0
  9 25  1  0
M  END
