
     RDKit          3D

 21 22  0  0  0  0  0  0  0  0999 V2000
    2.3431    0.2546   -0.7143 C   0  0  0  0  0  0  0  0  0  0  0  0
    1.2498   -0.6181   -0.2193 C   0  0  0  0  0  0  0  0  0  0  0  0
    0.2113    0.0997    0.6069 C   0  0  0  0  0  0  0  0  0  0  0  0
   -0.8044   -0.9811    1.0046 C   0  0  0  0  0  0  0  0  0  0  0  0
   -1.7308   -1.0433   -0.1841 C   0  0  0  0  0  0  0  0  0  0  0  0
   -2.8348   -0.0978    0.0104 O   0  0  0  0  0  0  0  0  0  0  0  0
   -1.7199    0.1673   -0.8371 C   0  0  0  0  0  0  0  0  0  0  0  0
   -0.6413    1.0348   -0.1940 C   0  0  0  0  0  0  0  0  0  0  0  0
    0.0589    1.7650   -1.1314 O   0  0  0  0  0  0  0  0  0  0  0  0
    2.3014    1.3006   -0.3893 H   0  0  0  0  0  0  0  0  0  0  0  0
    2.2903    0.2585   -1.8392 H   0  0  0  0  0  0  0  0  0  0  0  0
    3.3283   -0.2275   -0.4870 H   0  0  0  0  0  0  0  0  0  0  0  0
    0.6852   -1.1286   -1.0438 H   0  0  0  0  0  0  0  0  0  0  0  0
    1.6521   -1.4521    0.4205 H   0  0  0  0  0  0  0  0  0  0  0  0
    0.6049    0.5285    1.5375 H   0  0  0  0  0  0  0  0  0  0  0  0
   -0.2939   -1.9795    1.0540 H   0  0  0  0  0  0  0  0  0  0  0  0
   -1.2977   -0.7608    1.9490 H   0  0  0  0  0  0  0  0  0  0  0  0
   -2.0426   -2.0243   -0.5611 H   0  0  0  0  0  0  0  0  0  0  0  0
   -2.0513    0.4089   -1.8578 H   0  0  0  0  0  0  0  0  0  0  0  0
   -1.1046    1.7678    0.5109 H   0  0  0  0  0  0  0  0  0  0  0  0
   -0.2041    2.7275   -1.1483 H   0  0  0  0  0  0  0  0  0  0  0  0
  1  2  1  0
  2  3  1  0
  3  4  1  0
  4  5  1  0
  5  6  1  0
  6  7  1  0
  7  8  1  0
  8  9  1  0
  8  3  1  0
  7  5  1  0
  1 10  1  0
  1 11  1  0
  1 12  1  0
  2 13  1  0
  2 14  1  0
  3 15  1  0
  4 16  1  0
  4 17  1  0
  5 18  1  0
  7 19  1  0
  8 20  1  0
  9 21  1  0
M  END
