
     RDKit          3D

 23 25  0  0  0  0  0  0  0  0999 V2000
   -2.6423   -0.7424   -0.4526 C   0  0  0  0  0  0  0  0  0  0  0  0
   -1.8914    0.0375    0.5683 C   0  0  0  0  0  0  0  0  0  0  0  0
   -0.4060   -0.0882    0.4362 C   0  0  0  0  0  0  0  0  0  0  0  0
    0.4391    0.6617    1.4202 C   0  0  0  0  0  0  0  0  0  0  0  0
    1.2434    1.2084    0.2826 C   0  0  0  0  0  0  0  0  0  0  0  0
    2.3865    0.2491   -0.0508 C   0  0  0  0  0  0  0  0  0  0  0  0
    1.7371   -1.0077   -0.5380 C   0  0  0  0  0  0  0  0  0  0  0  0
    0.2542   -0.6962   -0.7196 C   0  0  0  0  0  0  0  0  0  0  0  0
    0.1869    0.7486   -0.6637 C   0  0  0  0  0  0  0  0  0  0  0  0
   -3.7241   -0.7634   -0.1288 H   0  0  0  0  0  0  0  0  0  0  0  0
   -2.2330   -1.7647   -0.5433 H   0  0  0  0  0  0  0  0  0  0  0  0
   -2.6523   -0.1929   -1.4190 H   0  0  0  0  0  0  0  0  0  0  0  0
   -2.1400    1.1276    0.4119 H   0  0  0  0  0  0  0  0  0  0  0  0
   -2.2658   -0.1971    1.5865 H   0  0  0  0  0  0  0  0  0  0  0  0
    0.9937   -0.0719    2.0714 H   0  0  0  0  0  0  0  0  0  0  0  0
   -0.1575    1.3747    2.0033 H   0  0  0  0  0  0  0  0  0  0  0  0
    1.5048    2.2603    0.2977 H   0  0  0  0  0  0  0  0  0  0  0  0
    3.0506    0.0910    0.8202 H   0  0  0  0  0  0  0  0  0  0  0  0
    2.9481    0.7400   -0.8903 H   0  0  0  0  0  0  0  0  0  0  0  0
    2.1825   -1.3251   -1.5246 H   0  0  0  0  0  0  0  0  0  0  0  0
    1.8929   -1.8210    0.1778 H   0  0  0  0  0  0  0  0  0  0  0  0
   -0.2963   -1.2384   -1.4955 H   0  0  0  0  0  0  0  0  0  0  0  0
   -0.4110    1.4098   -1.2657 H   0  0  0  0  0  0  0  0  0  0  0  0
  1  2  1  0
  2  3  1  0
  3  4  1  0
  4  5  1  0
  5  6  1  0
  6  7  1  0
  7  8  1  0
  8  9  1  0
  8  3  1  0
  9  3  1  0
  9  5  1  0
  1 10  1  0
  1 11  1  0
  1 12  1  0
  2 13  1  0
  2 14  1  0
  4 15  1  0
  4 16  1  0
  5 17  1  0
  6 18  1  0
  6 19  1  0
  7 20  1  0
  7 21  1  0
  8 22  1  0
  9 23  1  0
M  END
