
     RDKit          3D

 23 23  0  0  0  0  0  0  0  0999 V2000
    2.1817   -0.3232    0.7107 C   0  0  0  0  0  0  0  0  0  0  0  0
    1.4414    0.4099   -0.3638 C   0  0  0  0  0  0  0  0  0  0  0  0
   -0.0566    0.2969   -0.2449 C   0  0  0  0  0  0  0  0  0  0  0  0
   -0.6034    0.7761    0.9112 O   0  0  0  0  0  0  0  0  0  0  0  0
   -0.3991    2.0981    1.1800 C   0  0  0  0  0  0  0  0  0  0  0  0
   -0.8058    0.2142   -1.5179 C   0  0  0  0  0  0  0  0  0  0  0  0
   -0.6994   -1.0138   -0.7313 C   0  0  0  0  0  0  0  0  0  0  0  0
   -1.9692   -1.4668   -0.0277 C   0  0  0  0  0  0  0  0  0  0  0  0
    0.2324   -2.0080   -1.0503 O   0  0  0  0  0  0  0  0  0  0  0  0
    3.1991    0.0999    0.8313 H   0  0  0  0  0  0  0  0  0  0  0  0
    2.2776   -1.3842    0.3951 H   0  0  0  0  0  0  0  0  0  0  0  0
    1.6113   -0.3177    1.6522 H   0  0  0  0  0  0  0  0  0  0  0  0
    1.7480    0.0279   -1.3596 H   0  0  0  0  0  0  0  0  0  0  0  0
    1.7049    1.4860   -0.3162 H   0  0  0  0  0  0  0  0  0  0  0  0
    0.6894    2.2885    1.2551 H   0  0  0  0  0  0  0  0  0  0  0  0
   -0.9097    2.7914    0.4856 H   0  0  0  0  0  0  0  0  0  0  0  0
   -0.8134    2.3173    2.1910 H   0  0  0  0  0  0  0  0  0  0  0  0
   -0.2307    0.2860   -2.4633 H   0  0  0  0  0  0  0  0  0  0  0  0
   -1.8160    0.6942   -1.6205 H   0  0  0  0  0  0  0  0  0  0  0  0
   -2.8136   -1.1445   -0.6702 H   0  0  0  0  0  0  0  0  0  0  0  0
   -2.0667   -0.8585    0.9123 H   0  0  0  0  0  0  0  0  0  0  0  0
   -1.9707   -2.5295    0.2192 H   0  0  0  0  0  0  0  0  0  0  0  0
    0.0686   -2.7401   -0.3782 H   0  0  0  0  0  0  0  0  0  0  0  0
  1  2  1  0
  2  3  1  0
  3  4  1  0
  4  5  1  0
  3  6  1  0
  6  7  1  0
  7  8  1  0
  7  9  1  0
  7  3  1  0
  1 10  1  0
  1 11  1  0
  1 12  1  0
  2 13  1  0
  2 14  1  0
  5 15  1  0
  5 16  1  0
  5 17  1  0
  6 18  1  0
  6 19  1  0
  8 20  1  0
  8 21  1  0
  8 22  1  0
  9 23  1  0
M  END
