
     RDKit          3D

 21 23  0  0  0  0  0  0  0  0999 V2000
   -2.4003    0.6651   -0.0145 C   0  0  0  0  0  0  0  0  0  0  0  0
   -1.8103   -0.6942   -0.1197 C   0  0  0  0  0  0  0  0  0  0  0  0
   -0.3653   -0.8584   -0.0532 C   0  0  0  0  0  0  0  0  0  0  0  0
    0.6050   -0.2807   -0.9800 C   0  0  0  0  0  0  0  0  0  0  0  0
    1.6187   -0.6548    0.0975 C   0  0  0  0  0  0  0  0  0  0  0  0
    2.6387    0.3896    0.0110 C   0  0  0  0  0  0  0  0  0  0  0  0
    1.8593    1.5270   -0.1882 O   0  0  0  0  0  0  0  0  0  0  0  0
    0.5543    1.0014   -0.2362 C   0  0  0  0  0  0  0  0  0  0  0  0
    0.4710    0.0170    0.8416 C   0  0  0  0  0  0  0  0  0  0  0  0
   -2.3830    1.1524   -1.0097 H   0  0  0  0  0  0  0  0  0  0  0  0
   -2.0501    1.2598    0.8283 H   0  0  0  0  0  0  0  0  0  0  0  0
   -3.5325    0.5970    0.1876 H   0  0  0  0  0  0  0  0  0  0  0  0
   -2.2393   -1.2783    0.7641 H   0  0  0  0  0  0  0  0  0  0  0  0
   -2.2201   -1.2685   -0.9925 H   0  0  0  0  0  0  0  0  0  0  0  0
   -0.0350   -1.9420    0.1927 H   0  0  0  0  0  0  0  0  0  0  0  0
    0.7499   -0.4260   -1.9640 H   0  0  0  0  0  0  0  0  0  0  0  0
    1.8152   -1.6785    0.2780 H   0  0  0  0  0  0  0  0  0  0  0  0
    3.3428    0.2005   -0.8255 H   0  0  0  0  0  0  0  0  0  0  0  0
    3.1880    0.4476    0.9933 H   0  0  0  0  0  0  0  0  0  0  0  0
   -0.2119    1.7183   -0.4692 H   0  0  0  0  0  0  0  0  0  0  0  0
    0.4051    0.1057    1.8346 H   0  0  0  0  0  0  0  0  0  0  0  0
  1  2  1  0
  2  3  1  0
  3  4  1  0
  4  5  1  0
  5  6  1  0
  6  7  1  0
  7  8  1  0
  8  9  1  0
  9  3  1  0
  8  4  1  0
  9  5  1  0
  1 10  1  0
  1 11  1  0
  1 12  1  0
  2 13  1  0
  2 14  1  0
  3 15  1  0
  4 16  1  0
  5 17  1  0
  6 18  1  0
  6 19  1  0
  8 20  1  0
  9 21  1  0
M  END
