
     RDKit          3D

 21 21  0  0  0  0  0  0  0  0999 V2000
    1.9133    0.7955    0.8886 C   0  0  0  0  0  0  0  0  0  0  0  0
    1.3648   -0.5512    0.4366 C   0  0  0  0  0  0  0  0  0  0  0  0
   -0.0070   -0.4144   -0.1813 C   0  0  0  0  0  0  0  0  0  0  0  0
   -0.5039   -1.7773   -0.6122 C   0  0  0  0  0  0  0  0  0  0  0  0
   -0.1409    0.6617   -1.1803 C   0  0  0  0  0  0  0  0  0  0  0  0
    0.2854    0.9712   -2.2824 O   0  0  0  0  0  0  0  0  0  0  0  0
   -1.1194    1.3976   -0.3083 C   0  0  0  0  0  0  0  0  0  0  0  0
   -1.0288    0.2616    0.6774 C   0  0  0  0  0  0  0  0  0  0  0  0
   -2.2614   -0.4015    0.7321 O   0  0  0  0  0  0  0  0  0  0  0  0
    2.4313    1.2641    0.0069 H   0  0  0  0  0  0  0  0  0  0  0  0
    2.7442    0.5639    1.6044 H   0  0  0  0  0  0  0  0  0  0  0  0
    1.1537    1.4438    1.3233 H   0  0  0  0  0  0  0  0  0  0  0  0
    2.0869   -0.9416   -0.3092 H   0  0  0  0  0  0  0  0  0  0  0  0
    1.3689   -1.2005    1.3201 H   0  0  0  0  0  0  0  0  0  0  0  0
    0.2470   -2.3301   -1.2065 H   0  0  0  0  0  0  0  0  0  0  0  0
   -1.4709   -1.6558   -1.1677 H   0  0  0  0  0  0  0  0  0  0  0  0
   -0.7384   -2.3464    0.3331 H   0  0  0  0  0  0  0  0  0  0  0  0
   -0.7154    2.3299    0.1066 H   0  0  0  0  0  0  0  0  0  0  0  0
   -2.1136    1.5256   -0.7992 H   0  0  0  0  0  0  0  0  0  0  0  0
   -0.6468    0.5585    1.6888 H   0  0  0  0  0  0  0  0  0  0  0  0
   -2.8492   -0.1544   -0.0424 H   0  0  0  0  0  0  0  0  0  0  0  0
  1  2  1  0
  2  3  1  0
  3  4  1  0
  3  5  1  0
  5  6  2  0
  5  7  1  0
  7  8  1  0
  8  9  1  0
  8  3  1  0
  1 10  1  0
  1 11  1  0
  1 12  1  0
  2 13  1  0
  2 14  1  0
  4 15  1  0
  4 16  1  0
  4 17  1  0
  7 18  1  0
  7 19  1  0
  8 20  1  0
  9 21  1  0
M  END
