
     RDKit          3D

 18 18  0  0  0  0  0  0  0  0999 V2000
   -2.1438    0.1015    0.2463 C   0  0  0  0  0  0  0  0  0  0  0  0
   -1.1916   -0.9818   -0.1647 C   0  0  0  0  0  0  0  0  0  0  0  0
    0.2420   -0.5918    0.0226 C   0  0  0  0  0  0  0  0  0  0  0  0
    1.1406   -1.6134   -0.3650 O   0  0  0  0  0  0  0  0  0  0  0  0
    0.6501    0.2611    1.1558 C   0  0  0  0  0  0  0  0  0  0  0  0
    0.7307    0.7757   -0.2318 C   0  0  0  0  0  0  0  0  0  0  0  0
    2.1089    1.0313   -0.7350 C   0  0  0  0  0  0  0  0  0  0  0  0
    2.3927    1.9550   -1.4793 O   0  0  0  0  0  0  0  0  0  0  0  0
   -3.1788   -0.2527    0.1209 H   0  0  0  0  0  0  0  0  0  0  0  0
   -1.9857    0.3044    1.3158 H   0  0  0  0  0  0  0  0  0  0  0  0
   -1.9658    0.9787   -0.3831 H   0  0  0  0  0  0  0  0  0  0  0  0
   -1.4189   -1.2477   -1.2213 H   0  0  0  0  0  0  0  0  0  0  0  0
   -1.4042   -1.9224    0.4193 H   0  0  0  0  0  0  0  0  0  0  0  0
    1.6135   -1.3718   -1.2016 H   0  0  0  0  0  0  0  0  0  0  0  0
   -0.0638    0.7379    1.8434 H   0  0  0  0  0  0  0  0  0  0  0  0
    1.5993   -0.0229    1.6708 H   0  0  0  0  0  0  0  0  0  0  0  0
   -0.0099    1.5159   -0.6071 H   0  0  0  0  0  0  0  0  0  0  0  0
    2.8845    0.3428   -0.4059 H   0  0  0  0  0  0  0  0  0  0  0  0
  1  2  1  0
  2  3  1  0
  3  4  1  0
  3  5  1  0
  5  6  1  0
  6  7  1  0
  7  8  2  0
  6  3  1  0
  1  9  1  0
  1 10  1  0
  1 11  1  0
  2 12  1  0
  2 13  1  0
  4 14  1  0
  5 15  1  0
  5 16  1  0
  6 17  1  0
  7 18  1  0
M  END
