
     RDKit          3D

 25 25  0  0  0  0  0  0  0  0999 V2000
   -2.9890   -0.4301    0.1664 C   0  0  0  0  0  0  0  0  0  0  0  0
   -1.9192    0.2688   -0.5951 C   0  0  0  0  0  0  0  0  0  0  0  0
   -0.5908    0.2930    0.1297 C   0  0  0  0  0  0  0  0  0  0  0  0
    0.4432    1.0128   -0.6941 C   0  0  0  0  0  0  0  0  0  0  0  0
    1.6264    1.3783    0.1506 C   0  0  0  0  0  0  0  0  0  0  0  0
    2.6681    0.3045    0.2457 C   0  0  0  0  0  0  0  0  0  0  0  0
    2.2189   -0.8840    0.7532 O   0  0  0  0  0  0  0  0  0  0  0  0
    1.1894   -1.4669    0.0406 C   0  0  0  0  0  0  0  0  0  0  0  0
   -0.1737   -1.0573    0.5904 C   0  0  0  0  0  0  0  0  0  0  0  0
   -3.5159   -1.1341   -0.5416 H   0  0  0  0  0  0  0  0  0  0  0  0
   -3.8023    0.2830    0.4862 H   0  0  0  0  0  0  0  0  0  0  0  0
   -2.6388   -1.0500    1.0035 H   0  0  0  0  0  0  0  0  0  0  0  0
   -2.2216    1.3178   -0.7441 H   0  0  0  0  0  0  0  0  0  0  0  0
   -1.7473   -0.1849   -1.5885 H   0  0  0  0  0  0  0  0  0  0  0  0
   -0.7558    0.9315    1.0422 H   0  0  0  0  0  0  0  0  0  0  0  0
    0.6970    0.5102   -1.6339 H   0  0  0  0  0  0  0  0  0  0  0  0
   -0.0429    1.9882   -0.9959 H   0  0  0  0  0  0  0  0  0  0  0  0
    2.1146    2.2601   -0.3284 H   0  0  0  0  0  0  0  0  0  0  0  0
    1.3121    1.6672    1.1487 H   0  0  0  0  0  0  0  0  0  0  0  0
    3.2137    0.1919   -0.7311 H   0  0  0  0  0  0  0  0  0  0  0  0
    3.4413    0.6822    0.9581 H   0  0  0  0  0  0  0  0  0  0  0  0
    1.2531   -1.3601   -1.0391 H   0  0  0  0  0  0  0  0  0  0  0  0
    1.2572   -2.5763    0.2488 H   0  0  0  0  0  0  0  0  0  0  0  0
   -0.1257   -1.1364    1.7006 H   0  0  0  0  0  0  0  0  0  0  0  0
   -0.9120   -1.8094    0.2269 H   0  0  0  0  0  0  0  0  0  0  0  0
  1  2  1  0
  2  3  1  0
  3  4  1  0
  4  5  1  0
  5  6  1  0
  6  7  1  0
  7  8  1  0
  8  9  1  0
  9  3  1  0
  1 10  1  0
  1 11  1  0
  1 12  1  0
  2 13  1  0
  2 14  1  0
  3 15  1  0
  4 16  1  0
  4 17  1  0
  5 18  1  0
  5 19  1  0
  6 20  1  0
  6 21  1  0
  8 22  1  0
  8 23  1  0
  9 24  1  0
  9 25  1  0
M  END
