
     RDKit          3D

 25 25  0  0  0  0  0  0  0  0999 V2000
    2.4982    0.2075    0.3976 C   0  0  0  0  0  0  0  0  0  0  0  0
    1.0793    0.6114    0.4086 C   0  0  0  0  0  0  0  0  0  0  0  0
    0.1053   -0.3965   -0.0961 C   0  0  0  0  0  0  0  0  0  0  0  0
   -1.3096    0.0851   -0.0538 C   0  0  0  0  0  0  0  0  0  0  0  0
   -1.4939    1.3354   -0.9049 C   0  0  0  0  0  0  0  0  0  0  0  0
   -1.7968    0.4375    1.3273 C   0  0  0  0  0  0  0  0  0  0  0  0
    0.3866   -0.9758   -1.4658 C   0  0  0  0  0  0  0  0  0  0  0  0
   -0.2568   -2.1442   -0.9819 O   0  0  0  0  0  0  0  0  0  0  0  0
    0.3552   -1.8251    0.2345 C   0  0  0  0  0  0  0  0  0  0  0  0
    2.7802   -0.5877   -0.2862 H   0  0  0  0  0  0  0  0  0  0  0  0
    2.8840   -0.0996    1.4142 H   0  0  0  0  0  0  0  0  0  0  0  0
    3.1402    1.0984    0.1329 H   0  0  0  0  0  0  0  0  0  0  0  0
    0.8024    0.8517    1.4565 H   0  0  0  0  0  0  0  0  0  0  0  0
    0.9557    1.5428   -0.2089 H   0  0  0  0  0  0  0  0  0  0  0  0
   -2.0357   -0.6460   -0.4706 H   0  0  0  0  0  0  0  0  0  0  0  0
   -1.3140    1.1332   -1.9781 H   0  0  0  0  0  0  0  0  0  0  0  0
   -2.5888    1.6060   -0.8420 H   0  0  0  0  0  0  0  0  0  0  0  0
   -0.9507    2.1990   -0.5195 H   0  0  0  0  0  0  0  0  0  0  0  0
   -1.5103    1.4667    1.6394 H   0  0  0  0  0  0  0  0  0  0  0  0
   -1.4451   -0.2610    2.1060 H   0  0  0  0  0  0  0  0  0  0  0  0
   -2.9068    0.4051    1.3582 H   0  0  0  0  0  0  0  0  0  0  0  0
   -0.1283   -0.4951   -2.2994 H   0  0  0  0  0  0  0  0  0  0  0  0
    1.4330   -1.2396   -1.6742 H   0  0  0  0  0  0  0  0  0  0  0  0
    1.4239   -2.0676    0.1743 H   0  0  0  0  0  0  0  0  0  0  0  0
   -0.1071   -2.2416    1.1320 H   0  0  0  0  0  0  0  0  0  0  0  0
  1  2  1  0
  2  3  1  0
  3  4  1  0
  4  5  1  0
  4  6  1  0
  3  7  1  0
  7  8  1  0
  8  9  1  0
  9  3  1  0
  1 10  1  0
  1 11  1  0
  1 12  1  0
  2 13  1  0
  2 14  1  0
  4 15  1  0
  5 16  1  0
  5 17  1  0
  5 18  1  0
  6 19  1  0
  6 20  1  0
  6 21  1  0
  7 22  1  0
  7 23  1  0
  9 24  1  0
  9 25  1  0
M  END
