
     RDKit          3D

 23 23  0  0  0  0  0  0  0  0999 V2000
    2.5640    1.2615   -0.1346 C   0  0  0  0  0  0  0  0  0  0  0  0
    2.1771   -0.1862   -0.0817 C   0  0  0  0  0  0  0  0  0  0  0  0
    0.7140   -0.3962    0.0477 C   0  0  0  0  0  0  0  0  0  0  0  0
   -0.1153    0.6315    0.1056 C   0  0  0  0  0  0  0  0  0  0  0  0
   -1.5724    0.3399    0.2356 C   0  0  0  0  0  0  0  0  0  0  0  0
   -2.4393    1.5078   -0.0960 C   0  0  0  0  0  0  0  0  0  0  0  0
   -1.8361   -0.7211   -0.6477 O   0  0  0  0  0  0  0  0  0  0  0  0
   -1.2694   -1.8857   -0.1846 C   0  0  0  0  0  0  0  0  0  0  0  0
    0.2005   -1.7768    0.1107 C   0  0  0  0  0  0  0  0  0  0  0  0
    3.6743    1.3066   -0.0672 H   0  0  0  0  0  0  0  0  0  0  0  0
    2.1416    1.8142   -0.9714 H   0  0  0  0  0  0  0  0  0  0  0  0
    2.1972    1.7579    0.8076 H   0  0  0  0  0  0  0  0  0  0  0  0
    2.7377   -0.6405    0.7749 H   0  0  0  0  0  0  0  0  0  0  0  0
    2.5740   -0.6657   -1.0112 H   0  0  0  0  0  0  0  0  0  0  0  0
    0.3026    1.6214    0.0561 H   0  0  0  0  0  0  0  0  0  0  0  0
   -1.8029   -0.0030    1.2741 H   0  0  0  0  0  0  0  0  0  0  0  0
   -3.2192    1.2220   -0.8591 H   0  0  0  0  0  0  0  0  0  0  0  0
   -3.0326    1.8686    0.7936 H   0  0  0  0  0  0  0  0  0  0  0  0
   -1.8984    2.3796   -0.4727 H   0  0  0  0  0  0  0  0  0  0  0  0
   -1.8605   -2.2146    0.7016 H   0  0  0  0  0  0  0  0  0  0  0  0
   -1.4159   -2.6602   -0.9846 H   0  0  0  0  0  0  0  0  0  0  0  0
    0.3515   -2.1394    1.1494 H   0  0  0  0  0  0  0  0  0  0  0  0
    0.8277   -2.4216   -0.5460 H   0  0  0  0  0  0  0  0  0  0  0  0
  1  2  1  0
  2  3  1  0
  3  4  2  0
  4  5  1  0
  5  6  1  0
  5  7  1  0
  7  8  1  0
  8  9  1  0
  9  3  1  0
  1 10  1  0
  1 11  1  0
  1 12  1  0
  2 13  1  0
  2 14  1  0
  4 15  1  0
  5 16  1  0
  6 17  1  0
  6 18  1  0
  6 19  1  0
  8 20  1  0
  8 21  1  0
  9 22  1  0
  9 23  1  0
M  END
