
     RDKit          3D

 21 23  0  0  0  0  0  0  0  0999 V2000
    3.0357    0.4773   -0.4236 C   0  0  0  0  0  0  0  0  0  0  0  0
    1.7178    0.7440    0.2766 C   0  0  0  0  0  0  0  0  0  0  0  0
    0.7726   -0.3780   -0.0567 C   0  0  0  0  0  0  0  0  0  0  0  0
    1.1723   -1.6329    0.3168 O   0  0  0  0  0  0  0  0  0  0  0  0
    0.0672   -1.1011    0.9311 C   0  0  0  0  0  0  0  0  0  0  0  0
   -1.1984   -1.0766    0.1426 C   0  0  0  0  0  0  0  0  0  0  0  0
   -1.7044    0.3015   -0.2051 C   0  0  0  0  0  0  0  0  0  0  0  0
   -2.9989    0.3045   -0.9496 C   0  0  0  0  0  0  0  0  0  0  0  0
   -0.4534   -0.1418   -0.8642 C   0  0  0  0  0  0  0  0  0  0  0  0
    3.3421    1.4243   -0.9046 H   0  0  0  0  0  0  0  0  0  0  0  0
    3.8175    0.1071    0.2932 H   0  0  0  0  0  0  0  0  0  0  0  0
    2.9296   -0.2804   -1.2045 H   0  0  0  0  0  0  0  0  0  0  0  0
    1.9569    0.7746    1.3796 H   0  0  0  0  0  0  0  0  0  0  0  0
    1.2979    1.7422   -0.0041 H   0  0  0  0  0  0  0  0  0  0  0  0
    0.0853   -0.7976    1.9931 H   0  0  0  0  0  0  0  0  0  0  0  0
   -1.6231   -1.9694   -0.3139 H   0  0  0  0  0  0  0  0  0  0  0  0
   -1.6351    1.0205    0.6393 H   0  0  0  0  0  0  0  0  0  0  0  0
   -3.0502   -0.4980   -1.7029 H   0  0  0  0  0  0  0  0  0  0  0  0
   -3.2226    1.2941   -1.4277 H   0  0  0  0  0  0  0  0  0  0  0  0
   -3.8198    0.1426   -0.1910 H   0  0  0  0  0  0  0  0  0  0  0  0
   -0.4892   -0.4570   -1.9289 H   0  0  0  0  0  0  0  0  0  0  0  0
  1  2  1  0
  2  3  1  0
  3  4  1  0
  4  5  1  0
  5  6  1  0
  6  7  1  0
  7  8  1  0
  7  9  1  0
  5  3  1  0
  9  6  1  0
  9  3  1  0
  1 10  1  0
  1 11  1  0
  1 12  1  0
  2 13  1  0
  2 14  1  0
  5 15  1  0
  6 16  1  0
  7 17  1  0
  8 18  1  0
  8 19  1  0
  8 20  1  0
  9 21  1  0
M  END
