
     RDKit          3D

 23 23  0  0  0  0  0  0  0  0999 V2000
    2.8561    0.2243   -0.1175 C   0  0  0  0  0  0  0  0  0  0  0  0
    1.6425   -0.3960   -0.7795 C   0  0  0  0  0  0  0  0  0  0  0  0
    0.4262    0.4256   -0.4921 C   0  0  0  0  0  0  0  0  0  0  0  0
   -0.0448    0.6625    0.8897 C   0  0  0  0  0  0  0  0  0  0  0  0
   -0.7497    1.8365    1.1450 O   0  0  0  0  0  0  0  0  0  0  0  0
   -0.8056   -0.2991   -0.0131 C   0  0  0  0  0  0  0  0  0  0  0  0
   -0.7276   -1.7276    0.4104 C   0  0  0  0  0  0  0  0  0  0  0  0
   -2.1020    0.1653   -0.6340 C   0  0  0  0  0  0  0  0  0  0  0  0
   -2.3651    1.4949   -0.3937 O   0  0  0  0  0  0  0  0  0  0  0  0
    3.3101   -0.4331    0.6382 H   0  0  0  0  0  0  0  0  0  0  0  0
    2.5616    1.1622    0.3754 H   0  0  0  0  0  0  0  0  0  0  0  0
    3.6545    0.4756   -0.8465 H   0  0  0  0  0  0  0  0  0  0  0  0
    1.8292   -0.3630   -1.8723 H   0  0  0  0  0  0  0  0  0  0  0  0
    1.5168   -1.4596   -0.4893 H   0  0  0  0  0  0  0  0  0  0  0  0
    0.2809    1.2812   -1.1956 H   0  0  0  0  0  0  0  0  0  0  0  0
    0.4763    0.2600    1.7744 H   0  0  0  0  0  0  0  0  0  0  0  0
   -1.2293    1.8206    1.9943 H   0  0  0  0  0  0  0  0  0  0  0  0
    0.1978   -1.9112    1.0003 H   0  0  0  0  0  0  0  0  0  0  0  0
   -1.5684   -1.9001    1.1457 H   0  0  0  0  0  0  0  0  0  0  0  0
   -0.8446   -2.4315   -0.4309 H   0  0  0  0  0  0  0  0  0  0  0  0
   -2.9106   -0.4409   -0.1900 H   0  0  0  0  0  0  0  0  0  0  0  0
   -2.0877   -0.0634   -1.7283 H   0  0  0  0  0  0  0  0  0  0  0  0
   -3.3164    1.6168   -0.1908 H   0  0  0  0  0  0  0  0  0  0  0  0
  1  2  1  0
  2  3  1  0
  3  4  1  0
  4  5  1  0
  4  6  1  0
  6  7  1  0
  6  8  1  0
  8  9  1  0
  6  3  1  0
  1 10  1  0
  1 11  1  0
  1 12  1  0
  2 13  1  0
  2 14  1  0
  3 15  1  0
  4 16  1  0
  5 17  1  0
  7 18  1  0
  7 19  1  0
  7 20  1  0
  8 21  1  0
  8 22  1  0
  9 23  1  0
M  END
