
     RDKit          3D

 25 25  0  0  0  0  0  0  0  0999 V2000
    3.0490   -0.4969   -0.0255 C   0  0  0  0  0  0  0  0  0  0  0  0
    1.7598   -0.2928    0.7382 C   0  0  0  0  0  0  0  0  0  0  0  0
    0.7194    0.3926   -0.1483 C   0  0  0  0  0  0  0  0  0  0  0  0
    0.4284   -0.4394   -1.3526 C   0  0  0  0  0  0  0  0  0  0  0  0
   -0.9589   -0.9409   -1.1624 C   0  0  0  0  0  0  0  0  0  0  0  0
   -1.5373   -0.4200   -0.0904 C   0  0  0  0  0  0  0  0  0  0  0  0
   -2.9331   -0.7725    0.3079 C   0  0  0  0  0  0  0  0  0  0  0  0
   -0.5997    0.4977    0.5673 C   0  0  0  0  0  0  0  0  0  0  0  0
   -1.0479    1.9417    0.5186 C   0  0  0  0  0  0  0  0  0  0  0  0
    3.7898    0.3051    0.2663 H   0  0  0  0  0  0  0  0  0  0  0  0
    2.9048   -0.4852   -1.1271 H   0  0  0  0  0  0  0  0  0  0  0  0
    3.5030   -1.4397    0.3435 H   0  0  0  0  0  0  0  0  0  0  0  0
    1.3755   -1.2947    1.0577 H   0  0  0  0  0  0  0  0  0  0  0  0
    1.9899    0.3318    1.6211 H   0  0  0  0  0  0  0  0  0  0  0  0
    1.1441    1.4000   -0.3978 H   0  0  0  0  0  0  0  0  0  0  0  0
    1.0792   -1.3607   -1.3504 H   0  0  0  0  0  0  0  0  0  0  0  0
    0.5599    0.1033   -2.3134 H   0  0  0  0  0  0  0  0  0  0  0  0
   -1.4031   -1.6606   -1.8620 H   0  0  0  0  0  0  0  0  0  0  0  0
   -2.9693   -1.6552    0.9797 H   0  0  0  0  0  0  0  0  0  0  0  0
   -3.5427   -1.0248   -0.5868 H   0  0  0  0  0  0  0  0  0  0  0  0
   -3.4074    0.0645    0.8726 H   0  0  0  0  0  0  0  0  0  0  0  0
   -0.4478    0.2462    1.6380 H   0  0  0  0  0  0  0  0  0  0  0  0
   -1.6817    2.2198    1.3856 H   0  0  0  0  0  0  0  0  0  0  0  0
   -1.6075    2.1488   -0.4039 H   0  0  0  0  0  0  0  0  0  0  0  0
   -0.1666    2.6318    0.5241 H   0  0  0  0  0  0  0  0  0  0  0  0
  1  2  1  0
  2  3  1  0
  3  4  1  0
  4  5  1  0
  5  6  2  0
  6  7  1  0
  6  8  1  0
  8  9  1  0
  8  3  1  0
  1 10  1  0
  1 11  1  0
  1 12  1  0
  2 13  1  0
  2 14  1  0
  3 15  1  0
  4 16  1  0
  4 17  1  0
  5 18  1  0
  7 19  1  0
  7 20  1  0
  7 21  1  0
  8 22  1  0
  9 23  1  0
  9 24  1  0
  9 25  1  0
M  END
