
     RDKit          3D

 21 24  0  0  0  0  0  0  0  0999 V2000
    2.5420    0.7374   -0.1278 C   0  0  0  0  0  0  0  0  0  0  0  0
    1.0891    1.0979   -0.3413 C   0  0  0  0  0  0  0  0  0  0  0  0
    0.2296   -0.0184   -0.1168 C   0  0  0  0  0  0  0  0  0  0  0  0
    0.1110   -1.3080   -0.7066 C   0  0  0  0  0  0  0  0  0  0  0  0
   -1.3175   -1.3834   -0.3442 C   0  0  0  0  0  0  0  0  0  0  0  0
   -1.0154   -1.2104    1.0406 C   0  0  0  0  0  0  0  0  0  0  0  0
    0.4377   -1.2111    0.7004 C   0  0  0  0  0  0  0  0  0  0  0  0
   -1.1942   -0.0289    0.2803 C   0  0  0  0  0  0  0  0  0  0  0  0
   -2.2110    0.9335    0.0576 C   0  0  0  0  0  0  0  0  0  0  0  0
    3.1821    1.0534   -0.9916 H   0  0  0  0  0  0  0  0  0  0  0  0
    2.6900   -0.3549    0.0031 H   0  0  0  0  0  0  0  0  0  0  0  0
    2.9771    1.2180    0.7722 H   0  0  0  0  0  0  0  0  0  0  0  0
    0.8734    1.9333    0.3866 H   0  0  0  0  0  0  0  0  0  0  0  0
    1.0116    1.5614   -1.3489 H   0  0  0  0  0  0  0  0  0  0  0  0
    0.6108   -1.7980   -1.4939 H   0  0  0  0  0  0  0  0  0  0  0  0
   -2.1294   -1.7537   -0.8845 H   0  0  0  0  0  0  0  0  0  0  0  0
   -1.4493   -1.5909    1.9221 H   0  0  0  0  0  0  0  0  0  0  0  0
    1.2454   -1.5274    1.2708 H   0  0  0  0  0  0  0  0  0  0  0  0
   -2.7388    0.7803   -0.9303 H   0  0  0  0  0  0  0  0  0  0  0  0
   -3.0346    0.8558    0.8168 H   0  0  0  0  0  0  0  0  0  0  0  0
   -1.9097    2.0143    0.0354 H   0  0  0  0  0  0  0  0  0  0  0  0
  1  2  1  0
  2  3  1  0
  3  4  1  0
  4  5  1  0
  5  6  1  0
  6  7  1  0
  6  8  1  0
  8  9  1  0
  7  3  1  0
  8  3  1  0
  7  4  1  0
  8  5  1  0
  1 10  1  0
  1 11  1  0
  1 12  1  0
  2 13  1  0
  2 14  1  0
  4 15  1  0
  5 16  1  0
  6 17  1  0
  7 18  1  0
  9 19  1  0
  9 20  1  0
  9 21  1  0
M  END
