
     RDKit          3D

 20 21  0  0  0  0  0  0  0  0999 V2000
    2.5555    0.5348   -0.4997 C   0  0  0  0  0  0  0  0  0  0  0  0
    1.7069   -0.7189   -0.5012 C   0  0  0  0  0  0  0  0  0  0  0  0
    0.7090   -0.6139    0.6538 C   0  0  0  0  0  0  0  0  0  0  0  0
   -0.1744   -1.6749    0.8309 O   0  0  0  0  0  0  0  0  0  0  0  0
   -0.6240   -0.4393    0.4375 C   0  0  0  0  0  0  0  0  0  0  0  0
   -1.4131   -0.2649   -0.8069 C   0  0  0  0  0  0  0  0  0  0  0  0
   -2.2776    0.7546   -0.0893 C   0  0  0  0  0  0  0  0  0  0  0  0
   -1.6284    0.3296    1.2249 C   0  0  0  0  0  0  0  0  0  0  0  0
    3.3981    0.3892    0.2254 H   0  0  0  0  0  0  0  0  0  0  0  0
    1.9288    1.3462   -0.0706 H   0  0  0  0  0  0  0  0  0  0  0  0
    2.9334    0.7917   -1.5110 H   0  0  0  0  0  0  0  0  0  0  0  0
    2.2962   -1.6349   -0.4651 H   0  0  0  0  0  0  0  0  0  0  0  0
    1.1211   -0.7198   -1.4401 H   0  0  0  0  0  0  0  0  0  0  0  0
    1.2107   -0.2969    1.5959 H   0  0  0  0  0  0  0  0  0  0  0  0
   -0.8833    0.1179   -1.7008 H   0  0  0  0  0  0  0  0  0  0  0  0
   -2.0382   -1.1835   -0.9924 H   0  0  0  0  0  0  0  0  0  0  0  0
   -3.3574    0.5176   -0.0604 H   0  0  0  0  0  0  0  0  0  0  0  0
   -2.0039    1.7648   -0.4326 H   0  0  0  0  0  0  0  0  0  0  0  0
   -1.1738    1.2327    1.6953 H   0  0  0  0  0  0  0  0  0  0  0  0
   -2.2853   -0.2320    1.9062 H   0  0  0  0  0  0  0  0  0  0  0  0
  1  2  1  0
  2  3  1  0
  3  4  1  0
  4  5  1  0
  5  6  1  0
  6  7  1  0
  7  8  1  0
  5  3  1  0
  8  5  1  0
  1  9  1  0
  1 10  1  0
  1 11  1  0
  2 12  1  0
  2 13  1  0
  3 14  1  0
  6 15  1  0
  6 16  1  0
  7 17  1  0
  7 18  1  0
  8 19  1  0
  8 20  1  0
M  END
