
     RDKit          3D

 21 22  0  0  0  0  0  0  0  0999 V2000
   -2.7588    0.1706   -0.0272 C   0  0  0  0  0  0  0  0  0  0  0  0
   -1.5529   -0.6676    0.2674 C   0  0  0  0  0  0  0  0  0  0  0  0
   -0.3906   -0.1292   -0.5204 C   0  0  0  0  0  0  0  0  0  0  0  0
   -0.1204    1.2680   -0.1448 C   0  0  0  0  0  0  0  0  0  0  0  0
    1.1643    1.4418    0.0669 C   0  0  0  0  0  0  0  0  0  0  0  0
    1.9052    0.1665   -0.1458 C   0  0  0  0  0  0  0  0  0  0  0  0
    2.9556    0.1213   -1.0226 O   0  0  0  0  0  0  0  0  0  0  0  0
    1.6752   -0.8688    0.8888 C   0  0  0  0  0  0  0  0  0  0  0  0
    0.8709   -0.9056   -0.3304 C   0  0  0  0  0  0  0  0  0  0  0  0
   -2.9274    0.2224   -1.1298 H   0  0  0  0  0  0  0  0  0  0  0  0
   -2.6750    1.1889    0.3543 H   0  0  0  0  0  0  0  0  0  0  0  0
   -3.6718   -0.2798    0.4230 H   0  0  0  0  0  0  0  0  0  0  0  0
   -1.3424   -0.6119    1.3679 H   0  0  0  0  0  0  0  0  0  0  0  0
   -1.7570   -1.7208    0.0490 H   0  0  0  0  0  0  0  0  0  0  0  0
   -0.6679   -0.1550   -1.5957 H   0  0  0  0  0  0  0  0  0  0  0  0
   -0.8678    2.0437   -0.0545 H   0  0  0  0  0  0  0  0  0  0  0  0
    1.6434    2.3688    0.3557 H   0  0  0  0  0  0  0  0  0  0  0  0
    3.8372    0.3068   -0.6169 H   0  0  0  0  0  0  0  0  0  0  0  0
    2.4218   -1.6769    1.0162 H   0  0  0  0  0  0  0  0  0  0  0  0
    1.2235   -0.5621    1.8616 H   0  0  0  0  0  0  0  0  0  0  0  0
    1.0351   -1.7213   -1.0626 H   0  0  0  0  0  0  0  0  0  0  0  0
  1  2  1  0
  2  3  1  0
  3  4  1  0
  4  5  2  0
  5  6  1  0
  6  7  1  0
  6  8  1  0
  8  9  1  0
  9  3  1  0
  9  6  1  0
  1 10  1  0
  1 11  1  0
  1 12  1  0
  2 13  1  0
  2 14  1  0
  3 15  1  0
  4 16  1  0
  5 17  1  0
  7 18  1  0
  8 19  1  0
  8 20  1  0
  9 21  1  0
M  END
