
     RDKit          3D

 21 23  0  0  0  0  0  0  0  0999 V2000
    2.7942    0.4180   -0.1604 C   0  0  0  0  0  0  0  0  0  0  0  0
    1.7222   -0.6610   -0.0263 C   0  0  0  0  0  0  0  0  0  0  0  0
    0.3989    0.0042   -0.2212 C   0  0  0  0  0  0  0  0  0  0  0  0
    0.0262    1.0865    0.7157 C   0  0  0  0  0  0  0  0  0  0  0  0
   -0.7098   -0.1763    0.7823 C   0  0  0  0  0  0  0  0  0  0  0  0
   -1.5984   -0.5591   -0.4089 C   0  0  0  0  0  0  0  0  0  0  0  0
   -2.9818   -0.0274   -0.4731 C   0  0  0  0  0  0  0  0  0  0  0  0
   -1.2252   -1.7396   -0.9902 O   0  0  0  0  0  0  0  0  0  0  0  0
   -0.5493   -0.4827   -1.2744 C   0  0  0  0  0  0  0  0  0  0  0  0
    3.4403    0.4001    0.7393 H   0  0  0  0  0  0  0  0  0  0  0  0
    3.3756    0.2861   -1.0787 H   0  0  0  0  0  0  0  0  0  0  0  0
    2.3501    1.4353   -0.1994 H   0  0  0  0  0  0  0  0  0  0  0  0
    1.8800   -1.3970   -0.8603 H   0  0  0  0  0  0  0  0  0  0  0  0
    1.8166   -1.2229    0.9129 H   0  0  0  0  0  0  0  0  0  0  0  0
    0.7347    1.3002    1.5247 H   0  0  0  0  0  0  0  0  0  0  0  0
   -0.3874    2.0002    0.2433 H   0  0  0  0  0  0  0  0  0  0  0  0
   -0.6093   -0.8703    1.6122 H   0  0  0  0  0  0  0  0  0  0  0  0
   -3.2697    0.3253    0.5585 H   0  0  0  0  0  0  0  0  0  0  0  0
   -3.0721    0.9014   -1.1062 H   0  0  0  0  0  0  0  0  0  0  0  0
   -3.7206   -0.7551   -0.8654 H   0  0  0  0  0  0  0  0  0  0  0  0
   -0.4151   -0.2660   -2.3264 H   0  0  0  0  0  0  0  0  0  0  0  0
  1  2  1  0
  2  3  1  0
  3  4  1  0
  4  5  1  0
  5  6  1  0
  6  7  1  0
  6  8  1  0
  8  9  1  0
  5  3  1  0
  9  6  1  0
  9  3  1  0
  1 10  1  0
  1 11  1  0
  1 12  1  0
  2 13  1  0
  2 14  1  0
  4 15  1  0
  4 16  1  0
  5 17  1  0
  7 18  1  0
  7 19  1  0
  7 20  1  0
  9 21  1  0
M  END
