
     RDKit          3D

 23 23  0  0  0  0  0  0  0  0999 V2000
    2.9173   -0.1921    0.3122 C   0  0  0  0  0  0  0  0  0  0  0  0
    1.6237   -0.3586   -0.4799 C   0  0  0  0  0  0  0  0  0  0  0  0
    0.6340    0.6607    0.0219 C   0  0  0  0  0  0  0  0  0  0  0  0
    0.2694    0.6021    1.3848 O   0  0  0  0  0  0  0  0  0  0  0  0
   -0.7284    0.3671    0.3940 C   0  0  0  0  0  0  0  0  0  0  0  0
   -1.2790   -1.0346    0.4548 C   0  0  0  0  0  0  0  0  0  0  0  0
   -1.2176   -1.7557   -0.8445 C   0  0  0  0  0  0  0  0  0  0  0  0
   -1.7503    1.4950    0.2152 C   0  0  0  0  0  0  0  0  0  0  0  0
   -1.1015    2.6475   -0.1510 O   0  0  0  0  0  0  0  0  0  0  0  0
    3.6288    0.4623   -0.2175 H   0  0  0  0  0  0  0  0  0  0  0  0
    2.6729    0.3040    1.2765 H   0  0  0  0  0  0  0  0  0  0  0  0
    3.4313   -1.1648    0.4564 H   0  0  0  0  0  0  0  0  0  0  0  0
    1.8719   -0.0801   -1.5250 H   0  0  0  0  0  0  0  0  0  0  0  0
    1.2744   -1.3919   -0.4225 H   0  0  0  0  0  0  0  0  0  0  0  0
    0.8819    1.6963   -0.2845 H   0  0  0  0  0  0  0  0  0  0  0  0
   -0.8308   -1.6401    1.2668 H   0  0  0  0  0  0  0  0  0  0  0  0
   -2.3667   -0.9378    0.7448 H   0  0  0  0  0  0  0  0  0  0  0  0
   -0.7646   -1.1681   -1.6670 H   0  0  0  0  0  0  0  0  0  0  0  0
   -0.7030   -2.7227   -0.6962 H   0  0  0  0  0  0  0  0  0  0  0  0
   -2.2459   -2.0298   -1.2216 H   0  0  0  0  0  0  0  0  0  0  0  0
   -2.3934    1.5994    1.1019 H   0  0  0  0  0  0  0  0  0  0  0  0
   -2.3790    1.1774   -0.6511 H   0  0  0  0  0  0  0  0  0  0  0  0
   -1.4455    3.4645    0.3136 H   0  0  0  0  0  0  0  0  0  0  0  0
  1  2  1  0
  2  3  1  0
  3  4  1  0
  4  5  1  0
  5  6  1  0
  6  7  1  0
  5  8  1  0
  8  9  1  0
  5  3  1  0
  1 10  1  0
  1 11  1  0
  1 12  1  0
  2 13  1  0
  2 14  1  0
  3 15  1  0
  6 16  1  0
  6 17  1  0
  7 18  1  0
  7 19  1  0
  7 20  1  0
  8 21  1  0
  8 22  1  0
  9 23  1  0
M  END
