
     RDKit          3D

 18 19  0  0  0  0  0  0  0  0999 V2000
   -2.6120   -0.1704   -0.4514 C   0  0  0  0  0  0  0  0  0  0  0  0
   -1.4626    0.8090   -0.3684 C   0  0  0  0  0  0  0  0  0  0  0  0
   -0.2772    0.1974    0.3638 C   0  0  0  0  0  0  0  0  0  0  0  0
    0.1173   -0.9159   -0.3335 O   0  0  0  0  0  0  0  0  0  0  0  0
    1.4868   -1.0075   -0.2790 C   0  0  0  0  0  0  0  0  0  0  0  0
    2.3896   -0.1089   -1.0188 C   0  0  0  0  0  0  0  0  0  0  0  0
    1.9046    0.2475    0.3911 C   0  0  0  0  0  0  0  0  0  0  0  0
    0.7805    1.0674    0.4490 O   0  0  0  0  0  0  0  0  0  0  0  0
   -2.6823   -0.7405    0.5065 H   0  0  0  0  0  0  0  0  0  0  0  0
   -3.5876    0.3640   -0.5534 H   0  0  0  0  0  0  0  0  0  0  0  0
   -2.4898   -0.8834   -1.2984 H   0  0  0  0  0  0  0  0  0  0  0  0
   -1.7862    1.7530    0.1193 H   0  0  0  0  0  0  0  0  0  0  0  0
   -1.1544    1.0527   -1.4233 H   0  0  0  0  0  0  0  0  0  0  0  0
   -0.6136   -0.0418    1.3997 H   0  0  0  0  0  0  0  0  0  0  0  0
    1.8674   -1.9940    0.0426 H   0  0  0  0  0  0  0  0  0  0  0  0
    2.0588    0.5807   -1.8044 H   0  0  0  0  0  0  0  0  0  0  0  0
    3.4425   -0.4433   -1.1026 H   0  0  0  0  0  0  0  0  0  0  0  0
    2.6184    0.2340    1.2170 H   0  0  0  0  0  0  0  0  0  0  0  0
  1  2  1  0
  2  3  1  0
  3  4  1  0
  4  5  1  0
  5  6  1  0
  6  7  1  0
  7  8  1  0
  8  3  1  0
  7  5  1  0
  1  9  1  0
  1 10  1  0
  1 11  1  0
  2 12  1  0
  2 13  1  0
  3 14  1  0
  5 15  1  0
  6 16  1  0
  6 17  1  0
  7 18  1  0
M  END
