
     RDKit          3D

 21 21  0  0  0  0  0  0  0  0999 V2000
    2.5293   -0.0081    0.0092 C   0  0  0  0  0  0  0  0  0  0  0  0
    1.2479    0.7289   -0.2930 C   0  0  0  0  0  0  0  0  0  0  0  0
    0.1403    0.0596    0.4621 C   0  0  0  0  0  0  0  0  0  0  0  0
    0.0327   -1.3840    0.0184 C   0  0  0  0  0  0  0  0  0  0  0  0
   -1.3548   -1.7095    0.4317 C   0  0  0  0  0  0  0  0  0  0  0  0
   -2.0828   -0.5969    0.4390 C   0  0  0  0  0  0  0  0  0  0  0  0
   -1.2377    0.5690    0.0293 C   0  0  0  0  0  0  0  0  0  0  0  0
   -1.6130    1.8113    0.6999 C   0  0  0  0  0  0  0  0  0  0  0  0
   -1.5171    2.8748    0.1227 O   0  0  0  0  0  0  0  0  0  0  0  0
    3.4231    0.5172   -0.4041 H   0  0  0  0  0  0  0  0  0  0  0  0
    2.6375   -0.0972    1.1098 H   0  0  0  0  0  0  0  0  0  0  0  0
    2.5004   -1.0245   -0.4043 H   0  0  0  0  0  0  0  0  0  0  0  0
    1.0399    0.5883   -1.3804 H   0  0  0  0  0  0  0  0  0  0  0  0
    1.3081    1.7838   -0.0226 H   0  0  0  0  0  0  0  0  0  0  0  0
    0.2404    0.0879    1.5435 H   0  0  0  0  0  0  0  0  0  0  0  0
    0.7910   -2.0328    0.4852 H   0  0  0  0  0  0  0  0  0  0  0  0
    0.0568   -1.4144   -1.0881 H   0  0  0  0  0  0  0  0  0  0  0  0
   -1.7720   -2.6918    0.7004 H   0  0  0  0  0  0  0  0  0  0  0  0
   -3.1307   -0.4913    0.6938 H   0  0  0  0  0  0  0  0  0  0  0  0
   -1.2600    0.6304   -1.0778 H   0  0  0  0  0  0  0  0  0  0  0  0
   -1.9795    1.7992    1.7145 H   0  0  0  0  0  0  0  0  0  0  0  0
  1  2  1  0
  2  3  1  0
  3  4  1  0
  4  5  1  0
  5  6  2  0
  6  7  1  0
  7  8  1  0
  8  9  2  0
  7  3  1  0
  1 10  1  0
  1 11  1  0
  1 12  1  0
  2 13  1  0
  2 14  1  0
  3 15  1  0
  4 16  1  0
  4 17  1  0
  5 18  1  0
  6 19  1  0
  7 20  1  0
  8 21  1  0
M  END
