
     RDKit          3D

 19 19  0  0  0  0  0  0  0  0999 V2000
   -1.9957   -0.7606    0.1522 C   0  0  0  0  0  0  0  0  0  0  0  0
   -1.1890    0.4343   -0.2127 C   0  0  0  0  0  0  0  0  0  0  0  0
    0.3069    0.2355   -0.0969 C   0  0  0  0  0  0  0  0  0  0  0  0
    1.1622    1.2976   -0.4113 O   0  0  0  0  0  0  0  0  0  0  0  0
    1.1169    2.5019    0.2664 C   0  0  0  0  0  0  0  0  0  0  0  0
    0.2711    2.6046    1.1832 O   0  0  0  0  0  0  0  0  0  0  0  0
    0.8128   -0.9139    0.7469 C   0  0  0  0  0  0  0  0  0  0  0  0
    0.8004   -1.0891   -0.7136 C   0  0  0  0  0  0  0  0  0  0  0  0
    2.0244   -1.0932   -1.3828 O   0  0  0  0  0  0  0  0  0  0  0  0
   -1.5106   -1.7306    0.0627 H   0  0  0  0  0  0  0  0  0  0  0  0
   -2.8871   -0.7999   -0.5390 H   0  0  0  0  0  0  0  0  0  0  0  0
   -2.4803   -0.6554    1.1670 H   0  0  0  0  0  0  0  0  0  0  0  0
   -1.4889    1.2588    0.4711 H   0  0  0  0  0  0  0  0  0  0  0  0
   -1.4451    0.7322   -1.2647 H   0  0  0  0  0  0  0  0  0  0  0  0
    1.7942    3.3302    0.0097 H   0  0  0  0  0  0  0  0  0  0  0  0
    1.8311   -0.7732    1.2135 H   0  0  0  0  0  0  0  0  0  0  0  0
    0.0699   -1.4960    1.3278 H   0  0  0  0  0  0  0  0  0  0  0  0
    0.0610   -1.7421   -1.2051 H   0  0  0  0  0  0  0  0  0  0  0  0
    2.7459   -1.3410   -0.7744 H   0  0  0  0  0  0  0  0  0  0  0  0
  1  2  1  0
  2  3  1  0
  3  4  1  0
  4  5  1  0
  5  6  2  0
  3  7  1  0
  7  8  1  0
  8  9  1  0
  8  3  1  0
  1 10  1  0
  1 11  1  0
  1 12  1  0
  2 13  1  0
  2 14  1  0
  5 15  1  0
  7 16  1  0
  7 17  1  0
  8 18  1  0
  9 19  1  0
M  END
