
     RDKit          3D

 23 25  0  0  0  0  0  0  0  0999 V2000
    2.6119   -0.0883    0.5230 C   0  0  0  0  0  0  0  0  0  0  0  0
    1.5675    0.0954   -0.5540 C   0  0  0  0  0  0  0  0  0  0  0  0
    0.1867   -0.0906   -0.0810 C   0  0  0  0  0  0  0  0  0  0  0  0
   -0.3205    0.8036    1.0032 C   0  0  0  0  0  0  0  0  0  0  0  0
   -1.6289    1.3063    0.4808 C   0  0  0  0  0  0  0  0  0  0  0  0
   -2.0569    0.2971   -0.5489 C   0  0  0  0  0  0  0  0  0  0  0  0
   -1.5779   -1.0996   -0.5309 C   0  0  0  0  0  0  0  0  0  0  0  0
   -0.3021   -1.4995    0.1528 C   0  0  0  0  0  0  0  0  0  0  0  0
   -0.8069   -0.0532   -1.2078 C   0  0  0  0  0  0  0  0  0  0  0  0
    3.5497   -0.3919    0.0188 H   0  0  0  0  0  0  0  0  0  0  0  0
    2.8001    0.8838    0.9969 H   0  0  0  0  0  0  0  0  0  0  0  0
    2.2628   -0.8678    1.2131 H   0  0  0  0  0  0  0  0  0  0  0  0
    1.6761    1.1218   -0.9621 H   0  0  0  0  0  0  0  0  0  0  0  0
    1.7829   -0.6095   -1.3644 H   0  0  0  0  0  0  0  0  0  0  0  0
   -0.5393    0.2330    1.9539 H   0  0  0  0  0  0  0  0  0  0  0  0
    0.3811    1.6058    1.2972 H   0  0  0  0  0  0  0  0  0  0  0  0
   -2.3943    1.4570    1.2656 H   0  0  0  0  0  0  0  0  0  0  0  0
   -1.4233    2.2600   -0.0765 H   0  0  0  0  0  0  0  0  0  0  0  0
   -2.9131    0.5360   -1.1693 H   0  0  0  0  0  0  0  0  0  0  0  0
   -2.2033   -1.8409   -1.0316 H   0  0  0  0  0  0  0  0  0  0  0  0
    0.3004   -2.2826   -0.3636 H   0  0  0  0  0  0  0  0  0  0  0  0
   -0.4002   -1.7809    1.2216 H   0  0  0  0  0  0  0  0  0  0  0  0
   -0.5526    0.0050   -2.2368 H   0  0  0  0  0  0  0  0  0  0  0  0
  1  2  1  0
  2  3  1  0
  3  4  1  0
  4  5  1  0
  5  6  1  0
  6  7  1  0
  7  8  1  0
  7  9  1  0
  8  3  1  0
  9  3  1  0
  9  6  1  0
  1 10  1  0
  1 11  1  0
  1 12  1  0
  2 13  1  0
  2 14  1  0
  4 15  1  0
  4 16  1  0
  5 17  1  0
  5 18  1  0
  6 19  1  0
  7 20  1  0
  8 21  1  0
  8 22  1  0
  9 23  1  0
M  END
