
     RDKit          3D

 21 22  0  0  0  0  0  0  0  0999 V2000
    2.7373    0.2577    0.1140 C   0  0  0  0  0  0  0  0  0  0  0  0
    1.6022    0.8096   -0.7350 C   0  0  0  0  0  0  0  0  0  0  0  0
    0.3530    0.1305   -0.3035 C   0  0  0  0  0  0  0  0  0  0  0  0
   -0.3512   -0.5901   -1.1724 C   0  0  0  0  0  0  0  0  0  0  0  0
   -1.6797   -1.0862   -0.6579 C   0  0  0  0  0  0  0  0  0  0  0  0
   -2.3253    0.1243    0.0140 C   0  0  0  0  0  0  0  0  0  0  0  0
   -1.5044   -0.4187    1.1510 C   0  0  0  0  0  0  0  0  0  0  0  0
   -0.1361    0.2382    1.0953 C   0  0  0  0  0  0  0  0  0  0  0  0
   -1.4379   -1.6778    0.5602 O   0  0  0  0  0  0  0  0  0  0  0  0
    2.5267    0.5947    1.1551 H   0  0  0  0  0  0  0  0  0  0  0  0
    3.7104    0.6398   -0.2674 H   0  0  0  0  0  0  0  0  0  0  0  0
    2.6806   -0.8499    0.0367 H   0  0  0  0  0  0  0  0  0  0  0  0
    1.8028    0.6453   -1.8074 H   0  0  0  0  0  0  0  0  0  0  0  0
    1.5163    1.9226   -0.6092 H   0  0  0  0  0  0  0  0  0  0  0  0
   -0.0383   -0.8232   -2.1664 H   0  0  0  0  0  0  0  0  0  0  0  0
   -2.2949   -1.6126   -1.3808 H   0  0  0  0  0  0  0  0  0  0  0  0
   -3.4138    0.0336    0.1032 H   0  0  0  0  0  0  0  0  0  0  0  0
   -1.9893    1.0788   -0.4237 H   0  0  0  0  0  0  0  0  0  0  0  0
   -2.0024   -0.3750    2.1316 H   0  0  0  0  0  0  0  0  0  0  0  0
    0.5084   -0.3345    1.7963 H   0  0  0  0  0  0  0  0  0  0  0  0
   -0.2644    1.2927    1.3664 H   0  0  0  0  0  0  0  0  0  0  0  0
  1  2  1  0
  2  3  1  0
  3  4  2  0
  4  5  1  0
  5  6  1  0
  6  7  1  0
  7  8  1  0
  7  9  1  0
  8  3  1  0
  9  5  1  0
  1 10  1  0
  1 11  1  0
  1 12  1  0
  2 13  1  0
  2 14  1  0
  4 15  1  0
  5 16  1  0
  6 17  1  0
  6 18  1  0
  7 19  1  0
  8 20  1  0
  8 21  1  0
M  END
