
     RDKit          3D

 21 22  0  0  0  0  0  0  0  0999 V2000
   -3.2630   -0.0621   -0.0239 C   0  0  0  0  0  0  0  0  0  0  0  0
   -1.9971    0.7405    0.0576 C   0  0  0  0  0  0  0  0  0  0  0  0
   -0.7760   -0.0936   -0.3029 C   0  0  0  0  0  0  0  0  0  0  0  0
   -0.4847   -1.2121    0.4479 O   0  0  0  0  0  0  0  0  0  0  0  0
    0.3075   -0.1226    0.6540 C   0  0  0  0  0  0  0  0  0  0  0  0
    1.7290   -0.0721    0.1678 C   0  0  0  0  0  0  0  0  0  0  0  0
    2.6112   -1.2634    0.2149 C   0  0  0  0  0  0  0  0  0  0  0  0
    1.9757    1.0124   -0.8697 C   0  0  0  0  0  0  0  0  0  0  0  0
    2.4240    1.1394    0.4635 O   0  0  0  0  0  0  0  0  0  0  0  0
   -4.1211    0.6369   -0.0792 H   0  0  0  0  0  0  0  0  0  0  0  0
   -3.2748   -0.7453   -0.8978 H   0  0  0  0  0  0  0  0  0  0  0  0
   -3.3160   -0.7012    0.8766 H   0  0  0  0  0  0  0  0  0  0  0  0
   -1.9013    1.1096    1.0917 H   0  0  0  0  0  0  0  0  0  0  0  0
   -2.0407    1.6344   -0.5969 H   0  0  0  0  0  0  0  0  0  0  0  0
   -0.6508   -0.2312   -1.3885 H   0  0  0  0  0  0  0  0  0  0  0  0
    0.1574    0.3877    1.6317 H   0  0  0  0  0  0  0  0  0  0  0  0
    3.3105   -1.2512    1.0999 H   0  0  0  0  0  0  0  0  0  0  0  0
    3.3064   -1.2078   -0.6729 H   0  0  0  0  0  0  0  0  0  0  0  0
    2.1180   -2.2263    0.1604 H   0  0  0  0  0  0  0  0  0  0  0  0
    1.1557    1.6791   -1.1572 H   0  0  0  0  0  0  0  0  0  0  0  0
    2.7300    0.8488   -1.6558 H   0  0  0  0  0  0  0  0  0  0  0  0
  1  2  1  0
  2  3  1  0
  3  4  1  0
  4  5  1  0
  5  6  1  0
  6  7  1  0
  6  8  1  0
  8  9  1  0
  5  3  1  0
  9  6  1  0
  1 10  1  0
  1 11  1  0
  1 12  1  0
  2 13  1  0
  2 14  1  0
  3 15  1  0
  5 16  1  0
  7 17  1  0
  7 18  1  0
  7 19  1  0
  8 20  1  0
  8 21  1  0
M  END
