
     RDKit          3D

 19 20  0  0  0  0  0  0  0  0999 V2000
    2.5145    0.4472    0.1918 C   0  0  0  0  0  0  0  0  0  0  0  0
    1.7149   -0.6748   -0.4823 C   0  0  0  0  0  0  0  0  0  0  0  0
    0.3338   -0.1681   -0.7149 C   0  0  0  0  0  0  0  0  0  0  0  0
   -0.4115    0.2430    0.5414 C   0  0  0  0  0  0  0  0  0  0  0  0
   -1.2547    1.3042    0.3821 O   0  0  0  0  0  0  0  0  0  0  0  0
   -2.4403    0.8636   -0.1775 C   0  0  0  0  0  0  0  0  0  0  0  0
   -2.1778   -0.4475   -0.7984 C   0  0  0  0  0  0  0  0  0  0  0  0
   -2.9295   -1.0025   -1.5722 O   0  0  0  0  0  0  0  0  0  0  0  0
   -0.8644   -0.8972   -0.2868 C   0  0  0  0  0  0  0  0  0  0  0  0
    1.8501    0.8877    0.9642 H   0  0  0  0  0  0  0  0  0  0  0  0
    2.7786    1.2135   -0.5687 H   0  0  0  0  0  0  0  0  0  0  0  0
    3.3935   -0.0341    0.6538 H   0  0  0  0  0  0  0  0  0  0  0  0
    1.7258   -1.5145    0.2711 H   0  0  0  0  0  0  0  0  0  0  0  0
    2.2274   -1.0469   -1.3710 H   0  0  0  0  0  0  0  0  0  0  0  0
    0.2229    0.4642   -1.6221 H   0  0  0  0  0  0  0  0  0  0  0  0
    0.0243   -0.0147    1.5224 H   0  0  0  0  0  0  0  0  0  0  0  0
   -2.7821    1.5969   -0.9226 H   0  0  0  0  0  0  0  0  0  0  0  0
   -3.1875    0.7175    0.6268 H   0  0  0  0  0  0  0  0  0  0  0  0
   -0.7380   -1.9376    0.0518 H   0  0  0  0  0  0  0  0  0  0  0  0
  1  2  1  0
  2  3  1  0
  3  4  1  0
  4  5  1  0
  5  6  1  0
  6  7  1  0
  7  8  2  0
  7  9  1  0
  9  3  1  0
  9  4  1  0
  1 10  1  0
  1 11  1  0
  1 12  1  0
  2 13  1  0
  2 14  1  0
  3 15  1  0
  4 16  1  0
  6 17  1  0
  6 18  1  0
  9 19  1  0
M  END
