
     RDKit          3D

 19 19  0  0  0  0  0  0  0  0999 V2000
    2.4109   -0.4440    0.0596 C   0  0  0  0  0  0  0  0  0  0  0  0
    1.2281    0.3025    0.5761 C   0  0  0  0  0  0  0  0  0  0  0  0
    0.2706    0.7388   -0.4871 C   0  0  0  0  0  0  0  0  0  0  0  0
   -0.2724   -0.2754   -1.2215 O   0  0  0  0  0  0  0  0  0  0  0  0
   -1.2066   -1.0449   -0.6150 C   0  0  0  0  0  0  0  0  0  0  0  0
   -2.2248   -0.3516    0.2060 C   0  0  0  0  0  0  0  0  0  0  0  0
   -1.8160    0.8555    0.7767 O   0  0  0  0  0  0  0  0  0  0  0  0
   -0.7873    1.5756    0.1762 C   0  0  0  0  0  0  0  0  0  0  0  0
   -0.7318    2.8315    0.1790 O   0  0  0  0  0  0  0  0  0  0  0  0
    2.5688   -0.3275   -1.0325 H   0  0  0  0  0  0  0  0  0  0  0  0
    2.3536   -1.5266    0.3323 H   0  0  0  0  0  0  0  0  0  0  0  0
    3.3327   -0.0599    0.5528 H   0  0  0  0  0  0  0  0  0  0  0  0
    1.5676    1.2333    1.1085 H   0  0  0  0  0  0  0  0  0  0  0  0
    0.6939   -0.3175    1.3422 H   0  0  0  0  0  0  0  0  0  0  0  0
    0.8203    1.4254   -1.1690 H   0  0  0  0  0  0  0  0  0  0  0  0
   -0.7386   -1.8570    0.0119 H   0  0  0  0  0  0  0  0  0  0  0  0
   -1.7552   -1.6190   -1.4202 H   0  0  0  0  0  0  0  0  0  0  0  0
   -3.1440   -0.1254   -0.4101 H   0  0  0  0  0  0  0  0  0  0  0  0
   -2.5698   -1.0138    1.0341 H   0  0  0  0  0  0  0  0  0  0  0  0
  1  2  1  0
  2  3  1  0
  3  4  1  0
  4  5  1  0
  5  6  1  0
  6  7  1  0
  7  8  1  0
  8  9  2  0
  8  3  1  0
  1 10  1  0
  1 11  1  0
  1 12  1  0
  2 13  1  0
  2 14  1  0
  3 15  1  0
  5 16  1  0
  5 17  1  0
  6 18  1  0
  6 19  1  0
M  END
