
     RDKit          3D

 24 24  0  0  0  0  0  0  0  0999 V2000
    2.3486   -0.1820   -0.5069 C   0  0  0  0  0  0  0  0  0  0  0  0
    1.0661    0.5337   -0.8131 C   0  0  0  0  0  0  0  0  0  0  0  0
    0.0840    0.3027    0.2988 C   0  0  0  0  0  0  0  0  0  0  0  0
    0.6630    0.8288    1.5767 C   0  0  0  0  0  0  0  0  0  0  0  0
   -0.2497   -1.1659    0.3588 C   0  0  0  0  0  0  0  0  0  0  0  0
   -1.4695   -1.3536   -0.5126 C   0  0  0  0  0  0  0  0  0  0  0  0
   -2.0835    0.0075   -0.7121 C   0  0  0  0  0  0  0  0  0  0  0  0
   -1.2396    0.9669    0.0636 C   0  0  0  0  0  0  0  0  0  0  0  0
    3.2092    0.5387   -0.4051 H   0  0  0  0  0  0  0  0  0  0  0  0
    2.6541   -0.8718   -1.3236 H   0  0  0  0  0  0  0  0  0  0  0  0
    2.3182   -0.7602    0.4407 H   0  0  0  0  0  0  0  0  0  0  0  0
    0.7013    0.1925   -1.7985 H   0  0  0  0  0  0  0  0  0  0  0  0
    1.2875    1.6389   -0.8302 H   0  0  0  0  0  0  0  0  0  0  0  0
    0.1404    0.3336    2.4372 H   0  0  0  0  0  0  0  0  0  0  0  0
    1.7480    0.7839    1.6469 H   0  0  0  0  0  0  0  0  0  0  0  0
    0.3356    1.9087    1.6438 H   0  0  0  0  0  0  0  0  0  0  0  0
   -0.4532   -1.4464    1.3958 H   0  0  0  0  0  0  0  0  0  0  0  0
    0.5499   -1.7982   -0.0681 H   0  0  0  0  0  0  0  0  0  0  0  0
   -1.2529   -1.7942   -1.4875 H   0  0  0  0  0  0  0  0  0  0  0  0
   -2.1878   -2.0264    0.0161 H   0  0  0  0  0  0  0  0  0  0  0  0
   -3.1293    0.0148   -0.3102 H   0  0  0  0  0  0  0  0  0  0  0  0
   -2.1553    0.2510   -1.7860 H   0  0  0  0  0  0  0  0  0  0  0  0
   -1.1612    1.9658   -0.3916 H   0  0  0  0  0  0  0  0  0  0  0  0
   -1.7239    1.1313    1.0671 H   0  0  0  0  0  0  0  0  0  0  0  0
  1  2  1  0
  2  3  1  0
  3  4  1  0
  3  5  1  0
  5  6  1  0
  6  7  1  0
  7  8  1  0
  8  3  1  0
  1  9  1  0
  1 10  1  0
  1 11  1  0
  2 12  1  0
  2 13  1  0
  4 14  1  0
  4 15  1  0
  4 16  1  0
  5 17  1  0
  5 18  1  0
  6 19  1  0
  6 20  1  0
  7 21  1  0
  7 22  1  0
  8 23  1  0
  8 24  1  0
M  END
