
     RDKit          3D

 25 25  0  0  0  0  0  0  0  0999 V2000
    2.7312    0.3870    0.1490 C   0  0  0  0  0  0  0  0  0  0  0  0
    1.4821   -0.0765   -0.5340 C   0  0  0  0  0  0  0  0  0  0  0  0
    0.4034   -0.5185    0.4197 C   0  0  0  0  0  0  0  0  0  0  0  0
    0.7508   -1.5783    1.2537 O   0  0  0  0  0  0  0  0  0  0  0  0
   -0.6068    0.4247    0.9368 C   0  0  0  0  0  0  0  0  0  0  0  0
   -0.5351    1.8954    0.6050 C   0  0  0  0  0  0  0  0  0  0  0  0
   -0.9924   -0.4811   -0.1706 C   0  0  0  0  0  0  0  0  0  0  0  0
   -1.1854    0.1439   -1.5386 C   0  0  0  0  0  0  0  0  0  0  0  0
   -1.8332   -1.7053    0.0839 C   0  0  0  0  0  0  0  0  0  0  0  0
    3.6056    0.0869   -0.4829 H   0  0  0  0  0  0  0  0  0  0  0  0
    2.7551    1.5109    0.1423 H   0  0  0  0  0  0  0  0  0  0  0  0
    2.8913   -0.0208    1.1483 H   0  0  0  0  0  0  0  0  0  0  0  0
    1.1323    0.6881   -1.2289 H   0  0  0  0  0  0  0  0  0  0  0  0
    1.7350   -0.9793   -1.1603 H   0  0  0  0  0  0  0  0  0  0  0  0
    0.2140   -1.5523    2.1048 H   0  0  0  0  0  0  0  0  0  0  0  0
   -1.0254    0.2274    1.9466 H   0  0  0  0  0  0  0  0  0  0  0  0
   -0.3834    2.4972    1.5437 H   0  0  0  0  0  0  0  0  0  0  0  0
    0.2749    2.1440   -0.0828 H   0  0  0  0  0  0  0  0  0  0  0  0
   -1.5029    2.1579    0.1252 H   0  0  0  0  0  0  0  0  0  0  0  0
   -2.2655    0.1773   -1.7277 H   0  0  0  0  0  0  0  0  0  0  0  0
   -0.7251   -0.4836   -2.3163 H   0  0  0  0  0  0  0  0  0  0  0  0
   -0.8251    1.1977   -1.5480 H   0  0  0  0  0  0  0  0  0  0  0  0
   -1.3763   -2.5602   -0.4738 H   0  0  0  0  0  0  0  0  0  0  0  0
   -1.8699   -1.9988    1.1450 H   0  0  0  0  0  0  0  0  0  0  0  0
   -2.8492   -1.5839   -0.3400 H   0  0  0  0  0  0  0  0  0  0  0  0
  1  2  1  0
  2  3  1  0
  3  4  1  0
  3  5  1  0
  5  6  1  0
  5  7  1  0
  7  8  1  0
  7  9  1  0
  7  3  1  0
  1 10  1  0
  1 11  1  0
  1 12  1  0
  2 13  1  0
  2 14  1  0
  4 15  1  0
  5 16  1  0
  6 17  1  0
  6 18  1  0
  6 19  1  0
  8 20  1  0
  8 21  1  0
  8 22  1  0
  9 23  1  0
  9 24  1  0
  9 25  1  0
M  END
