
     RDKit          3D

 23 24  0  0  0  0  0  0  0  0999 V2000
    2.2436   -0.3634    0.9752 C   0  0  0  0  0  0  0  0  0  0  0  0
    1.5227    0.3279   -0.1411 C   0  0  0  0  0  0  0  0  0  0  0  0
    0.4588   -0.5352   -0.7861 C   0  0  0  0  0  0  0  0  0  0  0  0
   -0.1627    0.2634   -1.8551 C   0  0  0  0  0  0  0  0  0  0  0  0
   -1.1985    1.0275   -1.5742 C   0  0  0  0  0  0  0  0  0  0  0  0
   -1.7357    1.0798   -0.1834 C   0  0  0  0  0  0  0  0  0  0  0  0
   -1.7559   -0.3138    0.4202 C   0  0  0  0  0  0  0  0  0  0  0  0
   -0.7156   -0.5353    1.5265 C   0  0  0  0  0  0  0  0  0  0  0  0
   -0.5349   -1.0760    0.1583 C   0  0  0  0  0  0  0  0  0  0  0  0
    3.3225   -0.5551    0.7522 H   0  0  0  0  0  0  0  0  0  0  0  0
    1.7817   -1.3450    1.2202 H   0  0  0  0  0  0  0  0  0  0  0  0
    2.2581    0.3140    1.8711 H   0  0  0  0  0  0  0  0  0  0  0  0
    2.2908    0.5022   -0.9525 H   0  0  0  0  0  0  0  0  0  0  0  0
    1.1698    1.3433    0.1254 H   0  0  0  0  0  0  0  0  0  0  0  0
    1.0545   -1.3500   -1.3052 H   0  0  0  0  0  0  0  0  0  0  0  0
    0.2310    0.2304   -2.8966 H   0  0  0  0  0  0  0  0  0  0  0  0
   -1.6602    1.6214   -2.3657 H   0  0  0  0  0  0  0  0  0  0  0  0
   -1.1565    1.7790    0.4478 H   0  0  0  0  0  0  0  0  0  0  0  0
   -2.7813    1.4421   -0.2429 H   0  0  0  0  0  0  0  0  0  0  0  0
   -2.7286   -0.8092    0.5041 H   0  0  0  0  0  0  0  0  0  0  0  0
   -0.1603    0.3440    1.8868 H   0  0  0  0  0  0  0  0  0  0  0  0
   -1.0670   -1.1968    2.3291 H   0  0  0  0  0  0  0  0  0  0  0  0
   -0.6763   -2.1953    0.0857 H   0  0  0  0  0  0  0  0  0  0  0  0
  1  2  1  0
  2  3  1  0
  3  4  1  0
  4  5  2  0
  5  6  1  0
  6  7  1  0
  7  8  1  0
  8  9  1  0
  9  3  1  0
  9  7  1  0
  1 10  1  0
  1 11  1  0
  1 12  1  0
  2 13  1  0
  2 14  1  0
  3 15  1  0
  4 16  1  0
  5 17  1  0
  6 18  1  0
  6 19  1  0
  7 20  1  0
  8 21  1  0
  8 22  1  0
  9 23  1  0
M  END
