
     RDKit          3D

 21 22  0  0  0  0  0  0  0  0999 V2000
    2.6009    0.5808   -0.2276 C   0  0  0  0  0  0  0  0  0  0  0  0
    1.5950   -0.5153   -0.3678 C   0  0  0  0  0  0  0  0  0  0  0  0
    0.3863   -0.3582    0.4978 C   0  0  0  0  0  0  0  0  0  0  0  0
   -0.3885    0.8920    0.2372 C   0  0  0  0  0  0  0  0  0  0  0  0
   -1.8433    0.4978    0.2380 C   0  0  0  0  0  0  0  0  0  0  0  0
   -2.5491    0.9803    1.3066 O   0  0  0  0  0  0  0  0  0  0  0  0
   -1.9191   -0.9881    0.1827 C   0  0  0  0  0  0  0  0  0  0  0  0
   -1.4513   -1.7863    1.1906 O   0  0  0  0  0  0  0  0  0  0  0  0
   -0.5818   -1.4786    0.1436 C   0  0  0  0  0  0  0  0  0  0  0  0
    3.5516    0.2106   -0.7105 H   0  0  0  0  0  0  0  0  0  0  0  0
    2.8752    0.7923    0.8267 H   0  0  0  0  0  0  0  0  0  0  0  0
    2.3413    1.5039   -0.7925 H   0  0  0  0  0  0  0  0  0  0  0  0
    1.2609   -0.5502   -1.4180 H   0  0  0  0  0  0  0  0  0  0  0  0
    2.0953   -1.4669   -0.0698 H   0  0  0  0  0  0  0  0  0  0  0  0
    0.6224   -0.4144    1.5870 H   0  0  0  0  0  0  0  0  0  0  0  0
   -0.0836    1.3929   -0.7061 H   0  0  0  0  0  0  0  0  0  0  0  0
   -0.2330    1.6172    1.0721 H   0  0  0  0  0  0  0  0  0  0  0  0
   -2.3135    0.8932   -0.6995 H   0  0  0  0  0  0  0  0  0  0  0  0
   -2.9501    1.8637    1.0721 H   0  0  0  0  0  0  0  0  0  0  0  0
   -2.7218   -1.4277   -0.4370 H   0  0  0  0  0  0  0  0  0  0  0  0
   -0.2940   -2.2388   -0.5867 H   0  0  0  0  0  0  0  0  0  0  0  0
  1  2  1  0
  2  3  1  0
  3  4  1  0
  4  5  1  0
  5  6  1  0
  5  7  1  0
  7  8  1  0
  8  9  1  0
  9  3  1  0
  9  7  1  0
  1 10  1  0
  1 11  1  0
  1 12  1  0
  2 13  1  0
  2 14  1  0
  3 15  1  0
  4 16  1  0
  4 17  1  0
  5 18  1  0
  6 19  1  0
  7 20  1  0
  9 21  1  0
M  END
