
     RDKit          3D

 19 20  0  0  0  0  0  0  0  0999 V2000
   -2.3735   -0.5820    0.0613 C   0  0  0  0  0  0  0  0  0  0  0  0
   -1.3328    0.3305   -0.5355 C   0  0  0  0  0  0  0  0  0  0  0  0
    0.0438   -0.2436   -0.5274 C   0  0  0  0  0  0  0  0  0  0  0  0
    0.6219   -0.5915    0.8115 C   0  0  0  0  0  0  0  0  0  0  0  0
    0.5765    0.8328    1.1043 C   0  0  0  0  0  0  0  0  0  0  0  0
    0.2678    1.5399    2.0286 O   0  0  0  0  0  0  0  0  0  0  0  0
    1.0784    0.8191   -0.2639 C   0  0  0  0  0  0  0  0  0  0  0  0
    1.9652   -0.3141    0.1764 C   0  0  0  0  0  0  0  0  0  0  0  0
    2.3194   -1.1801   -0.8357 O   0  0  0  0  0  0  0  0  0  0  0  0
   -2.2852   -0.6918    1.1461 H   0  0  0  0  0  0  0  0  0  0  0  0
   -3.3709   -0.1031   -0.1570 H   0  0  0  0  0  0  0  0  0  0  0  0
   -2.4130   -1.5736   -0.4174 H   0  0  0  0  0  0  0  0  0  0  0  0
   -1.6233    0.4943   -1.5973 H   0  0  0  0  0  0  0  0  0  0  0  0
   -1.3844    1.2929    0.0126 H   0  0  0  0  0  0  0  0  0  0  0  0
    0.2663   -0.9729   -1.3076 H   0  0  0  0  0  0  0  0  0  0  0  0
    0.3930   -1.3751    1.3902 H   0  0  0  0  0  0  0  0  0  0  0  0
    1.3258    1.5800   -0.8617 H   0  0  0  0  0  0  0  0  0  0  0  0
    2.7125   -0.0792    0.9335 H   0  0  0  0  0  0  0  0  0  0  0  0
    3.2127   -0.9099   -1.1611 H   0  0  0  0  0  0  0  0  0  0  0  0
  1  2  1  0
  2  3  1  0
  3  4  1  0
  4  5  1  0
  5  6  2  0
  5  7  1  0
  7  8  1  0
  8  9  1  0
  7  3  1  0
  8  4  1  0
  1 10  1  0
  1 11  1  0
  1 12  1  0
  2 13  1  0
  2 14  1  0
  3 15  1  0
  4 16  1  0
  7 17  1  0
  8 18  1  0
  9 19  1  0
M  END
