
     RDKit          3D

 23 23  0  0  0  0  0  0  0  0999 V2000
    3.1193    0.2872   -0.6426 C   0  0  0  0  0  0  0  0  0  0  0  0
    2.0748   -0.6545   -0.1403 C   0  0  0  0  0  0  0  0  0  0  0  0
    0.8798    0.0459    0.4617 C   0  0  0  0  0  0  0  0  0  0  0  0
    0.1961    0.9305   -0.5112 C   0  0  0  0  0  0  0  0  0  0  0  0
   -1.1020    0.8468   -0.7882 C   0  0  0  0  0  0  0  0  0  0  0  0
   -1.9602   -0.1669   -0.1178 C   0  0  0  0  0  0  0  0  0  0  0  0
   -3.3701    0.3251    0.0693 C   0  0  0  0  0  0  0  0  0  0  0  0
   -1.3808   -0.5161    1.0772 O   0  0  0  0  0  0  0  0  0  0  0  0
   -0.1094   -1.0236    0.8793 C   0  0  0  0  0  0  0  0  0  0  0  0
    3.3775    1.0868    0.0892 H   0  0  0  0  0  0  0  0  0  0  0  0
    2.7839    0.7455   -1.6053 H   0  0  0  0  0  0  0  0  0  0  0  0
    4.0502   -0.2856   -0.8317 H   0  0  0  0  0  0  0  0  0  0  0  0
    2.5330   -1.3765    0.5440 H   0  0  0  0  0  0  0  0  0  0  0  0
    1.7030   -1.2371   -1.0235 H   0  0  0  0  0  0  0  0  0  0  0  0
    1.2278    0.6190    1.3694 H   0  0  0  0  0  0  0  0  0  0  0  0
    0.7381    1.7157   -1.0638 H   0  0  0  0  0  0  0  0  0  0  0  0
   -1.5657    1.5095   -1.5040 H   0  0  0  0  0  0  0  0  0  0  0  0
   -2.0200   -1.0375   -0.8308 H   0  0  0  0  0  0  0  0  0  0  0  0
   -4.1367   -0.3893   -0.2957 H   0  0  0  0  0  0  0  0  0  0  0  0
   -3.5492    1.2970   -0.4449 H   0  0  0  0  0  0  0  0  0  0  0  0
   -3.6012    0.4874    1.1579 H   0  0  0  0  0  0  0  0  0  0  0  0
   -0.1297   -1.7694    0.0602 H   0  0  0  0  0  0  0  0  0  0  0  0
    0.2414   -1.4398    1.8373 H   0  0  0  0  0  0  0  0  0  0  0  0
  1  2  1  0
  2  3  1  0
  3  4  1  0
  4  5  2  0
  5  6  1  0
  6  7  1  0
  6  8  1  0
  8  9  1  0
  9  3  1  0
  1 10  1  0
  1 11  1  0
  1 12  1  0
  2 13  1  0
  2 14  1  0
  3 15  1  0
  4 16  1  0
  5 17  1  0
  6 18  1  0
  7 19  1  0
  7 20  1  0
  7 21  1  0
  9 22  1  0
  9 23  1  0
M  END
