
     RDKit          3D

 21 21  0  0  0  0  0  0  0  0999 V2000
   -3.1346   -0.1421    0.3048 C   0  0  0  0  0  0  0  0  0  0  0  0
   -2.1019    0.7984   -0.2773 C   0  0  0  0  0  0  0  0  0  0  0  0
   -0.7437    0.1842   -0.3135 C   0  0  0  0  0  0  0  0  0  0  0  0
    0.3410    0.6426    0.2975 C   0  0  0  0  0  0  0  0  0  0  0  0
    1.4498   -0.2921   -0.0247 C   0  0  0  0  0  0  0  0  0  0  0  0
    2.2437   -0.3919    1.1089 O   0  0  0  0  0  0  0  0  0  0  0  0
    3.4923    0.1391    0.7903 C   0  0  0  0  0  0  0  0  0  0  0  0
    0.8176   -1.4516   -0.3662 O   0  0  0  0  0  0  0  0  0  0  0  0
   -0.3567   -1.0622   -1.0432 C   0  0  0  0  0  0  0  0  0  0  0  0
   -3.8612   -0.4420   -0.4777 H   0  0  0  0  0  0  0  0  0  0  0  0
   -2.5814   -1.0180    0.7304 H   0  0  0  0  0  0  0  0  0  0  0  0
   -3.7115    0.3575    1.1178 H   0  0  0  0  0  0  0  0  0  0  0  0
   -2.1041    1.7300    0.3247 H   0  0  0  0  0  0  0  0  0  0  0  0
   -2.4086    1.1263   -1.3138 H   0  0  0  0  0  0  0  0  0  0  0  0
    0.3779    1.5499    0.9201 H   0  0  0  0  0  0  0  0  0  0  0  0
    2.0028    0.1777   -0.8824 H   0  0  0  0  0  0  0  0  0  0  0  0
    3.9537   -0.4362   -0.0579 H   0  0  0  0  0  0  0  0  0  0  0  0
    4.1785    0.1295    1.6604 H   0  0  0  0  0  0  0  0  0  0  0  0
    3.4337    1.1924    0.4541 H   0  0  0  0  0  0  0  0  0  0  0  0
   -0.1930   -0.9037   -2.1129 H   0  0  0  0  0  0  0  0  0  0  0  0
   -1.0942   -1.8878   -0.8395 H   0  0  0  0  0  0  0  0  0  0  0  0
  1  2  1  0
  2  3  1  0
  3  4  2  0
  4  5  1  0
  5  6  1  0
  6  7  1  0
  5  8  1  0
  8  9  1  0
  9  3  1  0
  1 10  1  0
  1 11  1  0
  1 12  1  0
  2 13  1  0
  2 14  1  0
  4 15  1  0
  5 16  1  0
  7 17  1  0
  7 18  1  0
  7 19  1  0
  9 20  1  0
  9 21  1  0
M  END
