
     RDKit          3D

 19 19  0  0  0  0  0  0  0  0999 V2000
   -2.4650   -0.2448    0.1733 C   0  0  0  0  0  0  0  0  0  0  0  0
   -1.2032    0.5698    0.1527 C   0  0  0  0  0  0  0  0  0  0  0  0
    0.0321   -0.2590    0.3316 C   0  0  0  0  0  0  0  0  0  0  0  0
    0.1750   -1.2802   -0.7421 C   0  0  0  0  0  0  0  0  0  0  0  0
   -0.7872   -1.8381   -1.3276 O   0  0  0  0  0  0  0  0  0  0  0  0
    1.5419   -1.4567   -0.9292 O   0  0  0  0  0  0  0  0  0  0  0  0
    2.2775   -0.4792   -0.2266 C   0  0  0  0  0  0  0  0  0  0  0  0
    1.2370    0.6222   -0.0127 C   0  0  0  0  0  0  0  0  0  0  0  0
    1.5696    1.4848    0.9880 O   0  0  0  0  0  0  0  0  0  0  0  0
   -2.9605   -0.2108   -0.8372 H   0  0  0  0  0  0  0  0  0  0  0  0
   -3.1556    0.2225    0.9171 H   0  0  0  0  0  0  0  0  0  0  0  0
   -2.2806   -1.3192    0.4065 H   0  0  0  0  0  0  0  0  0  0  0  0
   -1.0934    1.1248   -0.8098 H   0  0  0  0  0  0  0  0  0  0  0  0
   -1.1915    1.3528    0.9466 H   0  0  0  0  0  0  0  0  0  0  0  0
    0.1309   -0.7208    1.3192 H   0  0  0  0  0  0  0  0  0  0  0  0
    3.1547   -0.1313   -0.7693 H   0  0  0  0  0  0  0  0  0  0  0  0
    2.5333   -0.9335    0.7697 H   0  0  0  0  0  0  0  0  0  0  0  0
    1.0372    1.0726   -0.9902 H   0  0  0  0  0  0  0  0  0  0  0  0
    1.4480    2.4242    0.6401 H   0  0  0  0  0  0  0  0  0  0  0  0
  1  2  1  0
  2  3  1  0
  3  4  1  0
  4  5  2  0
  4  6  1  0
  6  7  1  0
  7  8  1  0
  8  9  1  0
  8  3  1  0
  1 10  1  0
  1 11  1  0
  1 12  1  0
  2 13  1  0
  2 14  1  0
  3 15  1  0
  7 16  1  0
  7 17  1  0
  8 18  1  0
  9 19  1  0
M  END
