
     RDKit          3D

 23 24  0  0  0  0  0  0  0  0999 V2000
    2.7477   -0.3852   -0.0160 C   0  0  0  0  0  0  0  0  0  0  0  0
    1.3159   -0.8806    0.2236 C   0  0  0  0  0  0  0  0  0  0  0  0
    0.3933    0.1288   -0.0036 C   0  0  0  0  0  0  0  0  0  0  0  0
    0.2837    1.4314    0.6761 C   0  0  0  0  0  0  0  0  0  0  0  0
   -0.7304    1.4105   -0.4237 C   0  0  0  0  0  0  0  0  0  0  0  0
    0.2746    0.8292   -1.2043 O   0  0  0  0  0  0  0  0  0  0  0  0
   -1.0871    0.0281   -0.0017 C   0  0  0  0  0  0  0  0  0  0  0  0
   -1.7772   -0.1497    1.3008 C   0  0  0  0  0  0  0  0  0  0  0  0
   -1.6106   -0.7784   -1.1608 C   0  0  0  0  0  0  0  0  0  0  0  0
    3.3148   -0.3550    0.9427 H   0  0  0  0  0  0  0  0  0  0  0  0
    2.7181    0.6752   -0.3946 H   0  0  0  0  0  0  0  0  0  0  0  0
    3.2689   -0.9655   -0.7844 H   0  0  0  0  0  0  0  0  0  0  0  0
    1.2629   -1.2953    1.2455 H   0  0  0  0  0  0  0  0  0  0  0  0
    1.1824   -1.7481   -0.4615 H   0  0  0  0  0  0  0  0  0  0  0  0
    1.1576    2.0899    0.4811 H   0  0  0  0  0  0  0  0  0  0  0  0
   -0.1291    1.4663    1.6973 H   0  0  0  0  0  0  0  0  0  0  0  0
   -1.3423    2.1566   -0.7104 H   0  0  0  0  0  0  0  0  0  0  0  0
   -2.5696   -0.9372    1.1648 H   0  0  0  0  0  0  0  0  0  0  0  0
   -1.0888   -0.5818    2.0786 H   0  0  0  0  0  0  0  0  0  0  0  0
   -2.3031    0.7482    1.6523 H   0  0  0  0  0  0  0  0  0  0  0  0
   -1.8075   -0.1202   -2.0469 H   0  0  0  0  0  0  0  0  0  0  0  0
   -0.8818   -1.5390   -1.5205 H   0  0  0  0  0  0  0  0  0  0  0  0
   -2.5925   -1.2283   -0.9083 H   0  0  0  0  0  0  0  0  0  0  0  0
  1  2  1  0
  2  3  1  0
  3  4  1  0
  4  5  1  0
  5  6  1  0
  5  7  1  0
  7  8  1  0
  7  9  1  0
  6  3  1  0
  7  3  1  0
  1 10  1  0
  1 11  1  0
  1 12  1  0
  2 13  1  0
  2 14  1  0
  4 15  1  0
  4 16  1  0
  5 17  1  0
  8 18  1  0
  8 19  1  0
  8 20  1  0
  9 21  1  0
  9 22  1  0
  9 23  1  0
M  END
