
     RDKit          3D

 21 22  0  0  0  0  0  0  0  0999 V2000
    2.2672   -1.2885   -0.1065 C   0  0  0  0  0  0  0  0  0  0  0  0
    1.4903   -0.1631   -0.7695 C   0  0  0  0  0  0  0  0  0  0  0  0
    0.3430    0.2875    0.1329 C   0  0  0  0  0  0  0  0  0  0  0  0
    0.7068    0.7584    1.3629 O   0  0  0  0  0  0  0  0  0  0  0  0
    0.2464    1.7435    0.5044 C   0  0  0  0  0  0  0  0  0  0  0  0
   -1.1910    2.0388    0.6107 C   0  0  0  0  0  0  0  0  0  0  0  0
   -1.9364    1.0379    0.1758 C   0  0  0  0  0  0  0  0  0  0  0  0
   -1.0391   -0.0284   -0.2653 C   0  0  0  0  0  0  0  0  0  0  0  0
   -1.5499   -1.3569    0.2283 C   0  0  0  0  0  0  0  0  0  0  0  0
    2.1651   -1.3004    0.9820 H   0  0  0  0  0  0  0  0  0  0  0  0
    1.8874   -2.2438   -0.5097 H   0  0  0  0  0  0  0  0  0  0  0  0
    3.3306   -1.1609   -0.4468 H   0  0  0  0  0  0  0  0  0  0  0  0
    1.0200   -0.4804   -1.7230 H   0  0  0  0  0  0  0  0  0  0  0  0
    2.1364    0.7339   -0.9079 H   0  0  0  0  0  0  0  0  0  0  0  0
    0.9347    2.3957   -0.0401 H   0  0  0  0  0  0  0  0  0  0  0  0
   -1.5818    2.9912    1.0101 H   0  0  0  0  0  0  0  0  0  0  0  0
   -3.0469    1.0248    0.1562 H   0  0  0  0  0  0  0  0  0  0  0  0
   -1.0858   -0.0681   -1.3861 H   0  0  0  0  0  0  0  0  0  0  0  0
   -1.3251   -1.4589    1.2886 H   0  0  0  0  0  0  0  0  0  0  0  0
   -1.1033   -2.1373   -0.4181 H   0  0  0  0  0  0  0  0  0  0  0  0
   -2.6687   -1.3249    0.1211 H   0  0  0  0  0  0  0  0  0  0  0  0
  1  2  1  0
  2  3  1  0
  3  4  1  0
  4  5  1  0
  5  6  1  0
  6  7  2  0
  7  8  1  0
  8  9  1  0
  5  3  1  0
  8  3  1  0
  1 10  1  0
  1 11  1  0
  1 12  1  0
  2 13  1  0
  2 14  1  0
  5 15  1  0
  6 16  1  0
  7 17  1  0
  8 18  1  0
  9 19  1  0
  9 20  1  0
  9 21  1  0
M  END
