
     RDKit          3D

 21 22  0  0  0  0  0  0  0  0999 V2000
   -2.7065    0.4501    0.2087 C   0  0  0  0  0  0  0  0  0  0  0  0
   -1.7410   -0.6920    0.0193 C   0  0  0  0  0  0  0  0  0  0  0  0
   -0.3928   -0.1536   -0.3694 C   0  0  0  0  0  0  0  0  0  0  0  0
    0.1793    0.7592    0.6588 C   0  0  0  0  0  0  0  0  0  0  0  0
    1.4755    0.8791    0.9149 C   0  0  0  0  0  0  0  0  0  0  0  0
    2.5110    0.0704    0.1567 C   0  0  0  0  0  0  0  0  0  0  0  0
    1.8237   -0.3383   -1.0950 C   0  0  0  0  0  0  0  0  0  0  0  0
    1.4388   -1.5104   -1.5573 O   0  0  0  0  0  0  0  0  0  0  0  0
    0.6438   -1.1912   -0.5622 C   0  0  0  0  0  0  0  0  0  0  0  0
   -2.1768    1.4171    0.0839 H   0  0  0  0  0  0  0  0  0  0  0  0
   -3.4904    0.4468   -0.6026 H   0  0  0  0  0  0  0  0  0  0  0  0
   -3.1865    0.4399    1.2087 H   0  0  0  0  0  0  0  0  0  0  0  0
   -2.0981   -1.3107   -0.8278 H   0  0  0  0  0  0  0  0  0  0  0  0
   -1.7013   -1.3643    0.8976 H   0  0  0  0  0  0  0  0  0  0  0  0
   -0.5360    0.4511   -1.2944 H   0  0  0  0  0  0  0  0  0  0  0  0
   -0.4948    1.3652    1.2369 H   0  0  0  0  0  0  0  0  0  0  0  0
    1.8539    1.5544    1.6713 H   0  0  0  0  0  0  0  0  0  0  0  0
    2.8497   -0.7935    0.7239 H   0  0  0  0  0  0  0  0  0  0  0  0
    3.3296    0.7763   -0.1026 H   0  0  0  0  0  0  0  0  0  0  0  0
    1.5861    0.5246   -1.7534 H   0  0  0  0  0  0  0  0  0  0  0  0
    0.8329   -1.7801    0.3840 H   0  0  0  0  0  0  0  0  0  0  0  0
  1  2  1  0
  2  3  1  0
  3  4  1  0
  4  5  2  0
  5  6  1  0
  6  7  1  0
  7  8  1  0
  8  9  1  0
  9  3  1  0
  9  7  1  0
  1 10  1  0
  1 11  1  0
  1 12  1  0
  2 13  1  0
  2 14  1  0
  3 15  1  0
  4 16  1  0
  5 17  1  0
  6 18  1  0
  6 19  1  0
  7 20  1  0
  9 21  1  0
M  END
