
     RDKit          3D

 23 23  0  0  0  0  0  0  0  0999 V2000
   -3.2620   -0.0987   -0.0606 C   0  0  0  0  0  0  0  0  0  0  0  0
   -2.0891    0.6875    0.4642 C   0  0  0  0  0  0  0  0  0  0  0  0
   -0.7856    0.0322    0.1624 C   0  0  0  0  0  0  0  0  0  0  0  0
   -0.5070   -1.0779   -0.4636 C   0  0  0  0  0  0  0  0  0  0  0  0
    0.9435   -1.3680   -0.5452 C   0  0  0  0  0  0  0  0  0  0  0  0
    1.5807   -0.3661    0.3891 C   0  0  0  0  0  0  0  0  0  0  0  0
    2.8160    0.2651   -0.2347 C   0  0  0  0  0  0  0  0  0  0  0  0
    2.5048    0.9329   -1.4144 O   0  0  0  0  0  0  0  0  0  0  0  0
    0.5052    0.6394    0.5905 C   0  0  0  0  0  0  0  0  0  0  0  0
   -4.1668    0.2917    0.4926 H   0  0  0  0  0  0  0  0  0  0  0  0
   -3.4275    0.1464   -1.1147 H   0  0  0  0  0  0  0  0  0  0  0  0
   -3.2106   -1.1682    0.1713 H   0  0  0  0  0  0  0  0  0  0  0  0
   -2.0643    1.6770   -0.0431 H   0  0  0  0  0  0  0  0  0  0  0  0
   -2.1409    0.8013    1.5691 H   0  0  0  0  0  0  0  0  0  0  0  0
   -1.2628   -1.7511   -0.8982 H   0  0  0  0  0  0  0  0  0  0  0  0
    1.3463   -1.2986   -1.5742 H   0  0  0  0  0  0  0  0  0  0  0  0
    1.1382   -2.3879   -0.1110 H   0  0  0  0  0  0  0  0  0  0  0  0
    1.8765   -0.7998    1.3586 H   0  0  0  0  0  0  0  0  0  0  0  0
    3.2587    0.9548    0.5010 H   0  0  0  0  0  0  0  0  0  0  0  0
    3.5536   -0.5220   -0.4972 H   0  0  0  0  0  0  0  0  0  0  0  0
    2.3877    1.9011   -1.1681 H   0  0  0  0  0  0  0  0  0  0  0  0
    0.3717    0.9483    1.6528 H   0  0  0  0  0  0  0  0  0  0  0  0
    0.6338    1.5606   -0.0463 H   0  0  0  0  0  0  0  0  0  0  0  0
  1  2  1  0
  2  3  1  0
  3  4  2  0
  4  5  1  0
  5  6  1  0
  6  7  1  0
  7  8  1  0
  6  9  1  0
  9  3  1  0
  1 10  1  0
  1 11  1  0
  1 12  1  0
  2 13  1  0
  2 14  1  0
  4 15  1  0
  5 16  1  0
  5 17  1  0
  6 18  1  0
  7 19  1  0
  7 20  1  0
  8 21  1  0
  9 22  1  0
  9 23  1  0
M  END
