
     RDKit          3D

 21 24  0  0  0  0  0  0  0  0999 V2000
    2.0839    0.5463    0.3516 C   0  0  0  0  0  0  0  0  0  0  0  0
    1.6172   -0.8751    0.2013 C   0  0  0  0  0  0  0  0  0  0  0  0
    0.1439   -0.9867   -0.0604 C   0  0  0  0  0  0  0  0  0  0  0  0
   -0.2907   -0.2851   -1.3184 C   0  0  0  0  0  0  0  0  0  0  0  0
   -1.7398   -0.0885   -1.1308 C   0  0  0  0  0  0  0  0  0  0  0  0
   -0.7886    1.0283   -0.9509 C   0  0  0  0  0  0  0  0  0  0  0  0
   -1.0179    0.9884    0.5211 C   0  0  0  0  0  0  0  0  0  0  0  0
   -0.7121   -0.3559    0.9873 C   0  0  0  0  0  0  0  0  0  0  0  0
   -1.9984   -0.1079    0.3199 C   0  0  0  0  0  0  0  0  0  0  0  0
    2.0875    1.1066   -0.5988 H   0  0  0  0  0  0  0  0  0  0  0  0
    1.5039    1.0378    1.1465 H   0  0  0  0  0  0  0  0  0  0  0  0
    3.1407    0.5026    0.7286 H   0  0  0  0  0  0  0  0  0  0  0  0
    2.1698   -1.3248   -0.6449 H   0  0  0  0  0  0  0  0  0  0  0  0
    1.8539   -1.4243    1.1100 H   0  0  0  0  0  0  0  0  0  0  0  0
   -0.0844   -2.0706   -0.1660 H   0  0  0  0  0  0  0  0  0  0  0  0
    0.0564   -0.5968   -2.3005 H   0  0  0  0  0  0  0  0  0  0  0  0
   -2.4858   -0.1511   -1.9029 H   0  0  0  0  0  0  0  0  0  0  0  0
   -0.7720    1.9278   -1.5366 H   0  0  0  0  0  0  0  0  0  0  0  0
   -1.1982    1.8633    1.1265 H   0  0  0  0  0  0  0  0  0  0  0  0
   -0.6006   -0.5885    2.0457 H   0  0  0  0  0  0  0  0  0  0  0  0
   -2.9686   -0.1458    0.7835 H   0  0  0  0  0  0  0  0  0  0  0  0
  1  2  1  0
  2  3  1  0
  3  4  1  0
  4  5  1  0
  5  6  1  0
  6  7  1  0
  7  8  1  0
  8  9  1  0
  8  3  1  0
  6  4  1  0
  9  7  1  0
  9  5  1  0
  1 10  1  0
  1 11  1  0
  1 12  1  0
  2 13  1  0
  2 14  1  0
  3 15  1  0
  4 16  1  0
  5 17  1  0
  6 18  1  0
  7 19  1  0
  8 20  1  0
  9 21  1  0
M  END
