
     RDKit          3D

 21 23  0  0  0  0  0  0  0  0999 V2000
    2.5620   -0.3115   -0.2400 C   0  0  0  0  0  0  0  0  0  0  0  0
    1.3278    0.1677   -1.0092 C   0  0  0  0  0  0  0  0  0  0  0  0
    0.1461   -0.0296   -0.1368 C   0  0  0  0  0  0  0  0  0  0  0  0
    0.1422    0.7009    1.1851 C   0  0  0  0  0  0  0  0  0  0  0  0
   -1.3540    0.7782    1.0763 C   0  0  0  0  0  0  0  0  0  0  0  0
   -2.1268   -0.0589    0.1344 C   0  0  0  0  0  0  0  0  0  0  0  0
   -1.5939   -1.4626   -0.1916 C   0  0  0  0  0  0  0  0  0  0  0  0
   -0.2489   -1.3284    0.0321 O   0  0  0  0  0  0  0  0  0  0  0  0
   -1.0965    0.7501   -0.4658 C   0  0  0  0  0  0  0  0  0  0  0  0
    2.2476   -1.2247    0.3409 H   0  0  0  0  0  0  0  0  0  0  0  0
    2.8048    0.4536    0.5234 H   0  0  0  0  0  0  0  0  0  0  0  0
    3.3907   -0.5702   -0.9028 H   0  0  0  0  0  0  0  0  0  0  0  0
    1.1944   -0.4573   -1.9164 H   0  0  0  0  0  0  0  0  0  0  0  0
    1.4390    1.2143   -1.3409 H   0  0  0  0  0  0  0  0  0  0  0  0
    0.4742    0.0691    2.0289 H   0  0  0  0  0  0  0  0  0  0  0  0
    0.6782    1.6689    1.0804 H   0  0  0  0  0  0  0  0  0  0  0  0
   -1.8498    1.6679    1.4760 H   0  0  0  0  0  0  0  0  0  0  0  0
   -3.1962    0.0883    0.1069 H   0  0  0  0  0  0  0  0  0  0  0  0
   -1.7438   -1.6027   -1.2963 H   0  0  0  0  0  0  0  0  0  0  0  0
   -2.0818   -2.2262    0.4140 H   0  0  0  0  0  0  0  0  0  0  0  0
   -1.1155    1.7133   -0.8985 H   0  0  0  0  0  0  0  0  0  0  0  0
  1  2  1  0
  2  3  1  0
  3  4  1  0
  4  5  1  0
  5  6  1  0
  6  7  1  0
  7  8  1  0
  6  9  1  0
  8  3  1  0
  9  3  1  0
  9  5  1  0
  1 10  1  0
  1 11  1  0
  1 12  1  0
  2 13  1  0
  2 14  1  0
  4 15  1  0
  4 16  1  0
  5 17  1  0
  6 18  1  0
  7 19  1  0
  7 20  1  0
  9 21  1  0
M  END
