
     RDKit          3D

 23 24  0  0  0  0  0  0  0  0999 V2000
    2.6789   -0.7017    0.1114 C   0  0  0  0  0  0  0  0  0  0  0  0
    1.5281   -0.1306    0.8676 C   0  0  0  0  0  0  0  0  0  0  0  0
    0.3204    0.1222    0.0055 C   0  0  0  0  0  0  0  0  0  0  0  0
   -0.2391   -1.1083   -0.6733 C   0  0  0  0  0  0  0  0  0  0  0  0
   -1.6063   -0.5581   -1.1020 C   0  0  0  0  0  0  0  0  0  0  0  0
   -2.0817   -0.0307    0.2376 C   0  0  0  0  0  0  0  0  0  0  0  0
   -0.8654    0.7156    0.7212 C   0  0  0  0  0  0  0  0  0  0  0  0
   -0.6213    1.9645   -0.0872 C   0  0  0  0  0  0  0  0  0  0  0  0
    0.3585    1.2427   -0.7929 O   0  0  0  0  0  0  0  0  0  0  0  0
    3.2676    0.0747   -0.4202 H   0  0  0  0  0  0  0  0  0  0  0  0
    3.3360   -1.2519    0.8171 H   0  0  0  0  0  0  0  0  0  0  0  0
    2.3253   -1.4707   -0.6271 H   0  0  0  0  0  0  0  0  0  0  0  0
    1.8349    0.8147    1.3581 H   0  0  0  0  0  0  0  0  0  0  0  0
    1.2136   -0.9052    1.6245 H   0  0  0  0  0  0  0  0  0  0  0  0
   -0.4483   -1.8571    0.1099 H   0  0  0  0  0  0  0  0  0  0  0  0
    0.3503   -1.4645   -1.5109 H   0  0  0  0  0  0  0  0  0  0  0  0
   -1.4058    0.2883   -1.8061 H   0  0  0  0  0  0  0  0  0  0  0  0
   -2.2472   -1.3251   -1.5224 H   0  0  0  0  0  0  0  0  0  0  0  0
   -2.2497   -0.8938    0.8981 H   0  0  0  0  0  0  0  0  0  0  0  0
   -2.9723    0.6172    0.1360 H   0  0  0  0  0  0  0  0  0  0  0  0
   -0.7630    0.8145    1.8136 H   0  0  0  0  0  0  0  0  0  0  0  0
   -0.2244    2.7710    0.5380 H   0  0  0  0  0  0  0  0  0  0  0  0
   -1.4891    2.2722   -0.6964 H   0  0  0  0  0  0  0  0  0  0  0  0
  1  2  1  0
  2  3  1  0
  3  4  1  0
  4  5  1  0
  5  6  1  0
  6  7  1  0
  7  8  1  0
  8  9  1  0
  7  3  1  0
  9  3  1  0
  1 10  1  0
  1 11  1  0
  1 12  1  0
  2 13  1  0
  2 14  1  0
  4 15  1  0
  4 16  1  0
  5 17  1  0
  5 18  1  0
  6 19  1  0
  6 20  1  0
  7 21  1  0
  8 22  1  0
  8 23  1  0
M  END
