
     RDKit          3D

 21 21  0  0  0  0  0  0  0  0999 V2000
    2.9832    0.4100    0.2803 C   0  0  0  0  0  0  0  0  0  0  0  0
    1.8647   -0.5829    0.3959 C   0  0  0  0  0  0  0  0  0  0  0  0
    0.6554   -0.1379   -0.3839 C   0  0  0  0  0  0  0  0  0  0  0  0
    0.1651    1.0881    0.0636 O   0  0  0  0  0  0  0  0  0  0  0  0
   -1.0632    1.1754   -0.6017 C   0  0  0  0  0  0  0  0  0  0  0  0
   -1.6870   -0.1914   -0.4274 C   0  0  0  0  0  0  0  0  0  0  0  0
   -2.7476   -0.2287    0.6226 C   0  0  0  0  0  0  0  0  0  0  0  0
   -0.5011   -1.0224   -0.0991 C   0  0  0  0  0  0  0  0  0  0  0  0
   -0.5038   -2.1624    0.3076 O   0  0  0  0  0  0  0  0  0  0  0  0
    3.1346    0.7744   -0.7536 H   0  0  0  0  0  0  0  0  0  0  0  0
    3.9272   -0.0877    0.5869 H   0  0  0  0  0  0  0  0  0  0  0  0
    2.7723    1.2624    0.9608 H   0  0  0  0  0  0  0  0  0  0  0  0
    2.2099   -1.5381   -0.0405 H   0  0  0  0  0  0  0  0  0  0  0  0
    1.5953   -0.7060    1.4538 H   0  0  0  0  0  0  0  0  0  0  0  0
    0.8602   -0.0882   -1.4674 H   0  0  0  0  0  0  0  0  0  0  0  0
   -0.8708    1.3901   -1.6728 H   0  0  0  0  0  0  0  0  0  0  0  0
   -1.7151    1.9664   -0.1844 H   0  0  0  0  0  0  0  0  0  0  0  0
   -2.0797   -0.5488   -1.3978 H   0  0  0  0  0  0  0  0  0  0  0  0
   -2.6251    0.6610    1.2708 H   0  0  0  0  0  0  0  0  0  0  0  0
   -2.5899   -1.1403    1.2458 H   0  0  0  0  0  0  0  0  0  0  0  0
   -3.7845   -0.2929    0.1875 H   0  0  0  0  0  0  0  0  0  0  0  0
  1  2  1  0
  2  3  1  0
  3  4  1  0
  4  5  1  0
  5  6  1  0
  6  7  1  0
  6  8  1  0
  8  9  2  0
  8  3  1  0
  1 10  1  0
  1 11  1  0
  1 12  1  0
  2 13  1  0
  2 14  1  0
  3 15  1  0
  5 16  1  0
  5 17  1  0
  6 18  1  0
  7 19  1  0
  7 20  1  0
  7 21  1  0
M  END
