
     RDKit          3D

 17 17  0  0  0  0  0  0  0  0999 V2000
    2.2082   -0.2346   -0.3458 C   0  0  0  0  0  0  0  0  0  0  0  0
    1.2323    0.5500    0.4921 C   0  0  0  0  0  0  0  0  0  0  0  0
    0.0253   -0.2343    0.8307 C   0  0  0  0  0  0  0  0  0  0  0  0
   -0.9314    0.5900    1.6141 O   0  0  0  0  0  0  0  0  0  0  0  0
   -1.2948    0.1020    0.3498 C   0  0  0  0  0  0  0  0  0  0  0  0
   -1.3606    0.9459   -0.8620 C   0  0  0  0  0  0  0  0  0  0  0  0
   -1.7978    0.4714   -1.8910 O   0  0  0  0  0  0  0  0  0  0  0  0
   -2.2402   -1.0477    0.3108 C   0  0  0  0  0  0  0  0  0  0  0  0
   -3.1676   -1.0830    1.1289 O   0  0  0  0  0  0  0  0  0  0  0  0
    2.4911   -1.1742    0.2392 H   0  0  0  0  0  0  0  0  0  0  0  0
    1.7952   -0.4449   -1.3729 H   0  0  0  0  0  0  0  0  0  0  0  0
    3.1384    0.3859   -0.4476 H   0  0  0  0  0  0  0  0  0  0  0  0
    0.9978    1.4840   -0.0265 H   0  0  0  0  0  0  0  0  0  0  0  0
    1.8423    0.8107    1.4275 H   0  0  0  0  0  0  0  0  0  0  0  0
    0.2248   -1.2267    1.2207 H   0  0  0  0  0  0  0  0  0  0  0  0
   -1.0210    1.9945   -0.8551 H   0  0  0  0  0  0  0  0  0  0  0  0
   -2.1418   -1.8888   -0.4203 H   0  0  0  0  0  0  0  0  0  0  0  0
  1  2  1  0
  2  3  1  0
  3  4  1  0
  4  5  1  0
  5  6  1  0
  6  7  2  0
  5  8  1  0
  8  9  2  0
  5  3  1  0
  1 10  1  0
  1 11  1  0
  1 12  1  0
  2 13  1  0
  2 14  1  0
  3 15  1  0
  6 16  1  0
  8 17  1  0
M  END
