
     RDKit          3D

 23 23  0  0  0  0  0  0  0  0999 V2000
    2.4659   -0.6060   -0.4659 C   0  0  0  0  0  0  0  0  0  0  0  0
    1.0578   -0.7680    0.0417 C   0  0  0  0  0  0  0  0  0  0  0  0
    0.1769    0.4019   -0.3051 C   0  0  0  0  0  0  0  0  0  0  0  0
    0.6179    1.7308    0.2360 C   0  0  0  0  0  0  0  0  0  0  0  0
   -0.3200    0.4072   -1.6020 O   0  0  0  0  0  0  0  0  0  0  0  0
   -1.4602   -0.3277   -1.2416 C   0  0  0  0  0  0  0  0  0  0  0  0
   -1.2428    0.1080    0.1673 C   0  0  0  0  0  0  0  0  0  0  0  0
   -1.3280   -0.9398    1.2315 C   0  0  0  0  0  0  0  0  0  0  0  0
   -1.9457    1.2484    0.5445 O   0  0  0  0  0  0  0  0  0  0  0  0
    3.0932   -0.1618    0.3453 H   0  0  0  0  0  0  0  0  0  0  0  0
    2.5469   -0.0162   -1.3781 H   0  0  0  0  0  0  0  0  0  0  0  0
    2.8692   -1.6415   -0.6161 H   0  0  0  0  0  0  0  0  0  0  0  0
    1.0688   -0.8914    1.1412 H   0  0  0  0  0  0  0  0  0  0  0  0
    0.5601   -1.6759   -0.4001 H   0  0  0  0  0  0  0  0  0  0  0  0
    1.6991    1.9051    0.1602 H   0  0  0  0  0  0  0  0  0  0  0  0
    0.0769    2.5220   -0.3440 H   0  0  0  0  0  0  0  0  0  0  0  0
    0.2451    1.8097    1.2824 H   0  0  0  0  0  0  0  0  0  0  0  0
   -2.4160    0.1215   -1.6357 H   0  0  0  0  0  0  0  0  0  0  0  0
   -1.4162   -1.4015   -1.4600 H   0  0  0  0  0  0  0  0  0  0  0  0
   -0.9466   -1.9203    0.9527 H   0  0  0  0  0  0  0  0  0  0  0  0
   -0.7421   -0.5490    2.1142 H   0  0  0  0  0  0  0  0  0  0  0  0
   -2.3957   -1.0524    1.5068 H   0  0  0  0  0  0  0  0  0  0  0  0
   -2.2645    1.6968   -0.2754 H   0  0  0  0  0  0  0  0  0  0  0  0
  1  2  1  0
  2  3  1  0
  3  4  1  0
  3  5  1  0
  5  6  1  0
  6  7  1  0
  7  8  1  0
  7  9  1  0
  7  3  1  0
  1 10  1  0
  1 11  1  0
  1 12  1  0
  2 13  1  0
  2 14  1  0
  4 15  1  0
  4 16  1  0
  4 17  1  0
  6 18  1  0
  6 19  1  0
  8 20  1  0
  8 21  1  0
  8 22  1  0
  9 23  1  0
M  END
