
     RDKit          3D

 20 21  0  0  0  0  0  0  0  0999 V2000
   -2.4034    0.3416   -0.2194 C   0  0  0  0  0  0  0  0  0  0  0  0
   -1.4289   -0.2593    0.7633 C   0  0  0  0  0  0  0  0  0  0  0  0
    0.0009   -0.0784    0.3644 C   0  0  0  0  0  0  0  0  0  0  0  0
    0.5514    1.2742    0.1946 C   0  0  0  0  0  0  0  0  0  0  0  0
    1.5565    1.2660   -0.6478 C   0  0  0  0  0  0  0  0  0  0  0  0
    1.7906   -0.1151   -1.1405 C   0  0  0  0  0  0  0  0  0  0  0  0
    0.7485   -0.9847   -0.4800 C   0  0  0  0  0  0  0  0  0  0  0  0
    0.9509   -1.1167    1.0185 C   0  0  0  0  0  0  0  0  0  0  0  0
   -2.3535   -0.1343   -1.2099 H   0  0  0  0  0  0  0  0  0  0  0  0
   -2.2654    1.4380   -0.2537 H   0  0  0  0  0  0  0  0  0  0  0  0
   -3.4250    0.1828    0.2214 H   0  0  0  0  0  0  0  0  0  0  0  0
   -1.6489   -1.3256    0.8900 H   0  0  0  0  0  0  0  0  0  0  0  0
   -1.5829    0.2707    1.7343 H   0  0  0  0  0  0  0  0  0  0  0  0
    0.1668    2.1656    0.7080 H   0  0  0  0  0  0  0  0  0  0  0  0
    2.1193    2.1766   -0.9229 H   0  0  0  0  0  0  0  0  0  0  0  0
    1.7578   -0.1753   -2.2481 H   0  0  0  0  0  0  0  0  0  0  0  0
    2.7931   -0.4222   -0.7576 H   0  0  0  0  0  0  0  0  0  0  0  0
    0.3273   -1.8394   -1.0345 H   0  0  0  0  0  0  0  0  0  0  0  0
    0.5008   -1.9674    1.5297 H   0  0  0  0  0  0  0  0  0  0  0  0
    1.8440   -0.6971    1.4902 H   0  0  0  0  0  0  0  0  0  0  0  0
  1  2  1  0
  2  3  1  0
  3  4  1  0
  4  5  2  0
  5  6  1  0
  6  7  1  0
  7  8  1  0
  7  3  1  0
  8  3  1  0
  1  9  1  0
  1 10  1  0
  1 11  1  0
  2 12  1  0
  2 13  1  0
  4 14  1  0
  5 15  1  0
  6 16  1  0
  6 17  1  0
  7 18  1  0
  8 19  1  0
  8 20  1  0
M  END
