
     RDKit          3D

 21 22  0  0  0  0  0  0  0  0999 V2000
    2.6121   -0.2500   -0.1192 C   0  0  0  0  0  0  0  0  0  0  0  0
    1.4597    0.7227    0.0083 C   0  0  0  0  0  0  0  0  0  0  0  0
    0.1435    0.1357   -0.1923 C   0  0  0  0  0  0  0  0  0  0  0  0
   -0.3148   -0.9762    0.7181 C   0  0  0  0  0  0  0  0  0  0  0  0
   -1.7149   -1.1700    0.0930 C   0  0  0  0  0  0  0  0  0  0  0  0
   -1.5491   -0.1551   -1.0249 C   0  0  0  0  0  0  0  0  0  0  0  0
   -0.2123   -0.3238   -1.4565 O   0  0  0  0  0  0  0  0  0  0  0  0
   -1.0534    1.0530   -0.2704 C   0  0  0  0  0  0  0  0  0  0  0  0
   -1.7074    1.1845    0.9427 O   0  0  0  0  0  0  0  0  0  0  0  0
    3.5765    0.2920   -0.2720 H   0  0  0  0  0  0  0  0  0  0  0  0
    2.3804   -0.9021   -0.9865 H   0  0  0  0  0  0  0  0  0  0  0  0
    2.7289   -0.8258    0.8195 H   0  0  0  0  0  0  0  0  0  0  0  0
    1.4783    1.2497    0.9936 H   0  0  0  0  0  0  0  0  0  0  0  0
    1.6358    1.5140   -0.7486 H   0  0  0  0  0  0  0  0  0  0  0  0
    0.2250   -1.9208    0.5437 H   0  0  0  0  0  0  0  0  0  0  0  0
   -0.3761   -0.6719    1.7602 H   0  0  0  0  0  0  0  0  0  0  0  0
   -1.8658   -2.1870   -0.2564 H   0  0  0  0  0  0  0  0  0  0  0  0
   -2.4255   -0.7945    0.8289 H   0  0  0  0  0  0  0  0  0  0  0  0
   -2.3073   -0.0539   -1.7585 H   0  0  0  0  0  0  0  0  0  0  0  0
   -0.9353    1.9565   -0.8665 H   0  0  0  0  0  0  0  0  0  0  0  0
   -1.7784    2.1229    1.2438 H   0  0  0  0  0  0  0  0  0  0  0  0
  1  2  1  0
  2  3  1  0
  3  4  1  0
  4  5  1  0
  5  6  1  0
  6  7  1  0
  6  8  1  0
  8  9  1  0
  7  3  1  0
  8  3  1  0
  1 10  1  0
  1 11  1  0
  1 12  1  0
  2 13  1  0
  2 14  1  0
  4 15  1  0
  4 16  1  0
  5 17  1  0
  5 18  1  0
  6 19  1  0
  8 20  1  0
  9 21  1  0
M  END
