
     RDKit          3D

 22 22  0  0  0  0  0  0  0  0999 V2000
    2.9555    0.2314   -0.2891 C   0  0  0  0  0  0  0  0  0  0  0  0
    1.6627    0.6776    0.2924 C   0  0  0  0  0  0  0  0  0  0  0  0
    0.6529   -0.4244    0.4735 C   0  0  0  0  0  0  0  0  0  0  0  0
   -0.5698    0.1780    1.0574 C   0  0  0  0  0  0  0  0  0  0  0  0
   -1.6263    0.0699    0.2977 C   0  0  0  0  0  0  0  0  0  0  0  0
   -3.0232    0.5513    0.5486 C   0  0  0  0  0  0  0  0  0  0  0  0
   -1.2528   -0.6465   -0.9515 C   0  0  0  0  0  0  0  0  0  0  0  0
    0.1826   -1.0250   -0.8002 C   0  0  0  0  0  0  0  0  0  0  0  0
    3.1976    0.9323   -1.1403 H   0  0  0  0  0  0  0  0  0  0  0  0
    3.8240    0.3638    0.4185 H   0  0  0  0  0  0  0  0  0  0  0  0
    2.9799   -0.8013   -0.6541 H   0  0  0  0  0  0  0  0  0  0  0  0
    1.1658    1.5016   -0.2749 H   0  0  0  0  0  0  0  0  0  0  0  0
    1.8695    1.0948    1.3142 H   0  0  0  0  0  0  0  0  0  0  0  0
    1.0278   -1.1657    1.2139 H   0  0  0  0  0  0  0  0  0  0  0  0
   -0.5726    0.6627    2.0309 H   0  0  0  0  0  0  0  0  0  0  0  0
   -3.6675   -0.2580    0.9407 H   0  0  0  0  0  0  0  0  0  0  0  0
   -3.4076    0.9676   -0.4172 H   0  0  0  0  0  0  0  0  0  0  0  0
   -3.0221    1.4080    1.2691 H   0  0  0  0  0  0  0  0  0  0  0  0
   -1.4032    0.0447   -1.7999 H   0  0  0  0  0  0  0  0  0  0  0  0
   -1.9169   -1.5243   -1.1309 H   0  0  0  0  0  0  0  0  0  0  0  0
    0.7265   -0.6929   -1.7025 H   0  0  0  0  0  0  0  0  0  0  0  0
    0.2174   -2.1457   -0.6962 H   0  0  0  0  0  0  0  0  0  0  0  0
  1  2  1  0
  2  3  1  0
  3  4  1  0
  4  5  2  0
  5  6  1  0
  5  7  1  0
  7  8  1  0
  8  3  1  0
  1  9  1  0
  1 10  1  0
  1 11  1  0
  2 12  1  0
  2 13  1  0
  3 14  1  0
  4 15  1  0
  6 16  1  0
  6 17  1  0
  6 18  1  0
  7 19  1  0
  7 20  1  0
  8 21  1  0
  8 22  1  0
M  END
