
     RDKit          3D

 23 24  0  0  0  0  0  0  0  0999 V2000
    1.9184    1.2885   -0.3169 C   0  0  0  0  0  0  0  0  0  0  0  0
    1.5427   -0.1537   -0.2829 C   0  0  0  0  0  0  0  0  0  0  0  0
    0.3356   -0.4360    0.5880 C   0  0  0  0  0  0  0  0  0  0  0  0
    0.4885   -0.0815    1.9152 O   0  0  0  0  0  0  0  0  0  0  0  0
   -0.0971   -1.8983    0.3915 C   0  0  0  0  0  0  0  0  0  0  0  0
   -1.5422   -1.4073    0.2267 C   0  0  0  0  0  0  0  0  0  0  0  0
   -0.9632   -0.0482    0.0048 C   0  0  0  0  0  0  0  0  0  0  0  0
   -1.1591    0.7379   -1.2025 C   0  0  0  0  0  0  0  0  0  0  0  0
   -1.6575    1.1974    0.1532 C   0  0  0  0  0  0  0  0  0  0  0  0
    2.0072    1.6199   -1.3649 H   0  0  0  0  0  0  0  0  0  0  0  0
    1.1442    1.9599    0.1558 H   0  0  0  0  0  0  0  0  0  0  0  0
    2.8670    1.5040    0.2310 H   0  0  0  0  0  0  0  0  0  0  0  0
    1.4261   -0.5413   -1.3016 H   0  0  0  0  0  0  0  0  0  0  0  0
    2.4146   -0.7100    0.1555 H   0  0  0  0  0  0  0  0  0  0  0  0
    1.4145    0.1171    2.1682 H   0  0  0  0  0  0  0  0  0  0  0  0
    0.2394   -2.2979   -0.5877 H   0  0  0  0  0  0  0  0  0  0  0  0
    0.0597   -2.5405    1.2580 H   0  0  0  0  0  0  0  0  0  0  0  0
   -2.0736   -1.8711   -0.6123 H   0  0  0  0  0  0  0  0  0  0  0  0
   -2.1258   -1.5195    1.1706 H   0  0  0  0  0  0  0  0  0  0  0  0
   -0.3679    1.3988   -1.6206 H   0  0  0  0  0  0  0  0  0  0  0  0
   -1.8847    0.4183   -1.9728 H   0  0  0  0  0  0  0  0  0  0  0  0
   -1.2051    2.0956    0.6228 H   0  0  0  0  0  0  0  0  0  0  0  0
   -2.7815    1.1681    0.2209 H   0  0  0  0  0  0  0  0  0  0  0  0
  1  2  1  0
  2  3  1  0
  3  4  1  0
  3  5  1  0
  5  6  1  0
  6  7  1  0
  7  8  1  0
  8  9  1  0
  7  3  1  0
  9  7  1  0
  1 10  1  0
  1 11  1  0
  1 12  1  0
  2 13  1  0
  2 14  1  0
  4 15  1  0
  5 16  1  0
  5 17  1  0
  6 18  1  0
  6 19  1  0
  8 20  1  0
  8 21  1  0
  9 22  1  0
  9 23  1  0
M  END
