
     RDKit          3D

 19 19  0  0  0  0  0  0  0  0999 V2000
   -1.9549   -0.7870   -0.3163 C   0  0  0  0  0  0  0  0  0  0  0  0
   -1.1060    0.2579    0.3656 C   0  0  0  0  0  0  0  0  0  0  0  0
   -0.0130    0.7761   -0.5386 C   0  0  0  0  0  0  0  0  0  0  0  0
    0.8227    1.8220    0.1697 C   0  0  0  0  0  0  0  0  0  0  0  0
    1.5545    0.7500    0.7334 O   0  0  0  0  0  0  0  0  0  0  0  0
    1.3045    0.0540   -0.4414 C   0  0  0  0  0  0  0  0  0  0  0  0
    1.2552   -1.4288   -0.3504 C   0  0  0  0  0  0  0  0  0  0  0  0
   -2.0076   -0.6165   -1.4142 H   0  0  0  0  0  0  0  0  0  0  0  0
   -3.0146   -0.7292    0.0597 H   0  0  0  0  0  0  0  0  0  0  0  0
   -1.6093   -1.8064   -0.0525 H   0  0  0  0  0  0  0  0  0  0  0  0
   -0.6850   -0.0986    1.3104 H   0  0  0  0  0  0  0  0  0  0  0  0
   -1.7931    1.1087    0.6097 H   0  0  0  0  0  0  0  0  0  0  0  0
   -0.2960    0.9919   -1.5650 H   0  0  0  0  0  0  0  0  0  0  0  0
    0.2067    2.3725    0.8820 H   0  0  0  0  0  0  0  0  0  0  0  0
    1.4396    2.4558   -0.5166 H   0  0  0  0  0  0  0  0  0  0  0  0
    1.9855    0.4179   -1.2354 H   0  0  0  0  0  0  0  0  0  0  0  0
    0.5669   -1.9068   -1.0598 H   0  0  0  0  0  0  0  0  0  0  0  0
    1.0600   -1.8196    0.6702 H   0  0  0  0  0  0  0  0  0  0  0  0
    2.2839   -1.8140   -0.6135 H   0  0  0  0  0  0  0  0  0  0  0  0
  1  2  1  0
  2  3  1  0
  3  4  1  0
  4  5  1  0
  5  6  1  0
  6  7  1  0
  6  3  1  0
  1  8  1  0
  1  9  1  0
  1 10  1  0
  2 11  1  0
  2 12  1  0
  3 13  1  0
  4 14  1  0
  4 15  1  0
  6 16  1  0
  7 17  1  0
  7 18  1  0
  7 19  1  0
M  END
