
     RDKit          3D

 23 23  0  0  0  0  0  0  0  0999 V2000
    2.5018   -0.4408   -1.1382 C   0  0  0  0  0  0  0  0  0  0  0  0
    1.2377   -1.0016   -0.4712 C   0  0  0  0  0  0  0  0  0  0  0  0
    0.7408    0.0249    0.5167 C   0  0  0  0  0  0  0  0  0  0  0  0
   -0.4578   -0.1927    1.3320 C   0  0  0  0  0  0  0  0  0  0  0  0
   -1.3273   -1.3966    1.2055 C   0  0  0  0  0  0  0  0  0  0  0  0
   -0.6161   -2.5860    1.4676 O   0  0  0  0  0  0  0  0  0  0  0  0
   -0.5112    0.7478    0.1399 C   0  0  0  0  0  0  0  0  0  0  0  0
   -0.6465    2.0999    0.3398 O   0  0  0  0  0  0  0  0  0  0  0  0
   -1.4106    2.7231   -0.6460 C   0  0  0  0  0  0  0  0  0  0  0  0
    2.4168    0.6619   -1.2481 H   0  0  0  0  0  0  0  0  0  0  0  0
    3.3852   -0.5952   -0.4521 H   0  0  0  0  0  0  0  0  0  0  0  0
    2.7417   -0.9560   -2.0699 H   0  0  0  0  0  0  0  0  0  0  0  0
    0.5107   -1.1367   -1.2943 H   0  0  0  0  0  0  0  0  0  0  0  0
    1.5110   -1.9187    0.0494 H   0  0  0  0  0  0  0  0  0  0  0  0
    1.5772    0.5821    1.0097 H   0  0  0  0  0  0  0  0  0  0  0  0
   -0.5122    0.3184    2.3301 H   0  0  0  0  0  0  0  0  0  0  0  0
   -2.1450   -1.3569    1.9539 H   0  0  0  0  0  0  0  0  0  0  0  0
   -1.7916   -1.4935    0.2007 H   0  0  0  0  0  0  0  0  0  0  0  0
   -1.3148   -3.3015    1.5743 H   0  0  0  0  0  0  0  0  0  0  0  0
   -1.0442    0.3881   -0.7875 H   0  0  0  0  0  0  0  0  0  0  0  0
   -0.9848    2.6115   -1.6475 H   0  0  0  0  0  0  0  0  0  0  0  0
   -2.4654    2.3990   -0.5749 H   0  0  0  0  0  0  0  0  0  0  0  0
   -1.3954    3.8196   -0.4155 H   0  0  0  0  0  0  0  0  0  0  0  0
  1  2  1  0
  2  3  1  0
  3  4  1  0
  4  5  1  0
  5  6  1  0
  4  7  1  0
  7  8  1  0
  8  9  1  0
  7  3  1  0
  1 10  1  0
  1 11  1  0
  1 12  1  0
  2 13  1  0
  2 14  1  0
  3 15  1  0
  4 16  1  0
  5 17  1  0
  5 18  1  0
  6 19  1  0
  7 20  1  0
  9 21  1  0
  9 22  1  0
  9 23  1  0
M  END
