
     RDKit          3D

 25 26  0  0  0  0  0  0  0  0999 V2000
    2.4680    1.0374   -0.1403 C   0  0  0  0  0  0  0  0  0  0  0  0
    1.4436    0.5099    0.8203 C   0  0  0  0  0  0  0  0  0  0  0  0
    0.4456   -0.4196    0.1717 C   0  0  0  0  0  0  0  0  0  0  0  0
    1.1524   -1.6151   -0.4269 C   0  0  0  0  0  0  0  0  0  0  0  0
   -0.7214   -0.7242    1.0555 C   0  0  0  0  0  0  0  0  0  0  0  0
   -1.6167   -0.0404    0.0421 C   0  0  0  0  0  0  0  0  0  0  0  0
   -2.5366    1.0548    0.4695 C   0  0  0  0  0  0  0  0  0  0  0  0
   -1.6029   -0.5801   -1.3349 C   0  0  0  0  0  0  0  0  0  0  0  0
   -0.4593    0.2124   -0.8427 C   0  0  0  0  0  0  0  0  0  0  0  0
    2.5478    0.4432   -1.0540 H   0  0  0  0  0  0  0  0  0  0  0  0
    3.4929    1.1046    0.3253 H   0  0  0  0  0  0  0  0  0  0  0  0
    2.1991    2.0810   -0.4589 H   0  0  0  0  0  0  0  0  0  0  0  0
    2.0055   -0.1221    1.5690 H   0  0  0  0  0  0  0  0  0  0  0  0
    0.9364    1.2859    1.4124 H   0  0  0  0  0  0  0  0  0  0  0  0
    0.4569   -2.4847   -0.5140 H   0  0  0  0  0  0  0  0  0  0  0  0
    2.0426   -1.8842    0.1903 H   0  0  0  0  0  0  0  0  0  0  0  0
    1.5294   -1.2854   -1.4259 H   0  0  0  0  0  0  0  0  0  0  0  0
   -0.8711   -1.8172    1.1307 H   0  0  0  0  0  0  0  0  0  0  0  0
   -0.7652   -0.1740    2.0216 H   0  0  0  0  0  0  0  0  0  0  0  0
   -2.4546    1.1932    1.5536 H   0  0  0  0  0  0  0  0  0  0  0  0
   -3.5689    0.8603    0.1169 H   0  0  0  0  0  0  0  0  0  0  0  0
   -2.1864    2.0045   -0.0274 H   0  0  0  0  0  0  0  0  0  0  0  0
   -2.3365   -0.1425   -2.0290 H   0  0  0  0  0  0  0  0  0  0  0  0
   -1.3670   -1.6745   -1.4901 H   0  0  0  0  0  0  0  0  0  0  0  0
   -0.2336    1.1767   -1.2932 H   0  0  0  0  0  0  0  0  0  0  0  0
  1  2  1  0
  2  3  1  0
  3  4  1  0
  3  5  1  0
  5  6  1  0
  6  7  1  0
  6  8  1  0
  8  9  1  0
  9  3  1  0
  9  6  1  0
  1 10  1  0
  1 11  1  0
  1 12  1  0
  2 13  1  0
  2 14  1  0
  4 15  1  0
  4 16  1  0
  4 17  1  0
  5 18  1  0
  5 19  1  0
  7 20  1  0
  7 21  1  0
  7 22  1  0
  8 23  1  0
  8 24  1  0
  9 25  1  0
M  END
