
     RDKit          3D

 21 22  0  0  0  0  0  0  0  0999 V2000
   -2.6037    0.2546   -0.0085 C   0  0  0  0  0  0  0  0  0  0  0  0
   -1.2202    0.7962    0.1243 C   0  0  0  0  0  0  0  0  0  0  0  0
   -0.1542   -0.2067   -0.2332 C   0  0  0  0  0  0  0  0  0  0  0  0
   -0.1833   -0.7031   -1.5052 O   0  0  0  0  0  0  0  0  0  0  0  0
    0.1161   -1.1461    0.8902 C   0  0  0  0  0  0  0  0  0  0  0  0
    1.4355   -1.4438    0.2806 C   0  0  0  0  0  0  0  0  0  0  0  0
    1.2206    0.0641    0.2465 C   0  0  0  0  0  0  0  0  0  0  0  0
    2.1401    0.9772   -0.2173 C   0  0  0  0  0  0  0  0  0  0  0  0
    0.7398   -0.0717    1.5332 O   0  0  0  0  0  0  0  0  0  0  0  0
   -3.2722    0.8880    0.6289 H   0  0  0  0  0  0  0  0  0  0  0  0
   -2.6967   -0.7867    0.3828 H   0  0  0  0  0  0  0  0  0  0  0  0
   -3.0163    0.2878   -1.0253 H   0  0  0  0  0  0  0  0  0  0  0  0
   -1.0918    1.1663    1.1622 H   0  0  0  0  0  0  0  0  0  0  0  0
   -1.1562    1.7084   -0.5272 H   0  0  0  0  0  0  0  0  0  0  0  0
   -0.6660   -0.0932   -2.1090 H   0  0  0  0  0  0  0  0  0  0  0  0
   -0.5305   -1.7881    1.3267 H   0  0  0  0  0  0  0  0  0  0  0  0
    1.3295   -1.9070   -0.7124 H   0  0  0  0  0  0  0  0  0  0  0  0
    2.2451   -1.7947    0.9183 H   0  0  0  0  0  0  0  0  0  0  0  0
    3.1733    0.5421   -0.3641 H   0  0  0  0  0  0  0  0  0  0  0  0
    2.3020    1.8571    0.4405 H   0  0  0  0  0  0  0  0  0  0  0  0
    1.8891    1.3994   -1.2318 H   0  0  0  0  0  0  0  0  0  0  0  0
  1  2  1  0
  2  3  1  0
  3  4  1  0
  3  5  1  0
  5  6  1  0
  6  7  1  0
  7  8  1  0
  7  9  1  0
  7  3  1  0
  9  5  1  0
  1 10  1  0
  1 11  1  0
  1 12  1  0
  2 13  1  0
  2 14  1  0
  4 15  1  0
  5 16  1  0
  6 17  1  0
  6 18  1  0
  8 19  1  0
  8 20  1  0
  8 21  1  0
M  END
