
     RDKit          3D

 23 24  0  0  0  0  0  0  0  0999 V2000
   -3.2998   -0.0089   -0.0694 C   0  0  0  0  0  0  0  0  0  0  0  0
   -2.1168   -0.6672   -0.7686 C   0  0  0  0  0  0  0  0  0  0  0  0
   -0.9617    0.2753   -0.6608 C   0  0  0  0  0  0  0  0  0  0  0  0
   -0.6566    0.5168    0.8371 C   0  0  0  0  0  0  0  0  0  0  0  0
    0.6596    0.9774    0.2011 C   0  0  0  0  0  0  0  0  0  0  0  0
    1.6751    0.1816   -0.3792 C   0  0  0  0  0  0  0  0  0  0  0  0
    2.6348   -0.3630    0.4971 O   0  0  0  0  0  0  0  0  0  0  0  0
    3.8997   -0.4044   -0.0325 C   0  0  0  0  0  0  0  0  0  0  0  0
    0.3937   -0.4143   -0.5204 C   0  0  0  0  0  0  0  0  0  0  0  0
   -2.9477    0.2570    0.9486 H   0  0  0  0  0  0  0  0  0  0  0  0
   -4.1872   -0.6700   -0.0595 H   0  0  0  0  0  0  0  0  0  0  0  0
   -3.4944    0.9621   -0.5941 H   0  0  0  0  0  0  0  0  0  0  0  0
   -1.9374   -1.6391   -0.2752 H   0  0  0  0  0  0  0  0  0  0  0  0
   -2.4004   -0.8984   -1.8145 H   0  0  0  0  0  0  0  0  0  0  0  0
   -0.9865    1.1688   -1.2752 H   0  0  0  0  0  0  0  0  0  0  0  0
   -1.2436    1.3357    1.2552 H   0  0  0  0  0  0  0  0  0  0  0  0
   -0.6171   -0.4209    1.3807 H   0  0  0  0  0  0  0  0  0  0  0  0
    0.3768    1.8788   -0.4363 H   0  0  0  0  0  0  0  0  0  0  0  0
    2.1792    0.4729   -1.3517 H   0  0  0  0  0  0  0  0  0  0  0  0
    4.2491    0.6212   -0.2947 H   0  0  0  0  0  0  0  0  0  0  0  0
    4.5687   -0.8044    0.7556 H   0  0  0  0  0  0  0  0  0  0  0  0
    3.9993   -1.0858   -0.8991 H   0  0  0  0  0  0  0  0  0  0  0  0
    0.2130   -1.2712    0.2059 H   0  0  0  0  0  0  0  0  0  0  0  0
  1  2  1  0
  2  3  1  0
  3  4  1  0
  4  5  1  0
  5  6  1  0
  6  7  1  0
  7  8  1  0
  6  9  1  0
  9  3  1  0
  9  5  1  0
  1 10  1  0
  1 11  1  0
  1 12  1  0
  2 13  1  0
  2 14  1  0
  3 15  1  0
  4 16  1  0
  4 17  1  0
  5 18  1  0
  6 19  1  0
  8 20  1  0
  8 21  1  0
  8 22  1  0
  9 23  1  0
M  END
