
     RDKit          3D

 21 21  0  0  0  0  0  0  0  0999 V2000
   -2.3575   -0.5355    0.2972 C   0  0  0  0  0  0  0  0  0  0  0  0
   -1.1374    0.1314    0.8506 C   0  0  0  0  0  0  0  0  0  0  0  0
   -0.1558    0.3964   -0.2622 C   0  0  0  0  0  0  0  0  0  0  0  0
   -0.6036    1.2049   -1.2762 O   0  0  0  0  0  0  0  0  0  0  0  0
    0.4915   -0.8884   -0.7377 C   0  0  0  0  0  0  0  0  0  0  0  0
    1.5385   -0.6686    0.3585 C   0  0  0  0  0  0  0  0  0  0  0  0
    2.8090   -1.0369   -0.0598 O   0  0  0  0  0  0  0  0  0  0  0  0
    1.2281    0.8086    0.2538 C   0  0  0  0  0  0  0  0  0  0  0  0
    1.2172    1.5072    1.4383 O   0  0  0  0  0  0  0  0  0  0  0  0
   -2.8705   -1.0860    1.1367 H   0  0  0  0  0  0  0  0  0  0  0  0
   -2.1113   -1.2840   -0.4605 H   0  0  0  0  0  0  0  0  0  0  0  0
   -3.1193    0.2004   -0.0642 H   0  0  0  0  0  0  0  0  0  0  0  0
   -1.3881    1.0363    1.4247 H   0  0  0  0  0  0  0  0  0  0  0  0
   -0.6629   -0.5860    1.5612 H   0  0  0  0  0  0  0  0  0  0  0  0
   -1.5507    1.1062   -1.4505 H   0  0  0  0  0  0  0  0  0  0  0  0
   -0.1335   -1.7675   -0.5830 H   0  0  0  0  0  0  0  0  0  0  0  0
    0.9893   -0.7845   -1.7248 H   0  0  0  0  0  0  0  0  0  0  0  0
    1.3022   -1.1259    1.3201 H   0  0  0  0  0  0  0  0  0  0  0  0
    3.1460   -0.3349   -0.6533 H   0  0  0  0  0  0  0  0  0  0  0  0
    1.7801    1.2874   -0.5885 H   0  0  0  0  0  0  0  0  0  0  0  0
    1.5886    2.4193    1.2363 H   0  0  0  0  0  0  0  0  0  0  0  0
  1  2  1  0
  2  3  1  0
  3  4  1  0
  3  5  1  0
  5  6  1  0
  6  7  1  0
  6  8  1  0
  8  9  1  0
  8  3  1  0
  1 10  1  0
  1 11  1  0
  1 12  1  0
  2 13  1  0
  2 14  1  0
  4 15  1  0
  5 16  1  0
  5 17  1  0
  6 18  1  0
  7 19  1  0
  8 20  1  0
  9 21  1  0
M  END
