
     RDKit          3D

 23 23  0  0  0  0  0  0  0  0999 V2000
    2.7632   -0.8730   -0.2460 C   0  0  0  0  0  0  0  0  0  0  0  0
    1.7703    0.0608    0.3552 C   0  0  0  0  0  0  0  0  0  0  0  0
    0.5546    0.2376   -0.5366 C   0  0  0  0  0  0  0  0  0  0  0  0
   -0.1016   -0.9690   -0.7607 O   0  0  0  0  0  0  0  0  0  0  0  0
   -1.1049   -1.0773    0.1609 C   0  0  0  0  0  0  0  0  0  0  0  0
   -2.3504   -1.7356   -0.3997 C   0  0  0  0  0  0  0  0  0  0  0  0
   -1.4460    0.3079    0.5116 C   0  0  0  0  0  0  0  0  0  0  0  0
   -0.4610    1.1000    0.0991 C   0  0  0  0  0  0  0  0  0  0  0  0
   -0.4811    2.5709    0.2938 C   0  0  0  0  0  0  0  0  0  0  0  0
    2.9738   -1.6943    0.4900 H   0  0  0  0  0  0  0  0  0  0  0  0
    2.3769   -1.3248   -1.1946 H   0  0  0  0  0  0  0  0  0  0  0  0
    3.7241   -0.3412   -0.4565 H   0  0  0  0  0  0  0  0  0  0  0  0
    2.2248    1.0606    0.4908 H   0  0  0  0  0  0  0  0  0  0  0  0
    1.4435   -0.2689    1.3709 H   0  0  0  0  0  0  0  0  0  0  0  0
    0.9026    0.6333   -1.5103 H   0  0  0  0  0  0  0  0  0  0  0  0
   -0.7641   -1.5842    1.0952 H   0  0  0  0  0  0  0  0  0  0  0  0
   -2.8346   -0.9962   -1.0965 H   0  0  0  0  0  0  0  0  0  0  0  0
   -2.1594   -2.6994   -0.8656 H   0  0  0  0  0  0  0  0  0  0  0  0
   -3.0540   -1.8437    0.4552 H   0  0  0  0  0  0  0  0  0  0  0  0
   -2.3684    0.6293    1.0309 H   0  0  0  0  0  0  0  0  0  0  0  0
   -1.2369    3.0062   -0.3988 H   0  0  0  0  0  0  0  0  0  0  0  0
    0.5086    3.0361    0.1366 H   0  0  0  0  0  0  0  0  0  0  0  0
   -0.8799    2.7652    1.3238 H   0  0  0  0  0  0  0  0  0  0  0  0
  1  2  1  0
  2  3  1  0
  3  4  1  0
  4  5  1  0
  5  6  1  0
  5  7  1  0
  7  8  2  0
  8  9  1  0
  8  3  1  0
  1 10  1  0
  1 11  1  0
  1 12  1  0
  2 13  1  0
  2 14  1  0
  3 15  1  0
  5 16  1  0
  6 17  1  0
  6 18  1  0
  6 19  1  0
  7 20  1  0
  9 21  1  0
  9 22  1  0
  9 23  1  0
M  END
