
     RDKit          3D

 23 24  0  0  0  0  0  0  0  0999 V2000
    2.4390   -0.4935   -0.2899 C   0  0  0  0  0  0  0  0  0  0  0  0
    0.9752   -0.7492   -0.4404 C   0  0  0  0  0  0  0  0  0  0  0  0
    0.0999    0.2641    0.2389 C   0  0  0  0  0  0  0  0  0  0  0  0
   -1.3934    0.1178    0.1625 C   0  0  0  0  0  0  0  0  0  0  0  0
   -1.8584    0.1546   -1.2786 C   0  0  0  0  0  0  0  0  0  0  0  0
   -2.4687   -1.1050   -1.0959 O   0  0  0  0  0  0  0  0  0  0  0  0
   -1.9552   -1.2480    0.1925 C   0  0  0  0  0  0  0  0  0  0  0  0
    0.5552    1.7029    0.3813 C   0  0  0  0  0  0  0  0  0  0  0  0
    0.6119    0.8258    1.5621 C   0  0  0  0  0  0  0  0  0  0  0  0
    2.9889   -0.5191   -1.2636 H   0  0  0  0  0  0  0  0  0  0  0  0
    2.8776   -1.3394    0.2953 H   0  0  0  0  0  0  0  0  0  0  0  0
    2.6952    0.4127    0.2965 H   0  0  0  0  0  0  0  0  0  0  0  0
    0.7255   -1.7661   -0.0810 H   0  0  0  0  0  0  0  0  0  0  0  0
    0.7644   -0.7000   -1.5447 H   0  0  0  0  0  0  0  0  0  0  0  0
   -1.9570    0.8402    0.7857 H   0  0  0  0  0  0  0  0  0  0  0  0
   -1.0445    0.1435   -2.0341 H   0  0  0  0  0  0  0  0  0  0  0  0
   -2.6611    0.8970   -1.4875 H   0  0  0  0  0  0  0  0  0  0  0  0
   -2.8078   -1.3433    0.9204 H   0  0  0  0  0  0  0  0  0  0  0  0
   -1.2920   -2.1034    0.2433 H   0  0  0  0  0  0  0  0  0  0  0  0
   -0.2028    2.5139    0.3588 H   0  0  0  0  0  0  0  0  0  0  0  0
    1.5103    2.0208   -0.0557 H   0  0  0  0  0  0  0  0  0  0  0  0
   -0.1579    1.0451    2.3605 H   0  0  0  0  0  0  0  0  0  0  0  0
    1.5557    0.4287    1.9813 H   0  0  0  0  0  0  0  0  0  0  0  0
  1  2  1  0
  2  3  1  0
  3  4  1  0
  4  5  1  0
  5  6  1  0
  6  7  1  0
  3  8  1  0
  8  9  1  0
  9  3  1  0
  7  4  1  0
  1 10  1  0
  1 11  1  0
  1 12  1  0
  2 13  1  0
  2 14  1  0
  4 15  1  0
  5 16  1  0
  5 17  1  0
  7 18  1  0
  7 19  1  0
  8 20  1  0
  8 21  1  0
  9 22  1  0
  9 23  1  0
M  END
