
     RDKit          3D

 21 21  0  0  0  0  0  0  0  0999 V2000
    2.4811   -0.5335    0.8477 C   0  0  0  0  0  0  0  0  0  0  0  0
    1.4690    0.4877    0.4712 C   0  0  0  0  0  0  0  0  0  0  0  0
    0.4328   -0.0572   -0.5213 C   0  0  0  0  0  0  0  0  0  0  0  0
   -0.2833   -1.1999    0.0706 C   0  0  0  0  0  0  0  0  0  0  0  0
   -1.7492   -1.0460    0.1669 C   0  0  0  0  0  0  0  0  0  0  0  0
   -2.4202    0.0574   -0.0392 C   0  0  0  0  0  0  0  0  0  0  0  0
   -1.7735    1.3488   -0.4107 C   0  0  0  0  0  0  0  0  0  0  0  0
   -0.4107    1.0960   -0.8924 C   0  0  0  0  0  0  0  0  0  0  0  0
    0.0824    1.9066   -1.6724 O   0  0  0  0  0  0  0  0  0  0  0  0
    3.4190   -0.3823    0.2383 H   0  0  0  0  0  0  0  0  0  0  0  0
    2.8126   -0.3001    1.9021 H   0  0  0  0  0  0  0  0  0  0  0  0
    2.1467   -1.5762    0.7857 H   0  0  0  0  0  0  0  0  0  0  0  0
    1.9538    1.3440   -0.0359 H   0  0  0  0  0  0  0  0  0  0  0  0
    0.8878    0.8384    1.3424 H   0  0  0  0  0  0  0  0  0  0  0  0
    0.9585   -0.3921   -1.4602 H   0  0  0  0  0  0  0  0  0  0  0  0
    0.1022   -1.4239    1.0903 H   0  0  0  0  0  0  0  0  0  0  0  0
   -0.1025   -2.1432   -0.5162 H   0  0  0  0  0  0  0  0  0  0  0  0
   -2.3203   -1.9392    0.4352 H   0  0  0  0  0  0  0  0  0  0  0  0
   -3.5194    0.0839    0.0546 H   0  0  0  0  0  0  0  0  0  0  0  0
   -2.3472    1.8374   -1.2383 H   0  0  0  0  0  0  0  0  0  0  0  0
   -1.8196    1.9935    0.4863 H   0  0  0  0  0  0  0  0  0  0  0  0
  1  2  1  0
  2  3  1  0
  3  4  1  0
  4  5  1  0
  5  6  2  0
  6  7  1  0
  7  8  1  0
  8  9  2  0
  8  3  1  0
  1 10  1  0
  1 11  1  0
  1 12  1  0
  2 13  1  0
  2 14  1  0
  3 15  1  0
  4 16  1  0
  4 17  1  0
  5 18  1  0
  6 19  1  0
  7 20  1  0
  7 21  1  0
M  END
