
     RDKit          2D

 20 21  0  0  0  0  0  0  0  0999 V2000
    3.1820    2.1213    0.0000 C   0  0  0  0  0  0  0  0  0  0  0  0
    2.1213    1.0607    0.0000 C   0  0  0  0  0  0  0  0  0  0  0  0
    1.0607    0.0000    0.0000 C   0  0  0  0  0  0  0  0  0  0  0  0
   -0.0000   -1.0607    0.0000 C   0  0  0  0  0  0  0  0  0  0  0  0
   -1.0607    0.0000    0.0000 C   0  0  0  0  0  0  0  0  0  0  0  0
    0.0000    1.0607    0.0000 C   0  0  0  0  0  0  0  0  0  0  0  0
   -0.3607    0.0000    0.0000 C   0  0  0  0  0  0  0  0  0  0  0  0
   -2.1213   -1.0607    0.0000 O   0  0  0  0  0  0  0  0  0  0  0  0
    4.2426    3.1820    0.0000 H   0  0  0  0  0  0  0  0  0  0  0  0
    4.2426    1.0607    0.0000 H   0  0  0  0  0  0  0  0  0  0  0  0
    2.1213    3.1820    0.0000 H   0  0  0  0  0  0  0  0  0  0  0  0
    1.0607    2.1213    0.0000 H   0  0  0  0  0  0  0  0  0  0  0  0
    3.1820    0.0000    0.0000 H   0  0  0  0  0  0  0  0  0  0  0  0
    2.1213   -1.0607    0.0000 H   0  0  0  0  0  0  0  0  0  0  0  0
   -0.0000   -2.5607    0.0000 H   0  0  0  0  0  0  0  0  0  0  0  0
   -1.4712   -0.6833    0.0000 H   0  0  0  0  0  0  0  0  0  0  0  0
   -1.9841    1.1820    0.0000 H   0  0  0  0  0  0  0  0  0  0  0  0
    0.0000    2.5607    0.0000 H   0  0  0  0  0  0  0  0  0  0  0  0
   -2.2427    0.9235    0.0000 H   0  0  0  0  0  0  0  0  0  0  0  0
   -3.5702   -0.6724    0.0000 H   0  0  0  0  0  0  0  0  0  0  0  0
  1  2  1  0
  2  3  1  0
  3  4  1  0
  4  5  1  0
  5  6  1  0
  6  7  1  0
  7  8  1  0
  6  3  1  0
  7  4  1  0
  1  9  1  0
  1 10  1  0
  1 11  1  0
  2 12  1  0
  2 13  1  0
  3 14  1  0
  4 15  1  0
  5 16  1  0
  5 17  1  0
  6 18  1  0
  7 19  1  0
  8 20  1  0
M  END
