
     RDKit          3D

 18 19  0  0  0  0  0  0  0  0999 V2000
    2.2669   -0.1113    0.3872 C   0  0  0  0  0  0  0  0  0  0  0  0
    1.1296    0.2012   -0.5599 C   0  0  0  0  0  0  0  0  0  0  0  0
   -0.1565   -0.4277   -0.1223 C   0  0  0  0  0  0  0  0  0  0  0  0
   -0.7158   -0.0344    1.2533 C   0  0  0  0  0  0  0  0  0  0  0  0
   -1.4111    0.3333    0.0119 C   0  0  0  0  0  0  0  0  0  0  0  0
   -1.5265    1.6490   -0.4113 O   0  0  0  0  0  0  0  0  0  0  0  0
   -1.9772   -0.7774   -0.8153 C   0  0  0  0  0  0  0  0  0  0  0  0
   -0.7424   -1.4479   -0.8180 O   0  0  0  0  0  0  0  0  0  0  0  0
    2.1220   -1.0539    0.9291 H   0  0  0  0  0  0  0  0  0  0  0  0
    2.3286    0.6949    1.1438 H   0  0  0  0  0  0  0  0  0  0  0  0
    3.2072   -0.1878   -0.1898 H   0  0  0  0  0  0  0  0  0  0  0  0
    1.0711    1.2957   -0.7011 H   0  0  0  0  0  0  0  0  0  0  0  0
    1.4006   -0.2483   -1.5378 H   0  0  0  0  0  0  0  0  0  0  0  0
   -0.1102    0.6676    1.8266 H   0  0  0  0  0  0  0  0  0  0  0  0
   -1.0554   -0.9254    1.8237 H   0  0  0  0  0  0  0  0  0  0  0  0
   -0.7660    2.2174   -0.0871 H   0  0  0  0  0  0  0  0  0  0  0  0
   -2.2790   -0.5212   -1.8513 H   0  0  0  0  0  0  0  0  0  0  0  0
   -2.7860   -1.3240   -0.2817 H   0  0  0  0  0  0  0  0  0  0  0  0
  1  2  1  0
  2  3  1  0
  3  4  1  0
  4  5  1  0
  5  6  1  0
  5  7  1  0
  7  8  1  0
  5  3  1  0
  8  3  1  0
  1  9  1  0
  1 10  1  0
  1 11  1  0
  2 12  1  0
  2 13  1  0
  4 14  1  0
  4 15  1  0
  6 16  1  0
  7 17  1  0
  7 18  1  0
M  END
