
     RDKit          3D

 23 24  0  0  0  0  0  0  0  0999 V2000
    3.0140   -0.1264    0.2254 C   0  0  0  0  0  0  0  0  0  0  0  0
    1.7720   -0.8213   -0.2561 C   0  0  0  0  0  0  0  0  0  0  0  0
    0.5535   -0.3987    0.5913 C   0  0  0  0  0  0  0  0  0  0  0  0
   -0.7625   -0.8972    0.3655 C   0  0  0  0  0  0  0  0  0  0  0  0
   -2.0886   -0.1946    0.3029 C   0  0  0  0  0  0  0  0  0  0  0  0
   -3.1546   -1.0225    0.0085 O   0  0  0  0  0  0  0  0  0  0  0  0
   -1.4334    0.3723   -0.9765 C   0  0  0  0  0  0  0  0  0  0  0  0
   -0.2976    0.5732   -0.0053 C   0  0  0  0  0  0  0  0  0  0  0  0
   -0.6822    1.6659    1.0035 C   0  0  0  0  0  0  0  0  0  0  0  0
    3.0645   -0.2191    1.3162 H   0  0  0  0  0  0  0  0  0  0  0  0
    3.8854   -0.6783   -0.2075 H   0  0  0  0  0  0  0  0  0  0  0  0
    2.9876    0.9241   -0.1044 H   0  0  0  0  0  0  0  0  0  0  0  0
    1.5704   -0.6276   -1.3405 H   0  0  0  0  0  0  0  0  0  0  0  0
    1.8288   -1.9241   -0.1497 H   0  0  0  0  0  0  0  0  0  0  0  0
    0.8773   -0.3845    1.6772 H   0  0  0  0  0  0  0  0  0  0  0  0
   -0.7621   -1.6093   -0.5265 H   0  0  0  0  0  0  0  0  0  0  0  0
   -2.3536    0.5187    1.0614 H   0  0  0  0  0  0  0  0  0  0  0  0
   -2.8928   -1.9608    0.2263 H   0  0  0  0  0  0  0  0  0  0  0  0
   -1.8633    1.3116   -1.3166 H   0  0  0  0  0  0  0  0  0  0  0  0
   -1.2676   -0.4269   -1.6989 H   0  0  0  0  0  0  0  0  0  0  0  0
   -0.7451    1.2800    2.0332 H   0  0  0  0  0  0  0  0  0  0  0  0
   -1.4872    2.3149    0.6766 H   0  0  0  0  0  0  0  0  0  0  0  0
    0.2370    2.3307    1.0208 H   0  0  0  0  0  0  0  0  0  0  0  0
  1  2  1  0
  2  3  1  0
  3  4  1  0
  4  5  1  0
  5  6  1  0
  5  7  1  0
  7  8  1  0
  8  9  1  0
  8  3  1  0
  8  4  1  0
  1 10  1  0
  1 11  1  0
  1 12  1  0
  2 13  1  0
  2 14  1  0
  3 15  1  0
  4 16  1  0
  5 17  1  0
  6 18  1  0
  7 19  1  0
  7 20  1  0
  9 21  1  0
  9 22  1  0
  9 23  1  0
M  END
