
     RDKit          3D

 21 22  0  0  0  0  0  0  0  0999 V2000
    2.5696    0.0584   -0.5277 C   0  0  0  0  0  0  0  0  0  0  0  0
    1.5090   -0.8163    0.1059 C   0  0  0  0  0  0  0  0  0  0  0  0
    0.4427    0.0831    0.6849 C   0  0  0  0  0  0  0  0  0  0  0  0
   -0.1912    0.9500   -0.4304 C   0  0  0  0  0  0  0  0  0  0  0  0
   -1.3619    0.0855   -0.7441 C   0  0  0  0  0  0  0  0  0  0  0  0
   -2.7054    0.0527   -0.3503 C   0  0  0  0  0  0  0  0  0  0  0  0
   -1.8559    0.0616    0.7628 C   0  0  0  0  0  0  0  0  0  0  0  0
   -0.7171   -0.7111    1.2093 C   0  0  0  0  0  0  0  0  0  0  0  0
   -0.7055   -1.7374    1.8446 O   0  0  0  0  0  0  0  0  0  0  0  0
    3.5690   -0.4532   -0.4244 H   0  0  0  0  0  0  0  0  0  0  0  0
    2.5913    1.0622   -0.0117 H   0  0  0  0  0  0  0  0  0  0  0  0
    2.3521    0.2676   -1.5843 H   0  0  0  0  0  0  0  0  0  0  0  0
    1.1105   -1.5092   -0.6459 H   0  0  0  0  0  0  0  0  0  0  0  0
    1.9900   -1.3242    0.9625 H   0  0  0  0  0  0  0  0  0  0  0  0
    0.8472    0.7526    1.4401 H   0  0  0  0  0  0  0  0  0  0  0  0
   -0.4893    1.9314   -0.0360 H   0  0  0  0  0  0  0  0  0  0  0  0
    0.4747    1.0207   -1.2994 H   0  0  0  0  0  0  0  0  0  0  0  0
   -0.9497   -0.9018   -1.1284 H   0  0  0  0  0  0  0  0  0  0  0  0
   -3.3545    0.9380   -0.5864 H   0  0  0  0  0  0  0  0  0  0  0  0
   -3.3205   -0.8764   -0.5374 H   0  0  0  0  0  0  0  0  0  0  0  0
   -1.8049    1.0658    1.2963 H   0  0  0  0  0  0  0  0  0  0  0  0
  1  2  1  0
  2  3  1  0
  3  4  1  0
  4  5  1  0
  5  6  1  0
  6  7  1  0
  7  8  1  0
  8  9  2  0
  8  3  1  0
  7  5  1  0
  1 10  1  0
  1 11  1  0
  1 12  1  0
  2 13  1  0
  2 14  1  0
  3 15  1  0
  4 16  1  0
  4 17  1  0
  5 18  1  0
  6 19  1  0
  6 20  1  0
  7 21  1  0
M  END
