
     RDKit          3D

 23 23  0  0  0  0  0  0  0  0999 V2000
    2.3767   -1.1033    0.1244 C   0  0  0  0  0  0  0  0  0  0  0  0
    0.9419   -0.9928   -0.3495 C   0  0  0  0  0  0  0  0  0  0  0  0
    0.2289   -0.0989    0.6391 C   0  0  0  0  0  0  0  0  0  0  0  0
    0.9198    1.2169    0.6243 C   0  0  0  0  0  0  0  0  0  0  0  0
    0.1720    2.1864    0.1793 C   0  0  0  0  0  0  0  0  0  0  0  0
   -1.1596    1.6653   -0.1802 C   0  0  0  0  0  0  0  0  0  0  0  0
   -1.1596    0.2434    0.2604 C   0  0  0  0  0  0  0  0  0  0  0  0
   -1.7667   -0.6200   -0.7974 C   0  0  0  0  0  0  0  0  0  0  0  0
   -1.8144   -1.9668   -0.4011 O   0  0  0  0  0  0  0  0  0  0  0  0
    2.7474   -2.1358   -0.0402 H   0  0  0  0  0  0  0  0  0  0  0  0
    3.0327   -0.3517   -0.3764 H   0  0  0  0  0  0  0  0  0  0  0  0
    2.4257   -0.9217    1.2372 H   0  0  0  0  0  0  0  0  0  0  0  0
    0.9902   -0.5230   -1.3711 H   0  0  0  0  0  0  0  0  0  0  0  0
    0.5223   -2.0119   -0.3807 H   0  0  0  0  0  0  0  0  0  0  0  0
    0.3193   -0.5772    1.6294 H   0  0  0  0  0  0  0  0  0  0  0  0
    1.9672    1.3356    0.9631 H   0  0  0  0  0  0  0  0  0  0  0  0
    0.4581    3.2328    0.0765 H   0  0  0  0  0  0  0  0  0  0  0  0
   -1.9122    2.2486    0.3855 H   0  0  0  0  0  0  0  0  0  0  0  0
   -1.3724    1.8024   -1.2571 H   0  0  0  0  0  0  0  0  0  0  0  0
   -1.8028    0.1370    1.1764 H   0  0  0  0  0  0  0  0  0  0  0  0
   -2.8266   -0.3077   -0.9181 H   0  0  0  0  0  0  0  0  0  0  0  0
   -1.2947   -0.4971   -1.7904 H   0  0  0  0  0  0  0  0  0  0  0  0
   -1.9934   -1.9605    0.5667 H   0  0  0  0  0  0  0  0  0  0  0  0
  1  2  1  0
  2  3  1  0
  3  4  1  0
  4  5  2  0
  5  6  1  0
  6  7  1  0
  7  8  1  0
  8  9  1  0
  7  3  1  0
  1 10  1  0
  1 11  1  0
  1 12  1  0
  2 13  1  0
  2 14  1  0
  3 15  1  0
  4 16  1  0
  5 17  1  0
  6 18  1  0
  6 19  1  0
  7 20  1  0
  8 21  1  0
  8 22  1  0
  9 23  1  0
M  END
