
     RDKit          3D

 21 22  0  0  0  0  0  0  0  0999 V2000
    2.4402   -0.1529   -0.3642 C   0  0  0  0  0  0  0  0  0  0  0  0
    1.2030   -0.9249   -0.1204 C   0  0  0  0  0  0  0  0  0  0  0  0
   -0.0214   -0.1469    0.1311 C   0  0  0  0  0  0  0  0  0  0  0  0
   -1.2738   -0.9504    0.3778 C   0  0  0  0  0  0  0  0  0  0  0  0
   -1.8351   -0.5637    1.6049 O   0  0  0  0  0  0  0  0  0  0  0  0
   -1.8824   -0.2046   -0.8098 C   0  0  0  0  0  0  0  0  0  0  0  0
   -0.6892    0.6953   -0.8706 C   0  0  0  0  0  0  0  0  0  0  0  0
   -0.0967    1.2853    0.3702 C   0  0  0  0  0  0  0  0  0  0  0  0
   -1.0630    1.7501    1.2831 O   0  0  0  0  0  0  0  0  0  0  0  0
    3.1491   -0.3014    0.4920 H   0  0  0  0  0  0  0  0  0  0  0  0
    2.3115    0.9173   -0.5621 H   0  0  0  0  0  0  0  0  0  0  0  0
    3.0043   -0.5589   -1.2550 H   0  0  0  0  0  0  0  0  0  0  0  0
    1.3500   -1.6360    0.7445 H   0  0  0  0  0  0  0  0  0  0  0  0
    1.0198   -1.6084   -0.9962 H   0  0  0  0  0  0  0  0  0  0  0  0
   -1.1836   -2.0355    0.2462 H   0  0  0  0  0  0  0  0  0  0  0  0
   -1.1294   -0.5814    2.2927 H   0  0  0  0  0  0  0  0  0  0  0  0
   -1.8916   -0.8911   -1.7019 H   0  0  0  0  0  0  0  0  0  0  0  0
   -2.8373    0.2400   -0.5390 H   0  0  0  0  0  0  0  0  0  0  0  0
   -0.2619    0.9550   -1.8416 H   0  0  0  0  0  0  0  0  0  0  0  0
    0.7407    1.9770    0.1932 H   0  0  0  0  0  0  0  0  0  0  0  0
   -1.0533    2.7360    1.3249 H   0  0  0  0  0  0  0  0  0  0  0  0
  1  2  1  0
  2  3  1  0
  3  4  1  0
  4  5  1  0
  4  6  1  0
  6  7  1  0
  7  8  1  0
  8  9  1  0
  7  3  1  0
  8  3  1  0
  1 10  1  0
  1 11  1  0
  1 12  1  0
  2 13  1  0
  2 14  1  0
  4 15  1  0
  5 16  1  0
  6 17  1  0
  6 18  1  0
  7 19  1  0
  8 20  1  0
  9 21  1  0
M  END
