
     RDKit          3D

 21 22  0  0  0  0  0  0  0  0999 V2000
    2.7486    0.3924   -0.3866 C   0  0  0  0  0  0  0  0  0  0  0  0
    1.6321   -0.1510    0.4928 C   0  0  0  0  0  0  0  0  0  0  0  0
    0.3967   -0.4575   -0.3265 C   0  0  0  0  0  0  0  0  0  0  0  0
   -0.7510   -0.9922    0.4326 C   0  0  0  0  0  0  0  0  0  0  0  0
   -2.0105   -1.3270   -0.3327 C   0  0  0  0  0  0  0  0  0  0  0  0
   -2.1145    0.1558   -0.6749 C   0  0  0  0  0  0  0  0  0  0  0  0
   -0.7653    0.3881   -0.1084 C   0  0  0  0  0  0  0  0  0  0  0  0
   -0.6285    1.5699    0.7662 C   0  0  0  0  0  0  0  0  0  0  0  0
   -0.3726    2.6444    0.2481 O   0  0  0  0  0  0  0  0  0  0  0  0
    3.3261    1.1056    0.2301 H   0  0  0  0  0  0  0  0  0  0  0  0
    2.3468    0.9014   -1.2735 H   0  0  0  0  0  0  0  0  0  0  0  0
    3.4289   -0.4579   -0.6457 H   0  0  0  0  0  0  0  0  0  0  0  0
    2.0152   -1.0800    0.9988 H   0  0  0  0  0  0  0  0  0  0  0  0
    1.3939    0.5744    1.2635 H   0  0  0  0  0  0  0  0  0  0  0  0
    0.6086   -0.8764   -1.3404 H   0  0  0  0  0  0  0  0  0  0  0  0
   -0.6568   -1.2197    1.4917 H   0  0  0  0  0  0  0  0  0  0  0  0
   -2.8034   -1.7077    0.3263 H   0  0  0  0  0  0  0  0  0  0  0  0
   -1.8540   -1.9317   -1.2396 H   0  0  0  0  0  0  0  0  0  0  0  0
   -2.2752    0.3777   -1.7362 H   0  0  0  0  0  0  0  0  0  0  0  0
   -2.9127    0.6087   -0.0237 H   0  0  0  0  0  0  0  0  0  0  0  0
   -0.7525    1.4827    1.8379 H   0  0  0  0  0  0  0  0  0  0  0  0
  1  2  1  0
  2  3  1  0
  3  4  1  0
  4  5  1  0
  5  6  1  0
  6  7  1  0
  7  8  1  0
  8  9  2  0
  7  3  1  0
  7  4  1  0
  1 10  1  0
  1 11  1  0
  1 12  1  0
  2 13  1  0
  2 14  1  0
  3 15  1  0
  4 16  1  0
  5 17  1  0
  5 18  1  0
  6 19  1  0
  6 20  1  0
  8 21  1  0
M  END
