
     RDKit          3D

 25 26  0  0  0  0  0  0  0  0999 V2000
    3.1374   -0.2613    0.6438 C   0  0  0  0  0  0  0  0  0  0  0  0
    2.1282    0.6815    0.0031 C   0  0  0  0  0  0  0  0  0  0  0  0
    0.9999   -0.1140   -0.5860 C   0  0  0  0  0  0  0  0  0  0  0  0
   -0.0826    0.6273   -1.2546 C   0  0  0  0  0  0  0  0  0  0  0  0
   -1.3690    0.0140   -1.6722 C   0  0  0  0  0  0  0  0  0  0  0  0
   -1.3759   -0.9675   -0.5352 C   0  0  0  0  0  0  0  0  0  0  0  0
   -2.5999   -0.9968    0.3197 C   0  0  0  0  0  0  0  0  0  0  0  0
   -0.2809   -0.1002    0.1018 C   0  0  0  0  0  0  0  0  0  0  0  0
   -0.6472    0.8147    1.2099 C   0  0  0  0  0  0  0  0  0  0  0  0
    3.4764    0.2219    1.5789 H   0  0  0  0  0  0  0  0  0  0  0  0
    3.9972   -0.3159   -0.0392 H   0  0  0  0  0  0  0  0  0  0  0  0
    2.6829   -1.2530    0.8456 H   0  0  0  0  0  0  0  0  0  0  0  0
    2.6037    1.2908   -0.8007 H   0  0  0  0  0  0  0  0  0  0  0  0
    1.7342    1.3861    0.7445 H   0  0  0  0  0  0  0  0  0  0  0  0
    1.3353   -1.1105   -0.9900 H   0  0  0  0  0  0  0  0  0  0  0  0
   -0.0215    1.7138   -1.2464 H   0  0  0  0  0  0  0  0  0  0  0  0
   -2.2163    0.7417   -1.5251 H   0  0  0  0  0  0  0  0  0  0  0  0
   -1.4377   -0.3969   -2.6853 H   0  0  0  0  0  0  0  0  0  0  0  0
   -0.9907   -1.9789   -0.8270 H   0  0  0  0  0  0  0  0  0  0  0  0
   -2.2988   -0.9964    1.4075 H   0  0  0  0  0  0  0  0  0  0  0  0
   -3.2548   -0.1442    0.0703 H   0  0  0  0  0  0  0  0  0  0  0  0
   -3.1375   -1.9795    0.1945 H   0  0  0  0  0  0  0  0  0  0  0  0
   -0.2210    1.8296    1.1218 H   0  0  0  0  0  0  0  0  0  0  0  0
   -0.3975    0.3281    2.1846 H   0  0  0  0  0  0  0  0  0  0  0  0
   -1.7638    0.9659    1.2435 H   0  0  0  0  0  0  0  0  0  0  0  0
  1  2  1  0
  2  3  1  0
  3  4  1  0
  4  5  1  0
  5  6  1  0
  6  7  1  0
  6  8  1  0
  8  9  1  0
  8  3  1  0
  8  4  1  0
  1 10  1  0
  1 11  1  0
  1 12  1  0
  2 13  1  0
  2 14  1  0
  3 15  1  0
  4 16  1  0
  5 17  1  0
  5 18  1  0
  6 19  1  0
  7 20  1  0
  7 21  1  0
  7 22  1  0
  9 23  1  0
  9 24  1  0
  9 25  1  0
M  END
