
     RDKit          3D

 23 24  0  0  0  0  0  0  0  0999 V2000
    2.9938   -0.4263    0.0725 C   0  0  0  0  0  0  0  0  0  0  0  0
    1.8120   -0.0477   -0.7974 C   0  0  0  0  0  0  0  0  0  0  0  0
    0.5746   -0.1661    0.0396 C   0  0  0  0  0  0  0  0  0  0  0  0
    0.5997    0.7561    1.2705 C   0  0  0  0  0  0  0  0  0  0  0  0
   -0.4137    0.8915    0.1834 C   0  0  0  0  0  0  0  0  0  0  0  0
   -1.7125    0.1666    0.4435 C   0  0  0  0  0  0  0  0  0  0  0  0
   -2.7884    0.5011   -0.5383 C   0  0  0  0  0  0  0  0  0  0  0  0
   -1.3224   -1.2634    0.4860 C   0  0  0  0  0  0  0  0  0  0  0  0
   -0.0074   -1.3996    0.1603 O   0  0  0  0  0  0  0  0  0  0  0  0
    2.6638   -0.8794    1.0468 H   0  0  0  0  0  0  0  0  0  0  0  0
    3.6371    0.4221    0.3272 H   0  0  0  0  0  0  0  0  0  0  0  0
    3.6292   -1.2131   -0.4018 H   0  0  0  0  0  0  0  0  0  0  0  0
    1.9385    1.0068   -1.1336 H   0  0  0  0  0  0  0  0  0  0  0  0
    1.7399   -0.6778   -1.7114 H   0  0  0  0  0  0  0  0  0  0  0  0
    0.3938    0.2059    2.1965 H   0  0  0  0  0  0  0  0  0  0  0  0
    1.3483    1.5523    1.3135 H   0  0  0  0  0  0  0  0  0  0  0  0
   -0.4451    1.8132   -0.4135 H   0  0  0  0  0  0  0  0  0  0  0  0
   -2.0531    0.4886    1.4586 H   0  0  0  0  0  0  0  0  0  0  0  0
   -3.7615    0.1626   -0.1107 H   0  0  0  0  0  0  0  0  0  0  0  0
   -2.7941    1.6078   -0.7031 H   0  0  0  0  0  0  0  0  0  0  0  0
   -2.6487    0.0287   -1.5218 H   0  0  0  0  0  0  0  0  0  0  0  0
   -1.9211   -1.8433   -0.2691 H   0  0  0  0  0  0  0  0  0  0  0  0
   -1.4626   -1.6866    1.5182 H   0  0  0  0  0  0  0  0  0  0  0  0
  1  2  1  0
  2  3  1  0
  3  4  1  0
  4  5  1  0
  5  6  1  0
  6  7  1  0
  6  8  1  0
  8  9  1  0
  5  3  1  0
  9  3  1  0
  1 10  1  0
  1 11  1  0
  1 12  1  0
  2 13  1  0
  2 14  1  0
  4 15  1  0
  4 16  1  0
  5 17  1  0
  6 18  1  0
  7 19  1  0
  7 20  1  0
  7 21  1  0
  8 22  1  0
  8 23  1  0
M  END
