
     RDKit          3D

 23 23  0  0  0  0  0  0  0  0999 V2000
   -2.8112    0.5182   -0.4105 C   0  0  0  0  0  0  0  0  0  0  0  0
   -1.9737   -0.4980    0.3691 C   0  0  0  0  0  0  0  0  0  0  0  0
   -0.5585   -0.1007    0.2592 C   0  0  0  0  0  0  0  0  0  0  0  0
    0.0494    0.1601    1.4102 C   0  0  0  0  0  0  0  0  0  0  0  0
    1.4894    0.5853    1.5775 C   0  0  0  0  0  0  0  0  0  0  0  0
    1.9999    1.0454    0.3655 O   0  0  0  0  0  0  0  0  0  0  0  0
    2.4103    0.0420   -0.4695 C   0  0  0  0  0  0  0  0  0  0  0  0
    1.3264   -0.7756   -1.0821 C   0  0  0  0  0  0  0  0  0  0  0  0
    0.0125   -0.0404   -1.1133 C   0  0  0  0  0  0  0  0  0  0  0  0
   -3.5395   -0.0452   -1.0310 H   0  0  0  0  0  0  0  0  0  0  0  0
   -3.3456    1.1687    0.3289 H   0  0  0  0  0  0  0  0  0  0  0  0
   -2.1665    1.1056   -1.0680 H   0  0  0  0  0  0  0  0  0  0  0  0
   -2.3250   -0.5327    1.4014 H   0  0  0  0  0  0  0  0  0  0  0  0
   -2.1524   -1.5297   -0.0536 H   0  0  0  0  0  0  0  0  0  0  0  0
   -0.5181    0.0649    2.3074 H   0  0  0  0  0  0  0  0  0  0  0  0
    2.0905   -0.2136    2.0226 H   0  0  0  0  0  0  0  0  0  0  0  0
    1.4512    1.4461    2.2793 H   0  0  0  0  0  0  0  0  0  0  0  0
    3.1494   -0.6515   -0.0049 H   0  0  0  0  0  0  0  0  0  0  0  0
    2.9837    0.5359   -1.3083 H   0  0  0  0  0  0  0  0  0  0  0  0
    1.6525   -1.1085   -2.0856 H   0  0  0  0  0  0  0  0  0  0  0  0
    1.2197   -1.7199   -0.4699 H   0  0  0  0  0  0  0  0  0  0  0  0
   -0.6941   -0.4769   -1.8444 H   0  0  0  0  0  0  0  0  0  0  0  0
    0.2496    1.0205   -1.3797 H   0  0  0  0  0  0  0  0  0  0  0  0
  1  2  1  0
  2  3  1  0
  3  4  2  0
  4  5  1  0
  5  6  1  0
  6  7  1  0
  7  8  1  0
  8  9  1  0
  9  3  1  0
  1 10  1  0
  1 11  1  0
  1 12  1  0
  2 13  1  0
  2 14  1  0
  4 15  1  0
  5 16  1  0
  5 17  1  0
  7 18  1  0
  7 19  1  0
  8 20  1  0
  8 21  1  0
  9 22  1  0
  9 23  1  0
M  END
