
     RDKit          3D

 21 21  0  0  0  0  0  0  0  0999 V2000
    1.7748    1.1823    0.1076 C   0  0  0  0  0  0  0  0  0  0  0  0
    1.4156   -0.2694   -0.0450 C   0  0  0  0  0  0  0  0  0  0  0  0
   -0.0674   -0.5174    0.0479 C   0  0  0  0  0  0  0  0  0  0  0  0
   -0.2831   -2.0090   -0.1218 C   0  0  0  0  0  0  0  0  0  0  0  0
   -0.7613    0.2001   -1.0859 C   0  0  0  0  0  0  0  0  0  0  0  0
   -1.7373    1.0946   -0.4206 C   0  0  0  0  0  0  0  0  0  0  0  0
   -1.6879    0.9760    0.8998 C   0  0  0  0  0  0  0  0  0  0  0  0
   -0.6792   -0.0055    1.2662 C   0  0  0  0  0  0  0  0  0  0  0  0
   -0.4173   -0.3230    2.4434 O   0  0  0  0  0  0  0  0  0  0  0  0
    1.4369    1.8133   -0.7380 H   0  0  0  0  0  0  0  0  0  0  0  0
    2.8910    1.2322    0.1596 H   0  0  0  0  0  0  0  0  0  0  0  0
    1.3799    1.6392    1.0265 H   0  0  0  0  0  0  0  0  0  0  0  0
    1.7472   -0.5901   -1.0583 H   0  0  0  0  0  0  0  0  0  0  0  0
    1.9841   -0.8531    0.6833 H   0  0  0  0  0  0  0  0  0  0  0  0
    0.3990   -2.4985    0.6280 H   0  0  0  0  0  0  0  0  0  0  0  0
   -0.0394   -2.3447   -1.1246 H   0  0  0  0  0  0  0  0  0  0  0  0
   -1.3080   -2.2966    0.1795 H   0  0  0  0  0  0  0  0  0  0  0  0
   -0.0415    0.7917   -1.7046 H   0  0  0  0  0  0  0  0  0  0  0  0
   -1.2796   -0.5223   -1.7503 H   0  0  0  0  0  0  0  0  0  0  0  0
   -2.4180    1.7706   -0.9191 H   0  0  0  0  0  0  0  0  0  0  0  0
   -2.3086    1.5297    1.6025 H   0  0  0  0  0  0  0  0  0  0  0  0
  1  2  1  0
  2  3  1  0
  3  4  1  0
  3  5  1  0
  5  6  1  0
  6  7  2  0
  7  8  1  0
  8  9  2  0
  8  3  1  0
  1 10  1  0
  1 11  1  0
  1 12  1  0
  2 13  1  0
  2 14  1  0
  4 15  1  0
  4 16  1  0
  4 17  1  0
  5 18  1  0
  5 19  1  0
  6 20  1  0
  7 21  1  0
M  END
