
     RDKit          3D

 21 21  0  0  0  0  0  0  0  0999 V2000
    2.7066   -0.5887   -0.0427 C   0  0  0  0  0  0  0  0  0  0  0  0
    1.7045    0.4823    0.3019 C   0  0  0  0  0  0  0  0  0  0  0  0
    0.2960   -0.0070    0.1062 C   0  0  0  0  0  0  0  0  0  0  0  0
   -0.1168   -1.1869   -0.3045 C   0  0  0  0  0  0  0  0  0  0  0  0
   -1.6005   -1.2675   -0.3621 C   0  0  0  0  0  0  0  0  0  0  0  0
   -2.0017   -0.1079    0.5493 C   0  0  0  0  0  0  0  0  0  0  0  0
   -0.8651    0.8620    0.3758 C   0  0  0  0  0  0  0  0  0  0  0  0
   -1.1064    1.8553   -0.6722 C   0  0  0  0  0  0  0  0  0  0  0  0
   -1.9100    2.7376   -0.4980 O   0  0  0  0  0  0  0  0  0  0  0  0
    3.7018   -0.2136    0.2681 H   0  0  0  0  0  0  0  0  0  0  0  0
    2.7578   -0.8253   -1.1023 H   0  0  0  0  0  0  0  0  0  0  0  0
    2.4472   -1.4847    0.5690 H   0  0  0  0  0  0  0  0  0  0  0  0
    1.7989    0.6935    1.3873 H   0  0  0  0  0  0  0  0  0  0  0  0
    1.8581    1.4093   -0.2854 H   0  0  0  0  0  0  0  0  0  0  0  0
    0.5356   -2.0256   -0.5772 H   0  0  0  0  0  0  0  0  0  0  0  0
   -1.9971   -2.2234    0.0268 H   0  0  0  0  0  0  0  0  0  0  0  0
   -2.0168   -1.1106   -1.3542 H   0  0  0  0  0  0  0  0  0  0  0  0
   -1.9407   -0.4981    1.5877 H   0  0  0  0  0  0  0  0  0  0  0  0
   -2.9836    0.3037    0.2898 H   0  0  0  0  0  0  0  0  0  0  0  0
   -0.7037    1.4038    1.3304 H   0  0  0  0  0  0  0  0  0  0  0  0
   -0.5640    1.7918   -1.5936 H   0  0  0  0  0  0  0  0  0  0  0  0
  1  2  1  0
  2  3  1  0
  3  4  2  0
  4  5  1  0
  5  6  1  0
  6  7  1  0
  7  8  1  0
  8  9  2  0
  7  3  1  0
  1 10  1  0
  1 11  1  0
  1 12  1  0
  2 13  1  0
  2 14  1  0
  4 15  1  0
  5 16  1  0
  5 17  1  0
  6 18  1  0
  6 19  1  0
  7 20  1  0
  8 21  1  0
M  END
