
     RDKit          3D

 23 25  0  0  0  0  0  0  0  0999 V2000
   -2.6099    0.0651    0.0439 C   0  0  0  0  0  0  0  0  0  0  0  0
   -1.4773   -0.8071    0.4472 C   0  0  0  0  0  0  0  0  0  0  0  0
   -0.1265   -0.2833    0.1279 C   0  0  0  0  0  0  0  0  0  0  0  0
    1.0416   -1.1929    0.5491 C   0  0  0  0  0  0  0  0  0  0  0  0
    1.9900   -1.4572   -0.5939 C   0  0  0  0  0  0  0  0  0  0  0  0
    0.8519    0.1717    1.0945 C   0  0  0  0  0  0  0  0  0  0  0  0
    1.2409    1.3087    0.1993 C   0  0  0  0  0  0  0  0  0  0  0  0
    0.2015    2.2535   -0.3140 C   0  0  0  0  0  0  0  0  0  0  0  0
    0.1220    0.8436   -0.7903 C   0  0  0  0  0  0  0  0  0  0  0  0
   -2.7387    0.9621    0.6677 H   0  0  0  0  0  0  0  0  0  0  0  0
   -2.5840    0.3445   -1.0249 H   0  0  0  0  0  0  0  0  0  0  0  0
   -3.5561   -0.5315    0.1712 H   0  0  0  0  0  0  0  0  0  0  0  0
   -1.5391   -1.0407    1.5144 H   0  0  0  0  0  0  0  0  0  0  0  0
   -1.5975   -1.7893   -0.0953 H   0  0  0  0  0  0  0  0  0  0  0  0
    0.7963   -2.0198    1.2129 H   0  0  0  0  0  0  0  0  0  0  0  0
    2.6214   -0.5908   -0.7859 H   0  0  0  0  0  0  0  0  0  0  0  0
    1.3662   -1.6316   -1.4948 H   0  0  0  0  0  0  0  0  0  0  0  0
    2.5354   -2.3957   -0.3999 H   0  0  0  0  0  0  0  0  0  0  0  0
    0.6766    0.3232    2.1620 H   0  0  0  0  0  0  0  0  0  0  0  0
    2.2719    1.3434   -0.2400 H   0  0  0  0  0  0  0  0  0  0  0  0
   -0.5440    2.5719    0.4310 H   0  0  0  0  0  0  0  0  0  0  0  0
    0.5533    2.9784   -1.0650 H   0  0  0  0  0  0  0  0  0  0  0  0
    0.5042    0.5739   -1.8172 H   0  0  0  0  0  0  0  0  0  0  0  0
  1  2  1  0
  2  3  1  0
  3  4  1  0
  4  5  1  0
  4  6  1  0
  6  7  1  0
  7  8  1  0
  8  9  1  0
  6  3  1  0
  9  7  1  0
  9  3  1  0
  1 10  1  0
  1 11  1  0
  1 12  1  0
  2 13  1  0
  2 14  1  0
  4 15  1  0
  5 16  1  0
  5 17  1  0
  5 18  1  0
  6 19  1  0
  7 20  1  0
  8 21  1  0
  8 22  1  0
  9 23  1  0
M  END
