
     RDKit          3D

 23 24  0  0  0  0  0  0  0  0999 V2000
    3.1996    0.1335   -0.9975 C   0  0  0  0  0  0  0  0  0  0  0  0
    2.2316    0.1772    0.1776 C   0  0  0  0  0  0  0  0  0  0  0  0
    0.8745    0.5224   -0.3876 C   0  0  0  0  0  0  0  0  0  0  0  0
    0.3881   -0.4197   -1.3462 O   0  0  0  0  0  0  0  0  0  0  0  0
   -0.3352   -0.1553   -0.1046 C   0  0  0  0  0  0  0  0  0  0  0  0
   -0.4878   -1.4206    0.6774 C   0  0  0  0  0  0  0  0  0  0  0  0
   -1.6476    0.5646   -0.3676 C   0  0  0  0  0  0  0  0  0  0  0  0
   -2.9279   -0.0750   -0.0983 C   0  0  0  0  0  0  0  0  0  0  0  0
   -2.3876    0.9200    0.9127 C   0  0  0  0  0  0  0  0  0  0  0  0
    4.1403   -0.3408   -0.6696 H   0  0  0  0  0  0  0  0  0  0  0  0
    2.7607   -0.4451   -1.8362 H   0  0  0  0  0  0  0  0  0  0  0  0
    3.4361    1.1530   -1.3494 H   0  0  0  0  0  0  0  0  0  0  0  0
    2.5659    1.0232    0.8133 H   0  0  0  0  0  0  0  0  0  0  0  0
    2.2630   -0.7937    0.6840 H   0  0  0  0  0  0  0  0  0  0  0  0
    0.8290    1.5629   -0.7698 H   0  0  0  0  0  0  0  0  0  0  0  0
    0.4759   -1.9808    0.7760 H   0  0  0  0  0  0  0  0  0  0  0  0
   -0.9020   -1.2887    1.6771 H   0  0  0  0  0  0  0  0  0  0  0  0
   -1.1552   -2.1086    0.0927 H   0  0  0  0  0  0  0  0  0  0  0  0
   -1.6389    1.3861   -1.1409 H   0  0  0  0  0  0  0  0  0  0  0  0
   -2.9529   -1.1468    0.1565 H   0  0  0  0  0  0  0  0  0  0  0  0
   -3.8234    0.3025   -0.6335 H   0  0  0  0  0  0  0  0  0  0  0  0
   -2.0577    0.5056    1.8674 H   0  0  0  0  0  0  0  0  0  0  0  0
   -2.8485    1.9241    0.9835 H   0  0  0  0  0  0  0  0  0  0  0  0
  1  2  1  0
  2  3  1  0
  3  4  1  0
  4  5  1  0
  5  6  1  0
  5  7  1  0
  7  8  1  0
  8  9  1  0
  5  3  1  0
  9  7  1  0
  1 10  1  0
  1 11  1  0
  1 12  1  0
  2 13  1  0
  2 14  1  0
  3 15  1  0
  6 16  1  0
  6 17  1  0
  6 18  1  0
  7 19  1  0
  8 20  1  0
  8 21  1  0
  9 22  1  0
  9 23  1  0
M  END
