
     RDKit          3D

 22 23  0  0  0  0  0  0  0  0999 V2000
    2.4683   -0.3576   -0.0425 C   0  0  0  0  0  0  0  0  0  0  0  0
    1.4542    0.4770    0.6759 C   0  0  0  0  0  0  0  0  0  0  0  0
    0.1167    0.2011    0.2151 C   0  0  0  0  0  0  0  0  0  0  0  0
   -0.4716   -1.1680    0.3284 C   0  0  0  0  0  0  0  0  0  0  0  0
   -1.8743   -0.8879   -0.2517 C   0  0  0  0  0  0  0  0  0  0  0  0
   -1.7206    0.5777   -0.5403 C   0  0  0  0  0  0  0  0  0  0  0  0
   -0.3159    0.6283   -1.1625 C   0  0  0  0  0  0  0  0  0  0  0  0
   -1.0319    1.0688    0.7215 C   0  0  0  0  0  0  0  0  0  0  0  0
    3.1815    0.2826   -0.6121 H   0  0  0  0  0  0  0  0  0  0  0  0
    2.0114   -1.0560   -0.7749 H   0  0  0  0  0  0  0  0  0  0  0  0
    3.1017   -0.9732    0.6353 H   0  0  0  0  0  0  0  0  0  0  0  0
    1.5330    0.2185    1.7630 H   0  0  0  0  0  0  0  0  0  0  0  0
    1.6789    1.5589    0.6193 H   0  0  0  0  0  0  0  0  0  0  0  0
   -0.5403   -1.4405    1.3869 H   0  0  0  0  0  0  0  0  0  0  0  0
    0.0885   -1.8692   -0.3016 H   0  0  0  0  0  0  0  0  0  0  0  0
   -1.9756   -1.4912   -1.1539 H   0  0  0  0  0  0  0  0  0  0  0  0
   -2.6395   -1.1045    0.5276 H   0  0  0  0  0  0  0  0  0  0  0  0
   -2.4879    1.1448   -0.9801 H   0  0  0  0  0  0  0  0  0  0  0  0
   -0.0222    1.6251   -1.4909 H   0  0  0  0  0  0  0  0  0  0  0  0
   -0.2516   -0.1880   -1.9080 H   0  0  0  0  0  0  0  0  0  0  0  0
   -0.8174    2.1452    0.7475 H   0  0  0  0  0  0  0  0  0  0  0  0
   -1.4854    0.6081    1.5979 H   0  0  0  0  0  0  0  0  0  0  0  0
  1  2  1  0
  2  3  1  0
  3  4  1  0
  4  5  1  0
  5  6  1  0
  6  7  1  0
  6  8  1  0
  7  3  1  0
  8  3  1  0
  1  9  1  0
  1 10  1  0
  1 11  1  0
  2 12  1  0
  2 13  1  0
  4 14  1  0
  4 15  1  0
  5 16  1  0
  5 17  1  0
  6 18  1  0
  7 19  1  0
  7 20  1  0
  8 21  1  0
  8 22  1  0
M  END
