
     RDKit          3D

 22 23  0  0  0  0  0  0  0  0999 V2000
    2.4459   -1.1897    0.3514 C   0  0  0  0  0  0  0  0  0  0  0  0
    1.7638    0.0716   -0.1659 C   0  0  0  0  0  0  0  0  0  0  0  0
    0.2743   -0.1110   -0.2525 C   0  0  0  0  0  0  0  0  0  0  0  0
   -0.5409    1.0188   -0.7447 C   0  0  0  0  0  0  0  0  0  0  0  0
   -0.3249    1.6800    0.5661 C   0  0  0  0  0  0  0  0  0  0  0  0
   -0.5439    0.2569    0.9415 C   0  0  0  0  0  0  0  0  0  0  0  0
   -1.6982    0.3495   -0.0262 C   0  0  0  0  0  0  0  0  0  0  0  0
   -2.2172   -0.9038   -0.6017 C   0  0  0  0  0  0  0  0  0  0  0  0
    3.4840   -0.8941    0.6222 H   0  0  0  0  0  0  0  0  0  0  0  0
    2.5085   -1.8867   -0.4984 H   0  0  0  0  0  0  0  0  0  0  0  0
    1.9507   -1.5970    1.2366 H   0  0  0  0  0  0  0  0  0  0  0  0
    2.1972    0.2374   -1.1880 H   0  0  0  0  0  0  0  0  0  0  0  0
    2.0106    0.8720    0.5262 H   0  0  0  0  0  0  0  0  0  0  0  0
    0.0165   -1.1206   -0.6897 H   0  0  0  0  0  0  0  0  0  0  0  0
   -0.5824    1.4282   -1.6574 H   0  0  0  0  0  0  0  0  0  0  0  0
   -1.1782    2.3711    0.7956 H   0  0  0  0  0  0  0  0  0  0  0  0
    0.5993    2.1819    0.8001 H   0  0  0  0  0  0  0  0  0  0  0  0
   -0.5479   -0.1628    1.8474 H   0  0  0  0  0  0  0  0  0  0  0  0
   -2.4117    1.1227    0.3208 H   0  0  0  0  0  0  0  0  0  0  0  0
   -1.9656   -1.0658   -1.6795 H   0  0  0  0  0  0  0  0  0  0  0  0
   -1.9008   -1.7653    0.0289 H   0  0  0  0  0  0  0  0  0  0  0  0
   -3.3392   -0.8932   -0.5328 H   0  0  0  0  0  0  0  0  0  0  0  0
  1  2  1  0
  2  3  1  0
  3  4  1  0
  4  5  1  0
  5  6  1  0
  6  7  1  0
  7  8  1  0
  6  3  1  0
  7  4  1  0
  1  9  1  0
  1 10  1  0
  1 11  1  0
  2 12  1  0
  2 13  1  0
  3 14  1  0
  4 15  1  0
  5 16  1  0
  5 17  1  0
  6 18  1  0
  7 19  1  0
  8 20  1  0
  8 21  1  0
  8 22  1  0
M  END
