
     RDKit          3D

 23 24  0  0  0  0  0  0  0  0999 V2000
    2.5259   -0.1583    0.3486 C   0  0  0  0  0  0  0  0  0  0  0  0
    1.2752   -0.9421   -0.0365 C   0  0  0  0  0  0  0  0  0  0  0  0
    0.1703   -0.1485   -0.1584 C   0  0  0  0  0  0  0  0  0  0  0  0
   -0.4707    0.7176    0.8832 C   0  0  0  0  0  0  0  0  0  0  0  0
   -1.3178    0.9413   -0.3574 C   0  0  0  0  0  0  0  0  0  0  0  0
   -1.2161   -0.5376   -0.5618 C   0  0  0  0  0  0  0  0  0  0  0  0
   -2.0293   -1.2996    0.4154 C   0  0  0  0  0  0  0  0  0  0  0  0
   -0.0047    1.0236   -1.0898 C   0  0  0  0  0  0  0  0  0  0  0  0
    0.7676    2.1274   -0.8331 O   0  0  0  0  0  0  0  0  0  0  0  0
    2.6850    0.7084   -0.3205 H   0  0  0  0  0  0  0  0  0  0  0  0
    2.4814    0.1885    1.4064 H   0  0  0  0  0  0  0  0  0  0  0  0
    3.3944   -0.8359    0.2228 H   0  0  0  0  0  0  0  0  0  0  0  0
    1.5382   -1.4839   -0.9681 H   0  0  0  0  0  0  0  0  0  0  0  0
    1.1728   -1.7284    0.7432 H   0  0  0  0  0  0  0  0  0  0  0  0
    0.1046    1.5807    1.2270 H   0  0  0  0  0  0  0  0  0  0  0  0
   -0.9768    0.2153    1.7078 H   0  0  0  0  0  0  0  0  0  0  0  0
   -2.1097    1.5395   -0.4394 H   0  0  0  0  0  0  0  0  0  0  0  0
   -1.2643   -0.8964   -1.6068 H   0  0  0  0  0  0  0  0  0  0  0  0
   -2.9173   -0.7003    0.7708 H   0  0  0  0  0  0  0  0  0  0  0  0
   -2.4969   -2.1678   -0.1327 H   0  0  0  0  0  0  0  0  0  0  0  0
   -1.4961   -1.7089    1.2714 H   0  0  0  0  0  0  0  0  0  0  0  0
   -0.1071    0.7016   -2.1284 H   0  0  0  0  0  0  0  0  0  0  0  0
    0.2914    2.8639   -0.3638 H   0  0  0  0  0  0  0  0  0  0  0  0
  1  2  1  0
  2  3  1  0
  3  4  1  0
  4  5  1  0
  5  6  1  0
  6  7  1  0
  5  8  1  0
  8  9  1  0
  6  3  1  0
  8  3  1  0
  1 10  1  0
  1 11  1  0
  1 12  1  0
  2 13  1  0
  2 14  1  0
  4 15  1  0
  4 16  1  0
  5 17  1  0
  6 18  1  0
  7 19  1  0
  7 20  1  0
  7 21  1  0
  8 22  1  0
  9 23  1  0
M  END
