
     RDKit          3D

 23 24  0  0  0  0  0  0  0  0999 V2000
    2.7421    0.1989    0.9381 C   0  0  0  0  0  0  0  0  0  0  0  0
    1.9180    0.1093   -0.3507 C   0  0  0  0  0  0  0  0  0  0  0  0
    0.6233   -0.4952   -0.1032 C   0  0  0  0  0  0  0  0  0  0  0  0
   -0.3410    0.1247    0.8523 C   0  0  0  0  0  0  0  0  0  0  0  0
   -0.6234    1.1462   -0.2005 C   0  0  0  0  0  0  0  0  0  0  0  0
   -0.5516   -0.1393   -0.9704 C   0  0  0  0  0  0  0  0  0  0  0  0
   -0.6971   -0.3291   -2.2000 O   0  0  0  0  0  0  0  0  0  0  0  0
   -1.3372   -0.7592    0.1599 C   0  0  0  0  0  0  0  0  0  0  0  0
   -2.7576   -0.4844    0.2679 C   0  0  0  0  0  0  0  0  0  0  0  0
    3.8108    0.2534    0.6407 H   0  0  0  0  0  0  0  0  0  0  0  0
    2.5046    1.1208    1.4992 H   0  0  0  0  0  0  0  0  0  0  0  0
    2.6078   -0.7273    1.5333 H   0  0  0  0  0  0  0  0  0  0  0  0
    1.9761    1.0804   -0.8251 H   0  0  0  0  0  0  0  0  0  0  0  0
    2.5153   -0.5940   -1.0054 H   0  0  0  0  0  0  0  0  0  0  0  0
    0.6767   -1.5907    0.0534 H   0  0  0  0  0  0  0  0  0  0  0  0
   -0.2349    0.2628    1.8393 H   0  0  0  0  0  0  0  0  0  0  0  0
    0.1652    1.8808   -0.3497 H   0  0  0  0  0  0  0  0  0  0  0  0
   -1.6010    1.6488   -0.1690 H   0  0  0  0  0  0  0  0  0  0  0  0
   -0.7564    0.4670   -2.7829 H   0  0  0  0  0  0  0  0  0  0  0  0
   -1.0861   -1.8248    0.3484 H   0  0  0  0  0  0  0  0  0  0  0  0
   -3.0697    0.4949    0.6532 H   0  0  0  0  0  0  0  0  0  0  0  0
   -3.2393   -1.2492    0.9152 H   0  0  0  0  0  0  0  0  0  0  0  0
   -3.2447   -0.5948   -0.7440 H   0  0  0  0  0  0  0  0  0  0  0  0
  1  2  1  0
  2  3  1  0
  3  4  1  0
  4  5  1  0
  5  6  1  0
  6  7  1  0
  6  8  1  0
  8  9  1  0
  6  3  1  0
  8  4  1  0
  1 10  1  0
  1 11  1  0
  1 12  1  0
  2 13  1  0
  2 14  1  0
  3 15  1  0
  4 16  1  0
  5 17  1  0
  5 18  1  0
  7 19  1  0
  8 20  1  0
  9 21  1  0
  9 22  1  0
  9 23  1  0
M  END
