
     RDKit          3D

 23 25  0  0  0  0  0  0  0  0999 V2000
    2.4725   -0.7185    0.0460 C   0  0  0  0  0  0  0  0  0  0  0  0
    1.6684    0.4117    0.6329 C   0  0  0  0  0  0  0  0  0  0  0  0
    0.2298    0.2894    0.3214 C   0  0  0  0  0  0  0  0  0  0  0  0
   -0.3157    0.2684   -1.0547 C   0  0  0  0  0  0  0  0  0  0  0  0
   -1.2757   -0.8960   -1.0329 C   0  0  0  0  0  0  0  0  0  0  0  0
   -1.6148   -1.1604    0.4103 C   0  0  0  0  0  0  0  0  0  0  0  0
   -0.8119   -0.1630    1.2159 C   0  0  0  0  0  0  0  0  0  0  0  0
   -0.7905    1.2477    0.7402 C   0  0  0  0  0  0  0  0  0  0  0  0
   -1.0810    1.5559   -0.7208 C   0  0  0  0  0  0  0  0  0  0  0  0
    2.5958   -1.5706    0.7332 H   0  0  0  0  0  0  0  0  0  0  0  0
    3.5041   -0.3301   -0.1842 H   0  0  0  0  0  0  0  0  0  0  0  0
    2.0731   -1.0837   -0.9116 H   0  0  0  0  0  0  0  0  0  0  0  0
    1.7952    0.3949    1.7394 H   0  0  0  0  0  0  0  0  0  0  0  0
    2.0412    1.3835    0.2231 H   0  0  0  0  0  0  0  0  0  0  0  0
    0.3623    0.3379   -1.9014 H   0  0  0  0  0  0  0  0  0  0  0  0
   -0.7724   -1.7505   -1.5136 H   0  0  0  0  0  0  0  0  0  0  0  0
   -2.2054   -0.6900   -1.6107 H   0  0  0  0  0  0  0  0  0  0  0  0
   -2.7050   -1.0648    0.5953 H   0  0  0  0  0  0  0  0  0  0  0  0
   -1.2450   -2.1693    0.6989 H   0  0  0  0  0  0  0  0  0  0  0  0
   -0.7266   -0.3067    2.2891 H   0  0  0  0  0  0  0  0  0  0  0  0
   -0.4976    2.0613    1.4017 H   0  0  0  0  0  0  0  0  0  0  0  0
   -0.5721    2.4663   -1.0947 H   0  0  0  0  0  0  0  0  0  0  0  0
   -2.1288    1.4866   -1.0232 H   0  0  0  0  0  0  0  0  0  0  0  0
  1  2  1  0
  2  3  1  0
  3  4  1  0
  4  5  1  0
  5  6  1  0
  6  7  1  0
  7  8  1  0
  8  9  1  0
  7  3  1  0
  8  3  1  0
  9  4  1  0
  1 10  1  0
  1 11  1  0
  1 12  1  0
  2 13  1  0
  2 14  1  0
  4 15  1  0
  5 16  1  0
  5 17  1  0
  6 18  1  0
  6 19  1  0
  7 20  1  0
  8 21  1  0
  9 22  1  0
  9 23  1  0
M  END
