
     RDKit          3D

 23 24  0  0  0  0  0  0  0  0999 V2000
    2.5819    0.2391   -0.5021 C   0  0  0  0  0  0  0  0  0  0  0  0
    1.2089   -0.2536   -0.8695 C   0  0  0  0  0  0  0  0  0  0  0  0
    0.2196   -0.1638    0.2426 C   0  0  0  0  0  0  0  0  0  0  0  0
    0.6015   -0.9103    1.3513 O   0  0  0  0  0  0  0  0  0  0  0  0
   -1.1620   -0.5413   -0.2571 C   0  0  0  0  0  0  0  0  0  0  0  0
   -1.6074   -1.8391    0.3280 C   0  0  0  0  0  0  0  0  0  0  0  0
   -1.6874    0.7097    0.3578 C   0  0  0  0  0  0  0  0  0  0  0  0
   -1.1763    1.9934   -0.1775 C   0  0  0  0  0  0  0  0  0  0  0  0
   -0.2533    1.1872    0.6435 C   0  0  0  0  0  0  0  0  0  0  0  0
    3.0358   -0.3813    0.2914 H   0  0  0  0  0  0  0  0  0  0  0  0
    3.2268    0.0812   -1.4086 H   0  0  0  0  0  0  0  0  0  0  0  0
    2.6167    1.3062   -0.2704 H   0  0  0  0  0  0  0  0  0  0  0  0
    0.8901    0.2539   -1.7818 H   0  0  0  0  0  0  0  0  0  0  0  0
    1.3244   -1.3471   -1.1179 H   0  0  0  0  0  0  0  0  0  0  0  0
    1.3664   -0.5621    1.8208 H   0  0  0  0  0  0  0  0  0  0  0  0
   -1.2645   -0.5041   -1.3682 H   0  0  0  0  0  0  0  0  0  0  0  0
   -0.9526   -2.6417   -0.1228 H   0  0  0  0  0  0  0  0  0  0  0  0
   -1.3869   -1.7979    1.4214 H   0  0  0  0  0  0  0  0  0  0  0  0
   -2.6439   -2.1096    0.1081 H   0  0  0  0  0  0  0  0  0  0  0  0
   -2.4133    0.7143    1.1669 H   0  0  0  0  0  0  0  0  0  0  0  0
   -1.5592    2.9170    0.2980 H   0  0  0  0  0  0  0  0  0  0  0  0
   -0.9395    2.1210   -1.2465 H   0  0  0  0  0  0  0  0  0  0  0  0
   -0.0258    1.5288    1.6781 H   0  0  0  0  0  0  0  0  0  0  0  0
  1  2  1  0
  2  3  1  0
  3  4  1  0
  3  5  1  0
  5  6  1  0
  5  7  1  0
  7  8  1  0
  8  9  1  0
  9  3  1  0
  9  7  1  0
  1 10  1  0
  1 11  1  0
  1 12  1  0
  2 13  1  0
  2 14  1  0
  4 15  1  0
  5 16  1  0
  6 17  1  0
  6 18  1  0
  6 19  1  0
  7 20  1  0
  8 21  1  0
  8 22  1  0
  9 23  1  0
M  END
