
     RDKit          3D

 21 23  0  0  0  0  0  0  0  0999 V2000
    2.6851   -0.2224    0.5698 C   0  0  0  0  0  0  0  0  0  0  0  0
    1.8509    0.1264   -0.6620 C   0  0  0  0  0  0  0  0  0  0  0  0
    0.4299    0.3003   -0.2670 C   0  0  0  0  0  0  0  0  0  0  0  0
   -0.2632    1.4191   -0.4317 C   0  0  0  0  0  0  0  0  0  0  0  0
   -1.6561    1.2429    0.0754 C   0  0  0  0  0  0  0  0  0  0  0  0
   -2.3477   -0.0686   -0.1945 C   0  0  0  0  0  0  0  0  0  0  0  0
   -1.4624   -1.1972   -0.6682 C   0  0  0  0  0  0  0  0  0  0  0  0
   -0.4289   -0.7235    0.3610 C   0  0  0  0  0  0  0  0  0  0  0  0
   -1.5216    0.0899    0.9835 C   0  0  0  0  0  0  0  0  0  0  0  0
    3.2802   -1.1078    0.3391 H   0  0  0  0  0  0  0  0  0  0  0  0
    3.3789    0.6078    0.8389 H   0  0  0  0  0  0  0  0  0  0  0  0
    2.0382   -0.4390    1.4485 H   0  0  0  0  0  0  0  0  0  0  0  0
    2.2908    1.0493   -1.0856 H   0  0  0  0  0  0  0  0  0  0  0  0
    1.9718   -0.6572   -1.4410 H   0  0  0  0  0  0  0  0  0  0  0  0
    0.1437    2.3160   -0.8719 H   0  0  0  0  0  0  0  0  0  0  0  0
   -2.2084    2.1037    0.4358 H   0  0  0  0  0  0  0  0  0  0  0  0
   -3.4286   -0.1416   -0.2336 H   0  0  0  0  0  0  0  0  0  0  0  0
   -1.8229   -2.2078   -0.4464 H   0  0  0  0  0  0  0  0  0  0  0  0
   -1.1709   -1.0406   -1.7134 H   0  0  0  0  0  0  0  0  0  0  0  0
    0.0401   -1.4998    0.9498 H   0  0  0  0  0  0  0  0  0  0  0  0
   -1.7988    0.0499    2.0136 H   0  0  0  0  0  0  0  0  0  0  0  0
  1  2  1  0
  2  3  1  0
  3  4  2  0
  4  5  1  0
  5  6  1  0
  6  7  1  0
  7  8  1  0
  8  9  1  0
  8  3  1  0
  9  5  1  0
  9  6  1  0
  1 10  1  0
  1 11  1  0
  1 12  1  0
  2 13  1  0
  2 14  1  0
  4 15  1  0
  5 16  1  0
  6 17  1  0
  7 18  1  0
  7 19  1  0
  8 20  1  0
  9 21  1  0
M  END
