
     RDKit          3D

 22 22  0  0  0  0  0  0  0  0999 V2000
    2.5897    0.3517   -0.4981 C   0  0  0  0  0  0  0  0  0  0  0  0
    1.6535   -0.5028    0.3275 C   0  0  0  0  0  0  0  0  0  0  0  0
    0.2916   -0.4250   -0.3129 C   0  0  0  0  0  0  0  0  0  0  0  0
   -0.2092    0.9988   -0.3416 C   0  0  0  0  0  0  0  0  0  0  0  0
   -1.5671    0.9553    0.3434 C   0  0  0  0  0  0  0  0  0  0  0  0
   -2.0131   -0.4514   -0.0003 C   0  0  0  0  0  0  0  0  0  0  0  0
   -2.1086   -0.5786   -1.3910 O   0  0  0  0  0  0  0  0  0  0  0  0
   -0.7566   -1.2341    0.4081 C   0  0  0  0  0  0  0  0  0  0  0  0
    3.3834    0.8080    0.1266 H   0  0  0  0  0  0  0  0  0  0  0  0
    1.9978    1.1096   -1.0275 H   0  0  0  0  0  0  0  0  0  0  0  0
    3.0151   -0.3218   -1.2807 H   0  0  0  0  0  0  0  0  0  0  0  0
    2.0054   -1.5441    0.4177 H   0  0  0  0  0  0  0  0  0  0  0  0
    1.6519   -0.0549    1.3500 H   0  0  0  0  0  0  0  0  0  0  0  0
    0.3840   -0.8602   -1.3321 H   0  0  0  0  0  0  0  0  0  0  0  0
    0.4808    1.7052    0.1874 H   0  0  0  0  0  0  0  0  0  0  0  0
   -0.3258    1.2817   -1.4186 H   0  0  0  0  0  0  0  0  0  0  0  0
   -2.2595    1.7241   -0.0434 H   0  0  0  0  0  0  0  0  0  0  0  0
   -1.3854    1.0277    1.4248 H   0  0  0  0  0  0  0  0  0  0  0  0
   -2.8973   -0.7799    0.5341 H   0  0  0  0  0  0  0  0  0  0  0  0
   -2.5072    0.2637   -1.7244 H   0  0  0  0  0  0  0  0  0  0  0  0
   -0.6055   -1.1973    1.5083 H   0  0  0  0  0  0  0  0  0  0  0  0
   -0.8177   -2.2758    0.0328 H   0  0  0  0  0  0  0  0  0  0  0  0
  1  2  1  0
  2  3  1  0
  3  4  1  0
  4  5  1  0
  5  6  1  0
  6  7  1  0
  6  8  1  0
  8  3  1  0
  1  9  1  0
  1 10  1  0
  1 11  1  0
  2 12  1  0
  2 13  1  0
  3 14  1  0
  4 15  1  0
  4 16  1  0
  5 17  1  0
  5 18  1  0
  6 19  1  0
  7 20  1  0
  8 21  1  0
  8 22  1  0
M  END
