
     RDKit          3D

 23 25  0  0  0  0  0  0  0  0999 V2000
    2.5571    0.2883   -0.1665 C   0  0  0  0  0  0  0  0  0  0  0  0
    1.5575   -0.7781    0.1245 C   0  0  0  0  0  0  0  0  0  0  0  0
    0.1939   -0.3105    0.0887 C   0  0  0  0  0  0  0  0  0  0  0  0
   -0.2748    0.2774   -1.2421 C   0  0  0  0  0  0  0  0  0  0  0  0
   -1.7129    0.6156   -0.8128 C   0  0  0  0  0  0  0  0  0  0  0  0
   -2.1120   -0.4159    0.1883 C   0  0  0  0  0  0  0  0  0  0  0  0
   -0.8871   -1.3334    0.3241 C   0  0  0  0  0  0  0  0  0  0  0  0
   -1.6828    0.9268    0.6254 C   0  0  0  0  0  0  0  0  0  0  0  0
   -0.2051    0.7812    1.0277 C   0  0  0  0  0  0  0  0  0  0  0  0
    2.4581    1.0797    0.6070 H   0  0  0  0  0  0  0  0  0  0  0  0
    3.5785   -0.1033   -0.0930 H   0  0  0  0  0  0  0  0  0  0  0  0
    2.3965    0.7310   -1.1740 H   0  0  0  0  0  0  0  0  0  0  0  0
    1.6810   -1.6156   -0.6157 H   0  0  0  0  0  0  0  0  0  0  0  0
    1.7882   -1.1922    1.1277 H   0  0  0  0  0  0  0  0  0  0  0  0
   -0.2556   -0.4739   -2.0328 H   0  0  0  0  0  0  0  0  0  0  0  0
    0.2497    1.2068   -1.4704 H   0  0  0  0  0  0  0  0  0  0  0  0
   -2.3972    1.0462   -1.5319 H   0  0  0  0  0  0  0  0  0  0  0  0
   -3.1083   -0.8176    0.2785 H   0  0  0  0  0  0  0  0  0  0  0  0
   -0.8640   -2.0485   -0.5100 H   0  0  0  0  0  0  0  0  0  0  0  0
   -0.8403   -1.7901    1.3224 H   0  0  0  0  0  0  0  0  0  0  0  0
   -2.3096    1.6500    1.1268 H   0  0  0  0  0  0  0  0  0  0  0  0
   -0.0903    0.5439    2.0822 H   0  0  0  0  0  0  0  0  0  0  0  0
    0.2796    1.7323    0.7260 H   0  0  0  0  0  0  0  0  0  0  0  0
  1  2  1  0
  2  3  1  0
  3  4  1  0
  4  5  1  0
  5  6  1  0
  6  7  1  0
  6  8  1  0
  8  9  1  0
  7  3  1  0
  9  3  1  0
  8  5  1  0
  1 10  1  0
  1 11  1  0
  1 12  1  0
  2 13  1  0
  2 14  1  0
  4 15  1  0
  4 16  1  0
  5 17  1  0
  6 18  1  0
  7 19  1  0
  7 20  1  0
  8 21  1  0
  9 22  1  0
  9 23  1  0
M  END
