
     RDKit          3D

 23 24  0  0  0  0  0  0  0  0999 V2000
    2.4666   -0.6803   -0.1736 C   0  0  0  0  0  0  0  0  0  0  0  0
    1.5924    0.3460    0.5004 C   0  0  0  0  0  0  0  0  0  0  0  0
    0.1901    0.3501    0.0467 C   0  0  0  0  0  0  0  0  0  0  0  0
   -0.6891   -0.8588    0.1854 C   0  0  0  0  0  0  0  0  0  0  0  0
   -1.6528   -0.8485    1.3367 C   0  0  0  0  0  0  0  0  0  0  0  0
   -1.3570   -0.5642   -1.1479 C   0  0  0  0  0  0  0  0  0  0  0  0
   -0.2393    0.4511   -1.3610 C   0  0  0  0  0  0  0  0  0  0  0  0
   -0.3530    1.6328   -0.4915 C   0  0  0  0  0  0  0  0  0  0  0  0
   -1.5805    2.0503    0.0228 O   0  0  0  0  0  0  0  0  0  0  0  0
    2.1650   -0.8650   -1.2257 H   0  0  0  0  0  0  0  0  0  0  0  0
    3.5028   -0.2734   -0.1630 H   0  0  0  0  0  0  0  0  0  0  0  0
    2.4751   -1.6090    0.4109 H   0  0  0  0  0  0  0  0  0  0  0  0
    2.0190    1.3580    0.4325 H   0  0  0  0  0  0  0  0  0  0  0  0
    1.5990    0.0943    1.6021 H   0  0  0  0  0  0  0  0  0  0  0  0
   -0.1017   -1.8044    0.0742 H   0  0  0  0  0  0  0  0  0  0  0  0
   -1.1690   -0.6489    2.3022 H   0  0  0  0  0  0  0  0  0  0  0  0
   -2.4758   -0.1554    1.0893 H   0  0  0  0  0  0  0  0  0  0  0  0
   -2.0965   -1.8770    1.3924 H   0  0  0  0  0  0  0  0  0  0  0  0
   -2.3454   -0.0559   -0.9760 H   0  0  0  0  0  0  0  0  0  0  0  0
   -1.3710   -1.3921   -1.8590 H   0  0  0  0  0  0  0  0  0  0  0  0
    0.4222    0.3668   -2.2155 H   0  0  0  0  0  0  0  0  0  0  0  0
    0.3590    2.4417   -0.6561 H   0  0  0  0  0  0  0  0  0  0  0  0
   -1.3600    2.5418    0.8737 H   0  0  0  0  0  0  0  0  0  0  0  0
  1  2  1  0
  2  3  1  0
  3  4  1  0
  4  5  1  0
  4  6  1  0
  6  7  1  0
  7  8  1  0
  8  9  1  0
  7  3  1  0
  8  3  1  0
  1 10  1  0
  1 11  1  0
  1 12  1  0
  2 13  1  0
  2 14  1  0
  4 15  1  0
  5 16  1  0
  5 17  1  0
  5 18  1  0
  6 19  1  0
  6 20  1  0
  7 21  1  0
  8 22  1  0
  9 23  1  0
M  END
