
     RDKit          3D

 21 23  0  0  0  0  0  0  0  0999 V2000
   -2.4109   -0.0642   -0.2213 C   0  0  0  0  0  0  0  0  0  0  0  0
   -1.2432    0.1150    0.7279 C   0  0  0  0  0  0  0  0  0  0  0  0
    0.0435    0.2799    0.0951 C   0  0  0  0  0  0  0  0  0  0  0  0
    0.2803    1.4346   -0.8392 C   0  0  0  0  0  0  0  0  0  0  0  0
    1.6352    1.2603   -1.1454 O   0  0  0  0  0  0  0  0  0  0  0  0
    1.9421    0.0902   -0.5118 C   0  0  0  0  0  0  0  0  0  0  0  0
    1.3112    0.1530    0.8536 C   0  0  0  0  0  0  0  0  0  0  0  0
    1.1611   -1.3335    0.7176 C   0  0  0  0  0  0  0  0  0  0  0  0
    0.7384   -0.8298   -0.6142 C   0  0  0  0  0  0  0  0  0  0  0  0
   -3.3148   -0.2636    0.4043 H   0  0  0  0  0  0  0  0  0  0  0  0
   -2.2251   -0.9678   -0.8369 H   0  0  0  0  0  0  0  0  0  0  0  0
   -2.4819    0.8503   -0.8188 H   0  0  0  0  0  0  0  0  0  0  0  0
   -1.4892    1.0681    1.2901 H   0  0  0  0  0  0  0  0  0  0  0  0
   -1.2296   -0.6559    1.5207 H   0  0  0  0  0  0  0  0  0  0  0  0
   -0.2856    1.1996   -1.7840 H   0  0  0  0  0  0  0  0  0  0  0  0
    0.0497    2.4092   -0.4243 H   0  0  0  0  0  0  0  0  0  0  0  0
    2.9159   -0.3503   -0.6103 H   0  0  0  0  0  0  0  0  0  0  0  0
    1.6327    0.6699    1.6449 H   0  0  0  0  0  0  0  0  0  0  0  0
    0.3873   -1.8285    1.3079 H   0  0  0  0  0  0  0  0  0  0  0  0
    2.1260   -1.9030    0.6724 H   0  0  0  0  0  0  0  0  0  0  0  0
    0.4569   -1.3334   -1.4287 H   0  0  0  0  0  0  0  0  0  0  0  0
  1  2  1  0
  2  3  1  0
  3  4  1  0
  4  5  1  0
  5  6  1  0
  6  7  1  0
  7  8  1  0
  8  9  1  0
  7  3  1  0
  9  3  1  0
  9  6  1  0
  1 10  1  0
  1 11  1  0
  1 12  1  0
  2 13  1  0
  2 14  1  0
  4 15  1  0
  4 16  1  0
  6 17  1  0
  7 18  1  0
  8 19  1  0
  8 20  1  0
  9 21  1  0
M  END
