
     RDKit          3D

 23 24  0  0  0  0  0  0  0  0999 V2000
    2.5998    0.4613   -0.0760 C   0  0  0  0  0  0  0  0  0  0  0  0
    1.9649   -0.8813    0.1685 C   0  0  0  0  0  0  0  0  0  0  0  0
    0.5502   -0.9548   -0.3388 C   0  0  0  0  0  0  0  0  0  0  0  0
   -0.4101    0.0413    0.2798 C   0  0  0  0  0  0  0  0  0  0  0  0
   -1.7120   -0.6164    0.6714 C   0  0  0  0  0  0  0  0  0  0  0  0
   -2.6823    0.3467    1.2869 C   0  0  0  0  0  0  0  0  0  0  0  0
   -0.5266    0.6660   -1.0988 C   0  0  0  0  0  0  0  0  0  0  0  0
   -0.9966   -0.2897   -2.1039 O   0  0  0  0  0  0  0  0  0  0  0  0
    0.3409   -0.1939   -1.6536 C   0  0  0  0  0  0  0  0  0  0  0  0
    3.5630    0.4852    0.4759 H   0  0  0  0  0  0  0  0  0  0  0  0
    2.8747    0.6170   -1.1528 H   0  0  0  0  0  0  0  0  0  0  0  0
    1.9300    1.2809    0.2625 H   0  0  0  0  0  0  0  0  0  0  0  0
    2.0560   -1.0996    1.2375 H   0  0  0  0  0  0  0  0  0  0  0  0
    2.5479   -1.6426   -0.3870 H   0  0  0  0  0  0  0  0  0  0  0  0
    0.1504   -1.9725   -0.4628 H   0  0  0  0  0  0  0  0  0  0  0  0
    0.0055    0.7486    0.9905 H   0  0  0  0  0  0  0  0  0  0  0  0
   -1.5099   -1.4090    1.4005 H   0  0  0  0  0  0  0  0  0  0  0  0
   -2.1917   -1.0911   -0.2055 H   0  0  0  0  0  0  0  0  0  0  0  0
   -2.1551    0.9858    2.0334 H   0  0  0  0  0  0  0  0  0  0  0  0
   -3.4721   -0.1964    1.8299 H   0  0  0  0  0  0  0  0  0  0  0  0
   -3.0827    1.0566    0.5233 H   0  0  0  0  0  0  0  0  0  0  0  0
   -0.9192    1.6591   -1.2415 H   0  0  0  0  0  0  0  0  0  0  0  0
    1.0749   -0.2456   -2.4395 H   0  0  0  0  0  0  0  0  0  0  0  0
  1  2  1  0
  2  3  1  0
  3  4  1  0
  4  5  1  0
  5  6  1  0
  4  7  1  0
  7  8  1  0
  8  9  1  0
  9  3  1  0
  9  7  1  0
  1 10  1  0
  1 11  1  0
  1 12  1  0
  2 13  1  0
  2 14  1  0
  3 15  1  0
  4 16  1  0
  5 17  1  0
  5 18  1  0
  6 19  1  0
  6 20  1  0
  6 21  1  0
  7 22  1  0
  9 23  1  0
M  END
