
     RDKit          3D

 23 24  0  0  0  0  0  0  0  0999 V2000
   -2.6705    0.8163   -0.2714 C   0  0  0  0  0  0  0  0  0  0  0  0
   -1.8454   -0.4708   -0.0559 C   0  0  0  0  0  0  0  0  0  0  0  0
   -0.4376   -0.2684   -0.4620 C   0  0  0  0  0  0  0  0  0  0  0  0
    0.4043   -1.5098   -0.2802 C   0  0  0  0  0  0  0  0  0  0  0  0
    0.4801   -1.1113    1.1780 C   0  0  0  0  0  0  0  0  0  0  0  0
    0.5351    0.2713    0.5665 C   0  0  0  0  0  0  0  0  0  0  0  0
    1.8526    0.1282   -0.1430 C   0  0  0  0  0  0  0  0  0  0  0  0
    2.2097    1.2390   -1.0389 C   0  0  0  0  0  0  0  0  0  0  0  0
    1.6142   -1.0935   -0.8298 O   0  0  0  0  0  0  0  0  0  0  0  0
   -3.6363    0.6597    0.2548 H   0  0  0  0  0  0  0  0  0  0  0  0
   -2.9106    0.8475   -1.3657 H   0  0  0  0  0  0  0  0  0  0  0  0
   -2.1199    1.6895    0.0793 H   0  0  0  0  0  0  0  0  0  0  0  0
   -1.9461   -0.6519    1.0241 H   0  0  0  0  0  0  0  0  0  0  0  0
   -2.3732   -1.2650   -0.6476 H   0  0  0  0  0  0  0  0  0  0  0  0
   -0.3014    0.2058   -1.4754 H   0  0  0  0  0  0  0  0  0  0  0  0
    0.0041   -2.4548   -0.5400 H   0  0  0  0  0  0  0  0  0  0  0  0
   -0.3580   -1.3467    1.8013 H   0  0  0  0  0  0  0  0  0  0  0  0
    1.4941   -1.3335    1.5984 H   0  0  0  0  0  0  0  0  0  0  0  0
    0.2989    1.1179    1.1325 H   0  0  0  0  0  0  0  0  0  0  0  0
    2.6366   -0.0937    0.5969 H   0  0  0  0  0  0  0  0  0  0  0  0
    2.0050    2.2007   -0.5337 H   0  0  0  0  0  0  0  0  0  0  0  0
    3.3259    1.2062   -1.2117 H   0  0  0  0  0  0  0  0  0  0  0  0
    1.7384    1.2173   -2.0359 H   0  0  0  0  0  0  0  0  0  0  0  0
  1  2  1  0
  2  3  1  0
  3  4  1  0
  4  5  1  0
  5  6  1  0
  6  7  1  0
  7  8  1  0
  7  9  1  0
  6  3  1  0
  9  4  1  0
  1 10  1  0
  1 11  1  0
  1 12  1  0
  2 13  1  0
  2 14  1  0
  3 15  1  0
  4 16  1  0
  5 17  1  0
  5 18  1  0
  6 19  1  0
  7 20  1  0
  8 21  1  0
  8 22  1  0
  8 23  1  0
M  END
