
     RDKit          3D

 23 23  0  0  0  0  0  0  0  0999 V2000
    2.7129    0.2402    0.0075 C   0  0  0  0  0  0  0  0  0  0  0  0
    1.3145    0.3605   -0.6078 C   0  0  0  0  0  0  0  0  0  0  0  0
    0.3664   -0.5197    0.1278 C   0  0  0  0  0  0  0  0  0  0  0  0
    0.1822   -0.2536    1.5894 C   0  0  0  0  0  0  0  0  0  0  0  0
   -1.2933   -0.4895    1.3670 C   0  0  0  0  0  0  0  0  0  0  0  0
   -2.1535   -0.8159    2.1369 O   0  0  0  0  0  0  0  0  0  0  0  0
   -1.0770   -0.1517   -0.0452 C   0  0  0  0  0  0  0  0  0  0  0  0
   -1.3568    1.2951   -0.3270 C   0  0  0  0  0  0  0  0  0  0  0  0
   -1.7392   -1.0394   -1.0582 C   0  0  0  0  0  0  0  0  0  0  0  0
    2.7319    0.5119    1.0614 H   0  0  0  0  0  0  0  0  0  0  0  0
    3.0336   -0.8120   -0.1956 H   0  0  0  0  0  0  0  0  0  0  0  0
    3.3724    0.8731   -0.6352 H   0  0  0  0  0  0  0  0  0  0  0  0
    1.4271   -0.0524   -1.6392 H   0  0  0  0  0  0  0  0  0  0  0  0
    0.9804    1.4219   -0.6275 H   0  0  0  0  0  0  0  0  0  0  0  0
    0.5634   -1.5909   -0.0469 H   0  0  0  0  0  0  0  0  0  0  0  0
    0.6083   -1.0132    2.2764 H   0  0  0  0  0  0  0  0  0  0  0  0
    0.4028    0.7688    1.9389 H   0  0  0  0  0  0  0  0  0  0  0  0
   -0.9135    1.9864    0.4022 H   0  0  0  0  0  0  0  0  0  0  0  0
   -1.0707    1.5703   -1.3569 H   0  0  0  0  0  0  0  0  0  0  0  0
   -2.4765    1.4202   -0.2693 H   0  0  0  0  0  0  0  0  0  0  0  0
   -1.4229   -2.0964   -0.9677 H   0  0  0  0  0  0  0  0  0  0  0  0
   -1.3644   -0.6985   -2.0679 H   0  0  0  0  0  0  0  0  0  0  0  0
   -2.8281   -0.9152   -1.0627 H   0  0  0  0  0  0  0  0  0  0  0  0
  1  2  1  0
  2  3  1  0
  3  4  1  0
  4  5  1  0
  5  6  2  0
  5  7  1  0
  7  8  1  0
  7  9  1  0
  7  3  1  0
  1 10  1  0
  1 11  1  0
  1 12  1  0
  2 13  1  0
  2 14  1  0
  3 15  1  0
  4 16  1  0
  4 17  1  0
  8 18  1  0
  8 19  1  0
  8 20  1  0
  9 21  1  0
  9 22  1  0
  9 23  1  0
M  END
