
     RDKit          3D

 25 26  0  0  0  0  0  0  0  0999 V2000
    3.4935    0.7213   -0.1334 C   0  0  0  0  0  0  0  0  0  0  0  0
    2.3857   -0.3036   -0.2171 C   0  0  0  0  0  0  0  0  0  0  0  0
    1.1810    0.1257    0.6406 C   0  0  0  0  0  0  0  0  0  0  0  0
    0.0498   -0.7257    0.6751 C   0  0  0  0  0  0  0  0  0  0  0  0
   -1.1144   -0.7938   -0.3267 C   0  0  0  0  0  0  0  0  0  0  0  0
   -2.1116   -1.8574   -0.0034 C   0  0  0  0  0  0  0  0  0  0  0  0
   -1.4299    0.5385    0.3935 C   0  0  0  0  0  0  0  0  0  0  0  0
   -2.3448    1.4311   -0.3770 C   0  0  0  0  0  0  0  0  0  0  0  0
    0.0521    0.7314    0.0403 C   0  0  0  0  0  0  0  0  0  0  0  0
    4.2066    0.3844    0.6654 H   0  0  0  0  0  0  0  0  0  0  0  0
    4.0481    0.8573   -1.0582 H   0  0  0  0  0  0  0  0  0  0  0  0
    3.0409    1.6725    0.2587 H   0  0  0  0  0  0  0  0  0  0  0  0
    2.0379   -0.4400   -1.2817 H   0  0  0  0  0  0  0  0  0  0  0  0
    2.7595   -1.2649    0.1442 H   0  0  0  0  0  0  0  0  0  0  0  0
    1.5736    0.6079    1.5885 H   0  0  0  0  0  0  0  0  0  0  0  0
   -0.4620   -0.7800    1.6906 H   0  0  0  0  0  0  0  0  0  0  0  0
   -0.8456   -0.6460   -1.3658 H   0  0  0  0  0  0  0  0  0  0  0  0
   -3.1199   -1.4432    0.2835 H   0  0  0  0  0  0  0  0  0  0  0  0
   -1.7973   -2.4420    0.9102 H   0  0  0  0  0  0  0  0  0  0  0  0
   -2.2574   -2.5450   -0.8517 H   0  0  0  0  0  0  0  0  0  0  0  0
   -1.5692    0.4554    1.4657 H   0  0  0  0  0  0  0  0  0  0  0  0
   -3.1354    1.7946    0.3216 H   0  0  0  0  0  0  0  0  0  0  0  0
   -2.8747    0.8675   -1.1702 H   0  0  0  0  0  0  0  0  0  0  0  0
   -1.8469    2.3293   -0.7802 H   0  0  0  0  0  0  0  0  0  0  0  0
    0.0806    0.7248   -1.0982 H   0  0  0  0  0  0  0  0  0  0  0  0
  1  2  1  0
  2  3  1  0
  3  4  1  0
  4  5  1  0
  5  6  1  0
  5  7  1  0
  7  8  1  0
  7  9  1  0
  9  3  1  0
  9  4  1  0
  1 10  1  0
  1 11  1  0
  1 12  1  0
  2 13  1  0
  2 14  1  0
  3 15  1  0
  4 16  1  0
  5 17  1  0
  6 18  1  0
  6 19  1  0
  6 20  1  0
  7 21  1  0
  8 22  1  0
  8 23  1  0
  8 24  1  0
  9 25  1  0
M  END
