
     RDKit          3D

 21 23  0  0  0  0  0  0  0  0999 V2000
    2.5434    0.1988    0.3226 C   0  0  0  0  0  0  0  0  0  0  0  0
    1.3184   -0.6955    0.4881 C   0  0  0  0  0  0  0  0  0  0  0  0
    0.3066   -0.4040   -0.6252 C   0  0  0  0  0  0  0  0  0  0  0  0
   -0.8878   -1.2843   -0.4538 C   0  0  0  0  0  0  0  0  0  0  0  0
   -1.9831   -0.3790    0.0915 C   0  0  0  0  0  0  0  0  0  0  0  0
   -1.5844    0.7815    0.9248 C   0  0  0  0  0  0  0  0  0  0  0  0
   -0.3177    1.3198    0.8672 O   0  0  0  0  0  0  0  0  0  0  0  0
   -0.2055    1.0210   -0.5055 C   0  0  0  0  0  0  0  0  0  0  0  0
   -1.6913    0.8913   -0.5450 C   0  0  0  0  0  0  0  0  0  0  0  0
    3.0324    0.0086   -0.6664 H   0  0  0  0  0  0  0  0  0  0  0  0
    2.2445    1.2522    0.4232 H   0  0  0  0  0  0  0  0  0  0  0  0
    3.2602   -0.0567    1.1156 H   0  0  0  0  0  0  0  0  0  0  0  0
    0.8654   -0.4886    1.4563 H   0  0  0  0  0  0  0  0  0  0  0  0
    1.6681   -1.7310    0.3669 H   0  0  0  0  0  0  0  0  0  0  0  0
    0.7939   -0.4929   -1.6015 H   0  0  0  0  0  0  0  0  0  0  0  0
   -0.7152   -2.1587    0.1964 H   0  0  0  0  0  0  0  0  0  0  0  0
   -1.2270   -1.5895   -1.4753 H   0  0  0  0  0  0  0  0  0  0  0  0
   -2.9716   -0.7956    0.2611 H   0  0  0  0  0  0  0  0  0  0  0  0
   -2.3679    1.2663    1.5129 H   0  0  0  0  0  0  0  0  0  0  0  0
    0.2738    1.7671   -1.1209 H   0  0  0  0  0  0  0  0  0  0  0  0
   -2.3552    1.5693   -1.0330 H   0  0  0  0  0  0  0  0  0  0  0  0
  1  2  1  0
  2  3  1  0
  3  4  1  0
  4  5  1  0
  5  6  1  0
  6  7  1  0
  7  8  1  0
  8  9  1  0
  8  3  1  0
  9  5  1  0
  9  6  1  0
  1 10  1  0
  1 11  1  0
  1 12  1  0
  2 13  1  0
  2 14  1  0
  3 15  1  0
  4 16  1  0
  4 17  1  0
  5 18  1  0
  6 19  1  0
  8 20  1  0
  9 21  1  0
M  END
