
     RDKit          3D

 23 24  0  0  0  0  0  0  0  0999 V2000
    2.5821   -0.0660    0.2914 C   0  0  0  0  0  0  0  0  0  0  0  0
    1.6016   -0.3508   -0.8486 C   0  0  0  0  0  0  0  0  0  0  0  0
    0.3096    0.3297   -0.4644 C   0  0  0  0  0  0  0  0  0  0  0  0
   -0.3080   -0.1401    0.8229 C   0  0  0  0  0  0  0  0  0  0  0  0
   -0.3559   -1.6254    0.6249 C   0  0  0  0  0  0  0  0  0  0  0  0
   -0.6998   -1.6581   -0.7520 O   0  0  0  0  0  0  0  0  0  0  0  0
   -0.9411   -0.3397   -1.0575 C   0  0  0  0  0  0  0  0  0  0  0  0
   -1.6516    0.2072    0.1609 C   0  0  0  0  0  0  0  0  0  0  0  0
   -2.0059    1.6352    0.1611 C   0  0  0  0  0  0  0  0  0  0  0  0
    3.4627   -0.7220    0.2354 H   0  0  0  0  0  0  0  0  0  0  0  0
    2.9121    0.9986    0.1349 H   0  0  0  0  0  0  0  0  0  0  0  0
    2.0361   -0.0942    1.2358 H   0  0  0  0  0  0  0  0  0  0  0  0
    1.4895   -1.4233   -1.0319 H   0  0  0  0  0  0  0  0  0  0  0  0
    2.0248    0.1107   -1.7408 H   0  0  0  0  0  0  0  0  0  0  0  0
    0.3850    1.3997   -0.6314 H   0  0  0  0  0  0  0  0  0  0  0  0
   -0.0717    0.2984    1.7442 H   0  0  0  0  0  0  0  0  0  0  0  0
    0.5665   -2.1519    0.8357 H   0  0  0  0  0  0  0  0  0  0  0  0
   -1.2382   -2.0187    1.1759 H   0  0  0  0  0  0  0  0  0  0  0  0
   -1.2468   -0.0401   -2.0219 H   0  0  0  0  0  0  0  0  0  0  0  0
   -2.4890   -0.4327    0.5068 H   0  0  0  0  0  0  0  0  0  0  0  0
   -3.0776    1.7519   -0.0490 H   0  0  0  0  0  0  0  0  0  0  0  0
   -1.4534    2.2813   -0.5296 H   0  0  0  0  0  0  0  0  0  0  0  0
   -1.8309    2.0501    1.1970 H   0  0  0  0  0  0  0  0  0  0  0  0
  1  2  1  0
  2  3  1  0
  3  4  1  0
  4  5  1  0
  5  6  1  0
  6  7  1  0
  7  8  1  0
  8  9  1  0
  7  3  1  0
  8  4  1  0
  1 10  1  0
  1 11  1  0
  1 12  1  0
  2 13  1  0
  2 14  1  0
  3 15  1  0
  4 16  1  0
  5 17  1  0
  5 18  1  0
  7 19  1  0
  8 20  1  0
  9 21  1  0
  9 22  1  0
  9 23  1  0
M  END
