
     RDKit          3D

 19 19  0  0  0  0  0  0  0  0999 V2000
    1.9876    0.4894   -0.2373 C   0  0  0  0  0  0  0  0  0  0  0  0
    0.5676    0.9693   -0.2147 C   0  0  0  0  0  0  0  0  0  0  0  0
   -0.4131   -0.0492    0.2628 C   0  0  0  0  0  0  0  0  0  0  0  0
   -1.7265    0.4060    0.2800 O   0  0  0  0  0  0  0  0  0  0  0  0
   -2.4468    0.8537   -0.7903 C   0  0  0  0  0  0  0  0  0  0  0  0
   -1.9025    0.8694   -1.9141 O   0  0  0  0  0  0  0  0  0  0  0  0
   -0.0707   -0.7821    1.5264 C   0  0  0  0  0  0  0  0  0  0  0  0
   -0.7549   -1.8908    0.9689 O   0  0  0  0  0  0  0  0  0  0  0  0
   -0.2065   -1.4522   -0.2600 C   0  0  0  0  0  0  0  0  0  0  0  0
    2.3587    0.1308    0.7222 H   0  0  0  0  0  0  0  0  0  0  0  0
    2.1085   -0.2773   -1.0443 H   0  0  0  0  0  0  0  0  0  0  0  0
    2.6157    1.3538   -0.5694 H   0  0  0  0  0  0  0  0  0  0  0  0
    0.2849    1.3009   -1.2233 H   0  0  0  0  0  0  0  0  0  0  0  0
    0.5126    1.8461    0.4630 H   0  0  0  0  0  0  0  0  0  0  0  0
   -3.4688    1.1873   -0.6632 H   0  0  0  0  0  0  0  0  0  0  0  0
   -0.5619   -0.4392    2.4456 H   0  0  0  0  0  0  0  0  0  0  0  0
    1.0008   -1.0888    1.6332 H   0  0  0  0  0  0  0  0  0  0  0  0
    0.8776   -1.6916   -0.2405 H   0  0  0  0  0  0  0  0  0  0  0  0
   -0.7625   -1.7356   -1.1451 H   0  0  0  0  0  0  0  0  0  0  0  0
  1  2  1  0
  2  3  1  0
  3  4  1  0
  4  5  1  0
  5  6  2  0
  3  7  1  0
  7  8  1  0
  8  9  1  0
  9  3  1  0
  1 10  1  0
  1 11  1  0
  1 12  1  0
  2 13  1  0
  2 14  1  0
  5 15  1  0
  7 16  1  0
  7 17  1  0
  9 18  1  0
  9 19  1  0
M  END
