
     RDKit          3D

 19 19  0  0  0  0  0  0  0  0999 V2000
   -1.9467   -0.5915   -0.3040 C   0  0  0  0  0  0  0  0  0  0  0  0
   -1.2879    0.7464   -0.1794 C   0  0  0  0  0  0  0  0  0  0  0  0
    0.2201    0.6391   -0.1586 C   0  0  0  0  0  0  0  0  0  0  0  0
    0.8945    1.8328   -0.0456 O   0  0  0  0  0  0  0  0  0  0  0  0
    0.7752   -0.1920   -1.2783 C   0  0  0  0  0  0  0  0  0  0  0  0
    0.5283   -0.4261   -2.4363 O   0  0  0  0  0  0  0  0  0  0  0  0
    1.8286   -0.6367   -0.2969 C   0  0  0  0  0  0  0  0  0  0  0  0
    0.7626   -0.4087    0.7837 C   0  0  0  0  0  0  0  0  0  0  0  0
    1.3249    0.0540    1.9481 O   0  0  0  0  0  0  0  0  0  0  0  0
   -1.9114   -1.1534    0.6501 H   0  0  0  0  0  0  0  0  0  0  0  0
   -1.3491   -1.1853   -1.0344 H   0  0  0  0  0  0  0  0  0  0  0  0
   -3.0013   -0.4762   -0.5904 H   0  0  0  0  0  0  0  0  0  0  0  0
   -1.6140    1.4378   -0.9560 H   0  0  0  0  0  0  0  0  0  0  0  0
   -1.5950    1.1891    0.8002 H   0  0  0  0  0  0  0  0  0  0  0  0
    0.2986    2.5632    0.2120 H   0  0  0  0  0  0  0  0  0  0  0  0
    2.6237    0.1456   -0.2604 H   0  0  0  0  0  0  0  0  0  0  0  0
    2.1578   -1.6636   -0.4076 H   0  0  0  0  0  0  0  0  0  0  0  0
    0.1131   -1.2935    0.8569 H   0  0  0  0  0  0  0  0  0  0  0  0
    1.1780   -0.5808    2.6969 H   0  0  0  0  0  0  0  0  0  0  0  0
  1  2  1  0
  2  3  1  0
  3  4  1  0
  3  5  1  0
  5  6  2  0
  5  7  1  0
  7  8  1  0
  8  9  1  0
  8  3  1  0
  1 10  1  0
  1 11  1  0
  1 12  1  0
  2 13  1  0
  2 14  1  0
  4 15  1  0
  7 16  1  0
  7 17  1  0
  8 18  1  0
  9 19  1  0
M  END
