
     RDKit          3D

 23 23  0  0  0  0  0  0  0  0999 V2000
   -2.8458    0.3933   -0.3359 C   0  0  0  0  0  0  0  0  0  0  0  0
   -1.6074    0.4171    0.5472 C   0  0  0  0  0  0  0  0  0  0  0  0
   -0.9155   -0.9262    0.5457 C   0  0  0  0  0  0  0  0  0  0  0  0
   -0.5264   -1.2286   -0.8462 C   0  0  0  0  0  0  0  0  0  0  0  0
    0.7223   -0.8786   -1.0620 C   0  0  0  0  0  0  0  0  0  0  0  0
    1.3490   -0.2955    0.1415 C   0  0  0  0  0  0  0  0  0  0  0  0
    1.4507    1.0825    0.1014 O   0  0  0  0  0  0  0  0  0  0  0  0
    2.8026    1.4230    0.2037 C   0  0  0  0  0  0  0  0  0  0  0  0
    0.4089   -0.7575    1.2375 C   0  0  0  0  0  0  0  0  0  0  0  0
   -2.8908   -0.5347   -0.9405 H   0  0  0  0  0  0  0  0  0  0  0  0
   -3.7682    0.4540    0.2761 H   0  0  0  0  0  0  0  0  0  0  0  0
   -2.8058    1.2870   -0.9883 H   0  0  0  0  0  0  0  0  0  0  0  0
   -1.9355    0.6893    1.5732 H   0  0  0  0  0  0  0  0  0  0  0  0
   -0.8813    1.1920    0.2324 H   0  0  0  0  0  0  0  0  0  0  0  0
   -1.5434   -1.7132    1.0011 H   0  0  0  0  0  0  0  0  0  0  0  0
   -1.1912   -1.6920   -1.6231 H   0  0  0  0  0  0  0  0  0  0  0  0
    1.2532   -1.0064   -2.0441 H   0  0  0  0  0  0  0  0  0  0  0  0
    2.3596   -0.7855    0.2443 H   0  0  0  0  0  0  0  0  0  0  0  0
    2.8526    2.5379    0.1686 H   0  0  0  0  0  0  0  0  0  0  0  0
    3.2403    1.1300    1.1814 H   0  0  0  0  0  0  0  0  0  0  0  0
    3.4255    0.9701   -0.5764 H   0  0  0  0  0  0  0  0  0  0  0  0
    0.7089   -1.7404    1.6407 H   0  0  0  0  0  0  0  0  0  0  0  0
    0.3378   -0.0173    2.0673 H   0  0  0  0  0  0  0  0  0  0  0  0
  1  2  1  0
  2  3  1  0
  3  4  1  0
  4  5  2  0
  5  6  1  0
  6  7  1  0
  7  8  1  0
  6  9  1  0
  9  3  1  0
  1 10  1  0
  1 11  1  0
  1 12  1  0
  2 13  1  0
  2 14  1  0
  3 15  1  0
  4 16  1  0
  5 17  1  0
  6 18  1  0
  8 19  1  0
  8 20  1  0
  8 21  1  0
  9 22  1  0
  9 23  1  0
M  END
