
     RDKit          3D

 21 21  0  0  0  0  0  0  0  0999 V2000
    2.9444   -0.0255    0.0267 C   0  0  0  0  0  0  0  0  0  0  0  0
    1.7244   -0.5893    0.6905 C   0  0  0  0  0  0  0  0  0  0  0  0
    0.4547   -0.1534    0.1659 C   0  0  0  0  0  0  0  0  0  0  0  0
   -0.3259   -1.1171   -0.3061 C   0  0  0  0  0  0  0  0  0  0  0  0
   -1.6709   -1.0757   -0.9146 C   0  0  0  0  0  0  0  0  0  0  0  0
   -2.6161   -0.1678   -0.2301 C   0  0  0  0  0  0  0  0  0  0  0  0
   -2.3911    1.0367    0.2543 C   0  0  0  0  0  0  0  0  0  0  0  0
   -1.1326    1.7788    0.2339 C   0  0  0  0  0  0  0  0  0  0  0  0
    0.1174    1.2656    0.1952 C   0  0  0  0  0  0  0  0  0  0  0  0
    2.9525   -0.3832   -1.0244 H   0  0  0  0  0  0  0  0  0  0  0  0
    3.0582    1.0561    0.1358 H   0  0  0  0  0  0  0  0  0  0  0  0
    3.8248   -0.4959    0.5204 H   0  0  0  0  0  0  0  0  0  0  0  0
    1.8018   -1.6925    0.6295 H   0  0  0  0  0  0  0  0  0  0  0  0
    1.7812   -0.2562    1.7695 H   0  0  0  0  0  0  0  0  0  0  0  0
    0.1014   -2.1441   -0.2353 H   0  0  0  0  0  0  0  0  0  0  0  0
   -2.0751   -2.1091   -0.9934 H   0  0  0  0  0  0  0  0  0  0  0  0
   -1.5052   -0.6414   -1.9440 H   0  0  0  0  0  0  0  0  0  0  0  0
   -3.6269   -0.5725   -0.1251 H   0  0  0  0  0  0  0  0  0  0  0  0
   -3.2233    1.5342    0.7137 H   0  0  0  0  0  0  0  0  0  0  0  0
   -1.1562    2.8443    0.2527 H   0  0  0  0  0  0  0  0  0  0  0  0
    0.9627    1.9081    0.1850 H   0  0  0  0  0  0  0  0  0  0  0  0
  1  2  1  0
  2  3  1  0
  3  4  2  0
  4  5  1  0
  5  6  1  0
  6  7  2  0
  7  8  1  0
  8  9  2  0
  9  3  1  0
  1 10  1  0
  1 11  1  0
  1 12  1  0
  2 13  1  0
  2 14  1  0
  4 15  1  0
  5 16  1  0
  5 17  1  0
  6 18  1  0
  7 19  1  0
  8 20  1  0
  9 21  1  0
M  END
