
     RDKit          3D

 19 20  0  0  0  0  0  0  0  0999 V2000
    2.6138    0.1061   -0.6090 C   0  0  0  0  0  0  0  0  0  0  0  0
    1.5387   -0.8122   -0.0222 C   0  0  0  0  0  0  0  0  0  0  0  0
    0.4399    0.0371    0.5353 C   0  0  0  0  0  0  0  0  0  0  0  0
   -0.2457    0.9303   -0.4265 C   0  0  0  0  0  0  0  0  0  0  0  0
    0.1141    1.7467   -1.2381 O   0  0  0  0  0  0  0  0  0  0  0  0
   -1.5415    0.4219    0.0055 C   0  0  0  0  0  0  0  0  0  0  0  0
   -2.6915    0.2524   -0.9240 C   0  0  0  0  0  0  0  0  0  0  0  0
   -1.8166    0.1694    1.3390 O   0  0  0  0  0  0  0  0  0  0  0  0
   -0.8903   -0.6372    0.7393 C   0  0  0  0  0  0  0  0  0  0  0  0
    2.7169    1.0282    0.0275 H   0  0  0  0  0  0  0  0  0  0  0  0
    2.3428    0.4465   -1.6198 H   0  0  0  0  0  0  0  0  0  0  0  0
    3.5978   -0.4096   -0.6345 H   0  0  0  0  0  0  0  0  0  0  0  0
    1.2319   -1.5464   -0.7628 H   0  0  0  0  0  0  0  0  0  0  0  0
    2.0303   -1.3375    0.8222 H   0  0  0  0  0  0  0  0  0  0  0  0
    0.7657    0.5102    1.4865 H   0  0  0  0  0  0  0  0  0  0  0  0
   -3.5294    0.9059   -0.5397 H   0  0  0  0  0  0  0  0  0  0  0  0
   -3.1218   -0.7755   -0.9345 H   0  0  0  0  0  0  0  0  0  0  0  0
   -2.4914    0.6340   -1.9533 H   0  0  0  0  0  0  0  0  0  0  0  0
   -1.0637   -1.6701    0.4814 H   0  0  0  0  0  0  0  0  0  0  0  0
  1  2  1  0
  2  3  1  0
  3  4  1  0
  4  5  2  0
  4  6  1  0
  6  7  1  0
  6  8  1  0
  8  9  1  0
  9  3  1  0
  9  6  1  0
  1 10  1  0
  1 11  1  0
  1 12  1  0
  2 13  1  0
  2 14  1  0
  3 15  1  0
  7 16  1  0
  7 17  1  0
  7 18  1  0
  9 19  1  0
M  END
