
     RDKit          3D

 21 22  0  0  0  0  0  0  0  0999 V2000
   -2.6184    0.1250    0.2846 C   0  0  0  0  0  0  0  0  0  0  0  0
   -1.6341   -0.9812   -0.0415 C   0  0  0  0  0  0  0  0  0  0  0  0
   -0.3316   -0.3388   -0.3692 C   0  0  0  0  0  0  0  0  0  0  0  0
    0.6801   -1.2209   -0.6918 O   0  0  0  0  0  0  0  0  0  0  0  0
    1.7201   -0.9832    0.1948 C   0  0  0  0  0  0  0  0  0  0  0  0
    2.3450    0.3772   -0.0092 C   0  0  0  0  0  0  0  0  0  0  0  0
    1.2246    1.2984    0.4952 C   0  0  0  0  0  0  0  0  0  0  0  0
    0.1968    0.3119    0.9049 C   0  0  0  0  0  0  0  0  0  0  0  0
    0.9894   -0.7558    1.3873 O   0  0  0  0  0  0  0  0  0  0  0  0
   -2.5755    0.3982    1.3626 H   0  0  0  0  0  0  0  0  0  0  0  0
   -3.6596   -0.1715    0.0465 H   0  0  0  0  0  0  0  0  0  0  0  0
   -2.3209    1.0413   -0.2912 H   0  0  0  0  0  0  0  0  0  0  0  0
   -2.0337   -1.6402   -0.8313 H   0  0  0  0  0  0  0  0  0  0  0  0
   -1.5467   -1.6088    0.8727 H   0  0  0  0  0  0  0  0  0  0  0  0
   -0.4690    0.4736   -1.1134 H   0  0  0  0  0  0  0  0  0  0  0  0
    2.4291   -1.7974    0.2850 H   0  0  0  0  0  0  0  0  0  0  0  0
    3.1898    0.4777    0.6728 H   0  0  0  0  0  0  0  0  0  0  0  0
    2.5701    0.5433   -1.0654 H   0  0  0  0  0  0  0  0  0  0  0  0
    1.5698    1.9855    1.2657 H   0  0  0  0  0  0  0  0  0  0  0  0
    0.8362    1.8324   -0.4187 H   0  0  0  0  0  0  0  0  0  0  0  0
   -0.5615    0.6333    1.5868 H   0  0  0  0  0  0  0  0  0  0  0  0
  1  2  1  0
  2  3  1  0
  3  4  1  0
  4  5  1  0
  5  6  1  0
  6  7  1  0
  7  8  1  0
  8  9  1  0
  8  3  1  0
  9  5  1  0
  1 10  1  0
  1 11  1  0
  1 12  1  0
  2 13  1  0
  2 14  1  0
  3 15  1  0
  5 16  1  0
  6 17  1  0
  6 18  1  0
  7 19  1  0
  7 20  1  0
  8 21  1  0
M  END
