
     RDKit          3D

 21 22  0  0  0  0  0  0  0  0999 V2000
   -2.6799    0.0256   -0.2077 C   0  0  0  0  0  0  0  0  0  0  0  0
   -1.6846   -0.2609    0.8772 C   0  0  0  0  0  0  0  0  0  0  0  0
   -0.3750   -0.0257    0.5023 C   0  0  0  0  0  0  0  0  0  0  0  0
    0.2465    1.2252    0.0505 C   0  0  0  0  0  0  0  0  0  0  0  0
    1.3382    0.1929    0.1535 C   0  0  0  0  0  0  0  0  0  0  0  0
    2.6766    0.3753   -0.1056 C   0  0  0  0  0  0  0  0  0  0  0  0
    0.7416   -0.2032    1.3391 O   0  0  0  0  0  0  0  0  0  0  0  0
    0.4013   -0.7614   -0.5373 C   0  0  0  0  0  0  0  0  0  0  0  0
    0.6362   -2.0707   -0.2031 O   0  0  0  0  0  0  0  0  0  0  0  0
   -2.5098    1.0341   -0.6313 H   0  0  0  0  0  0  0  0  0  0  0  0
   -2.6238   -0.7583   -1.0103 H   0  0  0  0  0  0  0  0  0  0  0  0
   -3.7309    0.0118    0.1703 H   0  0  0  0  0  0  0  0  0  0  0  0
   -1.9978    0.3174    1.7704 H   0  0  0  0  0  0  0  0  0  0  0  0
   -1.8496   -1.3383    1.1720 H   0  0  0  0  0  0  0  0  0  0  0  0
    0.2996    2.0000    0.8398 H   0  0  0  0  0  0  0  0  0  0  0  0
    0.0477    1.5926   -0.9629 H   0  0  0  0  0  0  0  0  0  0  0  0
    3.1682   -0.4721   -0.6683 H   0  0  0  0  0  0  0  0  0  0  0  0
    2.9101    1.2780   -0.7440 H   0  0  0  0  0  0  0  0  0  0  0  0
    3.3159    0.5330    0.8099 H   0  0  0  0  0  0  0  0  0  0  0  0
    0.1795   -0.5281   -1.5831 H   0  0  0  0  0  0  0  0  0  0  0  0
    1.4902   -2.1671    0.2946 H   0  0  0  0  0  0  0  0  0  0  0  0
  1  2  1  0
  2  3  1  0
  3  4  1  0
  4  5  1  0
  5  6  1  0
  5  7  1  0
  5  8  1  0
  8  9  1  0
  7  3  1  0
  8  3  1  0
  1 10  1  0
  1 11  1  0
  1 12  1  0
  2 13  1  0
  2 14  1  0
  4 15  1  0
  4 16  1  0
  6 17  1  0
  6 18  1  0
  6 19  1  0
  8 20  1  0
  9 21  1  0
M  END
