
     RDKit          3D

 21 21  0  0  0  0  0  0  0  0999 V2000
   -3.2527    0.0419   -0.2401 C   0  0  0  0  0  0  0  0  0  0  0  0
   -1.9964   -0.4107    0.4836 C   0  0  0  0  0  0  0  0  0  0  0  0
   -0.8821    0.6045    0.3375 C   0  0  0  0  0  0  0  0  0  0  0  0
   -0.4446    0.8960   -1.0246 C   0  0  0  0  0  0  0  0  0  0  0  0
    0.4372    0.0844   -0.0564 C   0  0  0  0  0  0  0  0  0  0  0  0
    1.6192    0.7281    0.2286 O   0  0  0  0  0  0  0  0  0  0  0  0
    2.6295   -0.2258    0.2194 C   0  0  0  0  0  0  0  0  0  0  0  0
    3.9599    0.3569    0.5164 C   0  0  0  0  0  0  0  0  0  0  0  0
    4.9109   -0.3978    0.5316 O   0  0  0  0  0  0  0  0  0  0  0  0
   -3.1368    0.0101   -1.3373 H   0  0  0  0  0  0  0  0  0  0  0  0
   -4.0458   -0.6761    0.0258 H   0  0  0  0  0  0  0  0  0  0  0  0
   -3.5400    1.0415    0.1255 H   0  0  0  0  0  0  0  0  0  0  0  0
   -1.7033   -1.3843    0.0023 H   0  0  0  0  0  0  0  0  0  0  0  0
   -2.2739   -0.5897    1.5365 H   0  0  0  0  0  0  0  0  0  0  0  0
   -0.9563    1.4304    1.0718 H   0  0  0  0  0  0  0  0  0  0  0  0
   -0.7354    0.3264   -1.9092 H   0  0  0  0  0  0  0  0  0  0  0  0
   -0.1688    1.9430   -1.2436 H   0  0  0  0  0  0  0  0  0  0  0  0
    0.5124   -0.9974   -0.2270 H   0  0  0  0  0  0  0  0  0  0  0  0
    2.3767   -0.9565    1.0334 H   0  0  0  0  0  0  0  0  0  0  0  0
    2.6777   -0.7085   -0.7763 H   0  0  0  0  0  0  0  0  0  0  0  0
    4.0127    1.4143    0.7021 H   0  0  0  0  0  0  0  0  0  0  0  0
  1  2  1  0
  2  3  1  0
  3  4  1  0
  4  5  1  0
  5  6  1  0
  6  7  1  0
  7  8  1  0
  8  9  2  0
  5  3  1  0
  1 10  1  0
  1 11  1  0
  1 12  1  0
  2 13  1  0
  2 14  1  0
  3 15  1  0
  4 16  1  0
  4 17  1  0
  5 18  1  0
  7 19  1  0
  7 20  1  0
  8 21  1  0
M  END
