
     RDKit          3D

 20 21  0  0  0  0  0  0  0  0999 V2000
    2.3918    0.2966   -0.1839 C   0  0  0  0  0  0  0  0  0  0  0  0
    1.2626    0.3483    0.7984 C   0  0  0  0  0  0  0  0  0  0  0  0
   -0.0855    0.1823    0.1718 C   0  0  0  0  0  0  0  0  0  0  0  0
   -1.2691    0.2248    1.1094 C   0  0  0  0  0  0  0  0  0  0  0  0
   -2.1942   -0.7629    0.5363 C   0  0  0  0  0  0  0  0  0  0  0  0
   -1.7201   -1.2940   -0.5877 C   0  0  0  0  0  0  0  0  0  0  0  0
   -0.3900   -0.7182   -0.9178 C   0  0  0  0  0  0  0  0  0  0  0  0
   -0.3585    0.7604   -1.1943 C   0  0  0  0  0  0  0  0  0  0  0  0
    3.3321    0.4887    0.4067 H   0  0  0  0  0  0  0  0  0  0  0  0
    2.3507    1.0822   -0.9482 H   0  0  0  0  0  0  0  0  0  0  0  0
    2.5042   -0.7184   -0.5959 H   0  0  0  0  0  0  0  0  0  0  0  0
    1.4242   -0.4572    1.5477 H   0  0  0  0  0  0  0  0  0  0  0  0
    1.3088    1.3111    1.3696 H   0  0  0  0  0  0  0  0  0  0  0  0
   -1.6535    1.2517    1.1227 H   0  0  0  0  0  0  0  0  0  0  0  0
   -0.9181   -0.0682    2.1364 H   0  0  0  0  0  0  0  0  0  0  0  0
   -3.1530   -1.0181    0.9928 H   0  0  0  0  0  0  0  0  0  0  0  0
   -2.2650   -2.0457   -1.1574 H   0  0  0  0  0  0  0  0  0  0  0  0
    0.3105   -1.3245   -1.4855 H   0  0  0  0  0  0  0  0  0  0  0  0
   -1.3460    1.2382   -1.3916 H   0  0  0  0  0  0  0  0  0  0  0  0
    0.4681    1.2230   -1.7294 H   0  0  0  0  0  0  0  0  0  0  0  0
  1  2  1  0
  2  3  1  0
  3  4  1  0
  4  5  1  0
  5  6  2  0
  6  7  1  0
  7  8  1  0
  7  3  1  0
  8  3  1  0
  1  9  1  0
  1 10  1  0
  1 11  1  0
  2 12  1  0
  2 13  1  0
  4 14  1  0
  4 15  1  0
  5 16  1  0
  6 17  1  0
  7 18  1  0
  8 19  1  0
  8 20  1  0
M  END
