
     RDKit          3D

 23 24  0  0  0  0  0  0  0  0999 V2000
    3.0582   -0.2757   -0.3685 C   0  0  0  0  0  0  0  0  0  0  0  0
    2.1000    0.6000    0.4001 C   0  0  0  0  0  0  0  0  0  0  0  0
    0.7433   -0.0455    0.4527 C   0  0  0  0  0  0  0  0  0  0  0  0
   -0.3814    0.6619    1.1788 C   0  0  0  0  0  0  0  0  0  0  0  0
   -1.3242   -0.0167    0.1719 C   0  0  0  0  0  0  0  0  0  0  0  0
   -2.1707    0.9258   -0.6178 C   0  0  0  0  0  0  0  0  0  0  0  0
   -2.0857   -1.1723    0.7478 C   0  0  0  0  0  0  0  0  0  0  0  0
   -0.0736   -0.5081   -0.5253 C   0  0  0  0  0  0  0  0  0  0  0  0
    0.6650   -1.4028    0.2875 O   0  0  0  0  0  0  0  0  0  0  0  0
    3.4847   -1.0627    0.2952 H   0  0  0  0  0  0  0  0  0  0  0  0
    2.4885   -0.7513   -1.1865 H   0  0  0  0  0  0  0  0  0  0  0  0
    3.8932    0.3395   -0.7709 H   0  0  0  0  0  0  0  0  0  0  0  0
    2.5055    0.6838    1.4354 H   0  0  0  0  0  0  0  0  0  0  0  0
    2.0196    1.5822   -0.1024 H   0  0  0  0  0  0  0  0  0  0  0  0
   -0.5396    0.3314    2.2186 H   0  0  0  0  0  0  0  0  0  0  0  0
   -0.4224    1.7479    1.0074 H   0  0  0  0  0  0  0  0  0  0  0  0
   -2.9674    0.3496   -1.1078 H   0  0  0  0  0  0  0  0  0  0  0  0
   -1.5605    1.5185   -1.3305 H   0  0  0  0  0  0  0  0  0  0  0  0
   -2.5860    1.6801    0.1101 H   0  0  0  0  0  0  0  0  0  0  0  0
   -1.7211   -2.1531    0.3342 H   0  0  0  0  0  0  0  0  0  0  0  0
   -1.9172   -1.2596    1.8584 H   0  0  0  0  0  0  0  0  0  0  0  0
   -3.1712   -1.1496    0.5238 H   0  0  0  0  0  0  0  0  0  0  0  0
   -0.0369   -0.6233   -1.6027 H   0  0  0  0  0  0  0  0  0  0  0  0
  1  2  1  0
  2  3  1  0
  3  4  1  0
  4  5  1  0
  5  6  1  0
  5  7  1  0
  5  8  1  0
  8  9  1  0
  8  3  1  0
  9  3  1  0
  1 10  1  0
  1 11  1  0
  1 12  1  0
  2 13  1  0
  2 14  1  0
  4 15  1  0
  4 16  1  0
  6 17  1  0
  6 18  1  0
  6 19  1  0
  7 20  1  0
  7 21  1  0
  7 22  1  0
  8 23  1  0
M  END
