
     RDKit          3D

 21 21  0  0  0  0  0  0  0  0999 V2000
    2.5516    0.1027    0.1389 C   0  0  0  0  0  0  0  0  0  0  0  0
    1.2185    0.5026    0.7241 C   0  0  0  0  0  0  0  0  0  0  0  0
    0.1485    0.0770   -0.2385 C   0  0  0  0  0  0  0  0  0  0  0  0
    0.1479   -1.4173   -0.4791 C   0  0  0  0  0  0  0  0  0  0  0  0
   -1.0712   -1.6186   -1.0988 O   0  0  0  0  0  0  0  0  0  0  0  0
   -1.9792   -0.7324   -0.5949 C   0  0  0  0  0  0  0  0  0  0  0  0
   -1.2452    0.2369    0.3057 C   0  0  0  0  0  0  0  0  0  0  0  0
   -1.7566    1.6034    0.2461 C   0  0  0  0  0  0  0  0  0  0  0  0
   -1.5078    2.3851   -0.6404 O   0  0  0  0  0  0  0  0  0  0  0  0
    2.4861    0.0135   -0.9850 H   0  0  0  0  0  0  0  0  0  0  0  0
    3.3436    0.8475    0.3388 H   0  0  0  0  0  0  0  0  0  0  0  0
    2.8987   -0.8865    0.5308 H   0  0  0  0  0  0  0  0  0  0  0  0
    1.0918   -0.0730    1.6714 H   0  0  0  0  0  0  0  0  0  0  0  0
    1.1577    1.5655    1.0028 H   0  0  0  0  0  0  0  0  0  0  0  0
    0.2456    0.5667   -1.2243 H   0  0  0  0  0  0  0  0  0  0  0  0
    0.1273   -1.8949    0.5264 H   0  0  0  0  0  0  0  0  0  0  0  0
    1.0003   -1.7521   -1.0935 H   0  0  0  0  0  0  0  0  0  0  0  0
   -2.8454   -1.2065   -0.0832 H   0  0  0  0  0  0  0  0  0  0  0  0
   -2.3518   -0.1114   -1.4629 H   0  0  0  0  0  0  0  0  0  0  0  0
   -1.2495   -0.1559    1.3571 H   0  0  0  0  0  0  0  0  0  0  0  0
   -2.4109    1.9475    1.0585 H   0  0  0  0  0  0  0  0  0  0  0  0
  1  2  1  0
  2  3  1  0
  3  4  1  0
  4  5  1  0
  5  6  1  0
  6  7  1  0
  7  8  1  0
  8  9  2  0
  7  3  1  0
  1 10  1  0
  1 11  1  0
  1 12  1  0
  2 13  1  0
  2 14  1  0
  3 15  1  0
  4 16  1  0
  4 17  1  0
  6 18  1  0
  6 19  1  0
  7 20  1  0
  8 21  1  0
M  END
