
     RDKit          3D

 25 26  0  0  0  0  0  0  0  0999 V2000
    2.8607   -0.7095   -0.8076 C   0  0  0  0  0  0  0  0  0  0  0  0
    2.1347   -0.2814    0.4637 C   0  0  0  0  0  0  0  0  0  0  0  0
    0.6778   -0.4031    0.2089 C   0  0  0  0  0  0  0  0  0  0  0  0
   -0.2910   -0.0518    1.2799 C   0  0  0  0  0  0  0  0  0  0  0  0
    0.0041    1.3812    0.9840 C   0  0  0  0  0  0  0  0  0  0  0  0
   -0.0645    0.7423   -0.3733 C   0  0  0  0  0  0  0  0  0  0  0  0
   -1.3062    0.0735    0.1602 C   0  0  0  0  0  0  0  0  0  0  0  0
   -2.4370    1.0251    0.3961 C   0  0  0  0  0  0  0  0  0  0  0  0
   -1.7132   -1.1987   -0.4941 C   0  0  0  0  0  0  0  0  0  0  0  0
    2.2599   -1.5412   -1.2367 H   0  0  0  0  0  0  0  0  0  0  0  0
    3.8692   -1.1149   -0.5789 H   0  0  0  0  0  0  0  0  0  0  0  0
    2.9036    0.0800   -1.5556 H   0  0  0  0  0  0  0  0  0  0  0  0
    2.4991    0.6640    0.8543 H   0  0  0  0  0  0  0  0  0  0  0  0
    2.4381   -1.0567    1.2306 H   0  0  0  0  0  0  0  0  0  0  0  0
    0.4762   -1.3425   -0.3523 H   0  0  0  0  0  0  0  0  0  0  0  0
   -0.4459   -0.4871    2.1640 H   0  0  0  0  0  0  0  0  0  0  0  0
    0.9301    1.8218    1.3223 H   0  0  0  0  0  0  0  0  0  0  0  0
   -0.8324    2.0769    1.2110 H   0  0  0  0  0  0  0  0  0  0  0  0
    0.0425    1.1862   -1.2613 H   0  0  0  0  0  0  0  0  0  0  0  0
   -2.6496    1.1936    1.4719 H   0  0  0  0  0  0  0  0  0  0  0  0
   -3.3962    0.5887   -0.0134 H   0  0  0  0  0  0  0  0  0  0  0  0
   -2.3274    1.9897   -0.1703 H   0  0  0  0  0  0  0  0  0  0  0  0
   -1.4386   -1.2570   -1.5798 H   0  0  0  0  0  0  0  0  0  0  0  0
   -1.3666   -2.1164    0.0567 H   0  0  0  0  0  0  0  0  0  0  0  0
   -2.8272   -1.2628   -0.4704 H   0  0  0  0  0  0  0  0  0  0  0  0
  1  2  1  0
  2  3  1  0
  3  4  1  0
  4  5  1  0
  5  6  1  0
  6  7  1  0
  7  8  1  0
  7  9  1  0
  6  3  1  0
  7  4  1  0
  1 10  1  0
  1 11  1  0
  1 12  1  0
  2 13  1  0
  2 14  1  0
  3 15  1  0
  4 16  1  0
  5 17  1  0
  5 18  1  0
  6 19  1  0
  8 20  1  0
  8 21  1  0
  8 22  1  0
  9 23  1  0
  9 24  1  0
  9 25  1  0
M  END
