
     RDKit          3D

 25 26  0  0  0  0  0  0  0  0999 V2000
    2.9069   -0.8087   -0.3241 C   0  0  0  0  0  0  0  0  0  0  0  0
    1.5619   -0.4709   -0.9816 C   0  0  0  0  0  0  0  0  0  0  0  0
    0.9042    0.5593   -0.1554 C   0  0  0  0  0  0  0  0  0  0  0  0
    0.6466    0.1004    1.2686 C   0  0  0  0  0  0  0  0  0  0  0  0
   -0.3243    1.2008    1.2273 C   0  0  0  0  0  0  0  0  0  0  0  0
   -1.4902    1.5137    0.4791 C   0  0  0  0  0  0  0  0  0  0  0  0
   -0.5939    0.6242   -0.1924 C   0  0  0  0  0  0  0  0  0  0  0  0
   -1.2101   -0.7084   -0.4120 C   0  0  0  0  0  0  0  0  0  0  0  0
   -2.7376   -0.5117   -0.4592 C   0  0  0  0  0  0  0  0  0  0  0  0
    3.3565    0.0670    0.1619 H   0  0  0  0  0  0  0  0  0  0  0  0
    2.7643   -1.5761    0.4733 H   0  0  0  0  0  0  0  0  0  0  0  0
    3.5473   -1.2740   -1.0941 H   0  0  0  0  0  0  0  0  0  0  0  0
    1.7215   -0.0826   -2.0024 H   0  0  0  0  0  0  0  0  0  0  0  0
    1.0112   -1.4239   -1.0226 H   0  0  0  0  0  0  0  0  0  0  0  0
    1.3371    1.5562   -0.1500 H   0  0  0  0  0  0  0  0  0  0  0  0
    0.3809   -0.9287    1.4393 H   0  0  0  0  0  0  0  0  0  0  0  0
    1.5145    0.3198    1.9570 H   0  0  0  0  0  0  0  0  0  0  0  0
    0.3150    2.1638    1.2467 H   0  0  0  0  0  0  0  0  0  0  0  0
   -1.7026    2.4744   -0.0772 H   0  0  0  0  0  0  0  0  0  0  0  0
   -2.4514    1.2097    0.9963 H   0  0  0  0  0  0  0  0  0  0  0  0
   -0.9701   -1.1480   -1.4017 H   0  0  0  0  0  0  0  0  0  0  0  0
   -1.1115   -1.4495    0.4059 H   0  0  0  0  0  0  0  0  0  0  0  0
   -3.1750   -0.6249    0.5510 H   0  0  0  0  0  0  0  0  0  0  0  0
   -3.1985   -1.2832   -1.1092 H   0  0  0  0  0  0  0  0  0  0  0  0
   -3.0025    0.5015   -0.8246 H   0  0  0  0  0  0  0  0  0  0  0  0
  1  2  1  0
  2  3  1  0
  3  4  1  0
  4  5  1  0
  5  6  1  0
  6  7  1  0
  7  8  1  0
  8  9  1  0
  7  3  1  0
  7  5  1  0
  1 10  1  0
  1 11  1  0
  1 12  1  0
  2 13  1  0
  2 14  1  0
  3 15  1  0
  4 16  1  0
  4 17  1  0
  5 18  1  0
  6 19  1  0
  6 20  1  0
  8 21  1  0
  8 22  1  0
  9 23  1  0
  9 24  1  0
  9 25  1  0
M  END
