
     RDKit          3D

 19 20  0  0  0  0  0  0  0  0999 V2000
    2.4698   -0.0577    0.4519 C   0  0  0  0  0  0  0  0  0  0  0  0
    1.6032    0.2619   -0.7441 C   0  0  0  0  0  0  0  0  0  0  0  0
    0.1596    0.0879   -0.4435 C   0  0  0  0  0  0  0  0  0  0  0  0
   -0.6866   -0.7635   -1.0772 C   0  0  0  0  0  0  0  0  0  0  0  0
   -1.9644   -0.5032   -0.3740 C   0  0  0  0  0  0  0  0  0  0  0  0
   -1.4691   -0.4946    1.0819 C   0  0  0  0  0  0  0  0  0  0  0  0
   -0.7148    0.7314    0.5478 C   0  0  0  0  0  0  0  0  0  0  0  0
   -1.9389    0.9674   -0.2483 C   0  0  0  0  0  0  0  0  0  0  0  0
   -2.5934    1.8977   -0.6145 O   0  0  0  0  0  0  0  0  0  0  0  0
    3.0766   -0.9790    0.3021 H   0  0  0  0  0  0  0  0  0  0  0  0
    3.1842    0.7803    0.5950 H   0  0  0  0  0  0  0  0  0  0  0  0
    1.8533   -0.1761    1.3703 H   0  0  0  0  0  0  0  0  0  0  0  0
    1.8077    1.3006   -1.1129 H   0  0  0  0  0  0  0  0  0  0  0  0
    1.9253   -0.4156   -1.5601 H   0  0  0  0  0  0  0  0  0  0  0  0
   -0.4618   -1.4483   -1.8870 H   0  0  0  0  0  0  0  0  0  0  0  0
   -2.8391   -1.0272   -0.6048 H   0  0  0  0  0  0  0  0  0  0  0  0
   -2.2490   -0.2697    1.8068 H   0  0  0  0  0  0  0  0  0  0  0  0
   -0.7998   -1.3334    1.2781 H   0  0  0  0  0  0  0  0  0  0  0  0
   -0.3626    1.4411    1.2324 H   0  0  0  0  0  0  0  0  0  0  0  0
  1  2  1  0
  2  3  1  0
  3  4  2  0
  4  5  1  0
  5  6  1  0
  6  7  1  0
  7  8  1  0
  8  9  2  0
  7  3  1  0
  8  5  1  0
  1 10  1  0
  1 11  1  0
  1 12  1  0
  2 13  1  0
  2 14  1  0
  4 15  1  0
  5 16  1  0
  6 17  1  0
  6 18  1  0
  7 19  1  0
M  END
