
     RDKit          3D

 19 20  0  0  0  0  0  0  0  0999 V2000
    2.3740   -0.3136    0.6433 C   0  0  0  0  0  0  0  0  0  0  0  0
    1.1658    0.5713    0.3541 C   0  0  0  0  0  0  0  0  0  0  0  0
    0.2233   -0.0828   -0.6267 C   0  0  0  0  0  0  0  0  0  0  0  0
   -0.3331   -1.3783   -0.1882 C   0  0  0  0  0  0  0  0  0  0  0  0
    0.1389   -2.4678    0.0668 O   0  0  0  0  0  0  0  0  0  0  0  0
   -1.7120   -0.8359   -0.1766 C   0  0  0  0  0  0  0  0  0  0  0  0
   -1.9942    0.3409    0.6607 C   0  0  0  0  0  0  0  0  0  0  0  0
   -1.1723    0.4884   -0.5609 C   0  0  0  0  0  0  0  0  0  0  0  0
   -1.6102    1.1825   -1.6564 O   0  0  0  0  0  0  0  0  0  0  0  0
    3.0615   -0.1869   -0.2394 H   0  0  0  0  0  0  0  0  0  0  0  0
    2.8397    0.1206    1.5725 H   0  0  0  0  0  0  0  0  0  0  0  0
    2.0966   -1.3689    0.7765 H   0  0  0  0  0  0  0  0  0  0  0  0
    0.6933    0.7938    1.3303 H   0  0  0  0  0  0  0  0  0  0  0  0
    1.5756    1.5181   -0.0485 H   0  0  0  0  0  0  0  0  0  0  0  0
    0.6433   -0.1003   -1.6340 H   0  0  0  0  0  0  0  0  0  0  0  0
   -2.5001   -1.3361   -0.7730 H   0  0  0  0  0  0  0  0  0  0  0  0
   -1.5388    0.3284    1.6756 H   0  0  0  0  0  0  0  0  0  0  0  0
   -2.9903    0.7857    0.6313 H   0  0  0  0  0  0  0  0  0  0  0  0
   -0.9611    1.9407   -1.8074 H   0  0  0  0  0  0  0  0  0  0  0  0
  1  2  1  0
  2  3  1  0
  3  4  1  0
  4  5  2  0
  4  6  1  0
  6  7  1  0
  7  8  1  0
  8  9  1  0
  8  3  1  0
  8  6  1  0
  1 10  1  0
  1 11  1  0
  1 12  1  0
  2 13  1  0
  2 14  1  0
  3 15  1  0
  6 16  1  0
  7 17  1  0
  7 18  1  0
  9 19  1  0
M  END
