
     RDKit          3D

 21 22  0  0  0  0  0  0  0  0999 V2000
   -2.2170    1.0239    0.2866 C   0  0  0  0  0  0  0  0  0  0  0  0
   -1.6613   -0.0323   -0.6306 C   0  0  0  0  0  0  0  0  0  0  0  0
   -0.4165   -0.6760   -0.1134 C   0  0  0  0  0  0  0  0  0  0  0  0
    0.7437    0.2382    0.1205 C   0  0  0  0  0  0  0  0  0  0  0  0
    1.8070    0.2649   -0.9327 C   0  0  0  0  0  0  0  0  0  0  0  0
    2.5975    0.6446    0.3284 C   0  0  0  0  0  0  0  0  0  0  0  0
    1.7262   -0.2498    0.9945 O   0  0  0  0  0  0  0  0  0  0  0  0
   -0.4896   -1.9203    0.7262 C   0  0  0  0  0  0  0  0  0  0  0  0
   -0.1407   -1.9240   -0.6595 O   0  0  0  0  0  0  0  0  0  0  0  0
   -3.1468    1.4121   -0.2043 H   0  0  0  0  0  0  0  0  0  0  0  0
   -2.5695    0.5520    1.2404 H   0  0  0  0  0  0  0  0  0  0  0  0
   -1.5643    1.8816    0.4395 H   0  0  0  0  0  0  0  0  0  0  0  0
   -2.4366   -0.8035   -0.7672 H   0  0  0  0  0  0  0  0  0  0  0  0
   -1.4452    0.4395   -1.6188 H   0  0  0  0  0  0  0  0  0  0  0  0
    0.4569    1.2494    0.4372 H   0  0  0  0  0  0  0  0  0  0  0  0
    1.7028    1.0940   -1.6602 H   0  0  0  0  0  0  0  0  0  0  0  0
    2.1702   -0.6897   -1.3051 H   0  0  0  0  0  0  0  0  0  0  0  0
    2.3565    1.6652    0.6735 H   0  0  0  0  0  0  0  0  0  0  0  0
    3.6408    0.3434    0.3173 H   0  0  0  0  0  0  0  0  0  0  0  0
    0.3786   -2.1643    1.3538 H   0  0  0  0  0  0  0  0  0  0  0  0
   -1.4926   -2.3488    0.9740 H   0  0  0  0  0  0  0  0  0  0  0  0
  1  2  1  0
  2  3  1  0
  3  4  1  0
  4  5  1  0
  5  6  1  0
  6  7  1  0
  3  8  1  0
  8  9  1  0
  9  3  1  0
  7  4  1  0
  1 10  1  0
  1 11  1  0
  1 12  1  0
  2 13  1  0
  2 14  1  0
  4 15  1  0
  5 16  1  0
  5 17  1  0
  6 18  1  0
  6 19  1  0
  8 20  1  0
  8 21  1  0
M  END
