
     RDKit          3D

 23 24  0  0  0  0  0  0  0  0999 V2000
    2.7965   -0.0346   -0.6858 C   0  0  0  0  0  0  0  0  0  0  0  0
    1.7523   -0.6856    0.1611 C   0  0  0  0  0  0  0  0  0  0  0  0
    0.3396   -0.4197   -0.3792 C   0  0  0  0  0  0  0  0  0  0  0  0
    0.0429    1.0439   -0.4131 C   0  0  0  0  0  0  0  0  0  0  0  0
   -1.2937    1.4045    0.1794 C   0  0  0  0  0  0  0  0  0  0  0  0
   -2.3436    0.4038   -0.2389 C   0  0  0  0  0  0  0  0  0  0  0  0
   -1.9936   -0.9164    0.3930 C   0  0  0  0  0  0  0  0  0  0  0  0
   -1.5725   -1.9652   -0.4192 O   0  0  0  0  0  0  0  0  0  0  0  0
   -0.6014   -1.2297    0.4420 C   0  0  0  0  0  0  0  0  0  0  0  0
    2.4321    0.2923   -1.6828 H   0  0  0  0  0  0  0  0  0  0  0  0
    3.6224   -0.7619   -0.8455 H   0  0  0  0  0  0  0  0  0  0  0  0
    3.2724    0.8302   -0.1484 H   0  0  0  0  0  0  0  0  0  0  0  0
    1.8712   -1.7903    0.2396 H   0  0  0  0  0  0  0  0  0  0  0  0
    1.8430   -0.2777    1.1976 H   0  0  0  0  0  0  0  0  0  0  0  0
    0.3870   -0.7728   -1.4514 H   0  0  0  0  0  0  0  0  0  0  0  0
    0.8057    1.6574    0.1239 H   0  0  0  0  0  0  0  0  0  0  0  0
    0.0459    1.4557   -1.4647 H   0  0  0  0  0  0  0  0  0  0  0  0
   -1.1894    1.3948    1.2734 H   0  0  0  0  0  0  0  0  0  0  0  0
   -1.6000    2.4093   -0.2191 H   0  0  0  0  0  0  0  0  0  0  0  0
   -3.3310    0.7611    0.1256 H   0  0  0  0  0  0  0  0  0  0  0  0
   -2.4077    0.3568   -1.3463 H   0  0  0  0  0  0  0  0  0  0  0  0
   -2.6539   -1.2324    1.2162 H   0  0  0  0  0  0  0  0  0  0  0  0
   -0.2241   -1.9236    1.2219 H   0  0  0  0  0  0  0  0  0  0  0  0
  1  2  1  0
  2  3  1  0
  3  4  1  0
  4  5  1  0
  5  6  1  0
  6  7  1  0
  7  8  1  0
  8  9  1  0
  9  3  1  0
  9  7  1  0
  1 10  1  0
  1 11  1  0
  1 12  1  0
  2 13  1  0
  2 14  1  0
  3 15  1  0
  4 16  1  0
  4 17  1  0
  5 18  1  0
  5 19  1  0
  6 20  1  0
  6 21  1  0
  7 22  1  0
  9 23  1  0
M  END
