
     RDKit          3D

 21 22  0  0  0  0  0  0  0  0999 V2000
   -2.4296    0.8156    0.4818 C   0  0  0  0  0  0  0  0  0  0  0  0
   -1.4994   -0.3523    0.6816 C   0  0  0  0  0  0  0  0  0  0  0  0
   -0.4947   -0.5057   -0.4257 C   0  0  0  0  0  0  0  0  0  0  0  0
    0.3521   -1.6827   -0.1077 C   0  0  0  0  0  0  0  0  0  0  0  0
    1.6258   -1.3651   -0.1057 C   0  0  0  0  0  0  0  0  0  0  0  0
    1.8045    0.0594   -0.4202 C   0  0  0  0  0  0  0  0  0  0  0  0
    1.8586    0.9619    0.7840 C   0  0  0  0  0  0  0  0  0  0  0  0
    0.5951    1.4557    0.5614 O   0  0  0  0  0  0  0  0  0  0  0  0
    0.4326    0.6687   -0.5520 C   0  0  0  0  0  0  0  0  0  0  0  0
   -3.4595    0.5424    0.8572 H   0  0  0  0  0  0  0  0  0  0  0  0
   -2.4787    1.1248   -0.5731 H   0  0  0  0  0  0  0  0  0  0  0  0
   -2.0913    1.6309    1.1569 H   0  0  0  0  0  0  0  0  0  0  0  0
   -0.9430   -0.2812    1.6381 H   0  0  0  0  0  0  0  0  0  0  0  0
   -2.0648   -1.3146    0.7352 H   0  0  0  0  0  0  0  0  0  0  0  0
   -0.9681   -0.6769   -1.4101 H   0  0  0  0  0  0  0  0  0  0  0  0
   -0.0435   -2.6591    0.0919 H   0  0  0  0  0  0  0  0  0  0  0  0
    2.4284   -2.0595    0.0996 H   0  0  0  0  0  0  0  0  0  0  0  0
    2.4803    0.3057   -1.2497 H   0  0  0  0  0  0  0  0  0  0  0  0
    2.6866    1.6776    0.6949 H   0  0  0  0  0  0  0  0  0  0  0  0
    1.8720    0.3817    1.7376 H   0  0  0  0  0  0  0  0  0  0  0  0
    0.3365    1.2728   -1.4765 H   0  0  0  0  0  0  0  0  0  0  0  0
  1  2  1  0
  2  3  1  0
  3  4  1  0
  4  5  2  0
  5  6  1  0
  6  7  1  0
  7  8  1  0
  8  9  1  0
  9  3  1  0
  9  6  1  0
  1 10  1  0
  1 11  1  0
  1 12  1  0
  2 13  1  0
  2 14  1  0
  3 15  1  0
  4 16  1  0
  5 17  1  0
  6 18  1  0
  7 19  1  0
  7 20  1  0
  9 21  1  0
M  END
