
     RDKit          3D

 21 21  0  0  0  0  0  0  0  0999 V2000
    2.6566   -0.7069    0.1313 C   0  0  0  0  0  0  0  0  0  0  0  0
    1.5862    0.0330   -0.6105 C   0  0  0  0  0  0  0  0  0  0  0  0
    0.5209    0.5910    0.3082 C   0  0  0  0  0  0  0  0  0  0  0  0
   -0.5853    1.3480   -0.3879 C   0  0  0  0  0  0  0  0  0  0  0  0
   -1.1441    2.5492    0.2970 C   0  0  0  0  0  0  0  0  0  0  0  0
   -1.1620    2.6299    1.5107 O   0  0  0  0  0  0  0  0  0  0  0  0
   -0.8640   -0.0148    0.2754 C   0  0  0  0  0  0  0  0  0  0  0  0
   -1.1142   -1.0695   -0.5781 O   0  0  0  0  0  0  0  0  0  0  0  0
   -2.0766   -1.9491   -0.0895 C   0  0  0  0  0  0  0  0  0  0  0  0
    2.8457   -0.2680    1.1442 H   0  0  0  0  0  0  0  0  0  0  0  0
    3.6001   -0.7091   -0.4720 H   0  0  0  0  0  0  0  0  0  0  0  0
    2.3876   -1.7906    0.2405 H   0  0  0  0  0  0  0  0  0  0  0  0
    2.0287    0.8973   -1.1535 H   0  0  0  0  0  0  0  0  0  0  0  0
    1.1084   -0.6511   -1.3638 H   0  0  0  0  0  0  0  0  0  0  0  0
    0.8781    0.9763    1.2681 H   0  0  0  0  0  0  0  0  0  0  0  0
   -0.6087    1.3577   -1.4965 H   0  0  0  0  0  0  0  0  0  0  0  0
   -1.5410    3.3637   -0.2985 H   0  0  0  0  0  0  0  0  0  0  0  0
   -1.4376    0.0132    1.2220 H   0  0  0  0  0  0  0  0  0  0  0  0
   -1.7972   -2.4081    0.8754 H   0  0  0  0  0  0  0  0  0  0  0  0
   -3.0614   -1.4582    0.0412 H   0  0  0  0  0  0  0  0  0  0  0  0
   -2.2204   -2.7338   -0.8640 H   0  0  0  0  0  0  0  0  0  0  0  0
  1  2  1  0
  2  3  1  0
  3  4  1  0
  4  5  1  0
  5  6  2  0
  4  7  1  0
  7  8  1  0
  8  9  1  0
  7  3  1  0
  1 10  1  0
  1 11  1  0
  1 12  1  0
  2 13  1  0
  2 14  1  0
  3 15  1  0
  4 16  1  0
  5 17  1  0
  7 18  1  0
  9 19  1  0
  9 20  1  0
  9 21  1  0
M  END
