
     RDKit          3D

 10  9  0  0  0  0  0  0  0  0999 V2000
   -1.1150   -0.1439    0.2365 C   0  0  0  0  0  0  0  0  0  0  0  0
    0.1214    0.5038   -0.3368 C   0  0  0  0  0  0  0  0  0  0  0  0
    1.3553   -0.2499    0.0294 C   0  0  0  0  0  0  0  0  0  0  0  0
    1.3539   -1.2622    0.7079 O   0  0  0  0  0  0  0  0  0  0  0  0
   -1.9892   -0.0365   -0.4477 H   0  0  0  0  0  0  0  0  0  0  0  0
   -0.9076   -1.2228    0.3300 H   0  0  0  0  0  0  0  0  0  0  0  0
   -1.4106    0.2673    1.2083 H   0  0  0  0  0  0  0  0  0  0  0  0
    0.2587    1.5383    0.0308 H   0  0  0  0  0  0  0  0  0  0  0  0
    0.0102    0.5090   -1.4465 H   0  0  0  0  0  0  0  0  0  0  0  0
    2.3227    0.0969   -0.3119 H   0  0  0  0  0  0  0  0  0  0  0  0
  1  2  1  0
  2  3  1  0
  3  4  2  0
  1  5  1  0
  1  6  1  0
  1  7  1  0
  2  8  1  0
  2  9  1  0
  3 10  1  0
M  END
