
     RDKit          3D

 23 23  0  0  0  0  0  0  0  0999 V2000
   -3.0683   -0.0971   -0.1957 C   0  0  0  0  0  0  0  0  0  0  0  0
   -2.1759   -0.1642    1.0234 C   0  0  0  0  0  0  0  0  0  0  0  0
   -0.7942   -0.6733    0.6458 C   0  0  0  0  0  0  0  0  0  0  0  0
   -0.2081    0.2709   -0.3541 C   0  0  0  0  0  0  0  0  0  0  0  0
    1.1684   -0.1255   -0.8236 C   0  0  0  0  0  0  0  0  0  0  0  0
    1.1309   -1.4116   -1.4159 O   0  0  0  0  0  0  0  0  0  0  0  0
    2.1213   -0.0252    0.3193 C   0  0  0  0  0  0  0  0  0  0  0  0
    3.1858    1.0665    0.1332 C   0  0  0  0  0  0  0  0  0  0  0  0
    3.4723   -0.2799    0.1322 O   0  0  0  0  0  0  0  0  0  0  0  0
   -2.8499    0.8417   -0.7536 H   0  0  0  0  0  0  0  0  0  0  0  0
   -4.1317   -0.0825    0.1698 H   0  0  0  0  0  0  0  0  0  0  0  0
   -2.9045   -0.9765   -0.8767 H   0  0  0  0  0  0  0  0  0  0  0  0
   -2.1042    0.8613    1.4383 H   0  0  0  0  0  0  0  0  0  0  0  0
   -2.6081   -0.8007    1.8214 H   0  0  0  0  0  0  0  0  0  0  0  0
   -0.9066   -1.6701    0.1673 H   0  0  0  0  0  0  0  0  0  0  0  0
   -0.1580   -0.7317    1.5424 H   0  0  0  0  0  0  0  0  0  0  0  0
   -0.0863    1.2786    0.1446 H   0  0  0  0  0  0  0  0  0  0  0  0
   -0.8921    0.4867   -1.2035 H   0  0  0  0  0  0  0  0  0  0  0  0
    1.4569    0.6210   -1.6360 H   0  0  0  0  0  0  0  0  0  0  0  0
    2.0686   -1.5511   -1.7627 H   0  0  0  0  0  0  0  0  0  0  0  0
    1.6824   -0.1046    1.3223 H   0  0  0  0  0  0  0  0  0  0  0  0
    3.3494    1.6953    1.0069 H   0  0  0  0  0  0  0  0  0  0  0  0
    3.2518    1.5720   -0.8452 H   0  0  0  0  0  0  0  0  0  0  0  0
  1  2  1  0
  2  3  1  0
  3  4  1  0
  4  5  1  0
  5  6  1  0
  5  7  1  0
  7  8  1  0
  8  9  1  0
  9  7  1  0
  1 10  1  0
  1 11  1  0
  1 12  1  0
  2 13  1  0
  2 14  1  0
  3 15  1  0
  3 16  1  0
  4 17  1  0
  4 18  1  0
  5 19  1  0
  6 20  1  0
  7 21  1  0
  8 22  1  0
  8 23  1  0
M  END
