
     RDKit          3D

 21 20  0  0  0  0  0  0  0  0999 V2000
    2.7641    0.8842   -0.1280 C   0  0  0  0  0  0  0  0  0  0  0  0
    1.6419   -0.0309   -0.5723 C   0  0  0  0  0  0  0  0  0  0  0  0
    0.7061   -0.2207    0.5968 C   0  0  0  0  0  0  0  0  0  0  0  0
   -0.4497   -1.1045    0.2967 C   0  0  0  0  0  0  0  0  0  0  0  0
   -1.3325   -0.6242   -0.8133 C   0  0  0  0  0  0  0  0  0  0  0  0
   -1.8981    0.6116   -0.5770 O   0  0  0  0  0  0  0  0  0  0  0  0
   -2.6944    0.6650    0.5477 C   0  0  0  0  0  0  0  0  0  0  0  0
    3.0696    1.5706   -0.9358 H   0  0  0  0  0  0  0  0  0  0  0  0
    2.4394    1.5259    0.7380 H   0  0  0  0  0  0  0  0  0  0  0  0
    3.6413    0.3039    0.2534 H   0  0  0  0  0  0  0  0  0  0  0  0
    1.1138    0.4239   -1.4517 H   0  0  0  0  0  0  0  0  0  0  0  0
    2.0960   -1.0040   -0.8855 H   0  0  0  0  0  0  0  0  0  0  0  0
    1.2999   -0.6958    1.4055 H   0  0  0  0  0  0  0  0  0  0  0  0
    0.4248    0.7877    0.9510 H   0  0  0  0  0  0  0  0  0  0  0  0
   -0.0615   -2.1096    0.0378 H   0  0  0  0  0  0  0  0  0  0  0  0
   -1.0539   -1.2246    1.2063 H   0  0  0  0  0  0  0  0  0  0  0  0
   -0.8151   -0.5658   -1.7939 H   0  0  0  0  0  0  0  0  0  0  0  0
   -2.1645   -1.3446   -0.9524 H   0  0  0  0  0  0  0  0  0  0  0  0
   -3.0893    1.7134    0.6232 H   0  0  0  0  0  0  0  0  0  0  0  0
   -3.5270   -0.0531    0.5532 H   0  0  0  0  0  0  0  0  0  0  0  0
   -2.1110    0.4915    1.4989 H   0  0  0  0  0  0  0  0  0  0  0  0
  1  2  1  0
  2  3  1  0
  3  4  1  0
  4  5  1  0
  5  6  1  0
  6  7  1  0
  1  8  1  0
  1  9  1  0
  1 10  1  0
  2 11  1  0
  2 12  1  0
  3 13  1  0
  3 14  1  0
  4 15  1  0
  4 16  1  0
  5 17  1  0
  5 18  1  0
  7 19  1  0
  7 20  1  0
  7 21  1  0
M  END
