
     RDKit          3D

 23 24  0  0  0  0  0  0  0  0999 V2000
    3.2565   -0.0977    0.1536 C   0  0  0  0  0  0  0  0  0  0  0  0
    1.7922   -0.4080    0.3477 C   0  0  0  0  0  0  0  0  0  0  0  0
    0.9839    0.3947   -0.6182 C   0  0  0  0  0  0  0  0  0  0  0  0
   -0.4811    0.1763   -0.5253 C   0  0  0  0  0  0  0  0  0  0  0  0
   -1.2665    0.8962   -1.3977 O   0  0  0  0  0  0  0  0  0  0  0  0
   -1.9610    1.5322   -0.3504 C   0  0  0  0  0  0  0  0  0  0  0  0
   -1.2190    0.6837    0.6332 C   0  0  0  0  0  0  0  0  0  0  0  0
   -1.1024   -0.8229    0.3652 C   0  0  0  0  0  0  0  0  0  0  0  0
   -2.4329   -1.4379   -0.0164 C   0  0  0  0  0  0  0  0  0  0  0  0
    3.4328    0.5627   -0.7239 H   0  0  0  0  0  0  0  0  0  0  0  0
    3.8475   -1.0313    0.0335 H   0  0  0  0  0  0  0  0  0  0  0  0
    3.6785    0.4391    1.0271 H   0  0  0  0  0  0  0  0  0  0  0  0
    1.5291   -0.1334    1.3962 H   0  0  0  0  0  0  0  0  0  0  0  0
    1.6357   -1.4805    0.1456 H   0  0  0  0  0  0  0  0  0  0  0  0
    1.3619    0.1948   -1.6525 H   0  0  0  0  0  0  0  0  0  0  0  0
    1.1850    1.4831   -0.3919 H   0  0  0  0  0  0  0  0  0  0  0  0
   -3.0366    1.3775   -0.4486 H   0  0  0  0  0  0  0  0  0  0  0  0
   -1.6441    2.6020   -0.2567 H   0  0  0  0  0  0  0  0  0  0  0  0
   -0.7670    1.0927    1.5338 H   0  0  0  0  0  0  0  0  0  0  0  0
   -0.4771   -1.3540    1.0820 H   0  0  0  0  0  0  0  0  0  0  0  0
   -2.9072   -0.7997   -0.8037 H   0  0  0  0  0  0  0  0  0  0  0  0
   -2.3316   -2.4564   -0.4200 H   0  0  0  0  0  0  0  0  0  0  0  0
   -3.0765   -1.4130    0.8875 H   0  0  0  0  0  0  0  0  0  0  0  0
  1  2  1  0
  2  3  1  0
  3  4  1  0
  4  5  1  0
  5  6  1  0
  6  7  1  0
  7  8  1  0
  8  9  1  0
  7  4  1  0
  8  4  1  0
  1 10  1  0
  1 11  1  0
  1 12  1  0
  2 13  1  0
  2 14  1  0
  3 15  1  0
  3 16  1  0
  6 17  1  0
  6 18  1  0
  7 19  1  0
  8 20  1  0
  9 21  1  0
  9 22  1  0
  9 23  1  0
M  END
