
     RDKit          3D

 21 20  0  0  0  0  0  0  0  0999 V2000
   -2.6054   -0.9229    0.0939 C   0  0  0  0  0  0  0  0  0  0  0  0
   -2.5652    0.5901    0.0818 C   0  0  0  0  0  0  0  0  0  0  0  0
   -1.3579    1.1248   -0.6415 C   0  0  0  0  0  0  0  0  0  0  0  0
   -0.1144    0.6292    0.0387 C   0  0  0  0  0  0  0  0  0  0  0  0
   -0.1753   -0.1127    1.0490 O   0  0  0  0  0  0  0  0  0  0  0  0
    1.1307    0.9875   -0.4441 O   0  0  0  0  0  0  0  0  0  0  0  0
    2.2926    0.5167    0.1995 C   0  0  0  0  0  0  0  0  0  0  0  0
    2.4337   -0.9705    0.2245 C   0  0  0  0  0  0  0  0  0  0  0  0
    3.6371   -1.2825    0.8968 O   0  0  0  0  0  0  0  0  0  0  0  0
   -3.4847   -1.3174   -0.4208 H   0  0  0  0  0  0  0  0  0  0  0  0
   -1.6479   -1.3268   -0.3017 H   0  0  0  0  0  0  0  0  0  0  0  0
   -2.6698   -1.2695    1.1519 H   0  0  0  0  0  0  0  0  0  0  0  0
   -2.6450    0.9960    1.1213 H   0  0  0  0  0  0  0  0  0  0  0  0
   -3.4801    0.9351   -0.4418 H   0  0  0  0  0  0  0  0  0  0  0  0
   -1.4090    2.2230   -0.6065 H   0  0  0  0  0  0  0  0  0  0  0  0
   -1.4061    0.8085   -1.6873 H   0  0  0  0  0  0  0  0  0  0  0  0
    2.3564    0.9195    1.2506 H   0  0  0  0  0  0  0  0  0  0  0  0
    3.1582    0.9120   -0.4049 H   0  0  0  0  0  0  0  0  0  0  0  0
    1.6497   -1.5085    0.7514 H   0  0  0  0  0  0  0  0  0  0  0  0
    2.5607   -1.3269   -0.8383 H   0  0  0  0  0  0  0  0  0  0  0  0
    4.3418   -0.6048    0.6488 H   0  0  0  0  0  0  0  0  0  0  0  0
  1  2  1  0
  2  3  1  0
  3  4  1  0
  4  5  2  0
  4  6  1  0
  6  7  1  0
  7  8  1  0
  8  9  1  0
  1 10  1  0
  1 11  1  0
  1 12  1  0
  2 13  1  0
  2 14  1  0
  3 15  1  0
  3 16  1  0
  7 17  1  0
  7 18  1  0
  8 19  1  0
  8 20  1  0
  9 21  1  0
M  END
