
     RDKit          3D

 20 21  0  0  0  0  0  0  0  0999 V2000
    2.5914    0.9410   -0.2309 C   0  0  0  0  0  0  0  0  0  0  0  0
    1.4633    0.0890    0.2870 C   0  0  0  0  0  0  0  0  0  0  0  0
    0.5268   -0.3414   -0.8356 C   0  0  0  0  0  0  0  0  0  0  0  0
   -0.5561   -1.1859   -0.1902 C   0  0  0  0  0  0  0  0  0  0  0  0
   -1.3551   -0.4786    0.8509 C   0  0  0  0  0  0  0  0  0  0  0  0
   -2.0466    0.8084    0.5537 C   0  0  0  0  0  0  0  0  0  0  0  0
   -2.3197    0.4092   -0.7740 O   0  0  0  0  0  0  0  0  0  0  0  0
   -1.9863   -0.8687   -0.4108 C   0  0  0  0  0  0  0  0  0  0  0  0
    2.8748    0.5315   -1.2373 H   0  0  0  0  0  0  0  0  0  0  0  0
    3.5038    0.8210    0.4089 H   0  0  0  0  0  0  0  0  0  0  0  0
    2.3509    2.0057   -0.2525 H   0  0  0  0  0  0  0  0  0  0  0  0
    0.9239    0.6668    1.0625 H   0  0  0  0  0  0  0  0  0  0  0  0
    1.8176   -0.8436    0.7647 H   0  0  0  0  0  0  0  0  0  0  0  0
    1.0790   -0.8993   -1.6181 H   0  0  0  0  0  0  0  0  0  0  0  0
    0.1114    0.5616   -1.3191 H   0  0  0  0  0  0  0  0  0  0  0  0
   -0.3339   -2.2590   -0.0198 H   0  0  0  0  0  0  0  0  0  0  0  0
   -1.5325   -1.0014    1.8127 H   0  0  0  0  0  0  0  0  0  0  0  0
   -1.4111    1.7229    0.5571 H   0  0  0  0  0  0  0  0  0  0  0  0
   -2.9858    1.0136    1.0783 H   0  0  0  0  0  0  0  0  0  0  0  0
   -2.7158   -1.6929   -0.4626 H   0  0  0  0  0  0  0  0  0  0  0  0
  1  2  1  0
  2  3  1  0
  3  4  1  0
  4  5  1  0
  5  6  1  0
  6  7  1  0
  7  8  1  0
  8  4  1  0
  8  5  1  0
  1  9  1  0
  1 10  1  0
  1 11  1  0
  2 12  1  0
  2 13  1  0
  3 14  1  0
  3 15  1  0
  4 16  1  0
  5 17  1  0
  6 18  1  0
  6 19  1  0
  8 20  1  0
M  END
