
     RDKit          3D

 24 23  0  0  0  0  0  0  0  0999 V2000
   -2.1150   -0.9904   -0.8375 C   0  0  0  0  0  0  0  0  0  0  0  0
   -1.5288   -1.0196    0.5689 C   0  0  0  0  0  0  0  0  0  0  0  0
   -0.8417    0.2447    0.9420 C   0  0  0  0  0  0  0  0  0  0  0  0
    0.3147    0.6862    0.1494 C   0  0  0  0  0  0  0  0  0  0  0  0
    1.5178   -0.1683    0.0842 C   0  0  0  0  0  0  0  0  0  0  0  0
    1.3880   -1.5339   -0.4779 C   0  0  0  0  0  0  0  0  0  0  0  0
    0.7812    2.0339    0.7410 C   0  0  0  0  0  0  0  0  0  0  0  0
    1.8711    2.4183   -0.0307 O   0  0  0  0  0  0  0  0  0  0  0  0
   -3.1416   -0.5695   -0.8512 H   0  0  0  0  0  0  0  0  0  0  0  0
   -1.4963   -0.4188   -1.5338 H   0  0  0  0  0  0  0  0  0  0  0  0
   -2.2222   -2.0746   -1.1299 H   0  0  0  0  0  0  0  0  0  0  0  0
   -2.4526   -1.0621    1.2378 H   0  0  0  0  0  0  0  0  0  0  0  0
   -0.9896   -1.9535    0.7950 H   0  0  0  0  0  0  0  0  0  0  0  0
   -0.6051    0.1428    2.0484 H   0  0  0  0  0  0  0  0  0  0  0  0
   -1.6555    1.0387    0.9444 H   0  0  0  0  0  0  0  0  0  0  0  0
   -0.0143    0.8690   -0.9030 H   0  0  0  0  0  0  0  0  0  0  0  0
    2.0647   -0.1922    1.0719 H   0  0  0  0  0  0  0  0  0  0  0  0
    2.2608    0.3925   -0.5735 H   0  0  0  0  0  0  0  0  0  0  0  0
    2.3475   -1.7652   -1.0292 H   0  0  0  0  0  0  0  0  0  0  0  0
    1.2633   -2.3357    0.3036 H   0  0  0  0  0  0  0  0  0  0  0  0
    0.6167   -1.5913   -1.2619 H   0  0  0  0  0  0  0  0  0  0  0  0
   -0.0430    2.7794    0.6446 H   0  0  0  0  0  0  0  0  0  0  0  0
    1.0319    1.8853    1.8050 H   0  0  0  0  0  0  0  0  0  0  0  0
    1.6483    3.1843   -0.6077 H   0  0  0  0  0  0  0  0  0  0  0  0
  1  2  1  0
  2  3  1  0
  3  4  1  0
  4  5  1  0
  5  6  1  0
  4  7  1  0
  7  8  1  0
  1  9  1  0
  1 10  1  0
  1 11  1  0
  2 12  1  0
  2 13  1  0
  3 14  1  0
  3 15  1  0
  4 16  1  0
  5 17  1  0
  5 18  1  0
  6 19  1  0
  6 20  1  0
  6 21  1  0
  7 22  1  0
  7 23  1  0
  8 24  1  0
M  END
