
     RDKit          3D

 21 23  0  0  0  0  0  0  0  0999 V2000
    2.4752    0.1424    0.8884 C   0  0  0  0  0  0  0  0  0  0  0  0
    1.9568   -0.6151   -0.2944 C   0  0  0  0  0  0  0  0  0  0  0  0
    0.9714    0.2022   -1.1098 C   0  0  0  0  0  0  0  0  0  0  0  0
   -0.2308    0.6079   -0.2759 C   0  0  0  0  0  0  0  0  0  0  0  0
   -1.0158   -0.5120    0.2842 C   0  0  0  0  0  0  0  0  0  0  0  0
   -2.1764   -0.1782    1.1668 C   0  0  0  0  0  0  0  0  0  0  0  0
   -2.6230    1.1265    1.2620 O   0  0  0  0  0  0  0  0  0  0  0  0
   -2.7860    0.5795   -0.0073 C   0  0  0  0  0  0  0  0  0  0  0  0
   -1.5651    0.3795   -0.8429 C   0  0  0  0  0  0  0  0  0  0  0  0
    2.3652    1.2462    0.7787 H   0  0  0  0  0  0  0  0  0  0  0  0
    1.9641   -0.2162    1.8249 H   0  0  0  0  0  0  0  0  0  0  0  0
    3.5524   -0.0916    1.0205 H   0  0  0  0  0  0  0  0  0  0  0  0
    2.8061   -0.8479   -0.9719 H   0  0  0  0  0  0  0  0  0  0  0  0
    1.4154   -1.5376    0.0203 H   0  0  0  0  0  0  0  0  0  0  0  0
    0.6519   -0.4641   -1.9524 H   0  0  0  0  0  0  0  0  0  0  0  0
    1.4489    1.0860   -1.5834 H   0  0  0  0  0  0  0  0  0  0  0  0
   -0.1023    1.5210    0.3358 H   0  0  0  0  0  0  0  0  0  0  0  0
   -0.8653   -1.5527   -0.0038 H   0  0  0  0  0  0  0  0  0  0  0  0
   -2.7323   -1.0053    1.6148 H   0  0  0  0  0  0  0  0  0  0  0  0
   -3.7658    0.2117   -0.3280 H   0  0  0  0  0  0  0  0  0  0  0  0
   -1.7447   -0.0824   -1.8267 H   0  0  0  0  0  0  0  0  0  0  0  0
  1  2  1  0
  2  3  1  0
  3  4  1  0
  4  5  1  0
  5  6  1  0
  6  7  1  0
  7  8  1  0
  8  9  1  0
  9  4  1  0
  9  5  1  0
  8  6  1  0
  1 10  1  0
  1 11  1  0
  1 12  1  0
  2 13  1  0
  2 14  1  0
  3 15  1  0
  3 16  1  0
  4 17  1  0
  5 18  1  0
  6 19  1  0
  8 20  1  0
  9 21  1  0
M  END
