
     RDKit          3D

 24 23  0  0  0  0  0  0  0  0999 V2000
   -2.8229    0.8699    0.5299 C   0  0  0  0  0  0  0  0  0  0  0  0
   -2.6249   -0.4537   -0.1426 C   0  0  0  0  0  0  0  0  0  0  0  0
   -1.3110   -0.5827   -0.8391 C   0  0  0  0  0  0  0  0  0  0  0  0
   -0.1307   -0.4258    0.1022 C   0  0  0  0  0  0  0  0  0  0  0  0
    1.1749   -0.5607   -0.6307 C   0  0  0  0  0  0  0  0  0  0  0  0
    2.3730   -0.4141    0.2523 C   0  0  0  0  0  0  0  0  0  0  0  0
    2.3091    0.9844    0.8845 C   0  0  0  0  0  0  0  0  0  0  0  0
    3.5380   -0.4079   -0.5151 O   0  0  0  0  0  0  0  0  0  0  0  0
   -3.7982    1.3527    0.2357 H   0  0  0  0  0  0  0  0  0  0  0  0
   -2.9419    0.6678    1.6288 H   0  0  0  0  0  0  0  0  0  0  0  0
   -1.9949    1.5688    0.4144 H   0  0  0  0  0  0  0  0  0  0  0  0
   -2.7025   -1.3132    0.5747 H   0  0  0  0  0  0  0  0  0  0  0  0
   -3.4437   -0.5777   -0.8807 H   0  0  0  0  0  0  0  0  0  0  0  0
   -1.2478   -1.6395   -1.2210 H   0  0  0  0  0  0  0  0  0  0  0  0
   -1.1980    0.0550   -1.7338 H   0  0  0  0  0  0  0  0  0  0  0  0
   -0.1786   -1.1554    0.9352 H   0  0  0  0  0  0  0  0  0  0  0  0
   -0.2104    0.5825    0.5737 H   0  0  0  0  0  0  0  0  0  0  0  0
    1.1938   -1.6051   -1.0512 H   0  0  0  0  0  0  0  0  0  0  0  0
    1.2302    0.1182   -1.4882 H   0  0  0  0  0  0  0  0  0  0  0  0
    2.4311   -1.1409    1.0609 H   0  0  0  0  0  0  0  0  0  0  0  0
    3.2667    1.1581    1.4318 H   0  0  0  0  0  0  0  0  0  0  0  0
    1.4940    1.0458    1.6348 H   0  0  0  0  0  0  0  0  0  0  0  0
    2.1712    1.6936    0.0375 H   0  0  0  0  0  0  0  0  0  0  0  0
    3.4238    0.1800   -1.2852 H   0  0  0  0  0  0  0  0  0  0  0  0
  1  2  1  0
  2  3  1  0
  3  4  1  0
  4  5  1  0
  5  6  1  0
  6  7  1  0
  6  8  1  0
  1  9  1  0
  1 10  1  0
  1 11  1  0
  2 12  1  0
  2 13  1  0
  3 14  1  0
  3 15  1  0
  4 16  1  0
  4 17  1  0
  5 18  1  0
  5 19  1  0
  6 20  1  0
  7 21  1  0
  7 22  1  0
  7 23  1  0
  8 24  1  0
M  END
