
     RDKit          3D

 25 24  0  0  0  0  0  0  0  0999 V2000
    3.2790   -0.1020   -0.7667 C   0  0  0  0  0  0  0  0  0  0  0  0
    1.8713    0.4256   -0.6170 C   0  0  0  0  0  0  0  0  0  0  0  0
    1.3171    0.0386    0.7395 C   0  0  0  0  0  0  0  0  0  0  0  0
   -0.0703    0.5283    0.9533 C   0  0  0  0  0  0  0  0  0  0  0  0
   -1.0734    0.0146   -0.0369 C   0  0  0  0  0  0  0  0  0  0  0  0
   -1.2039   -1.4734   -0.0473 C   0  0  0  0  0  0  0  0  0  0  0  0
   -2.1246   -1.8207   -1.0342 O   0  0  0  0  0  0  0  0  0  0  0  0
   -2.3256    0.5596    0.2421 O   0  0  0  0  0  0  0  0  0  0  0  0
   -2.7990    1.3098   -0.8505 C   0  0  0  0  0  0  0  0  0  0  0  0
    3.8589    0.4545   -1.5316 H   0  0  0  0  0  0  0  0  0  0  0  0
    3.7954    0.1033    0.2099 H   0  0  0  0  0  0  0  0  0  0  0  0
    3.2814   -1.1749   -0.9408 H   0  0  0  0  0  0  0  0  0  0  0  0
    1.8135    1.5164   -0.6899 H   0  0  0  0  0  0  0  0  0  0  0  0
    1.2733   -0.0700   -1.4363 H   0  0  0  0  0  0  0  0  0  0  0  0
    1.9706    0.5217    1.4935 H   0  0  0  0  0  0  0  0  0  0  0  0
    1.4330   -1.0538    0.8850 H   0  0  0  0  0  0  0  0  0  0  0  0
   -0.0600    1.6352    0.8961 H   0  0  0  0  0  0  0  0  0  0  0  0
   -0.4113    0.2401    1.9668 H   0  0  0  0  0  0  0  0  0  0  0  0
   -0.7894    0.3326   -1.0724 H   0  0  0  0  0  0  0  0  0  0  0  0
   -1.6105   -1.7867    0.9354 H   0  0  0  0  0  0  0  0  0  0  0  0
   -0.2229   -1.9694   -0.1844 H   0  0  0  0  0  0  0  0  0  0  0  0
   -2.4225   -2.7707   -0.9567 H   0  0  0  0  0  0  0  0  0  0  0  0
   -3.7787    1.7448   -0.6510 H   0  0  0  0  0  0  0  0  0  0  0  0
   -2.0846    2.1409   -1.0274 H   0  0  0  0  0  0  0  0  0  0  0  0
   -2.9169    0.6559   -1.7534 H   0  0  0  0  0  0  0  0  0  0  0  0
  1  2  1  0
  2  3  1  0
  3  4  1  0
  4  5  1  0
  5  6  1  0
  6  7  1  0
  5  8  1  0
  8  9  1  0
  1 10  1  0
  1 11  1  0
  1 12  1  0
  2 13  1  0
  2 14  1  0
  3 15  1  0
  3 16  1  0
  4 17  1  0
  4 18  1  0
  5 19  1  0
  6 20  1  0
  6 21  1  0
  7 22  1  0
  9 23  1  0
  9 24  1  0
  9 25  1  0
M  END
