
     RDKit          3D

 25 26  0  0  0  0  0  0  0  0999 V2000
    3.2895   -0.9665    0.3832 C   0  0  0  0  0  0  0  0  0  0  0  0
    2.1404   -0.2071   -0.2554 C   0  0  0  0  0  0  0  0  0  0  0  0
    1.3636    0.4999    0.8176 C   0  0  0  0  0  0  0  0  0  0  0  0
    0.1909    1.2989    0.3087 C   0  0  0  0  0  0  0  0  0  0  0  0
   -0.7591    0.3850   -0.3902 C   0  0  0  0  0  0  0  0  0  0  0  0
   -2.0006    1.0368   -0.9624 C   0  0  0  0  0  0  0  0  0  0  0  0
   -2.9032    0.0135   -0.3111 C   0  0  0  0  0  0  0  0  0  0  0  0
   -2.5174   -1.4122   -0.2494 C   0  0  0  0  0  0  0  0  0  0  0  0
   -1.6546   -0.4416    0.4747 C   0  0  0  0  0  0  0  0  0  0  0  0
    4.0184   -0.2419    0.7880 H   0  0  0  0  0  0  0  0  0  0  0  0
    3.7750   -1.5582   -0.4216 H   0  0  0  0  0  0  0  0  0  0  0  0
    2.9336   -1.6337    1.1940 H   0  0  0  0  0  0  0  0  0  0  0  0
    1.5426   -0.9697   -0.7904 H   0  0  0  0  0  0  0  0  0  0  0  0
    2.5766    0.4793   -1.0028 H   0  0  0  0  0  0  0  0  0  0  0  0
    2.0026    1.1716    1.3912 H   0  0  0  0  0  0  0  0  0  0  0  0
    1.0018   -0.3008    1.5211 H   0  0  0  0  0  0  0  0  0  0  0  0
   -0.3293    1.6938    1.2096 H   0  0  0  0  0  0  0  0  0  0  0  0
    0.5894    2.0933   -0.3373 H   0  0  0  0  0  0  0  0  0  0  0  0
   -0.2765   -0.1908   -1.2131 H   0  0  0  0  0  0  0  0  0  0  0  0
   -2.0570    1.0683   -2.0699 H   0  0  0  0  0  0  0  0  0  0  0  0
   -2.1976    2.0648   -0.5544 H   0  0  0  0  0  0  0  0  0  0  0  0
   -3.7802    0.3356    0.2478 H   0  0  0  0  0  0  0  0  0  0  0  0
   -2.0741   -1.8992   -1.1507 H   0  0  0  0  0  0  0  0  0  0  0  0
   -3.1307   -2.0627    0.3688 H   0  0  0  0  0  0  0  0  0  0  0  0
   -1.7443   -0.2563    1.5503 H   0  0  0  0  0  0  0  0  0  0  0  0
  1  2  1  0
  2  3  1  0
  3  4  1  0
  4  5  1  0
  5  6  1  0
  6  7  1  0
  7  8  1  0
  8  9  1  0
  9  5  1  0
  9  7  1  0
  1 10  1  0
  1 11  1  0
  1 12  1  0
  2 13  1  0
  2 14  1  0
  3 15  1  0
  3 16  1  0
  4 17  1  0
  4 18  1  0
  5 19  1  0
  6 20  1  0
  6 21  1  0
  7 22  1  0
  8 23  1  0
  8 24  1  0
  9 25  1  0
M  END
