
     RDKit          3D

 23 23  0  0  0  0  0  0  0  0999 V2000
    3.4476   -0.7750   -0.0950 C   0  0  0  0  0  0  0  0  0  0  0  0
    2.3621    0.2279   -0.4123 C   0  0  0  0  0  0  0  0  0  0  0  0
    1.0672   -0.2145    0.2337 C   0  0  0  0  0  0  0  0  0  0  0  0
   -0.0583    0.7587   -0.0534 C   0  0  0  0  0  0  0  0  0  0  0  0
   -1.2893    0.2188    0.6353 C   0  0  0  0  0  0  0  0  0  0  0  0
   -2.5385    1.0570    0.4682 C   0  0  0  0  0  0  0  0  0  0  0  0
   -3.2734   -0.2865    0.3695 C   0  0  0  0  0  0  0  0  0  0  0  0
   -1.9952   -0.8593   -0.1452 C   0  0  0  0  0  0  0  0  0  0  0  0
   -1.6108   -1.7680   -0.8622 O   0  0  0  0  0  0  0  0  0  0  0  0
    4.2463   -0.7774   -0.8616 H   0  0  0  0  0  0  0  0  0  0  0  0
    3.0115   -1.7954    0.0154 H   0  0  0  0  0  0  0  0  0  0  0  0
    3.9384   -0.5131    0.8657 H   0  0  0  0  0  0  0  0  0  0  0  0
    2.6461    1.2412   -0.1372 H   0  0  0  0  0  0  0  0  0  0  0  0
    2.1989    0.2051   -1.5133 H   0  0  0  0  0  0  0  0  0  0  0  0
    0.7499   -1.2056   -0.0857 H   0  0  0  0  0  0  0  0  0  0  0  0
    1.2130   -0.2338    1.3362 H   0  0  0  0  0  0  0  0  0  0  0  0
   -0.1852    0.8514   -1.1325 H   0  0  0  0  0  0  0  0  0  0  0  0
    0.1975    1.7242    0.4507 H   0  0  0  0  0  0  0  0  0  0  0  0
   -1.1497   -0.1197    1.6603 H   0  0  0  0  0  0  0  0  0  0  0  0
   -2.8475    1.6377    1.3430 H   0  0  0  0  0  0  0  0  0  0  0  0
   -2.5556    1.6005   -0.5117 H   0  0  0  0  0  0  0  0  0  0  0  0
   -4.1198   -0.2996   -0.3172 H   0  0  0  0  0  0  0  0  0  0  0  0
   -3.4551   -0.6746    1.3970 H   0  0  0  0  0  0  0  0  0  0  0  0
  1  2  1  0
  2  3  1  0
  3  4  1  0
  4  5  1  0
  5  6  1  0
  6  7  1  0
  7  8  1  0
  8  9  2  0
  8  5  1  0
  1 10  1  0
  1 11  1  0
  1 12  1  0
  2 13  1  0
  2 14  1  0
  3 15  1  0
  3 16  1  0
  4 17  1  0
  4 18  1  0
  5 19  1  0
  6 20  1  0
  6 21  1  0
  7 22  1  0
  7 23  1  0
M  END
