
     RDKit          3D

 21 22  0  0  0  0  0  0  0  0999 V2000
    2.4027   -0.6396   -0.2540 C   0  0  0  0  0  0  0  0  0  0  0  0
    1.8221    0.7133   -0.5107 C   0  0  0  0  0  0  0  0  0  0  0  0
    0.7378    1.0978    0.4603 C   0  0  0  0  0  0  0  0  0  0  0  0
   -0.4228    0.1216    0.4032 C   0  0  0  0  0  0  0  0  0  0  0  0
   -1.5843    0.3800    1.3219 C   0  0  0  0  0  0  0  0  0  0  0  0
   -2.6867   -0.3797    0.7190 C   0  0  0  0  0  0  0  0  0  0  0  0
   -2.3153   -0.8945   -0.4338 C   0  0  0  0  0  0  0  0  0  0  0  0
   -0.9045   -0.5269   -0.7253 C   0  0  0  0  0  0  0  0  0  0  0  0
   -0.0212   -1.2048    0.1885 O   0  0  0  0  0  0  0  0  0  0  0  0
    1.9876   -1.3659   -0.9829 H   0  0  0  0  0  0  0  0  0  0  0  0
    3.5110   -0.6387   -0.4033 H   0  0  0  0  0  0  0  0  0  0  0  0
    2.2300   -1.0293    0.7648 H   0  0  0  0  0  0  0  0  0  0  0  0
    2.6413    1.4603   -0.3867 H   0  0  0  0  0  0  0  0  0  0  0  0
    1.4214    0.7416   -1.5509 H   0  0  0  0  0  0  0  0  0  0  0  0
    0.4109    2.1330    0.3642 H   0  0  0  0  0  0  0  0  0  0  0  0
    1.1851    0.9588    1.4883 H   0  0  0  0  0  0  0  0  0  0  0  0
   -1.3750    0.0973    2.3715 H   0  0  0  0  0  0  0  0  0  0  0  0
   -1.8284    1.4662    1.2279 H   0  0  0  0  0  0  0  0  0  0  0  0
   -3.6709   -0.4795    1.1981 H   0  0  0  0  0  0  0  0  0  0  0  0
   -2.9423   -1.4970   -1.0768 H   0  0  0  0  0  0  0  0  0  0  0  0
   -0.5983   -0.5139   -1.7730 H   0  0  0  0  0  0  0  0  0  0  0  0
  1  2  1  0
  2  3  1  0
  3  4  1  0
  4  5  1  0
  5  6  1  0
  6  7  2  0
  7  8  1  0
  8  9  1  0
  8  4  1  0
  9  4  1  0
  1 10  1  0
  1 11  1  0
  1 12  1  0
  2 13  1  0
  2 14  1  0
  3 15  1  0
  3 16  1  0
  5 17  1  0
  5 18  1  0
  6 19  1  0
  7 20  1  0
  8 21  1  0
M  END
