
     RDKit          3D

 23 23  0  0  0  0  0  0  0  0999 V2000
    3.4236   -0.4492   -0.4550 C   0  0  0  0  0  0  0  0  0  0  0  0
    2.1283    0.2210   -0.0793 C   0  0  0  0  0  0  0  0  0  0  0  0
    0.9635   -0.3357   -0.8997 C   0  0  0  0  0  0  0  0  0  0  0  0
   -0.2701    0.4031   -0.4414 C   0  0  0  0  0  0  0  0  0  0  0  0
   -0.5741    0.2215    1.0472 C   0  0  0  0  0  0  0  0  0  0  0  0
   -1.5000   -0.2783   -0.0456 C   0  0  0  0  0  0  0  0  0  0  0  0
   -1.6257   -1.6414   -0.1463 O   0  0  0  0  0  0  0  0  0  0  0  0
   -2.7829    0.5367   -0.1787 C   0  0  0  0  0  0  0  0  0  0  0  0
   -3.6699    0.1562    0.8257 O   0  0  0  0  0  0  0  0  0  0  0  0
    3.5920   -0.2693   -1.5374 H   0  0  0  0  0  0  0  0  0  0  0  0
    3.3891   -1.5349   -0.2673 H   0  0  0  0  0  0  0  0  0  0  0  0
    4.2288    0.0618    0.1044 H   0  0  0  0  0  0  0  0  0  0  0  0
    1.8996    0.1285    0.9958 H   0  0  0  0  0  0  0  0  0  0  0  0
    2.2363    1.3023   -0.3013 H   0  0  0  0  0  0  0  0  0  0  0  0
    0.8192   -1.4151   -0.6937 H   0  0  0  0  0  0  0  0  0  0  0  0
    1.1431   -0.2139   -1.9651 H   0  0  0  0  0  0  0  0  0  0  0  0
   -0.2932    1.4677   -0.8045 H   0  0  0  0  0  0  0  0  0  0  0  0
    0.0241   -0.5317    1.6124 H   0  0  0  0  0  0  0  0  0  0  0  0
   -0.8724    1.1218    1.6262 H   0  0  0  0  0  0  0  0  0  0  0  0
   -2.5786   -1.9326   -0.1212 H   0  0  0  0  0  0  0  0  0  0  0  0
   -2.5418    1.6250   -0.1433 H   0  0  0  0  0  0  0  0  0  0  0  0
   -3.2294    0.3590   -1.1859 H   0  0  0  0  0  0  0  0  0  0  0  0
   -3.9098    0.9976    1.3284 H   0  0  0  0  0  0  0  0  0  0  0  0
  1  2  1  0
  2  3  1  0
  3  4  1  0
  4  5  1  0
  5  6  1  0
  6  7  1  0
  6  8  1  0
  8  9  1  0
  6  4  1  0
  1 10  1  0
  1 11  1  0
  1 12  1  0
  2 13  1  0
  2 14  1  0
  3 15  1  0
  3 16  1  0
  4 17  1  0
  5 18  1  0
  5 19  1  0
  7 20  1  0
  8 21  1  0
  8 22  1  0
  9 23  1  0
M  END
