
     RDKit          3D

 25 24  0  0  0  0  0  0  0  0999 V2000
   -3.0577    1.1012    0.3540 C   0  0  0  0  0  0  0  0  0  0  0  0
   -2.1123   -0.0698    0.5087 C   0  0  0  0  0  0  0  0  0  0  0  0
   -0.7092    0.3107    0.1394 C   0  0  0  0  0  0  0  0  0  0  0  0
    0.2843   -0.7759    0.2613 C   0  0  0  0  0  0  0  0  0  0  0  0
    0.0144   -1.9864   -0.5913 C   0  0  0  0  0  0  0  0  0  0  0  0
    1.6313   -0.2352   -0.1708 C   0  0  0  0  0  0  0  0  0  0  0  0
    1.6021    0.2101   -1.4836 O   0  0  0  0  0  0  0  0  0  0  0  0
    2.1098    0.8857    0.7303 C   0  0  0  0  0  0  0  0  0  0  0  0
    3.4012    1.2720    0.3370 O   0  0  0  0  0  0  0  0  0  0  0  0
   -3.4796    1.4122    1.3526 H   0  0  0  0  0  0  0  0  0  0  0  0
   -2.5766    1.9600   -0.1630 H   0  0  0  0  0  0  0  0  0  0  0  0
   -3.9311    0.7992   -0.2788 H   0  0  0  0  0  0  0  0  0  0  0  0
   -2.4339   -0.8846   -0.1810 H   0  0  0  0  0  0  0  0  0  0  0  0
   -2.2179   -0.4483    1.5240 H   0  0  0  0  0  0  0  0  0  0  0  0
   -0.4043    1.1379    0.8137 H   0  0  0  0  0  0  0  0  0  0  0  0
   -0.6907    0.7116   -0.8913 H   0  0  0  0  0  0  0  0  0  0  0  0
    0.4187   -1.1290    1.3132 H   0  0  0  0  0  0  0  0  0  0  0  0
    0.6577   -2.8059   -0.1747 H   0  0  0  0  0  0  0  0  0  0  0  0
   -1.0217   -2.3559   -0.5170 H   0  0  0  0  0  0  0  0  0  0  0  0
    0.3556   -1.8596   -1.6431 H   0  0  0  0  0  0  0  0  0  0  0  0
    2.4223   -1.0364   -0.0661 H   0  0  0  0  0  0  0  0  0  0  0  0
    2.1507    1.0328   -1.5483 H   0  0  0  0  0  0  0  0  0  0  0  0
    1.4999    1.8113    0.6273 H   0  0  0  0  0  0  0  0  0  0  0  0
    2.1164    0.4830    1.7630 H   0  0  0  0  0  0  0  0  0  0  0  0
    3.9705    0.4593    0.5172 H   0  0  0  0  0  0  0  0  0  0  0  0
  1  2  1  0
  2  3  1  0
  3  4  1  0
  4  5  1  0
  4  6  1  0
  6  7  1  0
  6  8  1  0
  8  9  1  0
  1 10  1  0
  1 11  1  0
  1 12  1  0
  2 13  1  0
  2 14  1  0
  3 15  1  0
  3 16  1  0
  4 17  1  0
  5 18  1  0
  5 19  1  0
  5 20  1  0
  6 21  1  0
  7 22  1  0
  8 23  1  0
  8 24  1  0
  9 25  1  0
M  END
