
     RDKit          3D

 21 21  0  0  0  0  0  0  0  0999 V2000
    2.8586   -0.1023   -0.7778 C   0  0  0  0  0  0  0  0  0  0  0  0
    1.3352   -0.2490   -0.8429 C   0  0  0  0  0  0  0  0  0  0  0  0
    0.8227    0.0049    0.5484 C   0  0  0  0  0  0  0  0  0  0  0  0
   -0.6734   -0.1026    0.6551 C   0  0  0  0  0  0  0  0  0  0  0  0
   -1.1085   -1.4654    0.2629 C   0  0  0  0  0  0  0  0  0  0  0  0
   -2.2800   -1.7852    0.2422 O   0  0  0  0  0  0  0  0  0  0  0  0
   -1.4095    0.9477   -0.0785 C   0  0  0  0  0  0  0  0  0  0  0  0
   -2.8335    1.0798   -0.1463 C   0  0  0  0  0  0  0  0  0  0  0  0
   -2.1943    0.3410   -1.1825 O   0  0  0  0  0  0  0  0  0  0  0  0
    3.1328    0.9351   -0.4779 H   0  0  0  0  0  0  0  0  0  0  0  0
    3.3332   -0.3059   -1.7368 H   0  0  0  0  0  0  0  0  0  0  0  0
    3.3005   -0.7717   -0.0177 H   0  0  0  0  0  0  0  0  0  0  0  0
    0.9655    0.4796   -1.5802 H   0  0  0  0  0  0  0  0  0  0  0  0
    1.1291   -1.2983   -1.1290 H   0  0  0  0  0  0  0  0  0  0  0  0
    1.1946    0.9805    0.9231 H   0  0  0  0  0  0  0  0  0  0  0  0
    1.2740   -0.7662    1.2098 H   0  0  0  0  0  0  0  0  0  0  0  0
   -0.8926   -0.0139    1.7631 H   0  0  0  0  0  0  0  0  0  0  0  0
   -0.3717   -2.2181   -0.0190 H   0  0  0  0  0  0  0  0  0  0  0  0
   -0.7797    1.7506   -0.5080 H   0  0  0  0  0  0  0  0  0  0  0  0
   -3.5491    0.5304    0.4841 H   0  0  0  0  0  0  0  0  0  0  0  0
   -3.2539    2.0289   -0.5534 H   0  0  0  0  0  0  0  0  0  0  0  0
  1  2  1  0
  2  3  1  0
  3  4  1  0
  4  5  1  0
  5  6  2  0
  4  7  1  0
  7  8  1  0
  8  9  1  0
  9  7  1  0
  1 10  1  0
  1 11  1  0
  1 12  1  0
  2 13  1  0
  2 14  1  0
  3 15  1  0
  3 16  1  0
  4 17  1  0
  5 18  1  0
  7 19  1  0
  8 20  1  0
  8 21  1  0
M  END
