
     RDKit          3D

 25 25  0  0  0  0  0  0  0  0999 V2000
    3.3768   -0.6696   -0.1939 C   0  0  0  0  0  0  0  0  0  0  0  0
    2.2457    0.3345   -0.2704 C   0  0  0  0  0  0  0  0  0  0  0  0
    0.9142   -0.3674   -0.3913 C   0  0  0  0  0  0  0  0  0  0  0  0
   -0.2517    0.5446   -0.4722 C   0  0  0  0  0  0  0  0  0  0  0  0
   -0.5352    1.4807    0.6195 C   0  0  0  0  0  0  0  0  0  0  0  0
   -1.3266    0.5149    1.2400 O   0  0  0  0  0  0  0  0  0  0  0  0
   -1.5795    0.0020   -0.0355 C   0  0  0  0  0  0  0  0  0  0  0  0
   -1.7026   -1.4969    0.0047 C   0  0  0  0  0  0  0  0  0  0  0  0
   -2.7703    0.6382   -0.7215 C   0  0  0  0  0  0  0  0  0  0  0  0
    3.7521   -0.8494   -1.2259 H   0  0  0  0  0  0  0  0  0  0  0  0
    3.0571   -1.6268    0.2605 H   0  0  0  0  0  0  0  0  0  0  0  0
    4.2016   -0.1956    0.3839 H   0  0  0  0  0  0  0  0  0  0  0  0
    2.2361    0.8703    0.7110 H   0  0  0  0  0  0  0  0  0  0  0  0
    2.4669    1.0014   -1.1047 H   0  0  0  0  0  0  0  0  0  0  0  0
    0.9758   -0.9930   -1.3060 H   0  0  0  0  0  0  0  0  0  0  0  0
    0.8152   -1.0695    0.4618 H   0  0  0  0  0  0  0  0  0  0  0  0
   -0.3501    0.9923   -1.4899 H   0  0  0  0  0  0  0  0  0  0  0  0
    0.2783    1.8310    1.2663 H   0  0  0  0  0  0  0  0  0  0  0  0
   -1.1455    2.3636    0.2683 H   0  0  0  0  0  0  0  0  0  0  0  0
   -1.4773   -1.9734   -0.9862 H   0  0  0  0  0  0  0  0  0  0  0  0
   -1.1074   -1.9567    0.8211 H   0  0  0  0  0  0  0  0  0  0  0  0
   -2.7671   -1.7324    0.2250 H   0  0  0  0  0  0  0  0  0  0  0  0
   -3.5444   -0.1396   -0.9813 H   0  0  0  0  0  0  0  0  0  0  0  0
   -2.4647    1.1424   -1.6693 H   0  0  0  0  0  0  0  0  0  0  0  0
   -3.2973    1.3543   -0.0292 H   0  0  0  0  0  0  0  0  0  0  0  0
  1  2  1  0
  2  3  1  0
  3  4  1  0
  4  5  1  0
  5  6  1  0
  6  7  1  0
  7  8  1  0
  7  9  1  0
  7  4  1  0
  1 10  1  0
  1 11  1  0
  1 12  1  0
  2 13  1  0
  2 14  1  0
  3 15  1  0
  3 16  1  0
  4 17  1  0
  5 18  1  0
  5 19  1  0
  8 20  1  0
  8 21  1  0
  8 22  1  0
  9 23  1  0
  9 24  1  0
  9 25  1  0
M  END
