
     RDKit          3D

 25 26  0  0  0  0  0  0  0  0999 V2000
    3.5499    0.1240   -0.4616 C   0  0  0  0  0  0  0  0  0  0  0  0
    2.1767   -0.5165   -0.4540 C   0  0  0  0  0  0  0  0  0  0  0  0
    1.1394    0.5409   -0.3030 C   0  0  0  0  0  0  0  0  0  0  0  0
   -0.2689    0.0530   -0.2792 C   0  0  0  0  0  0  0  0  0  0  0  0
   -0.6078   -0.8936    0.8091 C   0  0  0  0  0  0  0  0  0  0  0  0
   -2.1030   -0.7140    0.9819 C   0  0  0  0  0  0  0  0  0  0  0  0
   -3.0054   -0.6184   -0.1762 C   0  0  0  0  0  0  0  0  0  0  0  0
   -2.4723    0.6085    0.4728 C   0  0  0  0  0  0  0  0  0  0  0  0
   -1.2054    1.2152   -0.0206 C   0  0  0  0  0  0  0  0  0  0  0  0
    3.5400    0.8430   -1.3335 H   0  0  0  0  0  0  0  0  0  0  0  0
    4.3581   -0.5845   -0.6613 H   0  0  0  0  0  0  0  0  0  0  0  0
    3.7234    0.7465    0.4442 H   0  0  0  0  0  0  0  0  0  0  0  0
    2.0753   -1.0156   -1.4604 H   0  0  0  0  0  0  0  0  0  0  0  0
    2.1355   -1.3192    0.2840 H   0  0  0  0  0  0  0  0  0  0  0  0
    1.3405    1.1339    0.6140 H   0  0  0  0  0  0  0  0  0  0  0  0
    1.2385    1.2471   -1.1541 H   0  0  0  0  0  0  0  0  0  0  0  0
   -0.5267   -0.4363   -1.2587 H   0  0  0  0  0  0  0  0  0  0  0  0
   -0.1564   -0.6416    1.7875 H   0  0  0  0  0  0  0  0  0  0  0  0
   -0.3951   -1.9610    0.5753 H   0  0  0  0  0  0  0  0  0  0  0  0
   -2.5400   -0.9813    1.9849 H   0  0  0  0  0  0  0  0  0  0  0  0
   -2.7081   -0.9179   -1.1959 H   0  0  0  0  0  0  0  0  0  0  0  0
   -4.0791   -0.8250    0.0330 H   0  0  0  0  0  0  0  0  0  0  0  0
   -3.1444    1.2978    1.0337 H   0  0  0  0  0  0  0  0  0  0  0  0
   -1.3215    1.8053   -0.9505 H   0  0  0  0  0  0  0  0  0  0  0  0
   -0.7433    1.8099    0.8024 H   0  0  0  0  0  0  0  0  0  0  0  0
  1  2  1  0
  2  3  1  0
  3  4  1  0
  4  5  1  0
  5  6  1  0
  6  7  1  0
  7  8  1  0
  8  9  1  0
  9  4  1  0
  8  6  1  0
  1 10  1  0
  1 11  1  0
  1 12  1  0
  2 13  1  0
  2 14  1  0
  3 15  1  0
  3 16  1  0
  4 17  1  0
  5 18  1  0
  5 19  1  0
  6 20  1  0
  7 21  1  0
  7 22  1  0
  8 23  1  0
  9 24  1  0
  9 25  1  0
M  END
