
     RDKit          3D

 22 21  0  0  0  0  0  0  0  0999 V2000
    3.8273   -0.4778   -0.1818 C   0  0  0  0  0  0  0  0  0  0  0  0
    2.3995   -0.0207   -0.2707 C   0  0  0  0  0  0  0  0  0  0  0  0
    1.5948   -0.8304    0.7299 C   0  0  0  0  0  0  0  0  0  0  0  0
    0.2080   -0.3730    0.6301 C   0  0  0  0  0  0  0  0  0  0  0  0
   -0.9373    0.0023    0.5279 C   0  0  0  0  0  0  0  0  0  0  0  0
   -2.3323    0.4636    0.3805 C   0  0  0  0  0  0  0  0  0  0  0  0
   -3.1506   -0.6927   -0.1045 C   0  0  0  0  0  0  0  0  0  0  0  0
   -2.3147    1.6313   -0.5691 C   0  0  0  0  0  0  0  0  0  0  0  0
    4.3840    0.1495    0.5448 H   0  0  0  0  0  0  0  0  0  0  0  0
    4.2901   -0.4673   -1.1929 H   0  0  0  0  0  0  0  0  0  0  0  0
    3.8348   -1.5372    0.1466 H   0  0  0  0  0  0  0  0  0  0  0  0
    2.0296   -0.1463   -1.3014 H   0  0  0  0  0  0  0  0  0  0  0  0
    2.2886    1.0558    0.0086 H   0  0  0  0  0  0  0  0  0  0  0  0
    1.6959   -1.9086    0.5739 H   0  0  0  0  0  0  0  0  0  0  0  0
    2.0373   -0.5814    1.7390 H   0  0  0  0  0  0  0  0  0  0  0  0
   -2.7439    0.7891    1.3658 H   0  0  0  0  0  0  0  0  0  0  0  0
   -2.5170   -1.5635   -0.3642 H   0  0  0  0  0  0  0  0  0  0  0  0
   -3.7351   -0.4549   -1.0198 H   0  0  0  0  0  0  0  0  0  0  0  0
   -3.8885   -1.0256    0.6706 H   0  0  0  0  0  0  0  0  0  0  0  0
   -3.3547    1.7805   -0.9247 H   0  0  0  0  0  0  0  0  0  0  0  0
   -1.6076    1.4708   -1.4087 H   0  0  0  0  0  0  0  0  0  0  0  0
   -2.0081    2.5236    0.0202 H   0  0  0  0  0  0  0  0  0  0  0  0
  1  2  1  0
  2  3  1  0
  3  4  1  0
  4  5  3  0
  5  6  1  0
  6  7  1  0
  6  8  1  0
  1  9  1  0
  1 10  1  0
  1 11  1  0
  2 12  1  0
  2 13  1  0
  3 14  1  0
  3 15  1  0
  6 16  1  0
  7 17  1  0
  7 18  1  0
  7 19  1  0
  8 20  1  0
  8 21  1  0
  8 22  1  0
M  END
