
     RDKit          3D

 26 25  0  0  0  0  0  0  0  0999 V2000
    3.4857   -0.7224    0.2268 C   0  0  0  0  0  0  0  0  0  0  0  0
    2.3758    0.2319   -0.1101 C   0  0  0  0  0  0  0  0  0  0  0  0
    1.0019   -0.4014    0.1004 C   0  0  0  0  0  0  0  0  0  0  0  0
   -0.0039    0.6692   -0.2761 C   0  0  0  0  0  0  0  0  0  0  0  0
   -1.4226    0.1958   -0.1212 C   0  0  0  0  0  0  0  0  0  0  0  0
   -2.3426    1.3214   -0.5165 C   0  0  0  0  0  0  0  0  0  0  0  0
   -1.7148   -1.0684   -0.8488 C   0  0  0  0  0  0  0  0  0  0  0  0
   -1.6406   -0.0541    1.3717 C   0  0  0  0  0  0  0  0  0  0  0  0
    3.7772   -1.2733   -0.6868 H   0  0  0  0  0  0  0  0  0  0  0  0
    3.2458   -1.3786    1.0823 H   0  0  0  0  0  0  0  0  0  0  0  0
    4.3651   -0.1153    0.5303 H   0  0  0  0  0  0  0  0  0  0  0  0
    2.4471    0.4771   -1.1885 H   0  0  0  0  0  0  0  0  0  0  0  0
    2.4138    1.1267    0.5449 H   0  0  0  0  0  0  0  0  0  0  0  0
    0.9066   -1.2280   -0.6312 H   0  0  0  0  0  0  0  0  0  0  0  0
    0.8823   -0.7171    1.1381 H   0  0  0  0  0  0  0  0  0  0  0  0
    0.2042    1.5353    0.3839 H   0  0  0  0  0  0  0  0  0  0  0  0
    0.2463    0.9835   -1.3101 H   0  0  0  0  0  0  0  0  0  0  0  0
   -3.3832    1.0958   -0.2565 H   0  0  0  0  0  0  0  0  0  0  0  0
   -2.0442    2.2025    0.1223 H   0  0  0  0  0  0  0  0  0  0  0  0
   -2.1874    1.5262   -1.5911 H   0  0  0  0  0  0  0  0  0  0  0  0
   -1.4068   -1.0180   -1.9116 H   0  0  0  0  0  0  0  0  0  0  0  0
   -2.8361   -1.1886   -0.8719 H   0  0  0  0  0  0  0  0  0  0  0  0
   -1.3357   -1.9503   -0.3152 H   0  0  0  0  0  0  0  0  0  0  0  0
   -2.7346   -0.1524    1.5136 H   0  0  0  0  0  0  0  0  0  0  0  0
   -1.0804   -0.9330    1.7301 H   0  0  0  0  0  0  0  0  0  0  0  0
   -1.2187    0.8355    1.8912 H   0  0  0  0  0  0  0  0  0  0  0  0
  1  2  1  0
  2  3  1  0
  3  4  1  0
  4  5  1  0
  5  6  1  0
  5  7  1  0
  5  8  1  0
  1  9  1  0
  1 10  1  0
  1 11  1  0
  2 12  1  0
  2 13  1  0
  3 14  1  0
  3 15  1  0
  4 16  1  0
  4 17  1  0
  6 18  1  0
  6 19  1  0
  6 20  1  0
  7 21  1  0
  7 22  1  0
  7 23  1  0
  8 24  1  0
  8 25  1  0
  8 26  1  0
M  END
