
     RDKit          3D

 27 27  0  0  0  0  0  0  0  0999 V2000
    3.3848    0.4577    0.9845 C   0  0  0  0  0  0  0  0  0  0  0  0
    2.3238   -0.6024    0.7973 C   0  0  0  0  0  0  0  0  0  0  0  0
    1.4304   -0.1523   -0.3403 C   0  0  0  0  0  0  0  0  0  0  0  0
    0.3309   -1.1162   -0.6328 C   0  0  0  0  0  0  0  0  0  0  0  0
   -0.5792   -0.6691   -1.7830 C   0  0  0  0  0  0  0  0  0  0  0  0
   -1.0890   -0.8980   -0.4114 C   0  0  0  0  0  0  0  0  0  0  0  0
   -1.6894    0.1634    0.4414 C   0  0  0  0  0  0  0  0  0  0  0  0
   -1.3920    1.5678    0.0764 C   0  0  0  0  0  0  0  0  0  0  0  0
   -3.2104   -0.0161    0.5532 C   0  0  0  0  0  0  0  0  0  0  0  0
    3.6799    0.5702    2.0492 H   0  0  0  0  0  0  0  0  0  0  0  0
    4.2383    0.2038    0.3261 H   0  0  0  0  0  0  0  0  0  0  0  0
    2.9629    1.4246    0.6721 H   0  0  0  0  0  0  0  0  0  0  0  0
    2.8367   -1.5599    0.5730 H   0  0  0  0  0  0  0  0  0  0  0  0
    1.7637   -0.6809    1.7516 H   0  0  0  0  0  0  0  0  0  0  0  0
    2.0510   -0.0684   -1.2701 H   0  0  0  0  0  0  0  0  0  0  0  0
    1.1062    0.8814   -0.1153 H   0  0  0  0  0  0  0  0  0  0  0  0
    0.7133   -2.1812   -0.7088 H   0  0  0  0  0  0  0  0  0  0  0  0
   -0.7343   -1.4526   -2.5830 H   0  0  0  0  0  0  0  0  0  0  0  0
   -0.4306    0.3202   -2.2124 H   0  0  0  0  0  0  0  0  0  0  0  0
   -1.7003   -1.8590   -0.3457 H   0  0  0  0  0  0  0  0  0  0  0  0
   -1.3330   -0.0186    1.4879 H   0  0  0  0  0  0  0  0  0  0  0  0
   -0.7261    2.0864    0.8207 H   0  0  0  0  0  0  0  0  0  0  0  0
   -2.3525    2.1612    0.1491 H   0  0  0  0  0  0  0  0  0  0  0  0
   -0.9737    1.7514   -0.9103 H   0  0  0  0  0  0  0  0  0  0  0  0
   -3.6046    0.7288    1.2518 H   0  0  0  0  0  0  0  0  0  0  0  0
   -3.6683    0.0160   -0.4537 H   0  0  0  0  0  0  0  0  0  0  0  0
   -3.3385   -1.0582    0.9596 H   0  0  0  0  0  0  0  0  0  0  0  0
  1  2  1  0
  2  3  1  0
  3  4  1  0
  4  5  1  0
  5  6  1  0
  6  7  1  0
  7  8  1  0
  7  9  1  0
  6  4  1  0
  1 10  1  0
  1 11  1  0
  1 12  1  0
  2 13  1  0
  2 14  1  0
  3 15  1  0
  3 16  1  0
  4 17  1  0
  5 18  1  0
  5 19  1  0
  6 20  1  0
  7 21  1  0
  8 22  1  0
  8 23  1  0
  8 24  1  0
  9 25  1  0
  9 26  1  0
  9 27  1  0
M  END
