
     RDKit          3D

 27 27  0  0  0  0  0  0  0  0999 V2000
    3.6278   -0.1060    0.8308 C   0  0  0  0  0  0  0  0  0  0  0  0
    2.1792    0.3488    0.5647 C   0  0  0  0  0  0  0  0  0  0  0  0
    1.8376   -0.0681   -0.8320 C   0  0  0  0  0  0  0  0  0  0  0  0
    0.4944    0.3026   -1.3344 C   0  0  0  0  0  0  0  0  0  0  0  0
   -0.6952   -0.2206   -0.6100 C   0  0  0  0  0  0  0  0  0  0  0  0
   -0.9260    0.1344    0.8103 C   0  0  0  0  0  0  0  0  0  0  0  0
   -2.4103    0.3578    0.5323 C   0  0  0  0  0  0  0  0  0  0  0  0
   -3.2738   -0.8481    0.6646 C   0  0  0  0  0  0  0  0  0  0  0  0
   -1.9938    0.5472   -0.9327 C   0  0  0  0  0  0  0  0  0  0  0  0
    4.0112    0.3977    1.7361 H   0  0  0  0  0  0  0  0  0  0  0  0
    3.6667   -1.2203    0.9265 H   0  0  0  0  0  0  0  0  0  0  0  0
    4.2210    0.2410   -0.0223 H   0  0  0  0  0  0  0  0  0  0  0  0
    2.1492    1.4340    0.6990 H   0  0  0  0  0  0  0  0  0  0  0  0
    1.5360   -0.1449    1.3341 H   0  0  0  0  0  0  0  0  0  0  0  0
    1.9318   -1.1975   -0.9036 H   0  0  0  0  0  0  0  0  0  0  0  0
    2.6510    0.2945   -1.5376 H   0  0  0  0  0  0  0  0  0  0  0  0
    0.4082    1.4058   -1.5485 H   0  0  0  0  0  0  0  0  0  0  0  0
    0.4360   -0.1401   -2.3841 H   0  0  0  0  0  0  0  0  0  0  0  0
   -0.8178   -1.3087   -0.8610 H   0  0  0  0  0  0  0  0  0  0  0  0
   -0.7177   -0.6805    1.5023 H   0  0  0  0  0  0  0  0  0  0  0  0
   -0.4156    1.0845    1.0820 H   0  0  0  0  0  0  0  0  0  0  0  0
   -2.8169    1.2772    0.9981 H   0  0  0  0  0  0  0  0  0  0  0  0
   -4.3302   -0.5101    0.7147 H   0  0  0  0  0  0  0  0  0  0  0  0
   -3.0959   -1.4322    1.5898 H   0  0  0  0  0  0  0  0  0  0  0  0
   -3.2081   -1.5364   -0.2153 H   0  0  0  0  0  0  0  0  0  0  0  0
   -1.8314    1.6054   -1.1675 H   0  0  0  0  0  0  0  0  0  0  0  0
   -2.6174   -0.0177   -1.6363 H   0  0  0  0  0  0  0  0  0  0  0  0
  1  2  1  0
  2  3  1  0
  3  4  1  0
  4  5  1  0
  5  6  1  0
  6  7  1  0
  7  8  1  0
  7  9  1  0
  9  5  1  0
  1 10  1  0
  1 11  1  0
  1 12  1  0
  2 13  1  0
  2 14  1  0
  3 15  1  0
  3 16  1  0
  4 17  1  0
  4 18  1  0
  5 19  1  0
  6 20  1  0
  6 21  1  0
  7 22  1  0
  8 23  1  0
  8 24  1  0
  8 25  1  0
  9 26  1  0
  9 27  1  0
M  END
