
     RDKit          3D

 20 19  0  0  0  0  0  0  0  0999 V2000
   -2.6876    0.7524    0.1281 C   0  0  0  0  0  0  0  0  0  0  0  0
   -2.1909   -0.6564    0.2729 C   0  0  0  0  0  0  0  0  0  0  0  0
   -0.7702   -0.7953   -0.2210 C   0  0  0  0  0  0  0  0  0  0  0  0
    0.1895    0.0887    0.5362 C   0  0  0  0  0  0  0  0  0  0  0  0
    1.5676   -0.1377   -0.0448 C   0  0  0  0  0  0  0  0  0  0  0  0
    2.5401    0.6734    0.6278 O   0  0  0  0  0  0  0  0  0  0  0  0
    3.8552    0.5693    0.1982 C   0  0  0  0  0  0  0  0  0  0  0  0
    4.1977   -0.2003   -0.7415 O   0  0  0  0  0  0  0  0  0  0  0  0
   -2.2818    1.2688   -0.7591 H   0  0  0  0  0  0  0  0  0  0  0  0
   -2.4614    1.3409    1.0556 H   0  0  0  0  0  0  0  0  0  0  0  0
   -3.7932    0.7466    0.0216 H   0  0  0  0  0  0  0  0  0  0  0  0
   -2.3196   -1.0010    1.3101 H   0  0  0  0  0  0  0  0  0  0  0  0
   -2.8131   -1.3230   -0.3685 H   0  0  0  0  0  0  0  0  0  0  0  0
   -0.7483   -0.4989   -1.2822 H   0  0  0  0  0  0  0  0  0  0  0  0
   -0.4280   -1.8353   -0.1361 H   0  0  0  0  0  0  0  0  0  0  0  0
    0.1332   -0.2134    1.6003 H   0  0  0  0  0  0  0  0  0  0  0  0
   -0.0392    1.1518    0.4674 H   0  0  0  0  0  0  0  0  0  0  0  0
    1.8306   -1.2111    0.0301 H   0  0  0  0  0  0  0  0  0  0  0  0
    1.5886    0.1234   -1.1207 H   0  0  0  0  0  0  0  0  0  0  0  0
    4.6309    1.1571    0.6688 H   0  0  0  0  0  0  0  0  0  0  0  0
  1  2  1  0
  2  3  1  0
  3  4  1  0
  4  5  1  0
  5  6  1  0
  6  7  1  0
  7  8  2  0
  1  9  1  0
  1 10  1  0
  1 11  1  0
  2 12  1  0
  2 13  1  0
  3 14  1  0
  3 15  1  0
  4 16  1  0
  4 17  1  0
  5 18  1  0
  5 19  1  0
  7 20  1  0
M  END
