
     RDKit          3D

 25 25  0  0  0  0  0  0  0  0999 V2000
   -2.7255    0.5432    0.6552 C   0  0  0  0  0  0  0  0  0  0  0  0
   -2.2792    0.8050   -0.7627 C   0  0  0  0  0  0  0  0  0  0  0  0
   -0.7615    0.7684   -0.8795 C   0  0  0  0  0  0  0  0  0  0  0  0
   -0.1894   -0.5481   -0.4859 C   0  0  0  0  0  0  0  0  0  0  0  0
    1.3138   -0.6446   -0.5820 C   0  0  0  0  0  0  0  0  0  0  0  0
    1.9478    0.3893    0.3238 C   0  0  0  0  0  0  0  0  0  0  0  0
    3.4642    0.2100    0.1586 C   0  0  0  0  0  0  0  0  0  0  0  0
   -0.9224   -1.7970   -0.5458 C   0  0  0  0  0  0  0  0  0  0  0  0
   -0.7551   -1.0775    0.7117 O   0  0  0  0  0  0  0  0  0  0  0  0
   -3.0212   -0.5227    0.7303 H   0  0  0  0  0  0  0  0  0  0  0  0
   -3.6285    1.1866    0.8742 H   0  0  0  0  0  0  0  0  0  0  0  0
   -1.9353    0.8174    1.3894 H   0  0  0  0  0  0  0  0  0  0  0  0
   -2.6873    1.7616   -1.0874 H   0  0  0  0  0  0  0  0  0  0  0  0
   -2.7122    0.0269   -1.4327 H   0  0  0  0  0  0  0  0  0  0  0  0
   -0.3314    1.6038   -0.2754 H   0  0  0  0  0  0  0  0  0  0  0  0
   -0.5380    1.0325   -1.9403 H   0  0  0  0  0  0  0  0  0  0  0  0
    1.5737   -0.4390   -1.6475 H   0  0  0  0  0  0  0  0  0  0  0  0
    1.6838   -1.6641   -0.3733 H   0  0  0  0  0  0  0  0  0  0  0  0
    1.6798    1.4013   -0.0756 H   0  0  0  0  0  0  0  0  0  0  0  0
    1.6563    0.2314    1.3610 H   0  0  0  0  0  0  0  0  0  0  0  0
    3.6896   -0.0384   -0.9151 H   0  0  0  0  0  0  0  0  0  0  0  0
    3.9493    1.1665    0.4029 H   0  0  0  0  0  0  0  0  0  0  0  0
    3.8343   -0.5760    0.8256 H   0  0  0  0  0  0  0  0  0  0  0  0
   -1.9420   -1.8952   -0.9128 H   0  0  0  0  0  0  0  0  0  0  0  0
   -0.3636   -2.7412   -0.4873 H   0  0  0  0  0  0  0  0  0  0  0  0
  1  2  1  0
  2  3  1  0
  3  4  1  0
  4  5  1  0
  5  6  1  0
  6  7  1  0
  4  8  1  0
  8  9  1  0
  9  4  1  0
  1 10  1  0
  1 11  1  0
  1 12  1  0
  2 13  1  0
  2 14  1  0
  3 15  1  0
  3 16  1  0
  5 17  1  0
  5 18  1  0
  6 19  1  0
  6 20  1  0
  7 21  1  0
  7 22  1  0
  7 23  1  0
  8 24  1  0
  8 25  1  0
M  END
