
     RDKit          3D

 23 23  0  0  0  0  0  0  0  0999 V2000
    3.2024    0.0000   -0.1463 C   0  0  0  0  0  0  0  0  0  0  0  0
    1.8174   -0.1680   -0.7204 C   0  0  0  0  0  0  0  0  0  0  0  0
    0.7577    0.4095    0.1997 C   0  0  0  0  0  0  0  0  0  0  0  0
   -0.5743    0.1960   -0.4525 C   0  0  0  0  0  0  0  0  0  0  0  0
   -0.8938   -1.2575   -0.6981 C   0  0  0  0  0  0  0  0  0  0  0  0
   -2.2364   -1.4290   -0.4853 O   0  0  0  0  0  0  0  0  0  0  0  0
   -2.6893   -0.4689    0.3767 C   0  0  0  0  0  0  0  0  0  0  0  0
   -1.7292    0.6774    0.3840 C   0  0  0  0  0  0  0  0  0  0  0  0
   -2.3527    1.7674   -0.2231 O   0  0  0  0  0  0  0  0  0  0  0  0
    3.6387   -0.9654    0.1781 H   0  0  0  0  0  0  0  0  0  0  0  0
    3.8803    0.3823   -0.9584 H   0  0  0  0  0  0  0  0  0  0  0  0
    3.2454    0.7588    0.6653 H   0  0  0  0  0  0  0  0  0  0  0  0
    1.6420   -1.2518   -0.8531 H   0  0  0  0  0  0  0  0  0  0  0  0
    1.7580    0.2961   -1.7270 H   0  0  0  0  0  0  0  0  0  0  0  0
    0.8092   -0.1349    1.1663 H   0  0  0  0  0  0  0  0  0  0  0  0
    0.8926    1.4772    0.3776 H   0  0  0  0  0  0  0  0  0  0  0  0
   -0.5770    0.7487   -1.4200 H   0  0  0  0  0  0  0  0  0  0  0  0
   -0.3045   -1.9479   -0.0674 H   0  0  0  0  0  0  0  0  0  0  0  0
   -0.6511   -1.5071   -1.7545 H   0  0  0  0  0  0  0  0  0  0  0  0
   -3.7230   -0.1327    0.0971 H   0  0  0  0  0  0  0  0  0  0  0  0
   -2.8004   -0.9224    1.3881 H   0  0  0  0  0  0  0  0  0  0  0  0
   -1.3945    0.9468    1.4206 H   0  0  0  0  0  0  0  0  0  0  0  0
   -1.7176    2.5253   -0.1831 H   0  0  0  0  0  0  0  0  0  0  0  0
  1  2  1  0
  2  3  1  0
  3  4  1  0
  4  5  1  0
  5  6  1  0
  6  7  1  0
  7  8  1  0
  8  9  1  0
  8  4  1  0
  1 10  1  0
  1 11  1  0
  1 12  1  0
  2 13  1  0
  2 14  1  0
  3 15  1  0
  3 16  1  0
  4 17  1  0
  5 18  1  0
  5 19  1  0
  7 20  1  0
  7 21  1  0
  8 22  1  0
  9 23  1  0
M  END
