
     RDKit          3D

 21 21  0  0  0  0  0  0  0  0999 V2000
   -2.3975    0.0999   -0.8642 C   0  0  0  0  0  0  0  0  0  0  0  0
   -2.0559    0.3249    0.5650 C   0  0  0  0  0  0  0  0  0  0  0  0
   -0.8762   -0.4148    1.0715 C   0  0  0  0  0  0  0  0  0  0  0  0
    0.3946   -0.1093    0.3809 C   0  0  0  0  0  0  0  0  0  0  0  0
    0.5577    0.7331   -0.6027 C   0  0  0  0  0  0  0  0  0  0  0  0
    1.9564    0.7756   -1.0359 C   0  0  0  0  0  0  0  0  0  0  0  0
    2.4914    1.5463   -1.8709 O   0  0  0  0  0  0  0  0  0  0  0  0
    2.6868   -0.2844   -0.3022 C   0  0  0  0  0  0  0  0  0  0  0  0
    1.6967   -0.7355    0.7200 C   0  0  0  0  0  0  0  0  0  0  0  0
   -1.6552   -0.4973   -1.4282 H   0  0  0  0  0  0  0  0  0  0  0  0
   -3.3819   -0.4299   -0.9982 H   0  0  0  0  0  0  0  0  0  0  0  0
   -2.5452    1.0791   -1.3633 H   0  0  0  0  0  0  0  0  0  0  0  0
   -2.9383   -0.0197    1.1744 H   0  0  0  0  0  0  0  0  0  0  0  0
   -1.9907    1.4233    0.7851 H   0  0  0  0  0  0  0  0  0  0  0  0
   -1.1182   -1.5034    1.0545 H   0  0  0  0  0  0  0  0  0  0  0  0
   -0.7866   -0.1717    2.1717 H   0  0  0  0  0  0  0  0  0  0  0  0
   -0.1831    1.3595   -1.0944 H   0  0  0  0  0  0  0  0  0  0  0  0
    3.0157   -1.0951   -0.9837 H   0  0  0  0  0  0  0  0  0  0  0  0
    3.6006    0.1044    0.1969 H   0  0  0  0  0  0  0  0  0  0  0  0
    1.5325   -1.8324    0.7118 H   0  0  0  0  0  0  0  0  0  0  0  0
    1.9964   -0.3525    1.7118 H   0  0  0  0  0  0  0  0  0  0  0  0
  1  2  1  0
  2  3  1  0
  3  4  1  0
  4  5  2  0
  5  6  1  0
  6  7  2  0
  6  8  1  0
  8  9  1  0
  9  4  1  0
  1 10  1  0
  1 11  1  0
  1 12  1  0
  2 13  1  0
  2 14  1  0
  3 15  1  0
  3 16  1  0
  5 17  1  0
  8 18  1  0
  8 19  1  0
  9 20  1  0
  9 21  1  0
M  END
