
     RDKit          3D

 25 26  0  0  0  0  0  0  0  0999 V2000
    3.1867    0.4638    0.5705 C   0  0  0  0  0  0  0  0  0  0  0  0
    2.2697    0.8481   -0.5832 C   0  0  0  0  0  0  0  0  0  0  0  0
    1.1648   -0.1640   -0.7351 C   0  0  0  0  0  0  0  0  0  0  0  0
    0.3813   -0.1791    0.5784 C   0  0  0  0  0  0  0  0  0  0  0  0
   -0.7150   -1.1836    0.4268 C   0  0  0  0  0  0  0  0  0  0  0  0
   -1.6901   -0.9350   -0.6662 C   0  0  0  0  0  0  0  0  0  0  0  0
   -2.2783    0.4412   -0.8545 C   0  0  0  0  0  0  0  0  0  0  0  0
   -2.6207    0.5019    0.6179 C   0  0  0  0  0  0  0  0  0  0  0  0
   -2.1143   -0.8932    0.7530 C   0  0  0  0  0  0  0  0  0  0  0  0
    3.2306   -0.6402    0.6877 H   0  0  0  0  0  0  0  0  0  0  0  0
    2.8013    0.8982    1.5032 H   0  0  0  0  0  0  0  0  0  0  0  0
    4.1956    0.8634    0.2963 H   0  0  0  0  0  0  0  0  0  0  0  0
    1.7939    1.8270   -0.3659 H   0  0  0  0  0  0  0  0  0  0  0  0
    2.8167    0.9213   -1.5409 H   0  0  0  0  0  0  0  0  0  0  0  0
    1.5981   -1.1566   -0.9505 H   0  0  0  0  0  0  0  0  0  0  0  0
    0.5273    0.1714   -1.5779 H   0  0  0  0  0  0  0  0  0  0  0  0
    0.0186    0.8450    0.7946 H   0  0  0  0  0  0  0  0  0  0  0  0
    1.1004   -0.4296    1.3818 H   0  0  0  0  0  0  0  0  0  0  0  0
   -0.3901   -2.2340    0.5366 H   0  0  0  0  0  0  0  0  0  0  0  0
   -1.9459   -1.7516   -1.3420 H   0  0  0  0  0  0  0  0  0  0  0  0
   -3.2096    0.3790   -1.4587 H   0  0  0  0  0  0  0  0  0  0  0  0
   -1.6054    1.2181   -1.2179 H   0  0  0  0  0  0  0  0  0  0  0  0
   -3.7013    0.6195    0.8433 H   0  0  0  0  0  0  0  0  0  0  0  0
   -2.0393    1.2581    1.1507 H   0  0  0  0  0  0  0  0  0  0  0  0
   -2.7748   -1.6893    1.1520 H   0  0  0  0  0  0  0  0  0  0  0  0
  1  2  1  0
  2  3  1  0
  3  4  1  0
  4  5  1  0
  5  6  1  0
  6  7  1  0
  7  8  1  0
  8  9  1  0
  9  5  1  0
  9  6  1  0
  1 10  1  0
  1 11  1  0
  1 12  1  0
  2 13  1  0
  2 14  1  0
  3 15  1  0
  3 16  1  0
  4 17  1  0
  4 18  1  0
  5 19  1  0
  6 20  1  0
  7 21  1  0
  7 22  1  0
  8 23  1  0
  8 24  1  0
  9 25  1  0
M  END
