
     RDKit          3D

 23 24  0  0  0  0  0  0  0  0999 V2000
    3.3410   -0.6105   -0.4588 C   0  0  0  0  0  0  0  0  0  0  0  0
    2.0063   -0.7322    0.2246 C   0  0  0  0  0  0  0  0  0  0  0  0
    1.1634    0.4503   -0.1585 C   0  0  0  0  0  0  0  0  0  0  0  0
   -0.2090    0.4049    0.4926 C   0  0  0  0  0  0  0  0  0  0  0  0
   -1.2344    1.4060    0.3081 C   0  0  0  0  0  0  0  0  0  0  0  0
   -2.6631    1.1978   -0.1437 C   0  0  0  0  0  0  0  0  0  0  0  0
   -2.0130    0.6454   -1.2767 O   0  0  0  0  0  0  0  0  0  0  0  0
   -1.2824   -0.0355   -0.3277 C   0  0  0  0  0  0  0  0  0  0  0  0
   -2.1409   -1.0799    0.3540 C   0  0  0  0  0  0  0  0  0  0  0  0
    3.8029    0.3426   -0.1710 H   0  0  0  0  0  0  0  0  0  0  0  0
    3.9676   -1.4588   -0.0900 H   0  0  0  0  0  0  0  0  0  0  0  0
    3.2568   -0.7232   -1.5585 H   0  0  0  0  0  0  0  0  0  0  0  0
    1.4691   -1.6488   -0.0814 H   0  0  0  0  0  0  0  0  0  0  0  0
    2.1502   -0.7887    1.3105 H   0  0  0  0  0  0  0  0  0  0  0  0
    1.6179    1.4163    0.1762 H   0  0  0  0  0  0  0  0  0  0  0  0
    1.0200    0.5028   -1.2524 H   0  0  0  0  0  0  0  0  0  0  0  0
   -0.0891    0.0891    1.5744 H   0  0  0  0  0  0  0  0  0  0  0  0
   -0.8219    2.2136   -0.3796 H   0  0  0  0  0  0  0  0  0  0  0  0
   -3.1964    2.1010   -0.4547 H   0  0  0  0  0  0  0  0  0  0  0  0
   -3.3063    0.5610    0.4296 H   0  0  0  0  0  0  0  0  0  0  0  0
   -3.0461   -1.3555   -0.1928 H   0  0  0  0  0  0  0  0  0  0  0  0
   -1.5036   -2.0177    0.3438 H   0  0  0  0  0  0  0  0  0  0  0  0
   -2.2894   -0.8801    1.4370 H   0  0  0  0  0  0  0  0  0  0  0  0
  1  2  1  0
  2  3  1  0
  3  4  1  0
  4  5  1  0
  5  6  1  0
  6  7  1  0
  7  8  1  0
  8  9  1  0
  8  4  1  0
  8  5  1  0
  1 10  1  0
  1 11  1  0
  1 12  1  0
  2 13  1  0
  2 14  1  0
  3 15  1  0
  3 16  1  0
  4 17  1  0
  5 18  1  0
  6 19  1  0
  6 20  1  0
  9 21  1  0
  9 22  1  0
  9 23  1  0
M  END
