
     RDKit          3D

 20 20  0  0  0  0  0  0  0  0999 V2000
    2.6580   -0.3580   -0.3937 C   0  0  0  0  0  0  0  0  0  0  0  0
    1.1581   -0.4116   -0.7265 C   0  0  0  0  0  0  0  0  0  0  0  0
    0.5061    0.4153    0.3542 C   0  0  0  0  0  0  0  0  0  0  0  0
   -0.9640    0.3805    0.3418 C   0  0  0  0  0  0  0  0  0  0  0  0
   -1.5577    1.2616    1.3688 C   0  0  0  0  0  0  0  0  0  0  0  0
   -2.3584    0.8595    2.1827 O   0  0  0  0  0  0  0  0  0  0  0  0
   -1.6914    0.1253   -0.9126 C   0  0  0  0  0  0  0  0  0  0  0  0
   -1.6634   -0.9684    0.1359 C   0  0  0  0  0  0  0  0  0  0  0  0
    2.8667    0.6438    0.0293 H   0  0  0  0  0  0  0  0  0  0  0  0
    3.2503   -0.5885   -1.2901 H   0  0  0  0  0  0  0  0  0  0  0  0
    2.8068   -1.0924    0.4219 H   0  0  0  0  0  0  0  0  0  0  0  0
    1.0715    0.0696   -1.7384 H   0  0  0  0  0  0  0  0  0  0  0  0
    0.7762   -1.4090   -0.7949 H   0  0  0  0  0  0  0  0  0  0  0  0
    0.9634    1.3736    0.4852 H   0  0  0  0  0  0  0  0  0  0  0  0
    0.8171   -0.1870    1.3183 H   0  0  0  0  0  0  0  0  0  0  0  0
   -1.2619    2.3234    1.4027 H   0  0  0  0  0  0  0  0  0  0  0  0
   -1.0489   -0.0358   -1.8195 H   0  0  0  0  0  0  0  0  0  0  0  0
   -2.6815    0.5889   -1.0435 H   0  0  0  0  0  0  0  0  0  0  0  0
   -1.0605   -1.8487   -0.0715 H   0  0  0  0  0  0  0  0  0  0  0  0
   -2.5865   -1.1421    0.7498 H   0  0  0  0  0  0  0  0  0  0  0  0
  1  2  1  0
  2  3  1  0
  3  4  1  0
  4  5  1  0
  5  6  2  0
  4  7  1  0
  7  8  1  0
  8  4  1  0
  1  9  1  0
  1 10  1  0
  1 11  1  0
  2 12  1  0
  2 13  1  0
  3 14  1  0
  3 15  1  0
  5 16  1  0
  7 17  1  0
  7 18  1  0
  8 19  1  0
  8 20  1  0
M  END
