
     RDKit          3D

 21 21  0  0  0  0  0  0  0  0999 V2000
   -2.8954    0.2838   -0.1111 C   0  0  0  0  0  0  0  0  0  0  0  0
   -2.5890   -1.1463    0.3377 C   0  0  0  0  0  0  0  0  0  0  0  0
   -1.4859   -0.9963    1.4207 C   0  0  0  0  0  0  0  0  0  0  0  0
   -0.3833   -0.3767    0.7793 C   0  0  0  0  0  0  0  0  0  0  0  0
    0.5815    0.1885    0.2026 C   0  0  0  0  0  0  0  0  0  0  0  0
    1.6592    0.8447   -0.4628 C   0  0  0  0  0  0  0  0  0  0  0  0
    2.3700    0.0811   -1.5377 C   0  0  0  0  0  0  0  0  0  0  0  0
    3.5094    0.8891   -0.9372 C   0  0  0  0  0  0  0  0  0  0  0  0
    2.8372    0.6918    0.3078 O   0  0  0  0  0  0  0  0  0  0  0  0
   -3.2997    0.3124   -1.1265 H   0  0  0  0  0  0  0  0  0  0  0  0
   -1.9473    0.8413   -0.0982 H   0  0  0  0  0  0  0  0  0  0  0  0
   -3.6643    0.6813    0.6167 H   0  0  0  0  0  0  0  0  0  0  0  0
   -2.0836   -1.6607   -0.5020 H   0  0  0  0  0  0  0  0  0  0  0  0
   -3.4733   -1.6556    0.7063 H   0  0  0  0  0  0  0  0  0  0  0  0
   -1.8553   -0.4617    2.3030 H   0  0  0  0  0  0  0  0  0  0  0  0
   -1.2548   -2.0835    1.6864 H   0  0  0  0  0  0  0  0  0  0  0  0
    1.5041    1.8991   -0.7919 H   0  0  0  0  0  0  0  0  0  0  0  0
    2.4835   -1.0227   -1.3815 H   0  0  0  0  0  0  0  0  0  0  0  0
    2.0343    0.3574   -2.5519 H   0  0  0  0  0  0  0  0  0  0  0  0
    4.4932    0.3931   -1.0011 H   0  0  0  0  0  0  0  0  0  0  0  0
    3.4596    1.9400   -1.2474 H   0  0  0  0  0  0  0  0  0  0  0  0
  1  2  1  0
  2  3  1  0
  3  4  1  0
  4  5  3  0
  5  6  1  0
  6  7  1  0
  7  8  1  0
  8  9  1  0
  9  6  1  0
  1 10  1  0
  1 11  1  0
  1 12  1  0
  2 13  1  0
  2 14  1  0
  3 15  1  0
  3 16  1  0
  6 17  1  0
  7 18  1  0
  7 19  1  0
  8 20  1  0
  8 21  1  0
M  END
