
     RDKit          3D

 27 27  0  0  0  0  0  0  0  0999 V2000
    2.8009    0.1610   -1.4404 C   0  0  0  0  0  0  0  0  0  0  0  0
    2.8777    0.1076    0.0488 C   0  0  0  0  0  0  0  0  0  0  0  0
    1.5300    0.0904    0.7234 C   0  0  0  0  0  0  0  0  0  0  0  0
    0.7019   -1.1033    0.3101 C   0  0  0  0  0  0  0  0  0  0  0  0
   -0.6320   -1.0549    1.0248 C   0  0  0  0  0  0  0  0  0  0  0  0
   -1.3351    0.2205    0.6397 C   0  0  0  0  0  0  0  0  0  0  0  0
   -1.6020    0.3497   -0.8457 C   0  0  0  0  0  0  0  0  0  0  0  0
   -2.9097    1.0495   -0.4508 C   0  0  0  0  0  0  0  0  0  0  0  0
   -2.8505    0.1826    0.8156 C   0  0  0  0  0  0  0  0  0  0  0  0
    1.9027    0.6621   -1.8350 H   0  0  0  0  0  0  0  0  0  0  0  0
    3.6940    0.7158   -1.8169 H   0  0  0  0  0  0  0  0  0  0  0  0
    2.8705   -0.8560   -1.8967 H   0  0  0  0  0  0  0  0  0  0  0  0
    3.4461   -0.8070    0.3476 H   0  0  0  0  0  0  0  0  0  0  0  0
    3.4793    0.9639    0.4140 H   0  0  0  0  0  0  0  0  0  0  0  0
    1.0307    1.0435    0.4685 H   0  0  0  0  0  0  0  0  0  0  0  0
    1.6944    0.0642    1.8156 H   0  0  0  0  0  0  0  0  0  0  0  0
    1.2397   -2.0419    0.4350 H   0  0  0  0  0  0  0  0  0  0  0  0
    0.5097   -0.9857   -0.7864 H   0  0  0  0  0  0  0  0  0  0  0  0
   -1.2544   -1.9164    0.6703 H   0  0  0  0  0  0  0  0  0  0  0  0
   -0.5049   -1.1840    2.0974 H   0  0  0  0  0  0  0  0  0  0  0  0
   -0.9244    1.1488    1.0349 H   0  0  0  0  0  0  0  0  0  0  0  0
   -0.8983    0.9678   -1.4019 H   0  0  0  0  0  0  0  0  0  0  0  0
   -1.8634   -0.6314   -1.2817 H   0  0  0  0  0  0  0  0  0  0  0  0
   -3.7586    0.8318   -1.1104 H   0  0  0  0  0  0  0  0  0  0  0  0
   -2.7502    2.1363   -0.2412 H   0  0  0  0  0  0  0  0  0  0  0  0
   -3.2324    0.6960    1.6917 H   0  0  0  0  0  0  0  0  0  0  0  0
   -3.2617   -0.8110    0.5694 H   0  0  0  0  0  0  0  0  0  0  0  0
  1  2  1  0
  2  3  1  0
  3  4  1  0
  4  5  1  0
  5  6  1  0
  6  7  1  0
  7  8  1  0
  8  9  1  0
  9  6  1  0
  1 10  1  0
  1 11  1  0
  1 12  1  0
  2 13  1  0
  2 14  1  0
  3 15  1  0
  3 16  1  0
  4 17  1  0
  4 18  1  0
  5 19  1  0
  5 20  1  0
  6 21  1  0
  7 22  1  0
  7 23  1  0
  8 24  1  0
  8 25  1  0
  9 26  1  0
  9 27  1  0
M  END
