
     RDKit          3D

 24 24  0  0  0  0  0  0  0  0999 V2000
    3.1198    0.8674    0.7740 C   0  0  0  0  0  0  0  0  0  0  0  0
    1.9366   -0.0380    0.7090 C   0  0  0  0  0  0  0  0  0  0  0  0
    1.0832    0.1978   -0.5198 C   0  0  0  0  0  0  0  0  0  0  0  0
   -0.0831   -0.7476   -0.5134 C   0  0  0  0  0  0  0  0  0  0  0  0
   -1.0413   -0.6562   -1.6626 C   0  0  0  0  0  0  0  0  0  0  0  0
   -1.4644   -0.2556   -0.2959 C   0  0  0  0  0  0  0  0  0  0  0  0
   -2.4678   -1.1853    0.3588 C   0  0  0  0  0  0  0  0  0  0  0  0
   -1.7132    1.2048    0.0100 C   0  0  0  0  0  0  0  0  0  0  0  0
    3.2591    1.1628    1.8485 H   0  0  0  0  0  0  0  0  0  0  0  0
    3.0253    1.7870    0.1728 H   0  0  0  0  0  0  0  0  0  0  0  0
    4.0768    0.3515    0.4969 H   0  0  0  0  0  0  0  0  0  0  0  0
    1.2616    0.0382    1.5906 H   0  0  0  0  0  0  0  0  0  0  0  0
    2.3150   -1.0866    0.6892 H   0  0  0  0  0  0  0  0  0  0  0  0
    0.7896    1.2457   -0.6136 H   0  0  0  0  0  0  0  0  0  0  0  0
    1.7036   -0.0463   -1.4174 H   0  0  0  0  0  0  0  0  0  0  0  0
    0.1418   -1.7600   -0.1179 H   0  0  0  0  0  0  0  0  0  0  0  0
   -0.8137    0.0913   -2.4439 H   0  0  0  0  0  0  0  0  0  0  0  0
   -1.4151   -1.6239   -2.1024 H   0  0  0  0  0  0  0  0  0  0  0  0
   -3.3081   -1.2929   -0.3836 H   0  0  0  0  0  0  0  0  0  0  0  0
   -2.0638   -2.1911    0.5425 H   0  0  0  0  0  0  0  0  0  0  0  0
   -2.9367   -0.7201    1.2522 H   0  0  0  0  0  0  0  0  0  0  0  0
   -1.3848    1.8793   -0.7869 H   0  0  0  0  0  0  0  0  0  0  0  0
   -2.8046    1.3561    0.1425 H   0  0  0  0  0  0  0  0  0  0  0  0
   -1.2158    1.4217    0.9851 H   0  0  0  0  0  0  0  0  0  0  0  0
  1  2  1  0
  2  3  1  0
  3  4  1  0
  4  5  1  0
  5  6  1  0
  6  7  1  0
  6  8  1  0
  6  4  1  0
  1  9  1  0
  1 10  1  0
  1 11  1  0
  2 12  1  0
  2 13  1  0
  3 14  1  0
  3 15  1  0
  4 16  1  0
  5 17  1  0
  5 18  1  0
  7 19  1  0
  7 20  1  0
  7 21  1  0
  8 22  1  0
  8 23  1  0
  8 24  1  0
M  END
