
     RDKit          3D

 25 26  0  0  0  0  0  0  0  0999 V2000
    3.6205    0.0595    0.0730 C   0  0  0  0  0  0  0  0  0  0  0  0
    2.2420   -0.5161    0.1569 C   0  0  0  0  0  0  0  0  0  0  0  0
    1.2749    0.2719   -0.7377 C   0  0  0  0  0  0  0  0  0  0  0  0
   -0.0647   -0.3596   -0.5984 C   0  0  0  0  0  0  0  0  0  0  0  0
   -0.6300   -0.3644    0.8106 C   0  0  0  0  0  0  0  0  0  0  0  0
   -1.9195    0.1557    0.2182 C   0  0  0  0  0  0  0  0  0  0  0  0
   -3.1775   -0.6295    0.3423 C   0  0  0  0  0  0  0  0  0  0  0  0
   -1.8607    1.5080   -0.3615 C   0  0  0  0  0  0  0  0  0  0  0  0
   -1.2493    0.3881   -1.0830 C   0  0  0  0  0  0  0  0  0  0  0  0
    3.5489    1.1084   -0.2569 H   0  0  0  0  0  0  0  0  0  0  0  0
    4.1475   -0.0633    1.0423 H   0  0  0  0  0  0  0  0  0  0  0  0
    4.2010   -0.5057   -0.6884 H   0  0  0  0  0  0  0  0  0  0  0  0
    2.2275   -1.5541   -0.2438 H   0  0  0  0  0  0  0  0  0  0  0  0
    1.8363   -0.4553    1.1887 H   0  0  0  0  0  0  0  0  0  0  0  0
    1.6293    0.1357   -1.7687 H   0  0  0  0  0  0  0  0  0  0  0  0
    1.2787    1.3240   -0.4454 H   0  0  0  0  0  0  0  0  0  0  0  0
   -0.0633   -1.4151   -0.9828 H   0  0  0  0  0  0  0  0  0  0  0  0
   -0.6696   -1.3308    1.3072 H   0  0  0  0  0  0  0  0  0  0  0  0
   -0.1726    0.4447    1.4349 H   0  0  0  0  0  0  0  0  0  0  0  0
   -3.0127   -1.7350    0.3026 H   0  0  0  0  0  0  0  0  0  0  0  0
   -3.6209   -0.4348    1.3440 H   0  0  0  0  0  0  0  0  0  0  0  0
   -3.9121   -0.2897   -0.4075 H   0  0  0  0  0  0  0  0  0  0  0  0
   -2.7685    1.9455   -0.7957 H   0  0  0  0  0  0  0  0  0  0  0  0
   -1.1752    2.2654    0.0705 H   0  0  0  0  0  0  0  0  0  0  0  0
   -1.7099    0.0464   -2.0359 H   0  0  0  0  0  0  0  0  0  0  0  0
  1  2  1  0
  2  3  1  0
  3  4  1  0
  4  5  1  0
  5  6  1  0
  6  7  1  0
  6  8  1  0
  8  9  1  0
  9  4  1  0
  9  6  1  0
  1 10  1  0
  1 11  1  0
  1 12  1  0
  2 13  1  0
  2 14  1  0
  3 15  1  0
  3 16  1  0
  4 17  1  0
  5 18  1  0
  5 19  1  0
  7 20  1  0
  7 21  1  0
  7 22  1  0
  8 23  1  0
  8 24  1  0
  9 25  1  0
M  END
