
     RDKit          3D

 21 20  0  0  0  0  0  0  0  0999 V2000
    2.7648   -0.2461    0.0247 C   0  0  0  0  0  0  0  0  0  0  0  0
    1.4015    0.3119    0.3746 C   0  0  0  0  0  0  0  0  0  0  0  0
    0.3620   -0.4646   -0.3900 C   0  0  0  0  0  0  0  0  0  0  0  0
   -1.0371    0.0015   -0.1223 C   0  0  0  0  0  0  0  0  0  0  0  0
   -1.4638   -0.0959    1.2962 C   0  0  0  0  0  0  0  0  0  0  0  0
   -1.9409   -0.8108   -1.0137 C   0  0  0  0  0  0  0  0  0  0  0  0
   -2.8215   -1.5073   -0.5797 O   0  0  0  0  0  0  0  0  0  0  0  0
   -1.1500    1.4200   -0.5415 C   0  0  0  0  0  0  0  0  0  0  0  0
   -1.3025    1.6617   -1.7232 O   0  0  0  0  0  0  0  0  0  0  0  0
    2.9267   -0.1002   -1.0583 H   0  0  0  0  0  0  0  0  0  0  0  0
    2.7541   -1.3380    0.2404 H   0  0  0  0  0  0  0  0  0  0  0  0
    3.5743    0.2833    0.5504 H   0  0  0  0  0  0  0  0  0  0  0  0
    1.4052    1.3760    0.0299 H   0  0  0  0  0  0  0  0  0  0  0  0
    1.2047    0.3114    1.4549 H   0  0  0  0  0  0  0  0  0  0  0  0
    0.4841   -1.5504   -0.1882 H   0  0  0  0  0  0  0  0  0  0  0  0
    0.5706   -0.3371   -1.4727 H   0  0  0  0  0  0  0  0  0  0  0  0
   -0.8594   -0.7877    1.9146 H   0  0  0  0  0  0  0  0  0  0  0  0
   -1.5134    0.9027    1.8104 H   0  0  0  0  0  0  0  0  0  0  0  0
   -2.4981   -0.5011    1.3109 H   0  0  0  0  0  0  0  0  0  0  0  0
   -1.7611   -0.7397   -2.0802 H   0  0  0  0  0  0  0  0  0  0  0  0
   -1.1003    2.2105    0.1629 H   0  0  0  0  0  0  0  0  0  0  0  0
  1  2  1  0
  2  3  1  0
  3  4  1  0
  4  5  1  0
  4  6  1  0
  6  7  2  0
  4  8  1  0
  8  9  2  0
  1 10  1  0
  1 11  1  0
  1 12  1  0
  2 13  1  0
  2 14  1  0
  3 15  1  0
  3 16  1  0
  5 17  1  0
  5 18  1  0
  5 19  1  0
  6 20  1  0
  8 21  1  0
M  END
