
     RDKit          3D

 25 26  0  0  0  0  0  0  0  0999 V2000
    2.0849    1.5241    0.3947 C   0  0  0  0  0  0  0  0  0  0  0  0
    1.9419    0.1319    0.9663 C   0  0  0  0  0  0  0  0  0  0  0  0
    1.1625   -0.7557    0.1200 C   0  0  0  0  0  0  0  0  0  0  0  0
   -0.2306   -0.5392   -0.2331 C   0  0  0  0  0  0  0  0  0  0  0  0
   -0.6972   -1.6690   -1.1420 C   0  0  0  0  0  0  0  0  0  0  0  0
   -1.0882   -0.4401    1.0571 C   0  0  0  0  0  0  0  0  0  0  0  0
   -2.1321    0.0130    0.0670 C   0  0  0  0  0  0  0  0  0  0  0  0
   -2.1466    1.1803   -0.7827 C   0  0  0  0  0  0  0  0  0  0  0  0
   -0.8352    0.7856   -0.4199 C   0  0  0  0  0  0  0  0  0  0  0  0
    3.1650    1.8070    0.2688 H   0  0  0  0  0  0  0  0  0  0  0  0
    1.6656    1.5878   -0.6310 H   0  0  0  0  0  0  0  0  0  0  0  0
    1.6651    2.3212    1.0334 H   0  0  0  0  0  0  0  0  0  0  0  0
    1.6400    0.2154    2.0280 H   0  0  0  0  0  0  0  0  0  0  0  0
    2.9963   -0.2797    1.0331 H   0  0  0  0  0  0  0  0  0  0  0  0
    1.7286   -0.8842   -0.8590 H   0  0  0  0  0  0  0  0  0  0  0  0
    1.2276   -1.8146    0.5345 H   0  0  0  0  0  0  0  0  0  0  0  0
    0.1942   -2.1954   -1.6100 H   0  0  0  0  0  0  0  0  0  0  0  0
   -1.2148   -1.2708   -2.0519 H   0  0  0  0  0  0  0  0  0  0  0  0
   -1.2233   -2.4721   -0.6224 H   0  0  0  0  0  0  0  0  0  0  0  0
   -1.2747   -1.4062    1.5048 H   0  0  0  0  0  0  0  0  0  0  0  0
   -0.6530    0.3560    1.6731 H   0  0  0  0  0  0  0  0  0  0  0  0
   -2.4501   -0.8761   -0.5145 H   0  0  0  0  0  0  0  0  0  0  0  0
   -2.3755    1.1589   -1.8932 H   0  0  0  0  0  0  0  0  0  0  0  0
   -2.7034    2.0626   -0.3432 H   0  0  0  0  0  0  0  0  0  0  0  0
   -0.4469    1.4593    0.4220 H   0  0  0  0  0  0  0  0  0  0  0  0
  1  2  1  0
  2  3  1  0
  3  4  1  0
  4  5  1  0
  4  6  1  0
  6  7  1  0
  7  8  1  0
  8  9  1  0
  9  4  1  0
  9  7  1  0
  1 10  1  0
  1 11  1  0
  1 12  1  0
  2 13  1  0
  2 14  1  0
  3 15  1  0
  3 16  1  0
  5 17  1  0
  5 18  1  0
  5 19  1  0
  6 20  1  0
  6 21  1  0
  7 22  1  0
  8 23  1  0
  8 24  1  0
  9 25  1  0
M  END
