
     RDKit          3D

 23 22  0  0  0  0  0  0  0  0999 V2000
   -2.2117    1.1469    0.4116 C   0  0  0  0  0  0  0  0  0  0  0  0
   -2.1662   -0.1234   -0.4091 C   0  0  0  0  0  0  0  0  0  0  0  0
   -1.6096   -1.2137    0.4681 C   0  0  0  0  0  0  0  0  0  0  0  0
   -0.2292   -0.9121    0.9794 C   0  0  0  0  0  0  0  0  0  0  0  0
    0.6893   -0.7471   -0.2014 C   0  0  0  0  0  0  0  0  0  0  0  0
    2.0835   -0.4549    0.2331 C   0  0  0  0  0  0  0  0  0  0  0  0
    2.7764   -1.3382    0.7253 O   0  0  0  0  0  0  0  0  0  0  0  0
    2.5795    0.9328    0.0425 C   0  0  0  0  0  0  0  0  0  0  0  0
    3.8822    1.0183    0.5013 O   0  0  0  0  0  0  0  0  0  0  0  0
   -2.6431    0.8801    1.3942 H   0  0  0  0  0  0  0  0  0  0  0  0
   -2.7976    1.9169   -0.1354 H   0  0  0  0  0  0  0  0  0  0  0  0
   -1.1860    1.5286    0.5920 H   0  0  0  0  0  0  0  0  0  0  0  0
   -1.6250   -0.0166   -1.3672 H   0  0  0  0  0  0  0  0  0  0  0  0
   -3.2445   -0.4247   -0.6068 H   0  0  0  0  0  0  0  0  0  0  0  0
   -1.5708   -2.1367   -0.1820 H   0  0  0  0  0  0  0  0  0  0  0  0
   -2.3314   -1.4409    1.2788 H   0  0  0  0  0  0  0  0  0  0  0  0
   -0.2030    0.0309    1.5609 H   0  0  0  0  0  0  0  0  0  0  0  0
    0.1276   -1.7206    1.6605 H   0  0  0  0  0  0  0  0  0  0  0  0
    0.3101    0.0531   -0.8490 H   0  0  0  0  0  0  0  0  0  0  0  0
    0.6940   -1.7237   -0.7704 H   0  0  0  0  0  0  0  0  0  0  0  0
    1.8844    1.6090    0.6099 H   0  0  0  0  0  0  0  0  0  0  0  0
    2.5596    1.2442   -1.0268 H   0  0  0  0  0  0  0  0  0  0  0  0
    4.2314    1.8917    0.2374 H   0  0  0  0  0  0  0  0  0  0  0  0
  1  2  1  0
  2  3  1  0
  3  4  1  0
  4  5  1  0
  5  6  1  0
  6  7  2  0
  6  8  1  0
  8  9  1  0
  1 10  1  0
  1 11  1  0
  1 12  1  0
  2 13  1  0
  2 14  1  0
  3 15  1  0
  3 16  1  0
  4 17  1  0
  4 18  1  0
  5 19  1  0
  5 20  1  0
  8 21  1  0
  8 22  1  0
  9 23  1  0
M  END
