
     RDKit          3D

 15 14  0  0  0  0  0  0  0  0999 V2000
   -2.0607   -0.4784   -0.2557 C   0  0  0  0  0  0  0  0  0  0  0  0
   -0.8341    0.3947   -0.2298 C   0  0  0  0  0  0  0  0  0  0  0  0
    0.4368   -0.4025   -0.0361 C   0  0  0  0  0  0  0  0  0  0  0  0
    1.5818    0.6029   -0.0305 C   0  0  0  0  0  0  0  0  0  0  0  0
    2.8102    0.0129    0.1391 O   0  0  0  0  0  0  0  0  0  0  0  0
   -2.1234   -1.0986    0.6682 H   0  0  0  0  0  0  0  0  0  0  0  0
   -2.9406    0.2062   -0.2508 H   0  0  0  0  0  0  0  0  0  0  0  0
   -2.0684   -1.0991   -1.1800 H   0  0  0  0  0  0  0  0  0  0  0  0
   -0.7487    0.9265   -1.1919 H   0  0  0  0  0  0  0  0  0  0  0  0
   -0.9232    1.0681    0.6463 H   0  0  0  0  0  0  0  0  0  0  0  0
    0.3851   -0.9089    0.9359 H   0  0  0  0  0  0  0  0  0  0  0  0
    0.5118   -1.0994   -0.8964 H   0  0  0  0  0  0  0  0  0  0  0  0
    1.4069    1.2718    0.8382 H   0  0  0  0  0  0  0  0  0  0  0  0
    1.5186    1.2416   -0.9347 H   0  0  0  0  0  0  0  0  0  0  0  0
    3.0480   -0.6378   -0.5644 H   0  0  0  0  0  0  0  0  0  0  0  0
  1  2  1  0
  2  3  1  0
  3  4  1  0
  4  5  1  0
  1  6  1  0
  1  7  1  0
  1  8  1  0
  2  9  1  0
  2 10  1  0
  3 11  1  0
  3 12  1  0
  4 13  1  0
  4 14  1  0
  5 15  1  0
M  END
