
     RDKit          3D

 23 23  0  0  0  0  0  0  0  0999 V2000
    3.1817   -0.4918    0.0399 C   0  0  0  0  0  0  0  0  0  0  0  0
    1.7920   -0.1507   -0.4102 C   0  0  0  0  0  0  0  0  0  0  0  0
    0.9629    0.2615    0.8025 C   0  0  0  0  0  0  0  0  0  0  0  0
   -0.4110    0.5895    0.2918 C   0  0  0  0  0  0  0  0  0  0  0  0
   -1.4025    1.0276    1.3542 C   0  0  0  0  0  0  0  0  0  0  0  0
   -2.4476    0.2496    0.5572 C   0  0  0  0  0  0  0  0  0  0  0  0
   -2.8769    1.0202   -0.5156 O   0  0  0  0  0  0  0  0  0  0  0  0
   -1.2985   -0.6394    0.1126 C   0  0  0  0  0  0  0  0  0  0  0  0
   -1.3833   -1.0953   -1.1894 O   0  0  0  0  0  0  0  0  0  0  0  0
    3.5863   -1.3530   -0.5277 H   0  0  0  0  0  0  0  0  0  0  0  0
    3.2555   -0.7292    1.1182 H   0  0  0  0  0  0  0  0  0  0  0  0
    3.9008    0.3562   -0.1327 H   0  0  0  0  0  0  0  0  0  0  0  0
    1.8624    0.6882   -1.1176 H   0  0  0  0  0  0  0  0  0  0  0  0
    1.3460   -1.0177   -0.9339 H   0  0  0  0  0  0  0  0  0  0  0  0
    0.8812   -0.5575    1.5291 H   0  0  0  0  0  0  0  0  0  0  0  0
    1.4537    1.1264    1.2618 H   0  0  0  0  0  0  0  0  0  0  0  0
   -0.4599    1.2579   -0.5823 H   0  0  0  0  0  0  0  0  0  0  0  0
   -1.1938    0.5055    2.2942 H   0  0  0  0  0  0  0  0  0  0  0  0
   -1.5856    2.1139    1.4118 H   0  0  0  0  0  0  0  0  0  0  0  0
   -3.2152   -0.2348    1.1538 H   0  0  0  0  0  0  0  0  0  0  0  0
   -3.0573    0.4816   -1.3267 H   0  0  0  0  0  0  0  0  0  0  0  0
   -1.0778   -1.4188    0.8845 H   0  0  0  0  0  0  0  0  0  0  0  0
   -1.8132   -1.9899   -1.1549 H   0  0  0  0  0  0  0  0  0  0  0  0
  1  2  1  0
  2  3  1  0
  3  4  1  0
  4  5  1  0
  5  6  1  0
  6  7  1  0
  6  8  1  0
  8  9  1  0
  8  4  1  0
  1 10  1  0
  1 11  1  0
  1 12  1  0
  2 13  1  0
  2 14  1  0
  3 15  1  0
  3 16  1  0
  4 17  1  0
  5 18  1  0
  5 19  1  0
  6 20  1  0
  7 21  1  0
  8 22  1  0
  9 23  1  0
M  END
