
     RDKit          3D

 19 19  0  0  0  0  0  0  0  0999 V2000
    2.6545   -0.1625   -0.0438 C   0  0  0  0  0  0  0  0  0  0  0  0
    1.1892    0.1396   -0.3879 C   0  0  0  0  0  0  0  0  0  0  0  0
    0.3752   -0.2864    0.8037 C   0  0  0  0  0  0  0  0  0  0  0  0
   -1.0917   -0.0544    0.6223 C   0  0  0  0  0  0  0  0  0  0  0  0
   -1.6305    1.3210    0.3803 C   0  0  0  0  0  0  0  0  0  0  0  0
   -1.9913   -1.1978    0.3474 C   0  0  0  0  0  0  0  0  0  0  0  0
   -1.8315   -0.7730    1.6564 O   0  0  0  0  0  0  0  0  0  0  0  0
    2.9075   -1.2048   -0.2439 H   0  0  0  0  0  0  0  0  0  0  0  0
    3.3149    0.5719   -0.5461 H   0  0  0  0  0  0  0  0  0  0  0  0
    2.7626    0.0211    1.0449 H   0  0  0  0  0  0  0  0  0  0  0  0
    1.1518    1.2321   -0.5557 H   0  0  0  0  0  0  0  0  0  0  0  0
    0.8907   -0.3513   -1.3188 H   0  0  0  0  0  0  0  0  0  0  0  0
    0.7560    0.2896    1.6770 H   0  0  0  0  0  0  0  0  0  0  0  0
    0.5242   -1.3579    1.0479 H   0  0  0  0  0  0  0  0  0  0  0  0
   -2.1892    1.7001    1.2733 H   0  0  0  0  0  0  0  0  0  0  0  0
   -0.8766    2.0398    0.0377 H   0  0  0  0  0  0  0  0  0  0  0  0
   -2.3800    1.2405   -0.4513 H   0  0  0  0  0  0  0  0  0  0  0  0
   -2.9762   -0.9882   -0.0812 H   0  0  0  0  0  0  0  0  0  0  0  0
   -1.5595   -2.1794    0.0302 H   0  0  0  0  0  0  0  0  0  0  0  0
  1  2  1  0
  2  3  1  0
  3  4  1  0
  4  5  1  0
  4  6  1  0
  6  7  1  0
  7  4  1  0
  1  8  1  0
  1  9  1  0
  1 10  1  0
  2 11  1  0
  2 12  1  0
  3 13  1  0
  3 14  1  0
  5 15  1  0
  5 16  1  0
  5 17  1  0
  6 18  1  0
  6 19  1  0
M  END
