
     RDKit          3D

 21 22  0  0  0  0  0  0  0  0999 V2000
    2.3700   -0.0254    0.4935 C   0  0  0  0  0  0  0  0  0  0  0  0
    1.5602    1.0759   -0.1540 C   0  0  0  0  0  0  0  0  0  0  0  0
    0.7173    0.3933   -1.2430 C   0  0  0  0  0  0  0  0  0  0  0  0
   -0.1352   -0.6130   -0.5317 C   0  0  0  0  0  0  0  0  0  0  0  0
   -0.9916   -1.3660   -1.2971 O   0  0  0  0  0  0  0  0  0  0  0  0
   -1.8667   -1.3063   -0.1911 C   0  0  0  0  0  0  0  0  0  0  0  0
   -2.6582   -0.0771   -0.1186 C   0  0  0  0  0  0  0  0  0  0  0  0
   -1.2313    0.0407    0.2358 C   0  0  0  0  0  0  0  0  0  0  0  0
   -0.9561    0.2225    1.5771 O   0  0  0  0  0  0  0  0  0  0  0  0
    1.8585   -0.4210    1.3947 H   0  0  0  0  0  0  0  0  0  0  0  0
    2.4881   -0.9033   -0.1918 H   0  0  0  0  0  0  0  0  0  0  0  0
    3.3582    0.3501    0.7737 H   0  0  0  0  0  0  0  0  0  0  0  0
    2.1736    1.8703   -0.5823 H   0  0  0  0  0  0  0  0  0  0  0  0
    0.8695    1.5074    0.5995 H   0  0  0  0  0  0  0  0  0  0  0  0
    0.0703    1.1871   -1.6954 H   0  0  0  0  0  0  0  0  0  0  0  0
    1.3488   -0.0140   -2.0313 H   0  0  0  0  0  0  0  0  0  0  0  0
    0.4917   -1.2986    0.1029 H   0  0  0  0  0  0  0  0  0  0  0  0
   -1.8003   -2.0575    0.5910 H   0  0  0  0  0  0  0  0  0  0  0  0
   -3.4321   -0.0390    0.6770 H   0  0  0  0  0  0  0  0  0  0  0  0
   -2.9983    0.3574   -1.0724 H   0  0  0  0  0  0  0  0  0  0  0  0
   -1.2363    1.1166    1.8309 H   0  0  0  0  0  0  0  0  0  0  0  0
  1  2  1  0
  2  3  1  0
  3  4  1  0
  4  5  1  0
  5  6  1  0
  6  7  1  0
  7  8  1  0
  8  9  1  0
  8  4  1  0
  8  6  1  0
  1 10  1  0
  1 11  1  0
  1 12  1  0
  2 13  1  0
  2 14  1  0
  3 15  1  0
  3 16  1  0
  4 17  1  0
  6 18  1  0
  7 19  1  0
  7 20  1  0
  9 21  1  0
M  END
