
     RDKit          3D

 21 20  0  0  0  0  0  0  0  0999 V2000
   -2.8609    0.9206   -0.2044 C   0  0  0  0  0  0  0  0  0  0  0  0
   -1.9012   -0.1790    0.1146 C   0  0  0  0  0  0  0  0  0  0  0  0
   -0.4805    0.1461   -0.3845 C   0  0  0  0  0  0  0  0  0  0  0  0
    0.3522   -1.0344    0.0049 C   0  0  0  0  0  0  0  0  0  0  0  0
    1.7843   -0.9876   -0.3846 C   0  0  0  0  0  0  0  0  0  0  0  0
    2.5423    0.1667    0.2011 C   0  0  0  0  0  0  0  0  0  0  0  0
    2.0702    1.4160   -0.1687 O   0  0  0  0  0  0  0  0  0  0  0  0
   -3.8644    0.5065   -0.4403 H   0  0  0  0  0  0  0  0  0  0  0  0
   -2.4931    1.5803   -1.0314 H   0  0  0  0  0  0  0  0  0  0  0  0
   -2.9815    1.5535    0.7084 H   0  0  0  0  0  0  0  0  0  0  0  0
   -2.2216   -1.1272   -0.3332 H   0  0  0  0  0  0  0  0  0  0  0  0
   -1.7810   -0.3430    1.2197 H   0  0  0  0  0  0  0  0  0  0  0  0
   -0.1344    1.0474    0.1822 H   0  0  0  0  0  0  0  0  0  0  0  0
   -0.5127    0.3183   -1.4566 H   0  0  0  0  0  0  0  0  0  0  0  0
   -0.1255   -1.9818   -0.3866 H   0  0  0  0  0  0  0  0  0  0  0  0
    0.2729   -1.1554    1.1264 H   0  0  0  0  0  0  0  0  0  0  0  0
    2.2579   -1.9157    0.0606 H   0  0  0  0  0  0  0  0  0  0  0  0
    1.9361   -1.0811   -1.4857 H   0  0  0  0  0  0  0  0  0  0  0  0
    3.6183    0.1480   -0.1023 H   0  0  0  0  0  0  0  0  0  0  0  0
    2.4926    0.0303    1.3232 H   0  0  0  0  0  0  0  0  0  0  0  0
    2.0300    1.9715    0.6606 H   0  0  0  0  0  0  0  0  0  0  0  0
  1  2  1  0
  2  3  1  0
  3  4  1  0
  4  5  1  0
  5  6  1  0
  6  7  1  0
  1  8  1  0
  1  9  1  0
  1 10  1  0
  2 11  1  0
  2 12  1  0
  3 13  1  0
  3 14  1  0
  4 15  1  0
  4 16  1  0
  5 17  1  0
  5 18  1  0
  6 19  1  0
  6 20  1  0
  7 21  1  0
M  END
