
     RDKit          3D

 23 23  0  0  0  0  0  0  0  0999 V2000
    3.2939    0.5689    0.1541 C   0  0  0  0  0  0  0  0  0  0  0  0
    1.8148    0.7482   -0.1238 C   0  0  0  0  0  0  0  0  0  0  0  0
    1.0734   -0.5670   -0.0699 C   0  0  0  0  0  0  0  0  0  0  0  0
   -0.3827   -0.2677   -0.3603 C   0  0  0  0  0  0  0  0  0  0  0  0
   -0.9744    0.6779    0.6373 C   0  0  0  0  0  0  0  0  0  0  0  0
   -2.0467   -0.3384    0.9918 C   0  0  0  0  0  0  0  0  0  0  0  0
   -3.3874    0.0356    0.4685 C   0  0  0  0  0  0  0  0  0  0  0  0
   -3.7370    1.1942    0.5160 O   0  0  0  0  0  0  0  0  0  0  0  0
   -1.3397   -1.3491    0.0892 C   0  0  0  0  0  0  0  0  0  0  0  0
    3.6740    1.5527    0.5029 H   0  0  0  0  0  0  0  0  0  0  0  0
    3.8152    0.3555   -0.8223 H   0  0  0  0  0  0  0  0  0  0  0  0
    3.4948   -0.2254    0.8990 H   0  0  0  0  0  0  0  0  0  0  0  0
    1.4227    1.4738    0.6139 H   0  0  0  0  0  0  0  0  0  0  0  0
    1.7298    1.1407   -1.1649 H   0  0  0  0  0  0  0  0  0  0  0  0
    1.1397   -1.0202    0.9433 H   0  0  0  0  0  0  0  0  0  0  0  0
    1.5172   -1.2731   -0.7753 H   0  0  0  0  0  0  0  0  0  0  0  0
   -0.4983    0.0025   -1.4302 H   0  0  0  0  0  0  0  0  0  0  0  0
   -1.3647    1.6035    0.1718 H   0  0  0  0  0  0  0  0  0  0  0  0
   -0.3543    0.9016    1.5340 H   0  0  0  0  0  0  0  0  0  0  0  0
   -2.0277   -0.6801    2.0493 H   0  0  0  0  0  0  0  0  0  0  0  0
   -4.0640   -0.6960    0.0450 H   0  0  0  0  0  0  0  0  0  0  0  0
   -0.7971   -2.1396    0.6288 H   0  0  0  0  0  0  0  0  0  0  0  0
   -2.0015   -1.6985   -0.7280 H   0  0  0  0  0  0  0  0  0  0  0  0
  1  2  1  0
  2  3  1  0
  3  4  1  0
  4  5  1  0
  5  6  1  0
  6  7  1  0
  7  8  2  0
  6  9  1  0
  9  4  1  0
  1 10  1  0
  1 11  1  0
  1 12  1  0
  2 13  1  0
  2 14  1  0
  3 15  1  0
  3 16  1  0
  4 17  1  0
  5 18  1  0
  5 19  1  0
  6 20  1  0
  7 21  1  0
  9 22  1  0
  9 23  1  0
M  END
