
     RDKit          3D

 23 22  0  0  0  0  0  0  0  0999 V2000
    2.3842    0.6966    0.1720 C   0  0  0  0  0  0  0  0  0  0  0  0
    1.9435   -0.6997   -0.1371 C   0  0  0  0  0  0  0  0  0  0  0  0
    0.5663   -0.7538   -0.6743 C   0  0  0  0  0  0  0  0  0  0  0  0
   -0.5631   -0.2935    0.1315 C   0  0  0  0  0  0  0  0  0  0  0  0
   -0.6789    1.0989    0.5863 C   0  0  0  0  0  0  0  0  0  0  0  0
   -0.7547    2.1226   -0.4861 C   0  0  0  0  0  0  0  0  0  0  0  0
   -0.8513    3.2861   -0.1306 O   0  0  0  0  0  0  0  0  0  0  0  0
   -1.7592   -0.5986   -0.5619 O   0  0  0  0  0  0  0  0  0  0  0  0
   -2.5035   -1.5409    0.1398 C   0  0  0  0  0  0  0  0  0  0  0  0
    3.5140    0.7732    0.0278 H   0  0  0  0  0  0  0  0  0  0  0  0
    2.2348    0.8922    1.2475 H   0  0  0  0  0  0  0  0  0  0  0  0
    1.9537    1.4862   -0.4273 H   0  0  0  0  0  0  0  0  0  0  0  0
    2.1104   -1.3898    0.7291 H   0  0  0  0  0  0  0  0  0  0  0  0
    2.6454   -1.0846   -0.9474 H   0  0  0  0  0  0  0  0  0  0  0  0
    0.6028   -0.3145   -1.7080 H   0  0  0  0  0  0  0  0  0  0  0  0
    0.3589   -1.8552   -0.9121 H   0  0  0  0  0  0  0  0  0  0  0  0
   -0.5598   -0.9258    1.0869 H   0  0  0  0  0  0  0  0  0  0  0  0
   -0.0164    1.4344    1.3993 H   0  0  0  0  0  0  0  0  0  0  0  0
   -1.7142    1.1625    1.0782 H   0  0  0  0  0  0  0  0  0  0  0  0
   -0.7319    1.9271   -1.5327 H   0  0  0  0  0  0  0  0  0  0  0  0
   -1.9490   -2.4900    0.2826 H   0  0  0  0  0  0  0  0  0  0  0  0
   -3.3914   -1.7693   -0.4703 H   0  0  0  0  0  0  0  0  0  0  0  0
   -2.8405   -1.1641    1.1084 H   0  0  0  0  0  0  0  0  0  0  0  0
  1  2  1  0
  2  3  1  0
  3  4  1  0
  4  5  1  0
  5  6  1  0
  6  7  2  0
  4  8  1  0
  8  9  1  0
  1 10  1  0
  1 11  1  0
  1 12  1  0
  2 13  1  0
  2 14  1  0
  3 15  1  0
  3 16  1  0
  4 17  1  0
  5 18  1  0
  5 19  1  0
  6 20  1  0
  9 21  1  0
  9 22  1  0
  9 23  1  0
M  END
