
     RDKit          3D

 20 21  0  0  0  0  0  0  0  0999 V2000
    2.9495   -0.1932    0.4411 C   0  0  0  0  0  0  0  0  0  0  0  0
    1.7027   -0.3796   -0.3867 C   0  0  0  0  0  0  0  0  0  0  0  0
    0.5774    0.4407    0.1981 C   0  0  0  0  0  0  0  0  0  0  0  0
   -0.6996    0.2877   -0.5985 C   0  0  0  0  0  0  0  0  0  0  0  0
   -1.9131    1.0465   -0.1375 C   0  0  0  0  0  0  0  0  0  0  0  0
   -2.7752   -0.1977   -0.2322 C   0  0  0  0  0  0  0  0  0  0  0  0
   -1.5102   -0.9908   -0.4309 C   0  0  0  0  0  0  0  0  0  0  0  0
   -0.8017   -0.6873   -1.5633 O   0  0  0  0  0  0  0  0  0  0  0  0
    3.8671   -0.4877   -0.0839 H   0  0  0  0  0  0  0  0  0  0  0  0
    2.8466   -0.7592    1.3991 H   0  0  0  0  0  0  0  0  0  0  0  0
    3.0567    0.8823    0.7011 H   0  0  0  0  0  0  0  0  0  0  0  0
    1.9347   -0.0925   -1.4314 H   0  0  0  0  0  0  0  0  0  0  0  0
    1.3752   -1.4486   -0.3916 H   0  0  0  0  0  0  0  0  0  0  0  0
    0.8513    1.5135    0.1938 H   0  0  0  0  0  0  0  0  0  0  0  0
    0.4129    0.1130    1.2421 H   0  0  0  0  0  0  0  0  0  0  0  0
   -1.7591    1.3663    0.9289 H   0  0  0  0  0  0  0  0  0  0  0  0
   -2.2319    1.8927   -0.7524 H   0  0  0  0  0  0  0  0  0  0  0  0
   -3.3991   -0.2069   -1.1522 H   0  0  0  0  0  0  0  0  0  0  0  0
   -3.3546   -0.4513    0.6561 H   0  0  0  0  0  0  0  0  0  0  0  0
   -1.1296   -1.6479    0.3466 H   0  0  0  0  0  0  0  0  0  0  0  0
  1  2  1  0
  2  3  1  0
  3  4  1  0
  4  5  1  0
  5  6  1  0
  6  7  1  0
  7  8  1  0
  7  4  1  0
  8  4  1  0
  1  9  1  0
  1 10  1  0
  1 11  1  0
  2 12  1  0
  2 13  1  0
  3 14  1  0
  3 15  1  0
  5 16  1  0
  5 17  1  0
  6 18  1  0
  6 19  1  0
  7 20  1  0
M  END
