
     RDKit          3D

 21 21  0  0  0  0  0  0  0  0999 V2000
   -1.8757    0.2097    1.0950 C   0  0  0  0  0  0  0  0  0  0  0  0
   -1.7691   -0.6110   -0.1682 C   0  0  0  0  0  0  0  0  0  0  0  0
   -0.8868    0.0389   -1.1721 C   0  0  0  0  0  0  0  0  0  0  0  0
    0.5212    0.2752   -0.7779 C   0  0  0  0  0  0  0  0  0  0  0  0
    0.7449    1.1313    0.3851 C   0  0  0  0  0  0  0  0  0  0  0  0
    1.7919    0.7130    1.0903 C   0  0  0  0  0  0  0  0  0  0  0  0
    2.3740   -0.4904    0.4423 C   0  0  0  0  0  0  0  0  0  0  0  0
    1.2207   -0.9956   -0.3556 C   0  0  0  0  0  0  0  0  0  0  0  0
    0.9054   -2.1409   -0.6131 O   0  0  0  0  0  0  0  0  0  0  0  0
   -2.1008    1.2810    0.8350 H   0  0  0  0  0  0  0  0  0  0  0  0
   -1.0103    0.0861    1.7421 H   0  0  0  0  0  0  0  0  0  0  0  0
   -2.7790   -0.0927    1.7005 H   0  0  0  0  0  0  0  0  0  0  0  0
   -2.7958   -0.7272   -0.5844 H   0  0  0  0  0  0  0  0  0  0  0  0
   -1.4519   -1.6338    0.1180 H   0  0  0  0  0  0  0  0  0  0  0  0
   -1.3284    1.0406   -1.4086 H   0  0  0  0  0  0  0  0  0  0  0  0
   -0.8743   -0.4908   -2.1554 H   0  0  0  0  0  0  0  0  0  0  0  0
    1.0722    0.6033   -1.6860 H   0  0  0  0  0  0  0  0  0  0  0  0
    0.1718    2.0012    0.6829 H   0  0  0  0  0  0  0  0  0  0  0  0
    2.1785    1.1554    1.9898 H   0  0  0  0  0  0  0  0  0  0  0  0
    2.7652   -1.2242    1.1556 H   0  0  0  0  0  0  0  0  0  0  0  0
    3.1264   -0.1290   -0.2852 H   0  0  0  0  0  0  0  0  0  0  0  0
  1  2  1  0
  2  3  1  0
  3  4  1  0
  4  5  1  0
  5  6  2  0
  6  7  1  0
  7  8  1  0
  8  9  2  0
  8  4  1  0
  1 10  1  0
  1 11  1  0
  1 12  1  0
  2 13  1  0
  2 14  1  0
  3 15  1  0
  3 16  1  0
  4 17  1  0
  5 18  1  0
  6 19  1  0
  7 20  1  0
  7 21  1  0
M  END
