
     RDKit          3D

 25 25  0  0  0  0  0  0  0  0999 V2000
    3.4435   -0.1090    0.0115 C   0  0  0  0  0  0  0  0  0  0  0  0
    2.0727   -0.6332   -0.3912 C   0  0  0  0  0  0  0  0  0  0  0  0
    1.0416    0.2829    0.1745 C   0  0  0  0  0  0  0  0  0  0  0  0
   -0.3733   -0.1349   -0.1609 C   0  0  0  0  0  0  0  0  0  0  0  0
   -0.6746   -1.5180    0.3802 C   0  0  0  0  0  0  0  0  0  0  0  0
   -1.9496   -1.9237    0.0926 O   0  0  0  0  0  0  0  0  0  0  0  0
   -1.3132    0.9060    0.3312 C   0  0  0  0  0  0  0  0  0  0  0  0
   -2.7705    0.8244    0.1747 C   0  0  0  0  0  0  0  0  0  0  0  0
   -2.0228    1.7121   -0.7606 C   0  0  0  0  0  0  0  0  0  0  0  0
    4.2365   -0.8504   -0.1667 H   0  0  0  0  0  0  0  0  0  0  0  0
    3.5929    0.8232   -0.6000 H   0  0  0  0  0  0  0  0  0  0  0  0
    3.3759    0.2093    1.0847 H   0  0  0  0  0  0  0  0  0  0  0  0
    1.9810   -1.6597    0.0226 H   0  0  0  0  0  0  0  0  0  0  0  0
    1.9769   -0.7108   -1.4880 H   0  0  0  0  0  0  0  0  0  0  0  0
    1.1945    0.3884    1.2660 H   0  0  0  0  0  0  0  0  0  0  0  0
    1.1821    1.2957   -0.2669 H   0  0  0  0  0  0  0  0  0  0  0  0
   -0.4091   -0.2328   -1.2837 H   0  0  0  0  0  0  0  0  0  0  0  0
   -0.5226   -1.5247    1.4866 H   0  0  0  0  0  0  0  0  0  0  0  0
    0.0384   -2.2649   -0.0255 H   0  0  0  0  0  0  0  0  0  0  0  0
   -2.5054   -1.9234    0.9304 H   0  0  0  0  0  0  0  0  0  0  0  0
   -0.9370    1.5195    1.1843 H   0  0  0  0  0  0  0  0  0  0  0  0
   -3.4057    1.3199    0.9588 H   0  0  0  0  0  0  0  0  0  0  0  0
   -3.2892   -0.0226   -0.3075 H   0  0  0  0  0  0  0  0  0  0  0  0
   -2.0526    2.8222   -0.6336 H   0  0  0  0  0  0  0  0  0  0  0  0
   -1.9104    1.4042   -1.8069 H   0  0  0  0  0  0  0  0  0  0  0  0
  1  2  1  0
  2  3  1  0
  3  4  1  0
  4  5  1  0
  5  6  1  0
  4  7  1  0
  7  8  1  0
  8  9  1  0
  9  7  1  0
  1 10  1  0
  1 11  1  0
  1 12  1  0
  2 13  1  0
  2 14  1  0
  3 15  1  0
  3 16  1  0
  4 17  1  0
  5 18  1  0
  5 19  1  0
  6 20  1  0
  7 21  1  0
  8 22  1  0
  8 23  1  0
  9 24  1  0
  9 25  1  0
M  END
