
     RDKit          3D

 23 23  0  0  0  0  0  0  0  0999 V2000
    3.7625    0.2031   -0.4801 C   0  0  0  0  0  0  0  0  0  0  0  0
    2.5127   -0.6225   -0.2682 C   0  0  0  0  0  0  0  0  0  0  0  0
    1.3978    0.2906    0.1234 C   0  0  0  0  0  0  0  0  0  0  0  0
    0.0947   -0.3956    0.3659 C   0  0  0  0  0  0  0  0  0  0  0  0
   -0.5359   -1.1221   -0.6108 O   0  0  0  0  0  0  0  0  0  0  0  0
   -1.0637    0.1371   -0.4473 C   0  0  0  0  0  0  0  0  0  0  0  0
   -2.3405    0.3280    0.3137 C   0  0  0  0  0  0  0  0  0  0  0  0
   -3.4276   -0.5555   -0.2885 C   0  0  0  0  0  0  0  0  0  0  0  0
   -2.7379    1.6471    0.3903 O   0  0  0  0  0  0  0  0  0  0  0  0
    4.4635   -0.0576    0.3340 H   0  0  0  0  0  0  0  0  0  0  0  0
    3.5244    1.2870   -0.4560 H   0  0  0  0  0  0  0  0  0  0  0  0
    4.2628   -0.0185   -1.4465 H   0  0  0  0  0  0  0  0  0  0  0  0
    2.6711   -1.4589    0.4314 H   0  0  0  0  0  0  0  0  0  0  0  0
    2.2270   -1.0972   -1.2458 H   0  0  0  0  0  0  0  0  0  0  0  0
    1.6818    0.8182    1.0663 H   0  0  0  0  0  0  0  0  0  0  0  0
    1.3351    1.0921   -0.6494 H   0  0  0  0  0  0  0  0  0  0  0  0
   -0.0876   -0.7238    1.4042 H   0  0  0  0  0  0  0  0  0  0  0  0
   -0.8375    0.8582   -1.2608 H   0  0  0  0  0  0  0  0  0  0  0  0
   -2.1968   -0.0323    1.3497 H   0  0  0  0  0  0  0  0  0  0  0  0
   -2.9908   -1.5710   -0.3801 H   0  0  0  0  0  0  0  0  0  0  0  0
   -4.2651   -0.5366    0.4649 H   0  0  0  0  0  0  0  0  0  0  0  0
   -3.7519   -0.1865   -1.2776 H   0  0  0  0  0  0  0  0  0  0  0  0
   -3.6982    1.7166    0.1337 H   0  0  0  0  0  0  0  0  0  0  0  0
  1  2  1  0
  2  3  1  0
  3  4  1  0
  4  5  1  0
  5  6  1  0
  6  7  1  0
  7  8  1  0
  7  9  1  0
  6  4  1  0
  1 10  1  0
  1 11  1  0
  1 12  1  0
  2 13  1  0
  2 14  1  0
  3 15  1  0
  3 16  1  0
  4 17  1  0
  6 18  1  0
  7 19  1  0
  8 20  1  0
  8 21  1  0
  8 22  1  0
  9 23  1  0
M  END
