
     RDKit          3D

 23 23  0  0  0  0  0  0  0  0999 V2000
    3.1343    0.3167    0.4766 C   0  0  0  0  0  0  0  0  0  0  0  0
    1.7482    0.6356   -0.0157 C   0  0  0  0  0  0  0  0  0  0  0  0
    0.9153   -0.6034   -0.1347 C   0  0  0  0  0  0  0  0  0  0  0  0
   -0.4724   -0.2922   -0.6266 C   0  0  0  0  0  0  0  0  0  0  0  0
   -1.3742   -1.5010   -0.7721 C   0  0  0  0  0  0  0  0  0  0  0  0
   -2.5120   -0.5573   -0.3528 C   0  0  0  0  0  0  0  0  0  0  0  0
   -1.4373    0.1834    0.4577 C   0  0  0  0  0  0  0  0  0  0  0  0
   -1.6933    1.6253    0.4737 C   0  0  0  0  0  0  0  0  0  0  0  0
   -2.7058    2.1069   -0.0207 O   0  0  0  0  0  0  0  0  0  0  0  0
    3.9087    0.9798    0.0006 H   0  0  0  0  0  0  0  0  0  0  0  0
    3.3907   -0.7228    0.1868 H   0  0  0  0  0  0  0  0  0  0  0  0
    3.2243    0.4301    1.5660 H   0  0  0  0  0  0  0  0  0  0  0  0
    1.2815    1.3931    0.6625 H   0  0  0  0  0  0  0  0  0  0  0  0
    1.8623    1.1105   -1.0279 H   0  0  0  0  0  0  0  0  0  0  0  0
    1.4015   -1.2574   -0.8929 H   0  0  0  0  0  0  0  0  0  0  0  0
    0.9014   -1.1641    0.8040 H   0  0  0  0  0  0  0  0  0  0  0  0
   -0.5209    0.4183   -1.4690 H   0  0  0  0  0  0  0  0  0  0  0  0
   -1.4703   -1.9043   -1.7846 H   0  0  0  0  0  0  0  0  0  0  0  0
   -1.1780   -2.2351    0.0392 H   0  0  0  0  0  0  0  0  0  0  0  0
   -2.7963    0.0557   -1.2197 H   0  0  0  0  0  0  0  0  0  0  0  0
   -3.2979   -1.0197    0.2366 H   0  0  0  0  0  0  0  0  0  0  0  0
   -1.3097   -0.3202    1.4359 H   0  0  0  0  0  0  0  0  0  0  0  0
   -1.0001    2.3221    0.9218 H   0  0  0  0  0  0  0  0  0  0  0  0
  1  2  1  0
  2  3  1  0
  3  4  1  0
  4  5  1  0
  5  6  1  0
  6  7  1  0
  7  8  1  0
  8  9  2  0
  7  4  1  0
  1 10  1  0
  1 11  1  0
  1 12  1  0
  2 13  1  0
  2 14  1  0
  3 15  1  0
  3 16  1  0
  4 17  1  0
  5 18  1  0
  5 19  1  0
  6 20  1  0
  6 21  1  0
  7 22  1  0
  8 23  1  0
M  END
