
     RDKit          3D

 21 20  0  0  0  0  0  0  0  0999 V2000
    3.9768    0.0796   -0.5189 C   0  0  0  0  0  0  0  0  0  0  0  0
    2.5598    0.4150   -0.1945 C   0  0  0  0  0  0  0  0  0  0  0  0
    1.7821   -0.7649    0.3743 C   0  0  0  0  0  0  0  0  0  0  0  0
    0.4034   -0.3413    0.6375 C   0  0  0  0  0  0  0  0  0  0  0  0
   -0.7244    0.0263    0.8603 C   0  0  0  0  0  0  0  0  0  0  0  0
   -2.1131    0.4882    1.1245 C   0  0  0  0  0  0  0  0  0  0  0  0
   -3.0465   -0.4351    0.4359 C   0  0  0  0  0  0  0  0  0  0  0  0
   -4.0743    0.0559   -0.5115 C   0  0  0  0  0  0  0  0  0  0  0  0
   -2.9654   -1.6273    0.6536 O   0  0  0  0  0  0  0  0  0  0  0  0
    4.2270   -1.0065   -0.4291 H   0  0  0  0  0  0  0  0  0  0  0  0
    4.1956    0.3751   -1.5873 H   0  0  0  0  0  0  0  0  0  0  0  0
    4.7159    0.6205    0.1260 H   0  0  0  0  0  0  0  0  0  0  0  0
    2.5861    1.2285    0.5917 H   0  0  0  0  0  0  0  0  0  0  0  0
    2.0322    0.8399   -1.0446 H   0  0  0  0  0  0  0  0  0  0  0  0
    1.7457   -1.5402   -0.3908 H   0  0  0  0  0  0  0  0  0  0  0  0
    2.2264   -1.1487    1.2945 H   0  0  0  0  0  0  0  0  0  0  0  0
   -2.2633    1.5215    0.7394 H   0  0  0  0  0  0  0  0  0  0  0  0
   -2.2828    0.5115    2.2347 H   0  0  0  0  0  0  0  0  0  0  0  0
   -3.9174   -0.3926   -1.5211 H   0  0  0  0  0  0  0  0  0  0  0  0
   -5.1135   -0.0728   -0.1574 H   0  0  0  0  0  0  0  0  0  0  0  0
   -3.9502    1.1676   -0.6814 H   0  0  0  0  0  0  0  0  0  0  0  0
  1  2  1  0
  2  3  1  0
  3  4  1  0
  4  5  3  0
  5  6  1  0
  6  7  1  0
  7  8  1  0
  7  9  2  0
  1 10  1  0
  1 11  1  0
  1 12  1  0
  2 13  1  0
  2 14  1  0
  3 15  1  0
  3 16  1  0
  6 17  1  0
  6 18  1  0
  8 19  1  0
  8 20  1  0
  8 21  1  0
M  END
