
     RDKit          3D

 25 24  0  0  0  0  0  0  0  0999 V2000
    4.0518   -1.2790   -1.4839 C   0  0  0  0  0  0  0  0  0  0  0  0
    2.7634   -1.0175   -0.7403 C   0  0  0  0  0  0  0  0  0  0  0  0
    1.8075   -0.3608   -1.7019 C   0  0  0  0  0  0  0  0  0  0  0  0
    0.5081   -0.0651   -1.0559 C   0  0  0  0  0  0  0  0  0  0  0  0
   -0.5600    0.1777   -0.5484 C   0  0  0  0  0  0  0  0  0  0  0  0
   -1.8430    0.4821    0.0871 C   0  0  0  0  0  0  0  0  0  0  0  0
   -2.4455   -0.8106    0.5550 C   0  0  0  0  0  0  0  0  0  0  0  0
   -1.6013    1.4386    1.2304 C   0  0  0  0  0  0  0  0  0  0  0  0
   -2.8658    1.8107    1.9460 C   0  0  0  0  0  0  0  0  0  0  0  0
    3.8817   -2.0896   -2.2354 H   0  0  0  0  0  0  0  0  0  0  0  0
    4.3080   -0.3769   -2.0820 H   0  0  0  0  0  0  0  0  0  0  0  0
    4.8490   -1.5896   -0.7931 H   0  0  0  0  0  0  0  0  0  0  0  0
    2.3367   -2.0156   -0.4776 H   0  0  0  0  0  0  0  0  0  0  0  0
    2.9228   -0.4459    0.1818 H   0  0  0  0  0  0  0  0  0  0  0  0
    1.6758   -1.0615   -2.5517 H   0  0  0  0  0  0  0  0  0  0  0  0
    2.1853    0.5939   -2.0908 H   0  0  0  0  0  0  0  0  0  0  0  0
   -2.5469    0.9759   -0.6188 H   0  0  0  0  0  0  0  0  0  0  0  0
   -2.0604   -1.6212   -0.0959 H   0  0  0  0  0  0  0  0  0  0  0  0
   -2.1969   -1.0193    1.6228 H   0  0  0  0  0  0  0  0  0  0  0  0
   -3.5633   -0.8339    0.4248 H   0  0  0  0  0  0  0  0  0  0  0  0
   -0.8219    1.0096    1.8880 H   0  0  0  0  0  0  0  0  0  0  0  0
   -1.1680    2.3602    0.7914 H   0  0  0  0  0  0  0  0  0  0  0  0
   -3.3402    2.6323    1.3679 H   0  0  0  0  0  0  0  0  0  0  0  0
   -2.7153    2.1551    2.9686 H   0  0  0  0  0  0  0  0  0  0  0  0
   -3.5616    0.9506    1.8732 H   0  0  0  0  0  0  0  0  0  0  0  0
  1  2  1  0
  2  3  1  0
  3  4  1  0
  4  5  3  0
  5  6  1  0
  6  7  1  0
  6  8  1  0
  8  9  1  0
  1 10  1  0
  1 11  1  0
  1 12  1  0
  2 13  1  0
  2 14  1  0
  3 15  1  0
  3 16  1  0
  6 17  1  0
  7 18  1  0
  7 19  1  0
  7 20  1  0
  8 21  1  0
  8 22  1  0
  9 23  1  0
  9 24  1  0
  9 25  1  0
M  END
