
     RDKit          3D

 23 23  0  0  0  0  0  0  0  0999 V2000
    2.5091    0.5309    0.5306 C   0  0  0  0  0  0  0  0  0  0  0  0
    2.1903   -0.6834   -0.2815 C   0  0  0  0  0  0  0  0  0  0  0  0
    0.9552   -1.3975    0.1202 C   0  0  0  0  0  0  0  0  0  0  0  0
   -0.2810   -0.5760   -0.0189 C   0  0  0  0  0  0  0  0  0  0  0  0
   -1.2894   -0.9398   -0.8414 C   0  0  0  0  0  0  0  0  0  0  0  0
   -2.3957    0.0393   -0.7965 C   0  0  0  0  0  0  0  0  0  0  0  0
   -2.2182    0.6720    0.5717 C   0  0  0  0  0  0  0  0  0  0  0  0
   -0.6827    0.6741    0.6344 C   0  0  0  0  0  0  0  0  0  0  0  0
   -0.3121    1.7914   -0.1202 O   0  0  0  0  0  0  0  0  0  0  0  0
    2.3535    1.4473   -0.1043 H   0  0  0  0  0  0  0  0  0  0  0  0
    1.9488    0.5762    1.4740 H   0  0  0  0  0  0  0  0  0  0  0  0
    3.6173    0.5339    0.8176 H   0  0  0  0  0  0  0  0  0  0  0  0
    2.1369   -0.3786   -1.3511 H   0  0  0  0  0  0  0  0  0  0  0  0
    3.0977   -1.3645   -0.2030 H   0  0  0  0  0  0  0  0  0  0  0  0
    0.8942   -2.3145   -0.5198 H   0  0  0  0  0  0  0  0  0  0  0  0
    1.0291   -1.7919    1.1775 H   0  0  0  0  0  0  0  0  0  0  0  0
   -1.2862   -1.8237   -1.4471 H   0  0  0  0  0  0  0  0  0  0  0  0
   -2.2569    0.7560   -1.6111 H   0  0  0  0  0  0  0  0  0  0  0  0
   -3.3907   -0.4128   -0.8741 H   0  0  0  0  0  0  0  0  0  0  0  0
   -2.6754    0.0985    1.3714 H   0  0  0  0  0  0  0  0  0  0  0  0
   -2.5782    1.6992    0.5272 H   0  0  0  0  0  0  0  0  0  0  0  0
   -0.3574    0.7584    1.7026 H   0  0  0  0  0  0  0  0  0  0  0  0
   -1.0083    2.1056   -0.7287 H   0  0  0  0  0  0  0  0  0  0  0  0
  1  2  1  0
  2  3  1  0
  3  4  1  0
  4  5  2  0
  5  6  1  0
  6  7  1  0
  7  8  1  0
  8  9  1  0
  8  4  1  0
  1 10  1  0
  1 11  1  0
  1 12  1  0
  2 13  1  0
  2 14  1  0
  3 15  1  0
  3 16  1  0
  5 17  1  0
  6 18  1  0
  6 19  1  0
  7 20  1  0
  7 21  1  0
  8 22  1  0
  9 23  1  0
M  END
