
     RDKit          3D

 17 16  0  0  0  0  0  0  0  0999 V2000
    2.3836    0.2318   -0.2671 C   0  0  0  0  0  0  0  0  0  0  0  0
    1.1622   -0.6059    0.0703 C   0  0  0  0  0  0  0  0  0  0  0  0
   -0.0272    0.3169    0.0646 C   0  0  0  0  0  0  0  0  0  0  0  0
   -1.3191   -0.3765    0.3843 C   0  0  0  0  0  0  0  0  0  0  0  0
   -1.5933   -1.3944   -0.5531 O   0  0  0  0  0  0  0  0  0  0  0  0
   -2.3966    0.6310    0.3632 C   0  0  0  0  0  0  0  0  0  0  0  0
   -2.3487    1.5860    1.0953 O   0  0  0  0  0  0  0  0  0  0  0  0
    2.7799    0.0049   -1.2720 H   0  0  0  0  0  0  0  0  0  0  0  0
    2.1540    1.3199   -0.2563 H   0  0  0  0  0  0  0  0  0  0  0  0
    3.1855    0.0955    0.5073 H   0  0  0  0  0  0  0  0  0  0  0  0
    1.3203   -1.1177    1.0150 H   0  0  0  0  0  0  0  0  0  0  0  0
    1.0106   -1.3339   -0.7641 H   0  0  0  0  0  0  0  0  0  0  0  0
   -0.1257    0.8033   -0.9041 H   0  0  0  0  0  0  0  0  0  0  0  0
    0.1380    1.0881    0.8364 H   0  0  0  0  0  0  0  0  0  0  0  0
   -1.3265   -0.8432    1.3941 H   0  0  0  0  0  0  0  0  0  0  0  0
   -1.7724   -0.9220   -1.4106 H   0  0  0  0  0  0  0  0  0  0  0  0
   -3.2245    0.5161   -0.3033 H   0  0  0  0  0  0  0  0  0  0  0  0
  1  2  1  0
  2  3  1  0
  3  4  1  0
  4  5  1  0
  4  6  1  0
  6  7  2  0
  1  8  1  0
  1  9  1  0
  1 10  1  0
  2 11  1  0
  2 12  1  0
  3 13  1  0
  3 14  1  0
  4 15  1  0
  5 16  1  0
  6 17  1  0
M  END
