
     RDKit          3D

 25 25  0  0  0  0  0  0  0  0999 V2000
    3.1789    0.9056   -0.0081 C   0  0  0  0  0  0  0  0  0  0  0  0
    2.8278   -0.3752   -0.6795 C   0  0  0  0  0  0  0  0  0  0  0  0
    1.5439   -0.9400   -0.1220 C   0  0  0  0  0  0  0  0  0  0  0  0
    0.4477    0.0677   -0.3573 C   0  0  0  0  0  0  0  0  0  0  0  0
   -0.8855   -0.4114    0.1704 C   0  0  0  0  0  0  0  0  0  0  0  0
   -2.0126    0.5853   -0.0527 C   0  0  0  0  0  0  0  0  0  0  0  0
   -2.9162    0.7752    1.1278 C   0  0  0  0  0  0  0  0  0  0  0  0
   -1.9857   -0.7364   -0.7736 C   0  0  0  0  0  0  0  0  0  0  0  0
   -2.9854   -1.6085   -0.4134 O   0  0  0  0  0  0  0  0  0  0  0  0
    3.0404    0.9035    1.0898 H   0  0  0  0  0  0  0  0  0  0  0  0
    4.2308    1.1637   -0.2944 H   0  0  0  0  0  0  0  0  0  0  0  0
    2.5465    1.7321   -0.4121 H   0  0  0  0  0  0  0  0  0  0  0  0
    2.6530   -0.1465   -1.7715 H   0  0  0  0  0  0  0  0  0  0  0  0
    3.6478   -1.1211   -0.6738 H   0  0  0  0  0  0  0  0  0  0  0  0
    1.3076   -1.9316   -0.5309 H   0  0  0  0  0  0  0  0  0  0  0  0
    1.6828   -1.0652    0.9809 H   0  0  0  0  0  0  0  0  0  0  0  0
    0.4024    0.2983   -1.4423 H   0  0  0  0  0  0  0  0  0  0  0  0
    0.7238    1.0103    0.1516 H   0  0  0  0  0  0  0  0  0  0  0  0
   -0.8127   -0.9061    1.1582 H   0  0  0  0  0  0  0  0  0  0  0  0
   -1.8222    1.4610   -0.7216 H   0  0  0  0  0  0  0  0  0  0  0  0
   -2.9272   -0.1477    1.7197 H   0  0  0  0  0  0  0  0  0  0  0  0
   -2.4948    1.6012    1.7467 H   0  0  0  0  0  0  0  0  0  0  0  0
   -3.9043    1.1159    0.7829 H   0  0  0  0  0  0  0  0  0  0  0  0
   -1.7507   -0.7496   -1.8675 H   0  0  0  0  0  0  0  0  0  0  0  0
   -3.7360   -1.4804   -1.0710 H   0  0  0  0  0  0  0  0  0  0  0  0
  1  2  1  0
  2  3  1  0
  3  4  1  0
  4  5  1  0
  5  6  1  0
  6  7  1  0
  6  8  1  0
  8  9  1  0
  8  5  1  0
  1 10  1  0
  1 11  1  0
  1 12  1  0
  2 13  1  0
  2 14  1  0
  3 15  1  0
  3 16  1  0
  4 17  1  0
  4 18  1  0
  5 19  1  0
  6 20  1  0
  7 21  1  0
  7 22  1  0
  7 23  1  0
  8 24  1  0
  9 25  1  0
M  END
