
     RDKit          3D

 22 23  0  0  0  0  0  0  0  0999 V2000
    2.2059   -0.4156    0.9617 C   0  0  0  0  0  0  0  0  0  0  0  0
    1.5102    0.9284    1.0276 C   0  0  0  0  0  0  0  0  0  0  0  0
    0.5347    1.1317   -0.1121 C   0  0  0  0  0  0  0  0  0  0  0  0
   -0.4830    0.2273   -0.1897 C   0  0  0  0  0  0  0  0  0  0  0  0
   -1.5398   -0.0529    0.8606 C   0  0  0  0  0  0  0  0  0  0  0  0
   -1.9211   -0.9474   -0.2895 C   0  0  0  0  0  0  0  0  0  0  0  0
   -0.4523   -1.2385   -0.4163 C   0  0  0  0  0  0  0  0  0  0  0  0
   -1.6472    0.2521   -1.1618 C   0  0  0  0  0  0  0  0  0  0  0  0
    1.8241   -1.1280    1.7183 H   0  0  0  0  0  0  0  0  0  0  0  0
    2.1027   -0.8241   -0.0641 H   0  0  0  0  0  0  0  0  0  0  0  0
    3.2996   -0.3040    1.1495 H   0  0  0  0  0  0  0  0  0  0  0  0
    1.0002    0.9957    2.0162 H   0  0  0  0  0  0  0  0  0  0  0  0
    2.2976    1.7148    1.0439 H   0  0  0  0  0  0  0  0  0  0  0  0
    1.1637    1.1762   -1.0384 H   0  0  0  0  0  0  0  0  0  0  0  0
    0.1736    2.1970    0.0061 H   0  0  0  0  0  0  0  0  0  0  0  0
   -2.2324    0.7785    0.9686 H   0  0  0  0  0  0  0  0  0  0  0  0
   -1.1859   -0.5538    1.7592 H   0  0  0  0  0  0  0  0  0  0  0  0
   -2.6872   -1.5833   -0.3468 H   0  0  0  0  0  0  0  0  0  0  0  0
   -0.1804   -1.5839   -1.4353 H   0  0  0  0  0  0  0  0  0  0  0  0
   -0.0108   -1.8686    0.3665 H   0  0  0  0  0  0  0  0  0  0  0  0
   -2.3864    1.0405   -0.9523 H   0  0  0  0  0  0  0  0  0  0  0  0
   -1.3855    0.0580   -2.2025 H   0  0  0  0  0  0  0  0  0  0  0  0
  1  2  1  0
  2  3  1  0
  3  4  1  0
  4  5  1  0
  5  6  1  0
  6  7  1  0
  6  8  1  0
  7  4  1  0
  8  4  1  0
  1  9  1  0
  1 10  1  0
  1 11  1  0
  2 12  1  0
  2 13  1  0
  3 14  1  0
  3 15  1  0
  5 16  1  0
  5 17  1  0
  6 18  1  0
  7 19  1  0
  7 20  1  0
  8 21  1  0
  8 22  1  0
M  END
