
     RDKit          3D

 21 22  0  0  0  0  0  0  0  0999 V2000
   -3.2059    0.1313   -0.0386 C   0  0  0  0  0  0  0  0  0  0  0  0
   -1.8514   -0.0784   -0.6578 C   0  0  0  0  0  0  0  0  0  0  0  0
   -0.7799   -0.2371    0.4019 C   0  0  0  0  0  0  0  0  0  0  0  0
    0.5641   -0.4454   -0.2596 C   0  0  0  0  0  0  0  0  0  0  0  0
    0.8754    0.6317   -1.0513 O   0  0  0  0  0  0  0  0  0  0  0  0
    2.2339    0.8189   -1.0449 C   0  0  0  0  0  0  0  0  0  0  0  0
    2.8115    0.1134    0.1426 C   0  0  0  0  0  0  0  0  0  0  0  0
    2.8067   -1.2703    0.2012 O   0  0  0  0  0  0  0  0  0  0  0  0
    1.6751   -0.6385    0.7080 C   0  0  0  0  0  0  0  0  0  0  0  0
   -3.6487   -0.8625    0.2100 H   0  0  0  0  0  0  0  0  0  0  0  0
   -3.9059    0.6531   -0.7181 H   0  0  0  0  0  0  0  0  0  0  0  0
   -3.0564    0.6646    0.9275 H   0  0  0  0  0  0  0  0  0  0  0  0
   -1.8615   -1.0118   -1.2909 H   0  0  0  0  0  0  0  0  0  0  0  0
   -1.5419    0.7676   -1.3046 H   0  0  0  0  0  0  0  0  0  0  0  0
   -0.7496    0.7287    0.9807 H   0  0  0  0  0  0  0  0  0  0  0  0
   -1.0736   -1.0765    1.0369 H   0  0  0  0  0  0  0  0  0  0  0  0
    0.4580   -1.3890   -0.8691 H   0  0  0  0  0  0  0  0  0  0  0  0
    2.4340    1.9188   -0.8946 H   0  0  0  0  0  0  0  0  0  0  0  0
    2.7176    0.5565   -2.0055 H   0  0  0  0  0  0  0  0  0  0  0  0
    3.5715    0.5936    0.7754 H   0  0  0  0  0  0  0  0  0  0  0  0
    1.5270   -0.5688    1.7935 H   0  0  0  0  0  0  0  0  0  0  0  0
  1  2  1  0
  2  3  1  0
  3  4  1  0
  4  5  1  0
  5  6  1  0
  6  7  1  0
  7  8  1  0
  8  9  1  0
  9  4  1  0
  9  7  1  0
  1 10  1  0
  1 11  1  0
  1 12  1  0
  2 13  1  0
  2 14  1  0
  3 15  1  0
  3 16  1  0
  4 17  1  0
  6 18  1  0
  6 19  1  0
  7 20  1  0
  9 21  1  0
M  END
