
     RDKit          3D

 20 20  0  0  0  0  0  0  0  0999 V2000
   -3.2605   -0.2849   -0.1629 C   0  0  0  0  0  0  0  0  0  0  0  0
   -1.9719   -0.1337    0.6572 C   0  0  0  0  0  0  0  0  0  0  0  0
   -0.8478   -0.0468   -0.3565 C   0  0  0  0  0  0  0  0  0  0  0  0
    0.4546    0.1018    0.3084 C   0  0  0  0  0  0  0  0  0  0  0  0
    0.5256    0.1402    1.5099 O   0  0  0  0  0  0  0  0  0  0  0  0
    1.6949    0.2064   -0.4731 C   0  0  0  0  0  0  0  0  0  0  0  0
    2.8637   -0.5352    0.1380 C   0  0  0  0  0  0  0  0  0  0  0  0
    2.8684    0.9645    0.0135 C   0  0  0  0  0  0  0  0  0  0  0  0
   -3.3893    0.6829   -0.6867 H   0  0  0  0  0  0  0  0  0  0  0  0
   -3.1336   -1.1377   -0.8606 H   0  0  0  0  0  0  0  0  0  0  0  0
   -4.0611   -0.4997    0.5593 H   0  0  0  0  0  0  0  0  0  0  0  0
   -2.0532    0.7758    1.2702 H   0  0  0  0  0  0  0  0  0  0  0  0
   -1.8982   -1.0312    1.2713 H   0  0  0  0  0  0  0  0  0  0  0  0
   -1.0099    0.7536   -1.0860 H   0  0  0  0  0  0  0  0  0  0  0  0
   -0.8575   -1.0135   -0.9241 H   0  0  0  0  0  0  0  0  0  0  0  0
    1.5532    0.1636   -1.5712 H   0  0  0  0  0  0  0  0  0  0  0  0
    2.7788   -0.9060    1.1675 H   0  0  0  0  0  0  0  0  0  0  0  0
    3.4286   -1.1418   -0.5906 H   0  0  0  0  0  0  0  0  0  0  0  0
    2.7640    1.5757    0.9361 H   0  0  0  0  0  0  0  0  0  0  0  0
    3.5511    1.3660   -0.7424 H   0  0  0  0  0  0  0  0  0  0  0  0
  1  2  1  0
  2  3  1  0
  3  4  1  0
  4  5  2  0
  4  6  1  0
  6  7  1  0
  7  8  1  0
  8  6  1  0
  1  9  1  0
  1 10  1  0
  1 11  1  0
  2 12  1  0
  2 13  1  0
  3 14  1  0
  3 15  1  0
  6 16  1  0
  7 17  1  0
  7 18  1  0
  8 19  1  0
  8 20  1  0
M  END
