
     RDKit          3D

 21 22  0  0  0  0  0  0  0  0999 V2000
    3.0772    0.2152    0.3176 C   0  0  0  0  0  0  0  0  0  0  0  0
    1.6118    0.2468   -0.1395 C   0  0  0  0  0  0  0  0  0  0  0  0
    0.9001   -0.8004    0.6522 C   0  0  0  0  0  0  0  0  0  0  0  0
   -0.5476   -0.9317    0.3557 C   0  0  0  0  0  0  0  0  0  0  0  0
   -0.9124   -1.2540   -0.9272 O   0  0  0  0  0  0  0  0  0  0  0  0
   -1.8809   -0.2695   -1.1122 C   0  0  0  0  0  0  0  0  0  0  0  0
   -2.7878    0.1383   -0.0181 C   0  0  0  0  0  0  0  0  0  0  0  0
   -3.5418    1.2649   -0.2167 O   0  0  0  0  0  0  0  0  0  0  0  0
   -1.3318    0.3506    0.2057 C   0  0  0  0  0  0  0  0  0  0  0  0
    3.0506    0.5917    1.3776 H   0  0  0  0  0  0  0  0  0  0  0  0
    3.7085    0.8684   -0.2817 H   0  0  0  0  0  0  0  0  0  0  0  0
    3.3960   -0.8310    0.3792 H   0  0  0  0  0  0  0  0  0  0  0  0
    1.6406   -0.0204   -1.2166 H   0  0  0  0  0  0  0  0  0  0  0  0
    1.2196    1.2616   -0.0091 H   0  0  0  0  0  0  0  0  0  0  0  0
    1.0174   -0.5830    1.7346 H   0  0  0  0  0  0  0  0  0  0  0  0
    1.3901   -1.7754    0.4398 H   0  0  0  0  0  0  0  0  0  0  0  0
   -1.0470   -1.5899    1.0923 H   0  0  0  0  0  0  0  0  0  0  0  0
   -1.8583    0.3468   -2.0077 H   0  0  0  0  0  0  0  0  0  0  0  0
   -3.2511   -0.6229    0.6411 H   0  0  0  0  0  0  0  0  0  0  0  0
   -3.0183    2.0898   -0.2735 H   0  0  0  0  0  0  0  0  0  0  0  0
   -0.8349    1.3040    0.0466 H   0  0  0  0  0  0  0  0  0  0  0  0
  1  2  1  0
  2  3  1  0
  3  4  1  0
  4  5  1  0
  5  6  1  0
  6  7  1  0
  7  8  1  0
  7  9  1  0
  9  4  1  0
  9  6  1  0
  1 10  1  0
  1 11  1  0
  1 12  1  0
  2 13  1  0
  2 14  1  0
  3 15  1  0
  3 16  1  0
  4 17  1  0
  6 18  1  0
  7 19  1  0
  8 20  1  0
  9 21  1  0
M  END
