
     RDKit          3D

 21 21  0  0  0  0  0  0  0  0999 V2000
    2.2137    0.7014    0.0311 C   0  0  0  0  0  0  0  0  0  0  0  0
    1.4192   -0.3074   -0.7831 C   0  0  0  0  0  0  0  0  0  0  0  0
    0.4438   -1.1079    0.0081 C   0  0  0  0  0  0  0  0  0  0  0  0
   -0.7524   -0.3819    0.5120 C   0  0  0  0  0  0  0  0  0  0  0  0
   -1.6393   -1.2559    1.4074 C   0  0  0  0  0  0  0  0  0  0  0  0
   -1.9835   -0.9277    2.4774 O   0  0  0  0  0  0  0  0  0  0  0  0
   -1.6855    0.1268   -0.6025 C   0  0  0  0  0  0  0  0  0  0  0  0
   -1.0640    1.0267    0.4586 C   0  0  0  0  0  0  0  0  0  0  0  0
   -0.2684    2.0079   -0.1182 O   0  0  0  0  0  0  0  0  0  0  0  0
    3.2774    0.2874    0.1854 H   0  0  0  0  0  0  0  0  0  0  0  0
    1.8612    0.8281    1.0659 H   0  0  0  0  0  0  0  0  0  0  0  0
    2.3941    1.6320   -0.5401 H   0  0  0  0  0  0  0  0  0  0  0  0
    2.1282   -0.9667   -1.2974 H   0  0  0  0  0  0  0  0  0  0  0  0
    0.8713    0.2807   -1.5738 H   0  0  0  0  0  0  0  0  0  0  0  0
    1.0014   -1.4656    0.9520 H   0  0  0  0  0  0  0  0  0  0  0  0
    0.1592   -2.0299   -0.4923 H   0  0  0  0  0  0  0  0  0  0  0  0
   -1.9049   -2.2121    0.9180 H   0  0  0  0  0  0  0  0  0  0  0  0
   -2.7612   -0.0315   -0.5496 H   0  0  0  0  0  0  0  0  0  0  0  0
   -1.2546    0.0796   -1.6082 H   0  0  0  0  0  0  0  0  0  0  0  0
   -1.7829    1.4573    1.2151 H   0  0  0  0  0  0  0  0  0  0  0  0
   -0.6729    2.2586   -0.9808 H   0  0  0  0  0  0  0  0  0  0  0  0
  1  2  1  0
  2  3  1  0
  3  4  1  0
  4  5  1  0
  5  6  2  0
  4  7  1  0
  7  8  1  0
  8  9  1  0
  8  4  1  0
  1 10  1  0
  1 11  1  0
  1 12  1  0
  2 13  1  0
  2 14  1  0
  3 15  1  0
  3 16  1  0
  5 17  1  0
  7 18  1  0
  7 19  1  0
  8 20  1  0
  9 21  1  0
M  END
