
     RDKit          3D

 26 25  0  0  0  0  0  0  0  0999 V2000
    3.2522   -1.2967   -0.3837 C   0  0  0  0  0  0  0  0  0  0  0  0
    1.8878   -0.9020    0.1798 C   0  0  0  0  0  0  0  0  0  0  0  0
    1.4594    0.4433   -0.3404 C   0  0  0  0  0  0  0  0  0  0  0  0
    0.1343    0.8365    0.2366 C   0  0  0  0  0  0  0  0  0  0  0  0
   -0.2021    2.2102   -0.3482 C   0  0  0  0  0  0  0  0  0  0  0  0
   -0.9022   -0.1702   -0.1430 C   0  0  0  0  0  0  0  0  0  0  0  0
   -2.2756    0.1902    0.4068 C   0  0  0  0  0  0  0  0  0  0  0  0
   -3.2248   -0.8989   -0.0446 C   0  0  0  0  0  0  0  0  0  0  0  0
    4.0283   -0.5755   -0.1044 H   0  0  0  0  0  0  0  0  0  0  0  0
    3.1466   -1.4181   -1.4738 H   0  0  0  0  0  0  0  0  0  0  0  0
    3.4858   -2.2867    0.0423 H   0  0  0  0  0  0  0  0  0  0  0  0
    1.1959   -1.6988   -0.1859 H   0  0  0  0  0  0  0  0  0  0  0  0
    1.8985   -0.8661    1.2783 H   0  0  0  0  0  0  0  0  0  0  0  0
    1.2779    0.3101   -1.4495 H   0  0  0  0  0  0  0  0  0  0  0  0
    2.2458    1.2136   -0.1890 H   0  0  0  0  0  0  0  0  0  0  0  0
    0.1583    0.9044    1.3461 H   0  0  0  0  0  0  0  0  0  0  0  0
   -0.7752    2.7712    0.4145 H   0  0  0  0  0  0  0  0  0  0  0  0
    0.7470    2.7481   -0.5339 H   0  0  0  0  0  0  0  0  0  0  0  0
   -0.7225    2.1065   -1.3131 H   0  0  0  0  0  0  0  0  0  0  0  0
   -0.9849   -0.1946   -1.2467 H   0  0  0  0  0  0  0  0  0  0  0  0
   -0.6190   -1.1615    0.3033 H   0  0  0  0  0  0  0  0  0  0  0  0
   -2.1945    0.1556    1.5153 H   0  0  0  0  0  0  0  0  0  0  0  0
   -2.5953    1.1886    0.1178 H   0  0  0  0  0  0  0  0  0  0  0  0
   -2.7604   -1.5806   -0.7864 H   0  0  0  0  0  0  0  0  0  0  0  0
   -3.5315   -1.5473    0.8173 H   0  0  0  0  0  0  0  0  0  0  0  0
   -4.1298   -0.4812   -0.5319 H   0  0  0  0  0  0  0  0  0  0  0  0
  1  2  1  0
  2  3  1  0
  3  4  1  0
  4  5  1  0
  4  6  1  0
  6  7  1  0
  7  8  1  0
  1  9  1  0
  1 10  1  0
  1 11  1  0
  2 12  1  0
  2 13  1  0
  3 14  1  0
  3 15  1  0
  4 16  1  0
  5 17  1  0
  5 18  1  0
  5 19  1  0
  6 20  1  0
  6 21  1  0
  7 22  1  0
  7 23  1  0
  8 24  1  0
  8 25  1  0
  8 26  1  0
M  END
