
     RDKit          3D

 23 23  0  0  0  0  0  0  0  0999 V2000
   -2.7908   -0.1336   -0.8795 C   0  0  0  0  0  0  0  0  0  0  0  0
   -1.9385   -1.1111   -0.0896 C   0  0  0  0  0  0  0  0  0  0  0  0
   -0.9473   -0.3349    0.7081 C   0  0  0  0  0  0  0  0  0  0  0  0
    0.0116    0.5013   -0.0975 C   0  0  0  0  0  0  0  0  0  0  0  0
    0.9902    1.2673    0.7996 C   0  0  0  0  0  0  0  0  0  0  0  0
    1.4527    0.1769   -0.1379 C   0  0  0  0  0  0  0  0  0  0  0  0
    2.3077    0.6845   -1.2683 C   0  0  0  0  0  0  0  0  0  0  0  0
    1.9509   -1.1068    0.4292 C   0  0  0  0  0  0  0  0  0  0  0  0
    3.0935   -1.5347    0.1865 O   0  0  0  0  0  0  0  0  0  0  0  0
   -3.8115   -0.5513   -1.0696 H   0  0  0  0  0  0  0  0  0  0  0  0
   -2.9700    0.7742   -0.2462 H   0  0  0  0  0  0  0  0  0  0  0  0
   -2.2637    0.1837   -1.8023 H   0  0  0  0  0  0  0  0  0  0  0  0
   -2.5842   -1.6866    0.6088 H   0  0  0  0  0  0  0  0  0  0  0  0
   -1.4543   -1.7721   -0.8418 H   0  0  0  0  0  0  0  0  0  0  0  0
   -0.4371   -0.9376    1.4568 H   0  0  0  0  0  0  0  0  0  0  0  0
   -1.5569    0.4103    1.3101 H   0  0  0  0  0  0  0  0  0  0  0  0
   -0.4356    1.0812   -0.9232 H   0  0  0  0  0  0  0  0  0  0  0  0
    1.0679    1.0093    1.8604 H   0  0  0  0  0  0  0  0  0  0  0  0
    1.1632    2.3302    0.5191 H   0  0  0  0  0  0  0  0  0  0  0  0
    3.0028   -0.1159   -1.6699 H   0  0  0  0  0  0  0  0  0  0  0  0
    3.0258    1.4239   -0.8188 H   0  0  0  0  0  0  0  0  0  0  0  0
    1.7544    1.1902   -2.0513 H   0  0  0  0  0  0  0  0  0  0  0  0
    1.3694   -1.7485    1.0812 H   0  0  0  0  0  0  0  0  0  0  0  0
  1  2  1  0
  2  3  1  0
  3  4  1  0
  4  5  1  0
  5  6  1  0
  6  7  1  0
  6  8  1  0
  8  9  2  0
  6  4  1  0
  1 10  1  0
  1 11  1  0
  1 12  1  0
  2 13  1  0
  2 14  1  0
  3 15  1  0
  3 16  1  0
  4 17  1  0
  5 18  1  0
  5 19  1  0
  7 20  1  0
  7 21  1  0
  7 22  1  0
  8 23  1  0
M  END
