
     RDKit          3D

 23 24  0  0  0  0  0  0  0  0999 V2000
    3.2189    0.4720    0.1228 C   0  0  0  0  0  0  0  0  0  0  0  0
    1.8964    0.0950    0.7238 C   0  0  0  0  0  0  0  0  0  0  0  0
    0.8844   -0.2713   -0.3399 C   0  0  0  0  0  0  0  0  0  0  0  0
   -0.4433   -0.6518    0.2237 C   0  0  0  0  0  0  0  0  0  0  0  0
   -1.3471   -0.9919   -0.9793 C   0  0  0  0  0  0  0  0  0  0  0  0
   -2.2592    0.2120   -0.8674 C   0  0  0  0  0  0  0  0  0  0  0  0
   -2.6417    0.2855    0.5813 C   0  0  0  0  0  0  0  0  0  0  0  0
   -1.1820    0.5924    0.6615 C   0  0  0  0  0  0  0  0  0  0  0  0
   -1.3405    1.2493   -0.5838 O   0  0  0  0  0  0  0  0  0  0  0  0
    3.0085    0.9165   -0.8834 H   0  0  0  0  0  0  0  0  0  0  0  0
    3.8713   -0.4117   -0.0616 H   0  0  0  0  0  0  0  0  0  0  0  0
    3.7806    1.2184    0.7222 H   0  0  0  0  0  0  0  0  0  0  0  0
    2.0876   -0.7997    1.3781 H   0  0  0  0  0  0  0  0  0  0  0  0
    1.4891    0.8768    1.3912 H   0  0  0  0  0  0  0  0  0  0  0  0
    0.7833    0.5850   -1.0374 H   0  0  0  0  0  0  0  0  0  0  0  0
    1.3153   -1.1098   -0.9480 H   0  0  0  0  0  0  0  0  0  0  0  0
   -0.4217   -1.4459    0.9601 H   0  0  0  0  0  0  0  0  0  0  0  0
   -1.8861   -1.9474   -0.8002 H   0  0  0  0  0  0  0  0  0  0  0  0
   -0.8107   -0.9452   -1.9254 H   0  0  0  0  0  0  0  0  0  0  0  0
   -2.9836    0.3864   -1.6236 H   0  0  0  0  0  0  0  0  0  0  0  0
   -3.2446    1.1775    0.7790 H   0  0  0  0  0  0  0  0  0  0  0  0
   -2.9818   -0.6618    1.0366 H   0  0  0  0  0  0  0  0  0  0  0  0
   -0.7930    1.1698    1.4698 H   0  0  0  0  0  0  0  0  0  0  0  0
  1  2  1  0
  2  3  1  0
  3  4  1  0
  4  5  1  0
  5  6  1  0
  6  7  1  0
  7  8  1  0
  8  9  1  0
  8  4  1  0
  9  6  1  0
  1 10  1  0
  1 11  1  0
  1 12  1  0
  2 13  1  0
  2 14  1  0
  3 15  1  0
  3 16  1  0
  4 17  1  0
  5 18  1  0
  5 19  1  0
  6 20  1  0
  7 21  1  0
  7 22  1  0
  8 23  1  0
M  END
