
     RDKit          3D

 20 19  0  0  0  0  0  0  0  0999 V2000
    3.0061   -0.2451   -0.3718 C   0  0  0  0  0  0  0  0  0  0  0  0
    1.7589    0.2439    0.3070 C   0  0  0  0  0  0  0  0  0  0  0  0
    0.5039   -0.1865   -0.4476 C   0  0  0  0  0  0  0  0  0  0  0  0
   -0.6699    0.3610    0.3277 C   0  0  0  0  0  0  0  0  0  0  0  0
   -1.9920   -0.0108   -0.3396 C   0  0  0  0  0  0  0  0  0  0  0  0
   -2.1223   -1.3940   -0.4088 O   0  0  0  0  0  0  0  0  0  0  0  0
   -3.0633    0.5755    0.5119 C   0  0  0  0  0  0  0  0  0  0  0  0
   -3.8663   -0.1732    1.0089 O   0  0  0  0  0  0  0  0  0  0  0  0
    2.9085   -0.2670   -1.4756 H   0  0  0  0  0  0  0  0  0  0  0  0
    3.2486   -1.2441    0.0495 H   0  0  0  0  0  0  0  0  0  0  0  0
    3.8719    0.4227   -0.1290 H   0  0  0  0  0  0  0  0  0  0  0  0
    1.8250    1.3474    0.3623 H   0  0  0  0  0  0  0  0  0  0  0  0
    1.7592   -0.1492    1.3404 H   0  0  0  0  0  0  0  0  0  0  0  0
    0.4577   -1.2645   -0.5868 H   0  0  0  0  0  0  0  0  0  0  0  0
    0.5159    0.3207   -1.4345 H   0  0  0  0  0  0  0  0  0  0  0  0
   -0.6485    1.4566    0.3760 H   0  0  0  0  0  0  0  0  0  0  0  0
   -0.7220   -0.0454    1.3585 H   0  0  0  0  0  0  0  0  0  0  0  0
   -1.9655    0.4438   -1.3491 H   0  0  0  0  0  0  0  0  0  0  0  0
   -1.6570   -1.8307    0.3468 H   0  0  0  0  0  0  0  0  0  0  0  0
   -3.1487    1.6388    0.7005 H   0  0  0  0  0  0  0  0  0  0  0  0
  1  2  1  0
  2  3  1  0
  3  4  1  0
  4  5  1  0
  5  6  1  0
  5  7  1  0
  7  8  2  0
  1  9  1  0
  1 10  1  0
  1 11  1  0
  2 12  1  0
  2 13  1  0
  3 14  1  0
  3 15  1  0
  4 16  1  0
  4 17  1  0
  5 18  1  0
  6 19  1  0
  7 20  1  0
M  END
