
     RDKit          3D

 23 22  0  0  0  0  0  0  0  0999 V2000
    2.9557   -0.2186   -0.6587 C   0  0  0  0  0  0  0  0  0  0  0  0
    2.3513    0.0320    0.6540 C   0  0  0  0  0  0  0  0  0  0  0  0
    0.9515   -0.3948    0.8724 C   0  0  0  0  0  0  0  0  0  0  0  0
   -0.0846    0.1974   -0.0074 C   0  0  0  0  0  0  0  0  0  0  0  0
   -1.4334   -0.3994    0.4159 C   0  0  0  0  0  0  0  0  0  0  0  0
   -1.4235   -1.7871    0.2758 O   0  0  0  0  0  0  0  0  0  0  0  0
   -2.5449    0.1148   -0.4695 C   0  0  0  0  0  0  0  0  0  0  0  0
   -2.6638    1.5686   -0.4032 C   0  0  0  0  0  0  0  0  0  0  0  0
   -3.5007    2.1496   -1.0477 O   0  0  0  0  0  0  0  0  0  0  0  0
    4.0087   -0.6157   -0.5542 H   0  0  0  0  0  0  0  0  0  0  0  0
    2.4400   -0.9321   -1.3158 H   0  0  0  0  0  0  0  0  0  0  0  0
    3.0810    0.7238   -1.2514 H   0  0  0  0  0  0  0  0  0  0  0  0
    2.4252    1.1416    0.8648 H   0  0  0  0  0  0  0  0  0  0  0  0
    2.9794   -0.4324    1.4449 H   0  0  0  0  0  0  0  0  0  0  0  0
    0.6750   -0.1711    1.9256 H   0  0  0  0  0  0  0  0  0  0  0  0
    0.8675   -1.5121    0.7861 H   0  0  0  0  0  0  0  0  0  0  0  0
    0.0185   -0.0428   -1.0771 H   0  0  0  0  0  0  0  0  0  0  0  0
   -0.1368    1.2855    0.1903 H   0  0  0  0  0  0  0  0  0  0  0  0
   -1.6440   -0.1910    1.4853 H   0  0  0  0  0  0  0  0  0  0  0  0
   -1.5411   -2.0018   -0.6927 H   0  0  0  0  0  0  0  0  0  0  0  0
   -2.3156   -0.2452   -1.5017 H   0  0  0  0  0  0  0  0  0  0  0  0
   -3.4675   -0.4015   -0.1637 H   0  0  0  0  0  0  0  0  0  0  0  0
   -1.9980    2.1323    0.2278 H   0  0  0  0  0  0  0  0  0  0  0  0
  1  2  1  0
  2  3  1  0
  3  4  1  0
  4  5  1  0
  5  6  1  0
  5  7  1  0
  7  8  1  0
  8  9  2  0
  1 10  1  0
  1 11  1  0
  1 12  1  0
  2 13  1  0
  2 14  1  0
  3 15  1  0
  3 16  1  0
  4 17  1  0
  4 18  1  0
  5 19  1  0
  6 20  1  0
  7 21  1  0
  7 22  1  0
  8 23  1  0
M  END
