
     RDKit          3D

 27 26  0  0  0  0  0  0  0  0999 V2000
    3.7486    0.2272   -0.8201 C   0  0  0  0  0  0  0  0  0  0  0  0
    2.3009    0.5167   -0.5078 C   0  0  0  0  0  0  0  0  0  0  0  0
    1.8815   -0.2823    0.7088 C   0  0  0  0  0  0  0  0  0  0  0  0
    0.4043    0.0495    0.9812 C   0  0  0  0  0  0  0  0  0  0  0  0
   -0.2896   -0.3187   -0.1353 O   0  0  0  0  0  0  0  0  0  0  0  0
   -1.6245   -0.1281   -0.1483 C   0  0  0  0  0  0  0  0  0  0  0  0
   -2.1345    1.2541    0.0129 C   0  0  0  0  0  0  0  0  0  0  0  0
   -2.1433   -0.6582   -1.4801 C   0  0  0  0  0  0  0  0  0  0  0  0
   -2.2752   -1.0106    0.9162 C   0  0  0  0  0  0  0  0  0  0  0  0
    4.3983    1.0124   -0.3905 H   0  0  0  0  0  0  0  0  0  0  0  0
    3.8666    0.2356   -1.9207 H   0  0  0  0  0  0  0  0  0  0  0  0
    4.0724   -0.7335   -0.3896 H   0  0  0  0  0  0  0  0  0  0  0  0
    2.2160    1.5766   -0.2581 H   0  0  0  0  0  0  0  0  0  0  0  0
    1.6819    0.1860   -1.3478 H   0  0  0  0  0  0  0  0  0  0  0  0
    1.9845   -1.3517    0.4290 H   0  0  0  0  0  0  0  0  0  0  0  0
    2.5076   -0.1094    1.5862 H   0  0  0  0  0  0  0  0  0  0  0  0
    0.1473   -0.4598    1.9044 H   0  0  0  0  0  0  0  0  0  0  0  0
    0.2906    1.1435    1.1245 H   0  0  0  0  0  0  0  0  0  0  0  0
   -2.2768    1.7512   -0.9878 H   0  0  0  0  0  0  0  0  0  0  0  0
   -3.1645    1.1941    0.4440 H   0  0  0  0  0  0  0  0  0  0  0  0
   -1.5590    1.9197    0.6441 H   0  0  0  0  0  0  0  0  0  0  0  0
   -2.2560    0.1984   -2.1705 H   0  0  0  0  0  0  0  0  0  0  0  0
   -3.0822   -1.2318   -1.3554 H   0  0  0  0  0  0  0  0  0  0  0  0
   -1.4128   -1.3465   -1.9531 H   0  0  0  0  0  0  0  0  0  0  0  0
   -1.9578   -2.0703    0.7989 H   0  0  0  0  0  0  0  0  0  0  0  0
   -1.9413   -0.6487    1.9063 H   0  0  0  0  0  0  0  0  0  0  0  0
   -3.3833   -0.9151    0.8734 H   0  0  0  0  0  0  0  0  0  0  0  0
  1  2  1  0
  2  3  1  0
  3  4  1  0
  4  5  1  0
  5  6  1  0
  6  7  1  0
  6  8  1  0
  6  9  1  0
  1 10  1  0
  1 11  1  0
  1 12  1  0
  2 13  1  0
  2 14  1  0
  3 15  1  0
  3 16  1  0
  4 17  1  0
  4 18  1  0
  7 19  1  0
  7 20  1  0
  7 21  1  0
  8 22  1  0
  8 23  1  0
  8 24  1  0
  9 25  1  0
  9 26  1  0
  9 27  1  0
M  END
