
     RDKit          3D

 22 21  0  0  0  0  0  0  0  0999 V2000
    2.8387   -0.7247    0.4169 C   0  0  0  0  0  0  0  0  0  0  0  0
    2.3107    0.6276    0.0073 C   0  0  0  0  0  0  0  0  0  0  0  0
    0.8079    0.6831    0.0301 C   0  0  0  0  0  0  0  0  0  0  0  0
    0.1732   -0.3172   -0.9096 C   0  0  0  0  0  0  0  0  0  0  0  0
   -1.3108   -0.2703   -0.8061 C   0  0  0  0  0  0  0  0  0  0  0  0
   -1.9470   -1.0281   -1.5090 O   0  0  0  0  0  0  0  0  0  0  0  0
   -2.0683    0.6335    0.0973 C   0  0  0  0  0  0  0  0  0  0  0  0
   -3.1350   -0.2590    0.7543 C   0  0  0  0  0  0  0  0  0  0  0  0
    3.7535   -0.6476    1.0664 H   0  0  0  0  0  0  0  0  0  0  0  0
    3.1873   -1.2726   -0.5017 H   0  0  0  0  0  0  0  0  0  0  0  0
    2.1000   -1.3054    0.9933 H   0  0  0  0  0  0  0  0  0  0  0  0
    2.7494    0.9641   -0.9454 H   0  0  0  0  0  0  0  0  0  0  0  0
    2.6419    1.3535    0.7933 H   0  0  0  0  0  0  0  0  0  0  0  0
    0.4754    0.4357    1.0540 H   0  0  0  0  0  0  0  0  0  0  0  0
    0.5393    1.7250   -0.2543 H   0  0  0  0  0  0  0  0  0  0  0  0
    0.4651   -0.2267   -1.9529 H   0  0  0  0  0  0  0  0  0  0  0  0
    0.5092   -1.3531   -0.5858 H   0  0  0  0  0  0  0  0  0  0  0  0
   -1.4883    1.0830    0.9006 H   0  0  0  0  0  0  0  0  0  0  0  0
   -2.6341    1.4134   -0.4883 H   0  0  0  0  0  0  0  0  0  0  0  0
   -2.5333   -0.9304    1.4413 H   0  0  0  0  0  0  0  0  0  0  0  0
   -3.5504   -0.8932   -0.0425 H   0  0  0  0  0  0  0  0  0  0  0  0
   -3.8841    0.3092    1.3079 H   0  0  0  0  0  0  0  0  0  0  0  0
  1  2  1  0
  2  3  1  0
  3  4  1  0
  4  5  1  0
  5  6  2  0
  5  7  1  0
  7  8  1  0
  1  9  1  0
  1 10  1  0
  1 11  1  0
  2 12  1  0
  2 13  1  0
  3 14  1  0
  3 15  1  0
  4 16  1  0
  4 17  1  0
  7 18  1  0
  7 19  1  0
  8 20  1  0
  8 21  1  0
  8 22  1  0
M  END
