
     RDKit          3D

 23 24  0  0  0  0  0  0  0  0999 V2000
   -3.3885    0.8115   -0.2242 C   0  0  0  0  0  0  0  0  0  0  0  0
   -2.2965   -0.2162   -0.4360 C   0  0  0  0  0  0  0  0  0  0  0  0
   -1.1477    0.1665    0.4546 C   0  0  0  0  0  0  0  0  0  0  0  0
    0.0185   -0.8260    0.3083 C   0  0  0  0  0  0  0  0  0  0  0  0
    1.2232   -0.6839    1.0451 C   0  0  0  0  0  0  0  0  0  0  0  0
    2.6664   -0.8448    0.5439 C   0  0  0  0  0  0  0  0  0  0  0  0
    2.2744    0.4964   -0.1207 C   0  0  0  0  0  0  0  0  0  0  0  0
    3.0676    0.8423   -1.1892 O   0  0  0  0  0  0  0  0  0  0  0  0
    1.0867   -0.3964   -0.5120 C   0  0  0  0  0  0  0  0  0  0  0  0
   -3.2936    1.2302    0.7990 H   0  0  0  0  0  0  0  0  0  0  0  0
   -3.3333    1.6013   -1.0131 H   0  0  0  0  0  0  0  0  0  0  0  0
   -4.3534    0.2529   -0.2814 H   0  0  0  0  0  0  0  0  0  0  0  0
   -1.9286   -0.1204   -1.4900 H   0  0  0  0  0  0  0  0  0  0  0  0
   -2.6375   -1.2456   -0.3082 H   0  0  0  0  0  0  0  0  0  0  0  0
   -1.4314    0.1568    1.5178 H   0  0  0  0  0  0  0  0  0  0  0  0
   -0.8181    1.1806    0.1836 H   0  0  0  0  0  0  0  0  0  0  0  0
   -0.4009   -1.8721    0.2144 H   0  0  0  0  0  0  0  0  0  0  0  0
    1.2305    0.2563    1.6846 H   0  0  0  0  0  0  0  0  0  0  0  0
    2.8162   -1.6633   -0.1643 H   0  0  0  0  0  0  0  0  0  0  0  0
    3.3910   -0.7562    1.3476 H   0  0  0  0  0  0  0  0  0  0  0  0
    2.0577    1.2545    0.6243 H   0  0  0  0  0  0  0  0  0  0  0  0
    3.6568    1.5909   -0.9048 H   0  0  0  0  0  0  0  0  0  0  0  0
    1.5404   -1.2153   -1.1599 H   0  0  0  0  0  0  0  0  0  0  0  0
  1  2  1  0
  2  3  1  0
  3  4  1  0
  4  5  1  0
  5  6  1  0
  6  7  1  0
  7  8  1  0
  7  9  1  0
  9  4  1  0
  9  5  1  0
  1 10  1  0
  1 11  1  0
  1 12  1  0
  2 13  1  0
  2 14  1  0
  3 15  1  0
  3 16  1  0
  4 17  1  0
  5 18  1  0
  6 19  1  0
  6 20  1  0
  7 21  1  0
  8 22  1  0
  9 23  1  0
M  END
