
     RDKit          3D

 16 15  0  0  0  0  0  0  0  0999 V2000
   -2.2445   -0.0912    0.5896 C   0  0  0  0  0  0  0  0  0  0  0  0
   -1.1345   -0.1252   -0.4381 C   0  0  0  0  0  0  0  0  0  0  0  0
    0.1995    0.0504    0.2547 C   0  0  0  0  0  0  0  0  0  0  0  0
    1.3509    0.0237   -0.7338 C   0  0  0  0  0  0  0  0  0  0  0  0
    2.5978    0.2042    0.0596 C   0  0  0  0  0  0  0  0  0  0  0  0
    3.1203   -0.6927    0.6761 O   0  0  0  0  0  0  0  0  0  0  0  0
   -1.8909   -0.4612    1.5823 H   0  0  0  0  0  0  0  0  0  0  0  0
   -3.0278   -0.7877    0.2538 H   0  0  0  0  0  0  0  0  0  0  0  0
   -2.6583    0.9432    0.7129 H   0  0  0  0  0  0  0  0  0  0  0  0
   -1.1214   -1.1054   -0.9443 H   0  0  0  0  0  0  0  0  0  0  0  0
   -1.3456    0.6826   -1.1632 H   0  0  0  0  0  0  0  0  0  0  0  0
    0.2519    0.9973    0.8317 H   0  0  0  0  0  0  0  0  0  0  0  0
    0.2895   -0.7700    0.9964 H   0  0  0  0  0  0  0  0  0  0  0  0
    1.3798   -0.9318   -1.2970 H   0  0  0  0  0  0  0  0  0  0  0  0
    1.2049    0.8657   -1.4420 H   0  0  0  0  0  0  0  0  0  0  0  0
    3.0285    1.1983    0.0614 H   0  0  0  0  0  0  0  0  0  0  0  0
  1  2  1  0
  2  3  1  0
  3  4  1  0
  4  5  1  0
  5  6  2  0
  1  7  1  0
  1  8  1  0
  1  9  1  0
  2 10  1  0
  2 11  1  0
  3 12  1  0
  3 13  1  0
  4 14  1  0
  4 15  1  0
  5 16  1  0
M  END
