
     RDKit          3D

 21 21  0  0  0  0  0  0  0  0999 V2000
    2.8436    0.7230    0.6442 C   0  0  0  0  0  0  0  0  0  0  0  0
    1.3326    0.6496    0.3857 C   0  0  0  0  0  0  0  0  0  0  0  0
    1.0551   -0.7133   -0.1599 C   0  0  0  0  0  0  0  0  0  0  0  0
   -0.3757   -0.9803   -0.4785 C   0  0  0  0  0  0  0  0  0  0  0  0
   -1.3215   -0.8748    0.6735 C   0  0  0  0  0  0  0  0  0  0  0  0
   -2.1456   -0.1828   -0.3933 C   0  0  0  0  0  0  0  0  0  0  0  0
   -2.7535    1.0972    0.0332 C   0  0  0  0  0  0  0  0  0  0  0  0
   -3.7410    1.0739    0.7412 O   0  0  0  0  0  0  0  0  0  0  0  0
   -1.0302    0.0173   -1.1942 O   0  0  0  0  0  0  0  0  0  0  0  0
    3.1077   -0.1642    1.2650 H   0  0  0  0  0  0  0  0  0  0  0  0
    3.3743    0.6077   -0.3078 H   0  0  0  0  0  0  0  0  0  0  0  0
    3.1257    1.6274    1.1836 H   0  0  0  0  0  0  0  0  0  0  0  0
    0.8188    0.8341    1.3412 H   0  0  0  0  0  0  0  0  0  0  0  0
    1.0554    1.4672   -0.2965 H   0  0  0  0  0  0  0  0  0  0  0  0
    1.3771   -1.4482    0.6324 H   0  0  0  0  0  0  0  0  0  0  0  0
    1.6469   -0.8736   -1.0854 H   0  0  0  0  0  0  0  0  0  0  0  0
   -0.4925   -1.9657   -0.9775 H   0  0  0  0  0  0  0  0  0  0  0  0
   -1.7463   -1.8350    1.0297 H   0  0  0  0  0  0  0  0  0  0  0  0
   -0.9211   -0.2148    1.4665 H   0  0  0  0  0  0  0  0  0  0  0  0
   -2.8590   -0.8989   -0.8732 H   0  0  0  0  0  0  0  0  0  0  0  0
   -2.3508    2.0542   -0.2624 H   0  0  0  0  0  0  0  0  0  0  0  0
  1  2  1  0
  2  3  1  0
  3  4  1  0
  4  5  1  0
  5  6  1  0
  6  7  1  0
  7  8  2  0
  6  9  1  0
  9  4  1  0
  1 10  1  0
  1 11  1  0
  1 12  1  0
  2 13  1  0
  2 14  1  0
  3 15  1  0
  3 16  1  0
  4 17  1  0
  5 18  1  0
  5 19  1  0
  6 20  1  0
  7 21  1  0
M  END
