
     RDKit          3D

 23 22  0  0  0  0  0  0  0  0999 V2000
   -2.0225    0.8749    0.7545 C   0  0  0  0  0  0  0  0  0  0  0  0
   -2.1602   -0.4257    0.0786 C   0  0  0  0  0  0  0  0  0  0  0  0
   -0.9675   -1.2334   -0.2223 C   0  0  0  0  0  0  0  0  0  0  0  0
    0.0696   -0.6600   -1.1242 C   0  0  0  0  0  0  0  0  0  0  0  0
    0.7846    0.5564   -0.6800 C   0  0  0  0  0  0  0  0  0  0  0  0
    1.5764    0.3716    0.5968 C   0  0  0  0  0  0  0  0  0  0  0  0
    2.1686    1.6303    0.8506 O   0  0  0  0  0  0  0  0  0  0  0  0
    2.6645   -0.6117    0.4475 C   0  0  0  0  0  0  0  0  0  0  0  0
    3.8080   -0.2463    0.5519 O   0  0  0  0  0  0  0  0  0  0  0  0
   -1.1396    1.0691    1.3493 H   0  0  0  0  0  0  0  0  0  0  0  0
   -2.8968    1.0775    1.4698 H   0  0  0  0  0  0  0  0  0  0  0  0
   -2.0942    1.7033   -0.0138 H   0  0  0  0  0  0  0  0  0  0  0  0
   -2.8537   -1.0556    0.7305 H   0  0  0  0  0  0  0  0  0  0  0  0
   -2.7774   -0.3118   -0.8613 H   0  0  0  0  0  0  0  0  0  0  0  0
   -1.3209   -2.1853   -0.7387 H   0  0  0  0  0  0  0  0  0  0  0  0
   -0.4860   -1.6684    0.7158 H   0  0  0  0  0  0  0  0  0  0  0  0
    0.7746   -1.4372   -1.5049 H   0  0  0  0  0  0  0  0  0  0  0  0
   -0.4945   -0.3589   -2.0690 H   0  0  0  0  0  0  0  0  0  0  0  0
    0.1695    1.4356   -0.5688 H   0  0  0  0  0  0  0  0  0  0  0  0
    1.5214    0.8345   -1.5031 H   0  0  0  0  0  0  0  0  0  0  0  0
    0.9792    0.1171    1.4683 H   0  0  0  0  0  0  0  0  0  0  0  0
    2.2360    2.1724    0.0252 H   0  0  0  0  0  0  0  0  0  0  0  0
    2.4608   -1.6485    0.2473 H   0  0  0  0  0  0  0  0  0  0  0  0
  1  2  1  0
  2  3  1  0
  3  4  1  0
  4  5  1  0
  5  6  1  0
  6  7  1  0
  6  8  1  0
  8  9  2  0
  1 10  1  0
  1 11  1  0
  1 12  1  0
  2 13  1  0
  2 14  1  0
  3 15  1  0
  3 16  1  0
  4 17  1  0
  4 18  1  0
  5 19  1  0
  5 20  1  0
  6 21  1  0
  7 22  1  0
  8 23  1  0
M  END
