
     RDKit          3D

 25 24  0  0  0  0  0  0  0  0999 V2000
   -3.5485    0.1587   -0.3139 C   0  0  0  0  0  0  0  0  0  0  0  0
   -2.3255    0.0578    0.5751 C   0  0  0  0  0  0  0  0  0  0  0  0
   -1.1158    0.1030   -0.3413 C   0  0  0  0  0  0  0  0  0  0  0  0
    0.1776    0.0103    0.4271 C   0  0  0  0  0  0  0  0  0  0  0  0
    1.3032    0.0655   -0.5898 C   0  0  0  0  0  0  0  0  0  0  0  0
    1.1245   -1.1026   -1.5191 C   0  0  0  0  0  0  0  0  0  0  0  0
    2.6569   -0.0050    0.0656 C   0  0  0  0  0  0  0  0  0  0  0  0
    2.8955    1.1008    1.0095 C   0  0  0  0  0  0  0  0  0  0  0  0
    3.9663    1.1300    1.5900 O   0  0  0  0  0  0  0  0  0  0  0  0
   -4.4426   -0.2921    0.1592 H   0  0  0  0  0  0  0  0  0  0  0  0
   -3.6863    1.2609   -0.5087 H   0  0  0  0  0  0  0  0  0  0  0  0
   -3.3046   -0.3217   -1.2825 H   0  0  0  0  0  0  0  0  0  0  0  0
   -2.3060    0.8291    1.3534 H   0  0  0  0  0  0  0  0  0  0  0  0
   -2.3755   -0.9321    1.0698 H   0  0  0  0  0  0  0  0  0  0  0  0
   -1.2149   -0.7562   -1.0349 H   0  0  0  0  0  0  0  0  0  0  0  0
   -1.1006    1.0126   -0.9528 H   0  0  0  0  0  0  0  0  0  0  0  0
    0.2446    0.8547    1.1398 H   0  0  0  0  0  0  0  0  0  0  0  0
    0.2075   -0.9297    1.0141 H   0  0  0  0  0  0  0  0  0  0  0  0
    1.2582    0.9995   -1.1808 H   0  0  0  0  0  0  0  0  0  0  0  0
    0.4782   -0.7989   -2.3825 H   0  0  0  0  0  0  0  0  0  0  0  0
    2.0962   -1.5143   -1.8708 H   0  0  0  0  0  0  0  0  0  0  0  0
    0.5786   -1.9246   -1.0061 H   0  0  0  0  0  0  0  0  0  0  0  0
    2.8379   -0.9715    0.5718 H   0  0  0  0  0  0  0  0  0  0  0  0
    3.4117    0.0804   -0.7434 H   0  0  0  0  0  0  0  0  0  0  0  0
    2.1834    1.8851    1.2190 H   0  0  0  0  0  0  0  0  0  0  0  0
  1  2  1  0
  2  3  1  0
  3  4  1  0
  4  5  1  0
  5  6  1  0
  5  7  1  0
  7  8  1  0
  8  9  2  0
  1 10  1  0
  1 11  1  0
  1 12  1  0
  2 13  1  0
  2 14  1  0
  3 15  1  0
  3 16  1  0
  4 17  1  0
  4 18  1  0
  5 19  1  0
  6 20  1  0
  6 21  1  0
  6 22  1  0
  7 23  1  0
  7 24  1  0
  8 25  1  0
M  END
