
     RDKit          3D

 23 22  0  0  0  0  0  0  0  0999 V2000
    3.0310   -0.4131   -0.2028 C   0  0  0  0  0  0  0  0  0  0  0  0
    1.7246    0.3500   -0.2030 C   0  0  0  0  0  0  0  0  0  0  0  0
    0.5407   -0.5576    0.0442 C   0  0  0  0  0  0  0  0  0  0  0  0
   -0.7062    0.2974    0.0245 C   0  0  0  0  0  0  0  0  0  0  0  0
   -1.9525   -0.5195    0.2634 C   0  0  0  0  0  0  0  0  0  0  0  0
   -2.1488   -1.5886   -0.7749 C   0  0  0  0  0  0  0  0  0  0  0  0
   -0.6435    1.2726    1.0464 O   0  0  0  0  0  0  0  0  0  0  0  0
   -0.6883    2.6178    0.7445 C   0  0  0  0  0  0  0  0  0  0  0  0
   -0.7854    2.9486   -0.4520 O   0  0  0  0  0  0  0  0  0  0  0  0
    3.1585   -1.0590   -1.0728 H   0  0  0  0  0  0  0  0  0  0  0  0
    3.8405    0.3493   -0.1788 H   0  0  0  0  0  0  0  0  0  0  0  0
    3.0842   -0.9514    0.7622 H   0  0  0  0  0  0  0  0  0  0  0  0
    1.5822    0.8439   -1.1869 H   0  0  0  0  0  0  0  0  0  0  0  0
    1.7687    1.1290    0.5793 H   0  0  0  0  0  0  0  0  0  0  0  0
    0.4905   -1.2594   -0.8227 H   0  0  0  0  0  0  0  0  0  0  0  0
    0.6325   -1.1358    0.9623 H   0  0  0  0  0  0  0  0  0  0  0  0
   -0.7879    0.8089   -0.9351 H   0  0  0  0  0  0  0  0  0  0  0  0
   -1.9476   -1.0055    1.2490 H   0  0  0  0  0  0  0  0  0  0  0  0
   -2.8158    0.1650    0.2162 H   0  0  0  0  0  0  0  0  0  0  0  0
   -3.1752   -1.9966   -0.6332 H   0  0  0  0  0  0  0  0  0  0  0  0
   -1.4548   -2.4418   -0.6487 H   0  0  0  0  0  0  0  0  0  0  0  0
   -2.1117   -1.1622   -1.7947 H   0  0  0  0  0  0  0  0  0  0  0  0
   -0.6354    3.3083    1.5785 H   0  0  0  0  0  0  0  0  0  0  0  0
  1  2  1  0
  2  3  1  0
  3  4  1  0
  4  5  1  0
  5  6  1  0
  4  7  1  0
  7  8  1  0
  8  9  2  0
  1 10  1  0
  1 11  1  0
  1 12  1  0
  2 13  1  0
  2 14  1  0
  3 15  1  0
  3 16  1  0
  4 17  1  0
  5 18  1  0
  5 19  1  0
  6 20  1  0
  6 21  1  0
  6 22  1  0
  8 23  1  0
M  END
