
     RDKit          3D

 20 19  0  0  0  0  0  0  0  0999 V2000
   -3.3972    0.4952    0.5089 C   0  0  0  0  0  0  0  0  0  0  0  0
   -2.2669   -0.3325   -0.0247 C   0  0  0  0  0  0  0  0  0  0  0  0
   -0.9232    0.3307    0.2852 C   0  0  0  0  0  0  0  0  0  0  0  0
    0.1999   -0.5235   -0.2633 C   0  0  0  0  0  0  0  0  0  0  0  0
    1.4105    0.1471    0.0578 O   0  0  0  0  0  0  0  0  0  0  0  0
    2.6444   -0.3622   -0.2988 C   0  0  0  0  0  0  0  0  0  0  0  0
    3.9199    0.3289    0.0306 C   0  0  0  0  0  0  0  0  0  0  0  0
    2.6400   -1.4635   -0.9300 O   0  0  0  0  0  0  0  0  0  0  0  0
   -4.2347    0.5744   -0.2189 H   0  0  0  0  0  0  0  0  0  0  0  0
   -3.0329    1.4649    0.8584 H   0  0  0  0  0  0  0  0  0  0  0  0
   -3.8457   -0.0334    1.4003 H   0  0  0  0  0  0  0  0  0  0  0  0
   -2.3321   -0.5353   -1.1113 H   0  0  0  0  0  0  0  0  0  0  0  0
   -2.2109   -1.3348    0.4917 H   0  0  0  0  0  0  0  0  0  0  0  0
   -0.8745    1.3381   -0.1935 H   0  0  0  0  0  0  0  0  0  0  0  0
   -0.7632    0.4534    1.3537 H   0  0  0  0  0  0  0  0  0  0  0  0
    0.1498   -1.5324    0.1569 H   0  0  0  0  0  0  0  0  0  0  0  0
    0.1335   -0.5571   -1.3864 H   0  0  0  0  0  0  0  0  0  0  0  0
    3.9688    1.3533   -0.3835 H   0  0  0  0  0  0  0  0  0  0  0  0
    4.0641    0.4289    1.1309 H   0  0  0  0  0  0  0  0  0  0  0  0
    4.7503   -0.2402   -0.4360 H   0  0  0  0  0  0  0  0  0  0  0  0
  1  2  1  0
  2  3  1  0
  3  4  1  0
  4  5  1  0
  5  6  1  0
  6  7  1  0
  6  8  2  0
  1  9  1  0
  1 10  1  0
  1 11  1  0
  2 12  1  0
  2 13  1  0
  3 14  1  0
  3 15  1  0
  4 16  1  0
  4 17  1  0
  7 18  1  0
  7 19  1  0
  7 20  1  0
M  END
