
     RDKit          3D

 23 23  0  0  0  0  0  0  0  0999 V2000
   -3.3436    0.2413   -0.3834 C   0  0  0  0  0  0  0  0  0  0  0  0
   -1.8527   -0.0259   -0.3661 C   0  0  0  0  0  0  0  0  0  0  0  0
   -1.3438   -0.0521    1.0591 C   0  0  0  0  0  0  0  0  0  0  0  0
    0.1456   -0.3202    1.0507 C   0  0  0  0  0  0  0  0  0  0  0  0
    0.8790    0.7380    0.2991 C   0  0  0  0  0  0  0  0  0  0  0  0
    1.9495    0.1219   -0.1946 C   0  0  0  0  0  0  0  0  0  0  0  0
    3.0059    0.7583   -1.0292 C   0  0  0  0  0  0  0  0  0  0  0  0
    1.8800   -1.3196    0.2502 C   0  0  0  0  0  0  0  0  0  0  0  0
    0.4770   -1.4570    0.3547 O   0  0  0  0  0  0  0  0  0  0  0  0
   -3.6339    0.6641    0.6179 H   0  0  0  0  0  0  0  0  0  0  0  0
   -3.6344    0.9156   -1.2053 H   0  0  0  0  0  0  0  0  0  0  0  0
   -3.9216   -0.7230   -0.4711 H   0  0  0  0  0  0  0  0  0  0  0  0
   -1.6858   -1.0361   -0.8119 H   0  0  0  0  0  0  0  0  0  0  0  0
   -1.3492    0.7597   -0.9542 H   0  0  0  0  0  0  0  0  0  0  0  0
   -1.5028    0.9181    1.5554 H   0  0  0  0  0  0  0  0  0  0  0  0
   -1.8282   -0.8695    1.6111 H   0  0  0  0  0  0  0  0  0  0  0  0
    0.5609   -0.4023    2.0632 H   0  0  0  0  0  0  0  0  0  0  0  0
    0.6346    1.7857    0.1585 H   0  0  0  0  0  0  0  0  0  0  0  0
    3.2379    1.7919   -0.7008 H   0  0  0  0  0  0  0  0  0  0  0  0
    2.7346    0.8157   -2.0978 H   0  0  0  0  0  0  0  0  0  0  0  0
    3.9264    0.1351   -0.8917 H   0  0  0  0  0  0  0  0  0  0  0  0
    2.3797   -1.4429    1.2103 H   0  0  0  0  0  0  0  0  0  0  0  0
    2.2849   -1.9966   -0.4931 H   0  0  0  0  0  0  0  0  0  0  0  0
  1  2  1  0
  2  3  1  0
  3  4  1  0
  4  5  1  0
  5  6  2  0
  6  7  1  0
  6  8  1  0
  8  9  1  0
  9  4  1  0
  1 10  1  0
  1 11  1  0
  1 12  1  0
  2 13  1  0
  2 14  1  0
  3 15  1  0
  3 16  1  0
  4 17  1  0
  5 18  1  0
  7 19  1  0
  7 20  1  0
  7 21  1  0
  8 22  1  0
  8 23  1  0
M  END
