
     RDKit          3D

 23 22  0  0  0  0  0  0  0  0999 V2000
   -3.2892    0.5282    0.8103 C   0  0  0  0  0  0  0  0  0  0  0  0
   -2.5563   -0.0585   -0.3289 C   0  0  0  0  0  0  0  0  0  0  0  0
   -1.1522   -0.4823   -0.1071 C   0  0  0  0  0  0  0  0  0  0  0  0
   -0.2376    0.6016    0.3381 C   0  0  0  0  0  0  0  0  0  0  0  0
   -0.5197    1.4599    1.1509 O   0  0  0  0  0  0  0  0  0  0  0  0
    1.1378    0.6631   -0.2453 C   0  0  0  0  0  0  0  0  0  0  0  0
    2.0922   -0.3293    0.3054 C   0  0  0  0  0  0  0  0  0  0  0  0
    3.4322   -0.1167   -0.3874 C   0  0  0  0  0  0  0  0  0  0  0  0
    1.6944   -1.6504    0.1036 O   0  0  0  0  0  0  0  0  0  0  0  0
   -4.1609   -0.0649    1.1467 H   0  0  0  0  0  0  0  0  0  0  0  0
   -2.7156    0.8211    1.6824 H   0  0  0  0  0  0  0  0  0  0  0  0
   -3.7560    1.4927    0.4309 H   0  0  0  0  0  0  0  0  0  0  0  0
   -2.5584    0.5958   -1.2482 H   0  0  0  0  0  0  0  0  0  0  0  0
   -3.1103   -0.9867   -0.6711 H   0  0  0  0  0  0  0  0  0  0  0  0
   -0.7514   -0.9043   -1.0473 H   0  0  0  0  0  0  0  0  0  0  0  0
   -1.1285   -1.3550    0.6098 H   0  0  0  0  0  0  0  0  0  0  0  0
    1.5795    1.6740   -0.1057 H   0  0  0  0  0  0  0  0  0  0  0  0
    1.1014    0.5228   -1.3592 H   0  0  0  0  0  0  0  0  0  0  0  0
    2.2915   -0.2105    1.3756 H   0  0  0  0  0  0  0  0  0  0  0  0
    3.8766   -1.0964   -0.6663 H   0  0  0  0  0  0  0  0  0  0  0  0
    4.1207    0.4923    0.2269 H   0  0  0  0  0  0  0  0  0  0  0  0
    3.2677    0.4535   -1.3472 H   0  0  0  0  0  0  0  0  0  0  0  0
    1.3424   -2.0499    0.9430 H   0  0  0  0  0  0  0  0  0  0  0  0
  1  2  1  0
  2  3  1  0
  3  4  1  0
  4  5  2  0
  4  6  1  0
  6  7  1  0
  7  8  1  0
  7  9  1  0
  1 10  1  0
  1 11  1  0
  1 12  1  0
  2 13  1  0
  2 14  1  0
  3 15  1  0
  3 16  1  0
  6 17  1  0
  6 18  1  0
  7 19  1  0
  8 20  1  0
  8 21  1  0
  8 22  1  0
  9 23  1  0
M  END
