
     RDKit          3D

 25 25  0  0  0  0  0  0  0  0999 V2000
    2.9423    0.9023   -0.6963 C   0  0  0  0  0  0  0  0  0  0  0  0
    1.7744   -0.0366   -0.9492 C   0  0  0  0  0  0  0  0  0  0  0  0
    0.8472   -0.0845    0.2420 C   0  0  0  0  0  0  0  0  0  0  0  0
   -0.2866   -1.0084   -0.0285 C   0  0  0  0  0  0  0  0  0  0  0  0
    0.1168   -2.3369   -0.2919 O   0  0  0  0  0  0  0  0  0  0  0  0
   -1.4593   -0.8308    0.9423 C   0  0  0  0  0  0  0  0  0  0  0  0
   -1.4680    0.4043    1.8153 C   0  0  0  0  0  0  0  0  0  0  0  0
   -1.5981   -0.5925   -0.5114 C   0  0  0  0  0  0  0  0  0  0  0  0
   -1.9150    0.7992   -0.9686 C   0  0  0  0  0  0  0  0  0  0  0  0
    3.5838    0.8817   -1.5995 H   0  0  0  0  0  0  0  0  0  0  0  0
    2.6156    1.9430   -0.5430 H   0  0  0  0  0  0  0  0  0  0  0  0
    3.5168    0.4848    0.1414 H   0  0  0  0  0  0  0  0  0  0  0  0
    2.2062   -1.0430   -1.1065 H   0  0  0  0  0  0  0  0  0  0  0  0
    1.2397    0.2925   -1.8679 H   0  0  0  0  0  0  0  0  0  0  0  0
    1.4490   -0.5343    1.0844 H   0  0  0  0  0  0  0  0  0  0  0  0
    0.5402    0.9065    0.5902 H   0  0  0  0  0  0  0  0  0  0  0  0
    0.4972   -2.6661    0.5658 H   0  0  0  0  0  0  0  0  0  0  0  0
   -1.7661   -1.7512    1.4391 H   0  0  0  0  0  0  0  0  0  0  0  0
   -1.3841    1.3168    1.1954 H   0  0  0  0  0  0  0  0  0  0  0  0
   -2.4422    0.4217    2.3362 H   0  0  0  0  0  0  0  0  0  0  0  0
   -0.6756    0.3767    2.5872 H   0  0  0  0  0  0  0  0  0  0  0  0
   -2.2038   -1.3768   -1.0517 H   0  0  0  0  0  0  0  0  0  0  0  0
   -2.7283    1.2538   -0.3396 H   0  0  0  0  0  0  0  0  0  0  0  0
   -1.0651    1.4800   -0.9702 H   0  0  0  0  0  0  0  0  0  0  0  0
   -2.3369    0.7978   -2.0150 H   0  0  0  0  0  0  0  0  0  0  0  0
  1  2  1  0
  2  3  1  0
  3  4  1  0
  4  5  1  0
  4  6  1  0
  6  7  1  0
  6  8  1  0
  8  9  1  0
  8  4  1  0
  1 10  1  0
  1 11  1  0
  1 12  1  0
  2 13  1  0
  2 14  1  0
  3 15  1  0
  3 16  1  0
  5 17  1  0
  6 18  1  0
  7 19  1  0
  7 20  1  0
  7 21  1  0
  8 22  1  0
  9 23  1  0
  9 24  1  0
  9 25  1  0
M  END
