
     RDKit          3D

 22 22  0  0  0  0  0  0  0  0999 V2000
    3.2354   -0.3828   -0.6842 C   0  0  0  0  0  0  0  0  0  0  0  0
    2.1007    0.3926   -0.0393 C   0  0  0  0  0  0  0  0  0  0  0  0
    0.8927   -0.5123    0.0507 C   0  0  0  0  0  0  0  0  0  0  0  0
   -0.2891    0.1456    0.6704 C   0  0  0  0  0  0  0  0  0  0  0  0
   -0.9103    1.3591    0.0901 C   0  0  0  0  0  0  0  0  0  0  0  0
   -1.5717    0.0472   -0.1397 C   0  0  0  0  0  0  0  0  0  0  0  0
   -2.8439   -0.2935    0.6178 C   0  0  0  0  0  0  0  0  0  0  0  0
   -3.8923   -0.3341   -0.3004 O   0  0  0  0  0  0  0  0  0  0  0  0
    3.6816   -1.1026    0.0564 H   0  0  0  0  0  0  0  0  0  0  0  0
    2.8876   -0.9889   -1.5237 H   0  0  0  0  0  0  0  0  0  0  0  0
    4.0548    0.3055   -0.9936 H   0  0  0  0  0  0  0  0  0  0  0  0
    1.9092    1.3081   -0.6186 H   0  0  0  0  0  0  0  0  0  0  0  0
    2.4368    0.6774    0.9763 H   0  0  0  0  0  0  0  0  0  0  0  0
    1.2078   -1.3643    0.7184 H   0  0  0  0  0  0  0  0  0  0  0  0
    0.6176   -0.9439   -0.9223 H   0  0  0  0  0  0  0  0  0  0  0  0
   -0.4234   -0.0292    1.7556 H   0  0  0  0  0  0  0  0  0  0  0  0
   -0.4376    1.8859   -0.7808 H   0  0  0  0  0  0  0  0  0  0  0  0
   -1.4267    2.0285    0.8071 H   0  0  0  0  0  0  0  0  0  0  0  0
   -1.5346   -0.3203   -1.1723 H   0  0  0  0  0  0  0  0  0  0  0  0
   -3.0658    0.5375    1.3167 H   0  0  0  0  0  0  0  0  0  0  0  0
   -2.7589   -1.2739    1.1090 H   0  0  0  0  0  0  0  0  0  0  0  0
   -3.8698   -1.1415   -0.8542 H   0  0  0  0  0  0  0  0  0  0  0  0
  1  2  1  0
  2  3  1  0
  3  4  1  0
  4  5  1  0
  5  6  1  0
  6  7  1  0
  7  8  1  0
  6  4  1  0
  1  9  1  0
  1 10  1  0
  1 11  1  0
  2 12  1  0
  2 13  1  0
  3 14  1  0
  3 15  1  0
  4 16  1  0
  5 17  1  0
  5 18  1  0
  6 19  1  0
  7 20  1  0
  7 21  1  0
  8 22  1  0
M  END
