
     RDKit          3D

 21 20  0  0  0  0  0  0  0  0999 V2000
   -3.1373    0.2799    0.3614 C   0  0  0  0  0  0  0  0  0  0  0  0
   -1.8789   -0.2807    0.9862 C   0  0  0  0  0  0  0  0  0  0  0  0
   -0.7015    0.2868    0.2239 C   0  0  0  0  0  0  0  0  0  0  0  0
    0.6174   -0.2113    0.7687 C   0  0  0  0  0  0  0  0  0  0  0  0
    0.7486   -1.5831    0.7111 O   0  0  0  0  0  0  0  0  0  0  0  0
    1.7127    0.4941   -0.0231 C   0  0  0  0  0  0  0  0  0  0  0  0
    3.0846    0.0452    0.4664 C   0  0  0  0  0  0  0  0  0  0  0  0
   -3.9742   -0.4508    0.4406 H   0  0  0  0  0  0  0  0  0  0  0  0
   -3.3895    1.2564    0.8182 H   0  0  0  0  0  0  0  0  0  0  0  0
   -2.9856    0.4953   -0.7314 H   0  0  0  0  0  0  0  0  0  0  0  0
   -1.8841   -1.3908    0.8324 H   0  0  0  0  0  0  0  0  0  0  0  0
   -1.8318   -0.0933    2.0558 H   0  0  0  0  0  0  0  0  0  0  0  0
   -0.7134    1.3872    0.3500 H   0  0  0  0  0  0  0  0  0  0  0  0
   -0.7479   -0.0325   -0.8357 H   0  0  0  0  0  0  0  0  0  0  0  0
    0.7599    0.0879    1.8295 H   0  0  0  0  0  0  0  0  0  0  0  0
    0.6760   -1.9404   -0.2133 H   0  0  0  0  0  0  0  0  0  0  0  0
    1.6731    0.2391   -1.1026 H   0  0  0  0  0  0  0  0  0  0  0  0
    1.6531    1.5815    0.0736 H   0  0  0  0  0  0  0  0  0  0  0  0
    3.8530    0.2050   -0.3190 H   0  0  0  0  0  0  0  0  0  0  0  0
    3.3739    0.6710    1.3224 H   0  0  0  0  0  0  0  0  0  0  0  0
    3.0920   -1.0465    0.6957 H   0  0  0  0  0  0  0  0  0  0  0  0
  1  2  1  0
  2  3  1  0
  3  4  1  0
  4  5  1  0
  4  6  1  0
  6  7  1  0
  1  8  1  0
  1  9  1  0
  1 10  1  0
  2 11  1  0
  2 12  1  0
  3 13  1  0
  3 14  1  0
  4 15  1  0
  5 16  1  0
  6 17  1  0
  6 18  1  0
  7 19  1  0
  7 20  1  0
  7 21  1  0
M  END
