
     RDKit          3D

 25 25  0  0  0  0  0  0  0  0999 V2000
    3.5790    0.5345    0.4384 C   0  0  0  0  0  0  0  0  0  0  0  0
    2.4201   -0.3508    0.8892 C   0  0  0  0  0  0  0  0  0  0  0  0
    1.3115   -0.1173   -0.1140 C   0  0  0  0  0  0  0  0  0  0  0  0
    0.0767   -0.9318    0.1953 C   0  0  0  0  0  0  0  0  0  0  0  0
   -0.9857   -0.6442   -0.8508 C   0  0  0  0  0  0  0  0  0  0  0  0
   -1.7477    0.0052    0.2706 C   0  0  0  0  0  0  0  0  0  0  0  0
   -1.8786    1.5000    0.1324 C   0  0  0  0  0  0  0  0  0  0  0  0
   -3.1040   -0.6307    0.4214 C   0  0  0  0  0  0  0  0  0  0  0  0
   -0.7734   -0.4095    1.1428 O   0  0  0  0  0  0  0  0  0  0  0  0
    3.0979    1.4988    0.1194 H   0  0  0  0  0  0  0  0  0  0  0  0
    4.0436    0.0311   -0.4408 H   0  0  0  0  0  0  0  0  0  0  0  0
    4.2809    0.7604    1.2391 H   0  0  0  0  0  0  0  0  0  0  0  0
    2.1180   -0.1365    1.9161 H   0  0  0  0  0  0  0  0  0  0  0  0
    2.7727   -1.4099    0.7675 H   0  0  0  0  0  0  0  0  0  0  0  0
    1.0575    0.9583   -0.1822 H   0  0  0  0  0  0  0  0  0  0  0  0
    1.6674   -0.4334   -1.1146 H   0  0  0  0  0  0  0  0  0  0  0  0
    0.2723   -1.9872    0.3686 H   0  0  0  0  0  0  0  0  0  0  0  0
   -1.4636   -1.5765   -1.2565 H   0  0  0  0  0  0  0  0  0  0  0  0
   -0.6849    0.0377   -1.6521 H   0  0  0  0  0  0  0  0  0  0  0  0
   -2.0385    1.8345   -0.9025 H   0  0  0  0  0  0  0  0  0  0  0  0
   -2.7263    1.8424    0.7686 H   0  0  0  0  0  0  0  0  0  0  0  0
   -0.9732    2.0001    0.5621 H   0  0  0  0  0  0  0  0  0  0  0  0
   -3.0060   -1.7375    0.3724 H   0  0  0  0  0  0  0  0  0  0  0  0
   -3.6805   -0.3559   -0.5095 H   0  0  0  0  0  0  0  0  0  0  0  0
   -3.6353   -0.2818    1.3198 H   0  0  0  0  0  0  0  0  0  0  0  0
  1  2  1  0
  2  3  1  0
  3  4  1  0
  4  5  1  0
  5  6  1  0
  6  7  1  0
  6  8  1  0
  6  9  1  0
  9  4  1  0
  1 10  1  0
  1 11  1  0
  1 12  1  0
  2 13  1  0
  2 14  1  0
  3 15  1  0
  3 16  1  0
  4 17  1  0
  5 18  1  0
  5 19  1  0
  7 20  1  0
  7 21  1  0
  7 22  1  0
  8 23  1  0
  8 24  1  0
  8 25  1  0
M  END
