
     RDKit          3D

 23 23  0  0  0  0  0  0  0  0999 V2000
    2.8724    1.1707    0.3864 C   0  0  0  0  0  0  0  0  0  0  0  0
    1.8282    0.5280   -0.4827 C   0  0  0  0  0  0  0  0  0  0  0  0
    0.8390   -0.2797    0.3569 C   0  0  0  0  0  0  0  0  0  0  0  0
   -0.2051   -0.9241   -0.4966 C   0  0  0  0  0  0  0  0  0  0  0  0
   -1.0150    0.0477   -1.2762 C   0  0  0  0  0  0  0  0  0  0  0  0
   -2.1703    0.3256   -0.7039 C   0  0  0  0  0  0  0  0  0  0  0  0
   -2.2756   -0.4388    0.5514 C   0  0  0  0  0  0  0  0  0  0  0  0
   -1.8595    0.4129    1.5806 O   0  0  0  0  0  0  0  0  0  0  0  0
   -1.2801   -1.5537    0.3899 C   0  0  0  0  0  0  0  0  0  0  0  0
    2.4420    1.2205    1.4256 H   0  0  0  0  0  0  0  0  0  0  0  0
    3.7833    0.5252    0.4925 H   0  0  0  0  0  0  0  0  0  0  0  0
    3.1137    2.2036    0.1070 H   0  0  0  0  0  0  0  0  0  0  0  0
    2.2679   -0.0683   -1.2871 H   0  0  0  0  0  0  0  0  0  0  0  0
    1.2562    1.3631   -0.9636 H   0  0  0  0  0  0  0  0  0  0  0  0
    1.4354   -1.0648    0.8631 H   0  0  0  0  0  0  0  0  0  0  0  0
    0.4248    0.3621    1.1404 H   0  0  0  0  0  0  0  0  0  0  0  0
    0.2004   -1.6657   -1.1997 H   0  0  0  0  0  0  0  0  0  0  0  0
   -0.7403    0.5249   -2.2383 H   0  0  0  0  0  0  0  0  0  0  0  0
   -2.9515    1.0215   -1.0907 H   0  0  0  0  0  0  0  0  0  0  0  0
   -3.3037   -0.8210    0.7370 H   0  0  0  0  0  0  0  0  0  0  0  0
   -2.0426    1.3674    1.3707 H   0  0  0  0  0  0  0  0  0  0  0  0
   -0.8333   -1.8664    1.3669 H   0  0  0  0  0  0  0  0  0  0  0  0
   -1.7863   -2.3909   -0.1268 H   0  0  0  0  0  0  0  0  0  0  0  0
  1  2  1  0
  2  3  1  0
  3  4  1  0
  4  5  1  0
  5  6  2  0
  6  7  1  0
  7  8  1  0
  7  9  1  0
  9  4  1  0
  1 10  1  0
  1 11  1  0
  1 12  1  0
  2 13  1  0
  2 14  1  0
  3 15  1  0
  3 16  1  0
  4 17  1  0
  5 18  1  0
  6 19  1  0
  7 20  1  0
  8 21  1  0
  9 22  1  0
  9 23  1  0
M  END
