
     RDKit          3D

 20 20  0  0  0  0  0  0  0  0999 V2000
    2.8073    0.6778   -0.1471 C   0  0  0  0  0  0  0  0  0  0  0  0
    2.5571   -0.7634   -0.4674 C   0  0  0  0  0  0  0  0  0  0  0  0
    1.4658   -1.2808    0.4545 C   0  0  0  0  0  0  0  0  0  0  0  0
    0.2527   -0.4917    0.2317 C   0  0  0  0  0  0  0  0  0  0  0  0
   -0.7637    0.1528    0.0625 C   0  0  0  0  0  0  0  0  0  0  0  0
   -1.9806    0.9429   -0.1212 C   0  0  0  0  0  0  0  0  0  0  0  0
   -2.9873    0.3915   -1.0279 C   0  0  0  0  0  0  0  0  0  0  0  0
   -3.2621    0.2730    0.4183 C   0  0  0  0  0  0  0  0  0  0  0  0
    3.5115    1.1656   -0.8334 H   0  0  0  0  0  0  0  0  0  0  0  0
    3.2611    0.7365    0.8788 H   0  0  0  0  0  0  0  0  0  0  0  0
    1.8124    1.2003   -0.1559 H   0  0  0  0  0  0  0  0  0  0  0  0
    3.4690   -1.3489   -0.2455 H   0  0  0  0  0  0  0  0  0  0  0  0
    2.2186   -0.8676   -1.5123 H   0  0  0  0  0  0  0  0  0  0  0  0
    1.2263   -2.3384    0.2484 H   0  0  0  0  0  0  0  0  0  0  0  0
    1.7946   -1.2337    1.5131 H   0  0  0  0  0  0  0  0  0  0  0  0
   -1.9126    2.0528   -0.0148 H   0  0  0  0  0  0  0  0  0  0  0  0
   -2.7932   -0.5752   -1.5738 H   0  0  0  0  0  0  0  0  0  0  0  0
   -3.6177    1.0717   -1.6458 H   0  0  0  0  0  0  0  0  0  0  0  0
   -3.1359   -0.7241    0.8952 H   0  0  0  0  0  0  0  0  0  0  0  0
   -3.9235    0.9588    0.9588 H   0  0  0  0  0  0  0  0  0  0  0  0
  1  2  1  0
  2  3  1  0
  3  4  1  0
  4  5  3  0
  5  6  1  0
  6  7  1  0
  7  8  1  0
  8  6  1  0
  1  9  1  0
  1 10  1  0
  1 11  1  0
  2 12  1  0
  2 13  1  0
  3 14  1  0
  3 15  1  0
  6 16  1  0
  7 17  1  0
  7 18  1  0
  8 19  1  0
  8 20  1  0
M  END
