
     RDKit          3D

 25 25  0  0  0  0  0  0  0  0999 V2000
    3.0317   -0.0952   -0.6811 C   0  0  0  0  0  0  0  0  0  0  0  0
    2.0857   -1.1133   -0.1153 C   0  0  0  0  0  0  0  0  0  0  0  0
    1.1144   -0.5307    0.8720 C   0  0  0  0  0  0  0  0  0  0  0  0
    0.2424    0.5384    0.3043 C   0  0  0  0  0  0  0  0  0  0  0  0
   -0.6343    0.1282   -0.8533 C   0  0  0  0  0  0  0  0  0  0  0  0
   -1.8790    0.6139   -0.1038 C   0  0  0  0  0  0  0  0  0  0  0  0
   -2.9331   -0.4599   -0.1004 C   0  0  0  0  0  0  0  0  0  0  0  0
   -2.3613    1.8280   -0.5228 O   0  0  0  0  0  0  0  0  0  0  0  0
   -1.0202    0.6706    1.1395 C   0  0  0  0  0  0  0  0  0  0  0  0
    2.6503    0.3337   -1.6160 H   0  0  0  0  0  0  0  0  0  0  0  0
    3.3207    0.6693    0.0746 H   0  0  0  0  0  0  0  0  0  0  0  0
    3.9834   -0.6260   -0.9434 H   0  0  0  0  0  0  0  0  0  0  0  0
    2.6984   -1.8631    0.4355 H   0  0  0  0  0  0  0  0  0  0  0  0
    1.5942   -1.6364   -0.9322 H   0  0  0  0  0  0  0  0  0  0  0  0
    0.4778   -1.3342    1.2607 H   0  0  0  0  0  0  0  0  0  0  0  0
    1.6617   -0.1030    1.7327 H   0  0  0  0  0  0  0  0  0  0  0  0
    0.7185    1.5284    0.1772 H   0  0  0  0  0  0  0  0  0  0  0  0
   -0.6029   -0.9747   -0.9953 H   0  0  0  0  0  0  0  0  0  0  0  0
   -0.4834    0.7212   -1.7841 H   0  0  0  0  0  0  0  0  0  0  0  0
   -3.7694   -0.1639    0.5904 H   0  0  0  0  0  0  0  0  0  0  0  0
   -2.5466   -1.4229    0.2844 H   0  0  0  0  0  0  0  0  0  0  0  0
   -3.3190   -0.6119   -1.1148 H   0  0  0  0  0  0  0  0  0  0  0  0
   -1.6775    2.4751   -0.8087 H   0  0  0  0  0  0  0  0  0  0  0  0
   -1.1381    1.6195    1.6632 H   0  0  0  0  0  0  0  0  0  0  0  0
   -1.2143   -0.1911    1.8202 H   0  0  0  0  0  0  0  0  0  0  0  0
  1  2  1  0
  2  3  1  0
  3  4  1  0
  4  5  1  0
  5  6  1  0
  6  7  1  0
  6  8  1  0
  6  9  1  0
  9  4  1  0
  1 10  1  0
  1 11  1  0
  1 12  1  0
  2 13  1  0
  2 14  1  0
  3 15  1  0
  3 16  1  0
  4 17  1  0
  5 18  1  0
  5 19  1  0
  7 20  1  0
  7 21  1  0
  7 22  1  0
  8 23  1  0
  9 24  1  0
  9 25  1  0
M  END
