
     RDKit          3D

 22 22  0  0  0  0  0  0  0  0999 V2000
   -3.1855   -0.7041    0.2915 C   0  0  0  0  0  0  0  0  0  0  0  0
   -2.1157   -0.0603   -0.5265 C   0  0  0  0  0  0  0  0  0  0  0  0
   -0.8180    0.1019    0.2328 C   0  0  0  0  0  0  0  0  0  0  0  0
    0.2016    0.7530   -0.6531 C   0  0  0  0  0  0  0  0  0  0  0  0
    1.4887    0.8967    0.1490 C   0  0  0  0  0  0  0  0  0  0  0  0
    1.9958   -0.4566    0.6014 C   0  0  0  0  0  0  0  0  0  0  0  0
    3.2749   -0.1220   -0.1346 C   0  0  0  0  0  0  0  0  0  0  0  0
    2.6319    1.0099   -0.6423 O   0  0  0  0  0  0  0  0  0  0  0  0
   -2.8136   -1.2006    1.2083 H   0  0  0  0  0  0  0  0  0  0  0  0
   -3.9364    0.0624    0.6237 H   0  0  0  0  0  0  0  0  0  0  0  0
   -3.7471   -1.4466   -0.3450 H   0  0  0  0  0  0  0  0  0  0  0  0
   -1.9512   -0.6064   -1.4902 H   0  0  0  0  0  0  0  0  0  0  0  0
   -2.4430    0.9687   -0.8223 H   0  0  0  0  0  0  0  0  0  0  0  0
   -0.4194   -0.8493    0.5981 H   0  0  0  0  0  0  0  0  0  0  0  0
   -1.0296    0.8011    1.0732 H   0  0  0  0  0  0  0  0  0  0  0  0
   -0.1530    1.7147   -1.0369 H   0  0  0  0  0  0  0  0  0  0  0  0
    0.3789    0.0985   -1.5305 H   0  0  0  0  0  0  0  0  0  0  0  0
    1.4062    1.6375    0.9613 H   0  0  0  0  0  0  0  0  0  0  0  0
    2.1075   -0.5244    1.7014 H   0  0  0  0  0  0  0  0  0  0  0  0
    1.5056   -1.3278    0.1222 H   0  0  0  0  0  0  0  0  0  0  0  0
    3.5370   -0.8154   -0.9525 H   0  0  0  0  0  0  0  0  0  0  0  0
    4.0842    0.0691    0.5710 H   0  0  0  0  0  0  0  0  0  0  0  0
  1  2  1  0
  2  3  1  0
  3  4  1  0
  4  5  1  0
  5  6  1  0
  6  7  1  0
  7  8  1  0
  8  5  1  0
  1  9  1  0
  1 10  1  0
  1 11  1  0
  2 12  1  0
  2 13  1  0
  3 14  1  0
  3 15  1  0
  4 16  1  0
  4 17  1  0
  5 18  1  0
  6 19  1  0
  6 20  1  0
  7 21  1  0
  7 22  1  0
M  END
