
     RDKit          3D

 25 26  0  0  0  0  0  0  0  0999 V2000
    3.4056    0.4641    0.4290 C   0  0  0  0  0  0  0  0  0  0  0  0
    2.1509   -0.3845    0.1849 C   0  0  0  0  0  0  0  0  0  0  0  0
    0.9290    0.4294    0.6122 C   0  0  0  0  0  0  0  0  0  0  0  0
   -0.2719   -0.3750    0.3822 C   0  0  0  0  0  0  0  0  0  0  0  0
   -0.5814   -0.8501   -1.0271 C   0  0  0  0  0  0  0  0  0  0  0  0
   -1.0970    0.5345   -1.2090 C   0  0  0  0  0  0  0  0  0  0  0  0
   -2.1086    1.2974   -0.5309 C   0  0  0  0  0  0  0  0  0  0  0  0
   -1.6160    0.2271    0.2521 C   0  0  0  0  0  0  0  0  0  0  0  0
   -2.6908   -0.8835    0.3132 C   0  0  0  0  0  0  0  0  0  0  0  0
    3.4208    1.2259   -0.3534 H   0  0  0  0  0  0  0  0  0  0  0  0
    4.3132   -0.1485    0.4074 H   0  0  0  0  0  0  0  0  0  0  0  0
    3.3434    0.8926    1.4636 H   0  0  0  0  0  0  0  0  0  0  0  0
    2.1106   -0.6996   -0.8556 H   0  0  0  0  0  0  0  0  0  0  0  0
    2.2263   -1.2400    0.8810 H   0  0  0  0  0  0  0  0  0  0  0  0
    0.9532    1.4662    0.2919 H   0  0  0  0  0  0  0  0  0  0  0  0
    1.0724    0.4986    1.7401 H   0  0  0  0  0  0  0  0  0  0  0  0
   -0.2585   -1.2857    1.0383 H   0  0  0  0  0  0  0  0  0  0  0  0
   -1.3063   -1.6785   -1.0671 H   0  0  0  0  0  0  0  0  0  0  0  0
    0.2797   -1.1090   -1.6518 H   0  0  0  0  0  0  0  0  0  0  0  0
   -0.1945    1.1925   -1.3047 H   0  0  0  0  0  0  0  0  0  0  0  0
   -3.0964    1.3331   -1.0857 H   0  0  0  0  0  0  0  0  0  0  0  0
   -1.9656    2.3273   -0.0743 H   0  0  0  0  0  0  0  0  0  0  0  0
   -3.1866   -1.0262   -0.6491 H   0  0  0  0  0  0  0  0  0  0  0  0
   -2.3502   -1.7770    0.8259 H   0  0  0  0  0  0  0  0  0  0  0  0
   -3.4813   -0.4310    0.9868 H   0  0  0  0  0  0  0  0  0  0  0  0
  1  2  1  0
  2  3  1  0
  3  4  1  0
  4  5  1  0
  5  6  1  0
  6  7  1  0
  7  8  1  0
  8  9  1  0
  8  4  1  0
  8  6  1  0
  1 10  1  0
  1 11  1  0
  1 12  1  0
  2 13  1  0
  2 14  1  0
  3 15  1  0
  3 16  1  0
  4 17  1  0
  5 18  1  0
  5 19  1  0
  6 20  1  0
  7 21  1  0
  7 22  1  0
  9 23  1  0
  9 24  1  0
  9 25  1  0
M  END
