
     RDKit          3D

 27 27  0  0  0  0  0  0  0  0999 V2000
    3.0471    1.1152   -0.9730 C   0  0  0  0  0  0  0  0  0  0  0  0
    1.5486    0.9558   -0.9025 C   0  0  0  0  0  0  0  0  0  0  0  0
    1.1361   -0.0831    0.1139 C   0  0  0  0  0  0  0  0  0  0  0  0
   -0.3543   -0.2407    0.1805 C   0  0  0  0  0  0  0  0  0  0  0  0
   -1.0557    1.0345    0.5639 C   0  0  0  0  0  0  0  0  0  0  0  0
   -2.5430    0.9040    0.6386 C   0  0  0  0  0  0  0  0  0  0  0  0
   -0.8968   -0.9249   -1.0509 C   0  0  0  0  0  0  0  0  0  0  0  0
   -0.6228   -2.2270   -0.3369 C   0  0  0  0  0  0  0  0  0  0  0  0
   -0.7449   -1.4562    0.9555 C   0  0  0  0  0  0  0  0  0  0  0  0
    3.5996    0.2183   -0.6697 H   0  0  0  0  0  0  0  0  0  0  0  0
    3.3816    1.9329   -0.2768 H   0  0  0  0  0  0  0  0  0  0  0  0
    3.3992    1.4074   -1.9806 H   0  0  0  0  0  0  0  0  0  0  0  0
    1.1712    0.6270   -1.8825 H   0  0  0  0  0  0  0  0  0  0  0  0
    1.1324    1.9539   -0.6842 H   0  0  0  0  0  0  0  0  0  0  0  0
    1.5657    0.2608    1.0999 H   0  0  0  0  0  0  0  0  0  0  0  0
    1.6649   -1.0221   -0.1129 H   0  0  0  0  0  0  0  0  0  0  0  0
   -0.8455    1.7712   -0.2541 H   0  0  0  0  0  0  0  0  0  0  0  0
   -0.6770    1.4066    1.5163 H   0  0  0  0  0  0  0  0  0  0  0  0
   -3.0375    0.6739   -0.3100 H   0  0  0  0  0  0  0  0  0  0  0  0
   -2.8753    0.2462    1.4852 H   0  0  0  0  0  0  0  0  0  0  0  0
   -2.9278    1.9253    0.9338 H   0  0  0  0  0  0  0  0  0  0  0  0
   -0.3008   -0.7794   -1.9788 H   0  0  0  0  0  0  0  0  0  0  0  0
   -1.9968   -0.8305   -1.2051 H   0  0  0  0  0  0  0  0  0  0  0  0
   -1.3869   -3.0137   -0.4870 H   0  0  0  0  0  0  0  0  0  0  0  0
    0.4289   -2.5714   -0.4637 H   0  0  0  0  0  0  0  0  0  0  0  0
   -1.8010   -1.4783    1.3402 H   0  0  0  0  0  0  0  0  0  0  0  0
   -0.0093   -1.8056    1.7085 H   0  0  0  0  0  0  0  0  0  0  0  0
  1  2  1  0
  2  3  1  0
  3  4  1  0
  4  5  1  0
  5  6  1  0
  4  7  1  0
  7  8  1  0
  8  9  1  0
  9  4  1  0
  1 10  1  0
  1 11  1  0
  1 12  1  0
  2 13  1  0
  2 14  1  0
  3 15  1  0
  3 16  1  0
  5 17  1  0
  5 18  1  0
  6 19  1  0
  6 20  1  0
  6 21  1  0
  7 22  1  0
  7 23  1  0
  8 24  1  0
  8 25  1  0
  9 26  1  0
  9 27  1  0
M  END
