
     RDKit          3D

 23 22  0  0  0  0  0  0  0  0999 V2000
    2.9697   -0.4244    0.3333 C   0  0  0  0  0  0  0  0  0  0  0  0
    1.5800   -0.6504   -0.2233 C   0  0  0  0  0  0  0  0  0  0  0  0
    0.6343    0.4630    0.1686 C   0  0  0  0  0  0  0  0  0  0  0  0
   -0.7420    0.2599   -0.3728 C   0  0  0  0  0  0  0  0  0  0  0  0
   -0.6384    0.2151   -1.7809 O   0  0  0  0  0  0  0  0  0  0  0  0
   -1.3654   -1.0361    0.0526 C   0  0  0  0  0  0  0  0  0  0  0  0
   -2.6318   -1.1975   -0.5157 O   0  0  0  0  0  0  0  0  0  0  0  0
   -1.6950    1.3655    0.0480 C   0  0  0  0  0  0  0  0  0  0  0  0
   -1.2864    2.6105   -0.3747 O   0  0  0  0  0  0  0  0  0  0  0  0
    3.5919   -1.2766   -0.0255 H   0  0  0  0  0  0  0  0  0  0  0  0
    2.9911   -0.3266    1.4261 H   0  0  0  0  0  0  0  0  0  0  0  0
    3.3896    0.4854   -0.1395 H   0  0  0  0  0  0  0  0  0  0  0  0
    1.6895   -0.7433   -1.3206 H   0  0  0  0  0  0  0  0  0  0  0  0
    1.2482   -1.6271    0.1701 H   0  0  0  0  0  0  0  0  0  0  0  0
    0.5492    0.3986    1.2941 H   0  0  0  0  0  0  0  0  0  0  0  0
    1.0505    1.4592   -0.0685 H   0  0  0  0  0  0  0  0  0  0  0  0
   -0.4226   -0.7245   -2.0050 H   0  0  0  0  0  0  0  0  0  0  0  0
   -1.5207   -1.0916    1.1562 H   0  0  0  0  0  0  0  0  0  0  0  0
   -0.7302   -1.9289   -0.1898 H   0  0  0  0  0  0  0  0  0  0  0  0
   -2.5431   -1.3981   -1.4800 H   0  0  0  0  0  0  0  0  0  0  0  0
   -1.7540    1.2932    1.1680 H   0  0  0  0  0  0  0  0  0  0  0  0
   -2.7043    1.0858   -0.3235 H   0  0  0  0  0  0  0  0  0  0  0  0
   -1.6600    2.7889   -1.2773 H   0  0  0  0  0  0  0  0  0  0  0  0
  1  2  1  0
  2  3  1  0
  3  4  1  0
  4  5  1  0
  4  6  1  0
  6  7  1  0
  4  8  1  0
  8  9  1  0
  1 10  1  0
  1 11  1  0
  1 12  1  0
  2 13  1  0
  2 14  1  0
  3 15  1  0
  3 16  1  0
  5 17  1  0
  6 18  1  0
  6 19  1  0
  7 20  1  0
  8 21  1  0
  8 22  1  0
  9 23  1  0
M  END
