
     RDKit          3D

 25 25  0  0  0  0  0  0  0  0999 V2000
    2.2117   -0.8138    0.6504 C   0  0  0  0  0  0  0  0  0  0  0  0
    1.5508   -0.8573   -0.7047 C   0  0  0  0  0  0  0  0  0  0  0  0
    0.6872    0.3021   -0.9932 C   0  0  0  0  0  0  0  0  0  0  0  0
   -0.4677    0.5725   -0.1197 C   0  0  0  0  0  0  0  0  0  0  0  0
   -1.5506   -0.4195    0.0425 C   0  0  0  0  0  0  0  0  0  0  0  0
   -1.2274   -1.7534    0.5793 C   0  0  0  0  0  0  0  0  0  0  0  0
   -0.1634    1.3565    1.1641 C   0  0  0  0  0  0  0  0  0  0  0  0
   -1.2834    2.3094    0.7200 C   0  0  0  0  0  0  0  0  0  0  0  0
   -1.0732    1.7862   -0.5613 O   0  0  0  0  0  0  0  0  0  0  0  0
    2.4802   -1.8578    0.9846 H   0  0  0  0  0  0  0  0  0  0  0  0
    3.1319   -0.2000    0.6544 H   0  0  0  0  0  0  0  0  0  0  0  0
    1.5366   -0.4288    1.4401 H   0  0  0  0  0  0  0  0  0  0  0  0
    1.1131   -1.8465   -0.8272 H   0  0  0  0  0  0  0  0  0  0  0  0
    2.4029   -0.8159   -1.4485 H   0  0  0  0  0  0  0  0  0  0  0  0
    1.3496    1.2210   -0.9428 H   0  0  0  0  0  0  0  0  0  0  0  0
    0.3348    0.3166   -2.0636 H   0  0  0  0  0  0  0  0  0  0  0  0
   -2.3267    0.0603    0.7113 H   0  0  0  0  0  0  0  0  0  0  0  0
   -2.1202   -0.5754   -0.9227 H   0  0  0  0  0  0  0  0  0  0  0  0
   -0.4259   -1.7868    1.3459 H   0  0  0  0  0  0  0  0  0  0  0  0
   -1.0942   -2.5233   -0.2124 H   0  0  0  0  0  0  0  0  0  0  0  0
   -2.1369   -2.1326    1.1420 H   0  0  0  0  0  0  0  0  0  0  0  0
   -0.4963    0.8101    2.0564 H   0  0  0  0  0  0  0  0  0  0  0  0
    0.8263    1.8382    1.1902 H   0  0  0  0  0  0  0  0  0  0  0  0
   -0.9830    3.3782    0.7818 H   0  0  0  0  0  0  0  0  0  0  0  0
   -2.2762    2.0603    1.1045 H   0  0  0  0  0  0  0  0  0  0  0  0
  1  2  1  0
  2  3  1  0
  3  4  1  0
  4  5  1  0
  5  6  1  0
  4  7  1  0
  7  8  1  0
  8  9  1  0
  9  4  1  0
  1 10  1  0
  1 11  1  0
  1 12  1  0
  2 13  1  0
  2 14  1  0
  3 15  1  0
  3 16  1  0
  5 17  1  0
  5 18  1  0
  6 19  1  0
  6 20  1  0
  6 21  1  0
  7 22  1  0
  7 23  1  0
  8 24  1  0
  8 25  1  0
M  END
