
     RDKit          3D

 20 19  0  0  0  0  0  0  0  0999 V2000
   -2.4353    0.2792   -0.3798 C   0  0  0  0  0  0  0  0  0  0  0  0
   -1.3628   -0.6008   -1.0042 C   0  0  0  0  0  0  0  0  0  0  0  0
   -0.3522    0.2558   -1.6983 C   0  0  0  0  0  0  0  0  0  0  0  0
    0.3267    1.2198   -0.7295 C   0  0  0  0  0  0  0  0  0  0  0  0
    0.9657    0.3909    0.2748 C   0  0  0  0  0  0  0  0  0  0  0  0
    1.5287   -0.3124    1.1350 C   0  0  0  0  0  0  0  0  0  0  0  0
    2.2084   -1.1257    2.1302 C   0  0  0  0  0  0  0  0  0  0  0  0
    2.9038   -0.3424    3.0552 O   0  0  0  0  0  0  0  0  0  0  0  0
   -3.3540   -0.2907   -0.1842 H   0  0  0  0  0  0  0  0  0  0  0  0
   -1.9676    0.6738    0.5791 H   0  0  0  0  0  0  0  0  0  0  0  0
   -2.5606    1.1395   -1.0244 H   0  0  0  0  0  0  0  0  0  0  0  0
   -0.9414   -1.2176   -0.1993 H   0  0  0  0  0  0  0  0  0  0  0  0
   -1.8133   -1.2701   -1.7791 H   0  0  0  0  0  0  0  0  0  0  0  0
    0.4224   -0.3196   -2.2342 H   0  0  0  0  0  0  0  0  0  0  0  0
   -0.8902    0.8741   -2.4541 H   0  0  0  0  0  0  0  0  0  0  0  0
   -0.4620    1.8427   -0.2645 H   0  0  0  0  0  0  0  0  0  0  0  0
    1.0428    1.8253   -1.2982 H   0  0  0  0  0  0  0  0  0  0  0  0
    1.4342   -1.6710    2.6959 H   0  0  0  0  0  0  0  0  0  0  0  0
    2.8513   -1.9045    1.6770 H   0  0  0  0  0  0  0  0  0  0  0  0
    2.4555    0.5537    3.1443 H   0  0  0  0  0  0  0  0  0  0  0  0
  1  2  1  0
  2  3  1  0
  3  4  1  0
  4  5  1  0
  5  6  3  0
  6  7  1  0
  7  8  1  0
  1  9  1  0
  1 10  1  0
  1 11  1  0
  2 12  1  0
  2 13  1  0
  3 14  1  0
  3 15  1  0
  4 16  1  0
  4 17  1  0
  7 18  1  0
  7 19  1  0
  8 20  1  0
M  END
