
     RDKit          3D

 21 21  0  0  0  0  0  0  0  0999 V2000
   -2.4911   -0.2422    0.6580 C   0  0  0  0  0  0  0  0  0  0  0  0
   -1.7711    0.6522   -0.3222 C   0  0  0  0  0  0  0  0  0  0  0  0
   -0.5773   -0.0394   -0.9408 C   0  0  0  0  0  0  0  0  0  0  0  0
    0.3940   -0.4306    0.1569 C   0  0  0  0  0  0  0  0  0  0  0  0
    1.5972   -1.1259   -0.4504 C   0  0  0  0  0  0  0  0  0  0  0  0
    2.4043   -0.0594   -0.8453 O   0  0  0  0  0  0  0  0  0  0  0  0
    2.4677    0.6858    0.3538 C   0  0  0  0  0  0  0  0  0  0  0  0
    1.0384    0.7666    0.7640 C   0  0  0  0  0  0  0  0  0  0  0  0
    0.5625    1.6517    1.4516 O   0  0  0  0  0  0  0  0  0  0  0  0
   -2.4986   -1.2833    0.2837 H   0  0  0  0  0  0  0  0  0  0  0  0
   -3.5577    0.0734    0.7696 H   0  0  0  0  0  0  0  0  0  0  0  0
   -2.0452   -0.1730    1.6790 H   0  0  0  0  0  0  0  0  0  0  0  0
   -2.4651    0.9376   -1.1567 H   0  0  0  0  0  0  0  0  0  0  0  0
   -1.4913    1.5756    0.2182 H   0  0  0  0  0  0  0  0  0  0  0  0
   -0.0468    0.6696   -1.6070 H   0  0  0  0  0  0  0  0  0  0  0  0
   -0.9071   -0.9501   -1.4391 H   0  0  0  0  0  0  0  0  0  0  0  0
   -0.0931   -1.0305    0.9288 H   0  0  0  0  0  0  0  0  0  0  0  0
    2.1580   -1.6396    0.3747 H   0  0  0  0  0  0  0  0  0  0  0  0
    1.3415   -1.8082   -1.2633 H   0  0  0  0  0  0  0  0  0  0  0  0
    2.9087    1.6782    0.1370 H   0  0  0  0  0  0  0  0  0  0  0  0
    3.0719    0.0914    1.0757 H   0  0  0  0  0  0  0  0  0  0  0  0
  1  2  1  0
  2  3  1  0
  3  4  1  0
  4  5  1  0
  5  6  1  0
  6  7  1  0
  7  8  1  0
  8  9  2  0
  8  4  1  0
  1 10  1  0
  1 11  1  0
  1 12  1  0
  2 13  1  0
  2 14  1  0
  3 15  1  0
  3 16  1  0
  4 17  1  0
  5 18  1  0
  5 19  1  0
  7 20  1  0
  7 21  1  0
M  END
