
     RDKit          3D

 25 24  0  0  0  0  0  0  0  0999 V2000
   -1.3774    1.6546    0.2976 C   0  0  0  0  0  0  0  0  0  0  0  0
   -2.1267    0.3956    0.5312 C   0  0  0  0  0  0  0  0  0  0  0  0
   -1.7184   -0.7539   -0.3381 C   0  0  0  0  0  0  0  0  0  0  0  0
   -0.2965   -1.1743   -0.2092 C   0  0  0  0  0  0  0  0  0  0  0  0
   -0.1036   -2.3512   -1.1792 C   0  0  0  0  0  0  0  0  0  0  0  0
    0.6127   -0.2033   -0.6247 O   0  0  0  0  0  0  0  0  0  0  0  0
    1.5893   -0.0541    0.3736 C   0  0  0  0  0  0  0  0  0  0  0  0
    2.5965    0.9968   -0.0429 C   0  0  0  0  0  0  0  0  0  0  0  0
    1.9369    2.2253   -0.2356 O   0  0  0  0  0  0  0  0  0  0  0  0
   -0.8909    1.6969   -0.6974 H   0  0  0  0  0  0  0  0  0  0  0  0
   -0.6111    1.8681    1.0850 H   0  0  0  0  0  0  0  0  0  0  0  0
   -2.0783    2.5132    0.3393 H   0  0  0  0  0  0  0  0  0  0  0  0
   -2.1128    0.1516    1.6103 H   0  0  0  0  0  0  0  0  0  0  0  0
   -3.2118    0.5859    0.2945 H   0  0  0  0  0  0  0  0  0  0  0  0
   -2.3533   -1.6263   -0.0392 H   0  0  0  0  0  0  0  0  0  0  0  0
   -1.9374   -0.5791   -1.4039 H   0  0  0  0  0  0  0  0  0  0  0  0
   -0.0165   -1.5662    0.7898 H   0  0  0  0  0  0  0  0  0  0  0  0
    0.9157   -2.7690   -1.0892 H   0  0  0  0  0  0  0  0  0  0  0  0
   -0.8636   -3.1169   -0.9416 H   0  0  0  0  0  0  0  0  0  0  0  0
   -0.3231   -1.9501   -2.1770 H   0  0  0  0  0  0  0  0  0  0  0  0
    2.1755   -1.0040    0.4901 H   0  0  0  0  0  0  0  0  0  0  0  0
    1.1520    0.2655    1.3376 H   0  0  0  0  0  0  0  0  0  0  0  0
    3.3367    1.1337    0.7473 H   0  0  0  0  0  0  0  0  0  0  0  0
    3.0896    0.7379   -1.0038 H   0  0  0  0  0  0  0  0  0  0  0  0
    2.6166    2.9235   -0.4034 H   0  0  0  0  0  0  0  0  0  0  0  0
  1  2  1  0
  2  3  1  0
  3  4  1  0
  4  5  1  0
  4  6  1  0
  6  7  1  0
  7  8  1  0
  8  9  1  0
  1 10  1  0
  1 11  1  0
  1 12  1  0
  2 13  1  0
  2 14  1  0
  3 15  1  0
  3 16  1  0
  4 17  1  0
  5 18  1  0
  5 19  1  0
  5 20  1  0
  7 21  1  0
  7 22  1  0
  8 23  1  0
  8 24  1  0
  9 25  1  0
M  END
