
     RDKit          3D

 20 19  0  0  0  0  0  0  0  0999 V2000
    2.6780   -0.3238    0.0210 C   0  0  0  0  0  0  0  0  0  0  0  0
    1.2915   -0.3207   -0.5884 C   0  0  0  0  0  0  0  0  0  0  0  0
    0.3716    0.3775    0.4221 C   0  0  0  0  0  0  0  0  0  0  0  0
   -1.0120    0.3829   -0.1812 C   0  0  0  0  0  0  0  0  0  0  0  0
   -1.4161   -1.0616   -0.4041 C   0  0  0  0  0  0  0  0  0  0  0  0
   -2.0124    1.1210    0.6502 C   0  0  0  0  0  0  0  0  0  0  0  0
    2.5827   -0.7079    1.0479 H   0  0  0  0  0  0  0  0  0  0  0  0
    3.0543    0.7262    0.0137 H   0  0  0  0  0  0  0  0  0  0  0  0
    3.3600   -0.9413   -0.6064 H   0  0  0  0  0  0  0  0  0  0  0  0
    0.9292   -1.3144   -0.8391 H   0  0  0  0  0  0  0  0  0  0  0  0
    1.3616    0.2662   -1.5283 H   0  0  0  0  0  0  0  0  0  0  0  0
    0.3939   -0.2556    1.3334 H   0  0  0  0  0  0  0  0  0  0  0  0
    0.7464    1.3674    0.6894 H   0  0  0  0  0  0  0  0  0  0  0  0
   -0.9246    0.8327   -1.2131 H   0  0  0  0  0  0  0  0  0  0  0  0
   -1.0362   -1.4138   -1.3760 H   0  0  0  0  0  0  0  0  0  0  0  0
   -0.9651   -1.6402    0.4313 H   0  0  0  0  0  0  0  0  0  0  0  0
   -2.5259   -1.1360   -0.4154 H   0  0  0  0  0  0  0  0  0  0  0  0
   -2.5228    1.8619   -0.0007 H   0  0  0  0  0  0  0  0  0  0  0  0
   -1.5342    1.7079    1.4845 H   0  0  0  0  0  0  0  0  0  0  0  0
   -2.8198    0.4719    1.0594 H   0  0  0  0  0  0  0  0  0  0  0  0
  1  2  1  0
  2  3  1  0
  3  4  1  0
  4  5  1  0
  4  6  1  0
  1  7  1  0
  1  8  1  0
  1  9  1  0
  2 10  1  0
  2 11  1  0
  3 12  1  0
  3 13  1  0
  4 14  1  0
  5 15  1  0
  5 16  1  0
  5 17  1  0
  6 18  1  0
  6 19  1  0
  6 20  1  0
M  END
