
     RDKit          3D

 27 26  0  0  0  0  0  0  0  0999 V2000
    3.0957   -1.7673    0.3048 C   0  0  0  0  0  0  0  0  0  0  0  0
    1.6633   -1.3595    0.6644 C   0  0  0  0  0  0  0  0  0  0  0  0
    1.4447   -0.0025    0.0855 C   0  0  0  0  0  0  0  0  0  0  0  0
    0.0719    0.5687    0.3506 C   0  0  0  0  0  0  0  0  0  0  0  0
    0.0119    1.9164   -0.2861 C   0  0  0  0  0  0  0  0  0  0  0  0
   -1.3130    2.6154   -0.1026 C   0  0  0  0  0  0  0  0  0  0  0  0
   -0.9449   -0.4013   -0.1363 C   0  0  0  0  0  0  0  0  0  0  0  0
   -2.2582    0.0252    0.0541 O   0  0  0  0  0  0  0  0  0  0  0  0
   -3.0675   -1.0132   -0.4633 C   0  0  0  0  0  0  0  0  0  0  0  0
    3.6894   -0.8974   -0.0426 H   0  0  0  0  0  0  0  0  0  0  0  0
    3.5890   -2.2004    1.1952 H   0  0  0  0  0  0  0  0  0  0  0  0
    3.1052   -2.4949   -0.5386 H   0  0  0  0  0  0  0  0  0  0  0  0
    1.4898   -1.3745    1.7549 H   0  0  0  0  0  0  0  0  0  0  0  0
    0.9965   -2.0837    0.1465 H   0  0  0  0  0  0  0  0  0  0  0  0
    2.1761    0.7528    0.4406 H   0  0  0  0  0  0  0  0  0  0  0  0
    1.5617   -0.0355   -1.0201 H   0  0  0  0  0  0  0  0  0  0  0  0
   -0.0732    0.7111    1.4470 H   0  0  0  0  0  0  0  0  0  0  0  0
    0.7777    2.5563    0.2096 H   0  0  0  0  0  0  0  0  0  0  0  0
    0.2723    1.9051   -1.3590 H   0  0  0  0  0  0  0  0  0  0  0  0
   -1.1456    3.7095   -0.2855 H   0  0  0  0  0  0  0  0  0  0  0  0
   -1.6476    2.5276    0.9474 H   0  0  0  0  0  0  0  0  0  0  0  0
   -2.0460    2.2885   -0.8430 H   0  0  0  0  0  0  0  0  0  0  0  0
   -0.8451   -0.6558   -1.2110 H   0  0  0  0  0  0  0  0  0  0  0  0
   -0.8669   -1.3591    0.4231 H   0  0  0  0  0  0  0  0  0  0  0  0
   -2.8219   -1.9388    0.1267 H   0  0  0  0  0  0  0  0  0  0  0  0
   -4.1300   -0.7367   -0.3501 H   0  0  0  0  0  0  0  0  0  0  0  0
   -2.7850   -1.2561   -1.5121 H   0  0  0  0  0  0  0  0  0  0  0  0
  1  2  1  0
  2  3  1  0
  3  4  1  0
  4  5  1  0
  5  6  1  0
  4  7  1  0
  7  8  1  0
  8  9  1  0
  1 10  1  0
  1 11  1  0
  1 12  1  0
  2 13  1  0
  2 14  1  0
  3 15  1  0
  3 16  1  0
  4 17  1  0
  5 18  1  0
  5 19  1  0
  6 20  1  0
  6 21  1  0
  6 22  1  0
  7 23  1  0
  7 24  1  0
  9 25  1  0
  9 26  1  0
  9 27  1  0
M  END
