
     RDKit          3D

 25 25  0  0  0  0  0  0  0  0999 V2000
    3.2998   -0.0647    0.8008 C   0  0  0  0  0  0  0  0  0  0  0  0
    2.1859   -0.4054   -0.1775 C   0  0  0  0  0  0  0  0  0  0  0  0
    0.8950    0.2448    0.2977 C   0  0  0  0  0  0  0  0  0  0  0  0
   -0.2247   -0.0742   -0.6489 C   0  0  0  0  0  0  0  0  0  0  0  0
    0.0131    0.3817   -1.9635 O   0  0  0  0  0  0  0  0  0  0  0  0
   -1.0867   -1.2686   -0.4657 C   0  0  0  0  0  0  0  0  0  0  0  0
   -1.6345    0.0411   -0.1269 C   0  0  0  0  0  0  0  0  0  0  0  0
   -2.5835    0.7882   -1.0247 C   0  0  0  0  0  0  0  0  0  0  0  0
   -1.8316    0.3471    1.3498 C   0  0  0  0  0  0  0  0  0  0  0  0
    2.8966    0.5561    1.6210 H   0  0  0  0  0  0  0  0  0  0  0  0
    4.1087    0.5257    0.3143 H   0  0  0  0  0  0  0  0  0  0  0  0
    3.7361   -1.0062    1.1493 H   0  0  0  0  0  0  0  0  0  0  0  0
    2.0512   -1.4998   -0.2963 H   0  0  0  0  0  0  0  0  0  0  0  0
    2.4732   -0.0056   -1.1721 H   0  0  0  0  0  0  0  0  0  0  0  0
    1.0781    1.3561    0.1992 H   0  0  0  0  0  0  0  0  0  0  0  0
    0.6853    0.0573    1.3462 H   0  0  0  0  0  0  0  0  0  0  0  0
    0.2122   -0.4298   -2.5008 H   0  0  0  0  0  0  0  0  0  0  0  0
   -0.7973   -1.9498    0.3616 H   0  0  0  0  0  0  0  0  0  0  0  0
   -1.3319   -1.8085   -1.4039 H   0  0  0  0  0  0  0  0  0  0  0  0
   -2.0075    1.4016   -1.7777 H   0  0  0  0  0  0  0  0  0  0  0  0
   -3.2116    1.5136   -0.4795 H   0  0  0  0  0  0  0  0  0  0  0  0
   -3.2997    0.0962   -1.5561 H   0  0  0  0  0  0  0  0  0  0  0  0
   -1.5074    1.3945    1.5855 H   0  0  0  0  0  0  0  0  0  0  0  0
   -2.8951    0.1684    1.6098 H   0  0  0  0  0  0  0  0  0  0  0  0
   -1.2239   -0.3598    1.9312 H   0  0  0  0  0  0  0  0  0  0  0  0
  1  2  1  0
  2  3  1  0
  3  4  1  0
  4  5  1  0
  4  6  1  0
  6  7  1  0
  7  8  1  0
  7  9  1  0
  7  4  1  0
  1 10  1  0
  1 11  1  0
  1 12  1  0
  2 13  1  0
  2 14  1  0
  3 15  1  0
  3 16  1  0
  5 17  1  0
  6 18  1  0
  6 19  1  0
  8 20  1  0
  8 21  1  0
  8 22  1  0
  9 23  1  0
  9 24  1  0
  9 25  1  0
M  END
