
     RDKit          3D

 21 20  0  0  0  0  0  0  0  0999 V2000
   -3.2093    0.4719    0.3373 C   0  0  0  0  0  0  0  0  0  0  0  0
   -1.8349    0.0972   -0.1122 C   0  0  0  0  0  0  0  0  0  0  0  0
   -1.2129   -0.9816    0.7558 C   0  0  0  0  0  0  0  0  0  0  0  0
    0.1643   -1.2646    0.1974 C   0  0  0  0  0  0  0  0  0  0  0  0
    0.9817   -0.1041    0.2179 O   0  0  0  0  0  0  0  0  0  0  0  0
    2.2637   -0.1675   -0.2490 C   0  0  0  0  0  0  0  0  0  0  0  0
    2.6801   -1.2802   -0.6900 O   0  0  0  0  0  0  0  0  0  0  0  0
    3.2210    0.9581   -0.2868 C   0  0  0  0  0  0  0  0  0  0  0  0
    2.7400    2.1341    0.1936 O   0  0  0  0  0  0  0  0  0  0  0  0
   -3.2735    0.5506    1.4608 H   0  0  0  0  0  0  0  0  0  0  0  0
   -3.4865    1.4765   -0.0345 H   0  0  0  0  0  0  0  0  0  0  0  0
   -3.9818   -0.2398   -0.0385 H   0  0  0  0  0  0  0  0  0  0  0  0
   -1.1898    0.9921   -0.1677 H   0  0  0  0  0  0  0  0  0  0  0  0
   -1.9139   -0.3456   -1.1360 H   0  0  0  0  0  0  0  0  0  0  0  0
   -1.1255   -0.6692    1.8184 H   0  0  0  0  0  0  0  0  0  0  0  0
   -1.7852   -1.9282    0.6614 H   0  0  0  0  0  0  0  0  0  0  0  0
    0.6746   -2.0677    0.7904 H   0  0  0  0  0  0  0  0  0  0  0  0
    0.0368   -1.5686   -0.8615 H   0  0  0  0  0  0  0  0  0  0  0  0
    4.0953    0.6482    0.3488 H   0  0  0  0  0  0  0  0  0  0  0  0
    3.5629    1.0921   -1.3329 H   0  0  0  0  0  0  0  0  0  0  0  0
    2.5929    2.1963    1.1459 H   0  0  0  0  0  0  0  0  0  0  0  0
  1  2  1  0
  2  3  1  0
  3  4  1  0
  4  5  1  0
  5  6  1  0
  6  7  2  0
  6  8  1  0
  8  9  1  0
  1 10  1  0
  1 11  1  0
  1 12  1  0
  2 13  1  0
  2 14  1  0
  3 15  1  0
  3 16  1  0
  4 17  1  0
  4 18  1  0
  8 19  1  0
  8 20  1  0
  9 21  1  0
M  END
