
     RDKit          3D

 27 26  0  0  0  0  0  0  0  0999 V2000
   -3.9666   -0.1959    0.1970 C   0  0  0  0  0  0  0  0  0  0  0  0
   -2.5291   -0.3065   -0.3188 C   0  0  0  0  0  0  0  0  0  0  0  0
   -1.6482   -0.6438    0.8571 C   0  0  0  0  0  0  0  0  0  0  0  0
   -0.1976   -0.7933    0.4826 C   0  0  0  0  0  0  0  0  0  0  0  0
    0.2989    0.4838   -0.0973 C   0  0  0  0  0  0  0  0  0  0  0  0
    1.7580    0.4276   -0.4938 C   0  0  0  0  0  0  0  0  0  0  0  0
    2.1045    1.8045   -1.0652 C   0  0  0  0  0  0  0  0  0  0  0  0
    2.5458    0.2364    0.6122 O   0  0  0  0  0  0  0  0  0  0  0  0
    3.4201   -0.8377    0.5007 C   0  0  0  0  0  0  0  0  0  0  0  0
   -4.6474   -0.1345   -0.6546 H   0  0  0  0  0  0  0  0  0  0  0  0
   -4.0753    0.6755    0.8615 H   0  0  0  0  0  0  0  0  0  0  0  0
   -4.2078   -1.1293    0.7720 H   0  0  0  0  0  0  0  0  0  0  0  0
   -2.5195   -1.0775   -1.1038 H   0  0  0  0  0  0  0  0  0  0  0  0
   -2.2576    0.6910   -0.7371 H   0  0  0  0  0  0  0  0  0  0  0  0
   -2.0260   -1.5381    1.3930 H   0  0  0  0  0  0  0  0  0  0  0  0
   -1.7842    0.2066    1.5891 H   0  0  0  0  0  0  0  0  0  0  0  0
    0.3401   -1.0451    1.4373 H   0  0  0  0  0  0  0  0  0  0  0  0
   -0.1404   -1.6528   -0.2266 H   0  0  0  0  0  0  0  0  0  0  0  0
    0.1842    1.2783    0.6583 H   0  0  0  0  0  0  0  0  0  0  0  0
   -0.2753    0.7015   -1.0256 H   0  0  0  0  0  0  0  0  0  0  0  0
    1.9847   -0.3197   -1.2513 H   0  0  0  0  0  0  0  0  0  0  0  0
    1.4043    2.5808   -0.6926 H   0  0  0  0  0  0  0  0  0  0  0  0
    3.1216    2.1156   -0.7621 H   0  0  0  0  0  0  0  0  0  0  0  0
    1.9877    1.7923   -2.1750 H   0  0  0  0  0  0  0  0  0  0  0  0
    3.9958   -0.8820    1.4573 H   0  0  0  0  0  0  0  0  0  0  0  0
    4.1936   -0.6528   -0.2904 H   0  0  0  0  0  0  0  0  0  0  0  0
    2.9359   -1.7850    0.2503 H   0  0  0  0  0  0  0  0  0  0  0  0
  1  2  1  0
  2  3  1  0
  3  4  1  0
  4  5  1  0
  5  6  1  0
  6  7  1  0
  6  8  1  0
  8  9  1  0
  1 10  1  0
  1 11  1  0
  1 12  1  0
  2 13  1  0
  2 14  1  0
  3 15  1  0
  3 16  1  0
  4 17  1  0
  4 18  1  0
  5 19  1  0
  5 20  1  0
  6 21  1  0
  7 22  1  0
  7 23  1  0
  7 24  1  0
  9 25  1  0
  9 26  1  0
  9 27  1  0
M  END
