
     RDKit          3D

 23 22  0  0  0  0  0  0  0  0999 V2000
   -2.9355    0.2138    0.2132 C   0  0  0  0  0  0  0  0  0  0  0  0
   -2.0509   -0.9273   -0.1937 C   0  0  0  0  0  0  0  0  0  0  0  0
   -0.7047   -0.4828   -0.7026 C   0  0  0  0  0  0  0  0  0  0  0  0
    0.0093    0.2838    0.3767 C   0  0  0  0  0  0  0  0  0  0  0  0
    0.1722   -0.6385    1.5617 C   0  0  0  0  0  0  0  0  0  0  0  0
    1.2887    0.8530   -0.0816 C   0  0  0  0  0  0  0  0  0  0  0  0
    1.4941    2.0918   -0.0571 O   0  0  0  0  0  0  0  0  0  0  0  0
    2.3360    0.0675   -0.5636 O   0  0  0  0  0  0  0  0  0  0  0  0
    3.5652    0.6181   -1.0036 C   0  0  0  0  0  0  0  0  0  0  0  0
   -3.0338    0.2667    1.3139 H   0  0  0  0  0  0  0  0  0  0  0  0
   -2.5213    1.2066   -0.1128 H   0  0  0  0  0  0  0  0  0  0  0  0
   -3.9756    0.0964   -0.1924 H   0  0  0  0  0  0  0  0  0  0  0  0
   -2.6034   -1.5461   -0.9107 H   0  0  0  0  0  0  0  0  0  0  0  0
   -1.8807   -1.5739    0.7097 H   0  0  0  0  0  0  0  0  0  0  0  0
   -0.1136   -1.3997   -0.9048 H   0  0  0  0  0  0  0  0  0  0  0  0
   -0.8303    0.1323   -1.6120 H   0  0  0  0  0  0  0  0  0  0  0  0
   -0.6534    1.1092    0.7019 H   0  0  0  0  0  0  0  0  0  0  0  0
   -0.7691   -0.6276    2.1346 H   0  0  0  0  0  0  0  0  0  0  0  0
    1.0378   -0.2404    2.1605 H   0  0  0  0  0  0  0  0  0  0  0  0
    0.3945   -1.6761    1.1948 H   0  0  0  0  0  0  0  0  0  0  0  0
    3.8213    0.2668   -2.0316 H   0  0  0  0  0  0  0  0  0  0  0  0
    3.6034    1.7107   -0.9066 H   0  0  0  0  0  0  0  0  0  0  0  0
    4.3498    0.1956   -0.3359 H   0  0  0  0  0  0  0  0  0  0  0  0
  1  2  1  0
  2  3  1  0
  3  4  1  0
  4  5  1  0
  4  6  1  0
  6  7  2  0
  6  8  1  0
  8  9  1  0
  1 10  1  0
  1 11  1  0
  1 12  1  0
  2 13  1  0
  2 14  1  0
  3 15  1  0
  3 16  1  0
  4 17  1  0
  5 18  1  0
  5 19  1  0
  5 20  1  0
  9 21  1  0
  9 22  1  0
  9 23  1  0
M  END
