
     RDKit          3D

 21 22  0  0  0  0  0  0  0  0999 V2000
    2.9391    0.0699    0.3066 C   0  0  0  0  0  0  0  0  0  0  0  0
    1.5455   -0.4305    0.7088 C   0  0  0  0  0  0  0  0  0  0  0  0
    0.6590   -0.1859   -0.4676 C   0  0  0  0  0  0  0  0  0  0  0  0
   -0.7626   -0.6155   -0.2631 C   0  0  0  0  0  0  0  0  0  0  0  0
   -1.5281    0.0261    0.8575 C   0  0  0  0  0  0  0  0  0  0  0  0
   -2.2357    1.3288    0.6258 C   0  0  0  0  0  0  0  0  0  0  0  0
   -1.0695    1.2007    1.3881 O   0  0  0  0  0  0  0  0  0  0  0  0
   -1.5509   -0.7066   -1.5664 C   0  0  0  0  0  0  0  0  0  0  0  0
   -1.2408   -1.7915   -0.7787 O   0  0  0  0  0  0  0  0  0  0  0  0
    3.5946    0.1961    1.1678 H   0  0  0  0  0  0  0  0  0  0  0  0
    2.7584    1.0164   -0.2445 H   0  0  0  0  0  0  0  0  0  0  0  0
    3.3159   -0.6531   -0.4506 H   0  0  0  0  0  0  0  0  0  0  0  0
    1.1929    0.1315    1.5980 H   0  0  0  0  0  0  0  0  0  0  0  0
    1.5883   -1.5307    0.9501 H   0  0  0  0  0  0  0  0  0  0  0  0
    1.0963   -0.7407   -1.3354 H   0  0  0  0  0  0  0  0  0  0  0  0
    0.6704    0.8966   -0.6958 H   0  0  0  0  0  0  0  0  0  0  0  0
   -2.1221   -0.6878    1.4779 H   0  0  0  0  0  0  0  0  0  0  0  0
   -3.1750    1.5661    1.1563 H   0  0  0  0  0  0  0  0  0  0  0  0
   -2.1047    1.8897   -0.3108 H   0  0  0  0  0  0  0  0  0  0  0  0
   -2.5713   -0.3002   -1.5988 H   0  0  0  0  0  0  0  0  0  0  0  0
   -0.9997   -0.6794   -2.5251 H   0  0  0  0  0  0  0  0  0  0  0  0
  1  2  1  0
  2  3  1  0
  3  4  1  0
  4  5  1  0
  5  6  1  0
  6  7  1  0
  4  8  1  0
  8  9  1  0
  9  4  1  0
  7  5  1  0
  1 10  1  0
  1 11  1  0
  1 12  1  0
  2 13  1  0
  2 14  1  0
  3 15  1  0
  3 16  1  0
  5 17  1  0
  6 18  1  0
  6 19  1  0
  8 20  1  0
  8 21  1  0
M  END
