
     RDKit          3D

 25 24  0  0  0  0  0  0  0  0999 V2000
    2.8965   -0.0397    1.0818 C   0  0  0  0  0  0  0  0  0  0  0  0
    2.5000   -0.8067   -0.1660 C   0  0  0  0  0  0  0  0  0  0  0  0
    1.7279    0.0734   -1.1015 C   0  0  0  0  0  0  0  0  0  0  0  0
    0.4673    0.6379   -0.5631 C   0  0  0  0  0  0  0  0  0  0  0  0
   -0.5655   -0.3382   -0.1327 C   0  0  0  0  0  0  0  0  0  0  0  0
   -1.7647    0.4465    0.3814 C   0  0  0  0  0  0  0  0  0  0  0  0
   -2.3013    1.2757   -0.6024 O   0  0  0  0  0  0  0  0  0  0  0  0
   -2.8714   -0.4786    0.8296 C   0  0  0  0  0  0  0  0  0  0  0  0
   -3.9474    0.2347    1.3486 O   0  0  0  0  0  0  0  0  0  0  0  0
    2.8623    1.0506    0.8315 H   0  0  0  0  0  0  0  0  0  0  0  0
    2.2322   -0.2792    1.9398 H   0  0  0  0  0  0  0  0  0  0  0  0
    3.9530   -0.2425    1.3605 H   0  0  0  0  0  0  0  0  0  0  0  0
    3.4498   -1.0968   -0.6644 H   0  0  0  0  0  0  0  0  0  0  0  0
    1.9929   -1.7452    0.0950 H   0  0  0  0  0  0  0  0  0  0  0  0
    2.3881    0.9192   -1.3883 H   0  0  0  0  0  0  0  0  0  0  0  0
    1.5363   -0.4914   -2.0398 H   0  0  0  0  0  0  0  0  0  0  0  0
    0.0205    1.2824   -1.3492 H   0  0  0  0  0  0  0  0  0  0  0  0
    0.6852    1.3228    0.2932 H   0  0  0  0  0  0  0  0  0  0  0  0
   -0.8709   -1.0200   -0.9512 H   0  0  0  0  0  0  0  0  0  0  0  0
   -0.2540   -0.9913    0.7087 H   0  0  0  0  0  0  0  0  0  0  0  0
   -1.5019    1.0878    1.2328 H   0  0  0  0  0  0  0  0  0  0  0  0
   -2.4524    0.6891   -1.4017 H   0  0  0  0  0  0  0  0  0  0  0  0
   -3.2718   -1.1035    0.0048 H   0  0  0  0  0  0  0  0  0  0  0  0
   -2.4975   -1.1376    1.6392 H   0  0  0  0  0  0  0  0  0  0  0  0
   -4.4132    0.7507    0.6302 H   0  0  0  0  0  0  0  0  0  0  0  0
  1  2  1  0
  2  3  1  0
  3  4  1  0
  4  5  1  0
  5  6  1  0
  6  7  1  0
  6  8  1  0
  8  9  1  0
  1 10  1  0
  1 11  1  0
  1 12  1  0
  2 13  1  0
  2 14  1  0
  3 15  1  0
  3 16  1  0
  4 17  1  0
  4 18  1  0
  5 19  1  0
  5 20  1  0
  6 21  1  0
  7 22  1  0
  8 23  1  0
  8 24  1  0
  9 25  1  0
M  END
