
     RDKit          3D

 19 18  0  0  0  0  0  0  0  0999 V2000
   -2.4947    0.0972   -2.2669 C   0  0  0  0  0  0  0  0  0  0  0  0
   -1.4895    0.2370   -1.1558 C   0  0  0  0  0  0  0  0  0  0  0  0
   -0.7743   -1.0815   -0.9818 C   0  0  0  0  0  0  0  0  0  0  0  0
    0.1932   -0.8957    0.1095 C   0  0  0  0  0  0  0  0  0  0  0  0
    0.9797   -0.7428    1.0289 C   0  0  0  0  0  0  0  0  0  0  0  0
    1.9419   -0.5461    2.1197 C   0  0  0  0  0  0  0  0  0  0  0  0
    2.0974    0.8197    2.3656 O   0  0  0  0  0  0  0  0  0  0  0  0
    2.5540    1.7084    1.3975 C   0  0  0  0  0  0  0  0  0  0  0  0
    2.8237    1.2305    0.2827 O   0  0  0  0  0  0  0  0  0  0  0  0
   -2.7602   -0.9581   -2.4113 H   0  0  0  0  0  0  0  0  0  0  0  0
   -2.0807    0.5664   -3.1884 H   0  0  0  0  0  0  0  0  0  0  0  0
   -3.4331    0.6328   -2.0126 H   0  0  0  0  0  0  0  0  0  0  0  0
   -2.0817    0.4367   -0.2160 H   0  0  0  0  0  0  0  0  0  0  0  0
   -0.8073    1.0853   -1.2664 H   0  0  0  0  0  0  0  0  0  0  0  0
   -0.2593   -1.3698   -1.9058 H   0  0  0  0  0  0  0  0  0  0  0  0
   -1.5019   -1.8859   -0.7500 H   0  0  0  0  0  0  0  0  0  0  0  0
    1.5503   -0.9990    3.0796 H   0  0  0  0  0  0  0  0  0  0  0  0
    2.9003   -1.0806    1.9318 H   0  0  0  0  0  0  0  0  0  0  0  0
    2.6422    2.7457    1.6787 H   0  0  0  0  0  0  0  0  0  0  0  0
  1  2  1  0
  2  3  1  0
  3  4  1  0
  4  5  3  0
  5  6  1  0
  6  7  1  0
  7  8  1  0
  8  9  2  0
  1 10  1  0
  1 11  1  0
  1 12  1  0
  2 13  1  0
  2 14  1  0
  3 15  1  0
  3 16  1  0
  6 17  1  0
  6 18  1  0
  8 19  1  0
M  END
