
     RDKit          3D

 23 23  0  0  0  0  0  0  0  0999 V2000
    2.7250    1.0857    0.6872 C   0  0  0  0  0  0  0  0  0  0  0  0
    1.7744    0.1916   -0.0975 C   0  0  0  0  0  0  0  0  0  0  0  0
    0.6255   -0.2830    0.8057 C   0  0  0  0  0  0  0  0  0  0  0  0
   -0.2552   -1.1460   -0.0272 C   0  0  0  0  0  0  0  0  0  0  0  0
   -1.4573   -1.7174    0.6899 C   0  0  0  0  0  0  0  0  0  0  0  0
   -2.1391   -1.6405   -0.5216 O   0  0  0  0  0  0  0  0  0  0  0  0
   -1.3111   -0.5661   -0.8493 C   0  0  0  0  0  0  0  0  0  0  0  0
   -1.9578    0.7116   -0.4858 C   0  0  0  0  0  0  0  0  0  0  0  0
   -1.2332    1.8495   -0.7621 O   0  0  0  0  0  0  0  0  0  0  0  0
    3.4706    0.4683    1.2227 H   0  0  0  0  0  0  0  0  0  0  0  0
    2.1498    1.7351    1.3928 H   0  0  0  0  0  0  0  0  0  0  0  0
    3.2811    1.7235   -0.0403 H   0  0  0  0  0  0  0  0  0  0  0  0
    1.3741    0.7537   -0.9648 H   0  0  0  0  0  0  0  0  0  0  0  0
    2.3501   -0.6506   -0.4898 H   0  0  0  0  0  0  0  0  0  0  0  0
    1.0806   -0.9050    1.6041 H   0  0  0  0  0  0  0  0  0  0  0  0
    0.1620    0.6134    1.2017 H   0  0  0  0  0  0  0  0  0  0  0  0
    0.2773   -1.9670   -0.5478 H   0  0  0  0  0  0  0  0  0  0  0  0
   -1.3141   -2.7488    1.0737 H   0  0  0  0  0  0  0  0  0  0  0  0
   -1.7904   -0.9893    1.4711 H   0  0  0  0  0  0  0  0  0  0  0  0
   -1.0751   -0.6455   -1.9450 H   0  0  0  0  0  0  0  0  0  0  0  0
   -2.2902    0.7637    0.5693 H   0  0  0  0  0  0  0  0  0  0  0  0
   -2.9114    0.7937   -1.0884 H   0  0  0  0  0  0  0  0  0  0  0  0
   -1.5357    2.5694   -0.1861 H   0  0  0  0  0  0  0  0  0  0  0  0
  1  2  1  0
  2  3  1  0
  3  4  1  0
  4  5  1  0
  5  6  1  0
  6  7  1  0
  7  8  1  0
  8  9  1  0
  7  4  1  0
  1 10  1  0
  1 11  1  0
  1 12  1  0
  2 13  1  0
  2 14  1  0
  3 15  1  0
  3 16  1  0
  4 17  1  0
  5 18  1  0
  5 19  1  0
  7 20  1  0
  8 21  1  0
  8 22  1  0
  9 23  1  0
M  END
