
     RDKit          3D

 21 22  0  0  0  0  0  0  0  0999 V2000
   -3.2652    0.0666    0.0172 C   0  0  0  0  0  0  0  0  0  0  0  0
   -1.9245   -0.1003   -0.6805 C   0  0  0  0  0  0  0  0  0  0  0  0
   -0.8553   -0.3193    0.3603 C   0  0  0  0  0  0  0  0  0  0  0  0
    0.4814   -0.4828   -0.3841 C   0  0  0  0  0  0  0  0  0  0  0  0
    1.7084   -0.7068    0.3128 C   0  0  0  0  0  0  0  0  0  0  0  0
    3.0741   -0.0472    0.0713 C   0  0  0  0  0  0  0  0  0  0  0  0
    2.3145    1.1263    0.5853 C   0  0  0  0  0  0  0  0  0  0  0  0
    2.4766    1.9685    1.3895 O   0  0  0  0  0  0  0  0  0  0  0  0
    1.3301    0.6547   -0.4149 C   0  0  0  0  0  0  0  0  0  0  0  0
   -3.6372   -0.9167    0.3409 H   0  0  0  0  0  0  0  0  0  0  0  0
   -3.0863    0.6880    0.9219 H   0  0  0  0  0  0  0  0  0  0  0  0
   -3.9948    0.6026   -0.6309 H   0  0  0  0  0  0  0  0  0  0  0  0
   -1.6917    0.7551   -1.3477 H   0  0  0  0  0  0  0  0  0  0  0  0
   -2.0012   -0.9948   -1.3292 H   0  0  0  0  0  0  0  0  0  0  0  0
   -0.8094    0.4683    1.1104 H   0  0  0  0  0  0  0  0  0  0  0  0
   -1.0380   -1.3152    0.8289 H   0  0  0  0  0  0  0  0  0  0  0  0
    0.3120   -1.1187   -1.3029 H   0  0  0  0  0  0  0  0  0  0  0  0
    1.5641   -0.6677    1.4425 H   0  0  0  0  0  0  0  0  0  0  0  0
    3.3436    0.0102   -1.0026 H   0  0  0  0  0  0  0  0  0  0  0  0
    3.8472   -0.4611    0.7107 H   0  0  0  0  0  0  0  0  0  0  0  0
    1.8517    0.7904   -1.4198 H   0  0  0  0  0  0  0  0  0  0  0  0
  1  2  1  0
  2  3  1  0
  3  4  1  0
  4  5  1  0
  5  6  1  0
  6  7  1  0
  7  8  2  0
  7  9  1  0
  9  4  1  0
  9  5  1  0
  1 10  1  0
  1 11  1  0
  1 12  1  0
  2 13  1  0
  2 14  1  0
  3 15  1  0
  3 16  1  0
  4 17  1  0
  5 18  1  0
  6 19  1  0
  6 20  1  0
  9 21  1  0
M  END
