
     RDKit          3D

 22 23  0  0  0  0  0  0  0  0999 V2000
    3.0556    0.3897    0.2428 C   0  0  0  0  0  0  0  0  0  0  0  0
    1.6738    0.3923   -0.3572 C   0  0  0  0  0  0  0  0  0  0  0  0
    0.6903   -0.4187    0.4963 C   0  0  0  0  0  0  0  0  0  0  0  0
   -0.6280   -0.3425   -0.1925 C   0  0  0  0  0  0  0  0  0  0  0  0
   -1.2048    1.0090   -0.3756 C   0  0  0  0  0  0  0  0  0  0  0  0
   -2.5839    0.5173   -0.0321 C   0  0  0  0  0  0  0  0  0  0  0  0
   -1.8977   -0.7350    0.5223 C   0  0  0  0  0  0  0  0  0  0  0  0
   -1.3116   -1.5969   -0.5088 C   0  0  0  0  0  0  0  0  0  0  0  0
    3.0927    1.1662    1.0374 H   0  0  0  0  0  0  0  0  0  0  0  0
    3.3522   -0.5714    0.6563 H   0  0  0  0  0  0  0  0  0  0  0  0
    3.7507    0.7265   -0.5758 H   0  0  0  0  0  0  0  0  0  0  0  0
    1.7200   -0.1097   -1.3445 H   0  0  0  0  0  0  0  0  0  0  0  0
    1.2897    1.4101   -0.4739 H   0  0  0  0  0  0  0  0  0  0  0  0
    0.6435    0.1113    1.4749 H   0  0  0  0  0  0  0  0  0  0  0  0
    1.0571   -1.4481    0.6373 H   0  0  0  0  0  0  0  0  0  0  0  0
   -0.8511    1.6972    0.4478 H   0  0  0  0  0  0  0  0  0  0  0  0
   -1.0755    1.5137   -1.3319 H   0  0  0  0  0  0  0  0  0  0  0  0
   -3.1469    1.0827    0.7109 H   0  0  0  0  0  0  0  0  0  0  0  0
   -3.1308    0.2742   -0.9859 H   0  0  0  0  0  0  0  0  0  0  0  0
   -1.7966   -0.8681    1.5907 H   0  0  0  0  0  0  0  0  0  0  0  0
   -1.8601   -1.6733   -1.4670 H   0  0  0  0  0  0  0  0  0  0  0  0
   -0.8387   -2.5265   -0.1716 H   0  0  0  0  0  0  0  0  0  0  0  0
  1  2  1  0
  2  3  1  0
  3  4  1  0
  4  5  1  0
  5  6  1  0
  6  7  1  0
  7  8  1  0
  7  4  1  0
  8  4  1  0
  1  9  1  0
  1 10  1  0
  1 11  1  0
  2 12  1  0
  2 13  1  0
  3 14  1  0
  3 15  1  0
  5 16  1  0
  5 17  1  0
  6 18  1  0
  6 19  1  0
  7 20  1  0
  8 21  1  0
  8 22  1  0
M  END
