
     RDKit          3D

 23 24  0  0  0  0  0  0  0  0999 V2000
    3.0357   -0.3780   -0.1022 C   0  0  0  0  0  0  0  0  0  0  0  0
    2.3342    0.5020    0.8855 C   0  0  0  0  0  0  0  0  0  0  0  0
    0.9736    0.8477    0.3233 C   0  0  0  0  0  0  0  0  0  0  0  0
    0.1378   -0.3913    0.0824 C   0  0  0  0  0  0  0  0  0  0  0  0
   -1.1895    0.0757   -0.4754 C   0  0  0  0  0  0  0  0  0  0  0  0
   -2.1651   -1.0447   -0.7802 C   0  0  0  0  0  0  0  0  0  0  0  0
   -3.1960   -0.2714    0.0059 C   0  0  0  0  0  0  0  0  0  0  0  0
   -2.9128   -0.1147    1.3348 O   0  0  0  0  0  0  0  0  0  0  0  0
   -2.1204    0.6725    0.5274 C   0  0  0  0  0  0  0  0  0  0  0  0
    4.1278   -0.4499    0.0797 H   0  0  0  0  0  0  0  0  0  0  0  0
    2.8317    0.0501   -1.1263 H   0  0  0  0  0  0  0  0  0  0  0  0
    2.6259   -1.4138   -0.1403 H   0  0  0  0  0  0  0  0  0  0  0  0
    2.9425    1.4043    1.0404 H   0  0  0  0  0  0  0  0  0  0  0  0
    2.1723    0.0316    1.8678 H   0  0  0  0  0  0  0  0  0  0  0  0
    0.4278    1.5570    0.9850 H   0  0  0  0  0  0  0  0  0  0  0  0
    1.0668    1.3655   -0.6659 H   0  0  0  0  0  0  0  0  0  0  0  0
    0.0290   -0.8992    1.0452 H   0  0  0  0  0  0  0  0  0  0  0  0
    0.6672   -1.0650   -0.5981 H   0  0  0  0  0  0  0  0  0  0  0  0
   -1.0655    0.7043   -1.3810 H   0  0  0  0  0  0  0  0  0  0  0  0
   -2.4130   -1.1752   -1.8495 H   0  0  0  0  0  0  0  0  0  0  0  0
   -1.9587   -2.0052   -0.2839 H   0  0  0  0  0  0  0  0  0  0  0  0
   -4.0316    0.2223   -0.4850 H   0  0  0  0  0  0  0  0  0  0  0  0
   -2.3198    1.7752    0.4560 H   0  0  0  0  0  0  0  0  0  0  0  0
  1  2  1  0
  2  3  1  0
  3  4  1  0
  4  5  1  0
  5  6  1  0
  6  7  1  0
  7  8  1  0
  8  9  1  0
  9  5  1  0
  9  7  1  0
  1 10  1  0
  1 11  1  0
  1 12  1  0
  2 13  1  0
  2 14  1  0
  3 15  1  0
  3 16  1  0
  4 17  1  0
  4 18  1  0
  5 19  1  0
  6 20  1  0
  6 21  1  0
  7 22  1  0
  9 23  1  0
M  END
