
     RDKit          3D

 27 27  0  0  0  0  0  0  0  0999 V2000
   -2.3239   -1.2246    0.8974 C   0  0  0  0  0  0  0  0  0  0  0  0
   -2.2050    0.2758    1.1442 C   0  0  0  0  0  0  0  0  0  0  0  0
   -1.6557    0.9729   -0.0365 C   0  0  0  0  0  0  0  0  0  0  0  0
   -0.2898    0.5467   -0.4826 C   0  0  0  0  0  0  0  0  0  0  0  0
    0.8922    0.6496    0.3940 C   0  0  0  0  0  0  0  0  0  0  0  0
    2.1856    0.1819   -0.2047 C   0  0  0  0  0  0  0  0  0  0  0  0
    3.3385    0.3467    0.8001 C   0  0  0  0  0  0  0  0  0  0  0  0
   -0.0858    0.7212   -2.0008 C   0  0  0  0  0  0  0  0  0  0  0  0
   -0.3135   -0.6551   -1.4492 C   0  0  0  0  0  0  0  0  0  0  0  0
   -1.3432   -1.6475    0.6736 H   0  0  0  0  0  0  0  0  0  0  0  0
   -2.7258   -1.7431    1.7930 H   0  0  0  0  0  0  0  0  0  0  0  0
   -2.9788   -1.3997    0.0202 H   0  0  0  0  0  0  0  0  0  0  0  0
   -1.7221    0.4981    2.1022 H   0  0  0  0  0  0  0  0  0  0  0  0
   -3.2719    0.6251    1.2601 H   0  0  0  0  0  0  0  0  0  0  0  0
   -1.5972    2.0656    0.1915 H   0  0  0  0  0  0  0  0  0  0  0  0
   -2.3908    0.8850   -0.8640 H   0  0  0  0  0  0  0  0  0  0  0  0
    0.7087   -0.0121    1.2923 H   0  0  0  0  0  0  0  0  0  0  0  0
    1.0789    1.6522    0.8212 H   0  0  0  0  0  0  0  0  0  0  0  0
    2.4981    0.7138   -1.1021 H   0  0  0  0  0  0  0  0  0  0  0  0
    2.1714   -0.9268   -0.4215 H   0  0  0  0  0  0  0  0  0  0  0  0
    2.8826    0.3878    1.8184 H   0  0  0  0  0  0  0  0  0  0  0  0
    4.0339   -0.4901    0.7711 H   0  0  0  0  0  0  0  0  0  0  0  0
    3.8661    1.2982    0.6537 H   0  0  0  0  0  0  0  0  0  0  0  0
   -0.8758    1.2218   -2.5881 H   0  0  0  0  0  0  0  0  0  0  0  0
    0.9218    0.8979   -2.3790 H   0  0  0  0  0  0  0  0  0  0  0  0
    0.4977   -1.3805   -1.4389 H   0  0  0  0  0  0  0  0  0  0  0  0
   -1.2961   -1.1276   -1.6655 H   0  0  0  0  0  0  0  0  0  0  0  0
  1  2  1  0
  2  3  1  0
  3  4  1  0
  4  5  1  0
  5  6  1  0
  6  7  1  0
  4  8  1  0
  8  9  1  0
  9  4  1  0
  1 10  1  0
  1 11  1  0
  1 12  1  0
  2 13  1  0
  2 14  1  0
  3 15  1  0
  3 16  1  0
  5 17  1  0
  5 18  1  0
  6 19  1  0
  6 20  1  0
  7 21  1  0
  7 22  1  0
  7 23  1  0
  8 24  1  0
  8 25  1  0
  9 26  1  0
  9 27  1  0
M  END
