
     RDKit          3D

 19 18  0  0  0  0  0  0  0  0999 V2000
   -1.6383    1.1137    3.0306 C   0  0  0  0  0  0  0  0  0  0  0  0
   -1.5404    0.0264    1.9996 C   0  0  0  0  0  0  0  0  0  0  0  0
   -0.3650    0.1994    1.1381 C   0  0  0  0  0  0  0  0  0  0  0  0
   -0.3442   -1.0145    0.0384 C   0  0  0  0  0  0  0  0  0  0  0  0
   -1.2285   -1.7862    0.4258 O   0  0  0  0  0  0  0  0  0  0  0  0
    0.5171   -0.8999   -0.9026 C   0  0  0  0  0  0  0  0  0  0  0  0
    1.4327   -0.7630   -1.8799 C   0  0  0  0  0  0  0  0  0  0  0  0
    2.3997   -0.6333   -2.8816 C   0  0  0  0  0  0  0  0  0  0  0  0
    1.9679    0.0852   -4.0189 O   0  0  0  0  0  0  0  0  0  0  0  0
   -0.8732    1.0058    3.7939 H   0  0  0  0  0  0  0  0  0  0  0  0
   -1.6692    2.1247    2.5942 H   0  0  0  0  0  0  0  0  0  0  0  0
   -2.6826    0.9604    3.4945 H   0  0  0  0  0  0  0  0  0  0  0  0
   -2.5022   -0.0311    1.4303 H   0  0  0  0  0  0  0  0  0  0  0  0
   -1.4433   -0.9474    2.5641 H   0  0  0  0  0  0  0  0  0  0  0  0
   -0.4269    1.0512    0.4654 H   0  0  0  0  0  0  0  0  0  0  0  0
    0.6161    0.1428    1.6174 H   0  0  0  0  0  0  0  0  0  0  0  0
    2.7611   -1.6120   -3.2329 H   0  0  0  0  0  0  0  0  0  0  0  0
    3.3067   -0.0170   -2.5180 H   0  0  0  0  0  0  0  0  0  0  0  0
    1.7124    0.9949   -3.6550 H   0  0  0  0  0  0  0  0  0  0  0  0
  1  2  1  0
  2  3  1  0
  3  4  1  0
  4  5  2  0
  4  6  1  0
  6  7  3  0
  7  8  1  0
  8  9  1  0
  1 10  1  0
  1 11  1  0
  1 12  1  0
  2 13  1  0
  2 14  1  0
  3 15  1  0
  3 16  1  0
  8 17  1  0
  8 18  1  0
  9 19  1  0
M  END
