
     RDKit          3D

 25 26  0  0  0  0  0  0  0  0999 V2000
    3.5077    0.3850   -0.3587 C   0  0  0  0  0  0  0  0  0  0  0  0
    2.0454    0.5771   -0.5943 C   0  0  0  0  0  0  0  0  0  0  0  0
    1.2809   -0.4241    0.2856 C   0  0  0  0  0  0  0  0  0  0  0  0
   -0.0729   -0.3106    0.1262 C   0  0  0  0  0  0  0  0  0  0  0  0
   -0.8535   -0.4948   -1.1475 C   0  0  0  0  0  0  0  0  0  0  0  0
   -1.9053   -0.1032   -0.1233 C   0  0  0  0  0  0  0  0  0  0  0  0
   -3.2434    0.0361   -0.3145 C   0  0  0  0  0  0  0  0  0  0  0  0
   -1.1756   -1.0420    0.8062 C   0  0  0  0  0  0  0  0  0  0  0  0
   -0.9038    0.9377    0.3234 C   0  0  0  0  0  0  0  0  0  0  0  0
    3.6733   -0.1806    0.5575 H   0  0  0  0  0  0  0  0  0  0  0  0
    4.0370    1.3750   -0.3374 H   0  0  0  0  0  0  0  0  0  0  0  0
    3.9912   -0.1709   -1.2091 H   0  0  0  0  0  0  0  0  0  0  0  0
    1.7087    1.5950   -0.3415 H   0  0  0  0  0  0  0  0  0  0  0  0
    1.7404    0.4053   -1.6603 H   0  0  0  0  0  0  0  0  0  0  0  0
    1.6744   -1.4225   -0.0386 H   0  0  0  0  0  0  0  0  0  0  0  0
    1.6497   -0.2687    1.3002 H   0  0  0  0  0  0  0  0  0  0  0  0
   -0.9479   -1.5084   -1.5313 H   0  0  0  0  0  0  0  0  0  0  0  0
   -0.5919    0.3064   -1.8652 H   0  0  0  0  0  0  0  0  0  0  0  0
   -3.6151    1.0989   -0.4070 H   0  0  0  0  0  0  0  0  0  0  0  0
   -3.8985   -0.3888    0.5039 H   0  0  0  0  0  0  0  0  0  0  0  0
   -3.6559   -0.4563   -1.2453 H   0  0  0  0  0  0  0  0  0  0  0  0
   -1.3532   -0.8235    1.8745 H   0  0  0  0  0  0  0  0  0  0  0  0
   -1.2997   -2.1127    0.5085 H   0  0  0  0  0  0  0  0  0  0  0  0
   -0.7481    1.7479   -0.3887 H   0  0  0  0  0  0  0  0  0  0  0  0
   -1.0440    1.2428    1.3693 H   0  0  0  0  0  0  0  0  0  0  0  0
  1  2  1  0
  2  3  1  0
  3  4  1  0
  4  5  1  0
  5  6  1  0
  6  7  1  0
  6  8  1  0
  6  9  1  0
  8  4  1  0
  9  4  1  0
  1 10  1  0
  1 11  1  0
  1 12  1  0
  2 13  1  0
  2 14  1  0
  3 15  1  0
  3 16  1  0
  5 17  1  0
  5 18  1  0
  7 19  1  0
  7 20  1  0
  7 21  1  0
  8 22  1  0
  8 23  1  0
  9 24  1  0
  9 25  1  0
M  END
