
     RDKit          3D

 25 24  0  0  0  0  0  0  0  0999 V2000
    2.2700    0.8740   -0.8890 C   0  0  0  0  0  0  0  0  0  0  0  0
    1.9243   -0.3478   -0.1092 C   0  0  0  0  0  0  0  0  0  0  0  0
    0.5659   -0.8897   -0.1734 C   0  0  0  0  0  0  0  0  0  0  0  0
   -0.6331   -0.2550    0.3484 C   0  0  0  0  0  0  0  0  0  0  0  0
   -1.1143    1.0655   -0.0895 C   0  0  0  0  0  0  0  0  0  0  0  0
   -0.2995    2.2684    0.1486 C   0  0  0  0  0  0  0  0  0  0  0  0
   -1.8389   -1.2139    0.0525 C   0  0  0  0  0  0  0  0  0  0  0  0
   -1.6319   -2.4951    0.7193 C   0  0  0  0  0  0  0  0  0  0  0  0
   -2.4205   -3.4177    0.5101 O   0  0  0  0  0  0  0  0  0  0  0  0
    1.5182    1.1192   -1.6659 H   0  0  0  0  0  0  0  0  0  0  0  0
    2.4135    1.7431   -0.2446 H   0  0  0  0  0  0  0  0  0  0  0  0
    3.2702    0.7431   -1.4271 H   0  0  0  0  0  0  0  0  0  0  0  0
    2.6481   -1.1526   -0.4843 H   0  0  0  0  0  0  0  0  0  0  0  0
    2.2812   -0.2382    0.9638 H   0  0  0  0  0  0  0  0  0  0  0  0
    0.6308   -1.9766    0.2233 H   0  0  0  0  0  0  0  0  0  0  0  0
    0.3373   -1.1262   -1.2965 H   0  0  0  0  0  0  0  0  0  0  0  0
   -0.5876   -0.2937    1.5055 H   0  0  0  0  0  0  0  0  0  0  0  0
   -1.3075    1.0376   -1.2174 H   0  0  0  0  0  0  0  0  0  0  0  0
   -2.1401    1.2445    0.3849 H   0  0  0  0  0  0  0  0  0  0  0  0
   -0.9899    3.0800    0.5702 H   0  0  0  0  0  0  0  0  0  0  0  0
    0.4567    2.1444    0.9709 H   0  0  0  0  0  0  0  0  0  0  0  0
    0.1254    2.7619   -0.7440 H   0  0  0  0  0  0  0  0  0  0  0  0
   -2.7643   -0.7302    0.4175 H   0  0  0  0  0  0  0  0  0  0  0  0
   -1.8977   -1.2526   -1.0508 H   0  0  0  0  0  0  0  0  0  0  0  0
   -0.8164   -2.6926    1.3990 H   0  0  0  0  0  0  0  0  0  0  0  0
  1  2  1  0
  2  3  1  0
  3  4  1  0
  4  5  1  0
  5  6  1  0
  4  7  1  0
  7  8  1  0
  8  9  2  0
  1 10  1  0
  1 11  1  0
  1 12  1  0
  2 13  1  0
  2 14  1  0
  3 15  1  0
  3 16  1  0
  4 17  1  0
  5 18  1  0
  5 19  1  0
  6 20  1  0
  6 21  1  0
  6 22  1  0
  7 23  1  0
  7 24  1  0
  8 25  1  0
M  END
