
     RDKit          3D

 25 25  0  0  0  0  0  0  0  0999 V2000
    3.5725   -0.0528   -0.3269 C   0  0  0  0  0  0  0  0  0  0  0  0
    2.2968   -0.7936   -0.0479 C   0  0  0  0  0  0  0  0  0  0  0  0
    1.0882    0.1235   -0.0332 C   0  0  0  0  0  0  0  0  0  0  0  0
   -0.1121   -0.7561    0.2575 C   0  0  0  0  0  0  0  0  0  0  0  0
   -1.3975    0.0194    0.3039 C   0  0  0  0  0  0  0  0  0  0  0  0
   -1.8560    0.7272   -0.7596 O   0  0  0  0  0  0  0  0  0  0  0  0
   -2.0995    0.0054   -1.9078 C   0  0  0  0  0  0  0  0  0  0  0  0
   -2.5030   -0.4707    1.2493 C   0  0  0  0  0  0  0  0  0  0  0  0
   -1.6602    0.6769    1.6583 C   0  0  0  0  0  0  0  0  0  0  0  0
    3.4542    1.0290   -0.1393 H   0  0  0  0  0  0  0  0  0  0  0  0
    4.3755   -0.4869    0.3171 H   0  0  0  0  0  0  0  0  0  0  0  0
    3.9124   -0.1968   -1.3768 H   0  0  0  0  0  0  0  0  0  0  0  0
    2.1389   -1.5808   -0.8060 H   0  0  0  0  0  0  0  0  0  0  0  0
    2.3308   -1.2999    0.9472 H   0  0  0  0  0  0  0  0  0  0  0  0
    0.9255    0.5511   -1.0425 H   0  0  0  0  0  0  0  0  0  0  0  0
    1.2761    0.8750    0.7371 H   0  0  0  0  0  0  0  0  0  0  0  0
   -0.1067   -1.5321   -0.5385 H   0  0  0  0  0  0  0  0  0  0  0  0
    0.0626   -1.2674    1.2236 H   0  0  0  0  0  0  0  0  0  0  0  0
   -2.4675    0.6909   -2.6989 H   0  0  0  0  0  0  0  0  0  0  0  0
   -2.9771   -0.6661   -1.6773 H   0  0  0  0  0  0  0  0  0  0  0  0
   -1.2888   -0.6536   -2.2211 H   0  0  0  0  0  0  0  0  0  0  0  0
   -3.5509   -0.2541    0.9863 H   0  0  0  0  0  0  0  0  0  0  0  0
   -2.3668   -1.4589    1.7362 H   0  0  0  0  0  0  0  0  0  0  0  0
   -0.9606    0.4817    2.4884 H   0  0  0  0  0  0  0  0  0  0  0  0
   -2.0869    1.6887    1.6711 H   0  0  0  0  0  0  0  0  0  0  0  0
  1  2  1  0
  2  3  1  0
  3  4  1  0
  4  5  1  0
  5  6  1  0
  6  7  1  0
  5  8  1  0
  8  9  1  0
  9  5  1  0
  1 10  1  0
  1 11  1  0
  1 12  1  0
  2 13  1  0
  2 14  1  0
  3 15  1  0
  3 16  1  0
  4 17  1  0
  4 18  1  0
  7 19  1  0
  7 20  1  0
  7 21  1  0
  8 22  1  0
  8 23  1  0
  9 24  1  0
  9 25  1  0
M  END
