
     RDKit          3D

 25 25  0  0  0  0  0  0  0  0999 V2000
    3.0804    0.6586    0.1712 C   0  0  0  0  0  0  0  0  0  0  0  0
    1.7179    0.0500    0.5266 C   0  0  0  0  0  0  0  0  0  0  0  0
    0.7525    0.5152   -0.5190 C   0  0  0  0  0  0  0  0  0  0  0  0
   -0.6424    0.0052   -0.3190 C   0  0  0  0  0  0  0  0  0  0  0  0
   -1.5399    0.5388   -1.4373 C   0  0  0  0  0  0  0  0  0  0  0  0
   -2.8379    0.1127   -1.3212 O   0  0  0  0  0  0  0  0  0  0  0  0
   -1.2330    0.1831    1.0397 C   0  0  0  0  0  0  0  0  0  0  0  0
   -1.0422   -1.2972    1.3147 C   0  0  0  0  0  0  0  0  0  0  0  0
   -0.7935   -1.4798   -0.1687 C   0  0  0  0  0  0  0  0  0  0  0  0
    3.5759    0.1029   -0.6413 H   0  0  0  0  0  0  0  0  0  0  0  0
    2.8578    1.6774   -0.2255 H   0  0  0  0  0  0  0  0  0  0  0  0
    3.7056    0.8018    1.0689 H   0  0  0  0  0  0  0  0  0  0  0  0
    1.8522   -1.0328    0.5370 H   0  0  0  0  0  0  0  0  0  0  0  0
    1.4535    0.4795    1.5105 H   0  0  0  0  0  0  0  0  0  0  0  0
    0.7044    1.6280   -0.4931 H   0  0  0  0  0  0  0  0  0  0  0  0
    1.0749    0.2417   -1.5329 H   0  0  0  0  0  0  0  0  0  0  0  0
   -1.0465    0.2476   -2.3882 H   0  0  0  0  0  0  0  0  0  0  0  0
   -1.4474    1.6556   -1.3895 H   0  0  0  0  0  0  0  0  0  0  0  0
   -3.3984    0.8998   -1.0425 H   0  0  0  0  0  0  0  0  0  0  0  0
   -0.7402    0.8639    1.7327 H   0  0  0  0  0  0  0  0  0  0  0  0
   -2.3420    0.3837    0.9678 H   0  0  0  0  0  0  0  0  0  0  0  0
   -0.1476   -1.4685    1.9392 H   0  0  0  0  0  0  0  0  0  0  0  0
   -1.9540   -1.8173    1.6932 H   0  0  0  0  0  0  0  0  0  0  0  0
   -1.7153   -1.8660   -0.6477 H   0  0  0  0  0  0  0  0  0  0  0  0
    0.1052   -2.0837   -0.3757 H   0  0  0  0  0  0  0  0  0  0  0  0
  1  2  1  0
  2  3  1  0
  3  4  1  0
  4  5  1  0
  5  6  1  0
  4  7  1  0
  7  8  1  0
  8  9  1  0
  9  4  1  0
  1 10  1  0
  1 11  1  0
  1 12  1  0
  2 13  1  0
  2 14  1  0
  3 15  1  0
  3 16  1  0
  5 17  1  0
  5 18  1  0
  6 19  1  0
  7 20  1  0
  7 21  1  0
  8 22  1  0
  8 23  1  0
  9 24  1  0
  9 25  1  0
M  END
