
     RDKit          3D

 22 22  0  0  0  0  0  0  0  0999 V2000
    3.1268    0.3941    0.2172 C   0  0  0  0  0  0  0  0  0  0  0  0
    1.6940    0.6919   -0.1716 C   0  0  0  0  0  0  0  0  0  0  0  0
    0.8766   -0.5891   -0.2054 C   0  0  0  0  0  0  0  0  0  0  0  0
   -0.5257   -0.2074   -0.5977 C   0  0  0  0  0  0  0  0  0  0  0  0
   -1.4519   -1.3428   -0.6770 C   0  0  0  0  0  0  0  0  0  0  0  0
   -2.6181   -1.0379   -0.1224 C   0  0  0  0  0  0  0  0  0  0  0  0
   -2.5796    0.3719    0.3951 C   0  0  0  0  0  0  0  0  0  0  0  0
   -1.0993    0.6385    0.5151 C   0  0  0  0  0  0  0  0  0  0  0  0
    3.2131   -0.6201    0.6228 H   0  0  0  0  0  0  0  0  0  0  0  0
    3.4557    1.0903    1.0351 H   0  0  0  0  0  0  0  0  0  0  0  0
    3.8132    0.5530   -0.6435 H   0  0  0  0  0  0  0  0  0  0  0  0
    1.6840    1.2078   -1.1416 H   0  0  0  0  0  0  0  0  0  0  0  0
    1.2371    1.3646    0.6042 H   0  0  0  0  0  0  0  0  0  0  0  0
    1.3421   -1.3325   -0.8500 H   0  0  0  0  0  0  0  0  0  0  0  0
    0.8419   -0.9773    0.8210 H   0  0  0  0  0  0  0  0  0  0  0  0
   -0.5625    0.4046   -1.5191 H   0  0  0  0  0  0  0  0  0  0  0  0
   -1.2672   -2.3250   -1.1172 H   0  0  0  0  0  0  0  0  0  0  0  0
   -3.5128   -1.6390   -0.0123 H   0  0  0  0  0  0  0  0  0  0  0  0
   -3.0684    1.0366   -0.3399 H   0  0  0  0  0  0  0  0  0  0  0  0
   -3.0546    0.3840    1.3816 H   0  0  0  0  0  0  0  0  0  0  0  0
   -0.8268    1.6901    0.3304 H   0  0  0  0  0  0  0  0  0  0  0  0
   -0.7176    0.2436    1.4751 H   0  0  0  0  0  0  0  0  0  0  0  0
  1  2  1  0
  2  3  1  0
  3  4  1  0
  4  5  1  0
  5  6  2  0
  6  7  1  0
  7  8  1  0
  8  4  1  0
  1  9  1  0
  1 10  1  0
  1 11  1  0
  2 12  1  0
  2 13  1  0
  3 14  1  0
  3 15  1  0
  4 16  1  0
  5 17  1  0
  6 18  1  0
  7 19  1  0
  7 20  1  0
  8 21  1  0
  8 22  1  0
M  END
