
     RDKit          3D

 23 24  0  0  0  0  0  0  0  0999 V2000
    3.2364    0.1752    0.4823 C   0  0  0  0  0  0  0  0  0  0  0  0
    1.9606   -0.4616   -0.0115 C   0  0  0  0  0  0  0  0  0  0  0  0
    0.8484    0.5467   -0.1876 C   0  0  0  0  0  0  0  0  0  0  0  0
   -0.3783   -0.1596   -0.6776 C   0  0  0  0  0  0  0  0  0  0  0  0
   -1.5882    0.6772   -0.9116 C   0  0  0  0  0  0  0  0  0  0  0  0
   -1.6734    1.8412   -0.1429 O   0  0  0  0  0  0  0  0  0  0  0  0
   -2.4054   -0.4143   -0.2229 C   0  0  0  0  0  0  0  0  0  0  0  0
   -2.1197   -0.5828    1.2126 C   0  0  0  0  0  0  0  0  0  0  0  0
   -1.0750   -1.0553    0.2900 C   0  0  0  0  0  0  0  0  0  0  0  0
    4.1377   -0.3160    0.0476 H   0  0  0  0  0  0  0  0  0  0  0  0
    3.2357    1.2773    0.2847 H   0  0  0  0  0  0  0  0  0  0  0  0
    3.3477    0.0820    1.5887 H   0  0  0  0  0  0  0  0  0  0  0  0
    1.6126   -1.2029    0.7554 H   0  0  0  0  0  0  0  0  0  0  0  0
    2.1487   -1.0466   -0.9284 H   0  0  0  0  0  0  0  0  0  0  0  0
    0.7149    1.1067    0.7339 H   0  0  0  0  0  0  0  0  0  0  0  0
    1.1662    1.2548   -0.9943 H   0  0  0  0  0  0  0  0  0  0  0  0
   -0.1229   -0.7224   -1.6208 H   0  0  0  0  0  0  0  0  0  0  0  0
   -1.8823    0.8396   -1.9521 H   0  0  0  0  0  0  0  0  0  0  0  0
   -2.4502    2.3661   -0.4723 H   0  0  0  0  0  0  0  0  0  0  0  0
   -3.0320   -1.0772   -0.8109 H   0  0  0  0  0  0  0  0  0  0  0  0
   -1.9995    0.3728    1.7885 H   0  0  0  0  0  0  0  0  0  0  0  0
   -2.6995   -1.3506    1.7413 H   0  0  0  0  0  0  0  0  0  0  0  0
   -0.9825   -2.1502    0.1292 H   0  0  0  0  0  0  0  0  0  0  0  0
  1  2  1  0
  2  3  1  0
  3  4  1  0
  4  5  1  0
  5  6  1  0
  5  7  1  0
  7  8  1  0
  8  9  1  0
  9  4  1  0
  9  7  1  0
  1 10  1  0
  1 11  1  0
  1 12  1  0
  2 13  1  0
  2 14  1  0
  3 15  1  0
  3 16  1  0
  4 17  1  0
  5 18  1  0
  6 19  1  0
  7 20  1  0
  8 21  1  0
  8 22  1  0
  9 23  1  0
M  END
