
     RDKit          3D

 27 26  0  0  0  0  0  0  0  0999 V2000
   -3.3507    0.9454   -0.6408 C   0  0  0  0  0  0  0  0  0  0  0  0
   -2.1523    0.3630    0.0946 C   0  0  0  0  0  0  0  0  0  0  0  0
   -1.4292   -0.6496   -0.7172 C   0  0  0  0  0  0  0  0  0  0  0  0
   -0.2610   -1.2800   -0.0597 C   0  0  0  0  0  0  0  0  0  0  0  0
    0.8532   -0.3812    0.3597 C   0  0  0  0  0  0  0  0  0  0  0  0
    1.9172   -1.3063    0.9885 C   0  0  0  0  0  0  0  0  0  0  0  0
    0.4294    0.5138    1.3404 O   0  0  0  0  0  0  0  0  0  0  0  0
    1.5185    0.3229   -0.7870 C   0  0  0  0  0  0  0  0  0  0  0  0
    2.6330    1.2147   -0.3041 C   0  0  0  0  0  0  0  0  0  0  0  0
   -4.3006    0.4719   -0.3204 H   0  0  0  0  0  0  0  0  0  0  0  0
   -3.2834    0.7999   -1.7340 H   0  0  0  0  0  0  0  0  0  0  0  0
   -3.4393    2.0254   -0.4240 H   0  0  0  0  0  0  0  0  0  0  0  0
   -1.4625    1.2123    0.3041 H   0  0  0  0  0  0  0  0  0  0  0  0
   -2.5359   -0.0947    1.0256 H   0  0  0  0  0  0  0  0  0  0  0  0
   -1.1811   -0.2776   -1.7374 H   0  0  0  0  0  0  0  0  0  0  0  0
   -2.1696   -1.4834   -0.9137 H   0  0  0  0  0  0  0  0  0  0  0  0
    0.1484   -2.1413   -0.6398 H   0  0  0  0  0  0  0  0  0  0  0  0
   -0.6370   -1.7683    0.8932 H   0  0  0  0  0  0  0  0  0  0  0  0
    1.9257   -2.2212    0.3265 H   0  0  0  0  0  0  0  0  0  0  0  0
    1.6166   -1.6139    1.9916 H   0  0  0  0  0  0  0  0  0  0  0  0
    2.9117   -0.8682    0.9042 H   0  0  0  0  0  0  0  0  0  0  0  0
    0.7437    1.4236    1.2087 H   0  0  0  0  0  0  0  0  0  0  0  0
    1.9776   -0.4269   -1.4821 H   0  0  0  0  0  0  0  0  0  0  0  0
    0.7660    0.9183   -1.3491 H   0  0  0  0  0  0  0  0  0  0  0  0
    2.7129    1.1511    0.7902 H   0  0  0  0  0  0  0  0  0  0  0  0
    3.6320    0.8926   -0.7082 H   0  0  0  0  0  0  0  0  0  0  0  0
    2.4165    2.2579   -0.6114 H   0  0  0  0  0  0  0  0  0  0  0  0
  1  2  1  0
  2  3  1  0
  3  4  1  0
  4  5  1  0
  5  6  1  0
  5  7  1  0
  5  8  1  0
  8  9  1  0
  1 10  1  0
  1 11  1  0
  1 12  1  0
  2 13  1  0
  2 14  1  0
  3 15  1  0
  3 16  1  0
  4 17  1  0
  4 18  1  0
  6 19  1  0
  6 20  1  0
  6 21  1  0
  7 22  1  0
  8 23  1  0
  8 24  1  0
  9 25  1  0
  9 26  1  0
  9 27  1  0
M  END
