
     RDKit          3D

 23 22  0  0  0  0  0  0  0  0999 V2000
    2.5142    0.1839    0.7370 C   0  0  0  0  0  0  0  0  0  0  0  0
    1.4829    1.1588    0.1932 C   0  0  0  0  0  0  0  0  0  0  0  0
    0.8542    0.6588   -1.0589 C   0  0  0  0  0  0  0  0  0  0  0  0
    0.1381   -0.6305   -0.9397 C   0  0  0  0  0  0  0  0  0  0  0  0
   -1.0063   -0.5803    0.0443 C   0  0  0  0  0  0  0  0  0  0  0  0
   -1.7028   -1.9340    0.1306 C   0  0  0  0  0  0  0  0  0  0  0  0
   -1.9763    0.3412   -0.4217 O   0  0  0  0  0  0  0  0  0  0  0  0
   -2.3591    1.3748    0.3874 C   0  0  0  0  0  0  0  0  0  0  0  0
   -1.9025    1.5572    1.5253 O   0  0  0  0  0  0  0  0  0  0  0  0
    2.7209    0.5129    1.7826 H   0  0  0  0  0  0  0  0  0  0  0  0
    3.4385    0.1841    0.1573 H   0  0  0  0  0  0  0  0  0  0  0  0
    2.0577   -0.8067    0.7975 H   0  0  0  0  0  0  0  0  0  0  0  0
    0.7657    1.4665    0.9790 H   0  0  0  0  0  0  0  0  0  0  0  0
    2.0795    2.0772   -0.0891 H   0  0  0  0  0  0  0  0  0  0  0  0
    0.1463    1.4244   -1.4289 H   0  0  0  0  0  0  0  0  0  0  0  0
    1.6534    0.5604   -1.8254 H   0  0  0  0  0  0  0  0  0  0  0  0
   -0.3163   -0.9415   -1.9156 H   0  0  0  0  0  0  0  0  0  0  0  0
    0.7741   -1.4860   -0.6349 H   0  0  0  0  0  0  0  0  0  0  0  0
   -0.6144   -0.3708    1.0385 H   0  0  0  0  0  0  0  0  0  0  0  0
   -0.9742   -2.7194    0.3852 H   0  0  0  0  0  0  0  0  0  0  0  0
   -2.2236   -2.2000   -0.7972 H   0  0  0  0  0  0  0  0  0  0  0  0
   -2.4424   -1.9044    0.9488 H   0  0  0  0  0  0  0  0  0  0  0  0
   -3.1076    2.0735    0.0047 H   0  0  0  0  0  0  0  0  0  0  0  0
  1  2  1  0
  2  3  1  0
  3  4  1  0
  4  5  1  0
  5  6  1  0
  5  7  1  0
  7  8  1  0
  8  9  2  0
  1 10  1  0
  1 11  1  0
  1 12  1  0
  2 13  1  0
  2 14  1  0
  3 15  1  0
  3 16  1  0
  4 17  1  0
  4 18  1  0
  5 19  1  0
  6 20  1  0
  6 21  1  0
  6 22  1  0
  8 23  1  0
M  END
