
     RDKit          3D

 27 26  0  0  0  0  0  0  0  0999 V2000
    2.2047   -1.5702    0.6728 C   0  0  0  0  0  0  0  0  0  0  0  0
    1.3973   -1.5501   -0.6272 C   0  0  0  0  0  0  0  0  0  0  0  0
    0.8602   -0.2051   -0.9131 C   0  0  0  0  0  0  0  0  0  0  0  0
   -0.0776    0.4199    0.0438 C   0  0  0  0  0  0  0  0  0  0  0  0
   -1.3672   -0.2901    0.2676 C   0  0  0  0  0  0  0  0  0  0  0  0
   -1.3528   -1.6610    0.8092 C   0  0  0  0  0  0  0  0  0  0  0  0
   -0.4450    1.8075   -0.5345 C   0  0  0  0  0  0  0  0  0  0  0  0
   -1.4046    2.5125    0.3899 C   0  0  0  0  0  0  0  0  0  0  0  0
    0.7087    2.5417   -0.7765 O   0  0  0  0  0  0  0  0  0  0  0  0
    2.1657   -2.5857    1.1288 H   0  0  0  0  0  0  0  0  0  0  0  0
    3.2633   -1.3145    0.5048 H   0  0  0  0  0  0  0  0  0  0  0  0
    1.8043   -0.8401    1.4004 H   0  0  0  0  0  0  0  0  0  0  0  0
    0.7154   -2.3944   -0.6403 H   0  0  0  0  0  0  0  0  0  0  0  0
    2.1871   -1.7494   -1.4288 H   0  0  0  0  0  0  0  0  0  0  0  0
    1.7446    0.4762   -1.1407 H   0  0  0  0  0  0  0  0  0  0  0  0
    0.3340   -0.2428   -1.9186 H   0  0  0  0  0  0  0  0  0  0  0  0
    0.4155    0.6185    1.0519 H   0  0  0  0  0  0  0  0  0  0  0  0
   -2.0167    0.3246    0.9735 H   0  0  0  0  0  0  0  0  0  0  0  0
   -1.9704   -0.2292   -0.7015 H   0  0  0  0  0  0  0  0  0  0  0  0
   -1.5453   -2.3742   -0.0482 H   0  0  0  0  0  0  0  0  0  0  0  0
   -2.2741   -1.8385    1.4671 H   0  0  0  0  0  0  0  0  0  0  0  0
   -0.4838   -1.9893    1.3708 H   0  0  0  0  0  0  0  0  0  0  0  0
   -0.9593    1.6809   -1.5083 H   0  0  0  0  0  0  0  0  0  0  0  0
   -1.1482    2.1793    1.4288 H   0  0  0  0  0  0  0  0  0  0  0  0
   -2.4584    2.2267    0.1929 H   0  0  0  0  0  0  0  0  0  0  0  0
   -1.2809    3.6042    0.2551 H   0  0  0  0  0  0  0  0  0  0  0  0
    0.9835    2.4424   -1.7197 H   0  0  0  0  0  0  0  0  0  0  0  0
  1  2  1  0
  2  3  1  0
  3  4  1  0
  4  5  1  0
  5  6  1  0
  4  7  1  0
  7  8  1  0
  7  9  1  0
  1 10  1  0
  1 11  1  0
  1 12  1  0
  2 13  1  0
  2 14  1  0
  3 15  1  0
  3 16  1  0
  4 17  1  0
  5 18  1  0
  5 19  1  0
  6 20  1  0
  6 21  1  0
  6 22  1  0
  7 23  1  0
  8 24  1  0
  8 25  1  0
  8 26  1  0
  9 27  1  0
M  END
