
     RDKit          3D

 21 21  0  0  0  0  0  0  0  0999 V2000
    3.1451    0.4489    0.0461 C   0  0  0  0  0  0  0  0  0  0  0  0
    1.6710    0.4402   -0.3501 C   0  0  0  0  0  0  0  0  0  0  0  0
    0.8594   -0.2829    0.7322 C   0  0  0  0  0  0  0  0  0  0  0  0
   -0.5691   -0.2591    0.2893 C   0  0  0  0  0  0  0  0  0  0  0  0
   -1.5571    0.3017    0.9715 C   0  0  0  0  0  0  0  0  0  0  0  0
   -2.8294    0.1331    0.2330 C   0  0  0  0  0  0  0  0  0  0  0  0
   -2.3604   -0.1352   -1.1338 C   0  0  0  0  0  0  0  0  0  0  0  0
   -2.9024    0.1714   -2.1538 O   0  0  0  0  0  0  0  0  0  0  0  0
   -1.0865   -0.8587   -0.9819 C   0  0  0  0  0  0  0  0  0  0  0  0
    3.3284    1.2946    0.7215 H   0  0  0  0  0  0  0  0  0  0  0  0
    3.4106   -0.4863    0.5599 H   0  0  0  0  0  0  0  0  0  0  0  0
    3.7218    0.5363   -0.9005 H   0  0  0  0  0  0  0  0  0  0  0  0
    1.3487    1.4966   -0.4327 H   0  0  0  0  0  0  0  0  0  0  0  0
    1.5887   -0.1255   -1.2948 H   0  0  0  0  0  0  0  0  0  0  0  0
    1.0139    0.2803    1.6586 H   0  0  0  0  0  0  0  0  0  0  0  0
    1.2411   -1.3114    0.8801 H   0  0  0  0  0  0  0  0  0  0  0  0
   -1.4860    0.8153    1.9279 H   0  0  0  0  0  0  0  0  0  0  0  0
   -3.3060   -0.7965    0.6093 H   0  0  0  0  0  0  0  0  0  0  0  0
   -3.4924    1.0126    0.3119 H   0  0  0  0  0  0  0  0  0  0  0  0
   -0.3902   -0.7334   -1.8209 H   0  0  0  0  0  0  0  0  0  0  0  0
   -1.3493   -1.9420   -0.8114 H   0  0  0  0  0  0  0  0  0  0  0  0
  1  2  1  0
  2  3  1  0
  3  4  1  0
  4  5  2  0
  5  6  1  0
  6  7  1  0
  7  8  2  0
  7  9  1  0
  9  4  1  0
  1 10  1  0
  1 11  1  0
  1 12  1  0
  2 13  1  0
  2 14  1  0
  3 15  1  0
  3 16  1  0
  5 17  1  0
  6 18  1  0
  6 19  1  0
  9 20  1  0
  9 21  1  0
M  END
