
     RDKit          3D

 25 25  0  0  0  0  0  0  0  0999 V2000
    2.1654    1.0215   -0.1359 C   0  0  0  0  0  0  0  0  0  0  0  0
    2.0244   -0.3665    0.3713 C   0  0  0  0  0  0  0  0  0  0  0  0
    0.6285   -0.7548    0.7900 C   0  0  0  0  0  0  0  0  0  0  0  0
   -0.3941   -0.6686   -0.2909 C   0  0  0  0  0  0  0  0  0  0  0  0
   -0.0598   -1.5597   -1.4877 C   0  0  0  0  0  0  0  0  0  0  0  0
   -1.8045   -1.0161    0.2338 C   0  0  0  0  0  0  0  0  0  0  0  0
   -1.4388    0.3235   -0.4316 C   0  0  0  0  0  0  0  0  0  0  0  0
   -1.7090    1.4879    0.4434 C   0  0  0  0  0  0  0  0  0  0  0  0
   -0.6565    2.3920    0.5286 O   0  0  0  0  0  0  0  0  0  0  0  0
    2.1027    1.7159    0.7448 H   0  0  0  0  0  0  0  0  0  0  0  0
    1.4127    1.2937   -0.9063 H   0  0  0  0  0  0  0  0  0  0  0  0
    3.1518    1.1609   -0.6230 H   0  0  0  0  0  0  0  0  0  0  0  0
    2.6673   -0.4539    1.2957 H   0  0  0  0  0  0  0  0  0  0  0  0
    2.4300   -1.1409   -0.3158 H   0  0  0  0  0  0  0  0  0  0  0  0
    0.3530   -0.2103    1.7135 H   0  0  0  0  0  0  0  0  0  0  0  0
    0.6971   -1.8434    1.0860 H   0  0  0  0  0  0  0  0  0  0  0  0
   -0.0035   -2.5928   -1.0922 H   0  0  0  0  0  0  0  0  0  0  0  0
    0.8764   -1.2494   -1.9760 H   0  0  0  0  0  0  0  0  0  0  0  0
   -0.8637   -1.4654   -2.2322 H   0  0  0  0  0  0  0  0  0  0  0  0
   -1.9768   -1.0337    1.3161 H   0  0  0  0  0  0  0  0  0  0  0  0
   -2.4458   -1.6887   -0.3428 H   0  0  0  0  0  0  0  0  0  0  0  0
   -1.8475    0.4372   -1.4821 H   0  0  0  0  0  0  0  0  0  0  0  0
   -2.0752    1.1981    1.4621 H   0  0  0  0  0  0  0  0  0  0  0  0
   -2.5578    2.0838   -0.0071 H   0  0  0  0  0  0  0  0  0  0  0  0
   -0.6766    2.9299    1.3382 H   0  0  0  0  0  0  0  0  0  0  0  0
  1  2  1  0
  2  3  1  0
  3  4  1  0
  4  5  1  0
  4  6  1  0
  6  7  1  0
  7  8  1  0
  8  9  1  0
  7  4  1  0
  1 10  1  0
  1 11  1  0
  1 12  1  0
  2 13  1  0
  2 14  1  0
  3 15  1  0
  3 16  1  0
  5 17  1  0
  5 18  1  0
  5 19  1  0
  6 20  1  0
  6 21  1  0
  7 22  1  0
  8 23  1  0
  8 24  1  0
  9 25  1  0
M  END
