
     RDKit          3D

 23 24  0  0  0  0  0  0  0  0999 V2000
    3.2842   -0.5771    0.4576 C   0  0  0  0  0  0  0  0  0  0  0  0
    2.0729    0.3559    0.3734 C   0  0  0  0  0  0  0  0  0  0  0  0
    1.1401   -0.2885   -0.6370 C   0  0  0  0  0  0  0  0  0  0  0  0
   -0.1240    0.5597   -0.8120 C   0  0  0  0  0  0  0  0  0  0  0  0
   -0.9922    0.8406    0.2481 C   0  0  0  0  0  0  0  0  0  0  0  0
   -2.3557    1.2237    0.4907 C   0  0  0  0  0  0  0  0  0  0  0  0
   -3.1117    0.1383    0.3508 C   0  0  0  0  0  0  0  0  0  0  0  0
   -2.1579   -0.9952   -0.0093 C   0  0  0  0  0  0  0  0  0  0  0  0
   -1.3244   -0.1409   -0.9255 C   0  0  0  0  0  0  0  0  0  0  0  0
    3.7372   -0.5674   -0.5516 H   0  0  0  0  0  0  0  0  0  0  0  0
    2.9254   -1.6056    0.6572 H   0  0  0  0  0  0  0  0  0  0  0  0
    3.9686   -0.2781    1.2516 H   0  0  0  0  0  0  0  0  0  0  0  0
    2.4580    1.3246   -0.0150 H   0  0  0  0  0  0  0  0  0  0  0  0
    1.5850    0.4695    1.3647 H   0  0  0  0  0  0  0  0  0  0  0  0
    0.8497   -1.2632   -0.2057 H   0  0  0  0  0  0  0  0  0  0  0  0
    1.6786   -0.3777   -1.5837 H   0  0  0  0  0  0  0  0  0  0  0  0
    0.1180    1.4044   -1.5104 H   0  0  0  0  0  0  0  0  0  0  0  0
   -0.6195    0.3532    1.2157 H   0  0  0  0  0  0  0  0  0  0  0  0
   -2.7430    2.2348    0.7504 H   0  0  0  0  0  0  0  0  0  0  0  0
   -4.1697    0.0134    0.4538 H   0  0  0  0  0  0  0  0  0  0  0  0
   -1.5235   -1.2690    0.8544 H   0  0  0  0  0  0  0  0  0  0  0  0
   -2.6741   -1.8184   -0.4910 H   0  0  0  0  0  0  0  0  0  0  0  0
   -2.0221    0.2629   -1.7270 H   0  0  0  0  0  0  0  0  0  0  0  0
  1  2  1  0
  2  3  1  0
  3  4  1  0
  4  5  1  0
  5  6  1  0
  6  7  2  0
  7  8  1  0
  8  9  1  0
  9  4  1  0
  9  5  1  0
  1 10  1  0
  1 11  1  0
  1 12  1  0
  2 13  1  0
  2 14  1  0
  3 15  1  0
  3 16  1  0
  4 17  1  0
  5 18  1  0
  6 19  1  0
  7 20  1  0
  8 21  1  0
  8 22  1  0
  9 23  1  0
M  END
