
     RDKit          3D

 22 21  0  0  0  0  0  0  0  0999 V2000
   -3.2902    0.3639   -0.2061 C   0  0  0  0  0  0  0  0  0  0  0  0
   -1.9245    0.2650    0.4155 C   0  0  0  0  0  0  0  0  0  0  0  0
   -0.8700   -0.1552   -0.5938 C   0  0  0  0  0  0  0  0  0  0  0  0
    0.4549   -0.2217    0.1365 C   0  0  0  0  0  0  0  0  0  0  0  0
    0.3873   -1.1448    1.1685 O   0  0  0  0  0  0  0  0  0  0  0  0
    1.5921   -0.5788   -0.7601 C   0  0  0  0  0  0  0  0  0  0  0  0
    2.7743   -0.5785   -0.0597 O   0  0  0  0  0  0  0  0  0  0  0  0
    3.1527    0.5927    0.5206 C   0  0  0  0  0  0  0  0  0  0  0  0
   -3.7158   -0.6117   -0.4550 H   0  0  0  0  0  0  0  0  0  0  0  0
   -3.2223    0.9491   -1.1488 H   0  0  0  0  0  0  0  0  0  0  0  0
   -3.9484    0.8682    0.5330 H   0  0  0  0  0  0  0  0  0  0  0  0
   -1.6236    1.2610    0.7867 H   0  0  0  0  0  0  0  0  0  0  0  0
   -1.9460   -0.4327    1.2810 H   0  0  0  0  0  0  0  0  0  0  0  0
   -0.8637    0.5582   -1.4222 H   0  0  0  0  0  0  0  0  0  0  0  0
   -1.1327   -1.1873   -0.9164 H   0  0  0  0  0  0  0  0  0  0  0  0
    0.6370    0.7684    0.5900 H   0  0  0  0  0  0  0  0  0  0  0  0
    0.4354   -2.0731    0.8927 H   0  0  0  0  0  0  0  0  0  0  0  0
    1.7123    0.1720   -1.5846 H   0  0  0  0  0  0  0  0  0  0  0  0
    1.4519   -1.5951   -1.2286 H   0  0  0  0  0  0  0  0  0  0  0  0
    2.4968    1.0297    1.2677 H   0  0  0  0  0  0  0  0  0  0  0  0
    3.3150    1.3598   -0.2735 H   0  0  0  0  0  0  0  0  0  0  0  0
    4.1276    0.3909    1.0566 H   0  0  0  0  0  0  0  0  0  0  0  0
  1  2  1  0
  2  3  1  0
  3  4  1  0
  4  5  1  0
  4  6  1  0
  6  7  1  0
  7  8  1  0
  1  9  1  0
  1 10  1  0
  1 11  1  0
  2 12  1  0
  2 13  1  0
  3 14  1  0
  3 15  1  0
  4 16  1  0
  5 17  1  0
  6 18  1  0
  6 19  1  0
  8 20  1  0
  8 21  1  0
  8 22  1  0
M  END
