
     RDKit          3D

 13 12  0  0  0  0  0  0  0  0999 V2000
   -1.3752    0.2547    0.5004 C   0  0  0  0  0  0  0  0  0  0  0  0
   -0.5458   -0.4710   -0.5205 C   0  0  0  0  0  0  0  0  0  0  0  0
    0.9101   -0.5456   -0.1404 C   0  0  0  0  0  0  0  0  0  0  0  0
    1.5333    0.7797    0.0165 C   0  0  0  0  0  0  0  0  0  0  0  0
    2.6954    0.8869    0.3194 O   0  0  0  0  0  0  0  0  0  0  0  0
   -2.4373   -0.0321    0.3363 H   0  0  0  0  0  0  0  0  0  0  0  0
   -1.3212    1.3475    0.3914 H   0  0  0  0  0  0  0  0  0  0  0  0
   -1.1263   -0.0910    1.5308 H   0  0  0  0  0  0  0  0  0  0  0  0
   -0.7038    0.0302   -1.4984 H   0  0  0  0  0  0  0  0  0  0  0  0
   -0.9651   -1.4913   -0.6287 H   0  0  0  0  0  0  0  0  0  0  0  0
    0.9792   -1.1721    0.7771 H   0  0  0  0  0  0  0  0  0  0  0  0
    1.4081   -1.1596   -0.9439 H   0  0  0  0  0  0  0  0  0  0  0  0
    0.9487    1.6636   -0.1399 H   0  0  0  0  0  0  0  0  0  0  0  0
  1  2  1  0
  2  3  1  0
  3  4  1  0
  4  5  2  0
  1  6  1  0
  1  7  1  0
  1  8  1  0
  2  9  1  0
  2 10  1  0
  3 11  1  0
  3 12  1  0
  4 13  1  0
M  END
