
     RDKit          3D

 22 21  0  0  0  0  0  0  0  0999 V2000
   -1.9904    1.1089   -0.6748 C   0  0  0  0  0  0  0  0  0  0  0  0
   -1.9445   -0.3817   -0.4419 C   0  0  0  0  0  0  0  0  0  0  0  0
   -1.2932   -0.7516    0.8481 C   0  0  0  0  0  0  0  0  0  0  0  0
    0.1317   -0.2901    0.9619 C   0  0  0  0  0  0  0  0  0  0  0  0
    1.0042   -0.8729   -0.1207 C   0  0  0  0  0  0  0  0  0  0  0  0
    2.4104   -0.3563    0.0746 C   0  0  0  0  0  0  0  0  0  0  0  0
    2.3800    1.1231   -0.0343 C   0  0  0  0  0  0  0  0  0  0  0  0
    3.4208    1.7378    0.1353 O   0  0  0  0  0  0  0  0  0  0  0  0
   -2.6474    1.2842   -1.5625 H   0  0  0  0  0  0  0  0  0  0  0  0
   -2.4029    1.6477    0.1908 H   0  0  0  0  0  0  0  0  0  0  0  0
   -0.9803    1.5165   -0.9277 H   0  0  0  0  0  0  0  0  0  0  0  0
   -3.0062   -0.7251   -0.3867 H   0  0  0  0  0  0  0  0  0  0  0  0
   -1.5103   -0.8706   -1.3274 H   0  0  0  0  0  0  0  0  0  0  0  0
   -1.8657   -0.2773    1.6687 H   0  0  0  0  0  0  0  0  0  0  0  0
   -1.3747   -1.8443    0.9763 H   0  0  0  0  0  0  0  0  0  0  0  0
    0.5208   -0.7207    1.9316 H   0  0  0  0  0  0  0  0  0  0  0  0
    0.1995    0.7992    1.0161 H   0  0  0  0  0  0  0  0  0  0  0  0
    0.9774   -1.9756   -0.1129 H   0  0  0  0  0  0  0  0  0  0  0  0
    0.5906   -0.5281   -1.0936 H   0  0  0  0  0  0  0  0  0  0  0  0
    3.1011   -0.7159   -0.7205 H   0  0  0  0  0  0  0  0  0  0  0  0
    2.7922   -0.5940    1.0832 H   0  0  0  0  0  0  0  0  0  0  0  0
    1.4870    1.6867   -0.2558 H   0  0  0  0  0  0  0  0  0  0  0  0
  1  2  1  0
  2  3  1  0
  3  4  1  0
  4  5  1  0
  5  6  1  0
  6  7  1  0
  7  8  2  0
  1  9  1  0
  1 10  1  0
  1 11  1  0
  2 12  1  0
  2 13  1  0
  3 14  1  0
  3 15  1  0
  4 16  1  0
  4 17  1  0
  5 18  1  0
  5 19  1  0
  6 20  1  0
  6 21  1  0
  7 22  1  0
M  END
