
     RDKit          3D

 22 22  0  0  0  0  0  0  0  0999 V2000
    3.1024   -0.0116   -0.3985 C   0  0  0  0  0  0  0  0  0  0  0  0
    1.6760   -0.4722   -0.4856 C   0  0  0  0  0  0  0  0  0  0  0  0
    0.7240    0.3989    0.3015 C   0  0  0  0  0  0  0  0  0  0  0  0
   -0.6601   -0.1705    0.1292 C   0  0  0  0  0  0  0  0  0  0  0  0
   -0.8229   -1.4643    0.5666 O   0  0  0  0  0  0  0  0  0  0  0  0
   -1.7756    0.7635    0.5940 C   0  0  0  0  0  0  0  0  0  0  0  0
   -2.5985    0.1252   -0.5364 C   0  0  0  0  0  0  0  0  0  0  0  0
   -1.2490   -0.0151   -1.2576 C   0  0  0  0  0  0  0  0  0  0  0  0
    3.1726    1.0971   -0.3913 H   0  0  0  0  0  0  0  0  0  0  0  0
    3.6223   -0.3613   -1.3184 H   0  0  0  0  0  0  0  0  0  0  0  0
    3.5836   -0.4832    0.4625 H   0  0  0  0  0  0  0  0  0  0  0  0
    1.3055   -0.5302   -1.5283 H   0  0  0  0  0  0  0  0  0  0  0  0
    1.6254   -1.4931   -0.0271 H   0  0  0  0  0  0  0  0  0  0  0  0
    0.7914    1.4613    0.0632 H   0  0  0  0  0  0  0  0  0  0  0  0
    0.9690    0.3035    1.3912 H   0  0  0  0  0  0  0  0  0  0  0  0
   -1.2870   -1.5433    1.4399 H   0  0  0  0  0  0  0  0  0  0  0  0
   -1.5445    1.8145    0.3804 H   0  0  0  0  0  0  0  0  0  0  0  0
   -2.1405    0.5256    1.6002 H   0  0  0  0  0  0  0  0  0  0  0  0
   -3.3027    0.7924   -1.0212 H   0  0  0  0  0  0  0  0  0  0  0  0
   -2.9892   -0.8439   -0.1559 H   0  0  0  0  0  0  0  0  0  0  0  0
   -1.1676   -0.8708   -1.9207 H   0  0  0  0  0  0  0  0  0  0  0  0
   -1.0348    0.9775   -1.7327 H   0  0  0  0  0  0  0  0  0  0  0  0
  1  2  1  0
  2  3  1  0
  3  4  1  0
  4  5  1  0
  4  6  1  0
  6  7  1  0
  7  8  1  0
  8  4  1  0
  1  9  1  0
  1 10  1  0
  1 11  1  0
  2 12  1  0
  2 13  1  0
  3 14  1  0
  3 15  1  0
  5 16  1  0
  6 17  1  0
  6 18  1  0
  7 19  1  0
  7 20  1  0
  8 21  1  0
  8 22  1  0
M  END
