
     RDKit          3D

 23 23  0  0  0  0  0  0  0  0999 V2000
    2.7431    0.4580    0.9060 C   0  0  0  0  0  0  0  0  0  0  0  0
    1.9159    0.8015   -0.2659 C   0  0  0  0  0  0  0  0  0  0  0  0
    0.9259   -0.2055   -0.7106 C   0  0  0  0  0  0  0  0  0  0  0  0
   -0.1153   -0.5934    0.2744 C   0  0  0  0  0  0  0  0  0  0  0  0
   -1.0505   -1.6060   -0.2781 C   0  0  0  0  0  0  0  0  0  0  0  0
   -2.3046   -1.3509    0.0141 C   0  0  0  0  0  0  0  0  0  0  0  0
   -2.3885   -0.1162    0.8147 C   0  0  0  0  0  0  0  0  0  0  0  0
   -1.0889    0.5800    0.5129 C   0  0  0  0  0  0  0  0  0  0  0  0
   -1.2175    1.2528   -0.6749 O   0  0  0  0  0  0  0  0  0  0  0  0
    3.7367    0.0215    0.6157 H   0  0  0  0  0  0  0  0  0  0  0  0
    2.3054   -0.2618    1.6139 H   0  0  0  0  0  0  0  0  0  0  0  0
    3.0145    1.3769    1.5046 H   0  0  0  0  0  0  0  0  0  0  0  0
    2.5958    1.0095   -1.1291 H   0  0  0  0  0  0  0  0  0  0  0  0
    1.4132    1.7845   -0.0644 H   0  0  0  0  0  0  0  0  0  0  0  0
    0.3991    0.2178   -1.6071 H   0  0  0  0  0  0  0  0  0  0  0  0
    1.4229   -1.1261   -1.0824 H   0  0  0  0  0  0  0  0  0  0  0  0
    0.2237   -0.8968    1.2559 H   0  0  0  0  0  0  0  0  0  0  0  0
   -0.7658   -2.4923   -0.8749 H   0  0  0  0  0  0  0  0  0  0  0  0
   -3.2036   -1.9223   -0.2603 H   0  0  0  0  0  0  0  0  0  0  0  0
   -3.2699    0.5124    0.5419 H   0  0  0  0  0  0  0  0  0  0  0  0
   -2.4629   -0.3820    1.8938 H   0  0  0  0  0  0  0  0  0  0  0  0
   -0.7768    1.1833    1.3648 H   0  0  0  0  0  0  0  0  0  0  0  0
   -2.0515    1.7553   -0.6805 H   0  0  0  0  0  0  0  0  0  0  0  0
  1  2  1  0
  2  3  1  0
  3  4  1  0
  4  5  1  0
  5  6  2  0
  6  7  1  0
  7  8  1  0
  8  9  1  0
  8  4  1  0
  1 10  1  0
  1 11  1  0
  1 12  1  0
  2 13  1  0
  2 14  1  0
  3 15  1  0
  3 16  1  0
  4 17  1  0
  5 18  1  0
  6 19  1  0
  7 20  1  0
  7 21  1  0
  8 22  1  0
  9 23  1  0
M  END
