
     RDKit          3D

 23 23  0  0  0  0  0  0  0  0999 V2000
    2.8942    0.5973   -0.4486 C   0  0  0  0  0  0  0  0  0  0  0  0
    1.7266   -0.3371   -0.1587 C   0  0  0  0  0  0  0  0  0  0  0  0
    0.5107    0.5255   -0.0139 C   0  0  0  0  0  0  0  0  0  0  0  0
   -0.7466   -0.2409    0.2777 C   0  0  0  0  0  0  0  0  0  0  0  0
   -1.9646    0.6699    0.4188 C   0  0  0  0  0  0  0  0  0  0  0  0
   -2.1163    1.3928   -0.8729 C   0  0  0  0  0  0  0  0  0  0  0  0
   -3.0269    2.2049   -1.0496 O   0  0  0  0  0  0  0  0  0  0  0  0
   -0.7096   -1.5050    1.0764 C   0  0  0  0  0  0  0  0  0  0  0  0
   -1.0371   -1.5307   -0.3984 C   0  0  0  0  0  0  0  0  0  0  0  0
    2.9946    0.7544   -1.5465 H   0  0  0  0  0  0  0  0  0  0  0  0
    2.7642    1.5692    0.0851 H   0  0  0  0  0  0  0  0  0  0  0  0
    3.8531    0.1746   -0.1001 H   0  0  0  0  0  0  0  0  0  0  0  0
    1.9895   -0.8753    0.7718 H   0  0  0  0  0  0  0  0  0  0  0  0
    1.6142   -1.0546   -0.9972 H   0  0  0  0  0  0  0  0  0  0  0  0
    0.6769    1.2201    0.8388 H   0  0  0  0  0  0  0  0  0  0  0  0
    0.4185    1.1443   -0.9126 H   0  0  0  0  0  0  0  0  0  0  0  0
   -1.8139    1.4336    1.2009 H   0  0  0  0  0  0  0  0  0  0  0  0
   -2.8885    0.0656    0.5944 H   0  0  0  0  0  0  0  0  0  0  0  0
   -1.4512    1.2547   -1.7218 H   0  0  0  0  0  0  0  0  0  0  0  0
   -1.5239   -1.7040    1.8168 H   0  0  0  0  0  0  0  0  0  0  0  0
    0.2478   -1.9473    1.3724 H   0  0  0  0  0  0  0  0  0  0  0  0
   -2.0882   -1.8222   -0.6040 H   0  0  0  0  0  0  0  0  0  0  0  0
   -0.3235   -1.9897   -1.1041 H   0  0  0  0  0  0  0  0  0  0  0  0
  1  2  1  0
  2  3  1  0
  3  4  1  0
  4  5  1  0
  5  6  1  0
  6  7  2  0
  4  8  1  0
  8  9  1  0
  9  4  1  0
  1 10  1  0
  1 11  1  0
  1 12  1  0
  2 13  1  0
  2 14  1  0
  3 15  1  0
  3 16  1  0
  5 17  1  0
  5 18  1  0
  6 19  1  0
  8 20  1  0
  8 21  1  0
  9 22  1  0
  9 23  1  0
M  END
