
     RDKit          3D

 23 22  0  0  0  0  0  0  0  0999 V2000
    2.8142   -0.2705   -0.3770 C   0  0  0  0  0  0  0  0  0  0  0  0
    2.2869    0.5651    0.7704 C   0  0  0  0  0  0  0  0  0  0  0  0
    0.8249    0.8221    0.6392 C   0  0  0  0  0  0  0  0  0  0  0  0
    0.0007   -0.4412    0.6194 C   0  0  0  0  0  0  0  0  0  0  0  0
   -1.4732   -0.1685    0.4867 C   0  0  0  0  0  0  0  0  0  0  0  0
   -2.1666   -1.4770    0.4794 C   0  0  0  0  0  0  0  0  0  0  0  0
   -2.7820   -1.8811   -0.4784 O   0  0  0  0  0  0  0  0  0  0  0  0
   -1.8122    0.5367   -0.8101 C   0  0  0  0  0  0  0  0  0  0  0  0
   -3.2145    0.7219   -0.7893 O   0  0  0  0  0  0  0  0  0  0  0  0
    2.6632   -1.3636   -0.1792 H   0  0  0  0  0  0  0  0  0  0  0  0
    2.3602    0.0466   -1.3271 H   0  0  0  0  0  0  0  0  0  0  0  0
    3.9151   -0.1467   -0.4909 H   0  0  0  0  0  0  0  0  0  0  0  0
    2.8209    1.5364    0.7207 H   0  0  0  0  0  0  0  0  0  0  0  0
    2.5737    0.1089    1.7394 H   0  0  0  0  0  0  0  0  0  0  0  0
    0.4637    1.4758    1.4497 H   0  0  0  0  0  0  0  0  0  0  0  0
    0.6581    1.3542   -0.3209 H   0  0  0  0  0  0  0  0  0  0  0  0
    0.2867   -1.0814   -0.2499 H   0  0  0  0  0  0  0  0  0  0  0  0
    0.1479   -1.0573    1.5229 H   0  0  0  0  0  0  0  0  0  0  0  0
   -1.8779    0.3907    1.3642 H   0  0  0  0  0  0  0  0  0  0  0  0
   -2.1162   -2.0851    1.3634 H   0  0  0  0  0  0  0  0  0  0  0  0
   -1.5529   -0.0856   -1.6908 H   0  0  0  0  0  0  0  0  0  0  0  0
   -1.3317    1.5055   -0.9273 H   0  0  0  0  0  0  0  0  0  0  0  0
   -3.4889    0.9940   -1.6912 H   0  0  0  0  0  0  0  0  0  0  0  0
  1  2  1  0
  2  3  1  0
  3  4  1  0
  4  5  1  0
  5  6  1  0
  6  7  2  0
  5  8  1  0
  8  9  1  0
  1 10  1  0
  1 11  1  0
  1 12  1  0
  2 13  1  0
  2 14  1  0
  3 15  1  0
  3 16  1  0
  4 17  1  0
  4 18  1  0
  5 19  1  0
  6 20  1  0
  8 21  1  0
  8 22  1  0
  9 23  1  0
M  END
