
     RDKit          3D

 23 23  0  0  0  0  0  0  0  0999 V2000
    3.6606    0.5887    0.6194 C   0  0  0  0  0  0  0  0  0  0  0  0
    2.4401   -0.2629    0.8299 C   0  0  0  0  0  0  0  0  0  0  0  0
    1.3562    0.0277   -0.1542 C   0  0  0  0  0  0  0  0  0  0  0  0
    0.1933   -0.8514    0.1234 C   0  0  0  0  0  0  0  0  0  0  0  0
    0.2792   -1.6345    1.0596 O   0  0  0  0  0  0  0  0  0  0  0  0
   -1.0581   -0.8059   -0.6944 C   0  0  0  0  0  0  0  0  0  0  0  0
   -2.1932   -0.1682    0.0773 C   0  0  0  0  0  0  0  0  0  0  0  0
   -3.5320   -0.0637   -0.6497 C   0  0  0  0  0  0  0  0  0  0  0  0
   -2.7247    1.1583   -0.2992 C   0  0  0  0  0  0  0  0  0  0  0  0
    4.1600    0.2460   -0.2987 H   0  0  0  0  0  0  0  0  0  0  0  0
    3.3958    1.6733    0.5847 H   0  0  0  0  0  0  0  0  0  0  0  0
    4.3275    0.4799    1.5092 H   0  0  0  0  0  0  0  0  0  0  0  0
    2.7639   -1.3282    0.6435 H   0  0  0  0  0  0  0  0  0  0  0  0
    2.1035   -0.2439    1.8851 H   0  0  0  0  0  0  0  0  0  0  0  0
    1.7213   -0.2424   -1.1687 H   0  0  0  0  0  0  0  0  0  0  0  0
    1.0704    1.0942   -0.2043 H   0  0  0  0  0  0  0  0  0  0  0  0
   -0.9127   -0.3120   -1.6612 H   0  0  0  0  0  0  0  0  0  0  0  0
   -1.3655   -1.8533   -0.8940 H   0  0  0  0  0  0  0  0  0  0  0  0
   -2.2750   -0.4881    1.1254 H   0  0  0  0  0  0  0  0  0  0  0  0
   -4.4651   -0.1502   -0.0539 H   0  0  0  0  0  0  0  0  0  0  0  0
   -3.5523   -0.3903   -1.7214 H   0  0  0  0  0  0  0  0  0  0  0  0
   -3.0535    1.8199    0.5202 H   0  0  0  0  0  0  0  0  0  0  0  0
   -2.3396    1.7068   -1.1781 H   0  0  0  0  0  0  0  0  0  0  0  0
  1  2  1  0
  2  3  1  0
  3  4  1  0
  4  5  2  0
  4  6  1  0
  6  7  1  0
  7  8  1  0
  8  9  1  0
  9  7  1  0
  1 10  1  0
  1 11  1  0
  1 12  1  0
  2 13  1  0
  2 14  1  0
  3 15  1  0
  3 16  1  0
  6 17  1  0
  6 18  1  0
  7 19  1  0
  8 20  1  0
  8 21  1  0
  9 22  1  0
  9 23  1  0
M  END
