
     RDKit          3D

 29 28  0  0  0  0  0  0  0  0999 V2000
   -2.8887    1.7335    0.3957 C   0  0  0  0  0  0  0  0  0  0  0  0
   -1.4191    1.2340    0.5315 C   0  0  0  0  0  0  0  0  0  0  0  0
   -1.3434   -0.0714   -0.1396 C   0  0  0  0  0  0  0  0  0  0  0  0
   -0.1297   -0.8708   -0.1742 C   0  0  0  0  0  0  0  0  0  0  0  0
   -0.5122   -2.1555   -0.9761 C   0  0  0  0  0  0  0  0  0  0  0  0
    0.1852   -1.4761    1.2260 C   0  0  0  0  0  0  0  0  0  0  0  0
    1.1368   -0.4014   -0.7306 C   0  0  0  0  0  0  0  0  0  0  0  0
    1.8164    0.7787   -0.1435 C   0  0  0  0  0  0  0  0  0  0  0  0
    3.1512    1.0595   -0.8821 C   0  0  0  0  0  0  0  0  0  0  0  0
   -3.5573    1.0765    0.9553 H   0  0  0  0  0  0  0  0  0  0  0  0
   -2.8833    2.7873    0.7370 H   0  0  0  0  0  0  0  0  0  0  0  0
   -3.0671    1.7496   -0.6981 H   0  0  0  0  0  0  0  0  0  0  0  0
   -0.8914    2.0584   -0.0280 H   0  0  0  0  0  0  0  0  0  0  0  0
   -1.1363    1.1695    1.5857 H   0  0  0  0  0  0  0  0  0  0  0  0
   -2.1461   -0.7238    0.3515 H   0  0  0  0  0  0  0  0  0  0  0  0
   -1.7917    0.0722   -1.1819 H   0  0  0  0  0  0  0  0  0  0  0  0
   -1.2455   -2.6752   -0.3419 H   0  0  0  0  0  0  0  0  0  0  0  0
    0.3794   -2.7606   -1.1445 H   0  0  0  0  0  0  0  0  0  0  0  0
   -1.0005   -1.8757   -1.9125 H   0  0  0  0  0  0  0  0  0  0  0  0
   -0.5281   -2.3016    1.4394 H   0  0  0  0  0  0  0  0  0  0  0  0
    0.0589   -0.7089    1.9899 H   0  0  0  0  0  0  0  0  0  0  0  0
    1.1925   -1.8944    1.2052 H   0  0  0  0  0  0  0  0  0  0  0  0
    1.1064   -0.3521   -1.8644 H   0  0  0  0  0  0  0  0  0  0  0  0
    1.8770   -1.2609   -0.5842 H   0  0  0  0  0  0  0  0  0  0  0  0
    1.3076    1.7447   -0.2050 H   0  0  0  0  0  0  0  0  0  0  0  0
    2.0610    0.5490    0.9204 H   0  0  0  0  0  0  0  0  0  0  0  0
    2.8809    1.5749   -1.8160 H   0  0  0  0  0  0  0  0  0  0  0  0
    3.6678    1.8090   -0.2431 H   0  0  0  0  0  0  0  0  0  0  0  0
    3.7193    0.1315   -1.0244 H   0  0  0  0  0  0  0  0  0  0  0  0
  1  2  1  0
  2  3  1  0
  3  4  1  0
  4  5  1  0
  4  6  1  0
  4  7  1  0
  7  8  1  0
  8  9  1  0
  1 10  1  0
  1 11  1  0
  1 12  1  0
  2 13  1  0
  2 14  1  0
  3 15  1  0
  3 16  1  0
  5 17  1  0
  5 18  1  0
  5 19  1  0
  6 20  1  0
  6 21  1  0
  6 22  1  0
  7 23  1  0
  7 24  1  0
  8 25  1  0
  8 26  1  0
  9 27  1  0
  9 28  1  0
  9 29  1  0
M  END
