
     RDKit          3D

 23 23  0  0  0  0  0  0  0  0999 V2000
    2.9996    0.7457   -0.0809 C   0  0  0  0  0  0  0  0  0  0  0  0
    1.5994    0.3407    0.3725 C   0  0  0  0  0  0  0  0  0  0  0  0
    0.9615   -0.3642   -0.8235 C   0  0  0  0  0  0  0  0  0  0  0  0
   -0.4379   -0.7935   -0.4367 C   0  0  0  0  0  0  0  0  0  0  0  0
   -0.5793   -1.7332    0.7145 C   0  0  0  0  0  0  0  0  0  0  0  0
   -1.4133   -0.8977   -1.4133 O   0  0  0  0  0  0  0  0  0  0  0  0
   -1.4964    0.2595   -0.6589 C   0  0  0  0  0  0  0  0  0  0  0  0
   -2.5722    0.4298    0.3640 C   0  0  0  0  0  0  0  0  0  0  0  0
   -2.3900    1.6972    0.9557 O   0  0  0  0  0  0  0  0  0  0  0  0
    3.3616   -0.0601   -0.7543 H   0  0  0  0  0  0  0  0  0  0  0  0
    2.9226    1.6957   -0.6799 H   0  0  0  0  0  0  0  0  0  0  0  0
    3.6848    0.8864    0.7707 H   0  0  0  0  0  0  0  0  0  0  0  0
    1.6437   -0.3027    1.2483 H   0  0  0  0  0  0  0  0  0  0  0  0
    1.0383    1.2859    0.5239 H   0  0  0  0  0  0  0  0  0  0  0  0
    0.9495    0.3864   -1.6395 H   0  0  0  0  0  0  0  0  0  0  0  0
    1.5930   -1.2194   -1.1522 H   0  0  0  0  0  0  0  0  0  0  0  0
   -1.6164   -2.0850    0.7810 H   0  0  0  0  0  0  0  0  0  0  0  0
   -0.2192   -1.2904    1.6814 H   0  0  0  0  0  0  0  0  0  0  0  0
    0.0422   -2.6574    0.5447 H   0  0  0  0  0  0  0  0  0  0  0  0
   -1.2022    1.1728   -1.2447 H   0  0  0  0  0  0  0  0  0  0  0  0
   -3.5911    0.4346   -0.0572 H   0  0  0  0  0  0  0  0  0  0  0  0
   -2.5014   -0.2955    1.1954 H   0  0  0  0  0  0  0  0  0  0  0  0
   -2.7767    2.3643    0.3132 H   0  0  0  0  0  0  0  0  0  0  0  0
  1  2  1  0
  2  3  1  0
  3  4  1  0
  4  5  1  0
  4  6  1  0
  6  7  1  0
  7  8  1  0
  8  9  1  0
  7  4  1  0
  1 10  1  0
  1 11  1  0
  1 12  1  0
  2 13  1  0
  2 14  1  0
  3 15  1  0
  3 16  1  0
  5 17  1  0
  5 18  1  0
  5 19  1  0
  7 20  1  0
  8 21  1  0
  8 22  1  0
  9 23  1  0
M  END
