
     RDKit          3D

 25 24  0  0  0  0  0  0  0  0999 V2000
    3.1184   -0.1391    0.6383 C   0  0  0  0  0  0  0  0  0  0  0  0
    1.8730   -0.3680   -0.1930 C   0  0  0  0  0  0  0  0  0  0  0  0
    0.8503    0.6685    0.1639 C   0  0  0  0  0  0  0  0  0  0  0  0
   -0.4203    0.5117   -0.6194 C   0  0  0  0  0  0  0  0  0  0  0  0
   -1.3876    1.5792   -0.2078 C   0  0  0  0  0  0  0  0  0  0  0  0
   -2.5979    1.5136   -0.8824 O   0  0  0  0  0  0  0  0  0  0  0  0
   -0.9548   -0.8689   -0.5653 C   0  0  0  0  0  0  0  0  0  0  0  0
   -1.2880   -1.3737    0.7924 C   0  0  0  0  0  0  0  0  0  0  0  0
   -2.1106   -0.9477   -1.3499 O   0  0  0  0  0  0  0  0  0  0  0  0
    3.8449    0.5261    0.0983 H   0  0  0  0  0  0  0  0  0  0  0  0
    2.8730    0.4152    1.5787 H   0  0  0  0  0  0  0  0  0  0  0  0
    3.6102   -1.1045    0.8731 H   0  0  0  0  0  0  0  0  0  0  0  0
    2.1398   -0.2194   -1.2600 H   0  0  0  0  0  0  0  0  0  0  0  0
    1.5290   -1.4051   -0.0055 H   0  0  0  0  0  0  0  0  0  0  0  0
    0.6240    0.6708    1.2620 H   0  0  0  0  0  0  0  0  0  0  0  0
    1.2935    1.6612   -0.0546 H   0  0  0  0  0  0  0  0  0  0  0  0
   -0.1537    0.7221   -1.6958 H   0  0  0  0  0  0  0  0  0  0  0  0
   -0.9769    2.5929   -0.3912 H   0  0  0  0  0  0  0  0  0  0  0  0
   -1.6053    1.5127    0.8751 H   0  0  0  0  0  0  0  0  0  0  0  0
   -3.2563    2.0076   -0.3264 H   0  0  0  0  0  0  0  0  0  0  0  0
   -0.2153   -1.5455   -1.0526 H   0  0  0  0  0  0  0  0  0  0  0  0
   -0.7108   -0.8982    1.6077 H   0  0  0  0  0  0  0  0  0  0  0  0
   -1.0510   -2.4636    0.8303 H   0  0  0  0  0  0  0  0  0  0  0  0
   -2.3848   -1.3052    0.9737 H   0  0  0  0  0  0  0  0  0  0  0  0
   -2.6428   -1.7428   -1.0895 H   0  0  0  0  0  0  0  0  0  0  0  0
  1  2  1  0
  2  3  1  0
  3  4  1  0
  4  5  1  0
  5  6  1  0
  4  7  1  0
  7  8  1  0
  7  9  1  0
  1 10  1  0
  1 11  1  0
  1 12  1  0
  2 13  1  0
  2 14  1  0
  3 15  1  0
  3 16  1  0
  4 17  1  0
  5 18  1  0
  5 19  1  0
  6 20  1  0
  7 21  1  0
  8 22  1  0
  8 23  1  0
  8 24  1  0
  9 25  1  0
M  END
