
     RDKit          3D

 23 22  0  0  0  0  0  0  0  0999 V2000
   -3.3420   -0.1764   -0.1569 C   0  0  0  0  0  0  0  0  0  0  0  0
   -1.9469    0.3805    0.0406 C   0  0  0  0  0  0  0  0  0  0  0  0
   -0.9920   -0.5444   -0.6465 C   0  0  0  0  0  0  0  0  0  0  0  0
    0.4537   -0.0893   -0.5195 C   0  0  0  0  0  0  0  0  0  0  0  0
    1.2756   -0.9997   -1.1831 O   0  0  0  0  0  0  0  0  0  0  0  0
    0.8827   -0.0553    0.9233 C   0  0  0  0  0  0  0  0  0  0  0  0
    2.2944    0.3884    1.0520 C   0  0  0  0  0  0  0  0  0  0  0  0
    3.0687    0.7229   -0.1464 C   0  0  0  0  0  0  0  0  0  0  0  0
    2.7978    0.4695    2.1699 O   0  0  0  0  0  0  0  0  0  0  0  0
   -3.8150    0.1875   -1.0836 H   0  0  0  0  0  0  0  0  0  0  0  0
   -3.9619    0.0973    0.7057 H   0  0  0  0  0  0  0  0  0  0  0  0
   -3.3330   -1.2873   -0.2134 H   0  0  0  0  0  0  0  0  0  0  0  0
   -1.9200    1.3515   -0.5015 H   0  0  0  0  0  0  0  0  0  0  0  0
   -1.7263    0.5705    1.0984 H   0  0  0  0  0  0  0  0  0  0  0  0
   -1.2504   -0.5281   -1.7357 H   0  0  0  0  0  0  0  0  0  0  0  0
   -1.1099   -1.5924   -0.3049 H   0  0  0  0  0  0  0  0  0  0  0  0
    0.6087    0.8986   -0.9953 H   0  0  0  0  0  0  0  0  0  0  0  0
    0.9610   -1.9021   -0.9318 H   0  0  0  0  0  0  0  0  0  0  0  0
    0.2605    0.6280    1.5386 H   0  0  0  0  0  0  0  0  0  0  0  0
    0.8220   -1.0529    1.4041 H   0  0  0  0  0  0  0  0  0  0  0  0
    2.5512    1.4549   -0.7792 H   0  0  0  0  0  0  0  0  0  0  0  0
    3.4015   -0.1499   -0.7409 H   0  0  0  0  0  0  0  0  0  0  0  0
    4.0196    1.2283    0.1698 H   0  0  0  0  0  0  0  0  0  0  0  0
  1  2  1  0
  2  3  1  0
  3  4  1  0
  4  5  1  0
  4  6  1  0
  6  7  1  0
  7  8  1  0
  7  9  2  0
  1 10  1  0
  1 11  1  0
  1 12  1  0
  2 13  1  0
  2 14  1  0
  3 15  1  0
  3 16  1  0
  4 17  1  0
  5 18  1  0
  6 19  1  0
  6 20  1  0
  8 21  1  0
  8 22  1  0
  8 23  1  0
M  END
