
     RDKit          3D

 23 22  0  0  0  0  0  0  0  0999 V2000
   -3.8050    0.4232    1.0715 C   0  0  0  0  0  0  0  0  0  0  0  0
   -2.8208    0.1680   -0.0232 C   0  0  0  0  0  0  0  0  0  0  0  0
   -1.4124   -0.0333    0.5024 C   0  0  0  0  0  0  0  0  0  0  0  0
   -0.4825   -0.2852   -0.6690 C   0  0  0  0  0  0  0  0  0  0  0  0
    0.9076   -0.4910   -0.2418 C   0  0  0  0  0  0  0  0  0  0  0  0
    1.1968   -0.4457    0.9739 O   0  0  0  0  0  0  0  0  0  0  0  0
    1.8874   -0.7319   -1.1632 O   0  0  0  0  0  0  0  0  0  0  0  0
    3.2453   -0.9411   -0.8503 C   0  0  0  0  0  0  0  0  0  0  0  0
    3.8866    0.2060   -0.1440 C   0  0  0  0  0  0  0  0  0  0  0  0
   -4.1832    1.4742    1.0447 H   0  0  0  0  0  0  0  0  0  0  0  0
   -3.3444    0.3185    2.0951 H   0  0  0  0  0  0  0  0  0  0  0  0
   -4.6847   -0.2568    1.0192 H   0  0  0  0  0  0  0  0  0  0  0  0
   -3.1053   -0.6921   -0.6580 H   0  0  0  0  0  0  0  0  0  0  0  0
   -2.8049    1.0631   -0.7104 H   0  0  0  0  0  0  0  0  0  0  0  0
   -1.4097   -0.9079    1.1842 H   0  0  0  0  0  0  0  0  0  0  0  0
   -1.1005    0.8416    1.1071 H   0  0  0  0  0  0  0  0  0  0  0  0
   -0.9114   -1.1634   -1.2171 H   0  0  0  0  0  0  0  0  0  0  0  0
   -0.5750    0.5750   -1.3783 H   0  0  0  0  0  0  0  0  0  0  0  0
    3.4168   -1.8615   -0.2615 H   0  0  0  0  0  0  0  0  0  0  0  0
    3.7746   -1.0942   -1.8288 H   0  0  0  0  0  0  0  0  0  0  0  0
    4.5296    0.7958   -0.8580 H   0  0  0  0  0  0  0  0  0  0  0  0
    4.6144   -0.1465    0.6440 H   0  0  0  0  0  0  0  0  0  0  0  0
    3.1810    0.8856    0.3614 H   0  0  0  0  0  0  0  0  0  0  0  0
  1  2  1  0
  2  3  1  0
  3  4  1  0
  4  5  1  0
  5  6  2  0
  5  7  1  0
  7  8  1  0
  8  9  1  0
  1 10  1  0
  1 11  1  0
  1 12  1  0
  2 13  1  0
  2 14  1  0
  3 15  1  0
  3 16  1  0
  4 17  1  0
  4 18  1  0
  8 19  1  0
  8 20  1  0
  9 21  1  0
  9 22  1  0
  9 23  1  0
M  END
