
     RDKit          3D

 23 23  0  0  0  0  0  0  0  0999 V2000
    2.9895    0.0468   -0.6452 C   0  0  0  0  0  0  0  0  0  0  0  0
    1.6287   -0.5777   -0.3146 C   0  0  0  0  0  0  0  0  0  0  0  0
    0.9339    0.3847    0.5971 C   0  0  0  0  0  0  0  0  0  0  0  0
   -0.4233   -0.0281    1.0525 C   0  0  0  0  0  0  0  0  0  0  0  0
   -0.8874    1.0126    1.8926 O   0  0  0  0  0  0  0  0  0  0  0  0
   -1.4145   -0.2793   -0.0414 C   0  0  0  0  0  0  0  0  0  0  0  0
   -1.9781    0.9671   -0.6953 C   0  0  0  0  0  0  0  0  0  0  0  0
   -2.1828   -1.5064   -0.0218 C   0  0  0  0  0  0  0  0  0  0  0  0
   -1.1330   -1.2886   -0.9841 O   0  0  0  0  0  0  0  0  0  0  0  0
    2.7760    0.8562   -1.3753 H   0  0  0  0  0  0  0  0  0  0  0  0
    3.7003   -0.7032   -1.0094 H   0  0  0  0  0  0  0  0  0  0  0  0
    3.3523    0.5654    0.2829 H   0  0  0  0  0  0  0  0  0  0  0  0
    1.7415   -1.5535    0.1809 H   0  0  0  0  0  0  0  0  0  0  0  0
    1.1095   -0.7473   -1.2790 H   0  0  0  0  0  0  0  0  0  0  0  0
    1.5777    0.5348    1.4788 H   0  0  0  0  0  0  0  0  0  0  0  0
    0.8273    1.3631    0.0714 H   0  0  0  0  0  0  0  0  0  0  0  0
   -0.3820   -0.9273    1.7130 H   0  0  0  0  0  0  0  0  0  0  0  0
   -0.8407    1.8652    1.3843 H   0  0  0  0  0  0  0  0  0  0  0  0
   -1.1860    1.7419   -0.6430 H   0  0  0  0  0  0  0  0  0  0  0  0
   -2.8895    1.3222   -0.1725 H   0  0  0  0  0  0  0  0  0  0  0  0
   -2.2256    0.8287   -1.7540 H   0  0  0  0  0  0  0  0  0  0  0  0
   -3.2036   -1.5833   -0.4240 H   0  0  0  0  0  0  0  0  0  0  0  0
   -1.8902   -2.2942    0.7062 H   0  0  0  0  0  0  0  0  0  0  0  0
  1  2  1  0
  2  3  1  0
  3  4  1  0
  4  5  1  0
  4  6  1  0
  6  7  1  0
  6  8  1  0
  8  9  1  0
  9  6  1  0
  1 10  1  0
  1 11  1  0
  1 12  1  0
  2 13  1  0
  2 14  1  0
  3 15  1  0
  3 16  1  0
  4 17  1  0
  5 18  1  0
  7 19  1  0
  7 20  1  0
  7 21  1  0
  8 22  1  0
  8 23  1  0
M  END
