
     RDKit          3D

 26 25  0  0  0  0  0  0  0  0999 V2000
    2.9059   -0.5001   -0.2321 C   0  0  0  0  0  0  0  0  0  0  0  0
    1.4584   -0.3010   -0.6333 C   0  0  0  0  0  0  0  0  0  0  0  0
    0.6123   -0.0553    0.5915 C   0  0  0  0  0  0  0  0  0  0  0  0
   -0.8289    0.1521    0.2978 C   0  0  0  0  0  0  0  0  0  0  0  0
   -1.5065   -0.9943   -0.3875 C   0  0  0  0  0  0  0  0  0  0  0  0
   -1.4911   -2.2727    0.3597 C   0  0  0  0  0  0  0  0  0  0  0  0
   -1.0519    1.4062   -0.5189 C   0  0  0  0  0  0  0  0  0  0  0  0
   -0.5626    2.6445    0.1937 C   0  0  0  0  0  0  0  0  0  0  0  0
    3.0723   -1.5132    0.2074 H   0  0  0  0  0  0  0  0  0  0  0  0
    3.5887   -0.3098   -1.0891 H   0  0  0  0  0  0  0  0  0  0  0  0
    3.1287    0.2266    0.5780 H   0  0  0  0  0  0  0  0  0  0  0  0
    1.3698    0.4756   -1.3903 H   0  0  0  0  0  0  0  0  0  0  0  0
    1.0857   -1.2523   -1.0890 H   0  0  0  0  0  0  0  0  0  0  0  0
    0.9944    0.9025    1.0404 H   0  0  0  0  0  0  0  0  0  0  0  0
    0.7830   -0.8271    1.3454 H   0  0  0  0  0  0  0  0  0  0  0  0
   -1.3471    0.3130    1.2672 H   0  0  0  0  0  0  0  0  0  0  0  0
   -1.0154   -1.1650   -1.3881 H   0  0  0  0  0  0  0  0  0  0  0  0
   -2.5509   -0.7153   -0.6358 H   0  0  0  0  0  0  0  0  0  0  0  0
   -1.0361   -2.2131    1.3674 H   0  0  0  0  0  0  0  0  0  0  0  0
   -2.5290   -2.6318    0.5201 H   0  0  0  0  0  0  0  0  0  0  0  0
   -1.0026   -3.0929   -0.2428 H   0  0  0  0  0  0  0  0  0  0  0  0
   -0.5932    1.3504   -1.5178 H   0  0  0  0  0  0  0  0  0  0  0  0
   -2.1486    1.5321   -0.6723 H   0  0  0  0  0  0  0  0  0  0  0  0
    0.3827    2.9984   -0.2621 H   0  0  0  0  0  0  0  0  0  0  0  0
   -1.3269    3.4557    0.1757 H   0  0  0  0  0  0  0  0  0  0  0  0
   -0.3910    2.3868    1.2519 H   0  0  0  0  0  0  0  0  0  0  0  0
  1  2  1  0
  2  3  1  0
  3  4  1  0
  4  5  1  0
  5  6  1  0
  4  7  1  0
  7  8  1  0
  1  9  1  0
  1 10  1  0
  1 11  1  0
  2 12  1  0
  2 13  1  0
  3 14  1  0
  3 15  1  0
  4 16  1  0
  5 17  1  0
  5 18  1  0
  6 19  1  0
  6 20  1  0
  6 21  1  0
  7 22  1  0
  7 23  1  0
  8 24  1  0
  8 25  1  0
  8 26  1  0
M  END
