
     RDKit          3D

 25 25  0  0  0  0  0  0  0  0999 V2000
    2.0410   -1.1579    0.1843 C   0  0  0  0  0  0  0  0  0  0  0  0
    1.9373    0.2416   -0.2580 C   0  0  0  0  0  0  0  0  0  0  0  0
    0.8247    1.0946    0.1721 C   0  0  0  0  0  0  0  0  0  0  0  0
   -0.5567    0.8300   -0.1735 C   0  0  0  0  0  0  0  0  0  0  0  0
   -1.4882    1.9568    0.4001 C   0  0  0  0  0  0  0  0  0  0  0  0
   -0.8085    0.8226   -1.5835 O   0  0  0  0  0  0  0  0  0  0  0  0
   -0.9940   -0.5877   -1.5130 C   0  0  0  0  0  0  0  0  0  0  0  0
   -1.2906   -0.4354   -0.0500 C   0  0  0  0  0  0  0  0  0  0  0  0
   -0.9491   -1.4806    0.9138 C   0  0  0  0  0  0  0  0  0  0  0  0
    1.5470   -1.9129   -0.4331 H   0  0  0  0  0  0  0  0  0  0  0  0
    1.8924   -1.3028    1.2960 H   0  0  0  0  0  0  0  0  0  0  0  0
    3.1644   -1.4269    0.0966 H   0  0  0  0  0  0  0  0  0  0  0  0
    2.0072    0.2119   -1.3947 H   0  0  0  0  0  0  0  0  0  0  0  0
    2.9292    0.7434    0.0070 H   0  0  0  0  0  0  0  0  0  0  0  0
    1.0819    2.1511   -0.2257 H   0  0  0  0  0  0  0  0  0  0  0  0
    0.9829    1.2715    1.2862 H   0  0  0  0  0  0  0  0  0  0  0  0
   -1.0683    2.9387    0.1598 H   0  0  0  0  0  0  0  0  0  0  0  0
   -1.5802    1.7201    1.4570 H   0  0  0  0  0  0  0  0  0  0  0  0
   -2.4620    1.7885   -0.0978 H   0  0  0  0  0  0  0  0  0  0  0  0
   -1.8686   -0.8187   -2.1721 H   0  0  0  0  0  0  0  0  0  0  0  0
   -0.1183   -1.1153   -1.8429 H   0  0  0  0  0  0  0  0  0  0  0  0
   -2.4451   -0.2702    0.0031 H   0  0  0  0  0  0  0  0  0  0  0  0
   -0.3680   -1.0280    1.7725 H   0  0  0  0  0  0  0  0  0  0  0  0
   -0.5183   -2.4109    0.5266 H   0  0  0  0  0  0  0  0  0  0  0  0
   -1.8923   -1.8237    1.4693 H   0  0  0  0  0  0  0  0  0  0  0  0
  1  2  1  0
  2  3  1  0
  3  4  1  0
  4  5  1  0
  4  6  1  0
  6  7  1  0
  7  8  1  0
  8  9  1  0
  8  4  1  0
  1 10  1  0
  1 11  1  0
  1 12  1  0
  2 13  1  0
  2 14  1  0
  3 15  1  0
  3 16  1  0
  5 17  1  0
  5 18  1  0
  5 19  1  0
  7 20  1  0
  7 21  1  0
  8 22  1  0
  9 23  1  0
  9 24  1  0
  9 25  1  0
M  END
