
     RDKit          3D

 27 26  0  0  0  0  0  0  0  0999 V2000
   -2.5776    1.1641    0.9061 C   0  0  0  0  0  0  0  0  0  0  0  0
   -3.2112   -0.1469    0.5300 C   0  0  0  0  0  0  0  0  0  0  0  0
   -2.5169   -0.9408   -0.4973 C   0  0  0  0  0  0  0  0  0  0  0  0
   -1.1595   -1.4284   -0.2781 C   0  0  0  0  0  0  0  0  0  0  0  0
   -0.0528   -0.4825   -0.0400 C   0  0  0  0  0  0  0  0  0  0  0  0
    1.1146   -1.2629    0.1151 O   0  0  0  0  0  0  0  0  0  0  0  0
    2.2419   -0.5332    0.3592 C   0  0  0  0  0  0  0  0  0  0  0  0
    2.6105    0.4582   -0.7155 C   0  0  0  0  0  0  0  0  0  0  0  0
    3.8867    1.2126   -0.3481 C   0  0  0  0  0  0  0  0  0  0  0  0
   -1.9687    1.5900    0.0856 H   0  0  0  0  0  0  0  0  0  0  0  0
   -3.3692    1.9589    1.0855 H   0  0  0  0  0  0  0  0  0  0  0  0
   -2.0324    1.1159    1.8808 H   0  0  0  0  0  0  0  0  0  0  0  0
   -3.5011   -0.7376    1.4416 H   0  0  0  0  0  0  0  0  0  0  0  0
   -4.2197    0.1279    0.0913 H   0  0  0  0  0  0  0  0  0  0  0  0
   -3.1613   -1.8413   -0.7473 H   0  0  0  0  0  0  0  0  0  0  0  0
   -2.5671   -0.3460   -1.4637 H   0  0  0  0  0  0  0  0  0  0  0  0
   -1.0972   -2.2065    0.5441 H   0  0  0  0  0  0  0  0  0  0  0  0
   -0.8640   -2.0360   -1.1901 H   0  0  0  0  0  0  0  0  0  0  0  0
   -0.1515    0.2467    0.7537 H   0  0  0  0  0  0  0  0  0  0  0  0
    0.1033    0.0840   -1.0046 H   0  0  0  0  0  0  0  0  0  0  0  0
    3.0932   -1.2766    0.3811 H   0  0  0  0  0  0  0  0  0  0  0  0
    2.2665   -0.0704    1.3715 H   0  0  0  0  0  0  0  0  0  0  0  0
    2.7296    0.0079   -1.6984 H   0  0  0  0  0  0  0  0  0  0  0  0
    1.7619    1.1991   -0.7712 H   0  0  0  0  0  0  0  0  0  0  0  0
    3.8266    2.2570   -0.7272 H   0  0  0  0  0  0  0  0  0  0  0  0
    4.7562    0.6819   -0.8069 H   0  0  0  0  0  0  0  0  0  0  0  0
    4.0591    1.2047    0.7427 H   0  0  0  0  0  0  0  0  0  0  0  0
  1  2  1  0
  2  3  1  0
  3  4  1  0
  4  5  1  0
  5  6  1  0
  6  7  1  0
  7  8  1  0
  8  9  1  0
  1 10  1  0
  1 11  1  0
  1 12  1  0
  2 13  1  0
  2 14  1  0
  3 15  1  0
  3 16  1  0
  4 17  1  0
  4 18  1  0
  5 19  1  0
  5 20  1  0
  7 21  1  0
  7 22  1  0
  8 23  1  0
  8 24  1  0
  9 25  1  0
  9 26  1  0
  9 27  1  0
M  END
