
     RDKit          3D

 23 24  0  0  0  0  0  0  0  0999 V2000
    2.6964    0.6548    0.4422 C   0  0  0  0  0  0  0  0  0  0  0  0
    2.2165   -0.6765   -0.0382 C   0  0  0  0  0  0  0  0  0  0  0  0
    1.0209   -0.5400   -0.9946 C   0  0  0  0  0  0  0  0  0  0  0  0
   -0.1311    0.1468   -0.2914 C   0  0  0  0  0  0  0  0  0  0  0  0
    0.1438    1.4281    0.1749 O   0  0  0  0  0  0  0  0  0  0  0  0
   -1.4503   -0.0275   -0.9329 C   0  0  0  0  0  0  0  0  0  0  0  0
   -2.5961    0.6935   -0.2469 C   0  0  0  0  0  0  0  0  0  0  0  0
   -2.4318   -0.3076    0.8712 C   0  0  0  0  0  0  0  0  0  0  0  0
   -1.0838   -0.7325    0.3935 C   0  0  0  0  0  0  0  0  0  0  0  0
    3.8191    0.6654    0.5486 H   0  0  0  0  0  0  0  0  0  0  0  0
    2.3249    0.9123    1.4711 H   0  0  0  0  0  0  0  0  0  0  0  0
    2.4496    1.4964   -0.2185 H   0  0  0  0  0  0  0  0  0  0  0  0
    1.9497   -1.3112    0.8222 H   0  0  0  0  0  0  0  0  0  0  0  0
    3.0479   -1.1861   -0.5640 H   0  0  0  0  0  0  0  0  0  0  0  0
    1.3598    0.0037   -1.8942 H   0  0  0  0  0  0  0  0  0  0  0  0
    0.7565   -1.5639   -1.3287 H   0  0  0  0  0  0  0  0  0  0  0  0
    0.0232    1.5217    1.1499 H   0  0  0  0  0  0  0  0  0  0  0  0
   -1.6252   -0.6543   -1.7968 H   0  0  0  0  0  0  0  0  0  0  0  0
   -2.2855    1.6994    0.0819 H   0  0  0  0  0  0  0  0  0  0  0  0
   -3.5592    0.6485   -0.7928 H   0  0  0  0  0  0  0  0  0  0  0  0
   -3.2067   -1.1170    0.7233 H   0  0  0  0  0  0  0  0  0  0  0  0
   -2.5176    0.0705    1.8880 H   0  0  0  0  0  0  0  0  0  0  0  0
   -0.9210   -1.8244    0.3511 H   0  0  0  0  0  0  0  0  0  0  0  0
  1  2  1  0
  2  3  1  0
  3  4  1  0
  4  5  1  0
  4  6  1  0
  6  7  1  0
  7  8  1  0
  8  9  1  0
  9  4  1  0
  9  6  1  0
  1 10  1  0
  1 11  1  0
  1 12  1  0
  2 13  1  0
  2 14  1  0
  3 15  1  0
  3 16  1  0
  5 17  1  0
  6 18  1  0
  7 19  1  0
  7 20  1  0
  8 21  1  0
  8 22  1  0
  9 23  1  0
M  END
