
     RDKit          3D

 25 25  0  0  0  0  0  0  0  0999 V2000
    2.2892   -0.8895    0.7149 C   0  0  0  0  0  0  0  0  0  0  0  0
    2.2796   -0.0356   -0.4913 C   0  0  0  0  0  0  0  0  0  0  0  0
    0.9361    0.2713   -1.0897 C   0  0  0  0  0  0  0  0  0  0  0  0
   -0.0111    0.9685   -0.1983 C   0  0  0  0  0  0  0  0  0  0  0  0
   -1.3458    1.3012   -0.8946 C   0  0  0  0  0  0  0  0  0  0  0  0
   -2.0504    1.0910    0.4370 C   0  0  0  0  0  0  0  0  0  0  0  0
   -0.8056    0.2452    0.8135 C   0  0  0  0  0  0  0  0  0  0  0  0
   -1.1466   -1.1857    0.6690 C   0  0  0  0  0  0  0  0  0  0  0  0
   -1.8869   -1.3676   -0.4994 O   0  0  0  0  0  0  0  0  0  0  0  0
    2.1295   -1.9799    0.4648 H   0  0  0  0  0  0  0  0  0  0  0  0
    1.5800   -0.5984    1.4990 H   0  0  0  0  0  0  0  0  0  0  0  0
    3.3077   -0.8007    1.1821 H   0  0  0  0  0  0  0  0  0  0  0  0
    2.7796    0.9313   -0.2467 H   0  0  0  0  0  0  0  0  0  0  0  0
    2.8828   -0.5558   -1.2940 H   0  0  0  0  0  0  0  0  0  0  0  0
    1.1507    0.9566   -1.9657 H   0  0  0  0  0  0  0  0  0  0  0  0
    0.5405   -0.6577   -1.5493 H   0  0  0  0  0  0  0  0  0  0  0  0
    0.4567    1.8832    0.2566 H   0  0  0  0  0  0  0  0  0  0  0  0
   -1.3164    2.3742   -1.1958 H   0  0  0  0  0  0  0  0  0  0  0  0
   -1.6684    0.5951   -1.6375 H   0  0  0  0  0  0  0  0  0  0  0  0
   -2.9676    0.5048    0.4188 H   0  0  0  0  0  0  0  0  0  0  0  0
   -2.1304    2.0121    1.0188 H   0  0  0  0  0  0  0  0  0  0  0  0
   -0.5271    0.4703    1.8864 H   0  0  0  0  0  0  0  0  0  0  0  0
   -1.8850   -1.4008    1.5149 H   0  0  0  0  0  0  0  0  0  0  0  0
   -0.3161   -1.8733    0.7657 H   0  0  0  0  0  0  0  0  0  0  0  0
   -2.2751   -2.2599   -0.5792 H   0  0  0  0  0  0  0  0  0  0  0  0
  1  2  1  0
  2  3  1  0
  3  4  1  0
  4  5  1  0
  5  6  1  0
  6  7  1  0
  7  8  1  0
  8  9  1  0
  7  4  1  0
  1 10  1  0
  1 11  1  0
  1 12  1  0
  2 13  1  0
  2 14  1  0
  3 15  1  0
  3 16  1  0
  4 17  1  0
  5 18  1  0
  5 19  1  0
  6 20  1  0
  6 21  1  0
  7 22  1  0
  8 23  1  0
  8 24  1  0
  9 25  1  0
M  END
