
     RDKit          3D

 24 23  0  0  0  0  0  0  0  0999 V2000
    2.4386   -0.6335   -0.2498 C   0  0  0  0  0  0  0  0  0  0  0  0
    2.0167    0.6757    0.3031 C   0  0  0  0  0  0  0  0  0  0  0  0
    0.7073    1.2167   -0.1300 C   0  0  0  0  0  0  0  0  0  0  0  0
   -0.5170    0.4473    0.1879 C   0  0  0  0  0  0  0  0  0  0  0  0
   -1.7354    1.2244   -0.3599 C   0  0  0  0  0  0  0  0  0  0  0  0
   -0.7419    0.3545    1.5804 O   0  0  0  0  0  0  0  0  0  0  0  0
   -0.6370   -0.9128   -0.4535 C   0  0  0  0  0  0  0  0  0  0  0  0
   -1.9791   -1.5452   -0.0183 C   0  0  0  0  0  0  0  0  0  0  0  0
    2.0261   -0.8593   -1.2526 H   0  0  0  0  0  0  0  0  0  0  0  0
    3.5624   -0.5582   -0.4421 H   0  0  0  0  0  0  0  0  0  0  0  0
    2.3819   -1.4933    0.4556 H   0  0  0  0  0  0  0  0  0  0  0  0
    2.0923    0.6307    1.4174 H   0  0  0  0  0  0  0  0  0  0  0  0
    2.7994    1.4557    0.0367 H   0  0  0  0  0  0  0  0  0  0  0  0
    0.7563    1.5145   -1.2088 H   0  0  0  0  0  0  0  0  0  0  0  0
    0.6077    2.2257    0.3883 H   0  0  0  0  0  0  0  0  0  0  0  0
   -1.7184    1.0559   -1.4564 H   0  0  0  0  0  0  0  0  0  0  0  0
   -2.6655    0.8168    0.0404 H   0  0  0  0  0  0  0  0  0  0  0  0
   -1.6060    2.3097   -0.1823 H   0  0  0  0  0  0  0  0  0  0  0  0
   -0.3465   -0.4798    1.9419 H   0  0  0  0  0  0  0  0  0  0  0  0
    0.1270   -1.6393   -0.1253 H   0  0  0  0  0  0  0  0  0  0  0  0
   -0.6896   -0.8438   -1.5563 H   0  0  0  0  0  0  0  0  0  0  0  0
   -1.9015   -2.6221   -0.1668 H   0  0  0  0  0  0  0  0  0  0  0  0
   -2.2292   -1.2470    1.0203 H   0  0  0  0  0  0  0  0  0  0  0  0
   -2.7485   -1.0934   -0.6710 H   0  0  0  0  0  0  0  0  0  0  0  0
  1  2  1  0
  2  3  1  0
  3  4  1  0
  4  5  1  0
  4  6  1  0
  4  7  1  0
  7  8  1  0
  1  9  1  0
  1 10  1  0
  1 11  1  0
  2 12  1  0
  2 13  1  0
  3 14  1  0
  3 15  1  0
  5 16  1  0
  5 17  1  0
  5 18  1  0
  6 19  1  0
  7 20  1  0
  7 21  1  0
  8 22  1  0
  8 23  1  0
  8 24  1  0
M  END
