
     RDKit          3D

 25 24  0  0  0  0  0  0  0  0999 V2000
    3.4534   -0.1139   -0.5386 C   0  0  0  0  0  0  0  0  0  0  0  0
    2.1508    0.5529   -0.0694 C   0  0  0  0  0  0  0  0  0  0  0  0
    1.1048   -0.4980   -0.1373 C   0  0  0  0  0  0  0  0  0  0  0  0
   -0.2842   -0.0438    0.2940 C   0  0  0  0  0  0  0  0  0  0  0  0
   -1.1253   -1.3043    0.1300 C   0  0  0  0  0  0  0  0  0  0  0  0
   -2.5574   -1.1416    0.5051 C   0  0  0  0  0  0  0  0  0  0  0  0
   -0.7779    1.0664   -0.5223 C   0  0  0  0  0  0  0  0  0  0  0  0
   -2.0549    1.7374   -0.2048 C   0  0  0  0  0  0  0  0  0  0  0  0
   -0.1689    1.5036   -1.5105 O   0  0  0  0  0  0  0  0  0  0  0  0
    4.1928    0.6848   -0.8059 H   0  0  0  0  0  0  0  0  0  0  0  0
    3.8845   -0.7590    0.2269 H   0  0  0  0  0  0  0  0  0  0  0  0
    3.1863   -0.6329   -1.4818 H   0  0  0  0  0  0  0  0  0  0  0  0
    2.2678    0.9238    0.9744 H   0  0  0  0  0  0  0  0  0  0  0  0
    2.0181    1.4081   -0.7608 H   0  0  0  0  0  0  0  0  0  0  0  0
    1.0767   -0.9223   -1.1533 H   0  0  0  0  0  0  0  0  0  0  0  0
    1.3964   -1.3124    0.5573 H   0  0  0  0  0  0  0  0  0  0  0  0
   -0.2125    0.2718    1.3514 H   0  0  0  0  0  0  0  0  0  0  0  0
   -0.6483   -2.1455    0.7056 H   0  0  0  0  0  0  0  0  0  0  0  0
   -0.9909   -1.6028   -0.9451 H   0  0  0  0  0  0  0  0  0  0  0  0
   -3.1481   -1.1006   -0.4441 H   0  0  0  0  0  0  0  0  0  0  0  0
   -2.9083   -2.1241    0.9662 H   0  0  0  0  0  0  0  0  0  0  0  0
   -2.7775   -0.3385    1.2080 H   0  0  0  0  0  0  0  0  0  0  0  0
   -2.9567    1.2478   -0.5623 H   0  0  0  0  0  0  0  0  0  0  0  0
   -2.0535    1.8855    0.9180 H   0  0  0  0  0  0  0  0  0  0  0  0
   -2.0671    2.7577   -0.6966 H   0  0  0  0  0  0  0  0  0  0  0  0
  1  2  1  0
  2  3  1  0
  3  4  1  0
  4  5  1  0
  5  6  1  0
  4  7  1  0
  7  8  1  0
  7  9  2  0
  1 10  1  0
  1 11  1  0
  1 12  1  0
  2 13  1  0
  2 14  1  0
  3 15  1  0
  3 16  1  0
  4 17  1  0
  5 18  1  0
  5 19  1  0
  6 20  1  0
  6 21  1  0
  6 22  1  0
  8 23  1  0
  8 24  1  0
  8 25  1  0
M  END
