
     RDKit          3D

 21 20  0  0  0  0  0  0  0  0999 V2000
   -3.6125   -0.2803   -0.7819 C   0  0  0  0  0  0  0  0  0  0  0  0
   -2.7458    0.2779    0.3738 C   0  0  0  0  0  0  0  0  0  0  0  0
   -1.8127    1.3415   -0.2037 C   0  0  0  0  0  0  0  0  0  0  0  0
   -0.4435    0.6877   -0.3235 C   0  0  0  0  0  0  0  0  0  0  0  0
    0.7275    0.1065   -0.4151 C   0  0  0  0  0  0  0  0  0  0  0  0
    1.9808   -0.5076   -0.5073 C   0  0  0  0  0  0  0  0  0  0  0  0
    2.7971   -0.6705    0.6318 C   0  0  0  0  0  0  0  0  0  0  0  0
    4.2239   -0.2234    0.2551 C   0  0  0  0  0  0  0  0  0  0  0  0
    4.6722   -0.1089   -0.8006 O   0  0  0  0  0  0  0  0  0  0  0  0
   -4.2443    0.6191   -1.1090 H   0  0  0  0  0  0  0  0  0  0  0  0
   -2.9464   -0.5031   -1.6219 H   0  0  0  0  0  0  0  0  0  0  0  0
   -4.2524   -1.0775   -0.4804 H   0  0  0  0  0  0  0  0  0  0  0  0
   -2.1526   -0.6667    0.7388 H   0  0  0  0  0  0  0  0  0  0  0  0
   -3.3792    0.6638    1.1214 H   0  0  0  0  0  0  0  0  0  0  0  0
   -2.1064    1.5539   -1.2974 H   0  0  0  0  0  0  0  0  0  0  0  0
   -1.7037    2.1655    0.3972 H   0  0  0  0  0  0  0  0  0  0  0  0
    1.9525   -1.3281   -1.2738 H   0  0  0  0  0  0  0  0  0  0  0  0
    2.5641    0.3091   -1.2976 H   0  0  0  0  0  0  0  0  0  0  0  0
    3.0506   -1.8655    0.6921 H   0  0  0  0  0  0  0  0  0  0  0  0
    2.5417   -0.4989    1.6389 H   0  0  0  0  0  0  0  0  0  0  0  0
    4.8890    0.0055    1.1720 H   0  0  0  0  0  0  0  0  0  0  0  0
  1  2  1  0
  2  3  1  0
  3  4  1  0
  4  5  3  0
  5  6  1  0
  6  7  1  0
  7  8  1  0
  8  9  2  0
  1 10  1  0
  1 11  1  0
  1 12  1  0
  2 13  1  0
  2 14  1  0
  3 15  1  0
  3 16  1  0
  6 17  1  0
  6 18  1  0
  7 19  1  0
  7 20  1  0
  8 21  1  0
M  END
