
     RDKit          3D

 21 21  0  0  0  0  0  0  0  0999 V2000
    3.1397    0.2871   -0.2219 C   0  0  0  0  0  0  0  0  0  0  0  0
    2.1120   -0.6786   -0.7010 C   0  0  0  0  0  0  0  0  0  0  0  0
    0.8929   -0.7558    0.2014 C   0  0  0  0  0  0  0  0  0  0  0  0
    0.1825    0.5517    0.3353 C   0  0  0  0  0  0  0  0  0  0  0  0
   -0.3170    1.1259   -0.8424 O   0  0  0  0  0  0  0  0  0  0  0  0
   -1.2242    0.7750    0.2650 C   0  0  0  0  0  0  0  0  0  0  0  0
   -2.2316   -0.1811   -0.1810 C   0  0  0  0  0  0  0  0  0  0  0  0
   -3.7059    0.0381    0.0509 C   0  0  0  0  0  0  0  0  0  0  0  0
   -1.9678   -1.2267   -0.7725 O   0  0  0  0  0  0  0  0  0  0  0  0
    3.0439    1.2742   -0.7371 H   0  0  0  0  0  0  0  0  0  0  0  0
    4.1621   -0.1150   -0.4840 H   0  0  0  0  0  0  0  0  0  0  0  0
    3.1016    0.3984    0.8823 H   0  0  0  0  0  0  0  0  0  0  0  0
    2.5561   -1.7137   -0.6874 H   0  0  0  0  0  0  0  0  0  0  0  0
    1.7856   -0.5104   -1.7446 H   0  0  0  0  0  0  0  0  0  0  0  0
    1.2742   -1.0711    1.2037 H   0  0  0  0  0  0  0  0  0  0  0  0
    0.2546   -1.5667   -0.1576 H   0  0  0  0  0  0  0  0  0  0  0  0
    0.7996    1.3085    0.9052 H   0  0  0  0  0  0  0  0  0  0  0  0
   -1.6478    1.6719    0.7847 H   0  0  0  0  0  0  0  0  0  0  0  0
   -4.3285   -0.5111   -0.6455 H   0  0  0  0  0  0  0  0  0  0  0  0
   -3.9021    1.1427   -0.0537 H   0  0  0  0  0  0  0  0  0  0  0  0
   -3.9800   -0.2434    1.0725 H   0  0  0  0  0  0  0  0  0  0  0  0
  1  2  1  0
  2  3  1  0
  3  4  1  0
  4  5  1  0
  5  6  1  0
  6  7  1  0
  7  8  1  0
  7  9  2  0
  6  4  1  0
  1 10  1  0
  1 11  1  0
  1 12  1  0
  2 13  1  0
  2 14  1  0
  3 15  1  0
  3 16  1  0
  4 17  1  0
  6 18  1  0
  8 19  1  0
  8 20  1  0
  8 21  1  0
M  END
