
     RDKit          3D

 23 22  0  0  0  0  0  0  0  0999 V2000
    3.8730   -0.0531    0.1586 C   0  0  0  0  0  0  0  0  0  0  0  0
    2.5448   -0.8329    0.1139 C   0  0  0  0  0  0  0  0  0  0  0  0
    1.5285    0.1633   -0.2850 C   0  0  0  0  0  0  0  0  0  0  0  0
    0.1043   -0.3426   -0.3926 C   0  0  0  0  0  0  0  0  0  0  0  0
   -0.6238    0.7754   -0.7796 O   0  0  0  0  0  0  0  0  0  0  0  0
   -1.9605    0.6196   -0.9300 C   0  0  0  0  0  0  0  0  0  0  0  0
   -2.7259    0.2167    0.3001 C   0  0  0  0  0  0  0  0  0  0  0  0
   -4.1678    0.1254   -0.0821 C   0  0  0  0  0  0  0  0  0  0  0  0
   -4.7475   -0.9361   -0.2745 O   0  0  0  0  0  0  0  0  0  0  0  0
    4.0631    0.2764   -0.8861 H   0  0  0  0  0  0  0  0  0  0  0  0
    4.6777   -0.6042    0.6305 H   0  0  0  0  0  0  0  0  0  0  0  0
    3.6193    0.8901    0.7231 H   0  0  0  0  0  0  0  0  0  0  0  0
    2.7231   -1.6212   -0.6482 H   0  0  0  0  0  0  0  0  0  0  0  0
    2.3954   -1.3099    1.0775 H   0  0  0  0  0  0  0  0  0  0  0  0
    1.7927    0.5889   -1.2466 H   0  0  0  0  0  0  0  0  0  0  0  0
    1.4808    0.9315    0.5372 H   0  0  0  0  0  0  0  0  0  0  0  0
    0.0009   -1.1763   -1.1259 H   0  0  0  0  0  0  0  0  0  0  0  0
   -0.2529   -0.7274    0.5713 H   0  0  0  0  0  0  0  0  0  0  0  0
   -2.2562   -0.0131   -1.8039 H   0  0  0  0  0  0  0  0  0  0  0  0
   -2.3647    1.6421   -1.2090 H   0  0  0  0  0  0  0  0  0  0  0  0
   -2.6515    1.0445    1.0437 H   0  0  0  0  0  0  0  0  0  0  0  0
   -2.3509   -0.7513    0.6935 H   0  0  0  0  0  0  0  0  0  0  0  0
   -4.7019    1.0941   -0.1868 H   0  0  0  0  0  0  0  0  0  0  0  0
  1  2  1  0
  2  3  1  0
  3  4  1  0
  4  5  1  0
  5  6  1  0
  6  7  1  0
  7  8  1  0
  8  9  2  0
  1 10  1  0
  1 11  1  0
  1 12  1  0
  2 13  1  0
  2 14  1  0
  3 15  1  0
  3 16  1  0
  4 17  1  0
  4 18  1  0
  6 19  1  0
  6 20  1  0
  7 21  1  0
  7 22  1  0
  8 23  1  0
M  END
