
     RDKit          3D

 21 22  0  0  0  0  0  0  0  0999 V2000
   -3.0778    0.0962   -0.1655 C   0  0  0  0  0  0  0  0  0  0  0  0
   -1.6866    0.7391   -0.0818 C   0  0  0  0  0  0  0  0  0  0  0  0
   -0.8049   -0.2315    0.6273 C   0  0  0  0  0  0  0  0  0  0  0  0
    0.6046    0.2144    0.8098 C   0  0  0  0  0  0  0  0  0  0  0  0
    1.4001    0.5114   -0.4124 C   0  0  0  0  0  0  0  0  0  0  0  0
    1.2613   -0.8267   -0.7435 O   0  0  0  0  0  0  0  0  0  0  0  0
    1.5744   -0.9066    0.6115 C   0  0  0  0  0  0  0  0  0  0  0  0
    2.6297    0.1095    0.3557 C   0  0  0  0  0  0  0  0  0  0  0  0
    3.6415   -0.3941   -0.4533 O   0  0  0  0  0  0  0  0  0  0  0  0
   -3.2722   -0.5094    0.7680 H   0  0  0  0  0  0  0  0  0  0  0  0
   -3.8739    0.8479   -0.2033 H   0  0  0  0  0  0  0  0  0  0  0  0
   -3.1448   -0.6190   -1.0013 H   0  0  0  0  0  0  0  0  0  0  0  0
   -1.3720    0.8734   -1.1512 H   0  0  0  0  0  0  0  0  0  0  0  0
   -1.7849    1.7150    0.3962 H   0  0  0  0  0  0  0  0  0  0  0  0
   -1.2389   -0.4074    1.6382 H   0  0  0  0  0  0  0  0  0  0  0  0
   -0.8702   -1.2054    0.0997 H   0  0  0  0  0  0  0  0  0  0  0  0
    0.7775    0.8882    1.6479 H   0  0  0  0  0  0  0  0  0  0  0  0
    1.3155    1.3005   -1.0325 H   0  0  0  0  0  0  0  0  0  0  0  0
    1.6445   -1.7529    1.1547 H   0  0  0  0  0  0  0  0  0  0  0  0
    2.9419    0.7526    1.1759 H   0  0  0  0  0  0  0  0  0  0  0  0
    3.3350   -1.1954   -0.9408 H   0  0  0  0  0  0  0  0  0  0  0  0
  1  2  1  0
  2  3  1  0
  3  4  1  0
  4  5  1  0
  5  6  1  0
  6  7  1  0
  7  8  1  0
  8  9  1  0
  7  4  1  0
  8  5  1  0
  1 10  1  0
  1 11  1  0
  1 12  1  0
  2 13  1  0
  2 14  1  0
  3 15  1  0
  3 16  1  0
  4 17  1  0
  5 18  1  0
  7 19  1  0
  8 20  1  0
  9 21  1  0
M  END
