
     RDKit          3D

 27 27  0  0  0  0  0  0  0  0999 V2000
    3.1708    1.5326    1.1007 C   0  0  0  0  0  0  0  0  0  0  0  0
    2.1231    0.6724    0.4187 C   0  0  0  0  0  0  0  0  0  0  0  0
    0.8406    1.4184    0.1997 C   0  0  0  0  0  0  0  0  0  0  0  0
   -0.1824    0.5702   -0.4732 C   0  0  0  0  0  0  0  0  0  0  0  0
   -0.5550   -0.6666    0.2963 C   0  0  0  0  0  0  0  0  0  0  0  0
   -1.1257   -0.2594    1.6617 C   0  0  0  0  0  0  0  0  0  0  0  0
   -1.6601   -1.4475   -0.4021 C   0  0  0  0  0  0  0  0  0  0  0  0
   -1.4379   -1.9713   -1.7824 C   0  0  0  0  0  0  0  0  0  0  0  0
   -2.4864   -0.8630   -1.4551 C   0  0  0  0  0  0  0  0  0  0  0  0
    3.0320    2.5741    0.7441 H   0  0  0  0  0  0  0  0  0  0  0  0
    3.0321    1.4341    2.1955 H   0  0  0  0  0  0  0  0  0  0  0  0
    4.1605    1.1665    0.7668 H   0  0  0  0  0  0  0  0  0  0  0  0
    2.5234    0.4047   -0.5824 H   0  0  0  0  0  0  0  0  0  0  0  0
    1.9515   -0.2564    1.0351 H   0  0  0  0  0  0  0  0  0  0  0  0
    0.4733    1.8674    1.1571 H   0  0  0  0  0  0  0  0  0  0  0  0
    1.0657    2.2733   -0.4704 H   0  0  0  0  0  0  0  0  0  0  0  0
   -1.1204    1.1137   -0.6976 H   0  0  0  0  0  0  0  0  0  0  0  0
    0.2427    0.2402   -1.4472 H   0  0  0  0  0  0  0  0  0  0  0  0
    0.3156   -1.3261    0.5022 H   0  0  0  0  0  0  0  0  0  0  0  0
   -1.5217   -1.2149    2.1025 H   0  0  0  0  0  0  0  0  0  0  0  0
   -1.9607    0.4575    1.5119 H   0  0  0  0  0  0  0  0  0  0  0  0
   -0.3779    0.2279    2.2843 H   0  0  0  0  0  0  0  0  0  0  0  0
   -2.1876   -2.1892    0.2680 H   0  0  0  0  0  0  0  0  0  0  0  0
   -1.8752   -2.9538   -2.0785 H   0  0  0  0  0  0  0  0  0  0  0  0
   -0.5796   -1.6812   -2.3912 H   0  0  0  0  0  0  0  0  0  0  0  0
   -3.5620   -1.1906   -1.5428 H   0  0  0  0  0  0  0  0  0  0  0  0
   -2.2986    0.0672   -1.9838 H   0  0  0  0  0  0  0  0  0  0  0  0
  1  2  1  0
  2  3  1  0
  3  4  1  0
  4  5  1  0
  5  6  1  0
  5  7  1  0
  7  8  1  0
  8  9  1  0
  9  7  1  0
  1 10  1  0
  1 11  1  0
  1 12  1  0
  2 13  1  0
  2 14  1  0
  3 15  1  0
  3 16  1  0
  4 17  1  0
  4 18  1  0
  5 19  1  0
  6 20  1  0
  6 21  1  0
  6 22  1  0
  7 23  1  0
  8 24  1  0
  8 25  1  0
  9 26  1  0
  9 27  1  0
M  END
