
     RDKit          3D

 27 26  0  0  0  0  0  0  0  0999 V2000
    2.5313    1.8182    0.5811 C   0  0  0  0  0  0  0  0  0  0  0  0
    1.6752    0.9310   -0.3342 C   0  0  0  0  0  0  0  0  0  0  0  0
    1.4683   -0.3525    0.3700 C   0  0  0  0  0  0  0  0  0  0  0  0
    0.6555   -1.3830   -0.2996 C   0  0  0  0  0  0  0  0  0  0  0  0
   -0.7812   -1.0687   -0.5629 C   0  0  0  0  0  0  0  0  0  0  0  0
   -1.3087   -2.3307   -1.3021 C   0  0  0  0  0  0  0  0  0  0  0  0
   -1.5110   -0.8666    0.5671 O   0  0  0  0  0  0  0  0  0  0  0  0
   -2.2982    0.2162    0.6997 C   0  0  0  0  0  0  0  0  0  0  0  0
   -1.6748    1.5659    0.6590 C   0  0  0  0  0  0  0  0  0  0  0  0
    3.3255    1.2472    1.0761 H   0  0  0  0  0  0  0  0  0  0  0  0
    3.0278    2.5997   -0.0329 H   0  0  0  0  0  0  0  0  0  0  0  0
    1.9214    2.2904    1.3694 H   0  0  0  0  0  0  0  0  0  0  0  0
    0.8158    1.4942   -0.6666 H   0  0  0  0  0  0  0  0  0  0  0  0
    2.3533    0.7117   -1.2077 H   0  0  0  0  0  0  0  0  0  0  0  0
    1.0691   -0.1334    1.3831 H   0  0  0  0  0  0  0  0  0  0  0  0
    2.4833   -0.7970    0.5565 H   0  0  0  0  0  0  0  0  0  0  0  0
    1.1696   -1.7727   -1.2151 H   0  0  0  0  0  0  0  0  0  0  0  0
    0.6526   -2.2861    0.3890 H   0  0  0  0  0  0  0  0  0  0  0  0
   -0.8746   -0.2351   -1.2606 H   0  0  0  0  0  0  0  0  0  0  0  0
   -0.9658   -3.1823   -0.7158 H   0  0  0  0  0  0  0  0  0  0  0  0
   -0.8231   -2.3186   -2.2811 H   0  0  0  0  0  0  0  0  0  0  0  0
   -2.3942   -2.2926   -1.4168 H   0  0  0  0  0  0  0  0  0  0  0  0
   -3.1345    0.1778   -0.0451 H   0  0  0  0  0  0  0  0  0  0  0  0
   -2.8074    0.1384    1.6953 H   0  0  0  0  0  0  0  0  0  0  0  0
   -1.5041    1.9472   -0.3689 H   0  0  0  0  0  0  0  0  0  0  0  0
   -0.6974    1.5982    1.1814 H   0  0  0  0  0  0  0  0  0  0  0  0
   -2.3735    2.2832    1.1816 H   0  0  0  0  0  0  0  0  0  0  0  0
  1  2  1  0
  2  3  1  0
  3  4  1  0
  4  5  1  0
  5  6  1  0
  5  7  1  0
  7  8  1  0
  8  9  1  0
  1 10  1  0
  1 11  1  0
  1 12  1  0
  2 13  1  0
  2 14  1  0
  3 15  1  0
  3 16  1  0
  4 17  1  0
  4 18  1  0
  5 19  1  0
  6 20  1  0
  6 21  1  0
  6 22  1  0
  8 23  1  0
  8 24  1  0
  9 25  1  0
  9 26  1  0
  9 27  1  0
M  END
