
     RDKit          3D

 23 24  0  0  0  0  0  0  0  0999 V2000
    2.6645    0.5448   -0.0305 C   0  0  0  0  0  0  0  0  0  0  0  0
    2.0364   -0.8284   -0.0240 C   0  0  0  0  0  0  0  0  0  0  0  0
    0.7118   -0.7798    0.7362 C   0  0  0  0  0  0  0  0  0  0  0  0
   -0.1756    0.1841    0.0485 C   0  0  0  0  0  0  0  0  0  0  0  0
   -1.5565    0.4103    0.6185 C   0  0  0  0  0  0  0  0  0  0  0  0
   -2.0900    1.3869   -0.3916 C   0  0  0  0  0  0  0  0  0  0  0  0
   -1.6354    0.7494   -1.5773 O   0  0  0  0  0  0  0  0  0  0  0  0
   -0.9880   -0.3757   -1.1292 C   0  0  0  0  0  0  0  0  0  0  0  0
   -1.9426   -0.9006   -0.0754 C   0  0  0  0  0  0  0  0  0  0  0  0
    3.7353    0.4903    0.2482 H   0  0  0  0  0  0  0  0  0  0  0  0
    2.1799    1.2392    0.6885 H   0  0  0  0  0  0  0  0  0  0  0  0
    2.6093    0.9749   -1.0448 H   0  0  0  0  0  0  0  0  0  0  0  0
    1.7991   -1.1459   -1.0501 H   0  0  0  0  0  0  0  0  0  0  0  0
    2.6949   -1.5487    0.5058 H   0  0  0  0  0  0  0  0  0  0  0  0
    0.9470   -0.4370    1.7624 H   0  0  0  0  0  0  0  0  0  0  0  0
    0.3335   -1.7974    0.7746 H   0  0  0  0  0  0  0  0  0  0  0  0
    0.2734    1.1349   -0.2833 H   0  0  0  0  0  0  0  0  0  0  0  0
   -1.7144    0.5180    1.6431 H   0  0  0  0  0  0  0  0  0  0  0  0
   -3.1699    1.5090   -0.3849 H   0  0  0  0  0  0  0  0  0  0  0  0
   -1.5141    2.3318   -0.2874 H   0  0  0  0  0  0  0  0  0  0  0  0
   -0.5120   -1.0450   -1.7865 H   0  0  0  0  0  0  0  0  0  0  0  0
   -1.6678   -1.8045    0.4553 H   0  0  0  0  0  0  0  0  0  0  0  0
   -3.0186   -0.8104   -0.3726 H   0  0  0  0  0  0  0  0  0  0  0  0
  1  2  1  0
  2  3  1  0
  3  4  1  0
  4  5  1  0
  5  6  1  0
  6  7  1  0
  7  8  1  0
  8  9  1  0
  8  4  1  0
  9  5  1  0
  1 10  1  0
  1 11  1  0
  1 12  1  0
  2 13  1  0
  2 14  1  0
  3 15  1  0
  3 16  1  0
  4 17  1  0
  5 18  1  0
  6 19  1  0
  6 20  1  0
  8 21  1  0
  9 22  1  0
  9 23  1  0
M  END
