
     RDKit          3D

 21 20  0  0  0  0  0  0  0  0999 V2000
   -2.9523   -0.0364   -0.5391 C   0  0  0  0  0  0  0  0  0  0  0  0
   -1.6470    0.0684    0.2181 C   0  0  0  0  0  0  0  0  0  0  0  0
   -0.4700   -0.3078   -0.6548 C   0  0  0  0  0  0  0  0  0  0  0  0
    0.8180   -0.2139    0.0961 C   0  0  0  0  0  0  0  0  0  0  0  0
    1.0931    1.1783    0.6150 C   0  0  0  0  0  0  0  0  0  0  0  0
    1.2299    2.0966   -0.4239 O   0  0  0  0  0  0  0  0  0  0  0  0
    1.9349   -0.5610   -0.7073 O   0  0  0  0  0  0  0  0  0  0  0  0
    2.7538   -1.6110   -0.3174 C   0  0  0  0  0  0  0  0  0  0  0  0
    2.4549   -2.2079    0.7464 O   0  0  0  0  0  0  0  0  0  0  0  0
   -2.7054   -0.3917   -1.5756 H   0  0  0  0  0  0  0  0  0  0  0  0
   -3.5583   -0.8272   -0.0754 H   0  0  0  0  0  0  0  0  0  0  0  0
   -3.4683    0.9225   -0.5937 H   0  0  0  0  0  0  0  0  0  0  0  0
   -1.6839   -0.5824    1.1315 H   0  0  0  0  0  0  0  0  0  0  0  0
   -1.5663    1.1176    0.5501 H   0  0  0  0  0  0  0  0  0  0  0  0
   -0.4654    0.4387   -1.5050 H   0  0  0  0  0  0  0  0  0  0  0  0
   -0.6294   -1.2853   -1.1350 H   0  0  0  0  0  0  0  0  0  0  0  0
    0.7463   -0.8799    0.9945 H   0  0  0  0  0  0  0  0  0  0  0  0
    0.2654    1.5138    1.2602 H   0  0  0  0  0  0  0  0  0  0  0  0
    2.0349    1.1833    1.2292 H   0  0  0  0  0  0  0  0  0  0  0  0
    2.1860    2.2930   -0.6240 H   0  0  0  0  0  0  0  0  0  0  0  0
    3.6293   -1.9077   -0.9168 H   0  0  0  0  0  0  0  0  0  0  0  0
  1  2  1  0
  2  3  1  0
  3  4  1  0
  4  5  1  0
  5  6  1  0
  4  7  1  0
  7  8  1  0
  8  9  2  0
  1 10  1  0
  1 11  1  0
  1 12  1  0
  2 13  1  0
  2 14  1  0
  3 15  1  0
  3 16  1  0
  4 17  1  0
  5 18  1  0
  5 19  1  0
  6 20  1  0
  8 21  1  0
M  END
