
     RDKit          3D

 23 24  0  0  0  0  0  0  0  0999 V2000
    2.8889   -0.3692    0.2101 C   0  0  0  0  0  0  0  0  0  0  0  0
    1.4946   -0.0497    0.6672 C   0  0  0  0  0  0  0  0  0  0  0  0
    0.6226    0.0970   -0.5350 C   0  0  0  0  0  0  0  0  0  0  0  0
   -0.8229    0.4247   -0.1588 C   0  0  0  0  0  0  0  0  0  0  0  0
   -1.4848   -0.6058    0.6915 C   0  0  0  0  0  0  0  0  0  0  0  0
   -1.5612   -1.9861    0.0385 C   0  0  0  0  0  0  0  0  0  0  0  0
   -2.6648   -1.2118    0.3026 O   0  0  0  0  0  0  0  0  0  0  0  0
   -1.1521    1.8541    0.1845 C   0  0  0  0  0  0  0  0  0  0  0  0
   -1.5923    1.2365   -1.1374 C   0  0  0  0  0  0  0  0  0  0  0  0
    3.3843   -0.9644    1.0009 H   0  0  0  0  0  0  0  0  0  0  0  0
    3.4927    0.5380    0.0435 H   0  0  0  0  0  0  0  0  0  0  0  0
    2.9022   -0.9291   -0.7671 H   0  0  0  0  0  0  0  0  0  0  0  0
    1.5453    0.8799    1.2820 H   0  0  0  0  0  0  0  0  0  0  0  0
    1.0712   -0.8713    1.2930 H   0  0  0  0  0  0  0  0  0  0  0  0
    0.6779   -0.8502   -1.1097 H   0  0  0  0  0  0  0  0  0  0  0  0
    1.0443    0.8874   -1.2045 H   0  0  0  0  0  0  0  0  0  0  0  0
   -1.2681   -0.5727    1.7653 H   0  0  0  0  0  0  0  0  0  0  0  0
   -1.3079   -2.0705   -1.0361 H   0  0  0  0  0  0  0  0  0  0  0  0
   -1.2530   -2.8128    0.6802 H   0  0  0  0  0  0  0  0  0  0  0  0
   -1.9370    2.0667    0.9391 H   0  0  0  0  0  0  0  0  0  0  0  0
   -0.3656    2.6264    0.1594 H   0  0  0  0  0  0  0  0  0  0  0  0
   -2.6791    1.0727   -1.2954 H   0  0  0  0  0  0  0  0  0  0  0  0
   -1.0353    1.6102   -2.0139 H   0  0  0  0  0  0  0  0  0  0  0  0
  1  2  1  0
  2  3  1  0
  3  4  1  0
  4  5  1  0
  5  6  1  0
  6  7  1  0
  4  8  1  0
  8  9  1  0
  9  4  1  0
  7  5  1  0
  1 10  1  0
  1 11  1  0
  1 12  1  0
  2 13  1  0
  2 14  1  0
  3 15  1  0
  3 16  1  0
  5 17  1  0
  6 18  1  0
  6 19  1  0
  8 20  1  0
  8 21  1  0
  9 22  1  0
  9 23  1  0
M  END
