
     RDKit          3D

 23 23  0  0  0  0  0  0  0  0999 V2000
    2.5348    0.2239   -0.8402 C   0  0  0  0  0  0  0  0  0  0  0  0
    2.3733    0.1207    0.6635 C   0  0  0  0  0  0  0  0  0  0  0  0
    1.1088   -0.6230    1.0268 C   0  0  0  0  0  0  0  0  0  0  0  0
   -0.1277    0.0176    0.5174 C   0  0  0  0  0  0  0  0  0  0  0  0
   -0.2651    0.1802   -0.8337 O   0  0  0  0  0  0  0  0  0  0  0  0
   -1.6169   -0.1614   -0.7829 C   0  0  0  0  0  0  0  0  0  0  0  0
   -2.5542    0.9990   -0.5272 C   0  0  0  0  0  0  0  0  0  0  0  0
   -1.2861   -0.9743    0.4679 C   0  0  0  0  0  0  0  0  0  0  0  0
   -2.1849   -0.8028    1.5030 O   0  0  0  0  0  0  0  0  0  0  0  0
    3.6066    0.5345   -1.0039 H   0  0  0  0  0  0  0  0  0  0  0  0
    1.8736    1.0142   -1.2753 H   0  0  0  0  0  0  0  0  0  0  0  0
    2.3991   -0.7604   -1.3062 H   0  0  0  0  0  0  0  0  0  0  0  0
    2.4346    1.1238    1.1210 H   0  0  0  0  0  0  0  0  0  0  0  0
    3.2374   -0.4594    1.0415 H   0  0  0  0  0  0  0  0  0  0  0  0
    1.0600   -0.6456    2.1364 H   0  0  0  0  0  0  0  0  0  0  0  0
    1.2499   -1.6726    0.7046 H   0  0  0  0  0  0  0  0  0  0  0  0
   -0.3898    0.9296    1.0682 H   0  0  0  0  0  0  0  0  0  0  0  0
   -1.9920   -0.8023   -1.5771 H   0  0  0  0  0  0  0  0  0  0  0  0
   -2.9536    0.8595    0.5160 H   0  0  0  0  0  0  0  0  0  0  0  0
   -2.0689    1.9672   -0.6621 H   0  0  0  0  0  0  0  0  0  0  0  0
   -3.4493    0.9753   -1.1886 H   0  0  0  0  0  0  0  0  0  0  0  0
   -1.0137   -2.0028    0.2201 H   0  0  0  0  0  0  0  0  0  0  0  0
   -1.9759   -0.0410    2.0798 H   0  0  0  0  0  0  0  0  0  0  0  0
  1  2  1  0
  2  3  1  0
  3  4  1  0
  4  5  1  0
  5  6  1  0
  6  7  1  0
  6  8  1  0
  8  9  1  0
  8  4  1  0
  1 10  1  0
  1 11  1  0
  1 12  1  0
  2 13  1  0
  2 14  1  0
  3 15  1  0
  3 16  1  0
  4 17  1  0
  6 18  1  0
  7 19  1  0
  7 20  1  0
  7 21  1  0
  8 22  1  0
  9 23  1  0
M  END
