
     RDKit          3D

 21 21  0  0  0  0  0  0  0  0999 V2000
   -2.6880    1.0170    0.4243 C   0  0  0  0  0  0  0  0  0  0  0  0
   -1.7151   -0.1423    0.4035 C   0  0  0  0  0  0  0  0  0  0  0  0
   -0.3096    0.3830    0.2343 C   0  0  0  0  0  0  0  0  0  0  0  0
    0.7101   -0.7338    0.2062 C   0  0  0  0  0  0  0  0  0  0  0  0
    2.1282   -0.3067    0.0420 C   0  0  0  0  0  0  0  0  0  0  0  0
    2.5183    1.1132   -0.0858 C   0  0  0  0  0  0  0  0  0  0  0  0
    2.9989   -1.1842    0.0135 O   0  0  0  0  0  0  0  0  0  0  0  0
    0.3746   -2.0824   -0.1573 C   0  0  0  0  0  0  0  0  0  0  0  0
    0.5883   -1.7378    1.2232 O   0  0  0  0  0  0  0  0  0  0  0  0
   -2.2634    1.9109   -0.0722 H   0  0  0  0  0  0  0  0  0  0  0  0
   -3.6055    0.6840   -0.1073 H   0  0  0  0  0  0  0  0  0  0  0  0
   -2.9929    1.2577    1.4815 H   0  0  0  0  0  0  0  0  0  0  0  0
   -1.8671   -0.7219    1.3151 H   0  0  0  0  0  0  0  0  0  0  0  0
   -1.9471   -0.8060   -0.4595 H   0  0  0  0  0  0  0  0  0  0  0  0
   -0.0776    1.1567    0.9952 H   0  0  0  0  0  0  0  0  0  0  0  0
   -0.2669    0.8793   -0.7582 H   0  0  0  0  0  0  0  0  0  0  0  0
    2.3671    1.6968    0.8469 H   0  0  0  0  0  0  0  0  0  0  0  0
    1.9349    1.6425   -0.8888 H   0  0  0  0  0  0  0  0  0  0  0  0
    3.5748    1.1801   -0.4025 H   0  0  0  0  0  0  0  0  0  0  0  0
   -0.6339   -2.4833   -0.3032 H   0  0  0  0  0  0  0  0  0  0  0  0
    1.1718   -2.7226   -0.6154 H   0  0  0  0  0  0  0  0  0  0  0  0
  1  2  1  0
  2  3  1  0
  3  4  1  0
  4  5  1  0
  5  6  1  0
  5  7  2  0
  4  8  1  0
  8  9  1  0
  9  4  1  0
  1 10  1  0
  1 11  1  0
  1 12  1  0
  2 13  1  0
  2 14  1  0
  3 15  1  0
  3 16  1  0
  6 17  1  0
  6 18  1  0
  6 19  1  0
  8 20  1  0
  8 21  1  0
M  END
