
     RDKit          3D

 23 23  0  0  0  0  0  0  0  0999 V2000
   -2.0850    0.7047    0.7258 C   0  0  0  0  0  0  0  0  0  0  0  0
   -2.2248   -0.5415   -0.0736 C   0  0  0  0  0  0  0  0  0  0  0  0
   -1.0339   -0.9398   -0.8926 C   0  0  0  0  0  0  0  0  0  0  0  0
    0.2164   -1.2229   -0.1483 C   0  0  0  0  0  0  0  0  0  0  0  0
    0.8163   -0.1369    0.6505 C   0  0  0  0  0  0  0  0  0  0  0  0
    1.2772    1.1583    0.1070 C   0  0  0  0  0  0  0  0  0  0  0  0
    1.3357    2.2607    0.9529 O   0  0  0  0  0  0  0  0  0  0  0  0
    2.3137    0.1066    0.4246 C   0  0  0  0  0  0  0  0  0  0  0  0
    2.8944   -0.4546   -0.7141 O   0  0  0  0  0  0  0  0  0  0  0  0
   -1.5631    1.4955    0.1438 H   0  0  0  0  0  0  0  0  0  0  0  0
   -1.6588    0.5770    1.7251 H   0  0  0  0  0  0  0  0  0  0  0  0
   -3.1180    1.1163    0.9102 H   0  0  0  0  0  0  0  0  0  0  0  0
   -2.4431   -1.4044    0.6020 H   0  0  0  0  0  0  0  0  0  0  0  0
   -3.1140   -0.3888   -0.7508 H   0  0  0  0  0  0  0  0  0  0  0  0
   -1.3326   -1.9166   -1.3870 H   0  0  0  0  0  0  0  0  0  0  0  0
   -0.8923   -0.2161   -1.7372 H   0  0  0  0  0  0  0  0  0  0  0  0
    0.9908   -1.6368   -0.8523 H   0  0  0  0  0  0  0  0  0  0  0  0
    0.0005   -2.0796    0.5482 H   0  0  0  0  0  0  0  0  0  0  0  0
    0.5745   -0.1532    1.7530 H   0  0  0  0  0  0  0  0  0  0  0  0
    1.0122    1.3751   -0.9314 H   0  0  0  0  0  0  0  0  0  0  0  0
    1.4146    3.1153    0.4999 H   0  0  0  0  0  0  0  0  0  0  0  0
    2.9648    0.1991    1.2943 H   0  0  0  0  0  0  0  0  0  0  0  0
    3.6544   -1.0174   -0.4550 H   0  0  0  0  0  0  0  0  0  0  0  0
  1  2  1  0
  2  3  1  0
  3  4  1  0
  4  5  1  0
  5  6  1  0
  6  7  1  0
  6  8  1  0
  8  9  1  0
  8  5  1  0
  1 10  1  0
  1 11  1  0
  1 12  1  0
  2 13  1  0
  2 14  1  0
  3 15  1  0
  3 16  1  0
  4 17  1  0
  4 18  1  0
  5 19  1  0
  6 20  1  0
  7 21  1  0
  8 22  1  0
  9 23  1  0
M  END
