
     RDKit          3D

 21 21  0  0  0  0  0  0  0  0999 V2000
    3.1374   -0.1530   -0.1527 C   0  0  0  0  0  0  0  0  0  0  0  0
    1.7537   -0.4478    0.4004 C   0  0  0  0  0  0  0  0  0  0  0  0
    0.7539    0.4561   -0.2830 C   0  0  0  0  0  0  0  0  0  0  0  0
   -0.6071    0.1359    0.2904 C   0  0  0  0  0  0  0  0  0  0  0  0
   -1.7586    0.9610   -0.2873 C   0  0  0  0  0  0  0  0  0  0  0  0
   -2.6067    1.4722    0.6782 O   0  0  0  0  0  0  0  0  0  0  0  0
   -1.6432   -0.4939   -0.5302 C   0  0  0  0  0  0  0  0  0  0  0  0
   -2.5438   -1.4695    0.1104 C   0  0  0  0  0  0  0  0  0  0  0  0
   -2.9480   -1.2775    1.2494 O   0  0  0  0  0  0  0  0  0  0  0  0
    3.1578   -0.4883   -1.2123 H   0  0  0  0  0  0  0  0  0  0  0  0
    3.2891    0.9453   -0.1010 H   0  0  0  0  0  0  0  0  0  0  0  0
    3.8727   -0.6960    0.4796 H   0  0  0  0  0  0  0  0  0  0  0  0
    1.4355   -1.4857    0.2090 H   0  0  0  0  0  0  0  0  0  0  0  0
    1.6992   -0.2256    1.4835 H   0  0  0  0  0  0  0  0  0  0  0  0
    0.7731    0.3638   -1.3878 H   0  0  0  0  0  0  0  0  0  0  0  0
    0.9410    1.5374   -0.0648 H   0  0  0  0  0  0  0  0  0  0  0  0
   -0.5932   -0.0783    1.3657 H   0  0  0  0  0  0  0  0  0  0  0  0
   -1.5146    1.6642   -1.0951 H   0  0  0  0  0  0  0  0  0  0  0  0
   -2.3756    2.4287    0.7932 H   0  0  0  0  0  0  0  0  0  0  0  0
   -1.3345   -0.7693   -1.5742 H   0  0  0  0  0  0  0  0  0  0  0  0
   -2.8878   -2.3796   -0.3715 H   0  0  0  0  0  0  0  0  0  0  0  0
  1  2  1  0
  2  3  1  0
  3  4  1  0
  4  5  1  0
  5  6  1  0
  5  7  1  0
  7  8  1  0
  8  9  2  0
  7  4  1  0
  1 10  1  0
  1 11  1  0
  1 12  1  0
  2 13  1  0
  2 14  1  0
  3 15  1  0
  3 16  1  0
  4 17  1  0
  5 18  1  0
  6 19  1  0
  7 20  1  0
  8 21  1  0
M  END
