
     RDKit          3D

 25 26  0  0  0  0  0  0  0  0999 V2000
   -3.8368    0.6880   -0.1846 C   0  0  0  0  0  0  0  0  0  0  0  0
   -2.4774    0.3945   -0.8188 C   0  0  0  0  0  0  0  0  0  0  0  0
   -1.6298   -0.2630    0.2676 C   0  0  0  0  0  0  0  0  0  0  0  0
   -0.2506   -0.5992   -0.2547 C   0  0  0  0  0  0  0  0  0  0  0  0
    0.6299   -1.2583    0.7991 C   0  0  0  0  0  0  0  0  0  0  0  0
    0.8890    0.1516    0.2590 C   0  0  0  0  0  0  0  0  0  0  0  0
    2.1947    0.2660   -0.4848 C   0  0  0  0  0  0  0  0  0  0  0  0
    3.3332    1.0170    0.0300 C   0  0  0  0  0  0  0  0  0  0  0  0
    3.3461   -0.4779    0.2089 C   0  0  0  0  0  0  0  0  0  0  0  0
   -4.4307    1.3751   -0.8165 H   0  0  0  0  0  0  0  0  0  0  0  0
   -4.3362   -0.3000   -0.0616 H   0  0  0  0  0  0  0  0  0  0  0  0
   -3.6946    1.0864    0.8452 H   0  0  0  0  0  0  0  0  0  0  0  0
   -2.0081    1.2847   -1.2439 H   0  0  0  0  0  0  0  0  0  0  0  0
   -2.6824   -0.3164   -1.6437 H   0  0  0  0  0  0  0  0  0  0  0  0
   -2.1572   -1.1935    0.5618 H   0  0  0  0  0  0  0  0  0  0  0  0
   -1.6024    0.3864    1.1657 H   0  0  0  0  0  0  0  0  0  0  0  0
   -0.2041   -0.9687   -1.2865 H   0  0  0  0  0  0  0  0  0  0  0  0
    1.2916   -2.0781    0.4728 H   0  0  0  0  0  0  0  0  0  0  0  0
    0.2678   -1.3545    1.8282 H   0  0  0  0  0  0  0  0  0  0  0  0
    0.6941    1.0042    0.9415 H   0  0  0  0  0  0  0  0  0  0  0  0
    2.1121    0.0528   -1.5704 H   0  0  0  0  0  0  0  0  0  0  0  0
    4.0775    1.3676   -0.7417 H   0  0  0  0  0  0  0  0  0  0  0  0
    3.2852    1.6802    0.8956 H   0  0  0  0  0  0  0  0  0  0  0  0
    3.1904   -0.8316    1.2418 H   0  0  0  0  0  0  0  0  0  0  0  0
    3.9988   -1.1135   -0.4099 H   0  0  0  0  0  0  0  0  0  0  0  0
  1  2  1  0
  2  3  1  0
  3  4  1  0
  4  5  1  0
  5  6  1  0
  6  7  1  0
  7  8  1  0
  8  9  1  0
  6  4  1  0
  9  7  1  0
  1 10  1  0
  1 11  1  0
  1 12  1  0
  2 13  1  0
  2 14  1  0
  3 15  1  0
  3 16  1  0
  4 17  1  0
  5 18  1  0
  5 19  1  0
  6 20  1  0
  7 21  1  0
  8 22  1  0
  8 23  1  0
  9 24  1  0
  9 25  1  0
M  END
