
     RDKit          3D

 23 23  0  0  0  0  0  0  0  0999 V2000
   -3.1077    0.6991   -0.0196 C   0  0  0  0  0  0  0  0  0  0  0  0
   -2.0134    0.2810    0.9502 C   0  0  0  0  0  0  0  0  0  0  0  0
   -0.7110    0.1008    0.1409 C   0  0  0  0  0  0  0  0  0  0  0  0
    0.3167   -0.3071    1.1456 C   0  0  0  0  0  0  0  0  0  0  0  0
    1.6379   -0.5508    0.5235 C   0  0  0  0  0  0  0  0  0  0  0  0
    2.3534    0.5425   -0.1816 C   0  0  0  0  0  0  0  0  0  0  0  0
    1.6248    1.5660   -0.6975 O   0  0  0  0  0  0  0  0  0  0  0  0
    1.7306   -1.9615   -0.0961 C   0  0  0  0  0  0  0  0  0  0  0  0
    2.4633   -1.5610    1.0302 O   0  0  0  0  0  0  0  0  0  0  0  0
   -3.0337    0.1388   -0.9611 H   0  0  0  0  0  0  0  0  0  0  0  0
   -2.9775    1.7991   -0.1677 H   0  0  0  0  0  0  0  0  0  0  0  0
   -4.0813    0.4518    0.4504 H   0  0  0  0  0  0  0  0  0  0  0  0
   -2.2130   -0.7095    1.4053 H   0  0  0  0  0  0  0  0  0  0  0  0
   -1.7808    1.0680    1.6893 H   0  0  0  0  0  0  0  0  0  0  0  0
   -0.8926   -0.6678   -0.6391 H   0  0  0  0  0  0  0  0  0  0  0  0
   -0.4528    1.0239   -0.3673 H   0  0  0  0  0  0  0  0  0  0  0  0
    0.3346    0.5227    1.9093 H   0  0  0  0  0  0  0  0  0  0  0  0
   -0.0284   -1.2495    1.6600 H   0  0  0  0  0  0  0  0  0  0  0  0
    3.0540    1.0119    0.5803 H   0  0  0  0  0  0  0  0  0  0  0  0
    3.0710    0.1237   -0.9500 H   0  0  0  0  0  0  0  0  0  0  0  0
    1.5319    2.3537   -0.0964 H   0  0  0  0  0  0  0  0  0  0  0  0
    0.9611   -2.7037    0.1539 H   0  0  0  0  0  0  0  0  0  0  0  0
    2.2129   -1.9724   -1.0718 H   0  0  0  0  0  0  0  0  0  0  0  0
  1  2  1  0
  2  3  1  0
  3  4  1  0
  4  5  1  0
  5  6  1  0
  6  7  1  0
  5  8  1  0
  8  9  1  0
  9  5  1  0
  1 10  1  0
  1 11  1  0
  1 12  1  0
  2 13  1  0
  2 14  1  0
  3 15  1  0
  3 16  1  0
  4 17  1  0
  4 18  1  0
  6 19  1  0
  6 20  1  0
  7 21  1  0
  8 22  1  0
  8 23  1  0
M  END
