
     RDKit          3D

 23 24  0  0  0  0  0  0  0  0999 V2000
    2.7631    0.3806    0.1835 C   0  0  0  0  0  0  0  0  0  0  0  0
    1.9179   -0.8445    0.4113 C   0  0  0  0  0  0  0  0  0  0  0  0
    0.7547   -0.9212   -0.5542 C   0  0  0  0  0  0  0  0  0  0  0  0
   -0.1569    0.2657   -0.4284 C   0  0  0  0  0  0  0  0  0  0  0  0
   -1.3422    0.3010   -1.3319 C   0  0  0  0  0  0  0  0  0  0  0  0
   -2.2826    0.6032   -0.2250 C   0  0  0  0  0  0  0  0  0  0  0  0
   -1.9278    1.3033    1.0139 C   0  0  0  0  0  0  0  0  0  0  0  0
   -1.1538    0.0949    0.7199 C   0  0  0  0  0  0  0  0  0  0  0  0
   -1.3919   -1.1350    1.2450 O   0  0  0  0  0  0  0  0  0  0  0  0
    3.8147    0.0721    0.0507 H   0  0  0  0  0  0  0  0  0  0  0  0
    2.7603    1.0295    1.1058 H   0  0  0  0  0  0  0  0  0  0  0  0
    2.4545    0.9711   -0.6899 H   0  0  0  0  0  0  0  0  0  0  0  0
    1.5162   -0.8586    1.4488 H   0  0  0  0  0  0  0  0  0  0  0  0
    2.5300   -1.7740    0.2273 H   0  0  0  0  0  0  0  0  0  0  0  0
    0.1859   -1.8490   -0.2773 H   0  0  0  0  0  0  0  0  0  0  0  0
    1.1038   -1.0671   -1.5864 H   0  0  0  0  0  0  0  0  0  0  0  0
    0.3793    1.2237   -0.4339 H   0  0  0  0  0  0  0  0  0  0  0  0
   -1.5450   -0.7008   -1.8084 H   0  0  0  0  0  0  0  0  0  0  0  0
   -1.3356    1.0582   -2.1348 H   0  0  0  0  0  0  0  0  0  0  0  0
   -3.2205    0.0355   -0.2304 H   0  0  0  0  0  0  0  0  0  0  0  0
   -2.6232    1.2436    1.8564 H   0  0  0  0  0  0  0  0  0  0  0  0
   -1.4257    2.2845    0.9137 H   0  0  0  0  0  0  0  0  0  0  0  0
   -1.7751   -1.7167    0.5242 H   0  0  0  0  0  0  0  0  0  0  0  0
  1  2  1  0
  2  3  1  0
  3  4  1  0
  4  5  1  0
  5  6  1  0
  6  7  1  0
  7  8  1  0
  8  9  1  0
  8  4  1  0
  8  6  1  0
  1 10  1  0
  1 11  1  0
  1 12  1  0
  2 13  1  0
  2 14  1  0
  3 15  1  0
  3 16  1  0
  4 17  1  0
  5 18  1  0
  5 19  1  0
  6 20  1  0
  7 21  1  0
  7 22  1  0
  9 23  1  0
M  END
