
     RDKit          3D

 24 23  0  0  0  0  0  0  0  0999 V2000
    2.2206    0.8637   -0.4172 C   0  0  0  0  0  0  0  0  0  0  0  0
    2.1199   -0.5115    0.1238 C   0  0  0  0  0  0  0  0  0  0  0  0
    0.8479   -1.2376    0.0157 C   0  0  0  0  0  0  0  0  0  0  0  0
   -0.3590   -0.7126    0.6853 C   0  0  0  0  0  0  0  0  0  0  0  0
   -0.2121   -0.5768    2.0637 O   0  0  0  0  0  0  0  0  0  0  0  0
   -0.9132    0.4916   -0.0033 C   0  0  0  0  0  0  0  0  0  0  0  0
   -1.2698    0.1127   -1.4479 C   0  0  0  0  0  0  0  0  0  0  0  0
   -2.2560    0.8833    0.6419 C   0  0  0  0  0  0  0  0  0  0  0  0
    2.0290    1.6627    0.3294 H   0  0  0  0  0  0  0  0  0  0  0  0
    1.6599    1.0455   -1.3388 H   0  0  0  0  0  0  0  0  0  0  0  0
    3.3054    1.0804   -0.7323 H   0  0  0  0  0  0  0  0  0  0  0  0
    2.8899   -1.1285   -0.4454 H   0  0  0  0  0  0  0  0  0  0  0  0
    2.5304   -0.5338    1.1812 H   0  0  0  0  0  0  0  0  0  0  0  0
    0.6639   -1.4435   -1.0896 H   0  0  0  0  0  0  0  0  0  0  0  0
    1.0003   -2.2981    0.4116 H   0  0  0  0  0  0  0  0  0  0  0  0
   -1.2080   -1.4923    0.6025 H   0  0  0  0  0  0  0  0  0  0  0  0
   -1.0865   -0.5105    2.5103 H   0  0  0  0  0  0  0  0  0  0  0  0
   -0.2391    1.3313   -0.0449 H   0  0  0  0  0  0  0  0  0  0  0  0
   -1.8486   -0.8354   -1.4748 H   0  0  0  0  0  0  0  0  0  0  0  0
   -1.9270    0.9348   -1.8060 H   0  0  0  0  0  0  0  0  0  0  0  0
   -0.3806    0.0191   -2.0705 H   0  0  0  0  0  0  0  0  0  0  0  0
   -2.7509   -0.0774    0.8967 H   0  0  0  0  0  0  0  0  0  0  0  0
   -2.0004    1.4917    1.5316 H   0  0  0  0  0  0  0  0  0  0  0  0
   -2.8158    1.4411   -0.1230 H   0  0  0  0  0  0  0  0  0  0  0  0
  1  2  1  0
  2  3  1  0
  3  4  1  0
  4  5  1  0
  4  6  1  0
  6  7  1  0
  6  8  1  0
  1  9  1  0
  1 10  1  0
  1 11  1  0
  2 12  1  0
  2 13  1  0
  3 14  1  0
  3 15  1  0
  4 16  1  0
  5 17  1  0
  6 18  1  0
  7 19  1  0
  7 20  1  0
  7 21  1  0
  8 22  1  0
  8 23  1  0
  8 24  1  0
M  END
