
     RDKit          3D

 19 20  0  0  0  0  0  0  0  0999 V2000
   -2.4482    0.6280    0.3467 C   0  0  0  0  0  0  0  0  0  0  0  0
   -1.7596   -0.3126   -0.5844 C   0  0  0  0  0  0  0  0  0  0  0  0
   -0.5218   -0.9274   -0.0270 C   0  0  0  0  0  0  0  0  0  0  0  0
    0.5301    0.0707    0.3488 C   0  0  0  0  0  0  0  0  0  0  0  0
    1.7956   -0.5853    0.9203 C   0  0  0  0  0  0  0  0  0  0  0  0
    2.7676    0.2201    1.5050 O   0  0  0  0  0  0  0  0  0  0  0  0
    2.8572    1.0011    0.3467 C   0  0  0  0  0  0  0  0  0  0  0  0
    3.6125    1.9663    0.0815 O   0  0  0  0  0  0  0  0  0  0  0  0
    1.7758    0.2613   -0.3592 C   0  0  0  0  0  0  0  0  0  0  0  0
   -3.5678    0.4824    0.3383 H   0  0  0  0  0  0  0  0  0  0  0  0
   -2.3093    1.6825   -0.0053 H   0  0  0  0  0  0  0  0  0  0  0  0
   -2.0741    0.5946    1.3895 H   0  0  0  0  0  0  0  0  0  0  0  0
   -1.4914    0.1819   -1.5458 H   0  0  0  0  0  0  0  0  0  0  0  0
   -2.4698   -1.1354   -0.8235 H   0  0  0  0  0  0  0  0  0  0  0  0
   -0.7343   -1.5452    0.8829 H   0  0  0  0  0  0  0  0  0  0  0  0
   -0.1192   -1.6373   -0.7792 H   0  0  0  0  0  0  0  0  0  0  0  0
    0.1428    0.9357    0.9482 H   0  0  0  0  0  0  0  0  0  0  0  0
    1.9567   -1.6557    0.7248 H   0  0  0  0  0  0  0  0  0  0  0  0
    2.0573   -0.2258   -1.3099 H   0  0  0  0  0  0  0  0  0  0  0  0
  1  2  1  0
  2  3  1  0
  3  4  1  0
  4  5  1  0
  5  6  1  0
  6  7  1  0
  7  8  2  0
  7  9  1  0
  9  4  1  0
  9  5  1  0
  1 10  1  0
  1 11  1  0
  1 12  1  0
  2 13  1  0
  2 14  1  0
  3 15  1  0
  3 16  1  0
  4 17  1  0
  5 18  1  0
  9 19  1  0
M  END
