
     RDKit          3D

 25 24  0  0  0  0  0  0  0  0999 V2000
    3.4842    0.0188    0.2820 C   0  0  0  0  0  0  0  0  0  0  0  0
    2.2044   -0.7029   -0.0295 C   0  0  0  0  0  0  0  0  0  0  0  0
    1.0706    0.3248   -0.0023 C   0  0  0  0  0  0  0  0  0  0  0  0
   -0.1822   -0.4366   -0.3173 C   0  0  0  0  0  0  0  0  0  0  0  0
   -1.4192    0.4128   -0.3370 C   0  0  0  0  0  0  0  0  0  0  0  0
   -1.7042    1.0949    0.9614 C   0  0  0  0  0  0  0  0  0  0  0  0
   -1.3298    1.3327   -1.3739 O   0  0  0  0  0  0  0  0  0  0  0  0
   -2.5921   -0.5485   -0.5805 C   0  0  0  0  0  0  0  0  0  0  0  0
   -2.5797   -1.4224    0.5243 O   0  0  0  0  0  0  0  0  0  0  0  0
    3.2251    0.8146    1.0357 H   0  0  0  0  0  0  0  0  0  0  0  0
    4.1920   -0.7245    0.7054 H   0  0  0  0  0  0  0  0  0  0  0  0
    3.8551    0.4648   -0.6664 H   0  0  0  0  0  0  0  0  0  0  0  0
    1.9899   -1.5282    0.6783 H   0  0  0  0  0  0  0  0  0  0  0  0
    2.2680   -1.1426   -1.0467 H   0  0  0  0  0  0  0  0  0  0  0  0
    1.0840    0.7967    0.9837 H   0  0  0  0  0  0  0  0  0  0  0  0
    1.2964    1.0503   -0.8099 H   0  0  0  0  0  0  0  0  0  0  0  0
   -0.2892   -1.3270    0.3267 H   0  0  0  0  0  0  0  0  0  0  0  0
   -0.0536   -0.8336   -1.3596 H   0  0  0  0  0  0  0  0  0  0  0  0
   -2.0292    0.3325    1.6923 H   0  0  0  0  0  0  0  0  0  0  0  0
   -0.8480    1.6403    1.3846 H   0  0  0  0  0  0  0  0  0  0  0  0
   -2.5636    1.7794    0.8001 H   0  0  0  0  0  0  0  0  0  0  0  0
   -0.7723    2.0841   -1.0680 H   0  0  0  0  0  0  0  0  0  0  0  0
   -2.4206   -1.1437   -1.4777 H   0  0  0  0  0  0  0  0  0  0  0  0
   -3.5218    0.0167   -0.5569 H   0  0  0  0  0  0  0  0  0  0  0  0
   -2.3643   -2.3529    0.2511 H   0  0  0  0  0  0  0  0  0  0  0  0
  1  2  1  0
  2  3  1  0
  3  4  1  0
  4  5  1  0
  5  6  1  0
  5  7  1  0
  5  8  1  0
  8  9  1  0
  1 10  1  0
  1 11  1  0
  1 12  1  0
  2 13  1  0
  2 14  1  0
  3 15  1  0
  3 16  1  0
  4 17  1  0
  4 18  1  0
  6 19  1  0
  6 20  1  0
  6 21  1  0
  7 22  1  0
  8 23  1  0
  8 24  1  0
  9 25  1  0
M  END
