
     RDKit          3D

 21 23  0  0  0  0  0  0  0  0999 V2000
   -2.9901    0.1276    0.1580 C   0  0  0  0  0  0  0  0  0  0  0  0
   -1.4933    0.3552    0.1196 C   0  0  0  0  0  0  0  0  0  0  0  0
   -0.7266   -0.9171    0.3843 C   0  0  0  0  0  0  0  0  0  0  0  0
    0.7287   -0.6328    0.3189 C   0  0  0  0  0  0  0  0  0  0  0  0
    1.6735   -1.6159    0.5280 O   0  0  0  0  0  0  0  0  0  0  0  0
    1.5016   -1.1364   -0.7407 C   0  0  0  0  0  0  0  0  0  0  0  0
    1.9400    0.2345   -1.1373 C   0  0  0  0  0  0  0  0  0  0  0  0
    2.7070    0.9828   -0.1197 C   0  0  0  0  0  0  0  0  0  0  0  0
    1.2463    0.7535    0.1534 C   0  0  0  0  0  0  0  0  0  0  0  0
   -3.2151   -0.8350   -0.3408 H   0  0  0  0  0  0  0  0  0  0  0  0
   -3.4641    0.9709   -0.3870 H   0  0  0  0  0  0  0  0  0  0  0  0
   -3.3076    0.0611    1.2080 H   0  0  0  0  0  0  0  0  0  0  0  0
   -1.1272    0.7632   -0.8409 H   0  0  0  0  0  0  0  0  0  0  0  0
   -1.1941    1.0953    0.9206 H   0  0  0  0  0  0  0  0  0  0  0  0
   -0.9643   -1.2161    1.4449 H   0  0  0  0  0  0  0  0  0  0  0  0
   -1.0300   -1.7246   -0.2959 H   0  0  0  0  0  0  0  0  0  0  0  0
    1.2585   -1.8970   -1.4969 H   0  0  0  0  0  0  0  0  0  0  0  0
    1.5451    0.6685   -2.0526 H   0  0  0  0  0  0  0  0  0  0  0  0
    2.9778    2.0282   -0.3213 H   0  0  0  0  0  0  0  0  0  0  0  0
    3.4042    0.3549    0.4963 H   0  0  0  0  0  0  0  0  0  0  0  0
    0.5297    1.5789    0.0228 H   0  0  0  0  0  0  0  0  0  0  0  0
  1  2  1  0
  2  3  1  0
  3  4  1  0
  4  5  1  0
  5  6  1  0
  6  7  1  0
  7  8  1  0
  8  9  1  0
  6  4  1  0
  9  7  1  0
  9  4  1  0
  1 10  1  0
  1 11  1  0
  1 12  1  0
  2 13  1  0
  2 14  1  0
  3 15  1  0
  3 16  1  0
  6 17  1  0
  7 18  1  0
  8 19  1  0
  8 20  1  0
  9 21  1  0
M  END
