
     RDKit          3D

 23 23  0  0  0  0  0  0  0  0999 V2000
    2.3744   -0.3400    0.1801 C   0  0  0  0  0  0  0  0  0  0  0  0
    1.4233   -0.9299   -0.8312 C   0  0  0  0  0  0  0  0  0  0  0  0
    0.2432   -0.0224   -1.0650 C   0  0  0  0  0  0  0  0  0  0  0  0
   -0.4927    0.1709    0.2244 C   0  0  0  0  0  0  0  0  0  0  0  0
   -0.9780   -0.9912    0.8099 O   0  0  0  0  0  0  0  0  0  0  0  0
   -1.8624   -1.6137   -0.0127 C   0  0  0  0  0  0  0  0  0  0  0  0
    0.1041    1.2362    1.1408 C   0  0  0  0  0  0  0  0  0  0  0  0
   -1.2345    1.4169    0.5195 C   0  0  0  0  0  0  0  0  0  0  0  0
   -1.4082    2.4085   -0.4336 O   0  0  0  0  0  0  0  0  0  0  0  0
    3.2703   -1.0196    0.1719 H   0  0  0  0  0  0  0  0  0  0  0  0
    2.7246    0.6707   -0.1375 H   0  0  0  0  0  0  0  0  0  0  0  0
    1.9781   -0.3517    1.1994 H   0  0  0  0  0  0  0  0  0  0  0  0
    1.0707   -1.9084   -0.4061 H   0  0  0  0  0  0  0  0  0  0  0  0
    1.9313   -1.1928   -1.7818 H   0  0  0  0  0  0  0  0  0  0  0  0
    0.5666    0.9453   -1.5184 H   0  0  0  0  0  0  0  0  0  0  0  0
   -0.3985   -0.4927   -1.8261 H   0  0  0  0  0  0  0  0  0  0  0  0
   -1.4346   -1.9254   -0.9661 H   0  0  0  0  0  0  0  0  0  0  0  0
   -2.7487   -0.9594   -0.2813 H   0  0  0  0  0  0  0  0  0  0  0  0
   -2.3274   -2.4529    0.5470 H   0  0  0  0  0  0  0  0  0  0  0  0
    0.1945    0.8946    2.2045 H   0  0  0  0  0  0  0  0  0  0  0  0
    0.8827    1.9125    0.7406 H   0  0  0  0  0  0  0  0  0  0  0  0
   -2.0891    1.3344    1.2215 H   0  0  0  0  0  0  0  0  0  0  0  0
   -1.7894    3.2103    0.0183 H   0  0  0  0  0  0  0  0  0  0  0  0
  1  2  1  0
  2  3  1  0
  3  4  1  0
  4  5  1  0
  5  6  1  0
  4  7  1  0
  7  8  1  0
  8  9  1  0
  8  4  1  0
  1 10  1  0
  1 11  1  0
  1 12  1  0
  2 13  1  0
  2 14  1  0
  3 15  1  0
  3 16  1  0
  6 17  1  0
  6 18  1  0
  6 19  1  0
  7 20  1  0
  7 21  1  0
  8 22  1  0
  9 23  1  0
M  END
