
     RDKit          3D

 27 27  0  0  0  0  0  0  0  0999 V2000
    3.7539    0.9640   -0.5153 C   0  0  0  0  0  0  0  0  0  0  0  0
    3.2038   -0.2939    0.0801 C   0  0  0  0  0  0  0  0  0  0  0  0
    1.9138   -0.7382   -0.5428 C   0  0  0  0  0  0  0  0  0  0  0  0
    0.8742    0.3577   -0.3540 C   0  0  0  0  0  0  0  0  0  0  0  0
   -0.4517   -0.0489   -0.9704 C   0  0  0  0  0  0  0  0  0  0  0  0
   -1.0401   -1.2929   -0.3890 C   0  0  0  0  0  0  0  0  0  0  0  0
   -1.6835    0.0857   -0.1873 C   0  0  0  0  0  0  0  0  0  0  0  0
   -3.0300    0.2355   -0.7973 C   0  0  0  0  0  0  0  0  0  0  0  0
   -4.1410    0.3555    0.2084 C   0  0  0  0  0  0  0  0  0  0  0  0
    4.8020    1.0783   -0.1428 H   0  0  0  0  0  0  0  0  0  0  0  0
    3.2107    1.8642   -0.1369 H   0  0  0  0  0  0  0  0  0  0  0  0
    3.7516    0.9213   -1.6123 H   0  0  0  0  0  0  0  0  0  0  0  0
    3.9574   -1.1018   -0.1021 H   0  0  0  0  0  0  0  0  0  0  0  0
    3.0918   -0.2055    1.1664 H   0  0  0  0  0  0  0  0  0  0  0  0
    1.6030   -1.6723   -0.0250 H   0  0  0  0  0  0  0  0  0  0  0  0
    2.0345   -0.9061   -1.6334 H   0  0  0  0  0  0  0  0  0  0  0  0
    0.8004    0.5581    0.7149 H   0  0  0  0  0  0  0  0  0  0  0  0
    1.2517    1.2409   -0.9400 H   0  0  0  0  0  0  0  0  0  0  0  0
   -0.5515    0.0823   -2.0677 H   0  0  0  0  0  0  0  0  0  0  0  0
   -1.5305   -1.9953   -1.0837 H   0  0  0  0  0  0  0  0  0  0  0  0
   -0.6375   -1.7615    0.5137 H   0  0  0  0  0  0  0  0  0  0  0  0
   -1.5311    0.5410    0.8377 H   0  0  0  0  0  0  0  0  0  0  0  0
   -3.0274    1.1654   -1.4088 H   0  0  0  0  0  0  0  0  0  0  0  0
   -3.2375   -0.6335   -1.4501 H   0  0  0  0  0  0  0  0  0  0  0  0
   -5.0615   -0.0512   -0.2598 H   0  0  0  0  0  0  0  0  0  0  0  0
   -3.9641   -0.1916    1.1422 H   0  0  0  0  0  0  0  0  0  0  0  0
   -4.3615    1.4431    0.3874 H   0  0  0  0  0  0  0  0  0  0  0  0
  1  2  1  0
  2  3  1  0
  3  4  1  0
  4  5  1  0
  5  6  1  0
  6  7  1  0
  7  8  1  0
  8  9  1  0
  7  5  1  0
  1 10  1  0
  1 11  1  0
  1 12  1  0
  2 13  1  0
  2 14  1  0
  3 15  1  0
  3 16  1  0
  4 17  1  0
  4 18  1  0
  5 19  1  0
  6 20  1  0
  6 21  1  0
  7 22  1  0
  8 23  1  0
  8 24  1  0
  9 25  1  0
  9 26  1  0
  9 27  1  0
M  END
