
     RDKit          3D

 23 22  0  0  0  0  0  0  0  0999 V2000
    2.9008   -0.0002    0.4042 C   0  0  0  0  0  0  0  0  0  0  0  0
    1.4920    0.5880    0.4386 C   0  0  0  0  0  0  0  0  0  0  0  0
    0.5704   -0.4457   -0.1277 C   0  0  0  0  0  0  0  0  0  0  0  0
   -0.8660   -0.0564   -0.1801 C   0  0  0  0  0  0  0  0  0  0  0  0
   -1.6022   -1.2560   -0.7877 C   0  0  0  0  0  0  0  0  0  0  0  0
   -1.1942    1.1331   -0.9922 C   0  0  0  0  0  0  0  0  0  0  0  0
   -1.4006    0.1036    1.2213 C   0  0  0  0  0  0  0  0  0  0  0  0
    2.8685   -1.0899    0.6922 H   0  0  0  0  0  0  0  0  0  0  0  0
    3.2857    0.0034   -0.6379 H   0  0  0  0  0  0  0  0  0  0  0  0
    3.5896    0.5542    1.0746 H   0  0  0  0  0  0  0  0  0  0  0  0
    1.2282    0.8202    1.4962 H   0  0  0  0  0  0  0  0  0  0  0  0
    1.5442    1.5194   -0.1480 H   0  0  0  0  0  0  0  0  0  0  0  0
    0.6513   -1.3379    0.5356 H   0  0  0  0  0  0  0  0  0  0  0  0
    0.9756   -0.7706   -1.1089 H   0  0  0  0  0  0  0  0  0  0  0  0
   -1.3251   -1.2435   -1.8719 H   0  0  0  0  0  0  0  0  0  0  0  0
   -2.6824   -1.1115   -0.7231 H   0  0  0  0  0  0  0  0  0  0  0  0
   -1.2486   -2.2103   -0.3331 H   0  0  0  0  0  0  0  0  0  0  0  0
   -2.0184    0.9330   -1.7390 H   0  0  0  0  0  0  0  0  0  0  0  0
   -0.3666    1.5533   -1.5803 H   0  0  0  0  0  0  0  0  0  0  0  0
   -1.6216    1.9414   -0.3384 H   0  0  0  0  0  0  0  0  0  0  0  0
   -1.0322    1.0077    1.7324 H   0  0  0  0  0  0  0  0  0  0  0  0
   -2.5149    0.1848    1.1375 H   0  0  0  0  0  0  0  0  0  0  0  0
   -1.2332   -0.8201    1.8356 H   0  0  0  0  0  0  0  0  0  0  0  0
  1  2  1  0
  2  3  1  0
  3  4  1  0
  4  5  1  0
  4  6  1  0
  4  7  1  0
  1  8  1  0
  1  9  1  0
  1 10  1  0
  2 11  1  0
  2 12  1  0
  3 13  1  0
  3 14  1  0
  5 15  1  0
  5 16  1  0
  5 17  1  0
  6 18  1  0
  6 19  1  0
  6 20  1  0
  7 21  1  0
  7 22  1  0
  7 23  1  0
M  END
