
     RDKit          3D

 23 24  0  0  0  0  0  0  0  0999 V2000
    2.2951    0.9820   -0.6515 C   0  0  0  0  0  0  0  0  0  0  0  0
    2.5638   -0.4116   -0.1479 C   0  0  0  0  0  0  0  0  0  0  0  0
    1.2853   -1.1375    0.2055 C   0  0  0  0  0  0  0  0  0  0  0  0
    0.5242   -0.4394    1.2671 C   0  0  0  0  0  0  0  0  0  0  0  0
    0.1481    0.9273    0.8414 O   0  0  0  0  0  0  0  0  0  0  0  0
   -0.8690   -0.1219    1.1920 C   0  0  0  0  0  0  0  0  0  0  0  0
   -1.7697   -0.4392    0.0503 C   0  0  0  0  0  0  0  0  0  0  0  0
   -3.2303   -0.0144    0.1640 C   0  0  0  0  0  0  0  0  0  0  0  0
   -2.3051    0.7466   -0.7272 C   0  0  0  0  0  0  0  0  0  0  0  0
    3.1383    1.2689   -1.3336 H   0  0  0  0  0  0  0  0  0  0  0  0
    2.2697    1.6561    0.2242 H   0  0  0  0  0  0  0  0  0  0  0  0
    1.3172    1.0769   -1.1688 H   0  0  0  0  0  0  0  0  0  0  0  0
    3.1745   -0.9992   -0.8653 H   0  0  0  0  0  0  0  0  0  0  0  0
    3.1686   -0.3140    0.7867 H   0  0  0  0  0  0  0  0  0  0  0  0
    0.6768   -1.3046   -0.7196 H   0  0  0  0  0  0  0  0  0  0  0  0
    1.5566   -2.1631    0.5509 H   0  0  0  0  0  0  0  0  0  0  0  0
    1.0100   -0.4548    2.2731 H   0  0  0  0  0  0  0  0  0  0  0  0
   -1.3846    0.2511    2.1018 H   0  0  0  0  0  0  0  0  0  0  0  0
   -1.6070   -1.3828   -0.5336 H   0  0  0  0  0  0  0  0  0  0  0  0
   -3.5381    0.5516    1.0816 H   0  0  0  0  0  0  0  0  0  0  0  0
   -3.9983   -0.6572   -0.3102 H   0  0  0  0  0  0  0  0  0  0  0  0
   -1.9292    1.7347   -0.4381 H   0  0  0  0  0  0  0  0  0  0  0  0
   -2.4969    0.6440   -1.8096 H   0  0  0  0  0  0  0  0  0  0  0  0
  1  2  1  0
  2  3  1  0
  3  4  1  0
  4  5  1  0
  5  6  1  0
  6  7  1  0
  7  8  1  0
  8  9  1  0
  6  4  1  0
  9  7  1  0
  1 10  1  0
  1 11  1  0
  1 12  1  0
  2 13  1  0
  2 14  1  0
  3 15  1  0
  3 16  1  0
  4 17  1  0
  6 18  1  0
  7 19  1  0
  8 20  1  0
  8 21  1  0
  9 22  1  0
  9 23  1  0
M  END
