
     RDKit          3D

 24 24  0  0  0  0  0  0  0  0999 V2000
    2.5202    0.5357   -0.7553 C   0  0  0  0  0  0  0  0  0  0  0  0
    2.2492   -0.5824    0.1807 C   0  0  0  0  0  0  0  0  0  0  0  0
    0.9711   -0.5656    0.9255 C   0  0  0  0  0  0  0  0  0  0  0  0
   -0.2776   -0.5885    0.1280 C   0  0  0  0  0  0  0  0  0  0  0  0
   -0.5024    0.5403   -0.8162 C   0  0  0  0  0  0  0  0  0  0  0  0
   -2.0317    0.4248   -1.0036 C   0  0  0  0  0  0  0  0  0  0  0  0
   -2.4593    0.4356    0.4502 C   0  0  0  0  0  0  0  0  0  0  0  0
   -1.4776   -0.5120    1.0800 C   0  0  0  0  0  0  0  0  0  0  0  0
    1.9499    1.4541   -0.6111 H   0  0  0  0  0  0  0  0  0  0  0  0
    2.3625    0.1958   -1.8123 H   0  0  0  0  0  0  0  0  0  0  0  0
    3.6047    0.8708   -0.7246 H   0  0  0  0  0  0  0  0  0  0  0  0
    3.0880   -0.5752    0.9398 H   0  0  0  0  0  0  0  0  0  0  0  0
    2.3525   -1.5944   -0.2953 H   0  0  0  0  0  0  0  0  0  0  0  0
    0.9179    0.2356    1.7067 H   0  0  0  0  0  0  0  0  0  0  0  0
    0.9561   -1.5137    1.5458 H   0  0  0  0  0  0  0  0  0  0  0  0
   -0.3648   -1.5322   -0.4550 H   0  0  0  0  0  0  0  0  0  0  0  0
   -0.3960    1.5480   -0.3219 H   0  0  0  0  0  0  0  0  0  0  0  0
   -0.0062    0.4528   -1.7775 H   0  0  0  0  0  0  0  0  0  0  0  0
   -2.2965   -0.5144   -1.5143 H   0  0  0  0  0  0  0  0  0  0  0  0
   -2.3289    1.3256   -1.5481 H   0  0  0  0  0  0  0  0  0  0  0  0
   -2.2420    1.4650    0.8367 H   0  0  0  0  0  0  0  0  0  0  0  0
   -3.5052    0.1455    0.5890 H   0  0  0  0  0  0  0  0  0  0  0  0
   -1.1702   -0.1249    2.0691 H   0  0  0  0  0  0  0  0  0  0  0  0
   -1.9136   -1.5263    1.1835 H   0  0  0  0  0  0  0  0  0  0  0  0
  1  2  1  0
  2  3  1  0
  3  4  1  0
  4  5  1  0
  5  6  1  0
  6  7  1  0
  7  8  1  0
  8  4  1  0
  1  9  1  0
  1 10  1  0
  1 11  1  0
  2 12  1  0
  2 13  1  0
  3 14  1  0
  3 15  1  0
  4 16  1  0
  5 17  1  0
  5 18  1  0
  6 19  1  0
  6 20  1  0
  7 21  1  0
  7 22  1  0
  8 23  1  0
  8 24  1  0
M  END
