
     RDKit          3D

 21 21  0  0  0  0  0  0  0  0999 V2000
    2.9181   -0.3570    0.1797 C   0  0  0  0  0  0  0  0  0  0  0  0
    1.6464    0.4227   -0.0742 C   0  0  0  0  0  0  0  0  0  0  0  0
    0.4348   -0.4791    0.0265 C   0  0  0  0  0  0  0  0  0  0  0  0
   -0.8399    0.2559   -0.2183 C   0  0  0  0  0  0  0  0  0  0  0  0
   -2.1509   -0.4556   -0.1645 C   0  0  0  0  0  0  0  0  0  0  0  0
   -2.4524   -1.0800    1.1234 C   0  0  0  0  0  0  0  0  0  0  0  0
   -1.6847   -1.0116    2.0620 O   0  0  0  0  0  0  0  0  0  0  0  0
   -0.8292    1.5847   -0.9049 C   0  0  0  0  0  0  0  0  0  0  0  0
   -0.8414    1.5690    0.4669 O   0  0  0  0  0  0  0  0  0  0  0  0
    2.8004   -1.1077    0.9859 H   0  0  0  0  0  0  0  0  0  0  0  0
    3.6953    0.4139    0.4560 H   0  0  0  0  0  0  0  0  0  0  0  0
    3.2557   -0.8941   -0.7317 H   0  0  0  0  0  0  0  0  0  0  0  0
    1.7418    0.8351   -1.1137 H   0  0  0  0  0  0  0  0  0  0  0  0
    1.5408    1.2471    0.6585 H   0  0  0  0  0  0  0  0  0  0  0  0
    0.5388   -1.2534   -0.7635 H   0  0  0  0  0  0  0  0  0  0  0  0
    0.4144   -0.9050    1.0464 H   0  0  0  0  0  0  0  0  0  0  0  0
   -2.1123   -1.2443   -0.9685 H   0  0  0  0  0  0  0  0  0  0  0  0
   -2.9663    0.2318   -0.4983 H   0  0  0  0  0  0  0  0  0  0  0  0
   -3.3742   -1.6215    1.2700 H   0  0  0  0  0  0  0  0  0  0  0  0
    0.0522    1.9286   -1.4663 H   0  0  0  0  0  0  0  0  0  0  0  0
   -1.7873    1.9204   -1.3714 H   0  0  0  0  0  0  0  0  0  0  0  0
  1  2  1  0
  2  3  1  0
  3  4  1  0
  4  5  1  0
  5  6  1  0
  6  7  2  0
  4  8  1  0
  8  9  1  0
  9  4  1  0
  1 10  1  0
  1 11  1  0
  1 12  1  0
  2 13  1  0
  2 14  1  0
  3 15  1  0
  3 16  1  0
  5 17  1  0
  5 18  1  0
  6 19  1  0
  8 20  1  0
  8 21  1  0
M  END
