
     RDKit          3D

 25 25  0  0  0  0  0  0  0  0999 V2000
    3.0438    1.4266   -0.1592 C   0  0  0  0  0  0  0  0  0  0  0  0
    1.5519    1.1110   -0.3392 C   0  0  0  0  0  0  0  0  0  0  0  0
    1.3359   -0.2616    0.1942 C   0  0  0  0  0  0  0  0  0  0  0  0
   -0.0866   -0.7385    0.0961 C   0  0  0  0  0  0  0  0  0  0  0  0
   -0.2547   -2.1443    0.6529 C   0  0  0  0  0  0  0  0  0  0  0  0
   -1.0877    0.1737    0.7740 C   0  0  0  0  0  0  0  0  0  0  0  0
   -1.9321   -0.3870   -0.3474 C   0  0  0  0  0  0  0  0  0  0  0  0
   -2.9149    0.5913   -0.9435 C   0  0  0  0  0  0  0  0  0  0  0  0
   -0.7385   -0.5048   -1.0895 O   0  0  0  0  0  0  0  0  0  0  0  0
    3.3659    2.2134   -0.8656 H   0  0  0  0  0  0  0  0  0  0  0  0
    3.5857    0.4730   -0.3177 H   0  0  0  0  0  0  0  0  0  0  0  0
    3.1524    1.7192    0.9066 H   0  0  0  0  0  0  0  0  0  0  0  0
    1.3802    1.1227   -1.4345 H   0  0  0  0  0  0  0  0  0  0  0  0
    0.9569    1.9005    0.1164 H   0  0  0  0  0  0  0  0  0  0  0  0
    1.6441   -0.3679    1.2537 H   0  0  0  0  0  0  0  0  0  0  0  0
    1.9830   -0.9563   -0.3864 H   0  0  0  0  0  0  0  0  0  0  0  0
   -0.4798   -2.1209    1.7473 H   0  0  0  0  0  0  0  0  0  0  0  0
   -0.9694   -2.7437    0.0762 H   0  0  0  0  0  0  0  0  0  0  0  0
    0.7312   -2.6757    0.5740 H   0  0  0  0  0  0  0  0  0  0  0  0
   -1.3794   -0.1381    1.7919 H   0  0  0  0  0  0  0  0  0  0  0  0
   -0.9050    1.2369    0.6047 H   0  0  0  0  0  0  0  0  0  0  0  0
   -2.4356   -1.3403   -0.1279 H   0  0  0  0  0  0  0  0  0  0  0  0
   -3.3008    0.1543   -1.8721 H   0  0  0  0  0  0  0  0  0  0  0  0
   -3.7688    0.6554   -0.2339 H   0  0  0  0  0  0  0  0  0  0  0  0
   -2.4777    1.6011   -1.0734 H   0  0  0  0  0  0  0  0  0  0  0  0
  1  2  1  0
  2  3  1  0
  3  4  1  0
  4  5  1  0
  4  6  1  0
  6  7  1  0
  7  8  1  0
  7  9  1  0
  9  4  1  0
  1 10  1  0
  1 11  1  0
  1 12  1  0
  2 13  1  0
  2 14  1  0
  3 15  1  0
  3 16  1  0
  5 17  1  0
  5 18  1  0
  5 19  1  0
  6 20  1  0
  6 21  1  0
  7 22  1  0
  8 23  1  0
  8 24  1  0
  8 25  1  0
M  END
