
     RDKit          3D

 23 24  0  0  0  0  0  0  0  0999 V2000
   -3.5800   -0.1630    0.0034 C   0  0  0  0  0  0  0  0  0  0  0  0
   -2.2090    0.3955    0.3236 C   0  0  0  0  0  0  0  0  0  0  0  0
   -1.1495   -0.2925   -0.4978 C   0  0  0  0  0  0  0  0  0  0  0  0
    0.2203    0.1954   -0.2449 C   0  0  0  0  0  0  0  0  0  0  0  0
    1.3275   -0.4404   -1.0238 C   0  0  0  0  0  0  0  0  0  0  0  0
    2.1297   -0.4373    0.2843 C   0  0  0  0  0  0  0  0  0  0  0  0
    3.3808    0.3857    0.2341 C   0  0  0  0  0  0  0  0  0  0  0  0
    0.9574    0.3241    0.8951 C   0  0  0  0  0  0  0  0  0  0  0  0
    0.4884    1.4555    0.2442 O   0  0  0  0  0  0  0  0  0  0  0  0
   -3.5930   -1.2277    0.3636 H   0  0  0  0  0  0  0  0  0  0  0  0
   -3.6879   -0.1459   -1.1027 H   0  0  0  0  0  0  0  0  0  0  0  0
   -4.3709    0.4336    0.4630 H   0  0  0  0  0  0  0  0  0  0  0  0
   -2.0412    0.1815    1.4142 H   0  0  0  0  0  0  0  0  0  0  0  0
   -2.1576    1.4791    0.1003 H   0  0  0  0  0  0  0  0  0  0  0  0
   -1.4703   -0.1964   -1.5755 H   0  0  0  0  0  0  0  0  0  0  0  0
   -1.1943   -1.3798   -0.2659 H   0  0  0  0  0  0  0  0  0  0  0  0
    1.1282   -1.4613   -1.4120 H   0  0  0  0  0  0  0  0  0  0  0  0
    1.7525    0.2018   -1.8048 H   0  0  0  0  0  0  0  0  0  0  0  0
    2.2173   -1.4441    0.7391 H   0  0  0  0  0  0  0  0  0  0  0  0
    4.0931    0.0615    1.0030 H   0  0  0  0  0  0  0  0  0  0  0  0
    3.1198    1.4733    0.3721 H   0  0  0  0  0  0  0  0  0  0  0  0
    3.8710    0.3279   -0.7531 H   0  0  0  0  0  0  0  0  0  0  0  0
    0.7676    0.2732    1.9625 H   0  0  0  0  0  0  0  0  0  0  0  0
  1  2  1  0
  2  3  1  0
  3  4  1  0
  4  5  1  0
  5  6  1  0
  6  7  1  0
  6  8  1  0
  8  9  1  0
  8  4  1  0
  9  4  1  0
  1 10  1  0
  1 11  1  0
  1 12  1  0
  2 13  1  0
  2 14  1  0
  3 15  1  0
  3 16  1  0
  5 17  1  0
  5 18  1  0
  6 19  1  0
  7 20  1  0
  7 21  1  0
  7 22  1  0
  8 23  1  0
M  END
