
     RDKit          3D

 22 21  0  0  0  0  0  0  0  0999 V2000
    2.9621    0.1659   -0.3397 C   0  0  0  0  0  0  0  0  0  0  0  0
    1.6583   -0.3172    0.2367 C   0  0  0  0  0  0  0  0  0  0  0  0
    0.4640    0.3252   -0.4332 C   0  0  0  0  0  0  0  0  0  0  0  0
   -0.8113   -0.1879    0.1757 C   0  0  0  0  0  0  0  0  0  0  0  0
   -0.9101   -1.7055    0.0040 C   0  0  0  0  0  0  0  0  0  0  0  0
   -2.0626    0.4047   -0.3650 C   0  0  0  0  0  0  0  0  0  0  0  0
   -2.2295    1.8470   -0.2199 C   0  0  0  0  0  0  0  0  0  0  0  0
   -1.3925    2.5208    0.3356 O   0  0  0  0  0  0  0  0  0  0  0  0
    3.2670    1.0682    0.2552 H   0  0  0  0  0  0  0  0  0  0  0  0
    3.7762   -0.5778   -0.1976 H   0  0  0  0  0  0  0  0  0  0  0  0
    2.8898    0.4496   -1.4003 H   0  0  0  0  0  0  0  0  0  0  0  0
    1.6164   -0.1615    1.3295 H   0  0  0  0  0  0  0  0  0  0  0  0
    1.5874   -1.4037    0.0466 H   0  0  0  0  0  0  0  0  0  0  0  0
    0.5035    1.4273   -0.3715 H   0  0  0  0  0  0  0  0  0  0  0  0
    0.4920    0.0781   -1.5270 H   0  0  0  0  0  0  0  0  0  0  0  0
   -0.7761    0.0588    1.2787 H   0  0  0  0  0  0  0  0  0  0  0  0
   -0.4609   -2.2401    0.8659 H   0  0  0  0  0  0  0  0  0  0  0  0
   -0.4384   -2.0098   -0.9691 H   0  0  0  0  0  0  0  0  0  0  0  0
   -1.9708   -2.0301   -0.0731 H   0  0  0  0  0  0  0  0  0  0  0  0
   -2.9228   -0.1784    0.0834 H   0  0  0  0  0  0  0  0  0  0  0  0
   -2.1362    0.1285   -1.4612 H   0  0  0  0  0  0  0  0  0  0  0  0
   -3.1054    2.3378   -0.6074 H   0  0  0  0  0  0  0  0  0  0  0  0
  1  2  1  0
  2  3  1  0
  3  4  1  0
  4  5  1  0
  4  6  1  0
  6  7  1  0
  7  8  2  0
  1  9  1  0
  1 10  1  0
  1 11  1  0
  2 12  1  0
  2 13  1  0
  3 14  1  0
  3 15  1  0
  4 16  1  0
  5 17  1  0
  5 18  1  0
  5 19  1  0
  6 20  1  0
  6 21  1  0
  7 22  1  0
M  END
