
     RDKit          3D

 23 24  0  0  0  0  0  0  0  0999 V2000
    3.2990   -0.5544   -0.3938 C   0  0  0  0  0  0  0  0  0  0  0  0
    2.0433   -0.5018    0.4332 C   0  0  0  0  0  0  0  0  0  0  0  0
    0.9939    0.3185   -0.2882 C   0  0  0  0  0  0  0  0  0  0  0  0
   -0.2791    0.3954    0.5081 C   0  0  0  0  0  0  0  0  0  0  0  0
   -0.8244   -0.8960    0.7356 O   0  0  0  0  0  0  0  0  0  0  0  0
   -2.1072   -0.7765    0.2672 C   0  0  0  0  0  0  0  0  0  0  0  0
   -1.8850   -0.1210   -1.1064 C   0  0  0  0  0  0  0  0  0  0  0  0
   -1.4085    1.0210   -0.2378 C   0  0  0  0  0  0  0  0  0  0  0  0
   -2.5850    0.6260    0.6729 C   0  0  0  0  0  0  0  0  0  0  0  0
    3.0983   -0.2473   -1.4211 H   0  0  0  0  0  0  0  0  0  0  0  0
    3.7687   -1.5563   -0.4049 H   0  0  0  0  0  0  0  0  0  0  0  0
    4.0867    0.1434    0.0092 H   0  0  0  0  0  0  0  0  0  0  0  0
    1.6596   -1.5582    0.5031 H   0  0  0  0  0  0  0  0  0  0  0  0
    2.2177   -0.1355    1.4619 H   0  0  0  0  0  0  0  0  0  0  0  0
    1.3552    1.3603   -0.4102 H   0  0  0  0  0  0  0  0  0  0  0  0
    0.7612   -0.0662   -1.2791 H   0  0  0  0  0  0  0  0  0  0  0  0
   -0.0925    0.8403    1.5078 H   0  0  0  0  0  0  0  0  0  0  0  0
   -2.8043   -1.5696    0.3232 H   0  0  0  0  0  0  0  0  0  0  0  0
   -2.8450    0.1248   -1.5721 H   0  0  0  0  0  0  0  0  0  0  0  0
   -1.1451   -0.6408   -1.7053 H   0  0  0  0  0  0  0  0  0  0  0  0
   -1.3735    2.0008   -0.6098 H   0  0  0  0  0  0  0  0  0  0  0  0
   -3.5165    0.9097    0.1918 H   0  0  0  0  0  0  0  0  0  0  0  0
   -2.4174    0.8836    1.7150 H   0  0  0  0  0  0  0  0  0  0  0  0
  1  2  1  0
  2  3  1  0
  3  4  1  0
  4  5  1  0
  5  6  1  0
  6  7  1  0
  7  8  1  0
  8  9  1  0
  8  4  1  0
  9  6  1  0
  1 10  1  0
  1 11  1  0
  1 12  1  0
  2 13  1  0
  2 14  1  0
  3 15  1  0
  3 16  1  0
  4 17  1  0
  6 18  1  0
  7 19  1  0
  7 20  1  0
  8 21  1  0
  9 22  1  0
  9 23  1  0
M  END
