
     RDKit          3D

 23 24  0  0  0  0  0  0  0  0999 V2000
    2.4950    0.1245    0.4019 C   0  0  0  0  0  0  0  0  0  0  0  0
    1.7149   -1.0519   -0.1057 C   0  0  0  0  0  0  0  0  0  0  0  0
    0.6898   -0.5114   -1.0995 C   0  0  0  0  0  0  0  0  0  0  0  0
   -0.1860    0.4595   -0.3481 C   0  0  0  0  0  0  0  0  0  0  0  0
   -1.2557    1.0672   -1.2492 C   0  0  0  0  0  0  0  0  0  0  0  0
   -2.3033    0.7504   -0.1733 C   0  0  0  0  0  0  0  0  0  0  0  0
   -1.2531   -0.1068    0.4918 C   0  0  0  0  0  0  0  0  0  0  0  0
   -1.2536   -0.5935    1.7855 C   0  0  0  0  0  0  0  0  0  0  0  0
   -1.4466   -1.4386    0.6955 O   0  0  0  0  0  0  0  0  0  0  0  0
    3.5966   -0.0811    0.4632 H   0  0  0  0  0  0  0  0  0  0  0  0
    2.3718    1.0210   -0.2235 H   0  0  0  0  0  0  0  0  0  0  0  0
    2.1631    0.3719    1.4211 H   0  0  0  0  0  0  0  0  0  0  0  0
    1.1697   -1.5385    0.7005 H   0  0  0  0  0  0  0  0  0  0  0  0
    2.4044   -1.7382   -0.6462 H   0  0  0  0  0  0  0  0  0  0  0  0
    1.2493   -0.0123   -1.9140 H   0  0  0  0  0  0  0  0  0  0  0  0
    0.1503   -1.3515   -1.5226 H   0  0  0  0  0  0  0  0  0  0  0  0
    0.3770    1.2635    0.1681 H   0  0  0  0  0  0  0  0  0  0  0  0
   -1.4328    0.4779   -2.1724 H   0  0  0  0  0  0  0  0  0  0  0  0
   -1.1206    2.1490   -1.4395 H   0  0  0  0  0  0  0  0  0  0  0  0
   -2.5104    1.6438    0.4647 H   0  0  0  0  0  0  0  0  0  0  0  0
   -3.1685    0.2137   -0.5591 H   0  0  0  0  0  0  0  0  0  0  0  0
   -0.3152   -0.6959    2.3891 H   0  0  0  0  0  0  0  0  0  0  0  0
   -2.1361   -0.4227    2.4716 H   0  0  0  0  0  0  0  0  0  0  0  0
  1  2  1  0
  2  3  1  0
  3  4  1  0
  4  5  1  0
  5  6  1  0
  6  7  1  0
  7  8  1  0
  8  9  1  0
  7  4  1  0
  9  7  1  0
  1 10  1  0
  1 11  1  0
  1 12  1  0
  2 13  1  0
  2 14  1  0
  3 15  1  0
  3 16  1  0
  4 17  1  0
  5 18  1  0
  5 19  1  0
  6 20  1  0
  6 21  1  0
  8 22  1  0
  8 23  1  0
M  END
