
     RDKit          3D

 23 24  0  0  0  0  0  0  0  0999 V2000
    3.0808    0.6481   -0.6390 C   0  0  0  0  0  0  0  0  0  0  0  0
    1.8544   -0.1977   -0.5365 C   0  0  0  0  0  0  0  0  0  0  0  0
    0.8404    0.3944    0.4500 C   0  0  0  0  0  0  0  0  0  0  0  0
   -0.3242   -0.5307    0.4623 C   0  0  0  0  0  0  0  0  0  0  0  0
   -1.4889   -0.2518    1.3203 C   0  0  0  0  0  0  0  0  0  0  0  0
   -2.2431   -1.1876    0.3939 C   0  0  0  0  0  0  0  0  0  0  0  0
   -1.4233   -0.2968   -0.5333 C   0  0  0  0  0  0  0  0  0  0  0  0
   -1.3689   -0.3723   -1.7793 O   0  0  0  0  0  0  0  0  0  0  0  0
   -1.8880    0.8104    0.3412 C   0  0  0  0  0  0  0  0  0  0  0  0
    3.2289    1.3391    0.2169 H   0  0  0  0  0  0  0  0  0  0  0  0
    3.9486   -0.0226   -0.7855 H   0  0  0  0  0  0  0  0  0  0  0  0
    3.0539    1.2935   -1.5649 H   0  0  0  0  0  0  0  0  0  0  0  0
    2.1165   -1.2290   -0.2658 H   0  0  0  0  0  0  0  0  0  0  0  0
    1.4005   -0.2538   -1.5602 H   0  0  0  0  0  0  0  0  0  0  0  0
    1.3579    0.4199    1.4413 H   0  0  0  0  0  0  0  0  0  0  0  0
    0.5988    1.4132    0.1080 H   0  0  0  0  0  0  0  0  0  0  0  0
   -0.0584   -1.6294    0.4491 H   0  0  0  0  0  0  0  0  0  0  0  0
   -1.5739   -0.2293    2.3159 H   0  0  0  0  0  0  0  0  0  0  0  0
   -3.3219   -1.0237    0.3575 H   0  0  0  0  0  0  0  0  0  0  0  0
   -1.8796   -2.2279    0.3740 H   0  0  0  0  0  0  0  0  0  0  0  0
   -1.5369    0.4465   -2.2895 H   0  0  0  0  0  0  0  0  0  0  0  0
   -3.0088    0.9256    0.3206 H   0  0  0  0  0  0  0  0  0  0  0  0
   -1.3649    1.7620    0.3509 H   0  0  0  0  0  0  0  0  0  0  0  0
  1  2  1  0
  2  3  1  0
  3  4  1  0
  4  5  1  0
  5  6  1  0
  6  7  1  0
  7  8  1  0
  7  9  1  0
  7  4  1  0
  9  5  1  0
  1 10  1  0
  1 11  1  0
  1 12  1  0
  2 13  1  0
  2 14  1  0
  3 15  1  0
  3 16  1  0
  4 17  1  0
  5 18  1  0
  6 19  1  0
  6 20  1  0
  8 21  1  0
  9 22  1  0
  9 23  1  0
M  END
