
     RDKit          3D

 19 18  0  0  0  0  0  0  0  0999 V2000
   -2.2695    1.0054    0.5321 C   0  0  0  0  0  0  0  0  0  0  0  0
   -1.9707    0.1201   -0.6239 C   0  0  0  0  0  0  0  0  0  0  0  0
   -1.0946   -1.0713   -0.3096 C   0  0  0  0  0  0  0  0  0  0  0  0
    0.2311   -0.6498    0.2197 C   0  0  0  0  0  0  0  0  0  0  0  0
    0.3667    0.1403    1.1856 O   0  0  0  0  0  0  0  0  0  0  0  0
    1.4197   -1.1306   -0.3594 O   0  0  0  0  0  0  0  0  0  0  0  0
    2.6625   -0.7113    0.1461 C   0  0  0  0  0  0  0  0  0  0  0  0
    2.8047    0.7607    0.0420 C   0  0  0  0  0  0  0  0  0  0  0  0
    1.9141    1.4395   -0.4233 O   0  0  0  0  0  0  0  0  0  0  0  0
   -3.2890    1.4783    0.4050 H   0  0  0  0  0  0  0  0  0  0  0  0
   -1.5823    1.9108    0.4972 H   0  0  0  0  0  0  0  0  0  0  0  0
   -2.2881    0.5460    1.5145 H   0  0  0  0  0  0  0  0  0  0  0  0
   -2.9369   -0.2126   -1.0981 H   0  0  0  0  0  0  0  0  0  0  0  0
   -1.4623    0.6989   -1.4249 H   0  0  0  0  0  0  0  0  0  0  0  0
   -1.5466   -1.7098    0.4714 H   0  0  0  0  0  0  0  0  0  0  0  0
   -1.0106   -1.6798   -1.2170 H   0  0  0  0  0  0  0  0  0  0  0  0
    2.8856   -1.0897    1.1570 H   0  0  0  0  0  0  0  0  0  0  0  0
    3.4831   -1.1364   -0.5008 H   0  0  0  0  0  0  0  0  0  0  0  0
    3.6831    1.2916    0.3644 H   0  0  0  0  0  0  0  0  0  0  0  0
  1  2  1  0
  2  3  1  0
  3  4  1  0
  4  5  2  0
  4  6  1  0
  6  7  1  0
  7  8  1  0
  8  9  2  0
  1 10  1  0
  1 11  1  0
  1 12  1  0
  2 13  1  0
  2 14  1  0
  3 15  1  0
  3 16  1  0
  7 17  1  0
  7 18  1  0
  8 19  1  0
M  END
