
     RDKit          3D

 23 24  0  0  0  0  0  0  0  0999 V2000
    2.5335    0.8317    0.7795 C   0  0  0  0  0  0  0  0  0  0  0  0
    2.4393   -0.2031   -0.3110 C   0  0  0  0  0  0  0  0  0  0  0  0
    1.1439   -0.9664   -0.2834 C   0  0  0  0  0  0  0  0  0  0  0  0
   -0.0666   -0.1105   -0.4491 C   0  0  0  0  0  0  0  0  0  0  0  0
   -1.3672   -0.8863   -0.4203 C   0  0  0  0  0  0  0  0  0  0  0  0
   -2.5390   -0.2388   -1.0738 C   0  0  0  0  0  0  0  0  0  0  0  0
   -2.6885    1.0222   -0.5283 O   0  0  0  0  0  0  0  0  0  0  0  0
   -2.0996    1.0214    0.7206 C   0  0  0  0  0  0  0  0  0  0  0  0
   -0.9705    0.0362    0.6972 C   0  0  0  0  0  0  0  0  0  0  0  0
    1.9689    0.5580    1.6911 H   0  0  0  0  0  0  0  0  0  0  0  0
    3.6054    0.8909    1.0767 H   0  0  0  0  0  0  0  0  0  0  0  0
    2.2544    1.8471    0.4321 H   0  0  0  0  0  0  0  0  0  0  0  0
    3.2571   -0.9453   -0.1879 H   0  0  0  0  0  0  0  0  0  0  0  0
    2.6245    0.3075   -1.2698 H   0  0  0  0  0  0  0  0  0  0  0  0
    1.1165   -1.5387    0.6593 H   0  0  0  0  0  0  0  0  0  0  0  0
    1.1715   -1.6869   -1.1255 H   0  0  0  0  0  0  0  0  0  0  0  0
    0.0261    0.6780   -1.2340 H   0  0  0  0  0  0  0  0  0  0  0  0
   -1.3604   -1.9606   -0.1676 H   0  0  0  0  0  0  0  0  0  0  0  0
   -2.3289   -0.1360   -2.1534 H   0  0  0  0  0  0  0  0  0  0  0  0
   -3.4318   -0.8747   -0.9279 H   0  0  0  0  0  0  0  0  0  0  0  0
   -1.7822    2.0525    0.9685 H   0  0  0  0  0  0  0  0  0  0  0  0
   -2.8570    0.6488    1.4437 H   0  0  0  0  0  0  0  0  0  0  0  0
   -0.6493   -0.3469    1.6632 H   0  0  0  0  0  0  0  0  0  0  0  0
  1  2  1  0
  2  3  1  0
  3  4  1  0
  4  5  1  0
  5  6  1  0
  6  7  1  0
  7  8  1  0
  8  9  1  0
  9  4  1  0
  9  5  1  0
  1 10  1  0
  1 11  1  0
  1 12  1  0
  2 13  1  0
  2 14  1  0
  3 15  1  0
  3 16  1  0
  4 17  1  0
  5 18  1  0
  6 19  1  0
  6 20  1  0
  8 21  1  0
  8 22  1  0
  9 23  1  0
M  END
