
     RDKit          3D

 27 27  0  0  0  0  0  0  0  0999 V2000
    3.3105    0.7260    0.1477 C   0  0  0  0  0  0  0  0  0  0  0  0
    1.9442    0.3507    0.7259 C   0  0  0  0  0  0  0  0  0  0  0  0
    1.1234   -0.1728   -0.4235 C   0  0  0  0  0  0  0  0  0  0  0  0
   -0.2567   -0.5915   -0.0381 C   0  0  0  0  0  0  0  0  0  0  0  0
   -1.1159    0.4836    0.5540 C   0  0  0  0  0  0  0  0  0  0  0  0
   -2.4935    0.0021    0.9219 C   0  0  0  0  0  0  0  0  0  0  0  0
   -1.2742    1.5737   -0.4848 C   0  0  0  0  0  0  0  0  0  0  0  0
   -0.5621   -2.0410    0.2063 C   0  0  0  0  0  0  0  0  0  0  0  0
   -0.9440   -1.4386   -1.1125 C   0  0  0  0  0  0  0  0  0  0  0  0
    3.1474    1.1084   -0.8850 H   0  0  0  0  0  0  0  0  0  0  0  0
    3.8862   -0.2409    0.1084 H   0  0  0  0  0  0  0  0  0  0  0  0
    3.8709    1.3969    0.7940 H   0  0  0  0  0  0  0  0  0  0  0  0
    1.4862    1.3306    1.0308 H   0  0  0  0  0  0  0  0  0  0  0  0
    2.0153   -0.3393    1.5637 H   0  0  0  0  0  0  0  0  0  0  0  0
    1.0461    0.6103   -1.2036 H   0  0  0  0  0  0  0  0  0  0  0  0
    1.6245   -1.0489   -0.8900 H   0  0  0  0  0  0  0  0  0  0  0  0
   -0.6673    0.9307    1.4512 H   0  0  0  0  0  0  0  0  0  0  0  0
   -3.1252   -0.2001    0.0173 H   0  0  0  0  0  0  0  0  0  0  0  0
   -2.5102   -0.8174    1.6412 H   0  0  0  0  0  0  0  0  0  0  0  0
   -3.0042    0.8705    1.4249 H   0  0  0  0  0  0  0  0  0  0  0  0
   -1.0774    1.1670   -1.4965 H   0  0  0  0  0  0  0  0  0  0  0  0
   -0.6536    2.4572   -0.2545 H   0  0  0  0  0  0  0  0  0  0  0  0
   -2.3382    1.9498   -0.5216 H   0  0  0  0  0  0  0  0  0  0  0  0
   -1.4067   -2.3333    0.8375 H   0  0  0  0  0  0  0  0  0  0  0  0
    0.3462   -2.6833    0.2823 H   0  0  0  0  0  0  0  0  0  0  0  0
   -2.0056   -1.2555   -1.3235 H   0  0  0  0  0  0  0  0  0  0  0  0
   -0.3661   -1.7949   -1.9660 H   0  0  0  0  0  0  0  0  0  0  0  0
  1  2  1  0
  2  3  1  0
  3  4  1  0
  4  5  1  0
  5  6  1  0
  5  7  1  0
  4  8  1  0
  8  9  1  0
  9  4  1  0
  1 10  1  0
  1 11  1  0
  1 12  1  0
  2 13  1  0
  2 14  1  0
  3 15  1  0
  3 16  1  0
  5 17  1  0
  6 18  1  0
  6 19  1  0
  6 20  1  0
  7 21  1  0
  7 22  1  0
  7 23  1  0
  8 24  1  0
  8 25  1  0
  9 26  1  0
  9 27  1  0
M  END
