
     RDKit          3D

 23 23  0  0  0  0  0  0  0  0999 V2000
    2.9402    0.3757   -0.2791 C   0  0  0  0  0  0  0  0  0  0  0  0
    1.5621    0.3133   -0.9268 C   0  0  0  0  0  0  0  0  0  0  0  0
    0.6775   -0.4636    0.0322 C   0  0  0  0  0  0  0  0  0  0  0  0
   -0.7257   -0.6147   -0.4641 C   0  0  0  0  0  0  0  0  0  0  0  0
   -0.9211   -1.2743   -1.6761 O   0  0  0  0  0  0  0  0  0  0  0  0
   -1.7763    0.3774   -0.1183 C   0  0  0  0  0  0  0  0  0  0  0  0
   -1.3167    1.6559    0.4985 C   0  0  0  0  0  0  0  0  0  0  0  0
   -1.7335   -0.8909    0.6563 C   0  0  0  0  0  0  0  0  0  0  0  0
   -2.5748   -1.9410    0.3989 O   0  0  0  0  0  0  0  0  0  0  0  0
    3.3872   -0.6362   -0.3435 H   0  0  0  0  0  0  0  0  0  0  0  0
    3.5861    1.1391   -0.7458 H   0  0  0  0  0  0  0  0  0  0  0  0
    2.7897    0.6210    0.7779 H   0  0  0  0  0  0  0  0  0  0  0  0
    1.1599    1.3268   -1.0011 H   0  0  0  0  0  0  0  0  0  0  0  0
    1.5819   -0.2363   -1.8834 H   0  0  0  0  0  0  0  0  0  0  0  0
    0.7177   -0.0893    1.0520 H   0  0  0  0  0  0  0  0  0  0  0  0
    1.1195   -1.5023    0.0626 H   0  0  0  0  0  0  0  0  0  0  0  0
   -0.1697   -1.8286   -1.9525 H   0  0  0  0  0  0  0  0  0  0  0  0
   -2.6530    0.4874   -0.7914 H   0  0  0  0  0  0  0  0  0  0  0  0
   -0.9166    2.3170   -0.3179 H   0  0  0  0  0  0  0  0  0  0  0  0
   -2.1793    2.2488    0.9228 H   0  0  0  0  0  0  0  0  0  0  0  0
   -0.5169    1.5226    1.2428 H   0  0  0  0  0  0  0  0  0  0  0  0
   -1.4059   -0.7970    1.6985 H   0  0  0  0  0  0  0  0  0  0  0  0
   -2.6323   -2.1107   -0.5731 H   0  0  0  0  0  0  0  0  0  0  0  0
  1  2  1  0
  2  3  1  0
  3  4  1  0
  4  5  1  0
  4  6  1  0
  6  7  1  0
  6  8  1  0
  8  9  1  0
  8  4  1  0
  1 10  1  0
  1 11  1  0
  1 12  1  0
  2 13  1  0
  2 14  1  0
  3 15  1  0
  3 16  1  0
  5 17  1  0
  6 18  1  0
  7 19  1  0
  7 20  1  0
  7 21  1  0
  8 22  1  0
  9 23  1  0
M  END
