
     RDKit          3D

 20 21  0  0  0  0  0  0  0  0999 V2000
    2.7659    0.0502   -0.1865 C   0  0  0  0  0  0  0  0  0  0  0  0
    1.4569   -0.6032    0.2320 C   0  0  0  0  0  0  0  0  0  0  0  0
    0.4079    0.4411    0.1023 C   0  0  0  0  0  0  0  0  0  0  0  0
   -1.0028   -0.0331    0.4850 C   0  0  0  0  0  0  0  0  0  0  0  0
   -1.3945   -1.1947   -0.4230 C   0  0  0  0  0  0  0  0  0  0  0  0
   -1.2523   -0.1510   -1.3760 O   0  0  0  0  0  0  0  0  0  0  0  0
   -2.1269    0.5013   -0.4957 C   0  0  0  0  0  0  0  0  0  0  0  0
   -1.8527    1.0989    0.7652 C   0  0  0  0  0  0  0  0  0  0  0  0
    3.5046   -0.6931   -0.5506 H   0  0  0  0  0  0  0  0  0  0  0  0
    2.5004    0.6717   -1.0910 H   0  0  0  0  0  0  0  0  0  0  0  0
    3.1885    0.6721    0.6250 H   0  0  0  0  0  0  0  0  0  0  0  0
    1.5654   -0.8694    1.3082 H   0  0  0  0  0  0  0  0  0  0  0  0
    1.3510   -1.4722   -0.4172 H   0  0  0  0  0  0  0  0  0  0  0  0
    0.3923    0.8784   -0.9136 H   0  0  0  0  0  0  0  0  0  0  0  0
    0.6636    1.2434    0.8185 H   0  0  0  0  0  0  0  0  0  0  0  0
   -0.6378   -1.9717   -0.4796 H   0  0  0  0  0  0  0  0  0  0  0  0
   -2.3882   -1.6065   -0.3027 H   0  0  0  0  0  0  0  0  0  0  0  0
   -3.0841   -0.1059   -0.5049 H   0  0  0  0  0  0  0  0  0  0  0  0
   -2.5439    0.9654    1.6514 H   0  0  0  0  0  0  0  0  0  0  0  0
   -1.5134    2.1783    0.7533 H   0  0  0  0  0  0  0  0  0  0  0  0
  1  2  1  0
  2  3  1  0
  3  4  1  0
  4  5  1  0
  5  6  1  0
  6  7  1  0
  7  8  1  0
  7  4  1  0
  8  4  1  0
  1  9  1  0
  1 10  1  0
  1 11  1  0
  2 12  1  0
  2 13  1  0
  3 14  1  0
  3 15  1  0
  5 16  1  0
  5 17  1  0
  7 18  1  0
  8 19  1  0
  8 20  1  0
M  END
