
     RDKit          3D

 27 27  0  0  0  0  0  0  0  0999 V2000
   -3.7176    0.6953    0.3278 C   0  0  0  0  0  0  0  0  0  0  0  0
   -2.6271   -0.2272   -0.1963 C   0  0  0  0  0  0  0  0  0  0  0  0
   -1.3234    0.4934   -0.0530 C   0  0  0  0  0  0  0  0  0  0  0  0
   -0.1483   -0.3182   -0.5408 C   0  0  0  0  0  0  0  0  0  0  0  0
    0.0857   -1.6207    0.1430 C   0  0  0  0  0  0  0  0  0  0  0  0
    1.1073   -0.9481    1.0207 C   0  0  0  0  0  0  0  0  0  0  0  0
    1.1292    0.2214    0.0589 C   0  0  0  0  0  0  0  0  0  0  0  0
    2.3129    0.2273   -0.8800 C   0  0  0  0  0  0  0  0  0  0  0  0
    3.4960    0.7992   -0.1073 C   0  0  0  0  0  0  0  0  0  0  0  0
   -3.5858    0.7328    1.4401 H   0  0  0  0  0  0  0  0  0  0  0  0
   -4.7205    0.3923    0.0324 H   0  0  0  0  0  0  0  0  0  0  0  0
   -3.4461    1.7273   -0.0344 H   0  0  0  0  0  0  0  0  0  0  0  0
   -2.7790   -0.4184   -1.2858 H   0  0  0  0  0  0  0  0  0  0  0  0
   -2.6308   -1.1953    0.3107 H   0  0  0  0  0  0  0  0  0  0  0  0
   -1.1414    0.8888    0.9548 H   0  0  0  0  0  0  0  0  0  0  0  0
   -1.3779    1.3926   -0.7351 H   0  0  0  0  0  0  0  0  0  0  0  0
   -0.1565   -0.3916   -1.6455 H   0  0  0  0  0  0  0  0  0  0  0  0
   -0.7715   -2.0814    0.6664 H   0  0  0  0  0  0  0  0  0  0  0  0
    0.5735   -2.3436   -0.5602 H   0  0  0  0  0  0  0  0  0  0  0  0
    0.6401   -0.7042    2.0062 H   0  0  0  0  0  0  0  0  0  0  0  0
    2.0810   -1.4828    1.1028 H   0  0  0  0  0  0  0  0  0  0  0  0
    1.0329    1.1622    0.6340 H   0  0  0  0  0  0  0  0  0  0  0  0
    2.1092    0.9140   -1.7268 H   0  0  0  0  0  0  0  0  0  0  0  0
    2.5334   -0.7595   -1.2984 H   0  0  0  0  0  0  0  0  0  0  0  0
    3.9769   -0.0264    0.4683 H   0  0  0  0  0  0  0  0  0  0  0  0
    3.1452    1.5327    0.6584 H   0  0  0  0  0  0  0  0  0  0  0  0
    4.2025    1.3381   -0.7612 H   0  0  0  0  0  0  0  0  0  0  0  0
  1  2  1  0
  2  3  1  0
  3  4  1  0
  4  5  1  0
  5  6  1  0
  6  7  1  0
  7  8  1  0
  8  9  1  0
  7  4  1  0
  1 10  1  0
  1 11  1  0
  1 12  1  0
  2 13  1  0
  2 14  1  0
  3 15  1  0
  3 16  1  0
  4 17  1  0
  5 18  1  0
  5 19  1  0
  6 20  1  0
  6 21  1  0
  7 22  1  0
  8 23  1  0
  8 24  1  0
  9 25  1  0
  9 26  1  0
  9 27  1  0
M  END
