
     RDKit          3D

 29 28  0  0  0  0  0  0  0  0999 V2000
    3.6810    0.2150    0.4818 C   0  0  0  0  0  0  0  0  0  0  0  0
    3.1988   -0.2571   -0.8601 C   0  0  0  0  0  0  0  0  0  0  0  0
    1.7980   -0.8374   -0.7704 C   0  0  0  0  0  0  0  0  0  0  0  0
    0.8441    0.2308   -0.2593 C   0  0  0  0  0  0  0  0  0  0  0  0
   -0.5151   -0.3728   -0.1849 C   0  0  0  0  0  0  0  0  0  0  0  0
   -1.5712    0.5821    0.3106 C   0  0  0  0  0  0  0  0  0  0  0  0
   -1.3023    1.1063    1.6793 C   0  0  0  0  0  0  0  0  0  0  0  0
   -2.9201   -0.1018    0.3147 C   0  0  0  0  0  0  0  0  0  0  0  0
   -3.3534   -0.5766   -1.0277 C   0  0  0  0  0  0  0  0  0  0  0  0
    4.7234   -0.1278    0.6837 H   0  0  0  0  0  0  0  0  0  0  0  0
    3.0441   -0.2238    1.2650 H   0  0  0  0  0  0  0  0  0  0  0  0
    3.6636    1.3365    0.5013 H   0  0  0  0  0  0  0  0  0  0  0  0
    3.1195    0.6133   -1.5697 H   0  0  0  0  0  0  0  0  0  0  0  0
    3.8725   -1.0088   -1.3218 H   0  0  0  0  0  0  0  0  0  0  0  0
    1.4802   -1.0954   -1.7939 H   0  0  0  0  0  0  0  0  0  0  0  0
    1.7994   -1.7162   -0.0822 H   0  0  0  0  0  0  0  0  0  0  0  0
    1.2104    0.5076    0.7513 H   0  0  0  0  0  0  0  0  0  0  0  0
    0.9175    1.0930   -0.9454 H   0  0  0  0  0  0  0  0  0  0  0  0
   -0.8300   -0.7872   -1.1647 H   0  0  0  0  0  0  0  0  0  0  0  0
   -0.4796   -1.2155    0.5320 H   0  0  0  0  0  0  0  0  0  0  0  0
   -1.6152    1.4147   -0.4451 H   0  0  0  0  0  0  0  0  0  0  0  0
   -0.4422    0.6308    2.1842 H   0  0  0  0  0  0  0  0  0  0  0  0
   -2.1724    0.9790    2.3754 H   0  0  0  0  0  0  0  0  0  0  0  0
   -1.1215    2.2078    1.6377 H   0  0  0  0  0  0  0  0  0  0  0  0
   -3.6410    0.6463    0.7436 H   0  0  0  0  0  0  0  0  0  0  0  0
   -2.8795   -0.9679    1.0252 H   0  0  0  0  0  0  0  0  0  0  0  0
   -3.1310   -1.6764   -1.1362 H   0  0  0  0  0  0  0  0  0  0  0  0
   -4.4820   -0.5327   -1.0505 H   0  0  0  0  0  0  0  0  0  0  0  0
   -2.8957   -0.0656   -1.8742 H   0  0  0  0  0  0  0  0  0  0  0  0
  1  2  1  0
  2  3  1  0
  3  4  1  0
  4  5  1  0
  5  6  1  0
  6  7  1  0
  6  8  1  0
  8  9  1  0
  1 10  1  0
  1 11  1  0
  1 12  1  0
  2 13  1  0
  2 14  1  0
  3 15  1  0
  3 16  1  0
  4 17  1  0
  4 18  1  0
  5 19  1  0
  5 20  1  0
  6 21  1  0
  7 22  1  0
  7 23  1  0
  7 24  1  0
  8 25  1  0
  8 26  1  0
  9 27  1  0
  9 28  1  0
  9 29  1  0
M  END
