
     RDKit          3D

 21 22  0  0  0  0  0  0  0  0999 V2000
   -2.0607   -0.4809   -0.8047 C   0  0  0  0  0  0  0  0  0  0  0  0
   -1.7064    0.9079   -0.3371 C   0  0  0  0  0  0  0  0  0  0  0  0
   -0.6036    0.9016    0.6949 C   0  0  0  0  0  0  0  0  0  0  0  0
    0.6778    0.2965    0.1900 C   0  0  0  0  0  0  0  0  0  0  0  0
    1.2166    0.9422   -0.9023 O   0  0  0  0  0  0  0  0  0  0  0  0
    0.7718   -1.1815    0.2518 C   0  0  0  0  0  0  0  0  0  0  0  0
    2.2481   -1.0521    0.3670 C   0  0  0  0  0  0  0  0  0  0  0  0
    1.6301   -0.0551    1.2913 C   0  0  0  0  0  0  0  0  0  0  0  0
    0.7321   -1.0535    1.6464 O   0  0  0  0  0  0  0  0  0  0  0  0
   -1.3938   -0.7740   -1.6360 H   0  0  0  0  0  0  0  0  0  0  0  0
   -2.0415   -1.2149    0.0216 H   0  0  0  0  0  0  0  0  0  0  0  0
   -3.1252   -0.4995   -1.1788 H   0  0  0  0  0  0  0  0  0  0  0  0
   -2.6020    1.3657    0.1305 H   0  0  0  0  0  0  0  0  0  0  0  0
   -1.4575    1.5324   -1.2182 H   0  0  0  0  0  0  0  0  0  0  0  0
   -0.9923    0.3670    1.5765 H   0  0  0  0  0  0  0  0  0  0  0  0
   -0.3970    1.9410    1.0154 H   0  0  0  0  0  0  0  0  0  0  0  0
    1.2610    1.9069   -0.7071 H   0  0  0  0  0  0  0  0  0  0  0  0
    0.2463   -1.8656   -0.2712 H   0  0  0  0  0  0  0  0  0  0  0  0
    2.8082   -0.6518   -0.4743 H   0  0  0  0  0  0  0  0  0  0  0  0
    2.6862   -1.9137    0.9109 H   0  0  0  0  0  0  0  0  0  0  0  0
    2.1017    0.5813    1.9149 H   0  0  0  0  0  0  0  0  0  0  0  0
  1  2  1  0
  2  3  1  0
  3  4  1  0
  4  5  1  0
  4  6  1  0
  6  7  1  0
  7  8  1  0
  8  9  1  0
  8  4  1  0
  9  6  1  0
  1 10  1  0
  1 11  1  0
  1 12  1  0
  2 13  1  0
  2 14  1  0
  3 15  1  0
  3 16  1  0
  5 17  1  0
  6 18  1  0
  7 19  1  0
  7 20  1  0
  8 21  1  0
M  END
