
     RDKit          3D

 23 22  0  0  0  0  0  0  0  0999 V2000
   -3.4894    0.2900   -0.2073 C   0  0  0  0  0  0  0  0  0  0  0  0
   -2.0365   -0.0024   -0.5445 C   0  0  0  0  0  0  0  0  0  0  0  0
   -1.2866   -0.4133    0.6885 C   0  0  0  0  0  0  0  0  0  0  0  0
    0.1450   -0.7353    0.4617 C   0  0  0  0  0  0  0  0  0  0  0  0
    0.7757   -1.1170    1.6785 O   0  0  0  0  0  0  0  0  0  0  0  0
    0.9552    0.3030   -0.1931 C   0  0  0  0  0  0  0  0  0  0  0  0
    0.6060    0.7321   -1.2728 O   0  0  0  0  0  0  0  0  0  0  0  0
    2.1979    0.8721    0.3921 C   0  0  0  0  0  0  0  0  0  0  0  0
    3.3897    0.2380   -0.3016 C   0  0  0  0  0  0  0  0  0  0  0  0
   -4.0461   -0.6281    0.0667 H   0  0  0  0  0  0  0  0  0  0  0  0
   -3.9885    0.7201   -1.0939 H   0  0  0  0  0  0  0  0  0  0  0  0
   -3.5962    1.0188    0.6201 H   0  0  0  0  0  0  0  0  0  0  0  0
   -1.6588    0.9242   -1.0252 H   0  0  0  0  0  0  0  0  0  0  0  0
   -2.0448   -0.8406   -1.2658 H   0  0  0  0  0  0  0  0  0  0  0  0
   -1.4606    0.2886    1.5351 H   0  0  0  0  0  0  0  0  0  0  0  0
   -1.7771   -1.3742    1.0267 H   0  0  0  0  0  0  0  0  0  0  0  0
    0.1874   -1.6590   -0.1815 H   0  0  0  0  0  0  0  0  0  0  0  0
    1.6394   -1.5125    1.3918 H   0  0  0  0  0  0  0  0  0  0  0  0
    2.2405    0.7655    1.4942 H   0  0  0  0  0  0  0  0  0  0  0  0
    2.2162    1.9502    0.1393 H   0  0  0  0  0  0  0  0  0  0  0  0
    3.7480   -0.5816    0.3650 H   0  0  0  0  0  0  0  0  0  0  0  0
    3.0846   -0.1862   -1.2905 H   0  0  0  0  0  0  0  0  0  0  0  0
    4.1990    0.9475   -0.4940 H   0  0  0  0  0  0  0  0  0  0  0  0
  1  2  1  0
  2  3  1  0
  3  4  1  0
  4  5  1  0
  4  6  1  0
  6  7  2  0
  6  8  1  0
  8  9  1  0
  1 10  1  0
  1 11  1  0
  1 12  1  0
  2 13  1  0
  2 14  1  0
  3 15  1  0
  3 16  1  0
  4 17  1  0
  5 18  1  0
  8 19  1  0
  8 20  1  0
  9 21  1  0
  9 22  1  0
  9 23  1  0
M  END
