
     RDKit          3D

 21 20  0  0  0  0  0  0  0  0999 V2000
   -2.8802    0.2614   -0.7852 C   0  0  0  0  0  0  0  0  0  0  0  0
   -2.3771   -0.8090    0.1296 C   0  0  0  0  0  0  0  0  0  0  0  0
   -1.0956   -0.4740    0.8123 C   0  0  0  0  0  0  0  0  0  0  0  0
    0.0384   -0.2166   -0.1546 C   0  0  0  0  0  0  0  0  0  0  0  0
    1.2072    0.0907    0.5382 O   0  0  0  0  0  0  0  0  0  0  0  0
    2.2376    0.3237   -0.3683 C   0  0  0  0  0  0  0  0  0  0  0  0
    3.5249    0.6602    0.3134 C   0  0  0  0  0  0  0  0  0  0  0  0
   -2.1686    1.0470   -1.0247 H   0  0  0  0  0  0  0  0  0  0  0  0
   -3.8072    0.7644   -0.3824 H   0  0  0  0  0  0  0  0  0  0  0  0
   -3.2161   -0.2194   -1.7485 H   0  0  0  0  0  0  0  0  0  0  0  0
   -3.1468   -0.9667    0.9152 H   0  0  0  0  0  0  0  0  0  0  0  0
   -2.2835   -1.7907   -0.3938 H   0  0  0  0  0  0  0  0  0  0  0  0
   -0.8151   -1.3421    1.4502 H   0  0  0  0  0  0  0  0  0  0  0  0
   -1.2114    0.3837    1.5026 H   0  0  0  0  0  0  0  0  0  0  0  0
   -0.1970    0.5389   -0.9037 H   0  0  0  0  0  0  0  0  0  0  0  0
    0.2526   -1.1667   -0.7133 H   0  0  0  0  0  0  0  0  0  0  0  0
    2.3360   -0.5396   -1.0750 H   0  0  0  0  0  0  0  0  0  0  0  0
    1.9411    1.1979   -0.9976 H   0  0  0  0  0  0  0  0  0  0  0  0
    3.9305    1.6652    0.0072 H   0  0  0  0  0  0  0  0  0  0  0  0
    3.4054    0.6737    1.4275 H   0  0  0  0  0  0  0  0  0  0  0  0
    4.3250   -0.0818    0.0389 H   0  0  0  0  0  0  0  0  0  0  0  0
  1  2  1  0
  2  3  1  0
  3  4  1  0
  4  5  1  0
  5  6  1  0
  6  7  1  0
  1  8  1  0
  1  9  1  0
  1 10  1  0
  2 11  1  0
  2 12  1  0
  3 13  1  0
  3 14  1  0
  4 15  1  0
  4 16  1  0
  6 17  1  0
  6 18  1  0
  7 19  1  0
  7 20  1  0
  7 21  1  0
M  END
