
     RDKit          3D

 23 23  0  0  0  0  0  0  0  0999 V2000
    3.0803    1.0226   -0.6268 C   0  0  0  0  0  0  0  0  0  0  0  0
    1.9841    0.5351    0.2909 C   0  0  0  0  0  0  0  0  0  0  0  0
    1.1253   -0.5313   -0.3760 C   0  0  0  0  0  0  0  0  0  0  0  0
    0.0818   -0.9239    0.6412 C   0  0  0  0  0  0  0  0  0  0  0  0
   -0.9400   -1.9503    0.3328 C   0  0  0  0  0  0  0  0  0  0  0  0
   -1.3165   -0.4808    0.5339 C   0  0  0  0  0  0  0  0  0  0  0  0
   -1.9224    0.1149   -0.6547 C   0  0  0  0  0  0  0  0  0  0  0  0
   -3.0927    1.0300   -0.4976 C   0  0  0  0  0  0  0  0  0  0  0  0
   -1.5612   -0.0618   -1.8062 O   0  0  0  0  0  0  0  0  0  0  0  0
    3.1852    2.1244   -0.4167 H   0  0  0  0  0  0  0  0  0  0  0  0
    4.0664    0.5851   -0.3804 H   0  0  0  0  0  0  0  0  0  0  0  0
    2.8201    0.9510   -1.6937 H   0  0  0  0  0  0  0  0  0  0  0  0
    1.3105    1.3579    0.5922 H   0  0  0  0  0  0  0  0  0  0  0  0
    2.4767    0.1428    1.1983 H   0  0  0  0  0  0  0  0  0  0  0  0
    1.7494   -1.4079   -0.6611 H   0  0  0  0  0  0  0  0  0  0  0  0
    0.6981   -0.1509   -1.3224 H   0  0  0  0  0  0  0  0  0  0  0  0
    0.5312   -0.9732    1.6805 H   0  0  0  0  0  0  0  0  0  0  0  0
   -1.2457   -2.6065    1.1680 H   0  0  0  0  0  0  0  0  0  0  0  0
   -0.9598   -2.3754   -0.6844 H   0  0  0  0  0  0  0  0  0  0  0  0
   -1.7984   -0.2064    1.4972 H   0  0  0  0  0  0  0  0  0  0  0  0
   -3.5540    0.9136    0.5224 H   0  0  0  0  0  0  0  0  0  0  0  0
   -3.9045    0.8007   -1.2108 H   0  0  0  0  0  0  0  0  0  0  0  0
   -2.8140    2.0905   -0.5848 H   0  0  0  0  0  0  0  0  0  0  0  0
  1  2  1  0
  2  3  1  0
  3  4  1  0
  4  5  1  0
  5  6  1  0
  6  7  1  0
  7  8  1  0
  7  9  2  0
  6  4  1  0
  1 10  1  0
  1 11  1  0
  1 12  1  0
  2 13  1  0
  2 14  1  0
  3 15  1  0
  3 16  1  0
  4 17  1  0
  5 18  1  0
  5 19  1  0
  6 20  1  0
  8 21  1  0
  8 22  1  0
  8 23  1  0
M  END
