
     RDKit          3D

 21 21  0  0  0  0  0  0  0  0999 V2000
    2.6274    0.0320    1.1501 C   0  0  0  0  0  0  0  0  0  0  0  0
    2.0410    0.8094   -0.0049 C   0  0  0  0  0  0  0  0  0  0  0  0
    0.9094   -0.0287   -0.5891 C   0  0  0  0  0  0  0  0  0  0  0  0
   -0.1581   -0.3007    0.4168 C   0  0  0  0  0  0  0  0  0  0  0  0
   -0.7562    0.8607    0.9219 O   0  0  0  0  0  0  0  0  0  0  0  0
   -1.5498   -0.0654    0.1761 C   0  0  0  0  0  0  0  0  0  0  0  0
   -2.6021   -0.6986    1.1151 C   0  0  0  0  0  0  0  0  0  0  0  0
   -2.1019    0.3526   -1.0983 C   0  0  0  0  0  0  0  0  0  0  0  0
   -1.5572    0.9000   -2.0343 O   0  0  0  0  0  0  0  0  0  0  0  0
    3.5443    0.4973    1.5561 H   0  0  0  0  0  0  0  0  0  0  0  0
    2.9417   -0.9642    0.7212 H   0  0  0  0  0  0  0  0  0  0  0  0
    1.8892   -0.0877    1.9596 H   0  0  0  0  0  0  0  0  0  0  0  0
    1.7077    1.8038    0.2933 H   0  0  0  0  0  0  0  0  0  0  0  0
    2.7999    0.8949   -0.8015 H   0  0  0  0  0  0  0  0  0  0  0  0
    1.3436   -1.0291   -0.8696 H   0  0  0  0  0  0  0  0  0  0  0  0
    0.5052    0.4174   -1.5027 H   0  0  0  0  0  0  0  0  0  0  0  0
    0.1446   -1.0628    1.2221 H   0  0  0  0  0  0  0  0  0  0  0  0
   -2.8365   -1.6832    0.6794 H   0  0  0  0  0  0  0  0  0  0  0  0
   -3.4960   -0.0454    1.1353 H   0  0  0  0  0  0  0  0  0  0  0  0
   -2.2106   -0.7672    2.1483 H   0  0  0  0  0  0  0  0  0  0  0  0
   -3.1858    0.1650   -1.2967 H   0  0  0  0  0  0  0  0  0  0  0  0
  1  2  1  0
  2  3  1  0
  3  4  1  0
  4  5  1  0
  5  6  1  0
  6  7  1  0
  6  8  1  0
  8  9  2  0
  6  4  1  0
  1 10  1  0
  1 11  1  0
  1 12  1  0
  2 13  1  0
  2 14  1  0
  3 15  1  0
  3 16  1  0
  4 17  1  0
  7 18  1  0
  7 19  1  0
  7 20  1  0
  8 21  1  0
M  END
