
     RDKit          3D

 21 20  0  0  0  0  0  0  0  0999 V2000
   -2.6828    1.0570    0.0611 C   0  0  0  0  0  0  0  0  0  0  0  0
   -1.5685    0.0954   -0.2905 C   0  0  0  0  0  0  0  0  0  0  0  0
   -0.8540   -0.3581    0.9661 C   0  0  0  0  0  0  0  0  0  0  0  0
    0.2636   -1.3178    0.6594 C   0  0  0  0  0  0  0  0  0  0  0  0
   -0.2013   -2.4501    0.0246 O   0  0  0  0  0  0  0  0  0  0  0  0
    1.3438   -0.6681   -0.1300 C   0  0  0  0  0  0  0  0  0  0  0  0
    1.7268   -1.1509   -1.2250 O   0  0  0  0  0  0  0  0  0  0  0  0
    1.9710    0.4898    0.3042 O   0  0  0  0  0  0  0  0  0  0  0  0
    2.9870    1.0830   -0.4587 C   0  0  0  0  0  0  0  0  0  0  0  0
   -3.4675    0.4632    0.5712 H   0  0  0  0  0  0  0  0  0  0  0  0
   -2.2462    1.8393    0.7334 H   0  0  0  0  0  0  0  0  0  0  0  0
   -3.0823    1.5458   -0.8363 H   0  0  0  0  0  0  0  0  0  0  0  0
   -1.9451   -0.7320   -0.8888 H   0  0  0  0  0  0  0  0  0  0  0  0
   -0.8470    0.6732   -0.9285 H   0  0  0  0  0  0  0  0  0  0  0  0
   -1.5794   -0.8530    1.6368 H   0  0  0  0  0  0  0  0  0  0  0  0
   -0.4056    0.5084    1.4902 H   0  0  0  0  0  0  0  0  0  0  0  0
    0.7255   -1.6315    1.6178 H   0  0  0  0  0  0  0  0  0  0  0  0
   -0.0528   -2.4237   -0.9681 H   0  0  0  0  0  0  0  0  0  0  0  0
    3.6949    0.3317   -0.8605 H   0  0  0  0  0  0  0  0  0  0  0  0
    3.6002    1.7072    0.2559 H   0  0  0  0  0  0  0  0  0  0  0  0
    2.6197    1.7913   -1.2218 H   0  0  0  0  0  0  0  0  0  0  0  0
  1  2  1  0
  2  3  1  0
  3  4  1  0
  4  5  1  0
  4  6  1  0
  6  7  2  0
  6  8  1  0
  8  9  1  0
  1 10  1  0
  1 11  1  0
  1 12  1  0
  2 13  1  0
  2 14  1  0
  3 15  1  0
  3 16  1  0
  4 17  1  0
  5 18  1  0
  9 19  1  0
  9 20  1  0
  9 21  1  0
M  END
