
     RDKit          3D

 25 25  0  0  0  0  0  0  0  0999 V2000
    2.3452    0.2361    1.2633 C   0  0  0  0  0  0  0  0  0  0  0  0
    2.5654    0.8540   -0.0976 C   0  0  0  0  0  0  0  0  0  0  0  0
    1.8705    0.1056   -1.1709 C   0  0  0  0  0  0  0  0  0  0  0  0
    0.3965    0.0073   -1.0967 C   0  0  0  0  0  0  0  0  0  0  0  0
   -0.2223    1.3083   -1.1343 O   0  0  0  0  0  0  0  0  0  0  0  0
   -0.4804    0.3635   -0.0481 C   0  0  0  0  0  0  0  0  0  0  0  0
   -1.9154   -0.0945   -0.1060 C   0  0  0  0  0  0  0  0  0  0  0  0
   -2.0087   -1.6095   -0.1411 C   0  0  0  0  0  0  0  0  0  0  0  0
   -2.6746    0.4122    1.1283 C   0  0  0  0  0  0  0  0  0  0  0  0
    3.3264   -0.1248    1.7037 H   0  0  0  0  0  0  0  0  0  0  0  0
    1.9795    0.9615    2.0133 H   0  0  0  0  0  0  0  0  0  0  0  0
    1.7447   -0.6889    1.1786 H   0  0  0  0  0  0  0  0  0  0  0  0
    3.6732    0.8130   -0.2935 H   0  0  0  0  0  0  0  0  0  0  0  0
    2.3126    1.9325   -0.0583 H   0  0  0  0  0  0  0  0  0  0  0  0
    2.2900   -0.9415   -1.2544 H   0  0  0  0  0  0  0  0  0  0  0  0
    2.1242    0.5447   -2.1823 H   0  0  0  0  0  0  0  0  0  0  0  0
   -0.0264   -0.6281   -1.9377 H   0  0  0  0  0  0  0  0  0  0  0  0
   -0.1175    0.7571    0.9263 H   0  0  0  0  0  0  0  0  0  0  0  0
   -2.4200    0.2832   -1.0069 H   0  0  0  0  0  0  0  0  0  0  0  0
   -2.7721   -1.9467    0.5953 H   0  0  0  0  0  0  0  0  0  0  0  0
   -1.0497   -2.0792    0.2014 H   0  0  0  0  0  0  0  0  0  0  0  0
   -2.3284   -1.9718   -1.1214 H   0  0  0  0  0  0  0  0  0  0  0  0
   -3.4618   -0.3322    1.3502 H   0  0  0  0  0  0  0  0  0  0  0  0
   -2.0021    0.4504    2.0093 H   0  0  0  0  0  0  0  0  0  0  0  0
   -3.1489    1.3878    0.9234 H   0  0  0  0  0  0  0  0  0  0  0  0
  1  2  1  0
  2  3  1  0
  3  4  1  0
  4  5  1  0
  5  6  1  0
  6  7  1  0
  7  8  1  0
  7  9  1  0
  6  4  1  0
  1 10  1  0
  1 11  1  0
  1 12  1  0
  2 13  1  0
  2 14  1  0
  3 15  1  0
  3 16  1  0
  4 17  1  0
  6 18  1  0
  7 19  1  0
  8 20  1  0
  8 21  1  0
  8 22  1  0
  9 23  1  0
  9 24  1  0
  9 25  1  0
M  END
