
     RDKit          3D

 27 26  0  0  0  0  0  0  0  0999 V2000
    3.4368    0.2808   -0.3406 C   0  0  0  0  0  0  0  0  0  0  0  0
    2.1408   -0.2626    0.2282 C   0  0  0  0  0  0  0  0  0  0  0  0
    0.9373    0.3279   -0.4990 C   0  0  0  0  0  0  0  0  0  0  0  0
   -0.2903   -0.2555    0.1185 C   0  0  0  0  0  0  0  0  0  0  0  0
   -0.2950    0.1237    1.5863 C   0  0  0  0  0  0  0  0  0  0  0  0
   -0.1526   -1.6491    0.0756 O   0  0  0  0  0  0  0  0  0  0  0  0
   -1.5626    0.1366   -0.5754 C   0  0  0  0  0  0  0  0  0  0  0  0
   -1.8361    1.5905   -0.6130 C   0  0  0  0  0  0  0  0  0  0  0  0
   -2.7465   -0.6075    0.0068 C   0  0  0  0  0  0  0  0  0  0  0  0
    4.2442   -0.0495    0.3524 H   0  0  0  0  0  0  0  0  0  0  0  0
    3.6047   -0.1680   -1.3225 H   0  0  0  0  0  0  0  0  0  0  0  0
    3.4200    1.3765   -0.3563 H   0  0  0  0  0  0  0  0  0  0  0  0
    2.1755   -1.3627    0.1138 H   0  0  0  0  0  0  0  0  0  0  0  0
    2.0818   -0.0391    1.3104 H   0  0  0  0  0  0  0  0  0  0  0  0
    0.9542    0.0788   -1.5582 H   0  0  0  0  0  0  0  0  0  0  0  0
    0.9952    1.4358   -0.3733 H   0  0  0  0  0  0  0  0  0  0  0  0
    0.3894    1.0005    1.7758 H   0  0  0  0  0  0  0  0  0  0  0  0
   -1.2932    0.4568    1.9289 H   0  0  0  0  0  0  0  0  0  0  0  0
    0.0861   -0.6989    2.2341 H   0  0  0  0  0  0  0  0  0  0  0  0
    0.1595   -1.8875   -0.8246 H   0  0  0  0  0  0  0  0  0  0  0  0
   -1.4767   -0.2206   -1.6373 H   0  0  0  0  0  0  0  0  0  0  0  0
   -2.7655    1.8465   -0.0539 H   0  0  0  0  0  0  0  0  0  0  0  0
   -2.0213    1.9804   -1.6572 H   0  0  0  0  0  0  0  0  0  0  0  0
   -1.0385    2.2354   -0.2021 H   0  0  0  0  0  0  0  0  0  0  0  0
   -3.5300   -0.6264   -0.7995 H   0  0  0  0  0  0  0  0  0  0  0  0
   -2.4172   -1.6467    0.2175 H   0  0  0  0  0  0  0  0  0  0  0  0
   -3.2002   -0.1075    0.8645 H   0  0  0  0  0  0  0  0  0  0  0  0
  1  2  1  0
  2  3  1  0
  3  4  1  0
  4  5  1  0
  4  6  1  0
  4  7  1  0
  7  8  1  0
  7  9  1  0
  1 10  1  0
  1 11  1  0
  1 12  1  0
  2 13  1  0
  2 14  1  0
  3 15  1  0
  3 16  1  0
  5 17  1  0
  5 18  1  0
  5 19  1  0
  6 20  1  0
  7 21  1  0
  8 22  1  0
  8 23  1  0
  8 24  1  0
  9 25  1  0
  9 26  1  0
  9 27  1  0
M  END
