
     RDKit          3D

 25 24  0  0  0  0  0  0  0  0999 V2000
   -3.5999    0.5697   -0.1622 C   0  0  0  0  0  0  0  0  0  0  0  0
   -3.1312   -0.8735   -0.0566 C   0  0  0  0  0  0  0  0  0  0  0  0
   -1.7549   -0.8933    0.5665 C   0  0  0  0  0  0  0  0  0  0  0  0
   -0.7541   -0.1166   -0.2616 C   0  0  0  0  0  0  0  0  0  0  0  0
    0.5800   -0.2139    0.4689 C   0  0  0  0  0  0  0  0  0  0  0  0
    1.5795    0.4698   -0.2092 O   0  0  0  0  0  0  0  0  0  0  0  0
    2.7506    0.3235    0.5310 C   0  0  0  0  0  0  0  0  0  0  0  0
    3.9149    1.0350   -0.1215 C   0  0  0  0  0  0  0  0  0  0  0  0
    4.1138    0.4827   -1.4079 O   0  0  0  0  0  0  0  0  0  0  0  0
   -3.0230    1.0359   -0.9622 H   0  0  0  0  0  0  0  0  0  0  0  0
   -3.4203    1.0425    0.8301 H   0  0  0  0  0  0  0  0  0  0  0  0
   -4.7003    0.5133   -0.3804 H   0  0  0  0  0  0  0  0  0  0  0  0
   -3.8317   -1.3677    0.6505 H   0  0  0  0  0  0  0  0  0  0  0  0
   -3.1840   -1.4130   -1.0006 H   0  0  0  0  0  0  0  0  0  0  0  0
   -1.7369   -0.5122    1.5861 H   0  0  0  0  0  0  0  0  0  0  0  0
   -1.3897   -1.9578    0.5793 H   0  0  0  0  0  0  0  0  0  0  0  0
   -1.0639    0.9453   -0.3805 H   0  0  0  0  0  0  0  0  0  0  0  0
   -0.6832   -0.5267   -1.2905 H   0  0  0  0  0  0  0  0  0  0  0  0
    0.8420   -1.3054    0.4826 H   0  0  0  0  0  0  0  0  0  0  0  0
    0.4050    0.1849    1.4892 H   0  0  0  0  0  0  0  0  0  0  0  0
    2.6357    0.7803    1.5490 H   0  0  0  0  0  0  0  0  0  0  0  0
    3.0367   -0.7276    0.6884 H   0  0  0  0  0  0  0  0  0  0  0  0
    4.8616    0.8519    0.4236 H   0  0  0  0  0  0  0  0  0  0  0  0
    3.7734    2.1207   -0.2079 H   0  0  0  0  0  0  0  0  0  0  0  0
    3.7799   -0.4477   -1.4584 H   0  0  0  0  0  0  0  0  0  0  0  0
  1  2  1  0
  2  3  1  0
  3  4  1  0
  4  5  1  0
  5  6  1  0
  6  7  1  0
  7  8  1  0
  8  9  1  0
  1 10  1  0
  1 11  1  0
  1 12  1  0
  2 13  1  0
  2 14  1  0
  3 15  1  0
  3 16  1  0
  4 17  1  0
  4 18  1  0
  5 19  1  0
  5 20  1  0
  7 21  1  0
  7 22  1  0
  8 23  1  0
  8 24  1  0
  9 25  1  0
M  END
