
     RDKit          3D

 27 27  0  0  0  0  0  0  0  0999 V2000
    2.7022    0.8484    0.1706 C   0  0  0  0  0  0  0  0  0  0  0  0
    2.5482   -0.5940   -0.1843 C   0  0  0  0  0  0  0  0  0  0  0  0
    1.1213   -1.0327   -0.3586 C   0  0  0  0  0  0  0  0  0  0  0  0
    0.2979   -0.8384    0.8904 C   0  0  0  0  0  0  0  0  0  0  0  0
   -1.1307   -1.2044    0.9379 C   0  0  0  0  0  0  0  0  0  0  0  0
   -1.8610   -1.7465   -0.2552 C   0  0  0  0  0  0  0  0  0  0  0  0
   -0.7096    0.2127    1.0136 C   0  0  0  0  0  0  0  0  0  0  0  0
   -1.0164    1.1765   -0.1100 C   0  0  0  0  0  0  0  0  0  0  0  0
   -2.0983    2.1629    0.2787 C   0  0  0  0  0  0  0  0  0  0  0  0
    1.8869    1.2680    0.7616 H   0  0  0  0  0  0  0  0  0  0  0  0
    2.8454    1.4294   -0.7669 H   0  0  0  0  0  0  0  0  0  0  0  0
    3.6550    1.0121    0.7558 H   0  0  0  0  0  0  0  0  0  0  0  0
    3.0421   -1.1927    0.6346 H   0  0  0  0  0  0  0  0  0  0  0  0
    3.1123   -0.8488   -1.1048 H   0  0  0  0  0  0  0  0  0  0  0  0
    1.1553   -2.1200   -0.6194 H   0  0  0  0  0  0  0  0  0  0  0  0
    0.7129   -0.5124   -1.2354 H   0  0  0  0  0  0  0  0  0  0  0  0
    0.9198   -1.0382    1.8122 H   0  0  0  0  0  0  0  0  0  0  0  0
   -1.4763   -1.6945    1.8976 H   0  0  0  0  0  0  0  0  0  0  0  0
   -1.1774   -2.1132   -1.0586 H   0  0  0  0  0  0  0  0  0  0  0  0
   -2.5262   -0.9945   -0.7427 H   0  0  0  0  0  0  0  0  0  0  0  0
   -2.5228   -2.6078   -0.0201 H   0  0  0  0  0  0  0  0  0  0  0  0
   -0.8412    0.7055    2.0169 H   0  0  0  0  0  0  0  0  0  0  0  0
   -0.1396    1.7766   -0.4177 H   0  0  0  0  0  0  0  0  0  0  0  0
   -1.3794    0.6679   -1.0271 H   0  0  0  0  0  0  0  0  0  0  0  0
   -3.1176    1.7527    0.1381 H   0  0  0  0  0  0  0  0  0  0  0  0
   -1.9917    2.4057    1.3587 H   0  0  0  0  0  0  0  0  0  0  0  0
   -2.0109    3.1198   -0.2763 H   0  0  0  0  0  0  0  0  0  0  0  0
  1  2  1  0
  2  3  1  0
  3  4  1  0
  4  5  1  0
  5  6  1  0
  5  7  1  0
  7  8  1  0
  8  9  1  0
  7  4  1  0
  1 10  1  0
  1 11  1  0
  1 12  1  0
  2 13  1  0
  2 14  1  0
  3 15  1  0
  3 16  1  0
  4 17  1  0
  5 18  1  0
  6 19  1  0
  6 20  1  0
  6 21  1  0
  7 22  1  0
  8 23  1  0
  8 24  1  0
  9 25  1  0
  9 26  1  0
  9 27  1  0
M  END
