
     RDKit          3D

 21 21  0  0  0  0  0  0  0  0999 V2000
   -2.0315    0.8576    0.3586 C   0  0  0  0  0  0  0  0  0  0  0  0
   -2.0186   -0.4310   -0.3902 C   0  0  0  0  0  0  0  0  0  0  0  0
   -1.1146   -1.4757    0.1650 C   0  0  0  0  0  0  0  0  0  0  0  0
    0.3091   -1.1221    0.2244 C   0  0  0  0  0  0  0  0  0  0  0  0
    1.0635   -1.9586    0.7032 O   0  0  0  0  0  0  0  0  0  0  0  0
    0.9122    0.1531   -0.2423 C   0  0  0  0  0  0  0  0  0  0  0  0
    2.2388    0.0237   -0.9729 C   0  0  0  0  0  0  0  0  0  0  0  0
    2.1527    0.5757    0.4479 C   0  0  0  0  0  0  0  0  0  0  0  0
    2.5388    1.8868    0.5705 O   0  0  0  0  0  0  0  0  0  0  0  0
   -1.2797    0.9480    1.1545 H   0  0  0  0  0  0  0  0  0  0  0  0
   -1.9932    1.7098   -0.3837 H   0  0  0  0  0  0  0  0  0  0  0  0
   -3.0206    1.0308    0.8788 H   0  0  0  0  0  0  0  0  0  0  0  0
   -3.0602   -0.8572   -0.3480 H   0  0  0  0  0  0  0  0  0  0  0  0
   -1.8213   -0.2996   -1.4924 H   0  0  0  0  0  0  0  0  0  0  0  0
   -1.5278   -1.7703    1.1679 H   0  0  0  0  0  0  0  0  0  0  0  0
   -1.2025   -2.3894   -0.4857 H   0  0  0  0  0  0  0  0  0  0  0  0
    0.2523    0.9293   -0.6842 H   0  0  0  0  0  0  0  0  0  0  0  0
    2.4727    0.7397   -1.7880 H   0  0  0  0  0  0  0  0  0  0  0  0
    2.7245   -0.9465   -1.0686 H   0  0  0  0  0  0  0  0  0  0  0  0
    2.5629   -0.0903    1.2625 H   0  0  0  0  0  0  0  0  0  0  0  0
    1.8424    2.4862    0.9226 H   0  0  0  0  0  0  0  0  0  0  0  0
  1  2  1  0
  2  3  1  0
  3  4  1  0
  4  5  2  0
  4  6  1  0
  6  7  1  0
  7  8  1  0
  8  9  1  0
  8  6  1  0
  1 10  1  0
  1 11  1  0
  1 12  1  0
  2 13  1  0
  2 14  1  0
  3 15  1  0
  3 16  1  0
  6 17  1  0
  7 18  1  0
  7 19  1  0
  8 20  1  0
  9 21  1  0
M  END
