
     RDKit          3D

 25 25  0  0  0  0  0  0  0  0999 V2000
    2.5718   -0.4418   -0.0481 C   0  0  0  0  0  0  0  0  0  0  0  0
    1.8195    0.3383   -1.1047 C   0  0  0  0  0  0  0  0  0  0  0  0
    0.7731    1.2436   -0.4820 C   0  0  0  0  0  0  0  0  0  0  0  0
   -0.2321    0.4713    0.2973 C   0  0  0  0  0  0  0  0  0  0  0  0
    0.2133   -0.2832    1.3541 O   0  0  0  0  0  0  0  0  0  0  0  0
   -1.4483    1.2838    0.6843 C   0  0  0  0  0  0  0  0  0  0  0  0
   -2.3267    0.1561    0.2627 C   0  0  0  0  0  0  0  0  0  0  0  0
   -1.1610   -0.3787   -0.5667 C   0  0  0  0  0  0  0  0  0  0  0  0
   -1.0250   -1.8599   -0.3691 C   0  0  0  0  0  0  0  0  0  0  0  0
    2.1259   -1.4711   -0.0199 H   0  0  0  0  0  0  0  0  0  0  0  0
    3.6539   -0.5153   -0.2740 H   0  0  0  0  0  0  0  0  0  0  0  0
    2.4928    0.0564    0.9477 H   0  0  0  0  0  0  0  0  0  0  0  0
    1.2710   -0.3593   -1.7853 H   0  0  0  0  0  0  0  0  0  0  0  0
    2.5622    0.9032   -1.6895 H   0  0  0  0  0  0  0  0  0  0  0  0
    0.2479    1.7373   -1.3263 H   0  0  0  0  0  0  0  0  0  0  0  0
    1.2275    1.9986    0.1815 H   0  0  0  0  0  0  0  0  0  0  0  0
    0.3053    0.2043    2.2019 H   0  0  0  0  0  0  0  0  0  0  0  0
   -1.4633    1.5578    1.7622 H   0  0  0  0  0  0  0  0  0  0  0  0
   -1.5650    2.1490   -0.0057 H   0  0  0  0  0  0  0  0  0  0  0  0
   -3.2245    0.4189   -0.3287 H   0  0  0  0  0  0  0  0  0  0  0  0
   -2.5931   -0.4958    1.1207 H   0  0  0  0  0  0  0  0  0  0  0  0
   -1.2674   -0.0254   -1.6011 H   0  0  0  0  0  0  0  0  0  0  0  0
   -0.3189   -2.0697    0.4810 H   0  0  0  0  0  0  0  0  0  0  0  0
   -2.0163   -2.3279   -0.1735 H   0  0  0  0  0  0  0  0  0  0  0  0
   -0.6227   -2.2907   -1.3093 H   0  0  0  0  0  0  0  0  0  0  0  0
  1  2  1  0
  2  3  1  0
  3  4  1  0
  4  5  1  0
  4  6  1  0
  6  7  1  0
  7  8  1  0
  8  9  1  0
  8  4  1  0
  1 10  1  0
  1 11  1  0
  1 12  1  0
  2 13  1  0
  2 14  1  0
  3 15  1  0
  3 16  1  0
  5 17  1  0
  6 18  1  0
  6 19  1  0
  7 20  1  0
  7 21  1  0
  8 22  1  0
  9 23  1  0
  9 24  1  0
  9 25  1  0
M  END
