
     RDKit          3D

 25 24  0  0  0  0  0  0  0  0999 V2000
    3.1182   -1.4489    0.0762 C   0  0  0  0  0  0  0  0  0  0  0  0
    2.1566   -0.4133   -0.4877 C   0  0  0  0  0  0  0  0  0  0  0  0
    0.8723   -0.5350    0.2773 C   0  0  0  0  0  0  0  0  0  0  0  0
   -0.1895    0.4271   -0.1624 C   0  0  0  0  0  0  0  0  0  0  0  0
    0.2519    1.8563   -0.0032 C   0  0  0  0  0  0  0  0  0  0  0  0
    0.5707    2.1716    1.3029 O   0  0  0  0  0  0  0  0  0  0  0  0
   -1.3272    0.1693    0.6152 O   0  0  0  0  0  0  0  0  0  0  0  0
   -2.3479   -0.2189   -0.2474 C   0  0  0  0  0  0  0  0  0  0  0  0
   -3.6249   -0.5227    0.4835 C   0  0  0  0  0  0  0  0  0  0  0  0
    3.4438   -2.1175   -0.7472 H   0  0  0  0  0  0  0  0  0  0  0  0
    3.9795   -0.9704    0.5989 H   0  0  0  0  0  0  0  0  0  0  0  0
    2.6320   -2.0999    0.8333 H   0  0  0  0  0  0  0  0  0  0  0  0
    2.5669    0.6120   -0.3300 H   0  0  0  0  0  0  0  0  0  0  0  0
    1.9838   -0.5619   -1.5685 H   0  0  0  0  0  0  0  0  0  0  0  0
    0.4459   -1.5657    0.1369 H   0  0  0  0  0  0  0  0  0  0  0  0
    1.0281   -0.4088    1.3534 H   0  0  0  0  0  0  0  0  0  0  0  0
   -0.3872    0.2601   -1.2420 H   0  0  0  0  0  0  0  0  0  0  0  0
   -0.5516    2.5324   -0.3446 H   0  0  0  0  0  0  0  0  0  0  0  0
    1.1288    2.0219   -0.6536 H   0  0  0  0  0  0  0  0  0  0  0  0
    0.7847    3.1468    1.3204 H   0  0  0  0  0  0  0  0  0  0  0  0
   -2.5488    0.6098   -0.9661 H   0  0  0  0  0  0  0  0  0  0  0  0
   -2.0797   -1.0959   -0.8552 H   0  0  0  0  0  0  0  0  0  0  0  0
   -3.7268   -1.5959    0.7397 H   0  0  0  0  0  0  0  0  0  0  0  0
   -3.7087    0.0300    1.4452 H   0  0  0  0  0  0  0  0  0  0  0  0
   -4.4710   -0.2825   -0.1949 H   0  0  0  0  0  0  0  0  0  0  0  0
  1  2  1  0
  2  3  1  0
  3  4  1  0
  4  5  1  0
  5  6  1  0
  4  7  1  0
  7  8  1  0
  8  9  1  0
  1 10  1  0
  1 11  1  0
  1 12  1  0
  2 13  1  0
  2 14  1  0
  3 15  1  0
  3 16  1  0
  4 17  1  0
  5 18  1  0
  5 19  1  0
  6 20  1  0
  8 21  1  0
  8 22  1  0
  9 23  1  0
  9 24  1  0
  9 25  1  0
M  END
