
     RDKit          3D

 27 26  0  0  0  0  0  0  0  0999 V2000
    2.8149   -0.9909    0.1608 C   0  0  0  0  0  0  0  0  0  0  0  0
    1.5283   -0.2197    0.5445 C   0  0  0  0  0  0  0  0  0  0  0  0
    0.5940   -0.3955   -0.5838 C   0  0  0  0  0  0  0  0  0  0  0  0
   -0.7482    0.2096   -0.5166 C   0  0  0  0  0  0  0  0  0  0  0  0
   -1.3842   -0.1639   -1.7426 O   0  0  0  0  0  0  0  0  0  0  0  0
   -0.7546    1.7084   -0.5716 C   0  0  0  0  0  0  0  0  0  0  0  0
   -0.0501    2.4399    0.4992 C   0  0  0  0  0  0  0  0  0  0  0  0
   -1.6251   -0.3331    0.5812 C   0  0  0  0  0  0  0  0  0  0  0  0
   -1.8457   -1.8206    0.4115 C   0  0  0  0  0  0  0  0  0  0  0  0
    3.1901   -0.6295   -0.8188 H   0  0  0  0  0  0  0  0  0  0  0  0
    3.5592   -0.8951    0.9503 H   0  0  0  0  0  0  0  0  0  0  0  0
    2.5340   -2.0638   -0.0082 H   0  0  0  0  0  0  0  0  0  0  0  0
    1.8388    0.7821    0.8130 H   0  0  0  0  0  0  0  0  0  0  0  0
    1.1633   -0.7189    1.4672 H   0  0  0  0  0  0  0  0  0  0  0  0
    1.0550   -0.0670   -1.5647 H   0  0  0  0  0  0  0  0  0  0  0  0
    0.4887   -1.5150   -0.7466 H   0  0  0  0  0  0  0  0  0  0  0  0
   -1.0511   -1.0357   -2.0031 H   0  0  0  0  0  0  0  0  0  0  0  0
   -1.7964    2.0912   -0.7104 H   0  0  0  0  0  0  0  0  0  0  0  0
   -0.2524    1.9606   -1.5592 H   0  0  0  0  0  0  0  0  0  0  0  0
   -0.0431    1.9901    1.4988 H   0  0  0  0  0  0  0  0  0  0  0  0
   -0.6362    3.4098    0.6559 H   0  0  0  0  0  0  0  0  0  0  0  0
    0.9520    2.8500    0.1761 H   0  0  0  0  0  0  0  0  0  0  0  0
   -2.6093    0.1541    0.5049 H   0  0  0  0  0  0  0  0  0  0  0  0
   -1.2260   -0.1739    1.5849 H   0  0  0  0  0  0  0  0  0  0  0  0
   -0.8985   -2.3959    0.4521 H   0  0  0  0  0  0  0  0  0  0  0  0
   -2.5588   -2.2181    1.1600 H   0  0  0  0  0  0  0  0  0  0  0  0
   -2.2388   -1.9592   -0.6350 H   0  0  0  0  0  0  0  0  0  0  0  0
  1  2  1  0
  2  3  1  0
  3  4  1  0
  4  5  1  0
  4  6  1  0
  6  7  1  0
  4  8  1  0
  8  9  1  0
  1 10  1  0
  1 11  1  0
  1 12  1  0
  2 13  1  0
  2 14  1  0
  3 15  1  0
  3 16  1  0
  5 17  1  0
  6 18  1  0
  6 19  1  0
  7 20  1  0
  7 21  1  0
  7 22  1  0
  8 23  1  0
  8 24  1  0
  9 25  1  0
  9 26  1  0
  9 27  1  0
M  END
