
     RDKit          3D

 25 24  0  0  0  0  0  0  0  0999 V2000
   -2.1459    1.5571   -0.3094 C   0  0  0  0  0  0  0  0  0  0  0  0
   -2.1515    0.3515   -1.1854 C   0  0  0  0  0  0  0  0  0  0  0  0
   -1.4119   -0.8313   -0.7093 C   0  0  0  0  0  0  0  0  0  0  0  0
    0.0385   -0.7473   -0.4828 C   0  0  0  0  0  0  0  0  0  0  0  0
    0.5790   -2.0990    0.0095 C   0  0  0  0  0  0  0  0  0  0  0  0
    0.5556    0.2794    0.4503 C   0  0  0  0  0  0  0  0  0  0  0  0
    2.0360    0.1730    0.5168 C   0  0  0  0  0  0  0  0  0  0  0  0
    2.8220    1.0501    1.3976 C   0  0  0  0  0  0  0  0  0  0  0  0
    2.6042   -0.6470   -0.1635 O   0  0  0  0  0  0  0  0  0  0  0  0
   -3.1963    1.9921   -0.3037 H   0  0  0  0  0  0  0  0  0  0  0  0
   -1.9099    1.3194    0.7410 H   0  0  0  0  0  0  0  0  0  0  0  0
   -1.5441    2.4136   -0.7214 H   0  0  0  0  0  0  0  0  0  0  0  0
   -1.9043    0.6434   -2.2395 H   0  0  0  0  0  0  0  0  0  0  0  0
   -3.2322    0.0146   -1.2802 H   0  0  0  0  0  0  0  0  0  0  0  0
   -1.6279   -1.6922   -1.4093 H   0  0  0  0  0  0  0  0  0  0  0  0
   -1.8890   -1.1511    0.2635 H   0  0  0  0  0  0  0  0  0  0  0  0
    0.5425   -0.5653   -1.4774 H   0  0  0  0  0  0  0  0  0  0  0  0
    1.1174   -2.0059    0.9730 H   0  0  0  0  0  0  0  0  0  0  0  0
   -0.2607   -2.8261    0.0933 H   0  0  0  0  0  0  0  0  0  0  0  0
    1.2930   -2.4578   -0.7464 H   0  0  0  0  0  0  0  0  0  0  0  0
    0.1900    0.1230    1.5062 H   0  0  0  0  0  0  0  0  0  0  0  0
    0.3691    1.3274    0.1240 H   0  0  0  0  0  0  0  0  0  0  0  0
    3.4904    1.7396    0.8135 H   0  0  0  0  0  0  0  0  0  0  0  0
    2.1729    1.6293    2.0976 H   0  0  0  0  0  0  0  0  0  0  0  0
    3.4633    0.4095    2.0417 H   0  0  0  0  0  0  0  0  0  0  0  0
  1  2  1  0
  2  3  1  0
  3  4  1  0
  4  5  1  0
  4  6  1  0
  6  7  1  0
  7  8  1  0
  7  9  2  0
  1 10  1  0
  1 11  1  0
  1 12  1  0
  2 13  1  0
  2 14  1  0
  3 15  1  0
  3 16  1  0
  4 17  1  0
  5 18  1  0
  5 19  1  0
  5 20  1  0
  6 21  1  0
  6 22  1  0
  8 23  1  0
  8 24  1  0
  8 25  1  0
M  END
