
     RDKit          3D

 17 16  0  0  0  0  0  0  0  0999 V2000
   -3.1016    0.0800    0.4172 C   0  0  0  0  0  0  0  0  0  0  0  0
   -1.7113   -0.1481   -0.0903 C   0  0  0  0  0  0  0  0  0  0  0  0
   -0.7556    0.7714    0.6498 C   0  0  0  0  0  0  0  0  0  0  0  0
    0.6108    0.5235    0.1270 C   0  0  0  0  0  0  0  0  0  0  0  0
    1.7238    0.3243   -0.2953 C   0  0  0  0  0  0  0  0  0  0  0  0
    3.0431    0.1016   -0.8148 C   0  0  0  0  0  0  0  0  0  0  0  0
    3.5325    0.9979   -1.5446 O   0  0  0  0  0  0  0  0  0  0  0  0
    3.7723   -1.1218   -0.4983 C   0  0  0  0  0  0  0  0  0  0  0  0
    3.2434   -1.9898    0.2354 O   0  0  0  0  0  0  0  0  0  0  0  0
   -3.4861   -0.8242    0.9271 H   0  0  0  0  0  0  0  0  0  0  0  0
   -3.1286    0.9406    1.0995 H   0  0  0  0  0  0  0  0  0  0  0  0
   -3.7349    0.3595   -0.4644 H   0  0  0  0  0  0  0  0  0  0  0  0
   -1.3916   -1.1945    0.1759 H   0  0  0  0  0  0  0  0  0  0  0  0
   -1.5939    0.0058   -1.1679 H   0  0  0  0  0  0  0  0  0  0  0  0
   -0.7970    0.6301    1.7371 H   0  0  0  0  0  0  0  0  0  0  0  0
   -0.9899    1.8265    0.3995 H   0  0  0  0  0  0  0  0  0  0  0  0
    4.7646   -1.2829   -0.8929 H   0  0  0  0  0  0  0  0  0  0  0  0
  1  2  1  0
  2  3  1  0
  3  4  1  0
  4  5  3  0
  5  6  1  0
  6  7  2  0
  6  8  1  0
  8  9  2  0
  1 10  1  0
  1 11  1  0
  1 12  1  0
  2 13  1  0
  2 14  1  0
  3 15  1  0
  3 16  1  0
  8 17  1  0
M  END
