
     RDKit          3D

 27 27  0  0  0  0  0  0  0  0999 V2000
    3.4089   -0.7841    0.2469 C   0  0  0  0  0  0  0  0  0  0  0  0
    2.1863    0.0537    0.6338 C   0  0  0  0  0  0  0  0  0  0  0  0
    1.1288   -0.2324   -0.3728 C   0  0  0  0  0  0  0  0  0  0  0  0
   -0.1579    0.5128   -0.1464 C   0  0  0  0  0  0  0  0  0  0  0  0
   -0.0267    2.0038   -0.1699 C   0  0  0  0  0  0  0  0  0  0  0  0
   -1.2016    0.0128   -1.1279 C   0  0  0  0  0  0  0  0  0  0  0  0
   -1.7222   -0.8985   -0.0114 C   0  0  0  0  0  0  0  0  0  0  0  0
   -3.2328   -0.8135    0.0078 C   0  0  0  0  0  0  0  0  0  0  0  0
   -1.0234    0.0099    0.9694 C   0  0  0  0  0  0  0  0  0  0  0  0
    4.0761   -0.9496    1.1124 H   0  0  0  0  0  0  0  0  0  0  0  0
    3.9242   -0.2417   -0.5744 H   0  0  0  0  0  0  0  0  0  0  0  0
    3.0493   -1.7449   -0.1941 H   0  0  0  0  0  0  0  0  0  0  0  0
    1.8935   -0.2971    1.6527 H   0  0  0  0  0  0  0  0  0  0  0  0
    2.5074    1.0952    0.6441 H   0  0  0  0  0  0  0  0  0  0  0  0
    0.9709   -1.3212   -0.4758 H   0  0  0  0  0  0  0  0  0  0  0  0
    1.5201    0.1150   -1.3724 H   0  0  0  0  0  0  0  0  0  0  0  0
    0.9466    2.3297    0.1994 H   0  0  0  0  0  0  0  0  0  0  0  0
   -0.8534    2.4549    0.4504 H   0  0  0  0  0  0  0  0  0  0  0  0
   -0.2234    2.3448   -1.2040 H   0  0  0  0  0  0  0  0  0  0  0  0
   -1.9268    0.8146   -1.4135 H   0  0  0  0  0  0  0  0  0  0  0  0
   -0.7981   -0.5590   -1.9887 H   0  0  0  0  0  0  0  0  0  0  0  0
   -1.3390   -1.9298   -0.0671 H   0  0  0  0  0  0  0  0  0  0  0  0
   -3.6799   -1.7667    0.3219 H   0  0  0  0  0  0  0  0  0  0  0  0
   -3.5284   -0.0330    0.7323 H   0  0  0  0  0  0  0  0  0  0  0  0
   -3.6485   -0.5104   -0.9752 H   0  0  0  0  0  0  0  0  0  0  0  0
   -0.5295   -0.4693    1.8125 H   0  0  0  0  0  0  0  0  0  0  0  0
   -1.7204    0.8038    1.3101 H   0  0  0  0  0  0  0  0  0  0  0  0
  1  2  1  0
  2  3  1  0
  3  4  1  0
  4  5  1  0
  4  6  1  0
  6  7  1  0
  7  8  1  0
  7  9  1  0
  9  4  1  0
  1 10  1  0
  1 11  1  0
  1 12  1  0
  2 13  1  0
  2 14  1  0
  3 15  1  0
  3 16  1  0
  5 17  1  0
  5 18  1  0
  5 19  1  0
  6 20  1  0
  6 21  1  0
  7 22  1  0
  8 23  1  0
  8 24  1  0
  8 25  1  0
  9 26  1  0
  9 27  1  0
M  END
