
     RDKit          3D

 20 19  0  0  0  0  0  0  0  0999 V2000
   -3.2178   -0.4460   -0.5123 C   0  0  0  0  0  0  0  0  0  0  0  0
   -2.1034   -0.1720    0.4741 C   0  0  0  0  0  0  0  0  0  0  0  0
   -0.8228    0.0664   -0.3244 C   0  0  0  0  0  0  0  0  0  0  0  0
    0.2646    0.3366    0.7008 C   0  0  0  0  0  0  0  0  0  0  0  0
    1.5205    0.5715   -0.0497 C   0  0  0  0  0  0  0  0  0  0  0  0
    1.7831    1.6589   -0.6212 O   0  0  0  0  0  0  0  0  0  0  0  0
    2.5138   -0.4126   -0.1760 O   0  0  0  0  0  0  0  0  0  0  0  0
    3.7085   -0.1713   -0.8969 C   0  0  0  0  0  0  0  0  0  0  0  0
   -3.0090    0.1095   -1.4511 H   0  0  0  0  0  0  0  0  0  0  0  0
   -4.1883   -0.1154   -0.1177 H   0  0  0  0  0  0  0  0  0  0  0  0
   -3.2225   -1.5253   -0.8059 H   0  0  0  0  0  0  0  0  0  0  0  0
   -2.3235    0.7183    1.0960 H   0  0  0  0  0  0  0  0  0  0  0  0
   -1.9495   -1.0548    1.1191 H   0  0  0  0  0  0  0  0  0  0  0  0
   -0.9369    0.9130   -1.0233 H   0  0  0  0  0  0  0  0  0  0  0  0
   -0.5350   -0.8224   -0.8883 H   0  0  0  0  0  0  0  0  0  0  0  0
    0.0546    1.2453    1.3015 H   0  0  0  0  0  0  0  0  0  0  0  0
    0.3488   -0.5322    1.3665 H   0  0  0  0  0  0  0  0  0  0  0  0
    3.5621    0.5961   -1.6933 H   0  0  0  0  0  0  0  0  0  0  0  0
    4.5262    0.1886   -0.2623 H   0  0  0  0  0  0  0  0  0  0  0  0
    4.0265   -1.1521   -1.3084 H   0  0  0  0  0  0  0  0  0  0  0  0
  1  2  1  0
  2  3  1  0
  3  4  1  0
  4  5  1  0
  5  6  2  0
  5  7  1  0
  7  8  1  0
  1  9  1  0
  1 10  1  0
  1 11  1  0
  2 12  1  0
  2 13  1  0
  3 14  1  0
  3 15  1  0
  4 16  1  0
  4 17  1  0
  8 18  1  0
  8 19  1  0
  8 20  1  0
M  END
