
     RDKit          3D

 23 23  0  0  0  0  0  0  0  0999 V2000
   -3.3316    0.2864   -0.5117 C   0  0  0  0  0  0  0  0  0  0  0  0
   -2.2421    1.2920   -0.2399 C   0  0  0  0  0  0  0  0  0  0  0  0
   -1.0317    0.6694    0.4261 C   0  0  0  0  0  0  0  0  0  0  0  0
   -0.4353   -0.4116   -0.4466 C   0  0  0  0  0  0  0  0  0  0  0  0
    0.7602   -1.0589    0.1613 C   0  0  0  0  0  0  0  0  0  0  0  0
    1.4286   -2.0704   -0.5064 O   0  0  0  0  0  0  0  0  0  0  0  0
    2.0758   -0.8647   -0.5638 C   0  0  0  0  0  0  0  0  0  0  0  0
    3.3135   -0.6115    0.2496 C   0  0  0  0  0  0  0  0  0  0  0  0
    3.7598    0.6875   -0.0003 O   0  0  0  0  0  0  0  0  0  0  0  0
   -3.0553   -0.7110   -0.0818 H   0  0  0  0  0  0  0  0  0  0  0  0
   -4.3172    0.6305   -0.1239 H   0  0  0  0  0  0  0  0  0  0  0  0
   -3.4914    0.1091   -1.6033 H   0  0  0  0  0  0  0  0  0  0  0  0
   -1.8847    1.6497   -1.2452 H   0  0  0  0  0  0  0  0  0  0  0  0
   -2.6714    2.0983    0.3594 H   0  0  0  0  0  0  0  0  0  0  0  0
   -0.3355    1.4725    0.6557 H   0  0  0  0  0  0  0  0  0  0  0  0
   -1.3738    0.1946    1.3561 H   0  0  0  0  0  0  0  0  0  0  0  0
   -1.1752   -1.1822   -0.7179 H   0  0  0  0  0  0  0  0  0  0  0  0
   -0.1467    0.0834   -1.3988 H   0  0  0  0  0  0  0  0  0  0  0  0
    0.8691   -1.1161    1.2643 H   0  0  0  0  0  0  0  0  0  0  0  0
    2.0511   -0.3701   -1.5686 H   0  0  0  0  0  0  0  0  0  0  0  0
    4.1351   -1.2968    0.0547 H   0  0  0  0  0  0  0  0  0  0  0  0
    3.0074   -0.6216    1.3290 H   0  0  0  0  0  0  0  0  0  0  0  0
    4.0911    1.1414    0.8054 H   0  0  0  0  0  0  0  0  0  0  0  0
  1  2  1  0
  2  3  1  0
  3  4  1  0
  4  5  1  0
  5  6  1  0
  6  7  1  0
  7  8  1  0
  8  9  1  0
  7  5  1  0
  1 10  1  0
  1 11  1  0
  1 12  1  0
  2 13  1  0
  2 14  1  0
  3 15  1  0
  3 16  1  0
  4 17  1  0
  4 18  1  0
  5 19  1  0
  7 20  1  0
  8 21  1  0
  8 22  1  0
  9 23  1  0
M  END
