
     RDKit          3D

 23 22  0  0  0  0  0  0  0  0999 V2000
    3.0993    0.3166   -0.5147 C   0  0  0  0  0  0  0  0  0  0  0  0
    1.9182   -0.0374    0.3596 C   0  0  0  0  0  0  0  0  0  0  0  0
    0.5969    0.1597   -0.3965 C   0  0  0  0  0  0  0  0  0  0  0  0
   -0.4966   -0.2172    0.5574 C   0  0  0  0  0  0  0  0  0  0  0  0
   -0.3199   -1.6246    0.9627 C   0  0  0  0  0  0  0  0  0  0  0  0
   -0.7881   -2.0164    2.0012 O   0  0  0  0  0  0  0  0  0  0  0  0
   -1.8668   -0.1044   -0.0854 C   0  0  0  0  0  0  0  0  0  0  0  0
   -2.1485    1.3042   -0.5525 C   0  0  0  0  0  0  0  0  0  0  0  0
   -2.8685   -0.4621    0.8144 O   0  0  0  0  0  0  0  0  0  0  0  0
    3.9499    0.6334    0.1003 H   0  0  0  0  0  0  0  0  0  0  0  0
    3.4532   -0.5683   -1.1097 H   0  0  0  0  0  0  0  0  0  0  0  0
    2.7865    1.1468   -1.1674 H   0  0  0  0  0  0  0  0  0  0  0  0
    2.0148   -1.0525    0.7466 H   0  0  0  0  0  0  0  0  0  0  0  0
    1.9285    0.6525    1.2244 H   0  0  0  0  0  0  0  0  0  0  0  0
    0.5501   -0.5412   -1.2519 H   0  0  0  0  0  0  0  0  0  0  0  0
    0.5590    1.2131   -0.7194 H   0  0  0  0  0  0  0  0  0  0  0  0
   -0.4082    0.4569    1.4406 H   0  0  0  0  0  0  0  0  0  0  0  0
    0.2247   -2.2938    0.3314 H   0  0  0  0  0  0  0  0  0  0  0  0
   -1.8716   -0.7488   -0.9811 H   0  0  0  0  0  0  0  0  0  0  0  0
   -1.3604    1.7356   -1.1706 H   0  0  0  0  0  0  0  0  0  0  0  0
   -2.4088    1.9504    0.3298 H   0  0  0  0  0  0  0  0  0  0  0  0
   -3.1035    1.2375   -1.1521 H   0  0  0  0  0  0  0  0  0  0  0  0
   -3.4401   -1.1401    0.4196 H   0  0  0  0  0  0  0  0  0  0  0  0
  1  2  1  0
  2  3  1  0
  3  4  1  0
  4  5  1  0
  5  6  2  0
  4  7  1  0
  7  8  1  0
  7  9  1  0
  1 10  1  0
  1 11  1  0
  1 12  1  0
  2 13  1  0
  2 14  1  0
  3 15  1  0
  3 16  1  0
  4 17  1  0
  5 18  1  0
  7 19  1  0
  8 20  1  0
  8 21  1  0
  8 22  1  0
  9 23  1  0
M  END
