
     RDKit          3D

 23 22  0  0  0  0  0  0  0  0999 V2000
    3.3852   -0.7453    0.9010 C   0  0  0  0  0  0  0  0  0  0  0  0
    2.2789    0.2529    0.6853 C   0  0  0  0  0  0  0  0  0  0  0  0
    1.1100   -0.3086   -0.0982 C   0  0  0  0  0  0  0  0  0  0  0  0
    0.1194    0.8246   -0.1932 C   0  0  0  0  0  0  0  0  0  0  0  0
   -1.1034    0.4887   -0.9343 C   0  0  0  0  0  0  0  0  0  0  0  0
   -1.2737    1.0255   -2.0120 O   0  0  0  0  0  0  0  0  0  0  0  0
   -2.1377   -0.4543   -0.4665 C   0  0  0  0  0  0  0  0  0  0  0  0
   -3.4125    0.3142   -0.1924 C   0  0  0  0  0  0  0  0  0  0  0  0
   -1.6810   -0.9669    0.7411 O   0  0  0  0  0  0  0  0  0  0  0  0
    3.6801   -1.2519   -0.0200 H   0  0  0  0  0  0  0  0  0  0  0  0
    4.2604   -0.1563    1.2585 H   0  0  0  0  0  0  0  0  0  0  0  0
    3.1430   -1.4379    1.7424 H   0  0  0  0  0  0  0  0  0  0  0  0
    2.7203    1.0923    0.1057 H   0  0  0  0  0  0  0  0  0  0  0  0
    1.9040    0.5939    1.6703 H   0  0  0  0  0  0  0  0  0  0  0  0
    1.4331   -0.7037   -1.0795 H   0  0  0  0  0  0  0  0  0  0  0  0
    0.7041   -1.1664    0.4803 H   0  0  0  0  0  0  0  0  0  0  0  0
   -0.0847    1.1709    0.8383 H   0  0  0  0  0  0  0  0  0  0  0  0
    0.6763    1.6649   -0.7050 H   0  0  0  0  0  0  0  0  0  0  0  0
   -2.3500   -1.2625   -1.2023 H   0  0  0  0  0  0  0  0  0  0  0  0
   -3.9851    0.5039   -1.1283 H   0  0  0  0  0  0  0  0  0  0  0  0
   -3.1745    1.2933    0.2679 H   0  0  0  0  0  0  0  0  0  0  0  0
   -4.0534   -0.2377    0.5327 H   0  0  0  0  0  0  0  0  0  0  0  0
   -2.1587   -0.5336    1.4837 H   0  0  0  0  0  0  0  0  0  0  0  0
  1  2  1  0
  2  3  1  0
  3  4  1  0
  4  5  1  0
  5  6  2  0
  5  7  1  0
  7  8  1  0
  7  9  1  0
  1 10  1  0
  1 11  1  0
  1 12  1  0
  2 13  1  0
  2 14  1  0
  3 15  1  0
  3 16  1  0
  4 17  1  0
  4 18  1  0
  7 19  1  0
  8 20  1  0
  8 21  1  0
  8 22  1  0
  9 23  1  0
M  END
