
     RDKit          3D

 27 26  0  0  0  0  0  0  0  0999 V2000
    3.9636   -0.1363    0.8865 C   0  0  0  0  0  0  0  0  0  0  0  0
    3.1314   -0.0299   -0.3696 C   0  0  0  0  0  0  0  0  0  0  0  0
    1.6841    0.2457   -0.0362 C   0  0  0  0  0  0  0  0  0  0  0  0
    0.8345    0.3556   -1.2832 C   0  0  0  0  0  0  0  0  0  0  0  0
   -0.6053    0.6304   -0.9337 C   0  0  0  0  0  0  0  0  0  0  0  0
   -1.1705   -0.3503   -0.1558 O   0  0  0  0  0  0  0  0  0  0  0  0
   -2.4729   -0.0278    0.1167 C   0  0  0  0  0  0  0  0  0  0  0  0
   -2.7566    0.1017    1.5973 C   0  0  0  0  0  0  0  0  0  0  0  0
   -3.3655   -1.0895   -0.4869 C   0  0  0  0  0  0  0  0  0  0  0  0
    3.3588    0.0318    1.8054 H   0  0  0  0  0  0  0  0  0  0  0  0
    4.7766    0.6270    0.9129 H   0  0  0  0  0  0  0  0  0  0  0  0
    4.4941   -1.1300    0.9516 H   0  0  0  0  0  0  0  0  0  0  0  0
    3.2601   -0.9789   -0.9297 H   0  0  0  0  0  0  0  0  0  0  0  0
    3.5760    0.7728   -0.9937 H   0  0  0  0  0  0  0  0  0  0  0  0
    1.3398   -0.5544    0.6301 H   0  0  0  0  0  0  0  0  0  0  0  0
    1.6608    1.2568    0.4491 H   0  0  0  0  0  0  0  0  0  0  0  0
    1.2547    1.1854   -1.8809 H   0  0  0  0  0  0  0  0  0  0  0  0
    0.9563   -0.5607   -1.8934 H   0  0  0  0  0  0  0  0  0  0  0  0
   -1.1572    0.7909   -1.8883 H   0  0  0  0  0  0  0  0  0  0  0  0
   -0.6271    1.5927   -0.3799 H   0  0  0  0  0  0  0  0  0  0  0  0
   -2.7296    0.9279   -0.3546 H   0  0  0  0  0  0  0  0  0  0  0  0
   -2.2119    0.9505    2.0241 H   0  0  0  0  0  0  0  0  0  0  0  0
   -2.6166   -0.8423    2.1348 H   0  0  0  0  0  0  0  0  0  0  0  0
   -3.8506    0.3620    1.6767 H   0  0  0  0  0  0  0  0  0  0  0  0
   -2.7648   -1.8914   -0.9751 H   0  0  0  0  0  0  0  0  0  0  0  0
   -3.9497   -1.5668    0.3148 H   0  0  0  0  0  0  0  0  0  0  0  0
   -4.0126   -0.6730   -1.2876 H   0  0  0  0  0  0  0  0  0  0  0  0
  1  2  1  0
  2  3  1  0
  3  4  1  0
  4  5  1  0
  5  6  1  0
  6  7  1  0
  7  8  1  0
  7  9  1  0
  1 10  1  0
  1 11  1  0
  1 12  1  0
  2 13  1  0
  2 14  1  0
  3 15  1  0
  3 16  1  0
  4 17  1  0
  4 18  1  0
  5 19  1  0
  5 20  1  0
  7 21  1  0
  8 22  1  0
  8 23  1  0
  8 24  1  0
  9 25  1  0
  9 26  1  0
  9 27  1  0
M  END
