
     RDKit          3D

 25 25  0  0  0  0  0  0  0  0999 V2000
    3.2995    0.4135   -0.4005 C   0  0  0  0  0  0  0  0  0  0  0  0
    2.1394    0.1713    0.5014 C   0  0  0  0  0  0  0  0  0  0  0  0
    0.8426    0.1244   -0.2756 C   0  0  0  0  0  0  0  0  0  0  0  0
   -0.3486   -0.1160    0.5845 C   0  0  0  0  0  0  0  0  0  0  0  0
   -0.3525   -1.3960    1.3647 C   0  0  0  0  0  0  0  0  0  0  0  0
   -1.1019    0.9161    1.0879 O   0  0  0  0  0  0  0  0  0  0  0  0
   -1.6568    0.3644   -0.0353 C   0  0  0  0  0  0  0  0  0  0  0  0
   -2.8459   -0.5386    0.0308 C   0  0  0  0  0  0  0  0  0  0  0  0
   -1.5856    1.2329   -1.2728 C   0  0  0  0  0  0  0  0  0  0  0  0
    3.9758    1.1791    0.0255 H   0  0  0  0  0  0  0  0  0  0  0  0
    3.9300   -0.4929   -0.5690 H   0  0  0  0  0  0  0  0  0  0  0  0
    2.9575    0.8394   -1.3856 H   0  0  0  0  0  0  0  0  0  0  0  0
    2.3026   -0.8098    1.0048 H   0  0  0  0  0  0  0  0  0  0  0  0
    2.0209    0.9537    1.2746 H   0  0  0  0  0  0  0  0  0  0  0  0
    0.9046   -0.7293   -1.0039 H   0  0  0  0  0  0  0  0  0  0  0  0
    0.7898    1.0559   -0.8666 H   0  0  0  0  0  0  0  0  0  0  0  0
   -0.2454   -2.2380    0.6329 H   0  0  0  0  0  0  0  0  0  0  0  0
   -1.2170   -1.5154    2.0233 H   0  0  0  0  0  0  0  0  0  0  0  0
    0.5521   -1.3820    2.0314 H   0  0  0  0  0  0  0  0  0  0  0  0
   -3.0833   -0.8470   -1.0267 H   0  0  0  0  0  0  0  0  0  0  0  0
   -2.6448   -1.4914    0.5647 H   0  0  0  0  0  0  0  0  0  0  0  0
   -3.7499   -0.0777    0.4554 H   0  0  0  0  0  0  0  0  0  0  0  0
   -2.6261    1.6054   -1.4476 H   0  0  0  0  0  0  0  0  0  0  0  0
   -0.9374    2.1209   -1.1152 H   0  0  0  0  0  0  0  0  0  0  0  0
   -1.3198    0.6574   -2.1830 H   0  0  0  0  0  0  0  0  0  0  0  0
  1  2  1  0
  2  3  1  0
  3  4  1  0
  4  5  1  0
  4  6  1  0
  6  7  1  0
  7  8  1  0
  7  9  1  0
  7  4  1  0
  1 10  1  0
  1 11  1  0
  1 12  1  0
  2 13  1  0
  2 14  1  0
  3 15  1  0
  3 16  1  0
  5 17  1  0
  5 18  1  0
  5 19  1  0
  8 20  1  0
  8 21  1  0
  8 22  1  0
  9 23  1  0
  9 24  1  0
  9 25  1  0
M  END
