
     RDKit          3D

 23 23  0  0  0  0  0  0  0  0999 V2000
    3.0998    0.2653   -0.1704 C   0  0  0  0  0  0  0  0  0  0  0  0
    1.6315    0.7025   -0.2166 C   0  0  0  0  0  0  0  0  0  0  0  0
    0.7707   -0.5173   -0.0380 C   0  0  0  0  0  0  0  0  0  0  0  0
   -0.6946   -0.2417   -0.0689 C   0  0  0  0  0  0  0  0  0  0  0  0
   -1.1626    0.7138    1.0092 C   0  0  0  0  0  0  0  0  0  0  0  0
   -0.7914    1.9915    0.6341 O   0  0  0  0  0  0  0  0  0  0  0  0
   -1.5000   -1.5266   -0.1100 C   0  0  0  0  0  0  0  0  0  0  0  0
   -2.3834   -0.6456   -0.9240 C   0  0  0  0  0  0  0  0  0  0  0  0
   -1.2405    0.0483   -1.3159 O   0  0  0  0  0  0  0  0  0  0  0  0
    3.1951   -0.3631    0.7395 H   0  0  0  0  0  0  0  0  0  0  0  0
    3.2666   -0.3864   -1.0527 H   0  0  0  0  0  0  0  0  0  0  0  0
    3.7459    1.1414   -0.1861 H   0  0  0  0  0  0  0  0  0  0  0  0
    1.4600    1.4678    0.5489 H   0  0  0  0  0  0  0  0  0  0  0  0
    1.4692    1.1468   -1.2170 H   0  0  0  0  0  0  0  0  0  0  0  0
    0.9896   -0.9604    0.9798 H   0  0  0  0  0  0  0  0  0  0  0  0
    0.9901   -1.2835   -0.8178 H   0  0  0  0  0  0  0  0  0  0  0  0
   -0.5900    0.4845    1.9546 H   0  0  0  0  0  0  0  0  0  0  0  0
   -2.2119    0.5952    1.2726 H   0  0  0  0  0  0  0  0  0  0  0  0
   -1.2179    2.7077    1.1456 H   0  0  0  0  0  0  0  0  0  0  0  0
   -0.9802   -2.2627   -0.7698 H   0  0  0  0  0  0  0  0  0  0  0  0
   -1.8630   -1.8899    0.8471 H   0  0  0  0  0  0  0  0  0  0  0  0
   -2.8302   -1.1336   -1.8409 H   0  0  0  0  0  0  0  0  0  0  0  0
   -3.1525   -0.0540   -0.4035 H   0  0  0  0  0  0  0  0  0  0  0  0
  1  2  1  0
  2  3  1  0
  3  4  1  0
  4  5  1  0
  5  6  1  0
  4  7  1  0
  7  8  1  0
  8  9  1  0
  9  4  1  0
  1 10  1  0
  1 11  1  0
  1 12  1  0
  2 13  1  0
  2 14  1  0
  3 15  1  0
  3 16  1  0
  5 17  1  0
  5 18  1  0
  6 19  1  0
  7 20  1  0
  7 21  1  0
  8 22  1  0
  8 23  1  0
M  END
