
     RDKit          3D

 19 18  0  0  0  0  0  0  0  0999 V2000
    1.9179    1.1473    0.1276 C   0  0  0  0  0  0  0  0  0  0  0  0
    1.9653   -0.1937   -0.5393 C   0  0  0  0  0  0  0  0  0  0  0  0
    1.3516   -1.2929    0.2516 C   0  0  0  0  0  0  0  0  0  0  0  0
   -0.0620   -1.1693    0.5749 C   0  0  0  0  0  0  0  0  0  0  0  0
   -0.5115   -1.9600    1.4625 O   0  0  0  0  0  0  0  0  0  0  0  0
   -1.0259   -0.2526    0.0045 C   0  0  0  0  0  0  0  0  0  0  0  0
   -0.7210    0.5682   -0.8810 O   0  0  0  0  0  0  0  0  0  0  0  0
   -2.3668   -0.2350    0.4190 O   0  0  0  0  0  0  0  0  0  0  0  0
   -3.3356    0.6249   -0.0945 C   0  0  0  0  0  0  0  0  0  0  0  0
    1.2018    1.1914    0.9505 H   0  0  0  0  0  0  0  0  0  0  0  0
    1.6189    1.9269   -0.6161 H   0  0  0  0  0  0  0  0  0  0  0  0
    2.9417    1.4477    0.4526 H   0  0  0  0  0  0  0  0  0  0  0  0
    3.0469   -0.4725   -0.6804 H   0  0  0  0  0  0  0  0  0  0  0  0
    1.5177   -0.1630   -1.5432 H   0  0  0  0  0  0  0  0  0  0  0  0
    1.4460   -2.2247   -0.3860 H   0  0  0  0  0  0  0  0  0  0  0  0
    1.9060   -1.5144    1.1953 H   0  0  0  0  0  0  0  0  0  0  0  0
   -4.0114    1.0458    0.6837 H   0  0  0  0  0  0  0  0  0  0  0  0
   -3.9900    0.0233   -0.7700 H   0  0  0  0  0  0  0  0  0  0  0  0
   -2.8896    1.5026   -0.6116 H   0  0  0  0  0  0  0  0  0  0  0  0
  1  2  1  0
  2  3  1  0
  3  4  1  0
  4  5  2  0
  4  6  1  0
  6  7  2  0
  6  8  1  0
  8  9  1  0
  1 10  1  0
  1 11  1  0
  1 12  1  0
  2 13  1  0
  2 14  1  0
  3 15  1  0
  3 16  1  0
  9 17  1  0
  9 18  1  0
  9 19  1  0
M  END
