
     RDKit          3D

 20 20  0  0  0  0  0  0  0  0999 V2000
    2.3126   -0.3327   -0.2832 C   0  0  0  0  0  0  0  0  0  0  0  0
    1.4727    0.9041   -0.4020 C   0  0  0  0  0  0  0  0  0  0  0  0
    0.2755    0.8346    0.4879 C   0  0  0  0  0  0  0  0  0  0  0  0
   -0.6387   -0.3022    0.2094 C   0  0  0  0  0  0  0  0  0  0  0  0
   -0.1432   -1.5748    0.3125 O   0  0  0  0  0  0  0  0  0  0  0  0
   -1.6718   -0.0779   -0.8744 C   0  0  0  0  0  0  0  0  0  0  0  0
   -2.3469    0.7568    0.0467 O   0  0  0  0  0  0  0  0  0  0  0  0
   -1.9185   -0.1577    1.0394 C   0  0  0  0  0  0  0  0  0  0  0  0
    2.1291   -1.0470   -1.1335 H   0  0  0  0  0  0  0  0  0  0  0  0
    3.3931   -0.0394   -0.4000 H   0  0  0  0  0  0  0  0  0  0  0  0
    2.2402   -0.8296    0.6979 H   0  0  0  0  0  0  0  0  0  0  0  0
    1.1895    1.0888   -1.4623 H   0  0  0  0  0  0  0  0  0  0  0  0
    2.0643    1.8019   -0.0940 H   0  0  0  0  0  0  0  0  0  0  0  0
    0.6367    0.7804    1.5467 H   0  0  0  0  0  0  0  0  0  0  0  0
   -0.3136    1.7731    0.4205 H   0  0  0  0  0  0  0  0  0  0  0  0
   -0.9411   -2.1943    0.2870 H   0  0  0  0  0  0  0  0  0  0  0  0
   -2.2370   -1.0337   -1.0333 H   0  0  0  0  0  0  0  0  0  0  0  0
   -1.3274    0.4170   -1.7822 H   0  0  0  0  0  0  0  0  0  0  0  0
   -1.6951    0.3224    2.0092 H   0  0  0  0  0  0  0  0  0  0  0  0
   -2.4806   -1.0898    1.0550 H   0  0  0  0  0  0  0  0  0  0  0  0
  1  2  1  0
  2  3  1  0
  3  4  1  0
  4  5  1  0
  4  6  1  0
  6  7  1  0
  7  8  1  0
  8  4  1  0
  1  9  1  0
  1 10  1  0
  1 11  1  0
  2 12  1  0
  2 13  1  0
  3 14  1  0
  3 15  1  0
  5 16  1  0
  6 17  1  0
  6 18  1  0
  8 19  1  0
  8 20  1  0
M  END
