
     RDKit          3D

 23 24  0  0  0  0  0  0  0  0999 V2000
    2.5416   -0.1224   -0.1405 C   0  0  0  0  0  0  0  0  0  0  0  0
    1.6743    1.0810   -0.3599 C   0  0  0  0  0  0  0  0  0  0  0  0
    0.5278    1.1398    0.5696 C   0  0  0  0  0  0  0  0  0  0  0  0
   -0.4502    0.0427    0.5559 C   0  0  0  0  0  0  0  0  0  0  0  0
   -1.1912   -0.2314   -0.7204 C   0  0  0  0  0  0  0  0  0  0  0  0
   -2.5583    0.3619   -0.7756 C   0  0  0  0  0  0  0  0  0  0  0  0
   -1.1175   -1.7012   -0.3603 C   0  0  0  0  0  0  0  0  0  0  0  0
    0.1435   -2.2172   -0.4121 O   0  0  0  0  0  0  0  0  0  0  0  0
   -0.0146   -1.3697    0.6582 C   0  0  0  0  0  0  0  0  0  0  0  0
    2.4498   -0.8474   -0.9739 H   0  0  0  0  0  0  0  0  0  0  0  0
    3.6314    0.1501   -0.0847 H   0  0  0  0  0  0  0  0  0  0  0  0
    2.3164   -0.6140    0.8063 H   0  0  0  0  0  0  0  0  0  0  0  0
    1.4046    1.2198   -1.4331 H   0  0  0  0  0  0  0  0  0  0  0  0
    2.3214    1.9801   -0.1290 H   0  0  0  0  0  0  0  0  0  0  0  0
   -0.0265    2.0926    0.3677 H   0  0  0  0  0  0  0  0  0  0  0  0
    0.9453    1.2131    1.6120 H   0  0  0  0  0  0  0  0  0  0  0  0
   -1.2217    0.2421    1.3622 H   0  0  0  0  0  0  0  0  0  0  0  0
   -0.6443   -0.0676   -1.6579 H   0  0  0  0  0  0  0  0  0  0  0  0
   -2.9487    0.6493    0.2321 H   0  0  0  0  0  0  0  0  0  0  0  0
   -3.2899   -0.2254   -1.3593 H   0  0  0  0  0  0  0  0  0  0  0  0
   -2.4657    1.3428   -1.3263 H   0  0  0  0  0  0  0  0  0  0  0  0
   -1.9707   -2.2154    0.0692 H   0  0  0  0  0  0  0  0  0  0  0  0
   -0.0569   -1.9037    1.6461 H   0  0  0  0  0  0  0  0  0  0  0  0
  1  2  1  0
  2  3  1  0
  3  4  1  0
  4  5  1  0
  5  6  1  0
  5  7  1  0
  7  8  1  0
  8  9  1  0
  9  4  1  0
  9  7  1  0
  1 10  1  0
  1 11  1  0
  1 12  1  0
  2 13  1  0
  2 14  1  0
  3 15  1  0
  3 16  1  0
  4 17  1  0
  5 18  1  0
  6 19  1  0
  6 20  1  0
  6 21  1  0
  7 22  1  0
  9 23  1  0
M  END
