
     RDKit          3D

 22 21  0  0  0  0  0  0  0  0999 V2000
   -2.9218    0.4692   -0.4550 C   0  0  0  0  0  0  0  0  0  0  0  0
   -1.6746   -0.0013    0.2435 C   0  0  0  0  0  0  0  0  0  0  0  0
   -0.6755   -0.5560   -0.7538 C   0  0  0  0  0  0  0  0  0  0  0  0
    0.5617   -1.0198   -0.0353 C   0  0  0  0  0  0  0  0  0  0  0  0
    1.2471    0.0889    0.7268 C   0  0  0  0  0  0  0  0  0  0  0  0
    1.6673    1.2041   -0.2172 C   0  0  0  0  0  0  0  0  0  0  0  0
    2.5266   -0.5119    1.2450 C   0  0  0  0  0  0  0  0  0  0  0  0
    2.6470   -1.7166    1.4239 O   0  0  0  0  0  0  0  0  0  0  0  0
   -3.5135   -0.4244   -0.7852 H   0  0  0  0  0  0  0  0  0  0  0  0
   -2.6582    1.1269   -1.3189 H   0  0  0  0  0  0  0  0  0  0  0  0
   -3.5614    0.9822    0.2913 H   0  0  0  0  0  0  0  0  0  0  0  0
   -1.2002    0.8091    0.8208 H   0  0  0  0  0  0  0  0  0  0  0  0
   -1.9483   -0.8727    0.9073 H   0  0  0  0  0  0  0  0  0  0  0  0
   -0.4693    0.1324   -1.5678 H   0  0  0  0  0  0  0  0  0  0  0  0
   -1.1554   -1.4637   -1.1920 H   0  0  0  0  0  0  0  0  0  0  0  0
    0.3608   -1.8558    0.6549 H   0  0  0  0  0  0  0  0  0  0  0  0
    1.2988   -1.3512   -0.8200 H   0  0  0  0  0  0  0  0  0  0  0  0
    0.6635    0.4621    1.5804 H   0  0  0  0  0  0  0  0  0  0  0  0
    2.2302    0.7253   -1.0446 H   0  0  0  0  0  0  0  0  0  0  0  0
    0.8237    1.8146   -0.5606 H   0  0  0  0  0  0  0  0  0  0  0  0
    2.3888    1.8471    0.3183 H   0  0  0  0  0  0  0  0  0  0  0  0
    3.3627    0.1114    1.4685 H   0  0  0  0  0  0  0  0  0  0  0  0
  1  2  1  0
  2  3  1  0
  3  4  1  0
  4  5  1  0
  5  6  1  0
  5  7  1  0
  7  8  2  0
  1  9  1  0
  1 10  1  0
  1 11  1  0
  2 12  1  0
  2 13  1  0
  3 14  1  0
  3 15  1  0
  4 16  1  0
  4 17  1  0
  5 18  1  0
  6 19  1  0
  6 20  1  0
  6 21  1  0
  7 22  1  0
M  END
