
     RDKit          3D

 21 20  0  0  0  0  0  0  0  0999 V2000
   -3.0491    0.2125   -0.4056 C   0  0  0  0  0  0  0  0  0  0  0  0
   -1.7646    0.9363   -0.7365 C   0  0  0  0  0  0  0  0  0  0  0  0
   -0.5524    0.0618   -0.5707 C   0  0  0  0  0  0  0  0  0  0  0  0
   -0.4167   -0.4346    0.8401 C   0  0  0  0  0  0  0  0  0  0  0  0
    0.7703   -1.3032    1.0428 C   0  0  0  0  0  0  0  0  0  0  0  0
    2.0459   -0.6447    0.7448 C   0  0  0  0  0  0  0  0  0  0  0  0
    3.0852   -0.0847    0.5011 C   0  0  0  0  0  0  0  0  0  0  0  0
    4.3420    0.5686    0.2226 C   0  0  0  0  0  0  0  0  0  0  0  0
    4.6321    1.5851    0.8820 O   0  0  0  0  0  0  0  0  0  0  0  0
   -3.2085    0.1826    0.6946 H   0  0  0  0  0  0  0  0  0  0  0  0
   -3.1141   -0.7907   -0.8720 H   0  0  0  0  0  0  0  0  0  0  0  0
   -3.8787    0.8163   -0.8344 H   0  0  0  0  0  0  0  0  0  0  0  0
   -1.7190    1.8344   -0.0847 H   0  0  0  0  0  0  0  0  0  0  0  0
   -1.8378    1.2869   -1.7823 H   0  0  0  0  0  0  0  0  0  0  0  0
   -0.5663   -0.7408   -1.3146 H   0  0  0  0  0  0  0  0  0  0  0  0
    0.3351    0.7109   -0.7681 H   0  0  0  0  0  0  0  0  0  0  0  0
   -0.2738    0.4752    1.4893 H   0  0  0  0  0  0  0  0  0  0  0  0
   -1.3103   -0.9820    1.1866 H   0  0  0  0  0  0  0  0  0  0  0  0
    0.7448   -1.6537    2.1167 H   0  0  0  0  0  0  0  0  0  0  0  0
    0.6966   -2.2566    0.4545 H   0  0  0  0  0  0  0  0  0  0  0  0
    5.0393    0.2204   -0.5258 H   0  0  0  0  0  0  0  0  0  0  0  0
  1  2  1  0
  2  3  1  0
  3  4  1  0
  4  5  1  0
  5  6  1  0
  6  7  3  0
  7  8  1  0
  8  9  2  0
  1 10  1  0
  1 11  1  0
  1 12  1  0
  2 13  1  0
  2 14  1  0
  3 15  1  0
  3 16  1  0
  4 17  1  0
  4 18  1  0
  5 19  1  0
  5 20  1  0
  8 21  1  0
M  END
