
     RDKit          3D

 21 20  0  0  0  0  0  0  0  0999 V2000
    2.2912    0.2288    0.4148 C   0  0  0  0  0  0  0  0  0  0  0  0
    1.4154    0.7581   -0.6923 C   0  0  0  0  0  0  0  0  0  0  0  0
    0.2606   -0.1507   -1.0030 C   0  0  0  0  0  0  0  0  0  0  0  0
   -0.6505   -0.3649    0.1819 C   0  0  0  0  0  0  0  0  0  0  0  0
   -1.2365    0.9484    0.6585 C   0  0  0  0  0  0  0  0  0  0  0  0
   -1.8368   -1.1852   -0.2923 C   0  0  0  0  0  0  0  0  0  0  0  0
   -0.0446   -1.0707    1.2024 O   0  0  0  0  0  0  0  0  0  0  0  0
    3.3272    0.5876    0.2447 H   0  0  0  0  0  0  0  0  0  0  0  0
    2.2257   -0.8855    0.4464 H   0  0  0  0  0  0  0  0  0  0  0  0
    1.9663    0.6838    1.3807 H   0  0  0  0  0  0  0  0  0  0  0  0
    1.1234    1.7845   -0.4371 H   0  0  0  0  0  0  0  0  0  0  0  0
    2.0411    0.8177   -1.6046 H   0  0  0  0  0  0  0  0  0  0  0  0
   -0.3151    0.2830   -1.8295 H   0  0  0  0  0  0  0  0  0  0  0  0
    0.6836   -1.1244   -1.3226 H   0  0  0  0  0  0  0  0  0  0  0  0
   -1.8664    1.3288   -0.1814 H   0  0  0  0  0  0  0  0  0  0  0  0
   -0.4480    1.6732    0.9477 H   0  0  0  0  0  0  0  0  0  0  0  0
   -1.9375    0.7199    1.4828 H   0  0  0  0  0  0  0  0  0  0  0  0
   -2.6652   -0.9870    0.3956 H   0  0  0  0  0  0  0  0  0  0  0  0
   -2.1262   -0.7714   -1.2958 H   0  0  0  0  0  0  0  0  0  0  0  0
   -1.5788   -2.2602   -0.3763 H   0  0  0  0  0  0  0  0  0  0  0  0
   -0.6291   -1.0138    1.9954 H   0  0  0  0  0  0  0  0  0  0  0  0
  1  2  1  0
  2  3  1  0
  3  4  1  0
  4  5  1  0
  4  6  1  0
  4  7  1  0
  1  8  1  0
  1  9  1  0
  1 10  1  0
  2 11  1  0
  2 12  1  0
  3 13  1  0
  3 14  1  0
  5 15  1  0
  5 16  1  0
  5 17  1  0
  6 18  1  0
  6 19  1  0
  6 20  1  0
  7 21  1  0
M  END
