
     RDKit          3D

 23 24  0  0  0  0  0  0  0  0999 V2000
    2.3154    0.4308    0.5529 C   0  0  0  0  0  0  0  0  0  0  0  0
    1.3780   -0.6625    1.0569 C   0  0  0  0  0  0  0  0  0  0  0  0
    0.7881   -1.3939   -0.1066 C   0  0  0  0  0  0  0  0  0  0  0  0
    0.0096   -0.5481   -1.0503 C   0  0  0  0  0  0  0  0  0  0  0  0
   -1.1540    0.1752   -0.5641 C   0  0  0  0  0  0  0  0  0  0  0  0
   -2.3537   -0.4643    0.0603 C   0  0  0  0  0  0  0  0  0  0  0  0
   -2.6032    0.6760    0.8341 O   0  0  0  0  0  0  0  0  0  0  0  0
   -1.3364    1.1643    0.4590 C   0  0  0  0  0  0  0  0  0  0  0  0
   -1.2851    1.6503   -0.9547 C   0  0  0  0  0  0  0  0  0  0  0  0
    1.8449    1.4361    0.6158 H   0  0  0  0  0  0  0  0  0  0  0  0
    3.2491    0.4798    1.1461 H   0  0  0  0  0  0  0  0  0  0  0  0
    2.6192    0.2300   -0.4990 H   0  0  0  0  0  0  0  0  0  0  0  0
    2.0788   -1.4048    1.5456 H   0  0  0  0  0  0  0  0  0  0  0  0
    0.6582   -0.3069    1.8089 H   0  0  0  0  0  0  0  0  0  0  0  0
    1.6567   -1.8233   -0.6892 H   0  0  0  0  0  0  0  0  0  0  0  0
    0.2343   -2.2956    0.2426 H   0  0  0  0  0  0  0  0  0  0  0  0
   -0.2752   -1.1194   -1.9862 H   0  0  0  0  0  0  0  0  0  0  0  0
    0.7449    0.2179   -1.4601 H   0  0  0  0  0  0  0  0  0  0  0  0
   -2.1420   -1.3176    0.7454 H   0  0  0  0  0  0  0  0  0  0  0  0
   -3.1700   -0.7216   -0.6459 H   0  0  0  0  0  0  0  0  0  0  0  0
   -0.6590    1.5354    1.2136 H   0  0  0  0  0  0  0  0  0  0  0  0
   -0.3701    2.1979   -1.2191 H   0  0  0  0  0  0  0  0  0  0  0  0
   -2.2284    1.8642   -1.4745 H   0  0  0  0  0  0  0  0  0  0  0  0
  1  2  1  0
  2  3  1  0
  3  4  1  0
  4  5  1  0
  5  6  1  0
  6  7  1  0
  7  8  1  0
  8  9  1  0
  8  5  1  0
  9  5  1  0
  1 10  1  0
  1 11  1  0
  1 12  1  0
  2 13  1  0
  2 14  1  0
  3 15  1  0
  3 16  1  0
  4 17  1  0
  4 18  1  0
  6 19  1  0
  6 20  1  0
  8 21  1  0
  9 22  1  0
  9 23  1  0
M  END
