
     RDKit          3D

 21 20  0  0  0  0  0  0  0  0999 V2000
   -3.5970    0.2013   -1.2117 C   0  0  0  0  0  0  0  0  0  0  0  0
   -2.1760    0.5555   -0.7794 C   0  0  0  0  0  0  0  0  0  0  0  0
   -1.6143   -0.6812   -0.1131 C   0  0  0  0  0  0  0  0  0  0  0  0
   -0.2408   -0.4730    0.3531 C   0  0  0  0  0  0  0  0  0  0  0  0
    0.8818   -0.3115    0.7512 C   0  0  0  0  0  0  0  0  0  0  0  0
    2.2659   -0.0887    1.2380 C   0  0  0  0  0  0  0  0  0  0  0  0
    2.8032    1.0827    0.4435 C   0  0  0  0  0  0  0  0  0  0  0  0
    3.1023   -1.2987    1.0514 C   0  0  0  0  0  0  0  0  0  0  0  0
    4.2519   -1.2147    0.6715 O   0  0  0  0  0  0  0  0  0  0  0  0
   -4.2461    0.2095   -0.2967 H   0  0  0  0  0  0  0  0  0  0  0  0
   -3.9641    0.9990   -1.8964 H   0  0  0  0  0  0  0  0  0  0  0  0
   -3.6336   -0.8080   -1.6649 H   0  0  0  0  0  0  0  0  0  0  0  0
   -2.1943    1.3515   -0.0142 H   0  0  0  0  0  0  0  0  0  0  0  0
   -1.5566    0.8225   -1.6445 H   0  0  0  0  0  0  0  0  0  0  0  0
   -1.6466   -1.5032   -0.8557 H   0  0  0  0  0  0  0  0  0  0  0  0
   -2.3076   -0.9522    0.7068 H   0  0  0  0  0  0  0  0  0  0  0  0
    2.2287    0.2347    2.3028 H   0  0  0  0  0  0  0  0  0  0  0  0
    3.1959    1.8870    1.1033 H   0  0  0  0  0  0  0  0  0  0  0  0
    2.0647    1.5270   -0.2300 H   0  0  0  0  0  0  0  0  0  0  0  0
    3.6793    0.7409   -0.1586 H   0  0  0  0  0  0  0  0  0  0  0  0
    2.7033   -2.2805    1.2506 H   0  0  0  0  0  0  0  0  0  0  0  0
  1  2  1  0
  2  3  1  0
  3  4  1  0
  4  5  3  0
  5  6  1  0
  6  7  1  0
  6  8  1  0
  8  9  2  0
  1 10  1  0
  1 11  1  0
  1 12  1  0
  2 13  1  0
  2 14  1  0
  3 15  1  0
  3 16  1  0
  6 17  1  0
  7 18  1  0
  7 19  1  0
  7 20  1  0
  8 21  1  0
M  END
