
     RDKit          3D

 25 25  0  0  0  0  0  0  0  0999 V2000
    3.1120    0.6957    0.1843 C   0  0  0  0  0  0  0  0  0  0  0  0
    2.0647   -0.3102   -0.3157 C   0  0  0  0  0  0  0  0  0  0  0  0
    0.7863    0.0370    0.4075 C   0  0  0  0  0  0  0  0  0  0  0  0
   -0.3775   -0.8386    0.0592 C   0  0  0  0  0  0  0  0  0  0  0  0
   -0.6934   -0.7524   -1.4208 C   0  0  0  0  0  0  0  0  0  0  0  0
   -1.5369    0.4613   -1.0738 C   0  0  0  0  0  0  0  0  0  0  0  0
   -1.7210   -0.1917    0.2827 C   0  0  0  0  0  0  0  0  0  0  0  0
   -1.7929    0.7608    1.4459 C   0  0  0  0  0  0  0  0  0  0  0  0
   -2.7761   -1.0795    0.2520 O   0  0  0  0  0  0  0  0  0  0  0  0
    4.1364    0.2952    0.0428 H   0  0  0  0  0  0  0  0  0  0  0  0
    2.8879    0.8904    1.2507 H   0  0  0  0  0  0  0  0  0  0  0  0
    2.9280    1.6352   -0.3725 H   0  0  0  0  0  0  0  0  0  0  0  0
    2.0213   -0.1668   -1.4001 H   0  0  0  0  0  0  0  0  0  0  0  0
    2.4119   -1.3385   -0.1027 H   0  0  0  0  0  0  0  0  0  0  0  0
    1.0191   -0.0960    1.5055 H   0  0  0  0  0  0  0  0  0  0  0  0
    0.5843    1.1076    0.2045 H   0  0  0  0  0  0  0  0  0  0  0  0
   -0.2973   -1.8931    0.3518 H   0  0  0  0  0  0  0  0  0  0  0  0
   -1.3807   -1.5554   -1.7828 H   0  0  0  0  0  0  0  0  0  0  0  0
    0.1511   -0.5546   -2.0916 H   0  0  0  0  0  0  0  0  0  0  0  0
   -0.9966    1.4216   -1.0403 H   0  0  0  0  0  0  0  0  0  0  0  0
   -2.5016    0.4978   -1.6252 H   0  0  0  0  0  0  0  0  0  0  0  0
   -1.4445    0.2358    2.3621 H   0  0  0  0  0  0  0  0  0  0  0  0
   -1.2903    1.7208    1.2667 H   0  0  0  0  0  0  0  0  0  0  0  0
   -2.8686    0.9870    1.6122 H   0  0  0  0  0  0  0  0  0  0  0  0
   -2.4256   -1.9693   -0.0024 H   0  0  0  0  0  0  0  0  0  0  0  0
  1  2  1  0
  2  3  1  0
  3  4  1  0
  4  5  1  0
  5  6  1  0
  6  7  1  0
  7  8  1  0
  7  9  1  0
  7  4  1  0
  1 10  1  0
  1 11  1  0
  1 12  1  0
  2 13  1  0
  2 14  1  0
  3 15  1  0
  3 16  1  0
  4 17  1  0
  5 18  1  0
  5 19  1  0
  6 20  1  0
  6 21  1  0
  8 22  1  0
  8 23  1  0
  8 24  1  0
  9 25  1  0
M  END
