
     RDKit          3D

 21 21  0  0  0  0  0  0  0  0999 V2000
   -2.8356   -0.4402   -0.0385 C   0  0  0  0  0  0  0  0  0  0  0  0
   -1.6506    0.4459    0.3066 C   0  0  0  0  0  0  0  0  0  0  0  0
   -0.4813   -0.0275   -0.5602 C   0  0  0  0  0  0  0  0  0  0  0  0
    0.7566    0.8081   -0.2805 C   0  0  0  0  0  0  0  0  0  0  0  0
    1.1154    0.6679    1.1382 C   0  0  0  0  0  0  0  0  0  0  0  0
    1.9128   -0.3746    1.2680 C   0  0  0  0  0  0  0  0  0  0  0  0
    2.1414   -0.9949   -0.0369 C   0  0  0  0  0  0  0  0  0  0  0  0
    2.4618   -2.1606   -0.3467 O   0  0  0  0  0  0  0  0  0  0  0  0
    1.8968    0.1291   -0.9961 C   0  0  0  0  0  0  0  0  0  0  0  0
   -2.8209   -0.6396   -1.1130 H   0  0  0  0  0  0  0  0  0  0  0  0
   -3.7459    0.1204    0.2224 H   0  0  0  0  0  0  0  0  0  0  0  0
   -2.7474   -1.4013    0.5019 H   0  0  0  0  0  0  0  0  0  0  0  0
   -1.8605    1.4892   -0.0260 H   0  0  0  0  0  0  0  0  0  0  0  0
   -1.3625    0.3906    1.3605 H   0  0  0  0  0  0  0  0  0  0  0  0
   -0.2120   -1.0775   -0.3156 H   0  0  0  0  0  0  0  0  0  0  0  0
   -0.7073    0.0937   -1.6295 H   0  0  0  0  0  0  0  0  0  0  0  0
    0.6160    1.8573   -0.5981 H   0  0  0  0  0  0  0  0  0  0  0  0
    0.8037    1.2918    1.9826 H   0  0  0  0  0  0  0  0  0  0  0  0
    2.3566   -0.7498    2.2033 H   0  0  0  0  0  0  0  0  0  0  0  0
    2.7637    0.8244   -1.0443 H   0  0  0  0  0  0  0  0  0  0  0  0
    1.5993   -0.2525   -1.9982 H   0  0  0  0  0  0  0  0  0  0  0  0
  1  2  1  0
  2  3  1  0
  3  4  1  0
  4  5  1  0
  5  6  2  0
  6  7  1  0
  7  8  2  0
  7  9  1  0
  9  4  1  0
  1 10  1  0
  1 11  1  0
  1 12  1  0
  2 13  1  0
  2 14  1  0
  3 15  1  0
  3 16  1  0
  4 17  1  0
  5 18  1  0
  6 19  1  0
  9 20  1  0
  9 21  1  0
M  END
