
     RDKit          3D

 23 23  0  0  0  0  0  0  0  0999 V2000
    3.1932    0.5538   -0.0316 C   0  0  0  0  0  0  0  0  0  0  0  0
    1.8853   -0.0625   -0.3753 C   0  0  0  0  0  0  0  0  0  0  0  0
    0.7623    0.3410    0.5530 C   0  0  0  0  0  0  0  0  0  0  0  0
   -0.4996   -0.3128    0.1438 C   0  0  0  0  0  0  0  0  0  0  0  0
   -1.6566    0.2005   -0.2301 C   0  0  0  0  0  0  0  0  0  0  0  0
   -1.9407    1.6433   -0.3204 C   0  0  0  0  0  0  0  0  0  0  0  0
   -2.5457   -0.9707   -0.5192 C   0  0  0  0  0  0  0  0  0  0  0  0
   -2.0305   -1.9372    0.3622 O   0  0  0  0  0  0  0  0  0  0  0  0
   -0.6539   -1.8065    0.0922 C   0  0  0  0  0  0  0  0  0  0  0  0
    3.3898    0.6910    1.0296 H   0  0  0  0  0  0  0  0  0  0  0  0
    3.2964    1.5367   -0.5746 H   0  0  0  0  0  0  0  0  0  0  0  0
    4.0254   -0.0766   -0.4509 H   0  0  0  0  0  0  0  0  0  0  0  0
    1.5709    0.2917   -1.4002 H   0  0  0  0  0  0  0  0  0  0  0  0
    1.9009   -1.1764   -0.4167 H   0  0  0  0  0  0  0  0  0  0  0  0
    0.6264    1.4368    0.5849 H   0  0  0  0  0  0  0  0  0  0  0  0
    1.0273    0.0336    1.6003 H   0  0  0  0  0  0  0  0  0  0  0  0
   -1.7143    2.0508   -1.3401 H   0  0  0  0  0  0  0  0  0  0  0  0
   -1.3032    2.2152    0.3880 H   0  0  0  0  0  0  0  0  0  0  0  0
   -3.0054    1.9001   -0.1073 H   0  0  0  0  0  0  0  0  0  0  0  0
   -3.6009   -0.7614   -0.3590 H   0  0  0  0  0  0  0  0  0  0  0  0
   -2.2998   -1.3427   -1.5399 H   0  0  0  0  0  0  0  0  0  0  0  0
   -0.0412   -2.2652    0.8861 H   0  0  0  0  0  0  0  0  0  0  0  0
   -0.3862   -2.1825   -0.9060 H   0  0  0  0  0  0  0  0  0  0  0  0
  1  2  1  0
  2  3  1  0
  3  4  1  0
  4  5  2  0
  5  6  1  0
  5  7  1  0
  7  8  1  0
  8  9  1  0
  9  4  1  0
  1 10  1  0
  1 11  1  0
  1 12  1  0
  2 13  1  0
  2 14  1  0
  3 15  1  0
  3 16  1  0
  6 17  1  0
  6 18  1  0
  6 19  1  0
  7 20  1  0
  7 21  1  0
  9 22  1  0
  9 23  1  0
M  END
