
     RDKit          3D

 24 24  0  0  0  0  0  0  0  0999 V2000
   -3.2092    0.4666    0.2348 C   0  0  0  0  0  0  0  0  0  0  0  0
   -1.7402    0.6445   -0.0763 C   0  0  0  0  0  0  0  0  0  0  0  0
   -1.0059   -0.6619    0.1074 C   0  0  0  0  0  0  0  0  0  0  0  0
    0.4483   -0.5694   -0.1801 C   0  0  0  0  0  0  0  0  0  0  0  0
    1.0642   -1.9354    0.0396 C   0  0  0  0  0  0  0  0  0  0  0  0
    1.1970    0.4147    0.6536 C   0  0  0  0  0  0  0  0  0  0  0  0
    2.6896    0.4777    0.3249 C   0  0  0  0  0  0  0  0  0  0  0  0
    1.7618    1.6626    0.1247 C   0  0  0  0  0  0  0  0  0  0  0  0
   -3.5219    1.3030    0.9144 H   0  0  0  0  0  0  0  0  0  0  0  0
   -3.3925   -0.5138    0.7131 H   0  0  0  0  0  0  0  0  0  0  0  0
   -3.8152    0.4683   -0.7061 H   0  0  0  0  0  0  0  0  0  0  0  0
   -1.6395    0.9669   -1.1339 H   0  0  0  0  0  0  0  0  0  0  0  0
   -1.2843    1.4534    0.5318 H   0  0  0  0  0  0  0  0  0  0  0  0
   -1.4491   -1.3730   -0.6367 H   0  0  0  0  0  0  0  0  0  0  0  0
   -1.1598   -1.1145    1.0915 H   0  0  0  0  0  0  0  0  0  0  0  0
    0.5745   -0.2527   -1.2538 H   0  0  0  0  0  0  0  0  0  0  0  0
    2.0319   -2.0218   -0.4739 H   0  0  0  0  0  0  0  0  0  0  0  0
    1.1631   -2.0778    1.1470 H   0  0  0  0  0  0  0  0  0  0  0  0
    0.3755   -2.7284   -0.3493 H   0  0  0  0  0  0  0  0  0  0  0  0
    0.9507    0.3530    1.7476 H   0  0  0  0  0  0  0  0  0  0  0  0
    3.4188    0.4831    1.1379 H   0  0  0  0  0  0  0  0  0  0  0  0
    3.0320    0.0432   -0.6382 H   0  0  0  0  0  0  0  0  0  0  0  0
    1.9538    2.4752    0.8665 H   0  0  0  0  0  0  0  0  0  0  0  0
    1.5567    2.0367   -0.8836 H   0  0  0  0  0  0  0  0  0  0  0  0
  1  2  1  0
  2  3  1  0
  3  4  1  0
  4  5  1  0
  4  6  1  0
  6  7  1  0
  7  8  1  0
  8  6  1  0
  1  9  1  0
  1 10  1  0
  1 11  1  0
  2 12  1  0
  2 13  1  0
  3 14  1  0
  3 15  1  0
  4 16  1  0
  5 17  1  0
  5 18  1  0
  5 19  1  0
  6 20  1  0
  7 21  1  0
  7 22  1  0
  8 23  1  0
  8 24  1  0
M  END
