
     RDKit          3D

 20 19  0  0  0  0  0  0  0  0999 V2000
   -2.7448    1.0814    0.2471 C   0  0  0  0  0  0  0  0  0  0  0  0
   -1.9470   -0.1785    0.1437 C   0  0  0  0  0  0  0  0  0  0  0  0
   -0.4770    0.1296   -0.1192 C   0  0  0  0  0  0  0  0  0  0  0  0
    0.2912   -1.1359   -0.2278 C   0  0  0  0  0  0  0  0  0  0  0  0
   -0.2976   -2.1967   -0.0831 O   0  0  0  0  0  0  0  0  0  0  0  0
    1.7302   -1.1782   -0.5041 C   0  0  0  0  0  0  0  0  0  0  0  0
    2.5307   -0.0781    0.1362 C   0  0  0  0  0  0  0  0  0  0  0  0
    2.1581    1.1882   -0.2396 O   0  0  0  0  0  0  0  0  0  0  0  0
   -3.5728    1.0228    0.9691 H   0  0  0  0  0  0  0  0  0  0  0  0
   -3.2271    1.3366   -0.7456 H   0  0  0  0  0  0  0  0  0  0  0  0
   -2.0968    1.9333    0.4951 H   0  0  0  0  0  0  0  0  0  0  0  0
   -2.0883   -0.7266    1.0995 H   0  0  0  0  0  0  0  0  0  0  0  0
   -2.3528   -0.7835   -0.6971 H   0  0  0  0  0  0  0  0  0  0  0  0
   -0.4220    0.7155   -1.0383 H   0  0  0  0  0  0  0  0  0  0  0  0
   -0.1430    0.7410    0.7663 H   0  0  0  0  0  0  0  0  0  0  0  0
    2.1424   -2.1378   -0.1309 H   0  0  0  0  0  0  0  0  0  0  0  0
    1.9624   -1.1663   -1.5993 H   0  0  0  0  0  0  0  0  0  0  0  0
    3.5887   -0.2229   -0.2293 H   0  0  0  0  0  0  0  0  0  0  0  0
    2.5975   -0.1531    1.2265 H   0  0  0  0  0  0  0  0  0  0  0  0
    2.3682    1.8095    0.5307 H   0  0  0  0  0  0  0  0  0  0  0  0
  1  2  1  0
  2  3  1  0
  3  4  1  0
  4  5  2  0
  4  6  1  0
  6  7  1  0
  7  8  1  0
  1  9  1  0
  1 10  1  0
  1 11  1  0
  2 12  1  0
  2 13  1  0
  3 14  1  0
  3 15  1  0
  6 16  1  0
  6 17  1  0
  7 18  1  0
  7 19  1  0
  8 20  1  0
M  END
