
     RDKit          3D

 18 18  0  0  0  0  0  0  0  0999 V2000
   -2.3884    0.6009   -0.1157 C   0  0  0  0  0  0  0  0  0  0  0  0
   -1.6460   -0.6831   -0.2890 C   0  0  0  0  0  0  0  0  0  0  0  0
   -0.3891   -0.7527    0.5464 C   0  0  0  0  0  0  0  0  0  0  0  0
    0.5962    0.3101    0.2420 C   0  0  0  0  0  0  0  0  0  0  0  0
    1.1566    0.4596   -1.0064 O   0  0  0  0  0  0  0  0  0  0  0  0
    1.9919   -0.1781   -0.0862 C   0  0  0  0  0  0  0  0  0  0  0  0
    3.1209    0.5559    0.4996 C   0  0  0  0  0  0  0  0  0  0  0  0
    3.0244    1.7201    0.7709 O   0  0  0  0  0  0  0  0  0  0  0  0
   -1.7381    1.4872   -0.3017 H   0  0  0  0  0  0  0  0  0  0  0  0
   -3.2220    0.6116   -0.8473 H   0  0  0  0  0  0  0  0  0  0  0  0
   -2.8850    0.6777    0.8915 H   0  0  0  0  0  0  0  0  0  0  0  0
   -2.3140   -1.5054    0.0956 H   0  0  0  0  0  0  0  0  0  0  0  0
   -1.4342   -0.8636   -1.3391 H   0  0  0  0  0  0  0  0  0  0  0  0
    0.0555   -1.7485    0.3541 H   0  0  0  0  0  0  0  0  0  0  0  0
   -0.6528   -0.7451    1.6267 H   0  0  0  0  0  0  0  0  0  0  0  0
    0.5464    1.2742    0.8106 H   0  0  0  0  0  0  0  0  0  0  0  0
    2.1328   -1.2565   -0.3195 H   0  0  0  0  0  0  0  0  0  0  0  0
    4.0449    0.0356    0.6854 H   0  0  0  0  0  0  0  0  0  0  0  0
  1  2  1  0
  2  3  1  0
  3  4  1  0
  4  5  1  0
  5  6  1  0
  6  7  1  0
  7  8  2  0
  6  4  1  0
  1  9  1  0
  1 10  1  0
  1 11  1  0
  2 12  1  0
  2 13  1  0
  3 14  1  0
  3 15  1  0
  4 16  1  0
  6 17  1  0
  7 18  1  0
M  END
