
     RDKit          3D

 23 24  0  0  0  0  0  0  0  0999 V2000
    3.4608   -0.4669   -0.3417 C   0  0  0  0  0  0  0  0  0  0  0  0
    2.0265   -0.6819    0.1563 C   0  0  0  0  0  0  0  0  0  0  0  0
    1.1130    0.2534   -0.6055 C   0  0  0  0  0  0  0  0  0  0  0  0
   -0.2330    0.1954   -0.2829 C   0  0  0  0  0  0  0  0  0  0  0  0
   -1.3340    0.9910   -0.8661 C   0  0  0  0  0  0  0  0  0  0  0  0
   -1.9615   -0.0435    0.0331 C   0  0  0  0  0  0  0  0  0  0  0  0
   -3.2976   -0.2387    0.2765 C   0  0  0  0  0  0  0  0  0  0  0  0
   -0.8842    0.2869    1.0334 C   0  0  0  0  0  0  0  0  0  0  0  0
   -1.0486   -0.9372   -0.5196 O   0  0  0  0  0  0  0  0  0  0  0  0
    3.6659    0.6361   -0.3188 H   0  0  0  0  0  0  0  0  0  0  0  0
    3.5388   -0.7510   -1.4224 H   0  0  0  0  0  0  0  0  0  0  0  0
    4.1802   -1.0562    0.2251 H   0  0  0  0  0  0  0  0  0  0  0  0
    1.7605   -1.7405    0.0176 H   0  0  0  0  0  0  0  0  0  0  0  0
    2.0596   -0.4216    1.2482 H   0  0  0  0  0  0  0  0  0  0  0  0
    1.5481    1.2688   -0.4963 H   0  0  0  0  0  0  0  0  0  0  0  0
    1.2874   -0.0003   -1.6953 H   0  0  0  0  0  0  0  0  0  0  0  0
   -1.4847    2.0201   -0.4905 H   0  0  0  0  0  0  0  0  0  0  0  0
   -1.4630    0.8276   -1.9373 H   0  0  0  0  0  0  0  0  0  0  0  0
   -3.9898    0.4953   -0.2318 H   0  0  0  0  0  0  0  0  0  0  0  0
   -3.6007   -0.1751    1.3630 H   0  0  0  0  0  0  0  0  0  0  0  0
   -3.7014   -1.2432   -0.0473 H   0  0  0  0  0  0  0  0  0  0  0  0
   -0.9585    1.2979    1.4764 H   0  0  0  0  0  0  0  0  0  0  0  0
   -0.6839   -0.5162    1.7627 H   0  0  0  0  0  0  0  0  0  0  0  0
  1  2  1  0
  2  3  1  0
  3  4  1  0
  4  5  1  0
  5  6  1  0
  6  7  1  0
  6  8  1  0
  6  9  1  0
  8  4  1  0
  9  4  1  0
  1 10  1  0
  1 11  1  0
  1 12  1  0
  2 13  1  0
  2 14  1  0
  3 15  1  0
  3 16  1  0
  5 17  1  0
  5 18  1  0
  7 19  1  0
  7 20  1  0
  7 21  1  0
  8 22  1  0
  8 23  1  0
M  END
