
     RDKit          3D

 18 18  0  0  0  0  0  0  0  0999 V2000
   -2.3731   -0.1068    0.0462 C   0  0  0  0  0  0  0  0  0  0  0  0
   -1.3996    0.9949   -0.1188 C   0  0  0  0  0  0  0  0  0  0  0  0
   -0.1290    0.6434   -0.8214 C   0  0  0  0  0  0  0  0  0  0  0  0
    0.6843   -0.4175   -0.1693 C   0  0  0  0  0  0  0  0  0  0  0  0
    1.1090   -0.1252    1.1315 O   0  0  0  0  0  0  0  0  0  0  0  0
    2.3100   -0.7847    0.8100 C   0  0  0  0  0  0  0  0  0  0  0  0
    2.1094   -0.3169   -0.5749 C   0  0  0  0  0  0  0  0  0  0  0  0
    2.8411   -0.0281   -1.4922 O   0  0  0  0  0  0  0  0  0  0  0  0
   -2.6594   -0.2094    1.1345 H   0  0  0  0  0  0  0  0  0  0  0  0
   -3.3321    0.0875   -0.4810 H   0  0  0  0  0  0  0  0  0  0  0  0
   -2.0226   -1.0888   -0.3600 H   0  0  0  0  0  0  0  0  0  0  0  0
   -1.1246    1.4256    0.8869 H   0  0  0  0  0  0  0  0  0  0  0  0
   -1.8830    1.8144   -0.6913 H   0  0  0  0  0  0  0  0  0  0  0  0
   -0.3190    0.3446   -1.8675 H   0  0  0  0  0  0  0  0  0  0  0  0
    0.4913    1.5659   -0.8700 H   0  0  0  0  0  0  0  0  0  0  0  0
    0.2945   -1.4506   -0.2765 H   0  0  0  0  0  0  0  0  0  0  0  0
    2.2064   -1.9070    0.8432 H   0  0  0  0  0  0  0  0  0  0  0  0
    3.1963   -0.4411    1.3386 H   0  0  0  0  0  0  0  0  0  0  0  0
  1  2  1  0
  2  3  1  0
  3  4  1  0
  4  5  1  0
  5  6  1  0
  6  7  1  0
  7  8  2  0
  7  4  1  0
  1  9  1  0
  1 10  1  0
  1 11  1  0
  2 12  1  0
  2 13  1  0
  3 14  1  0
  3 15  1  0
  4 16  1  0
  6 17  1  0
  6 18  1  0
M  END
