
     RDKit          3D

 25 25  0  0  0  0  0  0  0  0999 V2000
    2.8135    0.0445    0.6026 C   0  0  0  0  0  0  0  0  0  0  0  0
    2.1877    0.1101   -0.7760 C   0  0  0  0  0  0  0  0  0  0  0  0
    0.8005    0.6320   -0.7630 C   0  0  0  0  0  0  0  0  0  0  0  0
   -0.1841   -0.1404    0.0357 C   0  0  0  0  0  0  0  0  0  0  0  0
   -0.3775   -1.5659   -0.3892 C   0  0  0  0  0  0  0  0  0  0  0  0
   -1.7248   -1.8525    0.2329 C   0  0  0  0  0  0  0  0  0  0  0  0
   -2.4012   -0.7277    0.3763 C   0  0  0  0  0  0  0  0  0  0  0  0
   -1.5860    0.4075   -0.1281 C   0  0  0  0  0  0  0  0  0  0  0  0
   -1.8087    1.6745    0.6521 C   0  0  0  0  0  0  0  0  0  0  0  0
    3.0590    1.0778    0.9073 H   0  0  0  0  0  0  0  0  0  0  0  0
    2.1488   -0.4404    1.3395 H   0  0  0  0  0  0  0  0  0  0  0  0
    3.7788   -0.4978    0.4812 H   0  0  0  0  0  0  0  0  0  0  0  0
    2.8151    0.8477   -1.3422 H   0  0  0  0  0  0  0  0  0  0  0  0
    2.3123   -0.8503   -1.3172 H   0  0  0  0  0  0  0  0  0  0  0  0
    0.8200    1.6685   -0.3681 H   0  0  0  0  0  0  0  0  0  0  0  0
    0.4272    0.7023   -1.8052 H   0  0  0  0  0  0  0  0  0  0  0  0
    0.0299   -0.1417    1.1218 H   0  0  0  0  0  0  0  0  0  0  0  0
   -0.5191   -1.6915   -1.4662 H   0  0  0  0  0  0  0  0  0  0  0  0
    0.3205   -2.2746    0.0777 H   0  0  0  0  0  0  0  0  0  0  0  0
   -2.1065   -2.8253    0.5277 H   0  0  0  0  0  0  0  0  0  0  0  0
   -3.3975   -0.6281    0.7950 H   0  0  0  0  0  0  0  0  0  0  0  0
   -1.8152    0.5537   -1.2072 H   0  0  0  0  0  0  0  0  0  0  0  0
   -1.8085    1.4376    1.7239 H   0  0  0  0  0  0  0  0  0  0  0  0
   -1.0071    2.3848    0.3532 H   0  0  0  0  0  0  0  0  0  0  0  0
   -2.7768    2.0952    0.3354 H   0  0  0  0  0  0  0  0  0  0  0  0
  1  2  1  0
  2  3  1  0
  3  4  1  0
  4  5  1  0
  5  6  1  0
  6  7  2  0
  7  8  1  0
  8  9  1  0
  8  4  1  0
  1 10  1  0
  1 11  1  0
  1 12  1  0
  2 13  1  0
  2 14  1  0
  3 15  1  0
  3 16  1  0
  4 17  1  0
  5 18  1  0
  5 19  1  0
  6 20  1  0
  7 21  1  0
  8 22  1  0
  9 23  1  0
  9 24  1  0
  9 25  1  0
M  END
