
     RDKit          3D

 15 14  0  0  0  0  0  0  0  0999 V2000
   -1.8647    0.3432    0.4644 C   0  0  0  0  0  0  0  0  0  0  0  0
   -0.9586   -0.4005   -0.4838 C   0  0  0  0  0  0  0  0  0  0  0  0
    0.3525   -0.7786    0.1590 C   0  0  0  0  0  0  0  0  0  0  0  0
    1.0684    0.4483    0.6058 C   0  0  0  0  0  0  0  0  0  0  0  0
    0.5348    1.5695    0.4058 O   0  0  0  0  0  0  0  0  0  0  0  0
    2.3593    0.3670    1.2616 C   0  0  0  0  0  0  0  0  0  0  0  0
    2.9663   -0.7050    1.5024 O   0  0  0  0  0  0  0  0  0  0  0  0
   -2.7804   -0.2659    0.6887 H   0  0  0  0  0  0  0  0  0  0  0  0
   -2.1327    1.3126   -0.0026 H   0  0  0  0  0  0  0  0  0  0  0  0
   -1.3399    0.6087    1.4118 H   0  0  0  0  0  0  0  0  0  0  0  0
   -1.5157   -1.2942   -0.8287 H   0  0  0  0  0  0  0  0  0  0  0  0
   -0.7600    0.2154   -1.3821 H   0  0  0  0  0  0  0  0  0  0  0  0
    0.2467   -1.4591    1.0008 H   0  0  0  0  0  0  0  0  0  0  0  0
    0.9795   -1.2392   -0.6394 H   0  0  0  0  0  0  0  0  0  0  0  0
    2.8446    1.2779    1.5697 H   0  0  0  0  0  0  0  0  0  0  0  0
  1  2  1  0
  2  3  1  0
  3  4  1  0
  4  5  2  0
  4  6  1  0
  6  7  2  0
  1  8  1  0
  1  9  1  0
  1 10  1  0
  2 11  1  0
  2 12  1  0
  3 13  1  0
  3 14  1  0
  6 15  1  0
M  END
