
     RDKit          3D

 25 25  0  0  0  0  0  0  0  0999 V2000
   -1.8121   -0.2882    1.2028 C   0  0  0  0  0  0  0  0  0  0  0  0
   -1.6223   -0.6505   -0.2471 C   0  0  0  0  0  0  0  0  0  0  0  0
   -0.7409    0.2251   -1.0309 C   0  0  0  0  0  0  0  0  0  0  0  0
    0.6863    0.3555   -0.6931 C   0  0  0  0  0  0  0  0  0  0  0  0
    1.5392   -0.8509   -0.7640 C   0  0  0  0  0  0  0  0  0  0  0  0
    1.2363   -2.0175    0.0727 C   0  0  0  0  0  0  0  0  0  0  0  0
    0.8884    1.1752    0.5668 C   0  0  0  0  0  0  0  0  0  0  0  0
    0.3515    2.5880    0.4539 C   0  0  0  0  0  0  0  0  0  0  0  0
    1.7285    2.2927    0.5317 O   0  0  0  0  0  0  0  0  0  0  0  0
   -1.1417   -0.8023    1.9088 H   0  0  0  0  0  0  0  0  0  0  0  0
   -2.8772   -0.5353    1.5240 H   0  0  0  0  0  0  0  0  0  0  0  0
   -1.7044    0.8195    1.3885 H   0  0  0  0  0  0  0  0  0  0  0  0
   -1.3797   -1.7283   -0.2786 H   0  0  0  0  0  0  0  0  0  0  0  0
   -2.6525   -0.6029   -0.7278 H   0  0  0  0  0  0  0  0  0  0  0  0
   -0.8025   -0.0351   -2.1357 H   0  0  0  0  0  0  0  0  0  0  0  0
   -1.1733    1.2792   -0.9975 H   0  0  0  0  0  0  0  0  0  0  0  0
    1.1129    1.0508   -1.5071 H   0  0  0  0  0  0  0  0  0  0  0  0
    2.6307   -0.5863   -0.5819 H   0  0  0  0  0  0  0  0  0  0  0  0
    1.5787   -1.1792   -1.8547 H   0  0  0  0  0  0  0  0  0  0  0  0
    0.7070   -2.8054   -0.5488 H   0  0  0  0  0  0  0  0  0  0  0  0
    2.2005   -2.5512    0.3742 H   0  0  0  0  0  0  0  0  0  0  0  0
    0.6629   -1.8900    0.9789 H   0  0  0  0  0  0  0  0  0  0  0  0
    0.6797    0.7106    1.5564 H   0  0  0  0  0  0  0  0  0  0  0  0
   -0.1278    3.0549    1.3266 H   0  0  0  0  0  0  0  0  0  0  0  0
    0.0319    2.9717   -0.5180 H   0  0  0  0  0  0  0  0  0  0  0  0
  1  2  1  0
  2  3  1  0
  3  4  1  0
  4  5  1  0
  5  6  1  0
  4  7  1  0
  7  8  1  0
  8  9  1  0
  9  7  1  0
  1 10  1  0
  1 11  1  0
  1 12  1  0
  2 13  1  0
  2 14  1  0
  3 15  1  0
  3 16  1  0
  4 17  1  0
  5 18  1  0
  5 19  1  0
  6 20  1  0
  6 21  1  0
  6 22  1  0
  7 23  1  0
  8 24  1  0
  8 25  1  0
M  END
