
     RDKit          3D

 22 22  0  0  0  0  0  0  0  0999 V2000
    3.3333    0.3918    0.0908 C   0  0  0  0  0  0  0  0  0  0  0  0
    1.8796    0.7782   -0.1057 C   0  0  0  0  0  0  0  0  0  0  0  0
    1.0572   -0.4645    0.0355 C   0  0  0  0  0  0  0  0  0  0  0  0
   -0.4010   -0.1985   -0.1406 C   0  0  0  0  0  0  0  0  0  0  0  0
   -1.0187    0.9497   -0.3941 C   0  0  0  0  0  0  0  0  0  0  0  0
   -2.4865    0.7583   -0.4920 C   0  0  0  0  0  0  0  0  0  0  0  0
   -2.6561   -0.7341   -0.7368 C   0  0  0  0  0  0  0  0  0  0  0  0
   -1.4227   -1.2846   -0.0441 C   0  0  0  0  0  0  0  0  0  0  0  0
    3.4667   -0.7054   -0.0536 H   0  0  0  0  0  0  0  0  0  0  0  0
    4.0147    0.9003   -0.6009 H   0  0  0  0  0  0  0  0  0  0  0  0
    3.6214    0.5865    1.1599 H   0  0  0  0  0  0  0  0  0  0  0  0
    1.5475    1.5365    0.6290 H   0  0  0  0  0  0  0  0  0  0  0  0
    1.7108    1.2225   -1.1090 H   0  0  0  0  0  0  0  0  0  0  0  0
    1.2185   -0.9132    1.0334 H   0  0  0  0  0  0  0  0  0  0  0  0
    1.3983   -1.1998   -0.7124 H   0  0  0  0  0  0  0  0  0  0  0  0
   -0.4728    1.8886   -0.5076 H   0  0  0  0  0  0  0  0  0  0  0  0
   -2.9542    1.3585   -1.2922 H   0  0  0  0  0  0  0  0  0  0  0  0
   -2.9479    0.9987    0.5007 H   0  0  0  0  0  0  0  0  0  0  0  0
   -3.5656   -1.1422   -0.2897 H   0  0  0  0  0  0  0  0  0  0  0  0
   -2.5831   -0.9509   -1.8279 H   0  0  0  0  0  0  0  0  0  0  0  0
   -1.1044   -2.2016   -0.5923 H   0  0  0  0  0  0  0  0  0  0  0  0
   -1.6351   -1.5748    0.9978 H   0  0  0  0  0  0  0  0  0  0  0  0
  1  2  1  0
  2  3  1  0
  3  4  1  0
  4  5  2  0
  5  6  1  0
  6  7  1  0
  7  8  1  0
  8  4  1  0
  1  9  1  0
  1 10  1  0
  1 11  1  0
  2 12  1  0
  2 13  1  0
  3 14  1  0
  3 15  1  0
  5 16  1  0
  6 17  1  0
  6 18  1  0
  7 19  1  0
  7 20  1  0
  8 21  1  0
  8 22  1  0
M  END
