
     RDKit          3D

 21 20  0  0  0  0  0  0  0  0999 V2000
    2.6768    0.9194    0.3397 C   0  0  0  0  0  0  0  0  0  0  0  0
    1.6991   -0.1668    0.7341 C   0  0  0  0  0  0  0  0  0  0  0  0
    0.3405    0.3107    0.2148 C   0  0  0  0  0  0  0  0  0  0  0  0
   -0.7488   -0.6461    0.5228 C   0  0  0  0  0  0  0  0  0  0  0  0
   -0.5647   -1.9821   -0.0490 C   0  0  0  0  0  0  0  0  0  0  0  0
   -1.1041   -2.9353    0.4675 O   0  0  0  0  0  0  0  0  0  0  0  0
   -2.0752   -0.1251    0.0363 C   0  0  0  0  0  0  0  0  0  0  0  0
   -2.4569    1.1462    0.6765 C   0  0  0  0  0  0  0  0  0  0  0  0
   -1.7631    1.6066    1.5515 O   0  0  0  0  0  0  0  0  0  0  0  0
    2.3446    1.3430   -0.6126 H   0  0  0  0  0  0  0  0  0  0  0  0
    2.6119    1.7125    1.1279 H   0  0  0  0  0  0  0  0  0  0  0  0
    3.7106    0.5233    0.3135 H   0  0  0  0  0  0  0  0  0  0  0  0
    1.6460   -0.2383    1.8406 H   0  0  0  0  0  0  0  0  0  0  0  0
    1.9586   -1.1368    0.2720 H   0  0  0  0  0  0  0  0  0  0  0  0
    0.2213    1.3426    0.5625 H   0  0  0  0  0  0  0  0  0  0  0  0
    0.4960    0.3977   -0.9044 H   0  0  0  0  0  0  0  0  0  0  0  0
   -0.8106   -0.7253    1.6564 H   0  0  0  0  0  0  0  0  0  0  0  0
    0.0391   -2.1385   -0.9188 H   0  0  0  0  0  0  0  0  0  0  0  0
   -2.8686   -0.8989    0.1342 H   0  0  0  0  0  0  0  0  0  0  0  0
   -2.0002    0.0285   -1.0828 H   0  0  0  0  0  0  0  0  0  0  0  0
   -3.3524    1.6629    0.3644 H   0  0  0  0  0  0  0  0  0  0  0  0
  1  2  1  0
  2  3  1  0
  3  4  1  0
  4  5  1  0
  5  6  2  0
  4  7  1  0
  7  8  1  0
  8  9  2  0
  1 10  1  0
  1 11  1  0
  1 12  1  0
  2 13  1  0
  2 14  1  0
  3 15  1  0
  3 16  1  0
  4 17  1  0
  5 18  1  0
  7 19  1  0
  7 20  1  0
  8 21  1  0
M  END
