
     RDKit          3D

 25 25  0  0  0  0  0  0  0  0999 V2000
    2.6419   -0.1739   -0.9245 C   0  0  0  0  0  0  0  0  0  0  0  0
    1.7590   -1.0185   -0.0564 C   0  0  0  0  0  0  0  0  0  0  0  0
    1.2810   -0.2700    1.1712 C   0  0  0  0  0  0  0  0  0  0  0  0
    0.4876    0.9574    0.8125 C   0  0  0  0  0  0  0  0  0  0  0  0
   -0.7318    0.6478    0.0101 C   0  0  0  0  0  0  0  0  0  0  0  0
   -1.7729   -0.2555    0.6140 C   0  0  0  0  0  0  0  0  0  0  0  0
   -2.9274   -0.4465   -0.3509 C   0  0  0  0  0  0  0  0  0  0  0  0
   -0.7888    0.8501   -1.4207 C   0  0  0  0  0  0  0  0  0  0  0  0
   -1.2864    1.9177   -0.5210 O   0  0  0  0  0  0  0  0  0  0  0  0
    2.7742   -0.7412   -1.8890 H   0  0  0  0  0  0  0  0  0  0  0  0
    2.1994    0.8028   -1.1638 H   0  0  0  0  0  0  0  0  0  0  0  0
    3.6776   -0.0991   -0.5087 H   0  0  0  0  0  0  0  0  0  0  0  0
    2.3705   -1.8765    0.3341 H   0  0  0  0  0  0  0  0  0  0  0  0
    0.9302   -1.4902   -0.6200 H   0  0  0  0  0  0  0  0  0  0  0  0
    0.6985   -0.9586    1.8106 H   0  0  0  0  0  0  0  0  0  0  0  0
    2.1819    0.0052    1.7437 H   0  0  0  0  0  0  0  0  0  0  0  0
    0.1323    1.3938    1.7891 H   0  0  0  0  0  0  0  0  0  0  0  0
    1.1307    1.6902    0.3273 H   0  0  0  0  0  0  0  0  0  0  0  0
   -1.2945   -1.2526    0.7202 H   0  0  0  0  0  0  0  0  0  0  0  0
   -2.1075    0.0457    1.6112 H   0  0  0  0  0  0  0  0  0  0  0  0
   -3.7890   -0.8810    0.1956 H   0  0  0  0  0  0  0  0  0  0  0  0
   -2.6604   -1.1117   -1.1855 H   0  0  0  0  0  0  0  0  0  0  0  0
   -3.2810    0.5145   -0.7775 H   0  0  0  0  0  0  0  0  0  0  0  0
    0.0150    1.2883   -2.0369 H   0  0  0  0  0  0  0  0  0  0  0  0
   -1.6400    0.4618   -1.9873 H   0  0  0  0  0  0  0  0  0  0  0  0
  1  2  1  0
  2  3  1  0
  3  4  1  0
  4  5  1  0
  5  6  1  0
  6  7  1  0
  5  8  1  0
  8  9  1  0
  9  5  1  0
  1 10  1  0
  1 11  1  0
  1 12  1  0
  2 13  1  0
  2 14  1  0
  3 15  1  0
  3 16  1  0
  4 17  1  0
  4 18  1  0
  6 19  1  0
  6 20  1  0
  7 21  1  0
  7 22  1  0
  7 23  1  0
  8 24  1  0
  8 25  1  0
M  END
