
     RDKit          3D

 23 24  0  0  0  0  0  0  0  0999 V2000
    3.1431    1.0954   -0.1743 C   0  0  0  0  0  0  0  0  0  0  0  0
    1.7083    0.9164    0.2779 C   0  0  0  0  0  0  0  0  0  0  0  0
    1.2506   -0.4933   -0.1159 C   0  0  0  0  0  0  0  0  0  0  0  0
   -0.1672   -0.6308    0.3468 C   0  0  0  0  0  0  0  0  0  0  0  0
   -0.6675   -1.8818    0.0317 O   0  0  0  0  0  0  0  0  0  0  0  0
   -2.0333   -1.7665    0.3276 C   0  0  0  0  0  0  0  0  0  0  0  0
   -2.4730   -0.4307   -0.2034 C   0  0  0  0  0  0  0  0  0  0  0  0
   -2.2312    0.8158    0.5347 C   0  0  0  0  0  0  0  0  0  0  0  0
   -1.1127    0.3193   -0.3248 C   0  0  0  0  0  0  0  0  0  0  0  0
    3.5930    0.0928   -0.2984 H   0  0  0  0  0  0  0  0  0  0  0  0
    3.1598    1.6455   -1.1207 H   0  0  0  0  0  0  0  0  0  0  0  0
    3.7285    1.6414    0.5765 H   0  0  0  0  0  0  0  0  0  0  0  0
    1.0308    1.6844   -0.1571 H   0  0  0  0  0  0  0  0  0  0  0  0
    1.6788    0.9285    1.3953 H   0  0  0  0  0  0  0  0  0  0  0  0
    1.4007   -0.6621   -1.1782 H   0  0  0  0  0  0  0  0  0  0  0  0
    1.8693   -1.1804    0.5030 H   0  0  0  0  0  0  0  0  0  0  0  0
   -0.1894   -0.5264    1.4529 H   0  0  0  0  0  0  0  0  0  0  0  0
   -2.5654   -2.5726   -0.2171 H   0  0  0  0  0  0  0  0  0  0  0  0
   -2.2252   -1.8404    1.4207 H   0  0  0  0  0  0  0  0  0  0  0  0
   -3.1272   -0.4265   -1.0744 H   0  0  0  0  0  0  0  0  0  0  0  0
   -2.8313    1.6983    0.1924 H   0  0  0  0  0  0  0  0  0  0  0  0
   -2.0128    0.8579    1.6146 H   0  0  0  0  0  0  0  0  0  0  0  0
   -0.9269    0.7159   -1.3206 H   0  0  0  0  0  0  0  0  0  0  0  0
  1  2  1  0
  2  3  1  0
  3  4  1  0
  4  5  1  0
  5  6  1  0
  6  7  1  0
  7  8  1  0
  8  9  1  0
  9  4  1  0
  9  7  1  0
  1 10  1  0
  1 11  1  0
  1 12  1  0
  2 13  1  0
  2 14  1  0
  3 15  1  0
  3 16  1  0
  4 17  1  0
  6 18  1  0
  6 19  1  0
  7 20  1  0
  8 21  1  0
  8 22  1  0
  9 23  1  0
M  END
