
     RDKit          3D

 22 21  0  0  0  0  0  0  0  0999 V2000
   -2.7214    0.8482   -0.0823 C   0  0  0  0  0  0  0  0  0  0  0  0
   -2.2191   -0.5259    0.2817 C   0  0  0  0  0  0  0  0  0  0  0  0
   -0.7020   -0.5837    0.3519 C   0  0  0  0  0  0  0  0  0  0  0  0
   -0.0755   -0.2318   -0.9303 C   0  0  0  0  0  0  0  0  0  0  0  0
   -0.8448    0.0948   -1.8526 O   0  0  0  0  0  0  0  0  0  0  0  0
    1.3417   -0.2138   -1.2779 C   0  0  0  0  0  0  0  0  0  0  0  0
    2.3215   -0.4703   -0.1963 C   0  0  0  0  0  0  0  0  0  0  0  0
    2.2509    0.5620    0.9042 C   0  0  0  0  0  0  0  0  0  0  0  0
   -2.0282    1.6573    0.2185 H   0  0  0  0  0  0  0  0  0  0  0  0
   -2.9165    0.9573   -1.1733 H   0  0  0  0  0  0  0  0  0  0  0  0
   -3.6956    1.0479    0.4250 H   0  0  0  0  0  0  0  0  0  0  0  0
   -2.5859   -0.7605    1.3029 H   0  0  0  0  0  0  0  0  0  0  0  0
   -2.6098   -1.2648   -0.4511 H   0  0  0  0  0  0  0  0  0  0  0  0
   -0.4609   -1.6705    0.5424 H   0  0  0  0  0  0  0  0  0  0  0  0
   -0.3805    0.0322    1.1978 H   0  0  0  0  0  0  0  0  0  0  0  0
    1.5218   -0.9560   -2.0883 H   0  0  0  0  0  0  0  0  0  0  0  0
    1.5594    0.8253   -1.6666 H   0  0  0  0  0  0  0  0  0  0  0  0
    3.3418   -0.3585   -0.6673 H   0  0  0  0  0  0  0  0  0  0  0  0
    2.2639   -1.5097    0.2099 H   0  0  0  0  0  0  0  0  0  0  0  0
    1.8813    0.1372    1.8575 H   0  0  0  0  0  0  0  0  0  0  0  0
    1.5022    1.3286    0.5883 H   0  0  0  0  0  0  0  0  0  0  0  0
    3.2555    1.0546    1.0580 H   0  0  0  0  0  0  0  0  0  0  0  0
  1  2  1  0
  2  3  1  0
  3  4  1  0
  4  5  2  0
  4  6  1  0
  6  7  1  0
  7  8  1  0
  1  9  1  0
  1 10  1  0
  1 11  1  0
  2 12  1  0
  2 13  1  0
  3 14  1  0
  3 15  1  0
  6 16  1  0
  6 17  1  0
  7 18  1  0
  7 19  1  0
  8 20  1  0
  8 21  1  0
  8 22  1  0
M  END
