
     RDKit          3D

 26 25  0  0  0  0  0  0  0  0999 V2000
    3.4671   -0.8686    0.7993 C   0  0  0  0  0  0  0  0  0  0  0  0
    2.5337   -0.6966   -0.3614 C   0  0  0  0  0  0  0  0  0  0  0  0
    1.2016   -0.0642    0.0722 C   0  0  0  0  0  0  0  0  0  0  0  0
    0.3508    0.0611   -1.1569 C   0  0  0  0  0  0  0  0  0  0  0  0
   -0.9784    0.6745   -0.9592 C   0  0  0  0  0  0  0  0  0  0  0  0
   -1.9400    0.0256   -0.0403 C   0  0  0  0  0  0  0  0  0  0  0  0
   -3.2094    0.9111   -0.0890 C   0  0  0  0  0  0  0  0  0  0  0  0
   -1.5617   -0.0650    1.3942 C   0  0  0  0  0  0  0  0  0  0  0  0
    4.1124    0.0115    0.9442 H   0  0  0  0  0  0  0  0  0  0  0  0
    4.1365   -1.7338    0.5862 H   0  0  0  0  0  0  0  0  0  0  0  0
    2.8923   -1.1475    1.7166 H   0  0  0  0  0  0  0  0  0  0  0  0
    2.2631   -1.7038   -0.7629 H   0  0  0  0  0  0  0  0  0  0  0  0
    2.9694   -0.0341   -1.1092 H   0  0  0  0  0  0  0  0  0  0  0  0
    0.8100   -0.7727    0.8306 H   0  0  0  0  0  0  0  0  0  0  0  0
    1.3579    0.9330    0.4941 H   0  0  0  0  0  0  0  0  0  0  0  0
    0.3368   -0.8758   -1.7597 H   0  0  0  0  0  0  0  0  0  0  0  0
    0.9275    0.7766   -1.8241 H   0  0  0  0  0  0  0  0  0  0  0  0
   -1.5234    0.8006   -1.9454 H   0  0  0  0  0  0  0  0  0  0  0  0
   -0.7961    1.7516   -0.6545 H   0  0  0  0  0  0  0  0  0  0  0  0
   -2.2655   -0.9856   -0.3681 H   0  0  0  0  0  0  0  0  0  0  0  0
   -3.3130    1.2910   -1.1180 H   0  0  0  0  0  0  0  0  0  0  0  0
   -4.0366    0.2730    0.2369 H   0  0  0  0  0  0  0  0  0  0  0  0
   -3.0769    1.7287    0.6537 H   0  0  0  0  0  0  0  0  0  0  0  0
   -0.8265    0.6637    1.7513 H   0  0  0  0  0  0  0  0  0  0  0  0
   -2.4899    0.1683    2.0051 H   0  0  0  0  0  0  0  0  0  0  0  0
   -1.3413   -1.1229    1.6975 H   0  0  0  0  0  0  0  0  0  0  0  0
  1  2  1  0
  2  3  1  0
  3  4  1  0
  4  5  1  0
  5  6  1  0
  6  7  1  0
  6  8  1  0
  1  9  1  0
  1 10  1  0
  1 11  1  0
  2 12  1  0
  2 13  1  0
  3 14  1  0
  3 15  1  0
  4 16  1  0
  4 17  1  0
  5 18  1  0
  5 19  1  0
  6 20  1  0
  7 21  1  0
  7 22  1  0
  7 23  1  0
  8 24  1  0
  8 25  1  0
  8 26  1  0
M  END
