
     RDKit          3D

 23 24  0  0  0  0  0  0  0  0999 V2000
    3.0044    0.2570   -0.0255 C   0  0  0  0  0  0  0  0  0  0  0  0
    1.6161   -0.3784    0.1292 C   0  0  0  0  0  0  0  0  0  0  0  0
    0.5805    0.4392   -0.6035 C   0  0  0  0  0  0  0  0  0  0  0  0
   -0.7601   -0.1686   -0.4576 C   0  0  0  0  0  0  0  0  0  0  0  0
   -0.9261   -1.5754   -0.9822 C   0  0  0  0  0  0  0  0  0  0  0  0
   -1.4923   -0.0185    0.8278 C   0  0  0  0  0  0  0  0  0  0  0  0
   -1.7732    1.3945    0.5089 C   0  0  0  0  0  0  0  0  0  0  0  0
   -1.9738    0.6266   -0.7349 C   0  0  0  0  0  0  0  0  0  0  0  0
   -2.6362   -0.3106    0.0841 O   0  0  0  0  0  0  0  0  0  0  0  0
    3.7235   -0.5537    0.2354 H   0  0  0  0  0  0  0  0  0  0  0  0
    3.1577    1.0502    0.7618 H   0  0  0  0  0  0  0  0  0  0  0  0
    3.1561    0.6427   -1.0446 H   0  0  0  0  0  0  0  0  0  0  0  0
    1.6989   -1.3792   -0.3193 H   0  0  0  0  0  0  0  0  0  0  0  0
    1.4434   -0.3985    1.2265 H   0  0  0  0  0  0  0  0  0  0  0  0
    0.6758    1.4810   -0.2577 H   0  0  0  0  0  0  0  0  0  0  0  0
    0.8594    0.3693   -1.6899 H   0  0  0  0  0  0  0  0  0  0  0  0
   -1.0283   -1.5560   -2.0827 H   0  0  0  0  0  0  0  0  0  0  0  0
   -0.0994   -2.2444   -0.7361 H   0  0  0  0  0  0  0  0  0  0  0  0
   -1.8517   -2.0366   -0.5881 H   0  0  0  0  0  0  0  0  0  0  0  0
   -1.2593   -0.4314    1.7188 H   0  0  0  0  0  0  0  0  0  0  0  0
   -2.7788    1.6966    0.9246 H   0  0  0  0  0  0  0  0  0  0  0  0
   -1.0036    2.1539    0.5852 H   0  0  0  0  0  0  0  0  0  0  0  0
   -2.3330    0.9403   -1.6240 H   0  0  0  0  0  0  0  0  0  0  0  0
  1  2  1  0
  2  3  1  0
  3  4  1  0
  4  5  1  0
  4  6  1  0
  6  7  1  0
  7  8  1  0
  8  9  1  0
  8  4  1  0
  9  6  1  0
  1 10  1  0
  1 11  1  0
  1 12  1  0
  2 13  1  0
  2 14  1  0
  3 15  1  0
  3 16  1  0
  5 17  1  0
  5 18  1  0
  5 19  1  0
  6 20  1  0
  7 21  1  0
  7 22  1  0
  8 23  1  0
M  END
