
     RDKit          3D

 23 24  0  0  0  0  0  0  0  0999 V2000
    3.2923    0.4414   -0.2911 C   0  0  0  0  0  0  0  0  0  0  0  0
    1.9764   -0.2575   -0.5516 C   0  0  0  0  0  0  0  0  0  0  0  0
    0.8082    0.5638   -0.0751 C   0  0  0  0  0  0  0  0  0  0  0  0
   -0.4567   -0.1919   -0.3668 C   0  0  0  0  0  0  0  0  0  0  0  0
   -0.6016   -1.5323    0.2699 C   0  0  0  0  0  0  0  0  0  0  0  0
   -2.0564   -1.1433    0.5344 C   0  0  0  0  0  0  0  0  0  0  0  0
   -2.1970   -0.1530    1.4523 O   0  0  0  0  0  0  0  0  0  0  0  0
   -1.7028    0.3086    0.2519 C   0  0  0  0  0  0  0  0  0  0  0  0
   -2.6526    1.1575   -0.5364 C   0  0  0  0  0  0  0  0  0  0  0  0
    3.3698    0.5870    0.8176 H   0  0  0  0  0  0  0  0  0  0  0  0
    4.1189   -0.2137   -0.5906 H   0  0  0  0  0  0  0  0  0  0  0  0
    3.2904    1.4318   -0.7648 H   0  0  0  0  0  0  0  0  0  0  0  0
    2.0196   -1.2438   -0.0614 H   0  0  0  0  0  0  0  0  0  0  0  0
    1.8360   -0.4332   -1.6425 H   0  0  0  0  0  0  0  0  0  0  0  0
    0.8693    0.8401    0.9843 H   0  0  0  0  0  0  0  0  0  0  0  0
    0.8138    1.5052   -0.6628 H   0  0  0  0  0  0  0  0  0  0  0  0
   -0.5803   -0.2887   -1.4778 H   0  0  0  0  0  0  0  0  0  0  0  0
   -0.4635   -2.4146   -0.3582 H   0  0  0  0  0  0  0  0  0  0  0  0
   -0.0962   -1.6551    1.2667 H   0  0  0  0  0  0  0  0  0  0  0  0
   -2.8471   -1.5274   -0.0933 H   0  0  0  0  0  0  0  0  0  0  0  0
   -3.3968    0.5324   -1.0371 H   0  0  0  0  0  0  0  0  0  0  0  0
   -3.2001    1.8032    0.2104 H   0  0  0  0  0  0  0  0  0  0  0  0
   -2.1437    1.8835   -1.2099 H   0  0  0  0  0  0  0  0  0  0  0  0
  1  2  1  0
  2  3  1  0
  3  4  1  0
  4  5  1  0
  5  6  1  0
  6  7  1  0
  7  8  1  0
  8  9  1  0
  8  4  1  0
  8  6  1  0
  1 10  1  0
  1 11  1  0
  1 12  1  0
  2 13  1  0
  2 14  1  0
  3 15  1  0
  3 16  1  0
  4 17  1  0
  5 18  1  0
  5 19  1  0
  6 20  1  0
  9 21  1  0
  9 22  1  0
  9 23  1  0
M  END
