
     RDKit          3D

 27 26  0  0  0  0  0  0  0  0999 V2000
    3.3991   -0.2088    0.7021 C   0  0  0  0  0  0  0  0  0  0  0  0
    2.4788   -1.2158    0.0439 C   0  0  0  0  0  0  0  0  0  0  0  0
    1.3725   -0.4558   -0.6994 C   0  0  0  0  0  0  0  0  0  0  0  0
    0.5791    0.3960    0.2661 C   0  0  0  0  0  0  0  0  0  0  0  0
   -0.4968    1.1350   -0.4647 C   0  0  0  0  0  0  0  0  0  0  0  0
   -1.4806    0.2254   -1.1667 C   0  0  0  0  0  0  0  0  0  0  0  0
   -2.4257    1.0475   -1.8041 O   0  0  0  0  0  0  0  0  0  0  0  0
   -2.2083   -0.6379   -0.1797 C   0  0  0  0  0  0  0  0  0  0  0  0
   -2.9910    0.1768    0.8307 C   0  0  0  0  0  0  0  0  0  0  0  0
    3.2865    0.7476    0.1870 H   0  0  0  0  0  0  0  0  0  0  0  0
    3.0555   -0.0979    1.7453 H   0  0  0  0  0  0  0  0  0  0  0  0
    4.4440   -0.5727    0.6775 H   0  0  0  0  0  0  0  0  0  0  0  0
    3.0690   -1.8086   -0.6836 H   0  0  0  0  0  0  0  0  0  0  0  0
    2.0493   -1.9197    0.7657 H   0  0  0  0  0  0  0  0  0  0  0  0
    0.7600   -1.1444   -1.2904 H   0  0  0  0  0  0  0  0  0  0  0  0
    1.8773    0.2471   -1.4008 H   0  0  0  0  0  0  0  0  0  0  0  0
    0.1768   -0.1934    1.1128 H   0  0  0  0  0  0  0  0  0  0  0  0
    1.2887    1.1611    0.6577 H   0  0  0  0  0  0  0  0  0  0  0  0
   -1.0134    1.7928    0.2592 H   0  0  0  0  0  0  0  0  0  0  0  0
    0.0003    1.7883   -1.2167 H   0  0  0  0  0  0  0  0  0  0  0  0
   -1.0205   -0.3943   -1.9299 H   0  0  0  0  0  0  0  0  0  0  0  0
   -2.1281    1.2726   -2.7263 H   0  0  0  0  0  0  0  0  0  0  0  0
   -1.5300   -1.3039    0.3770 H   0  0  0  0  0  0  0  0  0  0  0  0
   -2.9540   -1.2566   -0.7281 H   0  0  0  0  0  0  0  0  0  0  0  0
   -4.0445   -0.1722    0.9289 H   0  0  0  0  0  0  0  0  0  0  0  0
   -2.5079    0.1416    1.8070 H   0  0  0  0  0  0  0  0  0  0  0  0
   -3.0358    1.2504    0.5174 H   0  0  0  0  0  0  0  0  0  0  0  0
  1  2  1  0
  2  3  1  0
  3  4  1  0
  4  5  1  0
  5  6  1  0
  6  7  1  0
  6  8  1  0
  8  9  1  0
  1 10  1  0
  1 11  1  0
  1 12  1  0
  2 13  1  0
  2 14  1  0
  3 15  1  0
  3 16  1  0
  4 17  1  0
  4 18  1  0
  5 19  1  0
  5 20  1  0
  6 21  1  0
  7 22  1  0
  8 23  1  0
  8 24  1  0
  9 25  1  0
  9 26  1  0
  9 27  1  0
M  END
