
     RDKit          3D

 27 26  0  0  0  0  0  0  0  0999 V2000
    3.4056    0.0660    0.0106 C   0  0  0  0  0  0  0  0  0  0  0  0
    2.0015   -0.3489   -0.4160 C   0  0  0  0  0  0  0  0  0  0  0  0
    0.9621    0.5585    0.1728 C   0  0  0  0  0  0  0  0  0  0  0  0
   -0.4004    0.1370   -0.2830 C   0  0  0  0  0  0  0  0  0  0  0  0
   -1.4850    1.0381    0.2857 C   0  0  0  0  0  0  0  0  0  0  0  0
   -1.2708    2.4798   -0.1402 C   0  0  0  0  0  0  0  0  0  0  0  0
   -0.6860   -1.2567    0.1937 C   0  0  0  0  0  0  0  0  0  0  0  0
   -2.0468   -1.6900   -0.2481 C   0  0  0  0  0  0  0  0  0  0  0  0
   -2.2303   -3.0199    0.2212 O   0  0  0  0  0  0  0  0  0  0  0  0
    3.7691    0.9121   -0.6158 H   0  0  0  0  0  0  0  0  0  0  0  0
    4.0629   -0.7895   -0.2046 H   0  0  0  0  0  0  0  0  0  0  0  0
    3.4659    0.2896    1.0806 H   0  0  0  0  0  0  0  0  0  0  0  0
    1.8988   -1.3908   -0.0048 H   0  0  0  0  0  0  0  0  0  0  0  0
    1.9837   -0.3295   -1.5101 H   0  0  0  0  0  0  0  0  0  0  0  0
    1.0049    0.4392    1.2966 H   0  0  0  0  0  0  0  0  0  0  0  0
    1.1835    1.6210   -0.0438 H   0  0  0  0  0  0  0  0  0  0  0  0
   -0.4643    0.2379   -1.3868 H   0  0  0  0  0  0  0  0  0  0  0  0
   -2.4334    0.7320   -0.2007 H   0  0  0  0  0  0  0  0  0  0  0  0
   -1.5548    0.9151    1.3599 H   0  0  0  0  0  0  0  0  0  0  0  0
   -2.1570    3.0432    0.2623 H   0  0  0  0  0  0  0  0  0  0  0  0
   -0.3538    2.9195    0.2909 H   0  0  0  0  0  0  0  0  0  0  0  0
   -1.3205    2.5379   -1.2419 H   0  0  0  0  0  0  0  0  0  0  0  0
    0.0411   -2.0212   -0.1392 H   0  0  0  0  0  0  0  0  0  0  0  0
   -0.6876   -1.2116    1.3168 H   0  0  0  0  0  0  0  0  0  0  0  0
   -2.8837   -1.1335    0.2304 H   0  0  0  0  0  0  0  0  0  0  0  0
   -2.0856   -1.6377   -1.3518 H   0  0  0  0  0  0  0  0  0  0  0  0
   -1.7190   -3.0976    1.0653 H   0  0  0  0  0  0  0  0  0  0  0  0
  1  2  1  0
  2  3  1  0
  3  4  1  0
  4  5  1  0
  5  6  1  0
  4  7  1  0
  7  8  1  0
  8  9  1  0
  1 10  1  0
  1 11  1  0
  1 12  1  0
  2 13  1  0
  2 14  1  0
  3 15  1  0
  3 16  1  0
  4 17  1  0
  5 18  1  0
  5 19  1  0
  6 20  1  0
  6 21  1  0
  6 22  1  0
  7 23  1  0
  7 24  1  0
  8 25  1  0
  8 26  1  0
  9 27  1  0
M  END
