
     RDKit          3D

 25 25  0  0  0  0  0  0  0  0999 V2000
   -3.2970   -0.3984   -0.4152 C   0  0  0  0  0  0  0  0  0  0  0  0
   -2.3739   -0.1889    0.7850 C   0  0  0  0  0  0  0  0  0  0  0  0
   -1.0928   -0.9502    0.5101 C   0  0  0  0  0  0  0  0  0  0  0  0
   -0.4911   -0.3844   -0.7530 C   0  0  0  0  0  0  0  0  0  0  0  0
   -0.1191    1.0570   -0.7994 C   0  0  0  0  0  0  0  0  0  0  0  0
    0.9397   -0.0377   -0.8325 C   0  0  0  0  0  0  0  0  0  0  0  0
    1.8440   -0.0516    0.3554 C   0  0  0  0  0  0  0  0  0  0  0  0
    3.2248    0.3576   -0.1107 C   0  0  0  0  0  0  0  0  0  0  0  0
    4.1470    0.3765    0.9254 O   0  0  0  0  0  0  0  0  0  0  0  0
   -3.3586   -1.4585   -0.7108 H   0  0  0  0  0  0  0  0  0  0  0  0
   -4.2786    0.0139   -0.1198 H   0  0  0  0  0  0  0  0  0  0  0  0
   -2.9007    0.1799   -1.2703 H   0  0  0  0  0  0  0  0  0  0  0  0
   -2.8175   -0.5581    1.7133 H   0  0  0  0  0  0  0  0  0  0  0  0
   -2.2069    0.8980    0.8512 H   0  0  0  0  0  0  0  0  0  0  0  0
   -0.3964   -0.8684    1.3677 H   0  0  0  0  0  0  0  0  0  0  0  0
   -1.3537   -2.0094    0.3060 H   0  0  0  0  0  0  0  0  0  0  0  0
   -0.9553   -0.7778   -1.6806 H   0  0  0  0  0  0  0  0  0  0  0  0
   -0.2855    1.6145    0.1268 H   0  0  0  0  0  0  0  0  0  0  0  0
   -0.2954    1.6279   -1.7477 H   0  0  0  0  0  0  0  0  0  0  0  0
    1.4466   -0.1649   -1.8150 H   0  0  0  0  0  0  0  0  0  0  0  0
    1.9392   -1.0790    0.8078 H   0  0  0  0  0  0  0  0  0  0  0  0
    1.4814    0.5942    1.1818 H   0  0  0  0  0  0  0  0  0  0  0  0
    3.5519   -0.4117   -0.8445 H   0  0  0  0  0  0  0  0  0  0  0  0
    3.1331    1.3130   -0.6336 H   0  0  0  0  0  0  0  0  0  0  0  0
    4.5151    1.3065    0.9588 H   0  0  0  0  0  0  0  0  0  0  0  0
  1  2  1  0
  2  3  1  0
  3  4  1  0
  4  5  1  0
  5  6  1  0
  6  7  1  0
  7  8  1  0
  8  9  1  0
  6  4  1  0
  1 10  1  0
  1 11  1  0
  1 12  1  0
  2 13  1  0
  2 14  1  0
  3 15  1  0
  3 16  1  0
  4 17  1  0
  5 18  1  0
  5 19  1  0
  6 20  1  0
  7 21  1  0
  7 22  1  0
  8 23  1  0
  8 24  1  0
  9 25  1  0
M  END
