
     RDKit          3D

 19 19  0  0  0  0  0  0  0  0999 V2000
   -1.9857   -0.2736   -0.7030 C   0  0  0  0  0  0  0  0  0  0  0  0
   -1.7052    0.8281    0.2676 C   0  0  0  0  0  0  0  0  0  0  0  0
   -0.2372    0.9994    0.5690 C   0  0  0  0  0  0  0  0  0  0  0  0
    0.3928   -0.2145    1.1603 C   0  0  0  0  0  0  0  0  0  0  0  0
    0.4044   -1.4167    0.4699 O   0  0  0  0  0  0  0  0  0  0  0  0
    1.6800   -0.7007    0.6997 C   0  0  0  0  0  0  0  0  0  0  0  0
    2.2772   -0.3600   -0.6247 C   0  0  0  0  0  0  0  0  0  0  0  0
   -1.1033   -0.6758   -1.2082 H   0  0  0  0  0  0  0  0  0  0  0  0
   -2.4929   -1.1350   -0.2041 H   0  0  0  0  0  0  0  0  0  0  0  0
   -2.6904    0.0546   -1.5057 H   0  0  0  0  0  0  0  0  0  0  0  0
   -2.2741    0.6229    1.1980 H   0  0  0  0  0  0  0  0  0  0  0  0
   -2.1252    1.7678   -0.1457 H   0  0  0  0  0  0  0  0  0  0  0  0
   -0.1734    1.8132    1.3423 H   0  0  0  0  0  0  0  0  0  0  0  0
    0.2913    1.3987   -0.3164 H   0  0  0  0  0  0  0  0  0  0  0  0
    0.1756   -0.3491    2.2502 H   0  0  0  0  0  0  0  0  0  0  0  0
    2.2881   -1.3330    1.3738 H   0  0  0  0  0  0  0  0  0  0  0  0
    1.5246    0.1031   -1.2980 H   0  0  0  0  0  0  0  0  0  0  0  0
    3.2053    0.2088   -0.5524 H   0  0  0  0  0  0  0  0  0  0  0  0
    2.5483   -1.3381   -1.1188 H   0  0  0  0  0  0  0  0  0  0  0  0
  1  2  1  0
  2  3  1  0
  3  4  1  0
  4  5  1  0
  5  6  1  0
  6  7  1  0
  6  4  1  0
  1  8  1  0
  1  9  1  0
  1 10  1  0
  2 11  1  0
  2 12  1  0
  3 13  1  0
  3 14  1  0
  4 15  1  0
  6 16  1  0
  7 17  1  0
  7 18  1  0
  7 19  1  0
M  END
