
     RDKit          3D

 25 25  0  0  0  0  0  0  0  0999 V2000
    3.3586    0.6487    0.2168 C   0  0  0  0  0  0  0  0  0  0  0  0
    2.1785   -0.2306    0.0517 C   0  0  0  0  0  0  0  0  0  0  0  0
    0.8624    0.4578    0.4328 C   0  0  0  0  0  0  0  0  0  0  0  0
   -0.1994   -0.5813    0.2003 C   0  0  0  0  0  0  0  0  0  0  0  0
   -0.1378   -0.9261   -1.1611 O   0  0  0  0  0  0  0  0  0  0  0  0
   -1.4126   -1.3924   -1.4866 C   0  0  0  0  0  0  0  0  0  0  0  0
   -2.2906   -0.3222   -0.8424 C   0  0  0  0  0  0  0  0  0  0  0  0
   -1.5772   -0.1523    0.5034 C   0  0  0  0  0  0  0  0  0  0  0  0
   -1.7358    1.2045    1.0747 C   0  0  0  0  0  0  0  0  0  0  0  0
    4.1684    0.2613   -0.4695 H   0  0  0  0  0  0  0  0  0  0  0  0
    3.1934    1.6991   -0.0781 H   0  0  0  0  0  0  0  0  0  0  0  0
    3.7801    0.5877    1.2283 H   0  0  0  0  0  0  0  0  0  0  0  0
    2.2504   -1.1045    0.7575 H   0  0  0  0  0  0  0  0  0  0  0  0
    2.0235   -0.6208   -0.9753 H   0  0  0  0  0  0  0  0  0  0  0  0
    0.9797    0.7184    1.5087 H   0  0  0  0  0  0  0  0  0  0  0  0
    0.7047    1.3853   -0.1340 H   0  0  0  0  0  0  0  0  0  0  0  0
    0.1242   -1.4989    0.7507 H   0  0  0  0  0  0  0  0  0  0  0  0
   -1.6341   -2.3634   -0.9748 H   0  0  0  0  0  0  0  0  0  0  0  0
   -1.5375   -1.4251   -2.5681 H   0  0  0  0  0  0  0  0  0  0  0  0
   -3.3222   -0.6780   -0.6929 H   0  0  0  0  0  0  0  0  0  0  0  0
   -2.2024    0.5853   -1.4482 H   0  0  0  0  0  0  0  0  0  0  0  0
   -2.0357   -0.9196    1.1939 H   0  0  0  0  0  0  0  0  0  0  0  0
   -2.0908    1.8979    0.2813 H   0  0  0  0  0  0  0  0  0  0  0  0
   -2.5790    1.1758    1.8246 H   0  0  0  0  0  0  0  0  0  0  0  0
   -0.8692    1.5930    1.6173 H   0  0  0  0  0  0  0  0  0  0  0  0
  1  2  1  0
  2  3  1  0
  3  4  1  0
  4  5  1  0
  5  6  1  0
  6  7  1  0
  7  8  1  0
  8  9  1  0
  8  4  1  0
  1 10  1  0
  1 11  1  0
  1 12  1  0
  2 13  1  0
  2 14  1  0
  3 15  1  0
  3 16  1  0
  4 17  1  0
  6 18  1  0
  6 19  1  0
  7 20  1  0
  7 21  1  0
  8 22  1  0
  9 23  1  0
  9 24  1  0
  9 25  1  0
M  END
