
     RDKit          3D

 25 25  0  0  0  0  0  0  0  0999 V2000
   -2.3073    0.7651    0.8345 C   0  0  0  0  0  0  0  0  0  0  0  0
   -2.2735   -0.5269    0.0776 C   0  0  0  0  0  0  0  0  0  0  0  0
   -1.3464   -0.5700   -1.0773 C   0  0  0  0  0  0  0  0  0  0  0  0
    0.0839   -0.3752   -0.8423 C   0  0  0  0  0  0  0  0  0  0  0  0
    0.7667   -1.3544    0.0734 C   0  0  0  0  0  0  0  0  0  0  0  0
    2.1182   -0.6718    0.3341 C   0  0  0  0  0  0  0  0  0  0  0  0
    2.0438    0.6853   -0.3464 C   0  0  0  0  0  0  0  0  0  0  0  0
    2.7577    1.6536    0.3232 O   0  0  0  0  0  0  0  0  0  0  0  0
    0.5225    0.9353   -0.2470 C   0  0  0  0  0  0  0  0  0  0  0  0
   -1.8761    1.6237    0.3090 H   0  0  0  0  0  0  0  0  0  0  0  0
   -3.3629    1.0540    1.1188 H   0  0  0  0  0  0  0  0  0  0  0  0
   -1.7857    0.6084    1.8098 H   0  0  0  0  0  0  0  0  0  0  0  0
   -3.3145   -0.6609   -0.3446 H   0  0  0  0  0  0  0  0  0  0  0  0
   -2.1527   -1.4075    0.7516 H   0  0  0  0  0  0  0  0  0  0  0  0
   -1.4864   -1.5040   -1.6738 H   0  0  0  0  0  0  0  0  0  0  0  0
   -1.6781    0.2607   -1.7750 H   0  0  0  0  0  0  0  0  0  0  0  0
    0.6414   -0.4553   -1.8246 H   0  0  0  0  0  0  0  0  0  0  0  0
    0.2450   -1.5062    1.0194 H   0  0  0  0  0  0  0  0  0  0  0  0
    0.9474   -2.2911   -0.4672 H   0  0  0  0  0  0  0  0  0  0  0  0
    2.2705   -0.4810    1.4129 H   0  0  0  0  0  0  0  0  0  0  0  0
    2.9457   -1.2868   -0.0797 H   0  0  0  0  0  0  0  0  0  0  0  0
    2.2668    0.6250   -1.4298 H   0  0  0  0  0  0  0  0  0  0  0  0
    3.3927    2.0657   -0.3159 H   0  0  0  0  0  0  0  0  0  0  0  0
    0.3515    1.0014    0.8517 H   0  0  0  0  0  0  0  0  0  0  0  0
    0.2295    1.8129   -0.8163 H   0  0  0  0  0  0  0  0  0  0  0  0
  1  2  1  0
  2  3  1  0
  3  4  1  0
  4  5  1  0
  5  6  1  0
  6  7  1  0
  7  8  1  0
  7  9  1  0
  9  4  1  0
  1 10  1  0
  1 11  1  0
  1 12  1  0
  2 13  1  0
  2 14  1  0
  3 15  1  0
  3 16  1  0
  4 17  1  0
  5 18  1  0
  5 19  1  0
  6 20  1  0
  6 21  1  0
  7 22  1  0
  8 23  1  0
  9 24  1  0
  9 25  1  0
M  END
