
     RDKit          3D

 14 13  0  0  0  0  0  0  0  0999 V2000
   -1.8590    0.2646   -0.3547 C   0  0  0  0  0  0  0  0  0  0  0  0
   -0.4147    0.6995   -0.1332 C   0  0  0  0  0  0  0  0  0  0  0  0
    0.4205   -0.5600   -0.1873 C   0  0  0  0  0  0  0  0  0  0  0  0
    1.8815   -0.3054    0.0145 C   0  0  0  0  0  0  0  0  0  0  0  0
   -2.4584    1.0119   -0.8694 H   0  0  0  0  0  0  0  0  0  0  0  0
   -2.2479    0.0105    0.6660 H   0  0  0  0  0  0  0  0  0  0  0  0
   -1.9076   -0.6722   -0.9331 H   0  0  0  0  0  0  0  0  0  0  0  0
   -0.3101    1.2562    0.8065 H   0  0  0  0  0  0  0  0  0  0  0  0
   -0.1629    1.3425   -1.0145 H   0  0  0  0  0  0  0  0  0  0  0  0
   -0.0235   -1.2733    0.5158 H   0  0  0  0  0  0  0  0  0  0  0  0
    0.3045   -0.9560   -1.2369 H   0  0  0  0  0  0  0  0  0  0  0  0
    2.1741    0.5237   -0.6647 H   0  0  0  0  0  0  0  0  0  0  0  0
    2.4319   -1.2046   -0.3317 H   0  0  0  0  0  0  0  0  0  0  0  0
    2.1716   -0.1374    1.0611 H   0  0  0  0  0  0  0  0  0  0  0  0
  1  2  1  0
  2  3  1  0
  3  4  1  0
  1  5  1  0
  1  6  1  0
  1  7  1  0
  2  8  1  0
  2  9  1  0
  3 10  1  0
  3 11  1  0
  4 12  1  0
  4 13  1  0
  4 14  1  0
M  END
