
     RDKit          3D

 21 23  0  0  0  0  0  0  0  0999 V2000
    2.8631   -0.4899    0.2681 C   0  0  0  0  0  0  0  0  0  0  0  0
    1.6076    0.2155   -0.1916 C   0  0  0  0  0  0  0  0  0  0  0  0
    0.3580   -0.5624    0.2515 C   0  0  0  0  0  0  0  0  0  0  0  0
   -0.8059    0.0613   -0.1562 C   0  0  0  0  0  0  0  0  0  0  0  0
   -0.8868    1.4177    0.4216 C   0  0  0  0  0  0  0  0  0  0  0  0
   -1.9755    0.8575   -0.1684 C   0  0  0  0  0  0  0  0  0  0  0  0
   -2.6987   -0.4426    0.1961 C   0  0  0  0  0  0  0  0  0  0  0  0
   -2.7284   -1.5442   -0.5807 O   0  0  0  0  0  0  0  0  0  0  0  0
   -1.7354   -0.7570   -0.9834 C   0  0  0  0  0  0  0  0  0  0  0  0
    2.7113   -0.9719    1.2627 H   0  0  0  0  0  0  0  0  0  0  0  0
    3.7062    0.2196    0.3224 H   0  0  0  0  0  0  0  0  0  0  0  0
    3.1354   -1.2694   -0.4701 H   0  0  0  0  0  0  0  0  0  0  0  0
    1.5468    1.2202    0.2489 H   0  0  0  0  0  0  0  0  0  0  0  0
    1.6270    0.3375   -1.2937 H   0  0  0  0  0  0  0  0  0  0  0  0
    0.4902   -0.6633    1.3711 H   0  0  0  0  0  0  0  0  0  0  0  0
    0.5254   -1.5968   -0.1274 H   0  0  0  0  0  0  0  0  0  0  0  0
   -0.2543    2.1755   -0.0633 H   0  0  0  0  0  0  0  0  0  0  0  0
   -0.7776    1.4615    1.5462 H   0  0  0  0  0  0  0  0  0  0  0  0
   -2.3763    1.2441   -1.1552 H   0  0  0  0  0  0  0  0  0  0  0  0
   -2.3230   -0.7179    1.2322 H   0  0  0  0  0  0  0  0  0  0  0  0
   -2.0089   -0.1948   -1.9311 H   0  0  0  0  0  0  0  0  0  0  0  0
  1  2  1  0
  2  3  1  0
  3  4  1  0
  4  5  1  0
  5  6  1  0
  6  7  1  0
  7  8  1  0
  8  9  1  0
  6  4  1  0
  9  7  1  0
  9  4  1  0
  1 10  1  0
  1 11  1  0
  1 12  1  0
  2 13  1  0
  2 14  1  0
  3 15  1  0
  3 16  1  0
  5 17  1  0
  5 18  1  0
  6 19  1  0
  7 20  1  0
  9 21  1  0
M  END
