
     RDKit          3D

 27 26  0  0  0  0  0  0  0  0999 V2000
    3.0900   -1.0521   -0.0314 C   0  0  0  0  0  0  0  0  0  0  0  0
    1.8062   -0.3311    0.4215 C   0  0  0  0  0  0  0  0  0  0  0  0
    0.9521   -0.2121   -0.7810 C   0  0  0  0  0  0  0  0  0  0  0  0
   -0.3641    0.4367   -0.6479 C   0  0  0  0  0  0  0  0  0  0  0  0
   -0.2515    1.8418   -0.1754 C   0  0  0  0  0  0  0  0  0  0  0  0
    0.3479    2.0009    1.0621 O   0  0  0  0  0  0  0  0  0  0  0  0
   -1.3548   -0.3120    0.2069 C   0  0  0  0  0  0  0  0  0  0  0  0
   -1.6456   -1.6902   -0.3350 C   0  0  0  0  0  0  0  0  0  0  0  0
   -2.6620    0.4557    0.1508 C   0  0  0  0  0  0  0  0  0  0  0  0
    3.7095   -0.3616   -0.6470 H   0  0  0  0  0  0  0  0  0  0  0  0
    2.8521   -1.9621   -0.6103 H   0  0  0  0  0  0  0  0  0  0  0  0
    3.7140   -1.3326    0.8393 H   0  0  0  0  0  0  0  0  0  0  0  0
    2.2032    0.6547    0.7901 H   0  0  0  0  0  0  0  0  0  0  0  0
    1.3645   -0.8386    1.2763 H   0  0  0  0  0  0  0  0  0  0  0  0
    1.5365    0.3888   -1.5405 H   0  0  0  0  0  0  0  0  0  0  0  0
    0.8554   -1.2191   -1.2834 H   0  0  0  0  0  0  0  0  0  0  0  0
   -0.8223    0.4621   -1.6811 H   0  0  0  0  0  0  0  0  0  0  0  0
   -1.2179    2.3829   -0.1343 H   0  0  0  0  0  0  0  0  0  0  0  0
    0.3890    2.4270   -0.8991 H   0  0  0  0  0  0  0  0  0  0  0  0
    0.8886    2.8158    1.1467 H   0  0  0  0  0  0  0  0  0  0  0  0
   -1.0078   -0.3478    1.2365 H   0  0  0  0  0  0  0  0  0  0  0  0
   -1.8774   -1.6477   -1.4034 H   0  0  0  0  0  0  0  0  0  0  0  0
   -0.8743   -2.4326   -0.0707 H   0  0  0  0  0  0  0  0  0  0  0  0
   -2.5827   -2.0339    0.1799 H   0  0  0  0  0  0  0  0  0  0  0  0
   -3.5374   -0.2323    0.0541 H   0  0  0  0  0  0  0  0  0  0  0  0
   -2.7099    1.1234   -0.7315 H   0  0  0  0  0  0  0  0  0  0  0  0
   -2.8014    1.0159    1.1120 H   0  0  0  0  0  0  0  0  0  0  0  0
  1  2  1  0
  2  3  1  0
  3  4  1  0
  4  5  1  0
  5  6  1  0
  4  7  1  0
  7  8  1  0
  7  9  1  0
  1 10  1  0
  1 11  1  0
  1 12  1  0
  2 13  1  0
  2 14  1  0
  3 15  1  0
  3 16  1  0
  4 17  1  0
  5 18  1  0
  5 19  1  0
  6 20  1  0
  7 21  1  0
  8 22  1  0
  8 23  1  0
  8 24  1  0
  9 25  1  0
  9 26  1  0
  9 27  1  0
M  END
