
     RDKit          3D

 23 22  0  0  0  0  0  0  0  0999 V2000
   -1.5917    0.5181    1.3299 C   0  0  0  0  0  0  0  0  0  0  0  0
   -2.1408    0.0470    0.0381 C   0  0  0  0  0  0  0  0  0  0  0  0
   -1.3716   -1.0100   -0.6607 C   0  0  0  0  0  0  0  0  0  0  0  0
   -0.0371   -0.6676   -1.1274 C   0  0  0  0  0  0  0  0  0  0  0  0
    1.0702   -0.2910   -0.2443 C   0  0  0  0  0  0  0  0  0  0  0  0
    1.4503   -1.3428    0.7674 C   0  0  0  0  0  0  0  0  0  0  0  0
    1.4592   -2.4860    0.4014 O   0  0  0  0  0  0  0  0  0  0  0  0
    1.0977    0.9590    0.2919 O   0  0  0  0  0  0  0  0  0  0  0  0
    2.1566    1.7423   -0.1563 C   0  0  0  0  0  0  0  0  0  0  0  0
   -1.2548    1.5863    1.2658 H   0  0  0  0  0  0  0  0  0  0  0  0
   -0.8312   -0.1071    1.8035 H   0  0  0  0  0  0  0  0  0  0  0  0
   -2.4705    0.5480    2.0938 H   0  0  0  0  0  0  0  0  0  0  0  0
   -3.2439   -0.2574    0.1451 H   0  0  0  0  0  0  0  0  0  0  0  0
   -2.2690    0.9686   -0.6386 H   0  0  0  0  0  0  0  0  0  0  0  0
   -2.0325   -1.3446   -1.5460 H   0  0  0  0  0  0  0  0  0  0  0  0
   -1.3916   -1.9622   -0.0330 H   0  0  0  0  0  0  0  0  0  0  0  0
   -0.0844    0.1771   -1.9133 H   0  0  0  0  0  0  0  0  0  0  0  0
    0.3395   -1.5436   -1.7608 H   0  0  0  0  0  0  0  0  0  0  0  0
    2.0036   -0.3093   -0.9552 H   0  0  0  0  0  0  0  0  0  0  0  0
    1.6891   -1.0016    1.7519 H   0  0  0  0  0  0  0  0  0  0  0  0
    3.1182    1.2355    0.1148 H   0  0  0  0  0  0  0  0  0  0  0  0
    2.1587    1.8143   -1.2788 H   0  0  0  0  0  0  0  0  0  0  0  0
    2.1759    2.7270    0.3110 H   0  0  0  0  0  0  0  0  0  0  0  0
  1  2  1  0
  2  3  1  0
  3  4  1  0
  4  5  1  0
  5  6  1  0
  6  7  2  0
  5  8  1  0
  8  9  1  0
  1 10  1  0
  1 11  1  0
  1 12  1  0
  2 13  1  0
  2 14  1  0
  3 15  1  0
  3 16  1  0
  4 17  1  0
  4 18  1  0
  5 19  1  0
  6 20  1  0
  9 21  1  0
  9 22  1  0
  9 23  1  0
M  END
