
     RDKit          3D

 21 22  0  0  0  0  0  0  0  0999 V2000
    2.8206    0.6565   -0.2110 C   0  0  0  0  0  0  0  0  0  0  0  0
    1.5933   -0.0933    0.2268 C   0  0  0  0  0  0  0  0  0  0  0  0
    0.3230    0.5140   -0.3817 C   0  0  0  0  0  0  0  0  0  0  0  0
   -0.8254   -0.3162    0.1266 C   0  0  0  0  0  0  0  0  0  0  0  0
   -0.7707   -1.7625   -0.2398 C   0  0  0  0  0  0  0  0  0  0  0  0
   -2.1372   -1.8202   -0.5134 O   0  0  0  0  0  0  0  0  0  0  0  0
   -2.0930   -0.4200   -0.6822 C   0  0  0  0  0  0  0  0  0  0  0  0
   -2.0642    0.3548    0.5623 C   0  0  0  0  0  0  0  0  0  0  0  0
   -2.0742    1.7580    0.4037 O   0  0  0  0  0  0  0  0  0  0  0  0
    3.6974    0.1168    0.1421 H   0  0  0  0  0  0  0  0  0  0  0  0
    2.8268    0.7078   -1.3038 H   0  0  0  0  0  0  0  0  0  0  0  0
    2.7427    1.6824    0.2006 H   0  0  0  0  0  0  0  0  0  0  0  0
    1.6370   -1.1532   -0.1238 H   0  0  0  0  0  0  0  0  0  0  0  0
    1.4346   -0.0741    1.3240 H   0  0  0  0  0  0  0  0  0  0  0  0
    0.2540    1.5611   -0.0715 H   0  0  0  0  0  0  0  0  0  0  0  0
    0.4241    0.4647   -1.5005 H   0  0  0  0  0  0  0  0  0  0  0  0
   -0.4351   -2.4324    0.5754 H   0  0  0  0  0  0  0  0  0  0  0  0
   -0.2231   -1.9482   -1.2110 H   0  0  0  0  0  0  0  0  0  0  0  0
   -2.0427   -0.0003   -1.6842 H   0  0  0  0  0  0  0  0  0  0  0  0
   -2.6467   -0.0127    1.4293 H   0  0  0  0  0  0  0  0  0  0  0  0
   -2.4413    2.2171    1.1883 H   0  0  0  0  0  0  0  0  0  0  0  0
  1  2  1  0
  2  3  1  0
  3  4  1  0
  4  5  1  0
  5  6  1  0
  6  7  1  0
  7  8  1  0
  8  9  1  0
  7  4  1  0
  8  4  1  0
  1 10  1  0
  1 11  1  0
  1 12  1  0
  2 13  1  0
  2 14  1  0
  3 15  1  0
  3 16  1  0
  5 17  1  0
  5 18  1  0
  7 19  1  0
  8 20  1  0
  9 21  1  0
M  END
