
     RDKit          3D

 20 19  0  0  0  0  0  0  0  0999 V2000
   -2.6810   -0.5324    0.0459 C   0  0  0  0  0  0  0  0  0  0  0  0
   -2.0929    0.7414   -0.5379 C   0  0  0  0  0  0  0  0  0  0  0  0
   -0.6953    0.9685   -0.0720 C   0  0  0  0  0  0  0  0  0  0  0  0
    0.2489   -0.1433   -0.4505 C   0  0  0  0  0  0  0  0  0  0  0  0
    1.6177    0.1191    0.0273 C   0  0  0  0  0  0  0  0  0  0  0  0
    1.8868    1.1295    0.6464 O   0  0  0  0  0  0  0  0  0  0  0  0
    2.7165   -0.8470   -0.2337 C   0  0  0  0  0  0  0  0  0  0  0  0
    3.9120   -0.4237    0.2898 O   0  0  0  0  0  0  0  0  0  0  0  0
   -3.6817   -0.3608    0.4970 H   0  0  0  0  0  0  0  0  0  0  0  0
   -2.0030   -0.8512    0.8719 H   0  0  0  0  0  0  0  0  0  0  0  0
   -2.7994   -1.2868   -0.7397 H   0  0  0  0  0  0  0  0  0  0  0  0
   -2.2035    0.7820   -1.6424 H   0  0  0  0  0  0  0  0  0  0  0  0
   -2.7117    1.5776   -0.1235 H   0  0  0  0  0  0  0  0  0  0  0  0
   -0.3177    1.8926   -0.5542 H   0  0  0  0  0  0  0  0  0  0  0  0
   -0.7180    1.1639    1.0108 H   0  0  0  0  0  0  0  0  0  0  0  0
    0.1891   -0.3768   -1.5264 H   0  0  0  0  0  0  0  0  0  0  0  0
   -0.1279   -1.0677    0.0748 H   0  0  0  0  0  0  0  0  0  0  0  0
    2.4457   -1.8048    0.2775 H   0  0  0  0  0  0  0  0  0  0  0  0
    2.8077   -1.0879   -1.3062 H   0  0  0  0  0  0  0  0  0  0  0  0
    4.2077    0.4078   -0.1535 H   0  0  0  0  0  0  0  0  0  0  0  0
  1  2  1  0
  2  3  1  0
  3  4  1  0
  4  5  1  0
  5  6  2  0
  5  7  1  0
  7  8  1  0
  1  9  1  0
  1 10  1  0
  1 11  1  0
  2 12  1  0
  2 13  1  0
  3 14  1  0
  3 15  1  0
  4 16  1  0
  4 17  1  0
  7 18  1  0
  7 19  1  0
  8 20  1  0
M  END
