
     RDKit          3D

 21 21  0  0  0  0  0  0  0  0999 V2000
   -3.3503    0.1460   -0.2415 C   0  0  0  0  0  0  0  0  0  0  0  0
   -2.1417   -0.1821    0.6035 C   0  0  0  0  0  0  0  0  0  0  0  0
   -0.8934    0.3524   -0.0598 C   0  0  0  0  0  0  0  0  0  0  0  0
    0.2624    0.0144    0.7908 C   0  0  0  0  0  0  0  0  0  0  0  0
    0.1031   -0.5882    1.8150 O   0  0  0  0  0  0  0  0  0  0  0  0
    1.6062    0.4557    0.3128 C   0  0  0  0  0  0  0  0  0  0  0  0
    2.1007   -0.4668   -0.7656 C   0  0  0  0  0  0  0  0  0  0  0  0
    3.3643   -0.3253    0.0504 C   0  0  0  0  0  0  0  0  0  0  0  0
    2.6386    0.0959    1.1742 O   0  0  0  0  0  0  0  0  0  0  0  0
   -3.6947   -0.8015   -0.7023 H   0  0  0  0  0  0  0  0  0  0  0  0
   -4.1358    0.6576    0.3436 H   0  0  0  0  0  0  0  0  0  0  0  0
   -3.0478    0.8469   -1.0442 H   0  0  0  0  0  0  0  0  0  0  0  0
   -2.0235   -1.2773    0.7533 H   0  0  0  0  0  0  0  0  0  0  0  0
   -2.2736    0.3345    1.5720 H   0  0  0  0  0  0  0  0  0  0  0  0
   -0.7691   -0.0326   -1.0883 H   0  0  0  0  0  0  0  0  0  0  0  0
   -1.0443    1.4659   -0.1391 H   0  0  0  0  0  0  0  0  0  0  0  0
    1.6467    1.5280    0.0914 H   0  0  0  0  0  0  0  0  0  0  0  0
    2.1163    0.0291   -1.7525 H   0  0  0  0  0  0  0  0  0  0  0  0
    1.6418   -1.4684   -0.7316 H   0  0  0  0  0  0  0  0  0  0  0  0
    3.9985    0.4740   -0.3872 H   0  0  0  0  0  0  0  0  0  0  0  0
    3.8957   -1.2582    0.2877 H   0  0  0  0  0  0  0  0  0  0  0  0
  1  2  1  0
  2  3  1  0
  3  4  1  0
  4  5  2  0
  4  6  1  0
  6  7  1  0
  7  8  1  0
  8  9  1  0
  9  6  1  0
  1 10  1  0
  1 11  1  0
  1 12  1  0
  2 13  1  0
  2 14  1  0
  3 15  1  0
  3 16  1  0
  6 17  1  0
  7 18  1  0
  7 19  1  0
  8 20  1  0
  8 21  1  0
M  END
