
     RDKit          3D

 23 23  0  0  0  0  0  0  0  0999 V2000
    2.8457    0.7044    0.4063 C   0  0  0  0  0  0  0  0  0  0  0  0
    1.4234    0.8753   -0.1422 C   0  0  0  0  0  0  0  0  0  0  0  0
    0.6511   -0.3421    0.3057 C   0  0  0  0  0  0  0  0  0  0  0  0
   -0.7697   -0.3517   -0.1395 C   0  0  0  0  0  0  0  0  0  0  0  0
   -1.6378    0.7696    0.3122 C   0  0  0  0  0  0  0  0  0  0  0  0
   -1.7589    0.8810    1.6788 O   0  0  0  0  0  0  0  0  0  0  0  0
   -1.0363   -0.7394   -1.5650 C   0  0  0  0  0  0  0  0  0  0  0  0
   -2.1119   -1.5195   -1.0932 O   0  0  0  0  0  0  0  0  0  0  0  0
   -1.3641   -1.7473    0.0506 C   0  0  0  0  0  0  0  0  0  0  0  0
    2.7706    0.6157    1.5029 H   0  0  0  0  0  0  0  0  0  0  0  0
    3.2887   -0.2258   -0.0135 H   0  0  0  0  0  0  0  0  0  0  0  0
    3.4940    1.5350    0.1262 H   0  0  0  0  0  0  0  0  0  0  0  0
    1.4639    0.9880   -1.2241 H   0  0  0  0  0  0  0  0  0  0  0  0
    0.9768    1.7708    0.3414 H   0  0  0  0  0  0  0  0  0  0  0  0
    0.6701   -0.3938    1.4123 H   0  0  0  0  0  0  0  0  0  0  0  0
    1.1532   -1.2537   -0.0739 H   0  0  0  0  0  0  0  0  0  0  0  0
   -2.6704    0.5713   -0.0917 H   0  0  0  0  0  0  0  0  0  0  0  0
   -1.3098    1.7125   -0.1411 H   0  0  0  0  0  0  0  0  0  0  0  0
   -1.9830    1.8459    1.8707 H   0  0  0  0  0  0  0  0  0  0  0  0
   -0.1930   -1.3549   -1.9539 H   0  0  0  0  0  0  0  0  0  0  0  0
   -1.3902    0.0410   -2.2399 H   0  0  0  0  0  0  0  0  0  0  0  0
   -1.9286   -1.8764    0.9860 H   0  0  0  0  0  0  0  0  0  0  0  0
   -0.5840   -2.5059   -0.1443 H   0  0  0  0  0  0  0  0  0  0  0  0
  1  2  1  0
  2  3  1  0
  3  4  1  0
  4  5  1  0
  5  6  1  0
  4  7  1  0
  7  8  1  0
  8  9  1  0
  9  4  1  0
  1 10  1  0
  1 11  1  0
  1 12  1  0
  2 13  1  0
  2 14  1  0
  3 15  1  0
  3 16  1  0
  5 17  1  0
  5 18  1  0
  6 19  1  0
  7 20  1  0
  7 21  1  0
  9 22  1  0
  9 23  1  0
M  END
