
     RDKit          3D

 23 23  0  0  0  0  0  0  0  0999 V2000
    3.0687    0.2517    0.5285 C   0  0  0  0  0  0  0  0  0  0  0  0
    1.8850   -0.6818    0.2489 C   0  0  0  0  0  0  0  0  0  0  0  0
    0.7084    0.1912   -0.0557 C   0  0  0  0  0  0  0  0  0  0  0  0
   -0.5440   -0.5822   -0.3547 C   0  0  0  0  0  0  0  0  0  0  0  0
   -1.7660    0.2137   -0.6695 C   0  0  0  0  0  0  0  0  0  0  0  0
   -2.1892    1.1405    0.4502 C   0  0  0  0  0  0  0  0  0  0  0  0
   -3.3469    1.8082   -0.0125 O   0  0  0  0  0  0  0  0  0  0  0  0
   -0.4673   -1.9520   -0.9648 C   0  0  0  0  0  0  0  0  0  0  0  0
   -0.6662   -1.7545    0.4052 O   0  0  0  0  0  0  0  0  0  0  0  0
    4.0030   -0.3226    0.6048 H   0  0  0  0  0  0  0  0  0  0  0  0
    3.0707    0.9960   -0.2712 H   0  0  0  0  0  0  0  0  0  0  0  0
    2.9289    0.7820    1.4942 H   0  0  0  0  0  0  0  0  0  0  0  0
    1.6713   -1.2566    1.1686 H   0  0  0  0  0  0  0  0  0  0  0  0
    2.1941   -1.3260   -0.5912 H   0  0  0  0  0  0  0  0  0  0  0  0
    0.9756    0.8025   -0.9611 H   0  0  0  0  0  0  0  0  0  0  0  0
    0.5757    0.8809    0.8119 H   0  0  0  0  0  0  0  0  0  0  0  0
   -2.6382   -0.4840   -0.8278 H   0  0  0  0  0  0  0  0  0  0  0  0
   -1.6558    0.7543   -1.6288 H   0  0  0  0  0  0  0  0  0  0  0  0
   -2.5277    0.5655    1.3358 H   0  0  0  0  0  0  0  0  0  0  0  0
   -1.3892    1.8535    0.6517 H   0  0  0  0  0  0  0  0  0  0  0  0
   -3.0730    2.6760   -0.3723 H   0  0  0  0  0  0  0  0  0  0  0  0
    0.5265   -2.2416   -1.3277 H   0  0  0  0  0  0  0  0  0  0  0  0
   -1.3446   -2.3148   -1.5259 H   0  0  0  0  0  0  0  0  0  0  0  0
  1  2  1  0
  2  3  1  0
  3  4  1  0
  4  5  1  0
  5  6  1  0
  6  7  1  0
  4  8  1  0
  8  9  1  0
  9  4  1  0
  1 10  1  0
  1 11  1  0
  1 12  1  0
  2 13  1  0
  2 14  1  0
  3 15  1  0
  3 16  1  0
  5 17  1  0
  5 18  1  0
  6 19  1  0
  6 20  1  0
  7 21  1  0
  8 22  1  0
  8 23  1  0
M  END
