
     RDKit          3D

 23 22  0  0  0  0  0  0  0  0999 V2000
    2.8795    0.3714    0.2620 C   0  0  0  0  0  0  0  0  0  0  0  0
    1.3871    0.4411    0.5220 C   0  0  0  0  0  0  0  0  0  0  0  0
    0.6410   -0.2959   -0.5355 C   0  0  0  0  0  0  0  0  0  0  0  0
   -0.8323   -0.2987   -0.3696 C   0  0  0  0  0  0  0  0  0  0  0  0
   -1.1919   -0.9567    0.9712 C   0  0  0  0  0  0  0  0  0  0  0  0
   -1.3809   -1.2528   -1.4045 C   0  0  0  0  0  0  0  0  0  0  0  0
   -2.3128   -0.9300   -2.1206 O   0  0  0  0  0  0  0  0  0  0  0  0
   -1.5215    1.0119   -0.4098 C   0  0  0  0  0  0  0  0  0  0  0  0
   -1.1233    1.9098    0.5684 O   0  0  0  0  0  0  0  0  0  0  0  0
    3.3901    0.7697    1.1745 H   0  0  0  0  0  0  0  0  0  0  0  0
    3.2314   -0.6357    0.0175 H   0  0  0  0  0  0  0  0  0  0  0  0
    3.1299    1.0485   -0.5941 H   0  0  0  0  0  0  0  0  0  0  0  0
    1.1666    0.0297    1.4987 H   0  0  0  0  0  0  0  0  0  0  0  0
    1.1448    1.5344    0.4168 H   0  0  0  0  0  0  0  0  0  0  0  0
    0.8847    0.0494   -1.5657 H   0  0  0  0  0  0  0  0  0  0  0  0
    0.9678   -1.3777   -0.4868 H   0  0  0  0  0  0  0  0  0  0  0  0
   -0.6683   -1.9306    0.9886 H   0  0  0  0  0  0  0  0  0  0  0  0
   -0.9080   -0.3009    1.8198 H   0  0  0  0  0  0  0  0  0  0  0  0
   -2.2886   -1.1455    0.9219 H   0  0  0  0  0  0  0  0  0  0  0  0
   -0.8851   -2.2153   -1.4471 H   0  0  0  0  0  0  0  0  0  0  0  0
   -2.6244    0.8603   -0.2479 H   0  0  0  0  0  0  0  0  0  0  0  0
   -1.4593    1.5292   -1.3953 H   0  0  0  0  0  0  0  0  0  0  0  0
   -1.6266    1.7845    1.4155 H   0  0  0  0  0  0  0  0  0  0  0  0
  1  2  1  0
  2  3  1  0
  3  4  1  0
  4  5  1  0
  4  6  1  0
  6  7  2  0
  4  8  1  0
  8  9  1  0
  1 10  1  0
  1 11  1  0
  1 12  1  0
  2 13  1  0
  2 14  1  0
  3 15  1  0
  3 16  1  0
  5 17  1  0
  5 18  1  0
  5 19  1  0
  6 20  1  0
  8 21  1  0
  8 22  1  0
  9 23  1  0
M  END
