
     RDKit          3D

 27 26  0  0  0  0  0  0  0  0999 V2000
   -3.5245   -1.0782    0.4148 C   0  0  0  0  0  0  0  0  0  0  0  0
   -2.1297   -0.8264   -0.1204 C   0  0  0  0  0  0  0  0  0  0  0  0
   -1.4830    0.3320    0.5693 C   0  0  0  0  0  0  0  0  0  0  0  0
   -0.0931    0.5775    0.0291 C   0  0  0  0  0  0  0  0  0  0  0  0
    0.8189   -0.6157    0.2147 C   0  0  0  0  0  0  0  0  0  0  0  0
    2.1724   -0.2374   -0.3638 C   0  0  0  0  0  0  0  0  0  0  0  0
    3.1578   -1.3982   -0.2190 C   0  0  0  0  0  0  0  0  0  0  0  0
    0.5231    1.6543    0.5968 O   0  0  0  0  0  0  0  0  0  0  0  0
    0.8329    2.6761   -0.2865 C   0  0  0  0  0  0  0  0  0  0  0  0
   -4.0209   -0.1415    0.7552 H   0  0  0  0  0  0  0  0  0  0  0  0
   -3.4310   -1.7747    1.2567 H   0  0  0  0  0  0  0  0  0  0  0  0
   -4.1478   -1.5125   -0.4208 H   0  0  0  0  0  0  0  0  0  0  0  0
   -1.5841   -1.7771   -0.0377 H   0  0  0  0  0  0  0  0  0  0  0  0
   -2.2272   -0.6287   -1.2241 H   0  0  0  0  0  0  0  0  0  0  0  0
   -2.0772    1.2338    0.3538 H   0  0  0  0  0  0  0  0  0  0  0  0
   -1.4867    0.1600    1.6514 H   0  0  0  0  0  0  0  0  0  0  0  0
   -0.2307    0.7205   -1.0829 H   0  0  0  0  0  0  0  0  0  0  0  0
    0.9783   -0.7139    1.3133 H   0  0  0  0  0  0  0  0  0  0  0  0
    0.4267   -1.5401   -0.2364 H   0  0  0  0  0  0  0  0  0  0  0  0
    2.0558    0.0926   -1.4029 H   0  0  0  0  0  0  0  0  0  0  0  0
    2.5648    0.6410    0.2148 H   0  0  0  0  0  0  0  0  0  0  0  0
    3.9248   -1.2363   -1.0169 H   0  0  0  0  0  0  0  0  0  0  0  0
    2.6337   -2.3497   -0.3006 H   0  0  0  0  0  0  0  0  0  0  0  0
    3.6659   -1.2480    0.7678 H   0  0  0  0  0  0  0  0  0  0  0  0
   -0.1262    3.0208   -0.7327 H   0  0  0  0  0  0  0  0  0  0  0  0
    1.5993    2.4445   -1.0219 H   0  0  0  0  0  0  0  0  0  0  0  0
    1.2078    3.5252    0.3288 H   0  0  0  0  0  0  0  0  0  0  0  0
  1  2  1  0
  2  3  1  0
  3  4  1  0
  4  5  1  0
  5  6  1  0
  6  7  1  0
  4  8  1  0
  8  9  1  0
  1 10  1  0
  1 11  1  0
  1 12  1  0
  2 13  1  0
  2 14  1  0
  3 15  1  0
  3 16  1  0
  4 17  1  0
  5 18  1  0
  5 19  1  0
  6 20  1  0
  6 21  1  0
  7 22  1  0
  7 23  1  0
  7 24  1  0
  9 25  1  0
  9 26  1  0
  9 27  1  0
M  END
