
     RDKit          3D

 23 23  0  0  0  0  0  0  0  0999 V2000
    2.7474   -0.5494   -0.4159 C   0  0  0  0  0  0  0  0  0  0  0  0
    2.0683    0.8032   -0.4799 C   0  0  0  0  0  0  0  0  0  0  0  0
    0.5610    0.6735   -0.5192 C   0  0  0  0  0  0  0  0  0  0  0  0
    0.0791   -0.0319    0.7119 C   0  0  0  0  0  0  0  0  0  0  0  0
   -1.3766   -0.2284    0.8073 C   0  0  0  0  0  0  0  0  0  0  0  0
   -1.7435   -0.8818    1.9625 O   0  0  0  0  0  0  0  0  0  0  0  0
   -2.0824   -0.8118   -0.3840 C   0  0  0  0  0  0  0  0  0  0  0  0
   -3.2002   -0.0712    0.0068 O   0  0  0  0  0  0  0  0  0  0  0  0
   -2.2978    0.8891    0.4841 C   0  0  0  0  0  0  0  0  0  0  0  0
    2.4835   -1.1861   -1.2875 H   0  0  0  0  0  0  0  0  0  0  0  0
    3.8416   -0.3489   -0.5166 H   0  0  0  0  0  0  0  0  0  0  0  0
    2.6139   -1.0567    0.5497 H   0  0  0  0  0  0  0  0  0  0  0  0
    2.4436    1.3010   -1.3971 H   0  0  0  0  0  0  0  0  0  0  0  0
    2.3902    1.3634    0.4125 H   0  0  0  0  0  0  0  0  0  0  0  0
    0.1537    1.6865   -0.6433 H   0  0  0  0  0  0  0  0  0  0  0  0
    0.3062    0.1135   -1.4507 H   0  0  0  0  0  0  0  0  0  0  0  0
    0.5777   -1.0314    0.7322 H   0  0  0  0  0  0  0  0  0  0  0  0
    0.4387    0.5210    1.5886 H   0  0  0  0  0  0  0  0  0  0  0  0
   -1.4156   -1.8055    2.0240 H   0  0  0  0  0  0  0  0  0  0  0  0
   -1.7050   -0.4221   -1.3477 H   0  0  0  0  0  0  0  0  0  0  0  0
   -2.2318   -1.9115   -0.3562 H   0  0  0  0  0  0  0  0  0  0  0  0
   -2.0304    1.5550   -0.3511 H   0  0  0  0  0  0  0  0  0  0  0  0
   -2.6215    1.4305    1.3779 H   0  0  0  0  0  0  0  0  0  0  0  0
  1  2  1  0
  2  3  1  0
  3  4  1  0
  4  5  1  0
  5  6  1  0
  5  7  1  0
  7  8  1  0
  8  9  1  0
  9  5  1  0
  1 10  1  0
  1 11  1  0
  1 12  1  0
  2 13  1  0
  2 14  1  0
  3 15  1  0
  3 16  1  0
  4 17  1  0
  4 18  1  0
  6 19  1  0
  7 20  1  0
  7 21  1  0
  9 22  1  0
  9 23  1  0
M  END
