
     RDKit          3D

 21 22  0  0  0  0  0  0  0  0999 V2000
    3.1948    0.3563   -0.1507 C   0  0  0  0  0  0  0  0  0  0  0  0
    2.0194   -0.4064    0.4105 C   0  0  0  0  0  0  0  0  0  0  0  0
    0.8175   -0.0725   -0.4663 C   0  0  0  0  0  0  0  0  0  0  0  0
   -0.4320   -0.7894    0.0084 C   0  0  0  0  0  0  0  0  0  0  0  0
   -0.8694   -0.5100    1.3318 O   0  0  0  0  0  0  0  0  0  0  0  0
   -1.6007   -0.1530    0.2629 C   0  0  0  0  0  0  0  0  0  0  0  0
   -3.0084   -0.5512    0.0186 C   0  0  0  0  0  0  0  0  0  0  0  0
   -3.1279    0.5850   -0.8111 O   0  0  0  0  0  0  0  0  0  0  0  0
   -2.1249    1.1906   -0.0179 C   0  0  0  0  0  0  0  0  0  0  0  0
    2.9006    1.1274   -0.8867 H   0  0  0  0  0  0  0  0  0  0  0  0
    3.9365   -0.3076   -0.6498 H   0  0  0  0  0  0  0  0  0  0  0  0
    3.7042    0.8893    0.6795 H   0  0  0  0  0  0  0  0  0  0  0  0
    2.2672   -1.4782    0.3415 H   0  0  0  0  0  0  0  0  0  0  0  0
    1.8441   -0.1580    1.4705 H   0  0  0  0  0  0  0  0  0  0  0  0
    0.6884    1.0028   -0.5884 H   0  0  0  0  0  0  0  0  0  0  0  0
    1.0375   -0.4913   -1.4749 H   0  0  0  0  0  0  0  0  0  0  0  0
   -0.3546   -1.8958   -0.1576 H   0  0  0  0  0  0  0  0  0  0  0  0
   -3.0829   -1.5109   -0.5136 H   0  0  0  0  0  0  0  0  0  0  0  0
   -3.7198   -0.4396    0.8548 H   0  0  0  0  0  0  0  0  0  0  0  0
   -2.5976    1.7119    0.8461 H   0  0  0  0  0  0  0  0  0  0  0  0
   -1.4921    1.9005   -0.5798 H   0  0  0  0  0  0  0  0  0  0  0  0
  1  2  1  0
  2  3  1  0
  3  4  1  0
  4  5  1  0
  5  6  1  0
  6  7  1  0
  7  8  1  0
  8  9  1  0
  6  4  1  0
  9  6  1  0
  1 10  1  0
  1 11  1  0
  1 12  1  0
  2 13  1  0
  2 14  1  0
  3 15  1  0
  3 16  1  0
  4 17  1  0
  7 18  1  0
  7 19  1  0
  9 20  1  0
  9 21  1  0
M  END
