
     RDKit          3D

 21 21  0  0  0  0  0  0  0  0999 V2000
    2.7408   -0.4730   -0.8585 C   0  0  0  0  0  0  0  0  0  0  0  0
    1.6620    0.2934   -0.1329 C   0  0  0  0  0  0  0  0  0  0  0  0
    0.5565   -0.6924    0.2451 C   0  0  0  0  0  0  0  0  0  0  0  0
   -0.5014    0.1089    0.9669 C   0  0  0  0  0  0  0  0  0  0  0  0
   -1.6167   -0.6608    1.3947 O   0  0  0  0  0  0  0  0  0  0  0  0
   -2.3996    0.4459    1.1532 C   0  0  0  0  0  0  0  0  0  0  0  0
   -3.4289    0.9087    1.6645 O   0  0  0  0  0  0  0  0  0  0  0  0
   -1.4867    0.8061    0.0557 C   0  0  0  0  0  0  0  0  0  0  0  0
   -1.8174    0.0189   -1.1853 C   0  0  0  0  0  0  0  0  0  0  0  0
    2.3969   -0.7413   -1.8705 H   0  0  0  0  0  0  0  0  0  0  0  0
    3.6601    0.1420   -0.9756 H   0  0  0  0  0  0  0  0  0  0  0  0
    2.9467   -1.4156   -0.3024 H   0  0  0  0  0  0  0  0  0  0  0  0
    1.2824    1.1400   -0.6989 H   0  0  0  0  0  0  0  0  0  0  0  0
    2.0843    0.6785    0.8397 H   0  0  0  0  0  0  0  0  0  0  0  0
    0.1436   -1.1050   -0.6958 H   0  0  0  0  0  0  0  0  0  0  0  0
    0.9810   -1.4715    0.9082 H   0  0  0  0  0  0  0  0  0  0  0  0
   -0.1496    0.7732    1.7514 H   0  0  0  0  0  0  0  0  0  0  0  0
   -1.3052    1.8819   -0.0979 H   0  0  0  0  0  0  0  0  0  0  0  0
   -1.0274    0.1423   -1.9546 H   0  0  0  0  0  0  0  0  0  0  0  0
   -2.8357    0.2733   -1.5881 H   0  0  0  0  0  0  0  0  0  0  0  0
   -1.8858   -1.0537   -0.8967 H   0  0  0  0  0  0  0  0  0  0  0  0
  1  2  1  0
  2  3  1  0
  3  4  1  0
  4  5  1  0
  5  6  1  0
  6  7  2  0
  6  8  1  0
  8  9  1  0
  8  4  1  0
  1 10  1  0
  1 11  1  0
  1 12  1  0
  2 13  1  0
  2 14  1  0
  3 15  1  0
  3 16  1  0
  4 17  1  0
  8 18  1  0
  9 19  1  0
  9 20  1  0
  9 21  1  0
M  END
