
     RDKit          3D

 19 18  0  0  0  0  0  0  0  0999 V2000
   -2.8194   -0.2717   -0.7371 C   0  0  0  0  0  0  0  0  0  0  0  0
   -1.6882   -0.7357    0.1654 C   0  0  0  0  0  0  0  0  0  0  0  0
   -0.5152    0.1722   -0.0959 C   0  0  0  0  0  0  0  0  0  0  0  0
    0.6666   -0.1766    0.7299 C   0  0  0  0  0  0  0  0  0  0  0  0
    0.6200   -1.1171    1.5196 O   0  0  0  0  0  0  0  0  0  0  0  0
    1.8914    0.6504    0.5614 C   0  0  0  0  0  0  0  0  0  0  0  0
    1.6400    1.6256   -0.3907 O   0  0  0  0  0  0  0  0  0  0  0  0
    3.0843   -0.1502    0.2670 C   0  0  0  0  0  0  0  0  0  0  0  0
    3.7397    0.0684   -0.7221 O   0  0  0  0  0  0  0  0  0  0  0  0
   -2.5302    0.5424   -1.4046 H   0  0  0  0  0  0  0  0  0  0  0  0
   -3.6356    0.0956   -0.0547 H   0  0  0  0  0  0  0  0  0  0  0  0
   -3.2501   -1.1159   -1.2976 H   0  0  0  0  0  0  0  0  0  0  0  0
   -1.3689   -1.7625   -0.1380 H   0  0  0  0  0  0  0  0  0  0  0  0
   -1.9555   -0.6816    1.2377 H   0  0  0  0  0  0  0  0  0  0  0  0
   -0.8456    1.2042    0.2202 H   0  0  0  0  0  0  0  0  0  0  0  0
   -0.2822    0.1542   -1.1815 H   0  0  0  0  0  0  0  0  0  0  0  0
    1.9968    1.2105    1.5293 H   0  0  0  0  0  0  0  0  0  0  0  0
    1.8681    1.2247   -1.2717 H   0  0  0  0  0  0  0  0  0  0  0  0
    3.3840   -0.9369    0.9288 H   0  0  0  0  0  0  0  0  0  0  0  0
  1  2  1  0
  2  3  1  0
  3  4  1  0
  4  5  2  0
  4  6  1  0
  6  7  1  0
  6  8  1  0
  8  9  2  0
  1 10  1  0
  1 11  1  0
  1 12  1  0
  2 13  1  0
  2 14  1  0
  3 15  1  0
  3 16  1  0
  6 17  1  0
  7 18  1  0
  8 19  1  0
M  END
