
     RDKit          3D

 25 25  0  0  0  0  0  0  0  0999 V2000
   -1.9377    1.1476    0.7550 C   0  0  0  0  0  0  0  0  0  0  0  0
   -2.2548    0.0043   -0.1770 C   0  0  0  0  0  0  0  0  0  0  0  0
   -1.2493   -0.3251   -1.1924 C   0  0  0  0  0  0  0  0  0  0  0  0
    0.1021   -0.7440   -0.8395 C   0  0  0  0  0  0  0  0  0  0  0  0
    0.3194   -1.9667   -0.0118 C   0  0  0  0  0  0  0  0  0  0  0  0
    0.8726   -1.0818    1.1179 C   0  0  0  0  0  0  0  0  0  0  0  0
    0.9577    0.0423    0.0888 C   0  0  0  0  0  0  0  0  0  0  0  0
    2.3169    0.1504   -0.3013 O   0  0  0  0  0  0  0  0  0  0  0  0
    2.8010    1.4480   -0.1361 C   0  0  0  0  0  0  0  0  0  0  0  0
   -2.9338    1.5087    1.1636 H   0  0  0  0  0  0  0  0  0  0  0  0
   -1.5103    2.0096    0.2446 H   0  0  0  0  0  0  0  0  0  0  0  0
   -1.3763    0.8673    1.6536 H   0  0  0  0  0  0  0  0  0  0  0  0
   -3.1810    0.3611   -0.7332 H   0  0  0  0  0  0  0  0  0  0  0  0
   -2.6490   -0.8671    0.3960 H   0  0  0  0  0  0  0  0  0  0  0  0
   -1.1893    0.5610   -1.8993 H   0  0  0  0  0  0  0  0  0  0  0  0
   -1.7121   -1.1128   -1.8645 H   0  0  0  0  0  0  0  0  0  0  0  0
    0.6954   -0.8984   -1.8023 H   0  0  0  0  0  0  0  0  0  0  0  0
    1.1082   -2.6736   -0.3422 H   0  0  0  0  0  0  0  0  0  0  0  0
   -0.5418   -2.5089    0.3612 H   0  0  0  0  0  0  0  0  0  0  0  0
    0.1799   -0.9200    1.9497 H   0  0  0  0  0  0  0  0  0  0  0  0
    1.8409   -1.4399    1.5112 H   0  0  0  0  0  0  0  0  0  0  0  0
    0.6436    1.0248    0.4222 H   0  0  0  0  0  0  0  0  0  0  0  0
    2.1709    2.1072   -0.7760 H   0  0  0  0  0  0  0  0  0  0  0  0
    3.8321    1.5010   -0.5071 H   0  0  0  0  0  0  0  0  0  0  0  0
    2.6947    1.8049    0.9189 H   0  0  0  0  0  0  0  0  0  0  0  0
  1  2  1  0
  2  3  1  0
  3  4  1  0
  4  5  1  0
  5  6  1  0
  6  7  1  0
  7  8  1  0
  8  9  1  0
  7  4  1  0
  1 10  1  0
  1 11  1  0
  1 12  1  0
  2 13  1  0
  2 14  1  0
  3 15  1  0
  3 16  1  0
  4 17  1  0
  5 18  1  0
  5 19  1  0
  6 20  1  0
  6 21  1  0
  7 22  1  0
  9 23  1  0
  9 24  1  0
  9 25  1  0
M  END
