
     RDKit          3D

 21 20  0  0  0  0  0  0  0  0999 V2000
   -3.1958    0.3278    0.5593 C   0  0  0  0  0  0  0  0  0  0  0  0
   -2.0525   -0.5969    0.1481 C   0  0  0  0  0  0  0  0  0  0  0  0
   -0.8926    0.2906   -0.2274 C   0  0  0  0  0  0  0  0  0  0  0  0
    0.3052   -0.5021   -0.6425 C   0  0  0  0  0  0  0  0  0  0  0  0
    0.2355   -1.7164   -0.6041 O   0  0  0  0  0  0  0  0  0  0  0  0
    1.5307    0.1850   -1.0824 C   0  0  0  0  0  0  0  0  0  0  0  0
    2.7547   -0.1404   -0.2652 C   0  0  0  0  0  0  0  0  0  0  0  0
    2.6308    0.1969    1.1498 C   0  0  0  0  0  0  0  0  0  0  0  0
    3.5677    0.0440    1.9034 O   0  0  0  0  0  0  0  0  0  0  0  0
   -2.7906    1.0567    1.3080 H   0  0  0  0  0  0  0  0  0  0  0  0
   -3.9250   -0.2906    1.1345 H   0  0  0  0  0  0  0  0  0  0  0  0
   -3.6206    0.8838   -0.2756 H   0  0  0  0  0  0  0  0  0  0  0  0
   -1.7693   -1.2317    0.9812 H   0  0  0  0  0  0  0  0  0  0  0  0
   -2.3723   -1.2246   -0.7260 H   0  0  0  0  0  0  0  0  0  0  0  0
   -0.5530    0.8846    0.6566 H   0  0  0  0  0  0  0  0  0  0  0  0
   -1.2415    0.9632   -1.0398 H   0  0  0  0  0  0  0  0  0  0  0  0
    1.7253   -0.1607   -2.1470 H   0  0  0  0  0  0  0  0  0  0  0  0
    1.3570    1.2762   -1.1817 H   0  0  0  0  0  0  0  0  0  0  0  0
    3.6007    0.3998   -0.7756 H   0  0  0  0  0  0  0  0  0  0  0  0
    2.9879   -1.2305   -0.4350 H   0  0  0  0  0  0  0  0  0  0  0  0
    1.7176    0.5854    1.5614 H   0  0  0  0  0  0  0  0  0  0  0  0
  1  2  1  0
  2  3  1  0
  3  4  1  0
  4  5  2  0
  4  6  1  0
  6  7  1  0
  7  8  1  0
  8  9  2  0
  1 10  1  0
  1 11  1  0
  1 12  1  0
  2 13  1  0
  2 14  1  0
  3 15  1  0
  3 16  1  0
  6 17  1  0
  6 18  1  0
  7 19  1  0
  7 20  1  0
  8 21  1  0
M  END
