
     RDKit          3D

 23 22  0  0  0  0  0  0  0  0999 V2000
    2.8003   -0.8401    0.4359 C   0  0  0  0  0  0  0  0  0  0  0  0
    1.4112   -0.4375    0.8529 C   0  0  0  0  0  0  0  0  0  0  0  0
    0.7066    0.3517   -0.2414 C   0  0  0  0  0  0  0  0  0  0  0  0
   -0.6788    0.7483    0.1853 C   0  0  0  0  0  0  0  0  0  0  0  0
   -1.2806    1.5307   -0.9911 C   0  0  0  0  0  0  0  0  0  0  0  0
   -0.6612    1.6063    1.2710 O   0  0  0  0  0  0  0  0  0  0  0  0
   -1.5714   -0.3783    0.4487 C   0  0  0  0  0  0  0  0  0  0  0  0
   -1.8209   -1.4886   -0.5157 C   0  0  0  0  0  0  0  0  0  0  0  0
   -2.1496   -0.4161    1.5224 O   0  0  0  0  0  0  0  0  0  0  0  0
    2.9373   -0.5317   -0.6194 H   0  0  0  0  0  0  0  0  0  0  0  0
    2.9481   -1.9360    0.4639 H   0  0  0  0  0  0  0  0  0  0  0  0
    3.5492   -0.2975    1.0539 H   0  0  0  0  0  0  0  0  0  0  0  0
    0.8484   -1.3679    1.0671 H   0  0  0  0  0  0  0  0  0  0  0  0
    1.4589    0.1605    1.7822 H   0  0  0  0  0  0  0  0  0  0  0  0
    0.6652   -0.2209   -1.1652 H   0  0  0  0  0  0  0  0  0  0  0  0
    1.2983    1.2760   -0.4000 H   0  0  0  0  0  0  0  0  0  0  0  0
   -1.3766    0.7816   -1.8117 H   0  0  0  0  0  0  0  0  0  0  0  0
   -2.2786    1.9087   -0.7546 H   0  0  0  0  0  0  0  0  0  0  0  0
   -0.5753    2.3342   -1.2915 H   0  0  0  0  0  0  0  0  0  0  0  0
   -0.4320    2.5342    1.0488 H   0  0  0  0  0  0  0  0  0  0  0  0
   -1.4917   -2.4668   -0.1406 H   0  0  0  0  0  0  0  0  0  0  0  0
   -1.3809   -1.2776   -1.5104 H   0  0  0  0  0  0  0  0  0  0  0  0
   -2.9259   -1.5733   -0.6904 H   0  0  0  0  0  0  0  0  0  0  0  0
  1  2  1  0
  2  3  1  0
  3  4  1  0
  4  5  1  0
  4  6  1  0
  4  7  1  0
  7  8  1  0
  7  9  2  0
  1 10  1  0
  1 11  1  0
  1 12  1  0
  2 13  1  0
  2 14  1  0
  3 15  1  0
  3 16  1  0
  5 17  1  0
  5 18  1  0
  5 19  1  0
  6 20  1  0
  8 21  1  0
  8 22  1  0
  8 23  1  0
M  END
