
     RDKit          3D

 23 24  0  0  0  0  0  0  0  0999 V2000
    3.0083   -0.0529    0.0052 C   0  0  0  0  0  0  0  0  0  0  0  0
    1.5805    0.1222    0.4603 C   0  0  0  0  0  0  0  0  0  0  0  0
    0.5961    0.0025   -0.6960 C   0  0  0  0  0  0  0  0  0  0  0  0
   -0.7761    0.1971   -0.0976 C   0  0  0  0  0  0  0  0  0  0  0  0
   -0.9310    1.5465    0.5685 C   0  0  0  0  0  0  0  0  0  0  0  0
   -1.9364   -0.1065   -0.9760 C   0  0  0  0  0  0  0  0  0  0  0  0
   -2.2113   -1.3436   -0.1486 C   0  0  0  0  0  0  0  0  0  0  0  0
   -2.4043   -1.1465    1.2031 O   0  0  0  0  0  0  0  0  0  0  0  0
   -1.1013   -0.9734    0.8109 C   0  0  0  0  0  0  0  0  0  0  0  0
    3.6471    0.6400    0.5930 H   0  0  0  0  0  0  0  0  0  0  0  0
    3.3431   -1.0893    0.2936 H   0  0  0  0  0  0  0  0  0  0  0  0
    3.1561    0.1114   -1.0665 H   0  0  0  0  0  0  0  0  0  0  0  0
    1.3450   -0.6131    1.2333 H   0  0  0  0  0  0  0  0  0  0  0  0
    1.4536    1.1277    0.9088 H   0  0  0  0  0  0  0  0  0  0  0  0
    0.6277   -0.9722   -1.1806 H   0  0  0  0  0  0  0  0  0  0  0  0
    0.8339    0.7867   -1.4511 H   0  0  0  0  0  0  0  0  0  0  0  0
   -0.5877    2.3035   -0.1813 H   0  0  0  0  0  0  0  0  0  0  0  0
   -2.0370    1.6712    0.7610 H   0  0  0  0  0  0  0  0  0  0  0  0
   -0.4240    1.6233    1.5335 H   0  0  0  0  0  0  0  0  0  0  0  0
   -1.7598   -0.3050   -2.0310 H   0  0  0  0  0  0  0  0  0  0  0  0
   -2.8260    0.5804   -0.8763 H   0  0  0  0  0  0  0  0  0  0  0  0
   -2.2418   -2.3290   -0.6069 H   0  0  0  0  0  0  0  0  0  0  0  0
   -0.3544   -1.7810    0.9410 H   0  0  0  0  0  0  0  0  0  0  0  0
  1  2  1  0
  2  3  1  0
  3  4  1  0
  4  5  1  0
  4  6  1  0
  6  7  1  0
  7  8  1  0
  8  9  1  0
  9  4  1  0
  9  7  1  0
  1 10  1  0
  1 11  1  0
  1 12  1  0
  2 13  1  0
  2 14  1  0
  3 15  1  0
  3 16  1  0
  5 17  1  0
  5 18  1  0
  5 19  1  0
  6 20  1  0
  6 21  1  0
  7 22  1  0
  9 23  1  0
M  END
