
     RDKit          3D

 25 25  0  0  0  0  0  0  0  0999 V2000
    2.2548    1.5580   -0.0605 C   0  0  0  0  0  0  0  0  0  0  0  0
    1.1945    1.2787   -1.0792 C   0  0  0  0  0  0  0  0  0  0  0  0
    0.7882   -0.1799   -1.1046 C   0  0  0  0  0  0  0  0  0  0  0  0
    0.2399   -0.6158    0.2449 C   0  0  0  0  0  0  0  0  0  0  0  0
   -0.1328   -2.0858    0.1031 C   0  0  0  0  0  0  0  0  0  0  0  0
   -1.5898   -2.0744   -0.1965 C   0  0  0  0  0  0  0  0  0  0  0  0
   -2.0760   -0.7725    0.3097 C   0  0  0  0  0  0  0  0  0  0  0  0
   -1.0469    0.0389    0.5547 C   0  0  0  0  0  0  0  0  0  0  0  0
   -1.2627    1.4221    1.0767 C   0  0  0  0  0  0  0  0  0  0  0  0
    3.2258    1.1119   -0.3495 H   0  0  0  0  0  0  0  0  0  0  0  0
    2.4189    2.6624   -0.0540 H   0  0  0  0  0  0  0  0  0  0  0  0
    1.9706    1.2842    0.9646 H   0  0  0  0  0  0  0  0  0  0  0  0
    1.5887    1.5556   -2.0756 H   0  0  0  0  0  0  0  0  0  0  0  0
    0.2979    1.8828   -0.8928 H   0  0  0  0  0  0  0  0  0  0  0  0
    0.0375   -0.3370   -1.8905 H   0  0  0  0  0  0  0  0  0  0  0  0
    1.6928   -0.7631   -1.3643 H   0  0  0  0  0  0  0  0  0  0  0  0
    0.9828   -0.4986    1.0467 H   0  0  0  0  0  0  0  0  0  0  0  0
    0.4779   -2.5685   -0.7045 H   0  0  0  0  0  0  0  0  0  0  0  0
    0.0833   -2.5979    1.0641 H   0  0  0  0  0  0  0  0  0  0  0  0
   -2.1554   -2.9075    0.2615 H   0  0  0  0  0  0  0  0  0  0  0  0
   -1.7664   -2.0951   -1.2896 H   0  0  0  0  0  0  0  0  0  0  0  0
   -3.1491   -0.5653    0.4431 H   0  0  0  0  0  0  0  0  0  0  0  0
   -1.9547    1.3776    1.9672 H   0  0  0  0  0  0  0  0  0  0  0  0
   -1.7877    2.0008    0.2974 H   0  0  0  0  0  0  0  0  0  0  0  0
   -0.3323    1.8884    1.4251 H   0  0  0  0  0  0  0  0  0  0  0  0
  1  2  1  0
  2  3  1  0
  3  4  1  0
  4  5  1  0
  5  6  1  0
  6  7  1  0
  7  8  2  0
  8  9  1  0
  8  4  1  0
  1 10  1  0
  1 11  1  0
  1 12  1  0
  2 13  1  0
  2 14  1  0
  3 15  1  0
  3 16  1  0
  4 17  1  0
  5 18  1  0
  5 19  1  0
  6 20  1  0
  6 21  1  0
  7 22  1  0
  9 23  1  0
  9 24  1  0
  9 25  1  0
M  END
