
     RDKit          3D

 23 22  0  0  0  0  0  0  0  0999 V2000
   -2.9360    0.1271   -0.5454 C   0  0  0  0  0  0  0  0  0  0  0  0
   -2.3616   -0.7923    0.4871 C   0  0  0  0  0  0  0  0  0  0  0  0
   -0.8782   -0.9651    0.3767 C   0  0  0  0  0  0  0  0  0  0  0  0
   -0.1259    0.2872    0.5224 C   0  0  0  0  0  0  0  0  0  0  0  0
   -0.6286    1.3860    0.7163 O   0  0  0  0  0  0  0  0  0  0  0  0
    1.3558    0.2397    0.4310 C   0  0  0  0  0  0  0  0  0  0  0  0
    2.0001    1.5785    0.5958 C   0  0  0  0  0  0  0  0  0  0  0  0
    1.8187   -0.4084   -0.8578 C   0  0  0  0  0  0  0  0  0  0  0  0
    3.2210   -0.3963   -0.8308 O   0  0  0  0  0  0  0  0  0  0  0  0
   -2.7053   -0.2144   -1.5652 H   0  0  0  0  0  0  0  0  0  0  0  0
   -4.0490    0.0965   -0.4275 H   0  0  0  0  0  0  0  0  0  0  0  0
   -2.6380    1.1681   -0.4578 H   0  0  0  0  0  0  0  0  0  0  0  0
   -2.8172   -1.8062    0.3039 H   0  0  0  0  0  0  0  0  0  0  0  0
   -2.6806   -0.4939    1.4972 H   0  0  0  0  0  0  0  0  0  0  0  0
   -0.6356   -1.5027   -0.5659 H   0  0  0  0  0  0  0  0  0  0  0  0
   -0.5645   -1.6509    1.1986 H   0  0  0  0  0  0  0  0  0  0  0  0
    1.7066   -0.4195    1.2650 H   0  0  0  0  0  0  0  0  0  0  0  0
    2.0105    1.9011    1.6529 H   0  0  0  0  0  0  0  0  0  0  0  0
    3.0139    1.5637    0.1441 H   0  0  0  0  0  0  0  0  0  0  0  0
    1.3993    2.3103   -0.0063 H   0  0  0  0  0  0  0  0  0  0  0  0
    1.5113    0.1643   -1.7456 H   0  0  0  0  0  0  0  0  0  0  0  0
    1.4809   -1.4528   -0.9350 H   0  0  0  0  0  0  0  0  0  0  0  0
    3.5023   -0.7200    0.0807 H   0  0  0  0  0  0  0  0  0  0  0  0
  1  2  1  0
  2  3  1  0
  3  4  1  0
  4  5  2  0
  4  6  1  0
  6  7  1  0
  6  8  1  0
  8  9  1  0
  1 10  1  0
  1 11  1  0
  1 12  1  0
  2 13  1  0
  2 14  1  0
  3 15  1  0
  3 16  1  0
  6 17  1  0
  7 18  1  0
  7 19  1  0
  7 20  1  0
  8 21  1  0
  8 22  1  0
  9 23  1  0
M  END
