
     RDKit          3D

 25 24  0  0  0  0  0  0  0  0999 V2000
   -3.0885   -1.6175    0.2336 C   0  0  0  0  0  0  0  0  0  0  0  0
   -1.7396   -1.1109   -0.2291 C   0  0  0  0  0  0  0  0  0  0  0  0
   -1.3367    0.1026    0.5519 C   0  0  0  0  0  0  0  0  0  0  0  0
    0.0069    0.6112    0.0936 C   0  0  0  0  0  0  0  0  0  0  0  0
    1.1057   -0.4186    0.2651 C   0  0  0  0  0  0  0  0  0  0  0  0
    2.2511    0.1594   -0.3316 O   0  0  0  0  0  0  0  0  0  0  0  0
    3.3419   -0.6971   -0.2393 C   0  0  0  0  0  0  0  0  0  0  0  0
    0.4087    1.7546    0.7328 O   0  0  0  0  0  0  0  0  0  0  0  0
    0.6293    2.8352   -0.0882 C   0  0  0  0  0  0  0  0  0  0  0  0
   -3.1664   -2.6873   -0.0492 H   0  0  0  0  0  0  0  0  0  0  0  0
   -3.9189   -1.0908   -0.3037 H   0  0  0  0  0  0  0  0  0  0  0  0
   -3.2091   -1.4945    1.3477 H   0  0  0  0  0  0  0  0  0  0  0  0
   -1.8469   -0.8297   -1.3072 H   0  0  0  0  0  0  0  0  0  0  0  0
   -1.0335   -1.9601   -0.1169 H   0  0  0  0  0  0  0  0  0  0  0  0
   -1.3845   -0.0837    1.6275 H   0  0  0  0  0  0  0  0  0  0  0  0
   -2.0726    0.9021    0.3214 H   0  0  0  0  0  0  0  0  0  0  0  0
   -0.0595    0.8058   -1.0049 H   0  0  0  0  0  0  0  0  0  0  0  0
    1.2904   -0.5297    1.3509 H   0  0  0  0  0  0  0  0  0  0  0  0
    0.9096   -1.3605   -0.2537 H   0  0  0  0  0  0  0  0  0  0  0  0
    3.1109   -1.6616   -0.7647 H   0  0  0  0  0  0  0  0  0  0  0  0
    3.5910   -0.9353    0.8129 H   0  0  0  0  0  0  0  0  0  0  0  0
    4.1859   -0.1841   -0.7452 H   0  0  0  0  0  0  0  0  0  0  0  0
    1.4079    2.6728   -0.8504 H   0  0  0  0  0  0  0  0  0  0  0  0
   -0.3296    3.1338   -0.5560 H   0  0  0  0  0  0  0  0  0  0  0  0
    0.9464    3.6840    0.5560 H   0  0  0  0  0  0  0  0  0  0  0  0
  1  2  1  0
  2  3  1  0
  3  4  1  0
  4  5  1  0
  5  6  1  0
  6  7  1  0
  4  8  1  0
  8  9  1  0
  1 10  1  0
  1 11  1  0
  1 12  1  0
  2 13  1  0
  2 14  1  0
  3 15  1  0
  3 16  1  0
  4 17  1  0
  5 18  1  0
  5 19  1  0
  7 20  1  0
  7 21  1  0
  7 22  1  0
  9 23  1  0
  9 24  1  0
  9 25  1  0
M  END
