
     RDKit          3D

 23 24  0  0  0  0  0  0  0  0999 V2000
   -2.3434    1.1679    0.2922 C   0  0  0  0  0  0  0  0  0  0  0  0
   -2.5512   -0.3206    0.4736 C   0  0  0  0  0  0  0  0  0  0  0  0
   -1.3603   -1.0741   -0.0879 C   0  0  0  0  0  0  0  0  0  0  0  0
   -0.1445   -0.6018    0.6860 C   0  0  0  0  0  0  0  0  0  0  0  0
    1.1517   -1.2512    0.2600 C   0  0  0  0  0  0  0  0  0  0  0  0
    1.5310    0.1810    0.1291 C   0  0  0  0  0  0  0  0  0  0  0  0
    2.6729    0.8072    0.7625 C   0  0  0  0  0  0  0  0  0  0  0  0
    2.5504    0.6619   -0.7805 C   0  0  0  0  0  0  0  0  0  0  0  0
    0.2458    0.6394    0.2183 O   0  0  0  0  0  0  0  0  0  0  0  0
   -3.3529    1.6190    0.1902 H   0  0  0  0  0  0  0  0  0  0  0  0
   -1.8608    1.5877    1.1961 H   0  0  0  0  0  0  0  0  0  0  0  0
   -1.7919    1.4045   -0.6386 H   0  0  0  0  0  0  0  0  0  0  0  0
   -3.4741   -0.6801   -0.0175 H   0  0  0  0  0  0  0  0  0  0  0  0
   -2.5907   -0.5651    1.5683 H   0  0  0  0  0  0  0  0  0  0  0  0
   -1.2531   -0.7787   -1.1573 H   0  0  0  0  0  0  0  0  0  0  0  0
   -1.5375   -2.1596    0.0272 H   0  0  0  0  0  0  0  0  0  0  0  0
   -0.3116   -0.6885    1.7689 H   0  0  0  0  0  0  0  0  0  0  0  0
    1.6353   -1.8325    1.0482 H   0  0  0  0  0  0  0  0  0  0  0  0
    1.0783   -1.7964   -0.7156 H   0  0  0  0  0  0  0  0  0  0  0  0
    2.5674    1.8595    1.1139 H   0  0  0  0  0  0  0  0  0  0  0  0
    3.4992    0.2576    1.2460 H   0  0  0  0  0  0  0  0  0  0  0  0
    3.2739   -0.0303   -1.2422 H   0  0  0  0  0  0  0  0  0  0  0  0
    2.3660    1.5932   -1.3503 H   0  0  0  0  0  0  0  0  0  0  0  0
  1  2  1  0
  2  3  1  0
  3  4  1  0
  4  5  1  0
  5  6  1  0
  6  7  1  0
  7  8  1  0
  6  9  1  0
  9  4  1  0
  8  6  1  0
  1 10  1  0
  1 11  1  0
  1 12  1  0
  2 13  1  0
  2 14  1  0
  3 15  1  0
  3 16  1  0
  4 17  1  0
  5 18  1  0
  5 19  1  0
  7 20  1  0
  7 21  1  0
  8 22  1  0
  8 23  1  0
M  END
