
     RDKit          3D

 27 26  0  0  0  0  0  0  0  0999 V2000
    3.6091    0.8548    0.4151 C   0  0  0  0  0  0  0  0  0  0  0  0
    2.5086    0.2162   -0.3823 C   0  0  0  0  0  0  0  0  0  0  0  0
    1.2641    0.1997    0.4655 C   0  0  0  0  0  0  0  0  0  0  0  0
    0.0943   -0.4396   -0.2842 C   0  0  0  0  0  0  0  0  0  0  0  0
    0.5165   -1.8491   -0.6153 C   0  0  0  0  0  0  0  0  0  0  0  0
   -1.0276   -0.4061    0.5129 O   0  0  0  0  0  0  0  0  0  0  0  0
   -2.0546    0.2825   -0.0855 C   0  0  0  0  0  0  0  0  0  0  0  0
   -2.5630    1.4458    0.7105 C   0  0  0  0  0  0  0  0  0  0  0  0
   -3.2205   -0.7038   -0.2355 C   0  0  0  0  0  0  0  0  0  0  0  0
    4.5026    1.0953   -0.2276 H   0  0  0  0  0  0  0  0  0  0  0  0
    3.2793    1.7584    0.9658 H   0  0  0  0  0  0  0  0  0  0  0  0
    4.0080    0.1505    1.1943 H   0  0  0  0  0  0  0  0  0  0  0  0
    2.3484    0.7538   -1.3231 H   0  0  0  0  0  0  0  0  0  0  0  0
    2.7759   -0.8544   -0.5723 H   0  0  0  0  0  0  0  0  0  0  0  0
    1.4773   -0.4191    1.3553 H   0  0  0  0  0  0  0  0  0  0  0  0
    1.0471    1.2349    0.7675 H   0  0  0  0  0  0  0  0  0  0  0  0
   -0.0522    0.0930   -1.2469 H   0  0  0  0  0  0  0  0  0  0  0  0
   -0.3449   -2.5141   -0.8280 H   0  0  0  0  0  0  0  0  0  0  0  0
    1.1235   -1.8081   -1.5400 H   0  0  0  0  0  0  0  0  0  0  0  0
    1.0888   -2.3332    0.1997 H   0  0  0  0  0  0  0  0  0  0  0  0
   -1.7359    0.6525   -1.0781 H   0  0  0  0  0  0  0  0  0  0  0  0
   -3.4822    1.8198    0.1802 H   0  0  0  0  0  0  0  0  0  0  0  0
   -2.8742    1.1968    1.7234 H   0  0  0  0  0  0  0  0  0  0  0  0
   -1.8631    2.3104    0.7066 H   0  0  0  0  0  0  0  0  0  0  0  0
   -4.0510   -0.1678   -0.7130 H   0  0  0  0  0  0  0  0  0  0  0  0
   -2.8706   -1.5719   -0.8520 H   0  0  0  0  0  0  0  0  0  0  0  0
   -3.5034   -0.9971    0.7870 H   0  0  0  0  0  0  0  0  0  0  0  0
  1  2  1  0
  2  3  1  0
  3  4  1  0
  4  5  1  0
  4  6  1  0
  6  7  1  0
  7  8  1  0
  7  9  1  0
  1 10  1  0
  1 11  1  0
  1 12  1  0
  2 13  1  0
  2 14  1  0
  3 15  1  0
  3 16  1  0
  4 17  1  0
  5 18  1  0
  5 19  1  0
  5 20  1  0
  7 21  1  0
  8 22  1  0
  8 23  1  0
  8 24  1  0
  9 25  1  0
  9 26  1  0
  9 27  1  0
M  END
