
     RDKit          3D

 25 25  0  0  0  0  0  0  0  0999 V2000
    3.5327   -0.4491    0.2479 C   0  0  0  0  0  0  0  0  0  0  0  0
    2.0039   -0.5445    0.0837 C   0  0  0  0  0  0  0  0  0  0  0  0
    1.3414    0.3349    1.0960 C   0  0  0  0  0  0  0  0  0  0  0  0
   -0.1428    0.3440    1.0895 C   0  0  0  0  0  0  0  0  0  0  0  0
   -0.7375    0.8055   -0.1895 C   0  0  0  0  0  0  0  0  0  0  0  0
   -0.4623    0.0950   -1.3451 O   0  0  0  0  0  0  0  0  0  0  0  0
   -1.5495   -0.7440   -1.0086 C   0  0  0  0  0  0  0  0  0  0  0  0
   -2.1951    0.4638   -0.3989 C   0  0  0  0  0  0  0  0  0  0  0  0
   -3.0043    0.2582    0.8297 C   0  0  0  0  0  0  0  0  0  0  0  0
    3.9542   -0.7820   -0.7239 H   0  0  0  0  0  0  0  0  0  0  0  0
    3.8453    0.5807    0.4689 H   0  0  0  0  0  0  0  0  0  0  0  0
    3.7981   -1.1772    1.0247 H   0  0  0  0  0  0  0  0  0  0  0  0
    1.7358   -0.2284   -0.9593 H   0  0  0  0  0  0  0  0  0  0  0  0
    1.7501   -1.6024    0.1831 H   0  0  0  0  0  0  0  0  0  0  0  0
    1.6532   -0.0272    2.1235 H   0  0  0  0  0  0  0  0  0  0  0  0
    1.7407    1.3723    1.0363 H   0  0  0  0  0  0  0  0  0  0  0  0
   -0.4623    0.9975    1.9476 H   0  0  0  0  0  0  0  0  0  0  0  0
   -0.5121   -0.6663    1.3825 H   0  0  0  0  0  0  0  0  0  0  0  0
   -0.5700    1.9036   -0.3540 H   0  0  0  0  0  0  0  0  0  0  0  0
   -1.9906   -1.1309   -1.9369 H   0  0  0  0  0  0  0  0  0  0  0  0
   -1.2625   -1.5506   -0.3324 H   0  0  0  0  0  0  0  0  0  0  0  0
   -2.6882    1.0804   -1.1426 H   0  0  0  0  0  0  0  0  0  0  0  0
   -2.5633   -0.4147    1.5666 H   0  0  0  0  0  0  0  0  0  0  0  0
   -3.2324    1.2548    1.2677 H   0  0  0  0  0  0  0  0  0  0  0  0
   -3.9826   -0.1736    0.5341 H   0  0  0  0  0  0  0  0  0  0  0  0
  1  2  1  0
  2  3  1  0
  3  4  1  0
  4  5  1  0
  5  6  1  0
  6  7  1  0
  7  8  1  0
  8  9  1  0
  8  5  1  0
  1 10  1  0
  1 11  1  0
  1 12  1  0
  2 13  1  0
  2 14  1  0
  3 15  1  0
  3 16  1  0
  4 17  1  0
  4 18  1  0
  5 19  1  0
  7 20  1  0
  7 21  1  0
  8 22  1  0
  9 23  1  0
  9 24  1  0
  9 25  1  0
M  END
