
     RDKit          3D

 27 27  0  0  0  0  0  0  0  0999 V2000
    3.0860    0.3598    0.6967 C   0  0  0  0  0  0  0  0  0  0  0  0
    2.7087   -0.2425   -0.6423 C   0  0  0  0  0  0  0  0  0  0  0  0
    1.2935    0.2181   -0.9405 C   0  0  0  0  0  0  0  0  0  0  0  0
    0.4348   -0.3030    0.1865 C   0  0  0  0  0  0  0  0  0  0  0  0
   -1.0082    0.0586    0.0588 C   0  0  0  0  0  0  0  0  0  0  0  0
   -1.2610    1.5470    0.0335 C   0  0  0  0  0  0  0  0  0  0  0  0
   -1.8191   -0.6769   -0.9452 C   0  0  0  0  0  0  0  0  0  0  0  0
   -2.8619   -0.9415    0.1322 C   0  0  0  0  0  0  0  0  0  0  0  0
   -1.8078   -0.6393    1.1469 C   0  0  0  0  0  0  0  0  0  0  0  0
    4.2058    0.4834    0.7619 H   0  0  0  0  0  0  0  0  0  0  0  0
    2.5864    1.3457    0.7924 H   0  0  0  0  0  0  0  0  0  0  0  0
    2.7581   -0.3100    1.5131 H   0  0  0  0  0  0  0  0  0  0  0  0
    3.4206    0.0399   -1.4415 H   0  0  0  0  0  0  0  0  0  0  0  0
    2.6457   -1.3613   -0.5447 H   0  0  0  0  0  0  0  0  0  0  0  0
    1.3159    1.3250   -0.9211 H   0  0  0  0  0  0  0  0  0  0  0  0
    0.9586   -0.1268   -1.9294 H   0  0  0  0  0  0  0  0  0  0  0  0
    0.8167    0.1822    1.1255 H   0  0  0  0  0  0  0  0  0  0  0  0
    0.5141   -1.4062    0.2676 H   0  0  0  0  0  0  0  0  0  0  0  0
   -1.3300    1.8681   -1.0332 H   0  0  0  0  0  0  0  0  0  0  0  0
   -0.4381    2.0549    0.5562 H   0  0  0  0  0  0  0  0  0  0  0  0
   -2.2517    1.7298    0.4846 H   0  0  0  0  0  0  0  0  0  0  0  0
   -1.3983   -1.5768   -1.3941 H   0  0  0  0  0  0  0  0  0  0  0  0
   -2.1847    0.0133   -1.7469 H   0  0  0  0  0  0  0  0  0  0  0  0
   -3.2716   -1.9687    0.1356 H   0  0  0  0  0  0  0  0  0  0  0  0
   -3.6577   -0.1786    0.1165 H   0  0  0  0  0  0  0  0  0  0  0  0
   -1.2911   -1.5336    1.5871 H   0  0  0  0  0  0  0  0  0  0  0  0
   -2.1637    0.0397    1.9435 H   0  0  0  0  0  0  0  0  0  0  0  0
  1  2  1  0
  2  3  1  0
  3  4  1  0
  4  5  1  0
  5  6  1  0
  5  7  1  0
  7  8  1  0
  8  9  1  0
  9  5  1  0
  1 10  1  0
  1 11  1  0
  1 12  1  0
  2 13  1  0
  2 14  1  0
  3 15  1  0
  3 16  1  0
  4 17  1  0
  4 18  1  0
  6 19  1  0
  6 20  1  0
  6 21  1  0
  7 22  1  0
  7 23  1  0
  8 24  1  0
  8 25  1  0
  9 26  1  0
  9 27  1  0
M  END
