
     RDKit          3D

 22 22  0  0  0  0  0  0  0  0999 V2000
   -2.6114    0.6367   -0.3030 C   0  0  0  0  0  0  0  0  0  0  0  0
   -2.2646   -0.5486    0.5643 C   0  0  0  0  0  0  0  0  0  0  0  0
   -0.7960   -0.4071    0.9807 C   0  0  0  0  0  0  0  0  0  0  0  0
    0.0805   -0.3841   -0.2553 C   0  0  0  0  0  0  0  0  0  0  0  0
    1.5136   -0.2472    0.1224 C   0  0  0  0  0  0  0  0  0  0  0  0
    2.0117   -1.2629    0.9228 O   0  0  0  0  0  0  0  0  0  0  0  0
    2.4138    0.3270   -0.9677 C   0  0  0  0  0  0  0  0  0  0  0  0
    2.1409    1.0862    0.2831 C   0  0  0  0  0  0  0  0  0  0  0  0
   -1.8547    1.4449   -0.1945 H   0  0  0  0  0  0  0  0  0  0  0  0
   -2.6327    0.3741   -1.3891 H   0  0  0  0  0  0  0  0  0  0  0  0
   -3.6316    0.9770    0.0383 H   0  0  0  0  0  0  0  0  0  0  0  0
   -2.4481   -1.4919    0.0512 H   0  0  0  0  0  0  0  0  0  0  0  0
   -2.8427   -0.5333    1.5225 H   0  0  0  0  0  0  0  0  0  0  0  0
   -0.4689   -1.2666    1.5988 H   0  0  0  0  0  0  0  0  0  0  0  0
   -0.6321    0.5375    1.5215 H   0  0  0  0  0  0  0  0  0  0  0  0
   -0.0527   -1.3488   -0.8180 H   0  0  0  0  0  0  0  0  0  0  0  0
   -0.2678    0.4054   -0.9515 H   0  0  0  0  0  0  0  0  0  0  0  0
    2.4793   -1.9619    0.4292 H   0  0  0  0  0  0  0  0  0  0  0  0
    1.9741    0.7251   -1.8812 H   0  0  0  0  0  0  0  0  0  0  0  0
    3.3532   -0.2506   -1.0933 H   0  0  0  0  0  0  0  0  0  0  0  0
    1.5413    2.0174    0.2216 H   0  0  0  0  0  0  0  0  0  0  0  0
    2.9950    1.1716    0.9821 H   0  0  0  0  0  0  0  0  0  0  0  0
  1  2  1  0
  2  3  1  0
  3  4  1  0
  4  5  1  0
  5  6  1  0
  5  7  1  0
  7  8  1  0
  8  5  1  0
  1  9  1  0
  1 10  1  0
  1 11  1  0
  2 12  1  0
  2 13  1  0
  3 14  1  0
  3 15  1  0
  4 16  1  0
  4 17  1  0
  6 18  1  0
  7 19  1  0
  7 20  1  0
  8 21  1  0
  8 22  1  0
M  END
