
     RDKit          3D

 27 26  0  0  0  0  0  0  0  0999 V2000
   -2.9016   -1.1496    0.6343 C   0  0  0  0  0  0  0  0  0  0  0  0
   -1.8029   -0.1058    0.8577 C   0  0  0  0  0  0  0  0  0  0  0  0
   -1.2826    0.2203   -0.5329 C   0  0  0  0  0  0  0  0  0  0  0  0
   -0.1851    1.2435   -0.4842 C   0  0  0  0  0  0  0  0  0  0  0  0
   -0.6414    2.5489    0.1321 C   0  0  0  0  0  0  0  0  0  0  0  0
    1.0329    0.7647    0.2476 C   0  0  0  0  0  0  0  0  0  0  0  0
    1.6282   -0.4682   -0.3980 C   0  0  0  0  0  0  0  0  0  0  0  0
    2.7557   -0.8837    0.3069 O   0  0  0  0  0  0  0  0  0  0  0  0
    3.3313   -2.0123   -0.2537 C   0  0  0  0  0  0  0  0  0  0  0  0
   -2.5340   -1.8163   -0.1563 H   0  0  0  0  0  0  0  0  0  0  0  0
   -3.8073   -0.5779    0.2992 H   0  0  0  0  0  0  0  0  0  0  0  0
   -3.0886   -1.7384    1.5497 H   0  0  0  0  0  0  0  0  0  0  0  0
   -1.0333   -0.5737    1.4794 H   0  0  0  0  0  0  0  0  0  0  0  0
   -2.2118    0.7789    1.3585 H   0  0  0  0  0  0  0  0  0  0  0  0
   -0.9162   -0.6792   -1.0180 H   0  0  0  0  0  0  0  0  0  0  0  0
   -2.0977    0.6337   -1.1545 H   0  0  0  0  0  0  0  0  0  0  0  0
    0.1222    1.4393   -1.5380 H   0  0  0  0  0  0  0  0  0  0  0  0
   -0.8088    2.3839    1.2054 H   0  0  0  0  0  0  0  0  0  0  0  0
   -1.5360    2.9256   -0.4013 H   0  0  0  0  0  0  0  0  0  0  0  0
    0.1909    3.2851   -0.0564 H   0  0  0  0  0  0  0  0  0  0  0  0
    0.8544    0.6220    1.3342 H   0  0  0  0  0  0  0  0  0  0  0  0
    1.8098    1.5705    0.1354 H   0  0  0  0  0  0  0  0  0  0  0  0
    1.8465   -0.2120   -1.4502 H   0  0  0  0  0  0  0  0  0  0  0  0
    0.8951   -1.3136   -0.3275 H   0  0  0  0  0  0  0  0  0  0  0  0
    2.5570   -2.8131   -0.2281 H   0  0  0  0  0  0  0  0  0  0  0  0
    3.6086   -1.7505   -1.3100 H   0  0  0  0  0  0  0  0  0  0  0  0
    4.2147   -2.3222    0.3269 H   0  0  0  0  0  0  0  0  0  0  0  0
  1  2  1  0
  2  3  1  0
  3  4  1  0
  4  5  1  0
  4  6  1  0
  6  7  1  0
  7  8  1  0
  8  9  1  0
  1 10  1  0
  1 11  1  0
  1 12  1  0
  2 13  1  0
  2 14  1  0
  3 15  1  0
  3 16  1  0
  4 17  1  0
  5 18  1  0
  5 19  1  0
  5 20  1  0
  6 21  1  0
  6 22  1  0
  7 23  1  0
  7 24  1  0
  9 25  1  0
  9 26  1  0
  9 27  1  0
M  END
