
     RDKit          3D

 23 24  0  0  0  0  0  0  0  0999 V2000
    3.2163   -0.4432    0.1639 C   0  0  0  0  0  0  0  0  0  0  0  0
    1.7818   -0.5094   -0.2469 C   0  0  0  0  0  0  0  0  0  0  0  0
    1.3802    0.8037   -0.9039 C   0  0  0  0  0  0  0  0  0  0  0  0
   -0.0917    0.7510   -1.3316 C   0  0  0  0  0  0  0  0  0  0  0  0
   -0.9334    0.5174   -0.0986 C   0  0  0  0  0  0  0  0  0  0  0  0
   -2.4054    0.4198   -0.2004 C   0  0  0  0  0  0  0  0  0  0  0  0
   -3.2147   -0.2637    0.8425 C   0  0  0  0  0  0  0  0  0  0  0  0
   -2.1646   -1.1169    1.2071 O   0  0  0  0  0  0  0  0  0  0  0  0
   -1.5646   -0.8032   -0.0015 C   0  0  0  0  0  0  0  0  0  0  0  0
    3.7292    0.3198   -0.4521 H   0  0  0  0  0  0  0  0  0  0  0  0
    3.6968   -1.4294    0.0624 H   0  0  0  0  0  0  0  0  0  0  0  0
    3.2772   -0.1616    1.2362 H   0  0  0  0  0  0  0  0  0  0  0  0
    1.1685   -0.7063    0.6519 H   0  0  0  0  0  0  0  0  0  0  0  0
    1.6282   -1.3579   -0.9395 H   0  0  0  0  0  0  0  0  0  0  0  0
    2.0260    0.9700   -1.7794 H   0  0  0  0  0  0  0  0  0  0  0  0
    1.5512    1.6257   -0.1958 H   0  0  0  0  0  0  0  0  0  0  0  0
   -0.3673    1.6991   -1.8010 H   0  0  0  0  0  0  0  0  0  0  0  0
   -0.1599   -0.0977   -2.0425 H   0  0  0  0  0  0  0  0  0  0  0  0
   -0.5376    1.0459    0.7973 H   0  0  0  0  0  0  0  0  0  0  0  0
   -2.8388    0.6653   -1.1799 H   0  0  0  0  0  0  0  0  0  0  0  0
   -3.5659    0.4145    1.6244 H   0  0  0  0  0  0  0  0  0  0  0  0
   -4.0901   -0.8337    0.4184 H   0  0  0  0  0  0  0  0  0  0  0  0
   -1.5214   -1.5090   -0.8259 H   0  0  0  0  0  0  0  0  0  0  0  0
  1  2  1  0
  2  3  1  0
  3  4  1  0
  4  5  1  0
  5  6  1  0
  6  7  1  0
  7  8  1  0
  8  9  1  0
  9  5  1  0
  9  6  1  0
  1 10  1  0
  1 11  1  0
  1 12  1  0
  2 13  1  0
  2 14  1  0
  3 15  1  0
  3 16  1  0
  4 17  1  0
  4 18  1  0
  5 19  1  0
  6 20  1  0
  7 21  1  0
  7 22  1  0
  9 23  1  0
M  END
