
     RDKit          3D

 21 21  0  0  0  0  0  0  0  0999 V2000
    3.0814   -0.4749   -0.1931 C   0  0  0  0  0  0  0  0  0  0  0  0
    1.7342   -0.1743    0.4795 C   0  0  0  0  0  0  0  0  0  0  0  0
    0.6910    0.1607   -0.5624 C   0  0  0  0  0  0  0  0  0  0  0  0
   -0.6094    0.4484    0.1476 C   0  0  0  0  0  0  0  0  0  0  0  0
   -1.7097    0.7987   -0.8287 C   0  0  0  0  0  0  0  0  0  0  0  0
   -2.9321    0.4630   -0.0775 C   0  0  0  0  0  0  0  0  0  0  0  0
   -2.6351   -0.4253    0.8522 C   0  0  0  0  0  0  0  0  0  0  0  0
   -1.2053   -0.7424    0.7894 C   0  0  0  0  0  0  0  0  0  0  0  0
   -0.7089   -1.8019    1.2093 O   0  0  0  0  0  0  0  0  0  0  0  0
    3.6514   -1.2060    0.4151 H   0  0  0  0  0  0  0  0  0  0  0  0
    2.9154   -0.9192   -1.1867 H   0  0  0  0  0  0  0  0  0  0  0  0
    3.6906    0.4576   -0.2263 H   0  0  0  0  0  0  0  0  0  0  0  0
    1.4924   -1.0734    1.0810 H   0  0  0  0  0  0  0  0  0  0  0  0
    1.9182    0.6894    1.1477 H   0  0  0  0  0  0  0  0  0  0  0  0
    1.0252    1.1039   -1.0437 H   0  0  0  0  0  0  0  0  0  0  0  0
    0.6041   -0.5880   -1.3429 H   0  0  0  0  0  0  0  0  0  0  0  0
   -0.4953    1.2139    0.9368 H   0  0  0  0  0  0  0  0  0  0  0  0
   -1.5637    0.1230   -1.7116 H   0  0  0  0  0  0  0  0  0  0  0  0
   -1.6592    1.8647   -1.1222 H   0  0  0  0  0  0  0  0  0  0  0  0
   -3.9054    0.9170   -0.3065 H   0  0  0  0  0  0  0  0  0  0  0  0
   -3.3796   -0.8347    1.5429 H   0  0  0  0  0  0  0  0  0  0  0  0
  1  2  1  0
  2  3  1  0
  3  4  1  0
  4  5  1  0
  5  6  1  0
  6  7  2  0
  7  8  1  0
  8  9  2  0
  8  4  1  0
  1 10  1  0
  1 11  1  0
  1 12  1  0
  2 13  1  0
  2 14  1  0
  3 15  1  0
  3 16  1  0
  4 17  1  0
  5 18  1  0
  5 19  1  0
  6 20  1  0
  7 21  1  0
M  END
