
     RDKit          3D

 21 22  0  0  0  0  0  0  0  0999 V2000
   -3.0943    0.6399    0.0859 C   0  0  0  0  0  0  0  0  0  0  0  0
   -1.6096    0.8827   -0.1267 C   0  0  0  0  0  0  0  0  0  0  0  0
   -0.9031   -0.4061    0.1105 C   0  0  0  0  0  0  0  0  0  0  0  0
    0.5713   -0.3039   -0.0672 C   0  0  0  0  0  0  0  0  0  0  0  0
    1.3176    0.7493   -0.3987 C   0  0  0  0  0  0  0  0  0  0  0  0
    2.6920    0.3138   -0.4410 C   0  0  0  0  0  0  0  0  0  0  0  0
    3.6447    0.0651    0.4074 O   0  0  0  0  0  0  0  0  0  0  0  0
    2.6038   -0.5921    0.8133 C   0  0  0  0  0  0  0  0  0  0  0  0
    1.5555   -1.4502    0.1494 C   0  0  0  0  0  0  0  0  0  0  0  0
   -3.5694    0.2439   -0.8492 H   0  0  0  0  0  0  0  0  0  0  0  0
   -3.1956   -0.1588    0.8447 H   0  0  0  0  0  0  0  0  0  0  0  0
   -3.6105    1.5480    0.4517 H   0  0  0  0  0  0  0  0  0  0  0  0
   -1.3135    1.6887    0.5730 H   0  0  0  0  0  0  0  0  0  0  0  0
   -1.5053    1.2699   -1.1594 H   0  0  0  0  0  0  0  0  0  0  0  0
   -1.0958   -0.7231    1.1485 H   0  0  0  0  0  0  0  0  0  0  0  0
   -1.3482   -1.1672   -0.5714 H   0  0  0  0  0  0  0  0  0  0  0  0
    0.8764    1.7373   -0.5881 H   0  0  0  0  0  0  0  0  0  0  0  0
    2.8866   -0.2289   -1.4254 H   0  0  0  0  0  0  0  0  0  0  0  0
    2.1322   -0.1058    1.7258 H   0  0  0  0  0  0  0  0  0  0  0  0
    1.0975   -2.1097    0.8796 H   0  0  0  0  0  0  0  0  0  0  0  0
    1.8676   -1.8929   -0.7972 H   0  0  0  0  0  0  0  0  0  0  0  0
  1  2  1  0
  2  3  1  0
  3  4  1  0
  4  5  2  0
  5  6  1  0
  6  7  1  0
  7  8  1  0
  8  9  1  0
  9  4  1  0
  8  6  1  0
  1 10  1  0
  1 11  1  0
  1 12  1  0
  2 13  1  0
  2 14  1  0
  3 15  1  0
  3 16  1  0
  5 17  1  0
  6 18  1  0
  8 19  1  0
  9 20  1  0
  9 21  1  0
M  END
