
     RDKit          3D

 21 21  0  0  0  0  0  0  0  0999 V2000
   -2.7129   -0.4141    0.1624 C   0  0  0  0  0  0  0  0  0  0  0  0
   -1.3102   -0.0160    0.6363 C   0  0  0  0  0  0  0  0  0  0  0  0
   -0.4304   -0.0408   -0.5918 C   0  0  0  0  0  0  0  0  0  0  0  0
    0.9958    0.3300   -0.2987 C   0  0  0  0  0  0  0  0  0  0  0  0
    1.0710    1.7249    0.2752 C   0  0  0  0  0  0  0  0  0  0  0  0
    1.7809    0.1170   -1.4336 O   0  0  0  0  0  0  0  0  0  0  0  0
    2.0147   -1.1868   -0.9591 C   0  0  0  0  0  0  0  0  0  0  0  0
    1.7942   -0.6686    0.4049 C   0  0  0  0  0  0  0  0  0  0  0  0
    2.1382   -0.9724    1.5214 O   0  0  0  0  0  0  0  0  0  0  0  0
   -3.4659    0.0402    0.8328 H   0  0  0  0  0  0  0  0  0  0  0  0
   -2.9130   -0.0409   -0.8596 H   0  0  0  0  0  0  0  0  0  0  0  0
   -2.8044   -1.5180    0.1203 H   0  0  0  0  0  0  0  0  0  0  0  0
   -0.9367   -0.8363    1.3071 H   0  0  0  0  0  0  0  0  0  0  0  0
   -1.3208    0.9455    1.1537 H   0  0  0  0  0  0  0  0  0  0  0  0
   -0.5470   -1.0076   -1.0916 H   0  0  0  0  0  0  0  0  0  0  0  0
   -0.8482    0.7513   -1.2802 H   0  0  0  0  0  0  0  0  0  0  0  0
    2.1127    2.0692    0.4170 H   0  0  0  0  0  0  0  0  0  0  0  0
    0.5670    1.7184    1.2446 H   0  0  0  0  0  0  0  0  0  0  0  0
    0.4902    2.3907   -0.3971 H   0  0  0  0  0  0  0  0  0  0  0  0
    3.0683   -1.4514   -1.2078 H   0  0  0  0  0  0  0  0  0  0  0  0
    1.2568   -1.9345   -1.3115 H   0  0  0  0  0  0  0  0  0  0  0  0
  1  2  1  0
  2  3  1  0
  3  4  1  0
  4  5  1  0
  4  6  1  0
  6  7  1  0
  7  8  1  0
  8  9  2  0
  8  4  1  0
  1 10  1  0
  1 11  1  0
  1 12  1  0
  2 13  1  0
  2 14  1  0
  3 15  1  0
  3 16  1  0
  5 17  1  0
  5 18  1  0
  5 19  1  0
  7 20  1  0
  7 21  1  0
M  END
