
     RDKit          3D

 25 25  0  0  0  0  0  0  0  0999 V2000
    3.9388    0.1515   -0.6634 C   0  0  0  0  0  0  0  0  0  0  0  0
    2.4706   -0.0984   -0.9578 C   0  0  0  0  0  0  0  0  0  0  0  0
    1.7582   -0.3095    0.3713 C   0  0  0  0  0  0  0  0  0  0  0  0
    0.2817   -0.5722    0.1903 C   0  0  0  0  0  0  0  0  0  0  0  0
   -0.3511    0.5916   -0.4933 C   0  0  0  0  0  0  0  0  0  0  0  0
   -1.7188    0.4290   -0.6951 O   0  0  0  0  0  0  0  0  0  0  0  0
   -2.4458    0.2614    0.4534 C   0  0  0  0  0  0  0  0  0  0  0  0
   -3.8776    0.6290    0.5469 C   0  0  0  0  0  0  0  0  0  0  0  0
   -3.5614   -0.7851    0.3145 C   0  0  0  0  0  0  0  0  0  0  0  0
    4.4396   -0.7608   -0.3145 H   0  0  0  0  0  0  0  0  0  0  0  0
    4.3957    0.5799   -1.5715 H   0  0  0  0  0  0  0  0  0  0  0  0
    4.0047    0.9539    0.1162 H   0  0  0  0  0  0  0  0  0  0  0  0
    2.3336   -0.9539   -1.6238 H   0  0  0  0  0  0  0  0  0  0  0  0
    2.0935    0.8288   -1.4436 H   0  0  0  0  0  0  0  0  0  0  0  0
    1.8553    0.6209    0.9626 H   0  0  0  0  0  0  0  0  0  0  0  0
    2.2052   -1.1347    0.9435 H   0  0  0  0  0  0  0  0  0  0  0  0
   -0.1286   -0.7687    1.1968 H   0  0  0  0  0  0  0  0  0  0  0  0
    0.2045   -1.4674   -0.4717 H   0  0  0  0  0  0  0  0  0  0  0  0
   -0.1159    1.5430   -0.0147 H   0  0  0  0  0  0  0  0  0  0  0  0
    0.0781    0.6274   -1.5379 H   0  0  0  0  0  0  0  0  0  0  0  0
   -1.8666    0.2758    1.3926 H   0  0  0  0  0  0  0  0  0  0  0  0
   -4.2712    0.8892    1.5524 H   0  0  0  0  0  0  0  0  0  0  0  0
   -4.3931    1.1958   -0.2598 H   0  0  0  0  0  0  0  0  0  0  0  0
   -3.7845   -1.1881   -0.6808 H   0  0  0  0  0  0  0  0  0  0  0  0
   -3.5452   -1.5381    1.1223 H   0  0  0  0  0  0  0  0  0  0  0  0
  1  2  1  0
  2  3  1  0
  3  4  1  0
  4  5  1  0
  5  6  1  0
  6  7  1  0
  7  8  1  0
  8  9  1  0
  9  7  1  0
  1 10  1  0
  1 11  1  0
  1 12  1  0
  2 13  1  0
  2 14  1  0
  3 15  1  0
  3 16  1  0
  4 17  1  0
  4 18  1  0
  5 19  1  0
  5 20  1  0
  7 21  1  0
  8 22  1  0
  8 23  1  0
  9 24  1  0
  9 25  1  0
M  END
