
     RDKit          3D

 21 20  0  0  0  0  0  0  0  0999 V2000
    3.0041    0.9466   -0.0721 C   0  0  0  0  0  0  0  0  0  0  0  0
    2.0963   -0.2664   -0.3142 C   0  0  0  0  0  0  0  0  0  0  0  0
    0.7229    0.1412    0.2057 C   0  0  0  0  0  0  0  0  0  0  0  0
   -0.2639   -0.9461    0.0334 C   0  0  0  0  0  0  0  0  0  0  0  0
    0.1196   -1.9960   -0.4880 O   0  0  0  0  0  0  0  0  0  0  0  0
   -1.6667   -0.8329    0.4517 C   0  0  0  0  0  0  0  0  0  0  0  0
   -2.3723   -2.0097    0.1745 O   0  0  0  0  0  0  0  0  0  0  0  0
   -2.4290    0.2854   -0.1946 C   0  0  0  0  0  0  0  0  0  0  0  0
   -1.8824    1.5356   -0.0258 O   0  0  0  0  0  0  0  0  0  0  0  0
    2.6871    1.7343   -0.8081 H   0  0  0  0  0  0  0  0  0  0  0  0
    4.0621    0.6692   -0.1820 H   0  0  0  0  0  0  0  0  0  0  0  0
    2.8588    1.3020    0.9607 H   0  0  0  0  0  0  0  0  0  0  0  0
    2.5085   -1.1016    0.2877 H   0  0  0  0  0  0  0  0  0  0  0  0
    2.0666   -0.4914   -1.3994 H   0  0  0  0  0  0  0  0  0  0  0  0
    0.3862    1.0751   -0.2835 H   0  0  0  0  0  0  0  0  0  0  0  0
    0.8601    0.3230    1.3064 H   0  0  0  0  0  0  0  0  0  0  0  0
   -1.6926   -0.7157    1.5543 H   0  0  0  0  0  0  0  0  0  0  0  0
   -2.3625   -2.2426   -0.7855 H   0  0  0  0  0  0  0  0  0  0  0  0
   -3.4382    0.3034    0.3121 H   0  0  0  0  0  0  0  0  0  0  0  0
   -2.6493    0.0788   -1.2624 H   0  0  0  0  0  0  0  0  0  0  0  0
   -2.6153    2.2077   -0.1558 H   0  0  0  0  0  0  0  0  0  0  0  0
  1  2  1  0
  2  3  1  0
  3  4  1  0
  4  5  2  0
  4  6  1  0
  6  7  1  0
  6  8  1  0
  8  9  1  0
  1 10  1  0
  1 11  1  0
  1 12  1  0
  2 13  1  0
  2 14  1  0
  3 15  1  0
  3 16  1  0
  6 17  1  0
  7 18  1  0
  8 19  1  0
  8 20  1  0
  9 21  1  0
M  END
