
     RDKit          3D

 23 23  0  0  0  0  0  0  0  0999 V2000
   -2.6770    1.3920    0.3898 C   0  0  0  0  0  0  0  0  0  0  0  0
   -1.4724    0.7300   -0.3007 C   0  0  0  0  0  0  0  0  0  0  0  0
   -1.1464   -0.5190    0.4553 C   0  0  0  0  0  0  0  0  0  0  0  0
    0.0111   -1.3146   -0.0396 C   0  0  0  0  0  0  0  0  0  0  0  0
   -0.0831   -1.6983   -1.3759 O   0  0  0  0  0  0  0  0  0  0  0  0
    1.2919   -1.0924    0.5707 C   0  0  0  0  0  0  0  0  0  0  0  0
    2.0807    0.1145    0.6404 C   0  0  0  0  0  0  0  0  0  0  0  0
    2.6062    0.9293   -0.3959 C   0  0  0  0  0  0  0  0  0  0  0  0
    1.5776    1.4487    0.5694 O   0  0  0  0  0  0  0  0  0  0  0  0
   -3.2429    1.9124   -0.3819 H   0  0  0  0  0  0  0  0  0  0  0  0
   -2.3183    2.0602    1.2059 H   0  0  0  0  0  0  0  0  0  0  0  0
   -3.2840    0.5610    0.8024 H   0  0  0  0  0  0  0  0  0  0  0  0
   -0.6872    1.4299   -0.5003 H   0  0  0  0  0  0  0  0  0  0  0  0
   -1.8956    0.3551   -1.3018 H   0  0  0  0  0  0  0  0  0  0  0  0
   -0.9812   -0.2215    1.5441 H   0  0  0  0  0  0  0  0  0  0  0  0
   -2.0901   -1.1437    0.5453 H   0  0  0  0  0  0  0  0  0  0  0  0
   -0.2931   -2.4070    0.4181 H   0  0  0  0  0  0  0  0  0  0  0  0
    0.8035   -1.7973   -1.8026 H   0  0  0  0  0  0  0  0  0  0  0  0
    2.0259   -1.8994    0.1620 H   0  0  0  0  0  0  0  0  0  0  0  0
    1.2406   -1.4922    1.6689 H   0  0  0  0  0  0  0  0  0  0  0  0
    2.7699    0.1087    1.5734 H   0  0  0  0  0  0  0  0  0  0  0  0
    2.1861    1.1024   -1.3985 H   0  0  0  0  0  0  0  0  0  0  0  0
    3.5780    1.4412   -0.2717 H   0  0  0  0  0  0  0  0  0  0  0  0
  1  2  1  0
  2  3  1  0
  3  4  1  0
  4  5  1  0
  4  6  1  0
  6  7  1  0
  7  8  1  0
  8  9  1  0
  9  7  1  0
  1 10  1  0
  1 11  1  0
  1 12  1  0
  2 13  1  0
  2 14  1  0
  3 15  1  0
  3 16  1  0
  4 17  1  0
  5 18  1  0
  6 19  1  0
  6 20  1  0
  7 21  1  0
  8 22  1  0
  8 23  1  0
M  END
