
     RDKit          3D

 25 25  0  0  0  0  0  0  0  0999 V2000
   -3.9339    0.5019   -0.2687 C   0  0  0  0  0  0  0  0  0  0  0  0
   -2.8531   -0.4548    0.1184 C   0  0  0  0  0  0  0  0  0  0  0  0
   -1.5168    0.2410    0.0867 C   0  0  0  0  0  0  0  0  0  0  0  0
   -0.4076   -0.7342    0.4821 C   0  0  0  0  0  0  0  0  0  0  0  0
    0.8853    0.0512    0.4209 C   0  0  0  0  0  0  0  0  0  0  0  0
    2.0758   -0.7824    0.7876 C   0  0  0  0  0  0  0  0  0  0  0  0
    3.3243    0.0133    0.7184 C   0  0  0  0  0  0  0  0  0  0  0  0
    3.8053    0.6585   -0.4844 C   0  0  0  0  0  0  0  0  0  0  0  0
    3.0526    1.4399    0.4126 O   0  0  0  0  0  0  0  0  0  0  0  0
   -4.4395    0.9526    0.6294 H   0  0  0  0  0  0  0  0  0  0  0  0
   -3.4860    1.2917   -0.9150 H   0  0  0  0  0  0  0  0  0  0  0  0
   -4.7226   -0.0309   -0.8538 H   0  0  0  0  0  0  0  0  0  0  0  0
   -3.0841   -0.8655    1.1159 H   0  0  0  0  0  0  0  0  0  0  0  0
   -2.8449   -1.2843   -0.6335 H   0  0  0  0  0  0  0  0  0  0  0  0
   -1.5398    1.1171    0.7435 H   0  0  0  0  0  0  0  0  0  0  0  0
   -1.3580    0.6001   -0.9622 H   0  0  0  0  0  0  0  0  0  0  0  0
   -0.6267   -1.0571    1.5204 H   0  0  0  0  0  0  0  0  0  0  0  0
   -0.4255   -1.5862   -0.2192 H   0  0  0  0  0  0  0  0  0  0  0  0
    0.7723    0.9113    1.1090 H   0  0  0  0  0  0  0  0  0  0  0  0
    1.0093    0.4288   -0.6041 H   0  0  0  0  0  0  0  0  0  0  0  0
    2.1363   -1.6724    0.1014 H   0  0  0  0  0  0  0  0  0  0  0  0
    1.9705   -1.2259    1.8152 H   0  0  0  0  0  0  0  0  0  0  0  0
    3.9803   -0.0022    1.6080 H   0  0  0  0  0  0  0  0  0  0  0  0
    4.8761    0.9717   -0.5075 H   0  0  0  0  0  0  0  0  0  0  0  0
    3.3504    0.5168   -1.4635 H   0  0  0  0  0  0  0  0  0  0  0  0
  1  2  1  0
  2  3  1  0
  3  4  1  0
  4  5  1  0
  5  6  1  0
  6  7  1  0
  7  8  1  0
  8  9  1  0
  9  7  1  0
  1 10  1  0
  1 11  1  0
  1 12  1  0
  2 13  1  0
  2 14  1  0
  3 15  1  0
  3 16  1  0
  4 17  1  0
  4 18  1  0
  5 19  1  0
  5 20  1  0
  6 21  1  0
  6 22  1  0
  7 23  1  0
  8 24  1  0
  8 25  1  0
M  END
