
     RDKit          3D

 27 26  0  0  0  0  0  0  0  0999 V2000
    3.4078   -0.8842    0.4375 C   0  0  0  0  0  0  0  0  0  0  0  0
    2.2568    0.0652    0.4567 C   0  0  0  0  0  0  0  0  0  0  0  0
    0.9463   -0.6001    0.0986 C   0  0  0  0  0  0  0  0  0  0  0  0
   -0.1735    0.4026    0.1345 C   0  0  0  0  0  0  0  0  0  0  0  0
    0.0393    1.5421   -0.8371 C   0  0  0  0  0  0  0  0  0  0  0  0
   -1.5123   -0.1940   -0.1896 C   0  0  0  0  0  0  0  0  0  0  0  0
   -1.9232   -1.2871    0.7594 C   0  0  0  0  0  0  0  0  0  0  0  0
   -2.5474    0.9138   -0.0979 C   0  0  0  0  0  0  0  0  0  0  0  0
   -1.5603   -0.7032   -1.4844 O   0  0  0  0  0  0  0  0  0  0  0  0
    3.1265   -1.9142    0.1299 H   0  0  0  0  0  0  0  0  0  0  0  0
    4.1742   -0.4754   -0.2527 H   0  0  0  0  0  0  0  0  0  0  0  0
    3.9115   -0.9838    1.4243 H   0  0  0  0  0  0  0  0  0  0  0  0
    2.1870    0.4659    1.5112 H   0  0  0  0  0  0  0  0  0  0  0  0
    2.4151    0.9240   -0.2297 H   0  0  0  0  0  0  0  0  0  0  0  0
    1.0786   -1.0731   -0.8825 H   0  0  0  0  0  0  0  0  0  0  0  0
    0.7815   -1.3962    0.8527 H   0  0  0  0  0  0  0  0  0  0  0  0
   -0.1922    0.8488    1.1492 H   0  0  0  0  0  0  0  0  0  0  0  0
    0.8663    2.2139   -0.5418 H   0  0  0  0  0  0  0  0  0  0  0  0
   -0.8875    2.1542   -0.8335 H   0  0  0  0  0  0  0  0  0  0  0  0
    0.1477    1.1765   -1.8881 H   0  0  0  0  0  0  0  0  0  0  0  0
   -1.5392   -2.2514    0.3688 H   0  0  0  0  0  0  0  0  0  0  0  0
   -3.0440   -1.3422    0.7111 H   0  0  0  0  0  0  0  0  0  0  0  0
   -1.6559   -1.0908    1.8058 H   0  0  0  0  0  0  0  0  0  0  0  0
   -2.2064    1.6757    0.6468 H   0  0  0  0  0  0  0  0  0  0  0  0
   -3.5198    0.5295    0.2732 H   0  0  0  0  0  0  0  0  0  0  0  0
   -2.7377    1.3373   -1.0953 H   0  0  0  0  0  0  0  0  0  0  0  0
   -1.8393   -0.0538   -2.1562 H   0  0  0  0  0  0  0  0  0  0  0  0
  1  2  1  0
  2  3  1  0
  3  4  1  0
  4  5  1  0
  4  6  1  0
  6  7  1  0
  6  8  1  0
  6  9  1  0
  1 10  1  0
  1 11  1  0
  1 12  1  0
  2 13  1  0
  2 14  1  0
  3 15  1  0
  3 16  1  0
  4 17  1  0
  5 18  1  0
  5 19  1  0
  5 20  1  0
  7 21  1  0
  7 22  1  0
  7 23  1  0
  8 24  1  0
  8 25  1  0
  8 26  1  0
  9 27  1  0
M  END
