
     RDKit          3D

 23 24  0  0  0  0  0  0  0  0999 V2000
    2.6753    0.4899   -0.2607 C   0  0  0  0  0  0  0  0  0  0  0  0
    2.1555   -0.8468    0.1429 C   0  0  0  0  0  0  0  0  0  0  0  0
    0.6679   -0.8648    0.4105 C   0  0  0  0  0  0  0  0  0  0  0  0
   -0.1145   -0.4511   -0.8390 C   0  0  0  0  0  0  0  0  0  0  0  0
    0.2740    0.8383   -1.1968 O   0  0  0  0  0  0  0  0  0  0  0  0
   -0.8826    1.3069   -0.5855 C   0  0  0  0  0  0  0  0  0  0  0  0
   -2.1423    1.1063   -1.3065 C   0  0  0  0  0  0  0  0  0  0  0  0
   -1.5239   -0.0184   -0.5627 C   0  0  0  0  0  0  0  0  0  0  0  0
   -2.2330   -0.5395    0.6521 C   0  0  0  0  0  0  0  0  0  0  0  0
    2.1953    1.3077    0.3098 H   0  0  0  0  0  0  0  0  0  0  0  0
    2.5949    0.6116   -1.3574 H   0  0  0  0  0  0  0  0  0  0  0  0
    3.7731    0.5092    0.0054 H   0  0  0  0  0  0  0  0  0  0  0  0
    2.3566   -1.5926   -0.6493 H   0  0  0  0  0  0  0  0  0  0  0  0
    2.6948   -1.1740    1.0541 H   0  0  0  0  0  0  0  0  0  0  0  0
    0.4018   -1.9022    0.6936 H   0  0  0  0  0  0  0  0  0  0  0  0
    0.4200   -0.2072    1.2642 H   0  0  0  0  0  0  0  0  0  0  0  0
    0.0188   -1.1441   -1.6895 H   0  0  0  0  0  0  0  0  0  0  0  0
   -0.7995    1.9246    0.3300 H   0  0  0  0  0  0  0  0  0  0  0  0
   -3.0468    1.5581   -0.8540 H   0  0  0  0  0  0  0  0  0  0  0  0
   -2.1799    1.0996   -2.4130 H   0  0  0  0  0  0  0  0  0  0  0  0
   -3.2925   -0.2424    0.6185 H   0  0  0  0  0  0  0  0  0  0  0  0
   -1.8152   -0.1238    1.5962 H   0  0  0  0  0  0  0  0  0  0  0  0
   -2.1978   -1.6453    0.6584 H   0  0  0  0  0  0  0  0  0  0  0  0
  1  2  1  0
  2  3  1  0
  3  4  1  0
  4  5  1  0
  5  6  1  0
  6  7  1  0
  7  8  1  0
  8  9  1  0
  8  4  1  0
  8  6  1  0
  1 10  1  0
  1 11  1  0
  1 12  1  0
  2 13  1  0
  2 14  1  0
  3 15  1  0
  3 16  1  0
  4 17  1  0
  6 18  1  0
  7 19  1  0
  7 20  1  0
  9 21  1  0
  9 22  1  0
  9 23  1  0
M  END
