
     RDKit          3D

 25 25  0  0  0  0  0  0  0  0999 V2000
    3.0062    0.9568    0.0901 C   0  0  0  0  0  0  0  0  0  0  0  0
    1.7589    0.2216   -0.2839 C   0  0  0  0  0  0  0  0  0  0  0  0
    0.7215    0.2241    0.8351 C   0  0  0  0  0  0  0  0  0  0  0  0
   -0.4706   -0.5525    0.3050 C   0  0  0  0  0  0  0  0  0  0  0  0
   -0.0801   -1.9883   -0.0558 C   0  0  0  0  0  0  0  0  0  0  0  0
   -1.5011    0.0724   -0.5210 C   0  0  0  0  0  0  0  0  0  0  0  0
   -1.6139    1.5693   -0.6897 C   0  0  0  0  0  0  0  0  0  0  0  0
   -1.8046   -0.4005    0.8905 C   0  0  0  0  0  0  0  0  0  0  0  0
   -2.6481   -1.5286    0.9355 O   0  0  0  0  0  0  0  0  0  0  0  0
    3.2851    0.8459    1.1553 H   0  0  0  0  0  0  0  0  0  0  0  0
    2.8610    2.0271   -0.1615 H   0  0  0  0  0  0  0  0  0  0  0  0
    3.8263    0.5688   -0.5792 H   0  0  0  0  0  0  0  0  0  0  0  0
    1.9401   -0.8562   -0.5213 H   0  0  0  0  0  0  0  0  0  0  0  0
    1.3317    0.7199   -1.1794 H   0  0  0  0  0  0  0  0  0  0  0  0
    1.1554   -0.2418    1.7375 H   0  0  0  0  0  0  0  0  0  0  0  0
    0.4962    1.2643    1.0607 H   0  0  0  0  0  0  0  0  0  0  0  0
    0.7295   -2.3551    0.6039 H   0  0  0  0  0  0  0  0  0  0  0  0
    0.2173   -2.0757   -1.1052 H   0  0  0  0  0  0  0  0  0  0  0  0
   -0.9415   -2.6860    0.1001 H   0  0  0  0  0  0  0  0  0  0  0  0
   -1.9464   -0.4898   -1.3738 H   0  0  0  0  0  0  0  0  0  0  0  0
   -1.1998    1.9119   -1.6602 H   0  0  0  0  0  0  0  0  0  0  0  0
   -2.7011    1.8368   -0.7227 H   0  0  0  0  0  0  0  0  0  0  0  0
   -1.1196    2.1297    0.1063 H   0  0  0  0  0  0  0  0  0  0  0  0
   -2.0448    0.3309    1.6695 H   0  0  0  0  0  0  0  0  0  0  0  0
   -3.2576   -1.5051    0.1411 H   0  0  0  0  0  0  0  0  0  0  0  0
  1  2  1  0
  2  3  1  0
  3  4  1  0
  4  5  1  0
  4  6  1  0
  6  7  1  0
  6  8  1  0
  8  9  1  0
  8  4  1  0
  1 10  1  0
  1 11  1  0
  1 12  1  0
  2 13  1  0
  2 14  1  0
  3 15  1  0
  3 16  1  0
  5 17  1  0
  5 18  1  0
  5 19  1  0
  6 20  1  0
  7 21  1  0
  7 22  1  0
  7 23  1  0
  8 24  1  0
  9 25  1  0
M  END
