
     RDKit          3D

 23 23  0  0  0  0  0  0  0  0999 V2000
   -2.7217    0.5401   -0.0006 C   0  0  0  0  0  0  0  0  0  0  0  0
   -2.2542   -0.8495   -0.3267 C   0  0  0  0  0  0  0  0  0  0  0  0
   -1.0832   -1.2795    0.4943 C   0  0  0  0  0  0  0  0  0  0  0  0
    0.1225   -0.4200    0.3368 C   0  0  0  0  0  0  0  0  0  0  0  0
   -0.0679    0.8953    0.6845 O   0  0  0  0  0  0  0  0  0  0  0  0
    1.1997    1.4468    0.3833 C   0  0  0  0  0  0  0  0  0  0  0  0
    1.6290    0.6034   -0.8137 C   0  0  0  0  0  0  0  0  0  0  0  0
    2.9008   -0.1523   -0.5214 C   0  0  0  0  0  0  0  0  0  0  0  0
    0.5794   -0.3325   -0.9663 O   0  0  0  0  0  0  0  0  0  0  0  0
   -2.3102    1.2568   -0.7437 H   0  0  0  0  0  0  0  0  0  0  0  0
   -2.3816    0.8477    1.0162 H   0  0  0  0  0  0  0  0  0  0  0  0
   -3.8429    0.6183   -0.0793 H   0  0  0  0  0  0  0  0  0  0  0  0
   -3.0768   -1.5876   -0.1409 H   0  0  0  0  0  0  0  0  0  0  0  0
   -1.9868   -0.9753   -1.3991 H   0  0  0  0  0  0  0  0  0  0  0  0
   -0.8078   -2.3112    0.1680 H   0  0  0  0  0  0  0  0  0  0  0  0
   -1.3131   -1.3587    1.5741 H   0  0  0  0  0  0  0  0  0  0  0  0
    0.9289   -0.8309    0.9697 H   0  0  0  0  0  0  0  0  0  0  0  0
    1.8306    1.2292    1.2746 H   0  0  0  0  0  0  0  0  0  0  0  0
    1.1458    2.4995    0.1148 H   0  0  0  0  0  0  0  0  0  0  0  0
    1.7833    1.2045   -1.7123 H   0  0  0  0  0  0  0  0  0  0  0  0
    3.3684   -0.4164   -1.5003 H   0  0  0  0  0  0  0  0  0  0  0  0
    3.6304    0.4692    0.0437 H   0  0  0  0  0  0  0  0  0  0  0  0
    2.7273   -1.0968    0.0164 H   0  0  0  0  0  0  0  0  0  0  0  0
  1  2  1  0
  2  3  1  0
  3  4  1  0
  4  5  1  0
  5  6  1  0
  6  7  1  0
  7  8  1  0
  7  9  1  0
  9  4  1  0
  1 10  1  0
  1 11  1  0
  1 12  1  0
  2 13  1  0
  2 14  1  0
  3 15  1  0
  3 16  1  0
  4 17  1  0
  6 18  1  0
  6 19  1  0
  7 20  1  0
  8 21  1  0
  8 22  1  0
  8 23  1  0
M  END
