
     RDKit          3D

 23 23  0  0  0  0  0  0  0  0999 V2000
    2.5378    0.1165    0.3962 C   0  0  0  0  0  0  0  0  0  0  0  0
    1.6653    0.8404   -0.5629 C   0  0  0  0  0  0  0  0  0  0  0  0
    0.4736    0.1468   -1.0851 C   0  0  0  0  0  0  0  0  0  0  0  0
   -0.5620   -0.2610   -0.0808 C   0  0  0  0  0  0  0  0  0  0  0  0
   -0.1268   -1.2123    0.9779 C   0  0  0  0  0  0  0  0  0  0  0  0
   -1.6976    0.6560    0.2138 C   0  0  0  0  0  0  0  0  0  0  0  0
   -1.8658    1.8370   -0.4730 O   0  0  0  0  0  0  0  0  0  0  0  0
   -1.9633   -0.5834   -0.6259 C   0  0  0  0  0  0  0  0  0  0  0  0
   -2.7046   -1.5657   -0.0271 O   0  0  0  0  0  0  0  0  0  0  0  0
    3.5273    0.6653    0.5431 H   0  0  0  0  0  0  0  0  0  0  0  0
    2.7998   -0.8943   -0.0026 H   0  0  0  0  0  0  0  0  0  0  0  0
    2.1417    0.0523    1.4242 H   0  0  0  0  0  0  0  0  0  0  0  0
    1.3864    1.8120   -0.0617 H   0  0  0  0  0  0  0  0  0  0  0  0
    2.3519    1.1925   -1.3970 H   0  0  0  0  0  0  0  0  0  0  0  0
    0.7501   -0.7340   -1.7183 H   0  0  0  0  0  0  0  0  0  0  0  0
   -0.0329    0.8640   -1.8004 H   0  0  0  0  0  0  0  0  0  0  0  0
   -0.0446   -0.6404    1.9328 H   0  0  0  0  0  0  0  0  0  0  0  0
   -0.9597   -1.9504    1.2070 H   0  0  0  0  0  0  0  0  0  0  0  0
    0.7729   -1.7825    0.7732 H   0  0  0  0  0  0  0  0  0  0  0  0
   -2.0511    0.6695    1.2667 H   0  0  0  0  0  0  0  0  0  0  0  0
   -1.2074    2.5320   -0.2712 H   0  0  0  0  0  0  0  0  0  0  0  0
   -2.1266   -0.4711   -1.7088 H   0  0  0  0  0  0  0  0  0  0  0  0
   -3.0644   -1.2892    0.8741 H   0  0  0  0  0  0  0  0  0  0  0  0
  1  2  1  0
  2  3  1  0
  3  4  1  0
  4  5  1  0
  4  6  1  0
  6  7  1  0
  6  8  1  0
  8  9  1  0
  8  4  1  0
  1 10  1  0
  1 11  1  0
  1 12  1  0
  2 13  1  0
  2 14  1  0
  3 15  1  0
  3 16  1  0
  5 17  1  0
  5 18  1  0
  5 19  1  0
  6 20  1  0
  7 21  1  0
  8 22  1  0
  9 23  1  0
M  END
