
     RDKit          3D

 27 26  0  0  0  0  0  0  0  0999 V2000
    2.8783    1.2364   -0.7729 C   0  0  0  0  0  0  0  0  0  0  0  0
    1.4252    1.0640   -0.2939 C   0  0  0  0  0  0  0  0  0  0  0  0
    1.1664   -0.3738    0.0710 C   0  0  0  0  0  0  0  0  0  0  0  0
   -0.1587   -0.7179    0.5822 C   0  0  0  0  0  0  0  0  0  0  0  0
   -0.1040   -2.2511    0.8824 C   0  0  0  0  0  0  0  0  0  0  0  0
    0.1878   -2.8881   -0.3265 O   0  0  0  0  0  0  0  0  0  0  0  0
   -1.3855   -0.5235   -0.1740 C   0  0  0  0  0  0  0  0  0  0  0  0
   -1.8442    0.7824   -0.6402 C   0  0  0  0  0  0  0  0  0  0  0  0
   -2.0281    1.7410    0.5421 C   0  0  0  0  0  0  0  0  0  0  0  0
    3.4796    0.4171   -0.2905 H   0  0  0  0  0  0  0  0  0  0  0  0
    2.9619    1.0902   -1.8545 H   0  0  0  0  0  0  0  0  0  0  0  0
    3.2858    2.2127   -0.4857 H   0  0  0  0  0  0  0  0  0  0  0  0
    0.8291    1.3653   -1.1775 H   0  0  0  0  0  0  0  0  0  0  0  0
    1.2819    1.7530    0.5413 H   0  0  0  0  0  0  0  0  0  0  0  0
    1.5075   -1.0540   -0.7657 H   0  0  0  0  0  0  0  0  0  0  0  0
    1.9580   -0.6017    0.8585 H   0  0  0  0  0  0  0  0  0  0  0  0
   -0.2545   -0.2981    1.6375 H   0  0  0  0  0  0  0  0  0  0  0  0
    0.7277   -2.4608    1.5719 H   0  0  0  0  0  0  0  0  0  0  0  0
   -1.0629   -2.5957    1.2610 H   0  0  0  0  0  0  0  0  0  0  0  0
   -0.5432   -3.4403   -0.6510 H   0  0  0  0  0  0  0  0  0  0  0  0
   -1.4200   -1.2671   -1.0429 H   0  0  0  0  0  0  0  0  0  0  0  0
   -2.2295   -0.9416    0.4762 H   0  0  0  0  0  0  0  0  0  0  0  0
   -1.4007    1.2754   -1.4819 H   0  0  0  0  0  0  0  0  0  0  0  0
   -2.9382    0.6195   -0.9770 H   0  0  0  0  0  0  0  0  0  0  0  0
   -2.8589    2.4506    0.3600 H   0  0  0  0  0  0  0  0  0  0  0  0
   -2.3532    1.1082    1.3997 H   0  0  0  0  0  0  0  0  0  0  0  0
   -1.1076    2.2978    0.7503 H   0  0  0  0  0  0  0  0  0  0  0  0
  1  2  1  0
  2  3  1  0
  3  4  1  0
  4  5  1  0
  5  6  1  0
  4  7  1  0
  7  8  1  0
  8  9  1  0
  1 10  1  0
  1 11  1  0
  1 12  1  0
  2 13  1  0
  2 14  1  0
  3 15  1  0
  3 16  1  0
  4 17  1  0
  5 18  1  0
  5 19  1  0
  6 20  1  0
  7 21  1  0
  7 22  1  0
  8 23  1  0
  8 24  1  0
  9 25  1  0
  9 26  1  0
  9 27  1  0
M  END
