
     RDKit          3D

 22 22  0  0  0  0  0  0  0  0999 V2000
    2.2395   -0.0159   -0.6946 C   0  0  0  0  0  0  0  0  0  0  0  0
    1.7830    0.0994    0.7529 C   0  0  0  0  0  0  0  0  0  0  0  0
    0.3395   -0.3527    0.7947 C   0  0  0  0  0  0  0  0  0  0  0  0
   -0.5531    0.4717   -0.0651 C   0  0  0  0  0  0  0  0  0  0  0  0
   -0.6515    1.9382    0.2297 C   0  0  0  0  0  0  0  0  0  0  0  0
   -0.7258    0.1491   -1.4090 O   0  0  0  0  0  0  0  0  0  0  0  0
   -1.8098   -0.2591   -0.5350 C   0  0  0  0  0  0  0  0  0  0  0  0
   -1.8708   -1.7380   -0.3468 C   0  0  0  0  0  0  0  0  0  0  0  0
    1.5627    0.6266   -1.2941 H   0  0  0  0  0  0  0  0  0  0  0  0
    2.1808   -1.0770   -0.9819 H   0  0  0  0  0  0  0  0  0  0  0  0
    3.2930    0.3612   -0.7636 H   0  0  0  0  0  0  0  0  0  0  0  0
    2.4245   -0.5565    1.3743 H   0  0  0  0  0  0  0  0  0  0  0  0
    1.8777    1.1688    1.0288 H   0  0  0  0  0  0  0  0  0  0  0  0
   -0.0073   -0.2264    1.8612 H   0  0  0  0  0  0  0  0  0  0  0  0
    0.2442   -1.4319    0.5856 H   0  0  0  0  0  0  0  0  0  0  0  0
    0.3712    2.3477    0.3173 H   0  0  0  0  0  0  0  0  0  0  0  0
   -1.1505    2.0890    1.2085 H   0  0  0  0  0  0  0  0  0  0  0  0
   -1.1717    2.4832   -0.5997 H   0  0  0  0  0  0  0  0  0  0  0  0
   -2.7129    0.3581   -0.5712 H   0  0  0  0  0  0  0  0  0  0  0  0
   -1.7486   -2.0510    0.7203 H   0  0  0  0  0  0  0  0  0  0  0  0
   -1.0704   -2.2840   -0.8998 H   0  0  0  0  0  0  0  0  0  0  0  0
   -2.8439   -2.1005   -0.7125 H   0  0  0  0  0  0  0  0  0  0  0  0
  1  2  1  0
  2  3  1  0
  3  4  1  0
  4  5  1  0
  4  6  1  0
  6  7  1  0
  7  8  1  0
  7  4  1  0
  1  9  1  0
  1 10  1  0
  1 11  1  0
  2 12  1  0
  2 13  1  0
  3 14  1  0
  3 15  1  0
  5 16  1  0
  5 17  1  0
  5 18  1  0
  7 19  1  0
  8 20  1  0
  8 21  1  0
  8 22  1  0
M  END
