
     RDKit          3D

 22 22  0  0  0  0  0  0  0  0999 V2000
   -2.9633    0.2283    0.3630 C   0  0  0  0  0  0  0  0  0  0  0  0
   -1.6851   -0.2671   -0.2701 C   0  0  0  0  0  0  0  0  0  0  0  0
   -0.4582    0.3770    0.3336 C   0  0  0  0  0  0  0  0  0  0  0  0
    0.7418   -0.2006   -0.3826 C   0  0  0  0  0  0  0  0  0  0  0  0
    0.6837   -1.7118   -0.1237 C   0  0  0  0  0  0  0  0  0  0  0  0
    2.0300    0.2927    0.1631 C   0  0  0  0  0  0  0  0  0  0  0  0
    2.4225    1.6566    0.1959 C   0  0  0  0  0  0  0  0  0  0  0  0
    2.8682    0.8036   -0.9537 O   0  0  0  0  0  0  0  0  0  0  0  0
   -3.3865   -0.5542    1.0225 H   0  0  0  0  0  0  0  0  0  0  0  0
   -2.8521    1.1634    0.9157 H   0  0  0  0  0  0  0  0  0  0  0  0
   -3.7406    0.3904   -0.4405 H   0  0  0  0  0  0  0  0  0  0  0  0
   -1.7281   -0.0816   -1.3646 H   0  0  0  0  0  0  0  0  0  0  0  0
   -1.6013   -1.3568   -0.1286 H   0  0  0  0  0  0  0  0  0  0  0  0
   -0.4918    1.4771    0.3007 H   0  0  0  0  0  0  0  0  0  0  0  0
   -0.3878    0.0854    1.3998 H   0  0  0  0  0  0  0  0  0  0  0  0
    0.6504   -0.0701   -1.4663 H   0  0  0  0  0  0  0  0  0  0  0  0
    1.7395   -2.0841   -0.1839 H   0  0  0  0  0  0  0  0  0  0  0  0
    0.3502   -1.8571    0.9036 H   0  0  0  0  0  0  0  0  0  0  0  0
    0.0792   -2.2265   -0.8910 H   0  0  0  0  0  0  0  0  0  0  0  0
    2.6706   -0.4581    0.6935 H   0  0  0  0  0  0  0  0  0  0  0  0
    1.7383    2.4479   -0.1587 H   0  0  0  0  0  0  0  0  0  0  0  0
    3.3203    1.9455    0.7758 H   0  0  0  0  0  0  0  0  0  0  0  0
  1  2  1  0
  2  3  1  0
  3  4  1  0
  4  5  1  0
  4  6  1  0
  6  7  1  0
  7  8  1  0
  8  6  1  0
  1  9  1  0
  1 10  1  0
  1 11  1  0
  2 12  1  0
  2 13  1  0
  3 14  1  0
  3 15  1  0
  4 16  1  0
  5 17  1  0
  5 18  1  0
  5 19  1  0
  6 20  1  0
  7 21  1  0
  7 22  1  0
M  END
