
     RDKit          3D

 25 25  0  0  0  0  0  0  0  0999 V2000
    3.2766   -0.0398    0.6739 C   0  0  0  0  0  0  0  0  0  0  0  0
    2.8101   -0.5058   -0.6921 C   0  0  0  0  0  0  0  0  0  0  0  0
    1.4531    0.1083   -0.9502 C   0  0  0  0  0  0  0  0  0  0  0  0
    0.4431   -0.3246    0.1090 C   0  0  0  0  0  0  0  0  0  0  0  0
   -0.8679    0.3454   -0.2481 C   0  0  0  0  0  0  0  0  0  0  0  0
   -0.6559    1.7244   -0.2288 O   0  0  0  0  0  0  0  0  0  0  0  0
   -1.9709   -0.0233    0.6999 C   0  0  0  0  0  0  0  0  0  0  0  0
   -3.3323    0.5148    0.5381 C   0  0  0  0  0  0  0  0  0  0  0  0
   -3.0576   -0.8970    0.1067 C   0  0  0  0  0  0  0  0  0  0  0  0
    2.6378    0.7785    1.0768 H   0  0  0  0  0  0  0  0  0  0  0  0
    3.2544   -0.8673    1.4249 H   0  0  0  0  0  0  0  0  0  0  0  0
    4.2841    0.3917    0.5460 H   0  0  0  0  0  0  0  0  0  0  0  0
    2.7684   -1.5982   -0.7006 H   0  0  0  0  0  0  0  0  0  0  0  0
    3.4764   -0.1517   -1.5056 H   0  0  0  0  0  0  0  0  0  0  0  0
    1.5265    1.2115   -0.8603 H   0  0  0  0  0  0  0  0  0  0  0  0
    1.0434   -0.1979   -1.9362 H   0  0  0  0  0  0  0  0  0  0  0  0
    0.2738   -1.4243    0.0856 H   0  0  0  0  0  0  0  0  0  0  0  0
    0.7435   -0.0013    1.1125 H   0  0  0  0  0  0  0  0  0  0  0  0
   -1.1969    0.1042   -1.2764 H   0  0  0  0  0  0  0  0  0  0  0  0
   -1.4029    2.1947   -0.6679 H   0  0  0  0  0  0  0  0  0  0  0  0
   -1.6023   -0.2892    1.7208 H   0  0  0  0  0  0  0  0  0  0  0  0
   -3.9649    0.6124    1.4543 H   0  0  0  0  0  0  0  0  0  0  0  0
   -3.5288    1.2360   -0.2679 H   0  0  0  0  0  0  0  0  0  0  0  0
   -3.3940   -1.7389    0.7514 H   0  0  0  0  0  0  0  0  0  0  0  0
   -3.0167   -1.1623   -0.9658 H   0  0  0  0  0  0  0  0  0  0  0  0
  1  2  1  0
  2  3  1  0
  3  4  1  0
  4  5  1  0
  5  6  1  0
  5  7  1  0
  7  8  1  0
  8  9  1  0
  9  7  1  0
  1 10  1  0
  1 11  1  0
  1 12  1  0
  2 13  1  0
  2 14  1  0
  3 15  1  0
  3 16  1  0
  4 17  1  0
  4 18  1  0
  5 19  1  0
  6 20  1  0
  7 21  1  0
  8 22  1  0
  8 23  1  0
  9 24  1  0
  9 25  1  0
M  END
