
     RDKit          3D

 25 25  0  0  0  0  0  0  0  0999 V2000
    2.9439    0.3657   -0.2713 C   0  0  0  0  0  0  0  0  0  0  0  0
    2.0374   -0.7550   -0.6878 C   0  0  0  0  0  0  0  0  0  0  0  0
    0.9221   -0.9472    0.3258 C   0  0  0  0  0  0  0  0  0  0  0  0
    0.1113    0.2966    0.4424 C   0  0  0  0  0  0  0  0  0  0  0  0
   -1.0357    0.1732    1.4516 C   0  0  0  0  0  0  0  0  0  0  0  0
   -1.3142   -1.0677    1.9901 O   0  0  0  0  0  0  0  0  0  0  0  0
   -1.2940    0.3905    0.0160 C   0  0  0  0  0  0  0  0  0  0  0  0
   -1.9898   -0.7297   -0.7123 C   0  0  0  0  0  0  0  0  0  0  0  0
   -1.8262    1.7655   -0.3398 C   0  0  0  0  0  0  0  0  0  0  0  0
    3.9909   -0.0335   -0.1260 H   0  0  0  0  0  0  0  0  0  0  0  0
    2.9843    1.1325   -1.0941 H   0  0  0  0  0  0  0  0  0  0  0  0
    2.6720    0.8188    0.7045 H   0  0  0  0  0  0  0  0  0  0  0  0
    2.5999   -1.6985   -0.8433 H   0  0  0  0  0  0  0  0  0  0  0  0
    1.5755   -0.5270   -1.6884 H   0  0  0  0  0  0  0  0  0  0  0  0
    0.3529   -1.8565    0.1507 H   0  0  0  0  0  0  0  0  0  0  0  0
    1.4482   -1.0927    1.3153 H   0  0  0  0  0  0  0  0  0  0  0  0
    0.6948    1.2420    0.4344 H   0  0  0  0  0  0  0  0  0  0  0  0
   -1.0525    0.9951    2.1921 H   0  0  0  0  0  0  0  0  0  0  0  0
   -1.3180   -1.7956    1.3228 H   0  0  0  0  0  0  0  0  0  0  0  0
   -2.8101   -1.1226   -0.0499 H   0  0  0  0  0  0  0  0  0  0  0  0
   -2.5072   -0.3532   -1.6203 H   0  0  0  0  0  0  0  0  0  0  0  0
   -1.3165   -1.5398   -1.0205 H   0  0  0  0  0  0  0  0  0  0  0  0
   -1.0571    2.5367   -0.0811 H   0  0  0  0  0  0  0  0  0  0  0  0
   -2.6638    1.9579    0.3919 H   0  0  0  0  0  0  0  0  0  0  0  0
   -2.1484    1.8446   -1.3746 H   0  0  0  0  0  0  0  0  0  0  0  0
  1  2  1  0
  2  3  1  0
  3  4  1  0
  4  5  1  0
  5  6  1  0
  5  7  1  0
  7  8  1  0
  7  9  1  0
  7  4  1  0
  1 10  1  0
  1 11  1  0
  1 12  1  0
  2 13  1  0
  2 14  1  0
  3 15  1  0
  3 16  1  0
  4 17  1  0
  5 18  1  0
  6 19  1  0
  8 20  1  0
  8 21  1  0
  8 22  1  0
  9 23  1  0
  9 24  1  0
  9 25  1  0
M  END
