
     RDKit          3D

 24 23  0  0  0  0  0  0  0  0999 V2000
   -2.0678   -0.8240    1.1303 C   0  0  0  0  0  0  0  0  0  0  0  0
   -1.4325   -1.2879   -0.1714 C   0  0  0  0  0  0  0  0  0  0  0  0
   -1.1054   -0.0783   -1.0126 C   0  0  0  0  0  0  0  0  0  0  0  0
   -0.1719    0.8546   -0.3539 C   0  0  0  0  0  0  0  0  0  0  0  0
    0.0768    2.0403   -1.3038 C   0  0  0  0  0  0  0  0  0  0  0  0
    1.1648    0.3472    0.0319 C   0  0  0  0  0  0  0  0  0  0  0  0
    1.2229   -0.6897    0.9116 O   0  0  0  0  0  0  0  0  0  0  0  0
    2.5632   -1.0024    1.1318 C   0  0  0  0  0  0  0  0  0  0  0  0
   -2.3647   -1.7317    1.7138 H   0  0  0  0  0  0  0  0  0  0  0  0
   -1.3613   -0.2097    1.6977 H   0  0  0  0  0  0  0  0  0  0  0  0
   -2.9834   -0.2572    0.9051 H   0  0  0  0  0  0  0  0  0  0  0  0
   -0.5202   -1.8603   -0.0154 H   0  0  0  0  0  0  0  0  0  0  0  0
   -2.2309   -1.8943   -0.6893 H   0  0  0  0  0  0  0  0  0  0  0  0
   -0.7972   -0.3559   -2.0416 H   0  0  0  0  0  0  0  0  0  0  0  0
   -2.0860    0.4739   -1.1260 H   0  0  0  0  0  0  0  0  0  0  0  0
   -0.6683    1.3100    0.5316 H   0  0  0  0  0  0  0  0  0  0  0  0
    0.2090    1.6098   -2.3003 H   0  0  0  0  0  0  0  0  0  0  0  0
    0.9950    2.5685   -0.9956 H   0  0  0  0  0  0  0  0  0  0  0  0
   -0.7822    2.7376   -1.2538 H   0  0  0  0  0  0  0  0  0  0  0  0
    1.7040    1.2147    0.5175 H   0  0  0  0  0  0  0  0  0  0  0  0
    1.7926    0.1272   -0.8831 H   0  0  0  0  0  0  0  0  0  0  0  0
    3.0262   -0.0658    1.5546 H   0  0  0  0  0  0  0  0  0  0  0  0
    2.7014   -1.8372    1.8355 H   0  0  0  0  0  0  0  0  0  0  0  0
    3.1159   -1.1894    0.1852 H   0  0  0  0  0  0  0  0  0  0  0  0
  1  2  1  0
  2  3  1  0
  3  4  1  0
  4  5  1  0
  4  6  1  0
  6  7  1  0
  7  8  1  0
  1  9  1  0
  1 10  1  0
  1 11  1  0
  2 12  1  0
  2 13  1  0
  3 14  1  0
  3 15  1  0
  4 16  1  0
  5 17  1  0
  5 18  1  0
  5 19  1  0
  6 20  1  0
  6 21  1  0
  8 22  1  0
  8 23  1  0
  8 24  1  0
M  END
