
     RDKit          3D

 23 23  0  0  0  0  0  0  0  0999 V2000
   -2.7795   -0.0124    0.4816 C   0  0  0  0  0  0  0  0  0  0  0  0
   -2.0107   -0.2273   -0.7908 C   0  0  0  0  0  0  0  0  0  0  0  0
   -0.7786   -1.0520   -0.6135 C   0  0  0  0  0  0  0  0  0  0  0  0
    0.2071   -0.4331    0.3549 C   0  0  0  0  0  0  0  0  0  0  0  0
    1.4298   -1.3139    0.4905 C   0  0  0  0  0  0  0  0  0  0  0  0
    2.4685   -0.7823   -0.2859 O   0  0  0  0  0  0  0  0  0  0  0  0
    2.9257    0.4218    0.1875 C   0  0  0  0  0  0  0  0  0  0  0  0
    1.8581    1.2011    0.5897 O   0  0  0  0  0  0  0  0  0  0  0  0
    0.7308    0.8962   -0.1766 C   0  0  0  0  0  0  0  0  0  0  0  0
   -2.3090   -0.4652    1.3705 H   0  0  0  0  0  0  0  0  0  0  0  0
   -2.9161    1.0726    0.6845 H   0  0  0  0  0  0  0  0  0  0  0  0
   -3.8270   -0.4275    0.4195 H   0  0  0  0  0  0  0  0  0  0  0  0
   -2.6794   -0.7698   -1.4906 H   0  0  0  0  0  0  0  0  0  0  0  0
   -1.7816    0.7466   -1.3085 H   0  0  0  0  0  0  0  0  0  0  0  0
   -0.3207   -1.1966   -1.6112 H   0  0  0  0  0  0  0  0  0  0  0  0
   -1.0757   -2.0315   -0.1865 H   0  0  0  0  0  0  0  0  0  0  0  0
   -0.2836   -0.2257    1.3281 H   0  0  0  0  0  0  0  0  0  0  0  0
    1.1780   -2.3089    0.0556 H   0  0  0  0  0  0  0  0  0  0  0  0
    1.7892   -1.3909    1.5367 H   0  0  0  0  0  0  0  0  0  0  0  0
    3.6874    0.3034    1.0035 H   0  0  0  0  0  0  0  0  0  0  0  0
    3.4401    0.9717   -0.6354 H   0  0  0  0  0  0  0  0  0  0  0  0
   -0.0225    1.6854   -0.1658 H   0  0  0  0  0  0  0  0  0  0  0  0
    1.0696    0.7515   -1.2377 H   0  0  0  0  0  0  0  0  0  0  0  0
  1  2  1  0
  2  3  1  0
  3  4  1  0
  4  5  1  0
  5  6  1  0
  6  7  1  0
  7  8  1  0
  8  9  1  0
  9  4  1  0
  1 10  1  0
  1 11  1  0
  1 12  1  0
  2 13  1  0
  2 14  1  0
  3 15  1  0
  3 16  1  0
  4 17  1  0
  5 18  1  0
  5 19  1  0
  7 20  1  0
  7 21  1  0
  9 22  1  0
  9 23  1  0
M  END
