
     RDKit          3D

 20 20  0  0  0  0  0  0  0  0999 V2000
    2.8760    0.5873   -0.1817 C   0  0  0  0  0  0  0  0  0  0  0  0
    1.5284    0.5458    0.5266 C   0  0  0  0  0  0  0  0  0  0  0  0
    0.6547   -0.3949   -0.2557 C   0  0  0  0  0  0  0  0  0  0  0  0
   -0.7164   -0.5433    0.3206 C   0  0  0  0  0  0  0  0  0  0  0  0
   -1.5012    0.7193    0.3984 C   0  0  0  0  0  0  0  0  0  0  0  0
   -2.8038    0.3000    0.2331 O   0  0  0  0  0  0  0  0  0  0  0  0
   -2.7960   -0.9367   -0.3679 C   0  0  0  0  0  0  0  0  0  0  0  0
   -1.4782   -1.3300   -0.5357 O   0  0  0  0  0  0  0  0  0  0  0  0
    3.3179   -0.4159   -0.1830 H   0  0  0  0  0  0  0  0  0  0  0  0
    2.6922    0.8860   -1.2475 H   0  0  0  0  0  0  0  0  0  0  0  0
    3.5124    1.3394    0.3490 H   0  0  0  0  0  0  0  0  0  0  0  0
    1.7150    0.1768    1.5498 H   0  0  0  0  0  0  0  0  0  0  0  0
    1.0995    1.5642    0.6026 H   0  0  0  0  0  0  0  0  0  0  0  0
    1.1407   -1.3933   -0.2140 H   0  0  0  0  0  0  0  0  0  0  0  0
    0.6547   -0.0943   -1.3218 H   0  0  0  0  0  0  0  0  0  0  0  0
   -0.6263   -0.9648    1.3321 H   0  0  0  0  0  0  0  0  0  0  0  0
   -1.2354    1.4743   -0.3600 H   0  0  0  0  0  0  0  0  0  0  0  0
   -1.3857    1.1655    1.4145 H   0  0  0  0  0  0  0  0  0  0  0  0
   -3.2730   -1.7296    0.2812 H   0  0  0  0  0  0  0  0  0  0  0  0
   -3.3754   -0.9556   -1.3220 H   0  0  0  0  0  0  0  0  0  0  0  0
  1  2  1  0
  2  3  1  0
  3  4  1  0
  4  5  1  0
  5  6  1  0
  6  7  1  0
  7  8  1  0
  8  4  1  0
  1  9  1  0
  1 10  1  0
  1 11  1  0
  2 12  1  0
  2 13  1  0
  3 14  1  0
  3 15  1  0
  4 16  1  0
  5 17  1  0
  5 18  1  0
  7 19  1  0
  7 20  1  0
M  END
