
     RDKit          3D

 25 25  0  0  0  0  0  0  0  0999 V2000
    2.8761    0.1953   -0.5079 C   0  0  0  0  0  0  0  0  0  0  0  0
    2.4870   -0.9934    0.3419 C   0  0  0  0  0  0  0  0  0  0  0  0
    1.3048   -0.6635    1.2300 C   0  0  0  0  0  0  0  0  0  0  0  0
    0.1120   -0.2741    0.4520 C   0  0  0  0  0  0  0  0  0  0  0  0
   -0.5113    0.8971    0.5400 C   0  0  0  0  0  0  0  0  0  0  0  0
   -1.6709    0.9471   -0.3843 C   0  0  0  0  0  0  0  0  0  0  0  0
   -2.9407    1.3045    0.3507 C   0  0  0  0  0  0  0  0  0  0  0  0
   -1.7420   -0.3974   -1.0389 C   0  0  0  0  0  0  0  0  0  0  0  0
   -0.5517   -1.1547   -0.5417 C   0  0  0  0  0  0  0  0  0  0  0  0
    2.2417    0.2717   -1.4196 H   0  0  0  0  0  0  0  0  0  0  0  0
    2.7750    1.1398    0.1042 H   0  0  0  0  0  0  0  0  0  0  0  0
    3.9266    0.1119   -0.8562 H   0  0  0  0  0  0  0  0  0  0  0  0
    3.3417   -1.2736    0.9904 H   0  0  0  0  0  0  0  0  0  0  0  0
    2.1900   -1.8026   -0.3344 H   0  0  0  0  0  0  0  0  0  0  0  0
    1.6436    0.1717    1.9010 H   0  0  0  0  0  0  0  0  0  0  0  0
    1.0587   -1.5019    1.9094 H   0  0  0  0  0  0  0  0  0  0  0  0
   -0.2425    1.7286    1.1852 H   0  0  0  0  0  0  0  0  0  0  0  0
   -1.4867    1.7463   -1.1354 H   0  0  0  0  0  0  0  0  0  0  0  0
   -3.4551    2.1835   -0.1100 H   0  0  0  0  0  0  0  0  0  0  0  0
   -3.6391    0.4543    0.4417 H   0  0  0  0  0  0  0  0  0  0  0  0
   -2.6731    1.6113    1.3837 H   0  0  0  0  0  0  0  0  0  0  0  0
   -1.6270   -0.2839   -2.1468 H   0  0  0  0  0  0  0  0  0  0  0  0
   -2.7065   -0.9169   -0.8830 H   0  0  0  0  0  0  0  0  0  0  0  0
   -0.8876   -2.1149   -0.1222 H   0  0  0  0  0  0  0  0  0  0  0  0
    0.1771   -1.3862   -1.3495 H   0  0  0  0  0  0  0  0  0  0  0  0
  1  2  1  0
  2  3  1  0
  3  4  1  0
  4  5  2  0
  5  6  1  0
  6  7  1  0
  6  8  1  0
  8  9  1  0
  9  4  1  0
  1 10  1  0
  1 11  1  0
  1 12  1  0
  2 13  1  0
  2 14  1  0
  3 15  1  0
  3 16  1  0
  5 17  1  0
  6 18  1  0
  7 19  1  0
  7 20  1  0
  7 21  1  0
  8 22  1  0
  8 23  1  0
  9 24  1  0
  9 25  1  0
M  END
