
     RDKit          3D

 25 24  0  0  0  0  0  0  0  0999 V2000
    2.4914   -0.1425   -0.7971 C   0  0  0  0  0  0  0  0  0  0  0  0
    1.8305   -1.1159    0.0922 C   0  0  0  0  0  0  0  0  0  0  0  0
    0.7406   -0.5836    0.9313 C   0  0  0  0  0  0  0  0  0  0  0  0
   -0.4990   -0.0510    0.3412 C   0  0  0  0  0  0  0  0  0  0  0  0
   -1.3610    0.3715    1.6203 C   0  0  0  0  0  0  0  0  0  0  0  0
   -0.4083    1.2124   -0.3869 C   0  0  0  0  0  0  0  0  0  0  0  0
    0.0934    1.2163   -1.6652 O   0  0  0  0  0  0  0  0  0  0  0  0
   -1.1980   -1.0665   -0.2767 O   0  0  0  0  0  0  0  0  0  0  0  0
   -2.3782   -0.6792   -0.8646 C   0  0  0  0  0  0  0  0  0  0  0  0
    2.3817    0.8787   -0.4184 H   0  0  0  0  0  0  0  0  0  0  0  0
    3.6308   -0.3139   -0.8012 H   0  0  0  0  0  0  0  0  0  0  0  0
    2.1977   -0.3195   -1.8459 H   0  0  0  0  0  0  0  0  0  0  0  0
    2.6533   -1.5914    0.7263 H   0  0  0  0  0  0  0  0  0  0  0  0
    1.5059   -1.9914   -0.5368 H   0  0  0  0  0  0  0  0  0  0  0  0
    0.5046   -1.4346    1.6780 H   0  0  0  0  0  0  0  0  0  0  0  0
    1.1846    0.1758    1.6862 H   0  0  0  0  0  0  0  0  0  0  0  0
   -0.7046    1.0667    2.1742 H   0  0  0  0  0  0  0  0  0  0  0  0
   -2.2131    0.9610    1.2301 H   0  0  0  0  0  0  0  0  0  0  0  0
   -1.6240   -0.5483    2.1236 H   0  0  0  0  0  0  0  0  0  0  0  0
    0.3063    1.8760    0.2019 H   0  0  0  0  0  0  0  0  0  0  0  0
   -1.3596    1.8376   -0.3229 H   0  0  0  0  0  0  0  0  0  0  0  0
    0.4136    2.1312   -1.8793 H   0  0  0  0  0  0  0  0  0  0  0  0
   -2.8345   -1.5830   -1.3201 H   0  0  0  0  0  0  0  0  0  0  0  0
   -2.2777    0.0734   -1.6480 H   0  0  0  0  0  0  0  0  0  0  0  0
   -3.0762   -0.3797   -0.0424 H   0  0  0  0  0  0  0  0  0  0  0  0
  1  2  1  0
  2  3  1  0
  3  4  1  0
  4  5  1  0
  4  6  1  0
  6  7  1  0
  4  8  1  0
  8  9  1  0
  1 10  1  0
  1 11  1  0
  1 12  1  0
  2 13  1  0
  2 14  1  0
  3 15  1  0
  3 16  1  0
  5 17  1  0
  5 18  1  0
  5 19  1  0
  6 20  1  0
  6 21  1  0
  7 22  1  0
  9 23  1  0
  9 24  1  0
  9 25  1  0
M  END
