
     RDKit          3D

 22 22  0  0  0  0  0  0  0  0999 V2000
    2.2580    0.2220   -0.3479 C   0  0  0  0  0  0  0  0  0  0  0  0
    1.5836   -0.9262    0.3550 C   0  0  0  0  0  0  0  0  0  0  0  0
    0.2691   -0.5117    0.9786 C   0  0  0  0  0  0  0  0  0  0  0  0
   -0.6255   -0.0127   -0.1322 C   0  0  0  0  0  0  0  0  0  0  0  0
   -0.8967   -1.0465   -1.1762 C   0  0  0  0  0  0  0  0  0  0  0  0
   -1.9693    0.5210    0.3701 C   0  0  0  0  0  0  0  0  0  0  0  0
   -1.1776    1.7899    0.3970 C   0  0  0  0  0  0  0  0  0  0  0  0
   -0.3418    1.2610   -0.5654 O   0  0  0  0  0  0  0  0  0  0  0  0
    3.2755   -0.1538   -0.6519 H   0  0  0  0  0  0  0  0  0  0  0  0
    2.4191    1.0938    0.3208 H   0  0  0  0  0  0  0  0  0  0  0  0
    1.7419    0.4773   -1.2774 H   0  0  0  0  0  0  0  0  0  0  0  0
    2.2378   -1.3055    1.1784 H   0  0  0  0  0  0  0  0  0  0  0  0
    1.4805   -1.7477   -0.3647 H   0  0  0  0  0  0  0  0  0  0  0  0
    0.4490    0.2498    1.7342 H   0  0  0  0  0  0  0  0  0  0  0  0
   -0.1975   -1.3893    1.4673 H   0  0  0  0  0  0  0  0  0  0  0  0
   -1.2396   -1.9696   -0.6689 H   0  0  0  0  0  0  0  0  0  0  0  0
   -0.0609   -1.2137   -1.8722 H   0  0  0  0  0  0  0  0  0  0  0  0
   -1.7440   -0.6584   -1.8055 H   0  0  0  0  0  0  0  0  0  0  0  0
   -2.2826    0.1109    1.3429 H   0  0  0  0  0  0  0  0  0  0  0  0
   -2.7208    0.5405   -0.4336 H   0  0  0  0  0  0  0  0  0  0  0  0
   -1.7358    2.7018    0.0816 H   0  0  0  0  0  0  0  0  0  0  0  0
   -0.7223    1.9674    1.3878 H   0  0  0  0  0  0  0  0  0  0  0  0
  1  2  1  0
  2  3  1  0
  3  4  1  0
  4  5  1  0
  4  6  1  0
  6  7  1  0
  7  8  1  0
  8  4  1  0
  1  9  1  0
  1 10  1  0
  1 11  1  0
  2 12  1  0
  2 13  1  0
  3 14  1  0
  3 15  1  0
  5 16  1  0
  5 17  1  0
  5 18  1  0
  6 19  1  0
  6 20  1  0
  7 21  1  0
  7 22  1  0
M  END
