
     RDKit          3D

 23 23  0  0  0  0  0  0  0  0999 V2000
    2.8479   -1.0293   -0.8484 C   0  0  0  0  0  0  0  0  0  0  0  0
    1.4426   -0.9297   -0.2573 C   0  0  0  0  0  0  0  0  0  0  0  0
    1.2059    0.5218    0.0702 C   0  0  0  0  0  0  0  0  0  0  0  0
   -0.1389    0.7916    0.6636 C   0  0  0  0  0  0  0  0  0  0  0  0
   -1.3885    0.4656   -0.0942 C   0  0  0  0  0  0  0  0  0  0  0  0
   -1.8545   -0.7650    0.2897 O   0  0  0  0  0  0  0  0  0  0  0  0
   -3.0182   -1.1461   -0.3693 C   0  0  0  0  0  0  0  0  0  0  0  0
   -0.1927    2.0821    1.4899 C   0  0  0  0  0  0  0  0  0  0  0  0
   -0.3050    0.8336    2.0455 O   0  0  0  0  0  0  0  0  0  0  0  0
    2.7828   -1.5572   -1.8337 H   0  0  0  0  0  0  0  0  0  0  0  0
    3.2717   -0.0313   -1.0650 H   0  0  0  0  0  0  0  0  0  0  0  0
    3.5526   -1.5248   -0.1495 H   0  0  0  0  0  0  0  0  0  0  0  0
    0.7113   -1.3443   -0.9673 H   0  0  0  0  0  0  0  0  0  0  0  0
    1.4328   -1.5576    0.6448 H   0  0  0  0  0  0  0  0  0  0  0  0
    1.9700    0.8027    0.8388 H   0  0  0  0  0  0  0  0  0  0  0  0
    1.3599    1.1046   -0.8630 H   0  0  0  0  0  0  0  0  0  0  0  0
   -1.1193    0.3996   -1.1750 H   0  0  0  0  0  0  0  0  0  0  0  0
   -2.1423    1.2770    0.0263 H   0  0  0  0  0  0  0  0  0  0  0  0
   -3.8075   -0.3806   -0.1404 H   0  0  0  0  0  0  0  0  0  0  0  0
   -2.9033   -1.2676   -1.4482 H   0  0  0  0  0  0  0  0  0  0  0  0
   -3.3964   -2.0903    0.0737 H   0  0  0  0  0  0  0  0  0  0  0  0
    0.7553    2.6020    1.7127 H   0  0  0  0  0  0  0  0  0  0  0  0
   -1.0663    2.7431    1.3562 H   0  0  0  0  0  0  0  0  0  0  0  0
  1  2  1  0
  2  3  1  0
  3  4  1  0
  4  5  1  0
  5  6  1  0
  6  7  1  0
  4  8  1  0
  8  9  1  0
  9  4  1  0
  1 10  1  0
  1 11  1  0
  1 12  1  0
  2 13  1  0
  2 14  1  0
  3 15  1  0
  3 16  1  0
  5 17  1  0
  5 18  1  0
  7 19  1  0
  7 20  1  0
  7 21  1  0
  8 22  1  0
  8 23  1  0
M  END
