
     RDKit          3D

 24 23  0  0  0  0  0  0  0  0999 V2000
    3.5954   -0.2159    0.1543 C   0  0  0  0  0  0  0  0  0  0  0  0
    2.1612   -0.6555   -0.0034 C   0  0  0  0  0  0  0  0  0  0  0  0
    1.2175    0.5466   -0.1222 C   0  0  0  0  0  0  0  0  0  0  0  0
   -0.1708   -0.0234   -0.2735 C   0  0  0  0  0  0  0  0  0  0  0  0
   -0.4783   -0.7890    0.8341 O   0  0  0  0  0  0  0  0  0  0  0  0
   -1.2149    1.0657   -0.4193 C   0  0  0  0  0  0  0  0  0  0  0  0
   -2.5855    0.4964   -0.5686 C   0  0  0  0  0  0  0  0  0  0  0  0
   -3.0358   -0.3415    0.5785 C   0  0  0  0  0  0  0  0  0  0  0  0
    4.2253   -0.9677   -0.3810 H   0  0  0  0  0  0  0  0  0  0  0  0
    3.9317   -0.2087    1.2076 H   0  0  0  0  0  0  0  0  0  0  0  0
    3.7901    0.7837   -0.2969 H   0  0  0  0  0  0  0  0  0  0  0  0
    2.0564   -1.2198   -0.9423 H   0  0  0  0  0  0  0  0  0  0  0  0
    1.9050   -1.2741    0.8583 H   0  0  0  0  0  0  0  0  0  0  0  0
    1.5174    1.2139   -0.9274 H   0  0  0  0  0  0  0  0  0  0  0  0
    1.3107    1.0840    0.8443 H   0  0  0  0  0  0  0  0  0  0  0  0
   -0.2463   -0.6808   -1.1640 H   0  0  0  0  0  0  0  0  0  0  0  0
   -0.3099   -1.7560    0.6651 H   0  0  0  0  0  0  0  0  0  0  0  0
   -1.1434    1.8305    0.3680 H   0  0  0  0  0  0  0  0  0  0  0  0
   -0.9720    1.5913   -1.3794 H   0  0  0  0  0  0  0  0  0  0  0  0
   -3.3182    1.3147   -0.7071 H   0  0  0  0  0  0  0  0  0  0  0  0
   -2.5956   -0.1507   -1.4812 H   0  0  0  0  0  0  0  0  0  0  0  0
   -4.1648   -0.3497    0.5596 H   0  0  0  0  0  0  0  0  0  0  0  0
   -2.7572    0.0966    1.5671 H   0  0  0  0  0  0  0  0  0  0  0  0
   -2.7180   -1.3908    0.5419 H   0  0  0  0  0  0  0  0  0  0  0  0
  1  2  1  0
  2  3  1  0
  3  4  1  0
  4  5  1  0
  4  6  1  0
  6  7  1  0
  7  8  1  0
  1  9  1  0
  1 10  1  0
  1 11  1  0
  2 12  1  0
  2 13  1  0
  3 14  1  0
  3 15  1  0
  4 16  1  0
  5 17  1  0
  6 18  1  0
  6 19  1  0
  7 20  1  0
  7 21  1  0
  8 22  1  0
  8 23  1  0
  8 24  1  0
M  END
