
     RDKit          3D

 23 23  0  0  0  0  0  0  0  0999 V2000
    3.2765   -0.1664    0.0300 C   0  0  0  0  0  0  0  0  0  0  0  0
    1.9260   -0.7225    0.4814 C   0  0  0  0  0  0  0  0  0  0  0  0
    0.9138    0.3684    0.2518 C   0  0  0  0  0  0  0  0  0  0  0  0
   -0.4801   -0.0649    0.6647 C   0  0  0  0  0  0  0  0  0  0  0  0
   -1.5286    1.0201    0.4439 C   0  0  0  0  0  0  0  0  0  0  0  0
   -1.1553    2.1734   -0.2437 O   0  0  0  0  0  0  0  0  0  0  0  0
   -1.5346   -0.2278   -0.3642 C   0  0  0  0  0  0  0  0  0  0  0  0
   -2.6450   -1.2450   -0.1826 C   0  0  0  0  0  0  0  0  0  0  0  0
   -1.1019   -0.1459   -1.6939 O   0  0  0  0  0  0  0  0  0  0  0  0
    3.6143   -0.7778   -0.8332 H   0  0  0  0  0  0  0  0  0  0  0  0
    3.9741   -0.2335    0.8984 H   0  0  0  0  0  0  0  0  0  0  0  0
    3.2133    0.8695   -0.3105 H   0  0  0  0  0  0  0  0  0  0  0  0
    1.9656   -1.0827    1.5130 H   0  0  0  0  0  0  0  0  0  0  0  0
    1.6182   -1.5849   -0.1621 H   0  0  0  0  0  0  0  0  0  0  0  0
    1.1983    1.3210    0.7519 H   0  0  0  0  0  0  0  0  0  0  0  0
    0.9112    0.5895   -0.8391 H   0  0  0  0  0  0  0  0  0  0  0  0
   -0.5267   -0.6274    1.6213 H   0  0  0  0  0  0  0  0  0  0  0  0
   -2.2345    1.1664    1.2846 H   0  0  0  0  0  0  0  0  0  0  0  0
   -1.5212    2.9776    0.1537 H   0  0  0  0  0  0  0  0  0  0  0  0
   -3.3755   -1.0600   -1.0081 H   0  0  0  0  0  0  0  0  0  0  0  0
   -2.2157   -2.2428   -0.3324 H   0  0  0  0  0  0  0  0  0  0  0  0
   -3.1720   -1.1152    0.7831 H   0  0  0  0  0  0  0  0  0  0  0  0
   -1.1202    0.8109   -1.9597 H   0  0  0  0  0  0  0  0  0  0  0  0
  1  2  1  0
  2  3  1  0
  3  4  1  0
  4  5  1  0
  5  6  1  0
  5  7  1  0
  7  8  1  0
  7  9  1  0
  7  4  1  0
  1 10  1  0
  1 11  1  0
  1 12  1  0
  2 13  1  0
  2 14  1  0
  3 15  1  0
  3 16  1  0
  4 17  1  0
  5 18  1  0
  6 19  1  0
  8 20  1  0
  8 21  1  0
  8 22  1  0
  9 23  1  0
M  END
