
     RDKit          3D

 25 26  0  0  0  0  0  0  0  0999 V2000
    2.7186   -0.3707    0.4065 C   0  0  0  0  0  0  0  0  0  0  0  0
    2.0472    0.3620   -0.6966 C   0  0  0  0  0  0  0  0  0  0  0  0
    0.7460   -0.2250   -1.1536 C   0  0  0  0  0  0  0  0  0  0  0  0
   -0.2552   -0.2507   -0.0858 C   0  0  0  0  0  0  0  0  0  0  0  0
   -0.0970   -0.9950    1.1467 C   0  0  0  0  0  0  0  0  0  0  0  0
   -1.1719   -1.4288    0.2064 C   0  0  0  0  0  0  0  0  0  0  0  0
   -2.3889   -0.5312    0.2072 C   0  0  0  0  0  0  0  0  0  0  0  0
   -1.5257    0.5326   -0.3889 C   0  0  0  0  0  0  0  0  0  0  0  0
   -1.6031    1.8884    0.2469 C   0  0  0  0  0  0  0  0  0  0  0  0
    2.7395   -1.4703    0.2713 H   0  0  0  0  0  0  0  0  0  0  0  0
    2.3414   -0.1599    1.4178 H   0  0  0  0  0  0  0  0  0  0  0  0
    3.8351   -0.1065    0.3558 H   0  0  0  0  0  0  0  0  0  0  0  0
    2.7393    0.5603   -1.5538 H   0  0  0  0  0  0  0  0  0  0  0  0
    1.8429    1.4092   -0.3017 H   0  0  0  0  0  0  0  0  0  0  0  0
    0.9948   -1.2390   -1.5683 H   0  0  0  0  0  0  0  0  0  0  0  0
    0.3956    0.4034   -2.0197 H   0  0  0  0  0  0  0  0  0  0  0  0
    0.6651   -1.7596    1.2733 H   0  0  0  0  0  0  0  0  0  0  0  0
   -0.4972   -0.5597    2.1116 H   0  0  0  0  0  0  0  0  0  0  0  0
   -1.0651   -2.2497   -0.4916 H   0  0  0  0  0  0  0  0  0  0  0  0
   -3.2194   -0.8999   -0.4234 H   0  0  0  0  0  0  0  0  0  0  0  0
   -2.6873   -0.2485    1.2402 H   0  0  0  0  0  0  0  0  0  0  0  0
   -1.7083    0.6047   -1.4809 H   0  0  0  0  0  0  0  0  0  0  0  0
   -1.2591    2.6771   -0.4540 H   0  0  0  0  0  0  0  0  0  0  0  0
   -0.9494    1.9288    1.1608 H   0  0  0  0  0  0  0  0  0  0  0  0
   -2.6379    2.1279    0.5738 H   0  0  0  0  0  0  0  0  0  0  0  0
  1  2  1  0
  2  3  1  0
  3  4  1  0
  4  5  1  0
  5  6  1  0
  6  7  1  0
  7  8  1  0
  8  9  1  0
  6  4  1  0
  8  4  1  0
  1 10  1  0
  1 11  1  0
  1 12  1  0
  2 13  1  0
  2 14  1  0
  3 15  1  0
  3 16  1  0
  5 17  1  0
  5 18  1  0
  6 19  1  0
  7 20  1  0
  7 21  1  0
  8 22  1  0
  9 23  1  0
  9 24  1  0
  9 25  1  0
M  END
