
     RDKit          3D

 23 23  0  0  0  0  0  0  0  0999 V2000
    3.2973    0.3332   -0.0856 C   0  0  0  0  0  0  0  0  0  0  0  0
    1.8778    0.7786   -0.3048 C   0  0  0  0  0  0  0  0  0  0  0  0
    0.8730   -0.3035    0.0757 C   0  0  0  0  0  0  0  0  0  0  0  0
   -0.4902    0.2544   -0.1847 C   0  0  0  0  0  0  0  0  0  0  0  0
   -0.7595    1.4033    0.5548 O   0  0  0  0  0  0  0  0  0  0  0  0
   -2.1246    1.5830    0.2190 C   0  0  0  0  0  0  0  0  0  0  0  0
   -2.6062    0.1781    0.4977 C   0  0  0  0  0  0  0  0  0  0  0  0
   -1.5905   -0.6416    0.2465 C   0  0  0  0  0  0  0  0  0  0  0  0
   -1.5132   -2.1236    0.3540 C   0  0  0  0  0  0  0  0  0  0  0  0
    3.4292   -0.2429    0.8435 H   0  0  0  0  0  0  0  0  0  0  0  0
    3.9339    1.2323   -0.0618 H   0  0  0  0  0  0  0  0  0  0  0  0
    3.6245   -0.2832   -0.9665 H   0  0  0  0  0  0  0  0  0  0  0  0
    1.6254    1.7238    0.2135 H   0  0  0  0  0  0  0  0  0  0  0  0
    1.7044    0.9660   -1.3975 H   0  0  0  0  0  0  0  0  0  0  0  0
    0.9905   -0.6328    1.1228 H   0  0  0  0  0  0  0  0  0  0  0  0
    1.0209   -1.1831   -0.5733 H   0  0  0  0  0  0  0  0  0  0  0  0
   -0.5522    0.5309   -1.2495 H   0  0  0  0  0  0  0  0  0  0  0  0
   -2.5986    2.3140    0.8767 H   0  0  0  0  0  0  0  0  0  0  0  0
   -2.1461    1.8192   -0.8489 H   0  0  0  0  0  0  0  0  0  0  0  0
   -3.5811   -0.1458    0.8377 H   0  0  0  0  0  0  0  0  0  0  0  0
   -1.5086   -2.5499   -0.6885 H   0  0  0  0  0  0  0  0  0  0  0  0
   -2.3354   -2.5531    0.9407 H   0  0  0  0  0  0  0  0  0  0  0  0
   -0.5706   -2.4571    0.8162 H   0  0  0  0  0  0  0  0  0  0  0  0
  1  2  1  0
  2  3  1  0
  3  4  1  0
  4  5  1  0
  5  6  1  0
  6  7  1  0
  7  8  2  0
  8  9  1  0
  8  4  1  0
  1 10  1  0
  1 11  1  0
  1 12  1  0
  2 13  1  0
  2 14  1  0
  3 15  1  0
  3 16  1  0
  4 17  1  0
  6 18  1  0
  6 19  1  0
  7 20  1  0
  9 21  1  0
  9 22  1  0
  9 23  1  0
M  END
