
     RDKit          3D

 23 23  0  0  0  0  0  0  0  0999 V2000
    4.4307   -0.0500   -0.0996 C   0  0  0  0  0  0  0  0  0  0  0  0
    3.0300   -0.2862    0.4274 C   0  0  0  0  0  0  0  0  0  0  0  0
    2.0713    0.3209   -0.5802 C   0  0  0  0  0  0  0  0  0  0  0  0
    0.7202    0.0898   -0.0659 C   0  0  0  0  0  0  0  0  0  0  0  0
   -0.3921   -0.1162    0.3604 C   0  0  0  0  0  0  0  0  0  0  0  0
   -1.7514   -0.3760    0.8788 C   0  0  0  0  0  0  0  0  0  0  0  0
   -2.4892    0.7679    1.4903 C   0  0  0  0  0  0  0  0  0  0  0  0
   -2.9092    0.2961    0.1660 C   0  0  0  0  0  0  0  0  0  0  0  0
   -4.2078   -0.4686    0.0879 C   0  0  0  0  0  0  0  0  0  0  0  0
    4.4230    0.0860   -1.2182 H   0  0  0  0  0  0  0  0  0  0  0  0
    5.0472   -0.9263    0.1284 H   0  0  0  0  0  0  0  0  0  0  0  0
    4.8701    0.8427    0.3460 H   0  0  0  0  0  0  0  0  0  0  0  0
    2.8043   -1.3604    0.5106 H   0  0  0  0  0  0  0  0  0  0  0  0
    2.9521    0.1973    1.4121 H   0  0  0  0  0  0  0  0  0  0  0  0
    2.2872    1.4150   -0.7055 H   0  0  0  0  0  0  0  0  0  0  0  0
    2.2239   -0.1526   -1.5679 H   0  0  0  0  0  0  0  0  0  0  0  0
   -1.8762   -1.4022    1.2720 H   0  0  0  0  0  0  0  0  0  0  0  0
   -1.9384    1.7237    1.5630 H   0  0  0  0  0  0  0  0  0  0  0  0
   -3.1756    0.5989    2.3458 H   0  0  0  0  0  0  0  0  0  0  0  0
   -2.6105    0.8248   -0.7677 H   0  0  0  0  0  0  0  0  0  0  0  0
   -3.9914   -1.4688   -0.3216 H   0  0  0  0  0  0  0  0  0  0  0  0
   -4.8829    0.0316   -0.6329 H   0  0  0  0  0  0  0  0  0  0  0  0
   -4.6353   -0.5874    1.0823 H   0  0  0  0  0  0  0  0  0  0  0  0
  1  2  1  0
  2  3  1  0
  3  4  1  0
  4  5  3  0
  5  6  1  0
  6  7  1  0
  7  8  1  0
  8  9  1  0
  8  6  1  0
  1 10  1  0
  1 11  1  0
  1 12  1  0
  2 13  1  0
  2 14  1  0
  3 15  1  0
  3 16  1  0
  6 17  1  0
  7 18  1  0
  7 19  1  0
  8 20  1  0
  9 21  1  0
  9 22  1  0
  9 23  1  0
M  END
