
     RDKit          3D

 23 24  0  0  0  0  0  0  0  0999 V2000
    3.3015   -0.2597    0.1420 C   0  0  0  0  0  0  0  0  0  0  0  0
    2.4713    0.9589   -0.0818 C   0  0  0  0  0  0  0  0  0  0  0  0
    1.1155    0.8825    0.5735 C   0  0  0  0  0  0  0  0  0  0  0  0
    0.2917   -0.2773    0.0664 C   0  0  0  0  0  0  0  0  0  0  0  0
    0.0183   -0.2791   -1.2777 O   0  0  0  0  0  0  0  0  0  0  0  0
   -1.3588   -0.2080   -1.2322 C   0  0  0  0  0  0  0  0  0  0  0  0
   -2.1451   -0.9602   -0.2307 C   0  0  0  0  0  0  0  0  0  0  0  0
   -3.5875   -0.5908   -0.0478 C   0  0  0  0  0  0  0  0  0  0  0  0
   -1.1818    0.0401    0.3011 C   0  0  0  0  0  0  0  0  0  0  0  0
    3.1764   -0.9966   -0.7012 H   0  0  0  0  0  0  0  0  0  0  0  0
    4.3751    0.0476    0.1138 H   0  0  0  0  0  0  0  0  0  0  0  0
    3.0842   -0.7843    1.1013 H   0  0  0  0  0  0  0  0  0  0  0  0
    2.9872    1.8408    0.3618 H   0  0  0  0  0  0  0  0  0  0  0  0
    2.3750    1.1462   -1.1543 H   0  0  0  0  0  0  0  0  0  0  0  0
    0.5620    1.8127    0.3320 H   0  0  0  0  0  0  0  0  0  0  0  0
    1.1992    0.8358    1.6781 H   0  0  0  0  0  0  0  0  0  0  0  0
    0.5730   -1.2685    0.4232 H   0  0  0  0  0  0  0  0  0  0  0  0
   -1.8985    0.5611   -1.7939 H   0  0  0  0  0  0  0  0  0  0  0  0
   -1.9147   -2.0282   -0.0949 H   0  0  0  0  0  0  0  0  0  0  0  0
   -4.2534   -1.0150   -0.8270 H   0  0  0  0  0  0  0  0  0  0  0  0
   -3.9764   -1.0127    0.9234 H   0  0  0  0  0  0  0  0  0  0  0  0
   -3.7341    0.5128    0.0362 H   0  0  0  0  0  0  0  0  0  0  0  0
   -1.4803    1.0418    0.6097 H   0  0  0  0  0  0  0  0  0  0  0  0
  1  2  1  0
  2  3  1  0
  3  4  1  0
  4  5  1  0
  5  6  1  0
  6  7  1  0
  7  8  1  0
  7  9  1  0
  9  4  1  0
  9  6  1  0
  1 10  1  0
  1 11  1  0
  1 12  1  0
  2 13  1  0
  2 14  1  0
  3 15  1  0
  3 16  1  0
  4 17  1  0
  6 18  1  0
  7 19  1  0
  8 20  1  0
  8 21  1  0
  8 22  1  0
  9 23  1  0
M  END
