
     RDKit          3D

 23 23  0  0  0  0  0  0  0  0999 V2000
    2.9198    0.7477    0.2336 C   0  0  0  0  0  0  0  0  0  0  0  0
    1.5014    0.2488    0.5502 C   0  0  0  0  0  0  0  0  0  0  0  0
    1.1631   -0.7486   -0.5142 C   0  0  0  0  0  0  0  0  0  0  0  0
   -0.2131   -1.3051   -0.2914 C   0  0  0  0  0  0  0  0  0  0  0  0
   -1.1906   -0.1700   -0.3440 C   0  0  0  0  0  0  0  0  0  0  0  0
   -1.1548    0.4954   -1.5939 O   0  0  0  0  0  0  0  0  0  0  0  0
   -2.5952   -0.3760    0.1373 C   0  0  0  0  0  0  0  0  0  0  0  0
   -1.6551    0.5093    0.8679 C   0  0  0  0  0  0  0  0  0  0  0  0
   -1.7836    1.8952    0.7859 O   0  0  0  0  0  0  0  0  0  0  0  0
    2.9524    1.8566    0.3354 H   0  0  0  0  0  0  0  0  0  0  0  0
    3.2176    0.4956   -0.7989 H   0  0  0  0  0  0  0  0  0  0  0  0
    3.5763    0.2992    0.9916 H   0  0  0  0  0  0  0  0  0  0  0  0
    0.8032    1.0854    0.5379 H   0  0  0  0  0  0  0  0  0  0  0  0
    1.4534   -0.2348    1.5332 H   0  0  0  0  0  0  0  0  0  0  0  0
    1.9275   -1.5518   -0.5791 H   0  0  0  0  0  0  0  0  0  0  0  0
    1.2375   -0.2054   -1.4953 H   0  0  0  0  0  0  0  0  0  0  0  0
   -0.3981   -2.0524   -1.1139 H   0  0  0  0  0  0  0  0  0  0  0  0
   -0.2275   -1.8574    0.6563 H   0  0  0  0  0  0  0  0  0  0  0  0
   -1.4137   -0.1921   -2.2585 H   0  0  0  0  0  0  0  0  0  0  0  0
   -3.4431    0.0851   -0.4089 H   0  0  0  0  0  0  0  0  0  0  0  0
   -2.8249   -1.3509    0.6075 H   0  0  0  0  0  0  0  0  0  0  0  0
   -1.2396    0.1498    1.8288 H   0  0  0  0  0  0  0  0  0  0  0  0
   -2.6132    2.1764    0.3326 H   0  0  0  0  0  0  0  0  0  0  0  0
  1  2  1  0
  2  3  1  0
  3  4  1  0
  4  5  1  0
  5  6  1  0
  5  7  1  0
  7  8  1  0
  8  9  1  0
  8  5  1  0
  1 10  1  0
  1 11  1  0
  1 12  1  0
  2 13  1  0
  2 14  1  0
  3 15  1  0
  3 16  1  0
  4 17  1  0
  4 18  1  0
  6 19  1  0
  7 20  1  0
  7 21  1  0
  8 22  1  0
  9 23  1  0
M  END
