
     RDKit          3D

 24 23  0  0  0  0  0  0  0  0999 V2000
    3.9251    0.1234   -0.1225 C   0  0  0  0  0  0  0  0  0  0  0  0
    2.6456    0.0761    0.6856 C   0  0  0  0  0  0  0  0  0  0  0  0
    1.4985    0.0422   -0.2712 C   0  0  0  0  0  0  0  0  0  0  0  0
    0.1563   -0.0067    0.4285 C   0  0  0  0  0  0  0  0  0  0  0  0
   -0.8520   -0.0358   -0.5334 O   0  0  0  0  0  0  0  0  0  0  0  0
   -2.0811   -0.0805    0.0765 C   0  0  0  0  0  0  0  0  0  0  0  0
   -2.9245    1.1563   -0.2465 C   0  0  0  0  0  0  0  0  0  0  0  0
   -2.9186   -1.2748   -0.3696 C   0  0  0  0  0  0  0  0  0  0  0  0
    4.6869    0.7828    0.3447 H   0  0  0  0  0  0  0  0  0  0  0  0
    3.7156    0.4737   -1.1436 H   0  0  0  0  0  0  0  0  0  0  0  0
    4.3298   -0.9106   -0.1664 H   0  0  0  0  0  0  0  0  0  0  0  0
    2.6428   -0.8241    1.3302 H   0  0  0  0  0  0  0  0  0  0  0  0
    2.5952    1.0141    1.2755 H   0  0  0  0  0  0  0  0  0  0  0  0
    1.6193   -0.8525   -0.9129 H   0  0  0  0  0  0  0  0  0  0  0  0
    1.5727    0.9467   -0.9231 H   0  0  0  0  0  0  0  0  0  0  0  0
    0.0317    0.8219    1.1396 H   0  0  0  0  0  0  0  0  0  0  0  0
    0.1079   -1.0033    0.9469 H   0  0  0  0  0  0  0  0  0  0  0  0
   -1.9611   -0.0820    1.1740 H   0  0  0  0  0  0  0  0  0  0  0  0
   -2.4516    2.0555    0.1929 H   0  0  0  0  0  0  0  0  0  0  0  0
   -3.9319    0.9461    0.1747 H   0  0  0  0  0  0  0  0  0  0  0  0
   -3.0024    1.2281   -1.3315 H   0  0  0  0  0  0  0  0  0  0  0  0
   -3.6336   -1.4763    0.4742 H   0  0  0  0  0  0  0  0  0  0  0  0
   -2.2939   -2.1499   -0.6091 H   0  0  0  0  0  0  0  0  0  0  0  0
   -3.4765   -0.9702   -1.2791 H   0  0  0  0  0  0  0  0  0  0  0  0
  1  2  1  0
  2  3  1  0
  3  4  1  0
  4  5  1  0
  5  6  1  0
  6  7  1  0
  6  8  1  0
  1  9  1  0
  1 10  1  0
  1 11  1  0
  2 12  1  0
  2 13  1  0
  3 14  1  0
  3 15  1  0
  4 16  1  0
  4 17  1  0
  6 18  1  0
  7 19  1  0
  7 20  1  0
  7 21  1  0
  8 22  1  0
  8 23  1  0
  8 24  1  0
M  END
