
     RDKit          3D

 25 24  0  0  0  0  0  0  0  0999 V2000
    2.3661    0.7676    0.3257 C   0  0  0  0  0  0  0  0  0  0  0  0
    1.8266   -0.4215   -0.4106 C   0  0  0  0  0  0  0  0  0  0  0  0
    0.5654   -0.9864    0.0336 C   0  0  0  0  0  0  0  0  0  0  0  0
   -0.7429   -0.3773   -0.0168 C   0  0  0  0  0  0  0  0  0  0  0  0
   -1.7344   -1.3960    0.6089 C   0  0  0  0  0  0  0  0  0  0  0  0
   -1.2809   -0.3086   -1.4801 C   0  0  0  0  0  0  0  0  0  0  0  0
   -0.9981    0.9016    0.6535 C   0  0  0  0  0  0  0  0  0  0  0  0
   -0.3049    2.1019    0.2163 C   0  0  0  0  0  0  0  0  0  0  0  0
   -0.2261    3.0615    0.9474 O   0  0  0  0  0  0  0  0  0  0  0  0
    1.9433    0.9081    1.3400 H   0  0  0  0  0  0  0  0  0  0  0  0
    2.4141    1.6749   -0.2993 H   0  0  0  0  0  0  0  0  0  0  0  0
    3.4801    0.5773    0.5547 H   0  0  0  0  0  0  0  0  0  0  0  0
    1.8511   -0.1289   -1.5007 H   0  0  0  0  0  0  0  0  0  0  0  0
    2.6543   -1.2130   -0.3870 H   0  0  0  0  0  0  0  0  0  0  0  0
    0.7383   -1.3055    1.1384 H   0  0  0  0  0  0  0  0  0  0  0  0
    0.5168   -2.0544   -0.4351 H   0  0  0  0  0  0  0  0  0  0  0  0
   -1.1986   -2.0129    1.3649 H   0  0  0  0  0  0  0  0  0  0  0  0
   -2.1327   -2.0920   -0.1367 H   0  0  0  0  0  0  0  0  0  0  0  0
   -2.5576   -0.8912    1.1098 H   0  0  0  0  0  0  0  0  0  0  0  0
   -1.2965   -1.3342   -1.8392 H   0  0  0  0  0  0  0  0  0  0  0  0
   -2.3278    0.0348   -1.3591 H   0  0  0  0  0  0  0  0  0  0  0  0
   -0.7430    0.4262   -2.0692 H   0  0  0  0  0  0  0  0  0  0  0  0
   -2.1120    1.1755    0.6317 H   0  0  0  0  0  0  0  0  0  0  0  0
   -0.8441    0.7388    1.7701 H   0  0  0  0  0  0  0  0  0  0  0  0
    0.1435    2.1537   -0.7614 H   0  0  0  0  0  0  0  0  0  0  0  0
  1  2  1  0
  2  3  1  0
  3  4  1  0
  4  5  1  0
  4  6  1  0
  4  7  1  0
  7  8  1  0
  8  9  2  0
  1 10  1  0
  1 11  1  0
  1 12  1  0
  2 13  1  0
  2 14  1  0
  3 15  1  0
  3 16  1  0
  5 17  1  0
  5 18  1  0
  5 19  1  0
  6 20  1  0
  6 21  1  0
  6 22  1  0
  7 23  1  0
  7 24  1  0
  8 25  1  0
M  END
