
     RDKit          3D

 25 25  0  0  0  0  0  0  0  0999 V2000
    2.8722    0.4303    0.6771 C   0  0  0  0  0  0  0  0  0  0  0  0
    2.3381    0.0019   -0.6488 C   0  0  0  0  0  0  0  0  0  0  0  0
    0.9805    0.4958   -0.9994 C   0  0  0  0  0  0  0  0  0  0  0  0
   -0.0996    0.0516   -0.0481 C   0  0  0  0  0  0  0  0  0  0  0  0
    0.0632   -0.7154    1.0166 C   0  0  0  0  0  0  0  0  0  0  0  0
   -1.2407   -0.9544    1.7328 C   0  0  0  0  0  0  0  0  0  0  0  0
   -2.2196   -0.7067    0.5772 C   0  0  0  0  0  0  0  0  0  0  0  0
   -1.5346    0.4095   -0.1342 C   0  0  0  0  0  0  0  0  0  0  0  0
   -2.0162    0.6142   -1.5383 C   0  0  0  0  0  0  0  0  0  0  0  0
    3.7423    1.1366    0.5182 H   0  0  0  0  0  0  0  0  0  0  0  0
    2.1714    0.9732    1.3222 H   0  0  0  0  0  0  0  0  0  0  0  0
    3.3259   -0.4522    1.1727 H   0  0  0  0  0  0  0  0  0  0  0  0
    2.3173   -1.1170   -0.7654 H   0  0  0  0  0  0  0  0  0  0  0  0
    3.0289    0.3403   -1.4625 H   0  0  0  0  0  0  0  0  0  0  0  0
    0.9251    1.5991   -1.1441 H   0  0  0  0  0  0  0  0  0  0  0  0
    0.7119    0.0471   -1.9795 H   0  0  0  0  0  0  0  0  0  0  0  0
    1.0438   -1.1254    1.3262 H   0  0  0  0  0  0  0  0  0  0  0  0
   -1.2643   -2.0165    2.0482 H   0  0  0  0  0  0  0  0  0  0  0  0
   -1.4050   -0.2629    2.5530 H   0  0  0  0  0  0  0  0  0  0  0  0
   -2.2820   -1.6071   -0.0669 H   0  0  0  0  0  0  0  0  0  0  0  0
   -3.2002   -0.4571    0.9981 H   0  0  0  0  0  0  0  0  0  0  0  0
   -1.6714    1.3319    0.4994 H   0  0  0  0  0  0  0  0  0  0  0  0
   -1.3129    1.1180   -2.1935 H   0  0  0  0  0  0  0  0  0  0  0  0
   -2.9414    1.2329   -1.4940 H   0  0  0  0  0  0  0  0  0  0  0  0
   -2.3327   -0.3675   -1.9671 H   0  0  0  0  0  0  0  0  0  0  0  0
  1  2  1  0
  2  3  1  0
  3  4  1  0
  4  5  2  0
  5  6  1  0
  6  7  1  0
  7  8  1  0
  8  9  1  0
  8  4  1  0
  1 10  1  0
  1 11  1  0
  1 12  1  0
  2 13  1  0
  2 14  1  0
  3 15  1  0
  3 16  1  0
  5 17  1  0
  6 18  1  0
  6 19  1  0
  7 20  1  0
  7 21  1  0
  8 22  1  0
  9 23  1  0
  9 24  1  0
  9 25  1  0
M  END
