
     RDKit          3D

 27 26  0  0  0  0  0  0  0  0999 V2000
    3.5168    0.7201   -0.0670 C   0  0  0  0  0  0  0  0  0  0  0  0
    2.0006    0.7533    0.0698 C   0  0  0  0  0  0  0  0  0  0  0  0
    1.4886   -0.5980    0.4973 C   0  0  0  0  0  0  0  0  0  0  0  0
    0.0399   -0.6870    0.7035 C   0  0  0  0  0  0  0  0  0  0  0  0
   -0.5786   -0.2614   -0.8858 C   0  0  0  0  0  0  0  0  0  0  0  0
   -2.2297   -0.4641   -0.3984 C   0  0  0  0  0  0  0  0  0  0  0  0
   -2.3690   -1.8654    0.0016 C   0  0  0  0  0  0  0  0  0  0  0  0
   -0.5749    0.9731   -0.6811 O   0  0  0  0  0  0  0  0  0  0  0  0
   -1.4210    1.8477   -0.1658 C   0  0  0  0  0  0  0  0  0  0  0  0
    4.0057    0.1974    0.7744 H   0  0  0  0  0  0  0  0  0  0  0  0
    3.8715    1.7796   -0.0343 H   0  0  0  0  0  0  0  0  0  0  0  0
    3.8120    0.2642   -1.0132 H   0  0  0  0  0  0  0  0  0  0  0  0
    1.6936    1.5250    0.7777 H   0  0  0  0  0  0  0  0  0  0  0  0
    1.6431    1.0349   -0.9625 H   0  0  0  0  0  0  0  0  0  0  0  0
    1.7897   -1.3698   -0.2878 H   0  0  0  0  0  0  0  0  0  0  0  0
    2.0846   -0.9049    1.3922 H   0  0  0  0  0  0  0  0  0  0  0  0
   -0.4079    0.1366    1.2307 H   0  0  0  0  0  0  0  0  0  0  0  0
   -0.4269   -1.6180    0.8634 H   0  0  0  0  0  0  0  0  0  0  0  0
   -0.5816   -1.2520   -1.0500 H   0  0  0  0  0  0  0  0  0  0  0  0
   -2.6682   -0.2376   -1.3404 H   0  0  0  0  0  0  0  0  0  0  0  0
   -2.3572    0.1946    0.3944 H   0  0  0  0  0  0  0  0  0  0  0  0
   -2.4005   -1.9550    1.1050 H   0  0  0  0  0  0  0  0  0  0  0  0
   -3.3679   -2.2245   -0.3958 H   0  0  0  0  0  0  0  0  0  0  0  0
   -1.6354   -2.5723   -0.4360 H   0  0  0  0  0  0  0  0  0  0  0  0
   -2.3952    1.8474   -0.7127 H   0  0  0  0  0  0  0  0  0  0  0  0
   -0.9892    2.9101   -0.3204 H   0  0  0  0  0  0  0  0  0  0  0  0
   -1.5430    1.8260    0.9410 H   0  0  0  0  0  0  0  0  0  0  0  0
  1  2  1  0
  2  3  1  0
  3  4  1  0
  4  5  1  0
  5  6  1  0
  6  7  1  0
  5  8  1  0
  8  9  1  0
  1 10  1  0
  1 11  1  0
  1 12  1  0
  2 13  1  0
  2 14  1  0
  3 15  1  0
  3 16  1  0
  4 17  1  0
  4 18  1  0
  5 19  1  0
  6 20  1  0
  6 21  1  0
  7 22  1  0
  7 23  1  0
  7 24  1  0
  9 25  1  0
  9 26  1  0
  9 27  1  0
M  END
