
     RDKit          3D

 21 20  0  0  0  0  0  0  0  0999 V2000
   -3.1780    0.2364    0.4149 C   0  0  0  0  0  0  0  0  0  0  0  0
   -1.9640   -0.2194   -0.3421 C   0  0  0  0  0  0  0  0  0  0  0  0
   -0.6978    0.4715    0.1278 C   0  0  0  0  0  0  0  0  0  0  0  0
    0.4166   -0.1124   -0.7457 C   0  0  0  0  0  0  0  0  0  0  0  0
    0.4187   -1.4802   -0.5032 O   0  0  0  0  0  0  0  0  0  0  0  0
    1.7211    0.4950   -0.4492 C   0  0  0  0  0  0  0  0  0  0  0  0
    1.9547    1.6911   -0.5882 O   0  0  0  0  0  0  0  0  0  0  0  0
    2.8009   -0.4055    0.0442 C   0  0  0  0  0  0  0  0  0  0  0  0
    3.9591    0.2951    0.2786 O   0  0  0  0  0  0  0  0  0  0  0  0
   -3.1959    1.3399    0.4501 H   0  0  0  0  0  0  0  0  0  0  0  0
   -3.1618   -0.2349    1.4201 H   0  0  0  0  0  0  0  0  0  0  0  0
   -4.0677   -0.1600   -0.1298 H   0  0  0  0  0  0  0  0  0  0  0  0
   -1.7943   -1.3212   -0.1730 H   0  0  0  0  0  0  0  0  0  0  0  0
   -2.0391   -0.0701   -1.4313 H   0  0  0  0  0  0  0  0  0  0  0  0
   -0.7754    1.5684   -0.0089 H   0  0  0  0  0  0  0  0  0  0  0  0
   -0.5130    0.2823    1.2008 H   0  0  0  0  0  0  0  0  0  0  0  0
    0.0930    0.1127   -1.8008 H   0  0  0  0  0  0  0  0  0  0  0  0
    0.5336   -1.5760    0.4926 H   0  0  0  0  0  0  0  0  0  0  0  0
    2.5061   -0.9005    1.0050 H   0  0  0  0  0  0  0  0  0  0  0  0
    3.0019   -1.1857   -0.7464 H   0  0  0  0  0  0  0  0  0  0  0  0
    3.9813    1.1733   -0.2041 H   0  0  0  0  0  0  0  0  0  0  0  0
  1  2  1  0
  2  3  1  0
  3  4  1  0
  4  5  1  0
  4  6  1  0
  6  7  2  0
  6  8  1  0
  8  9  1  0
  1 10  1  0
  1 11  1  0
  1 12  1  0
  2 13  1  0
  2 14  1  0
  3 15  1  0
  3 16  1  0
  4 17  1  0
  5 18  1  0
  8 19  1  0
  8 20  1  0
  9 21  1  0
M  END
