
     RDKit          3D

 19 18  0  0  0  0  0  0  0  0999 V2000
   -1.7399    0.3508    0.0075 C   0  0  0  0  0  0  0  0  0  0  0  0
   -1.5299   -1.1283   -0.1336 C   0  0  0  0  0  0  0  0  0  0  0  0
   -0.1883   -1.4630   -0.7343 C   0  0  0  0  0  0  0  0  0  0  0  0
    0.9682   -0.9859    0.0365 C   0  0  0  0  0  0  0  0  0  0  0  0
    2.1318   -1.4065   -0.6862 O   0  0  0  0  0  0  0  0  0  0  0  0
    1.0937    0.4207    0.2898 C   0  0  0  0  0  0  0  0  0  0  0  0
    1.1975    1.6635    0.5347 C   0  0  0  0  0  0  0  0  0  0  0  0
    1.3354    3.0191    0.8028 C   0  0  0  0  0  0  0  0  0  0  0  0
    1.6393    3.8637   -0.1203 O   0  0  0  0  0  0  0  0  0  0  0  0
   -1.4795    0.7545    0.9883 H   0  0  0  0  0  0  0  0  0  0  0  0
   -1.2651    0.9365   -0.7931 H   0  0  0  0  0  0  0  0  0  0  0  0
   -2.8514    0.5690   -0.0944 H   0  0  0  0  0  0  0  0  0  0  0  0
   -1.6791   -1.6156    0.8533 H   0  0  0  0  0  0  0  0  0  0  0  0
   -2.3011   -1.5541   -0.8456 H   0  0  0  0  0  0  0  0  0  0  0  0
   -0.1746   -1.0332   -1.7477 H   0  0  0  0  0  0  0  0  0  0  0  0
   -0.0983   -2.5742   -0.8978 H   0  0  0  0  0  0  0  0  0  0  0  0
    1.0174   -1.5052    1.0193 H   0  0  0  0  0  0  0  0  0  0  0  0
    2.7235   -1.7636    0.0267 H   0  0  0  0  0  0  0  0  0  0  0  0
    1.2005    3.4517    1.7986 H   0  0  0  0  0  0  0  0  0  0  0  0
  1  2  1  0
  2  3  1  0
  3  4  1  0
  4  5  1  0
  4  6  1  0
  6  7  3  0
  7  8  1  0
  8  9  2  0
  1 10  1  0
  1 11  1  0
  1 12  1  0
  2 13  1  0
  2 14  1  0
  3 15  1  0
  3 16  1  0
  4 17  1  0
  5 18  1  0
  8 19  1  0
M  END
