
     RDKit          3D

 23 22  0  0  0  0  0  0  0  0999 V2000
   -3.1952   -0.0519   -0.3703 C   0  0  0  0  0  0  0  0  0  0  0  0
   -3.0705    1.1737    0.4724 C   0  0  0  0  0  0  0  0  0  0  0  0
   -1.7842    1.9348    0.2514 C   0  0  0  0  0  0  0  0  0  0  0  0
   -0.6097    1.1019    0.5576 C   0  0  0  0  0  0  0  0  0  0  0  0
    0.3707    0.4176    0.7966 C   0  0  0  0  0  0  0  0  0  0  0  0
    1.5621   -0.4027    1.0618 C   0  0  0  0  0  0  0  0  0  0  0  0
    2.3239   -0.5880   -0.2342 C   0  0  0  0  0  0  0  0  0  0  0  0
    3.5372   -1.4362    0.0889 C   0  0  0  0  0  0  0  0  0  0  0  0
    1.5601   -1.2830   -1.1684 O   0  0  0  0  0  0  0  0  0  0  0  0
   -2.2296   -0.4360   -0.7601 H   0  0  0  0  0  0  0  0  0  0  0  0
   -3.5963   -0.8714    0.2958 H   0  0  0  0  0  0  0  0  0  0  0  0
   -3.9488    0.0748   -1.1594 H   0  0  0  0  0  0  0  0  0  0  0  0
   -3.8960    1.8704    0.2024 H   0  0  0  0  0  0  0  0  0  0  0  0
   -3.1525    0.9591    1.5363 H   0  0  0  0  0  0  0  0  0  0  0  0
   -1.7781    2.7671    0.9835 H   0  0  0  0  0  0  0  0  0  0  0  0
   -1.7277    2.3515   -0.7692 H   0  0  0  0  0  0  0  0  0  0  0  0
    1.2912   -1.4067    1.4378 H   0  0  0  0  0  0  0  0  0  0  0  0
    2.1701    0.1533    1.8027 H   0  0  0  0  0  0  0  0  0  0  0  0
    2.6244    0.3812   -0.6749 H   0  0  0  0  0  0  0  0  0  0  0  0
    4.3443   -1.2879   -0.6576 H   0  0  0  0  0  0  0  0  0  0  0  0
    3.2022   -2.5043    0.0156 H   0  0  0  0  0  0  0  0  0  0  0  0
    3.9147   -1.2336    1.1123 H   0  0  0  0  0  0  0  0  0  0  0  0
    2.0879   -1.6834   -1.8800 H   0  0  0  0  0  0  0  0  0  0  0  0
  1  2  1  0
  2  3  1  0
  3  4  1  0
  4  5  3  0
  5  6  1  0
  6  7  1  0
  7  8  1  0
  7  9  1  0
  1 10  1  0
  1 11  1  0
  1 12  1  0
  2 13  1  0
  2 14  1  0
  3 15  1  0
  3 16  1  0
  6 17  1  0
  6 18  1  0
  7 19  1  0
  8 20  1  0
  8 21  1  0
  8 22  1  0
  9 23  1  0
M  END
