
     RDKit          3D

 23 24  0  0  0  0  0  0  0  0999 V2000
    3.2286   -0.0812   -0.1476 C   0  0  0  0  0  0  0  0  0  0  0  0
    1.7934   -0.1552   -0.6960 C   0  0  0  0  0  0  0  0  0  0  0  0
    0.9062    0.2188    0.4470 C   0  0  0  0  0  0  0  0  0  0  0  0
   -0.5474    0.2188    0.1731 C   0  0  0  0  0  0  0  0  0  0  0  0
   -1.4925    0.5849    1.2775 C   0  0  0  0  0  0  0  0  0  0  0  0
   -2.7567   -0.1513    1.0089 C   0  0  0  0  0  0  0  0  0  0  0  0
   -2.6173   -0.9327   -0.0569 C   0  0  0  0  0  0  0  0  0  0  0  0
   -1.2443   -0.8021   -0.6148 C   0  0  0  0  0  0  0  0  0  0  0  0
   -0.9586    0.5581   -1.2552 C   0  0  0  0  0  0  0  0  0  0  0  0
    3.1785   -0.5049    0.8675 H   0  0  0  0  0  0  0  0  0  0  0  0
    3.4465    0.9915   -0.0429 H   0  0  0  0  0  0  0  0  0  0  0  0
    3.9372   -0.6051   -0.8100 H   0  0  0  0  0  0  0  0  0  0  0  0
    1.6563   -1.1989   -1.0382 H   0  0  0  0  0  0  0  0  0  0  0  0
    1.7357    0.5723   -1.5326 H   0  0  0  0  0  0  0  0  0  0  0  0
    1.1140   -0.4592    1.3009 H   0  0  0  0  0  0  0  0  0  0  0  0
    1.1994    1.2613    0.7544 H   0  0  0  0  0  0  0  0  0  0  0  0
   -1.0744    0.1389    2.2200 H   0  0  0  0  0  0  0  0  0  0  0  0
   -1.6624    1.6608    1.3863 H   0  0  0  0  0  0  0  0  0  0  0  0
   -3.6362   -0.0182    1.6414 H   0  0  0  0  0  0  0  0  0  0  0  0
   -3.4189   -1.5584   -0.4291 H   0  0  0  0  0  0  0  0  0  0  0  0
   -0.7612   -1.6406   -1.1099 H   0  0  0  0  0  0  0  0  0  0  0  0
   -1.8044    1.2968   -1.2905 H   0  0  0  0  0  0  0  0  0  0  0  0
   -0.2213    0.6057   -2.0532 H   0  0  0  0  0  0  0  0  0  0  0  0
  1  2  1  0
  2  3  1  0
  3  4  1  0
  4  5  1  0
  5  6  1  0
  6  7  2  0
  7  8  1  0
  8  9  1  0
  8  4  1  0
  9  4  1  0
  1 10  1  0
  1 11  1  0
  1 12  1  0
  2 13  1  0
  2 14  1  0
  3 15  1  0
  3 16  1  0
  5 17  1  0
  5 18  1  0
  6 19  1  0
  7 20  1  0
  8 21  1  0
  9 22  1  0
  9 23  1  0
M  END
