
     RDKit          3D

 21 22  0  0  0  0  0  0  0  0999 V2000
    2.9714    0.2374   -0.1071 C   0  0  0  0  0  0  0  0  0  0  0  0
    1.5680   -0.1016   -0.6041 C   0  0  0  0  0  0  0  0  0  0  0  0
    0.5347    0.3030    0.4382 C   0  0  0  0  0  0  0  0  0  0  0  0
   -0.7536    0.0339    0.0728 C   0  0  0  0  0  0  0  0  0  0  0  0
   -1.3975   -1.2614   -0.2614 C   0  0  0  0  0  0  0  0  0  0  0  0
   -2.5116   -0.2501   -0.3932 C   0  0  0  0  0  0  0  0  0  0  0  0
   -1.5049    0.6129   -1.1030 C   0  0  0  0  0  0  0  0  0  0  0  0
   -1.9861    0.3360    0.8550 C   0  0  0  0  0  0  0  0  0  0  0  0
   -2.2926    0.8016    1.9135 O   0  0  0  0  0  0  0  0  0  0  0  0
    3.6548    0.4498   -0.9615 H   0  0  0  0  0  0  0  0  0  0  0  0
    3.4207   -0.6252    0.4404 H   0  0  0  0  0  0  0  0  0  0  0  0
    2.9235    1.1033    0.5974 H   0  0  0  0  0  0  0  0  0  0  0  0
    1.4769   -1.1550   -0.8996 H   0  0  0  0  0  0  0  0  0  0  0  0
    1.3582    0.5591   -1.4954 H   0  0  0  0  0  0  0  0  0  0  0  0
    0.8665   -0.1655    1.3875 H   0  0  0  0  0  0  0  0  0  0  0  0
    0.7192    1.4075    0.5998 H   0  0  0  0  0  0  0  0  0  0  0  0
   -1.0860   -1.7236   -1.2375 H   0  0  0  0  0  0  0  0  0  0  0  0
   -1.5330   -1.9994    0.5367 H   0  0  0  0  0  0  0  0  0  0  0  0
   -3.4618   -0.4255   -0.6485 H   0  0  0  0  0  0  0  0  0  0  0  0
   -1.7106    1.6845   -1.0750 H   0  0  0  0  0  0  0  0  0  0  0  0
   -1.2564    0.1783   -2.0830 H   0  0  0  0  0  0  0  0  0  0  0  0
  1  2  1  0
  2  3  1  0
  3  4  1  0
  4  5  1  0
  5  6  1  0
  6  7  1  0
  6  8  1  0
  8  9  2  0
  7  4  1  0
  8  4  1  0
  1 10  1  0
  1 11  1  0
  1 12  1  0
  2 13  1  0
  2 14  1  0
  3 15  1  0
  3 16  1  0
  5 17  1  0
  5 18  1  0
  6 19  1  0
  7 20  1  0
  7 21  1  0
M  END
