
     RDKit          3D

 21 22  0  0  0  0  0  0  0  0999 V2000
    2.9991    0.3400    0.1289 C   0  0  0  0  0  0  0  0  0  0  0  0
    1.6306    0.0343   -0.4376 C   0  0  0  0  0  0  0  0  0  0  0  0
    0.6273   -0.2972    0.6322 C   0  0  0  0  0  0  0  0  0  0  0  0
   -0.6890   -0.5845   -0.0051 C   0  0  0  0  0  0  0  0  0  0  0  0
   -1.8641   -0.9424    0.8296 C   0  0  0  0  0  0  0  0  0  0  0  0
   -1.8401    0.3066    0.0406 C   0  0  0  0  0  0  0  0  0  0  0  0
   -1.8496    1.5534    0.5904 O   0  0  0  0  0  0  0  0  0  0  0  0
   -1.9332    0.1280   -1.4572 C   0  0  0  0  0  0  0  0  0  0  0  0
   -0.7322   -0.6091   -1.3763 O   0  0  0  0  0  0  0  0  0  0  0  0
    2.9539    0.8160    1.1184 H   0  0  0  0  0  0  0  0  0  0  0  0
    3.5875   -0.5997    0.2270 H   0  0  0  0  0  0  0  0  0  0  0  0
    3.5330    0.9670   -0.6151 H   0  0  0  0  0  0  0  0  0  0  0  0
    1.3003    0.9151   -1.0492 H   0  0  0  0  0  0  0  0  0  0  0  0
    1.7618   -0.7930   -1.1667 H   0  0  0  0  0  0  0  0  0  0  0  0
    1.0102   -1.2179    1.1485 H   0  0  0  0  0  0  0  0  0  0  0  0
    0.6020    0.5186    1.3652 H   0  0  0  0  0  0  0  0  0  0  0  0
   -2.4942   -1.7582    0.4395 H   0  0  0  0  0  0  0  0  0  0  0  0
   -1.7024   -0.8388    1.9234 H   0  0  0  0  0  0  0  0  0  0  0  0
   -2.2856    1.5712    1.4616 H   0  0  0  0  0  0  0  0  0  0  0  0
   -2.7653   -0.5438   -1.7350 H   0  0  0  0  0  0  0  0  0  0  0  0
   -1.8501    1.0344   -2.0631 H   0  0  0  0  0  0  0  0  0  0  0  0
  1  2  1  0
  2  3  1  0
  3  4  1  0
  4  5  1  0
  5  6  1  0
  6  7  1  0
  6  8  1  0
  8  9  1  0
  6  4  1  0
  9  4  1  0
  1 10  1  0
  1 11  1  0
  1 12  1  0
  2 13  1  0
  2 14  1  0
  3 15  1  0
  3 16  1  0
  5 17  1  0
  5 18  1  0
  7 19  1  0
  8 20  1  0
  8 21  1  0
M  END
