
     RDKit          3D

 25 25  0  0  0  0  0  0  0  0999 V2000
    2.7903    1.2381   -0.6716 C   0  0  0  0  0  0  0  0  0  0  0  0
    1.6666    0.2399   -0.7771 C   0  0  0  0  0  0  0  0  0  0  0  0
    0.6807    0.3973    0.3784 C   0  0  0  0  0  0  0  0  0  0  0  0
   -0.4392   -0.5957    0.2754 C   0  0  0  0  0  0  0  0  0  0  0  0
   -0.0103   -2.0318    0.2994 C   0  0  0  0  0  0  0  0  0  0  0  0
   -1.4066   -0.3556   -0.8653 C   0  0  0  0  0  0  0  0  0  0  0  0
   -2.2370    0.4757    0.0949 C   0  0  0  0  0  0  0  0  0  0  0  0
   -1.8952    1.8150   -0.0504 O   0  0  0  0  0  0  0  0  0  0  0  0
   -1.5708   -0.2512    1.2210 C   0  0  0  0  0  0  0  0  0  0  0  0
    3.6040    0.8701    0.0198 H   0  0  0  0  0  0  0  0  0  0  0  0
    3.2597    1.4710   -1.6269 H   0  0  0  0  0  0  0  0  0  0  0  0
    2.4360    2.1921   -0.2018 H   0  0  0  0  0  0  0  0  0  0  0  0
    2.1038   -0.7639   -0.6915 H   0  0  0  0  0  0  0  0  0  0  0  0
    1.1774    0.3592   -1.7528 H   0  0  0  0  0  0  0  0  0  0  0  0
    1.2499    0.1535    1.3030 H   0  0  0  0  0  0  0  0  0  0  0  0
    0.3564    1.4306    0.4558 H   0  0  0  0  0  0  0  0  0  0  0  0
   -0.9378   -2.6559    0.3200 H   0  0  0  0  0  0  0  0  0  0  0  0
    0.6358   -2.3018    1.1417 H   0  0  0  0  0  0  0  0  0  0  0  0
    0.4589   -2.2638   -0.6979 H   0  0  0  0  0  0  0  0  0  0  0  0
   -1.9665   -1.2727   -1.1291 H   0  0  0  0  0  0  0  0  0  0  0  0
   -0.9903    0.2240   -1.7120 H   0  0  0  0  0  0  0  0  0  0  0  0
   -3.3275    0.3283    0.0206 H   0  0  0  0  0  0  0  0  0  0  0  0
   -2.2009    2.1162   -0.9438 H   0  0  0  0  0  0  0  0  0  0  0  0
   -1.2850    0.3404    2.1015 H   0  0  0  0  0  0  0  0  0  0  0  0
   -2.1525   -1.1588    1.5020 H   0  0  0  0  0  0  0  0  0  0  0  0
  1  2  1  0
  2  3  1  0
  3  4  1  0
  4  5  1  0
  4  6  1  0
  6  7  1  0
  7  8  1  0
  7  9  1  0
  9  4  1  0
  1 10  1  0
  1 11  1  0
  1 12  1  0
  2 13  1  0
  2 14  1  0
  3 15  1  0
  3 16  1  0
  5 17  1  0
  5 18  1  0
  5 19  1  0
  6 20  1  0
  6 21  1  0
  7 22  1  0
  8 23  1  0
  9 24  1  0
  9 25  1  0
M  END
