
     RDKit          3D

 23 22  0  0  0  0  0  0  0  0999 V2000
   -3.3592    0.6218    0.2895 C   0  0  0  0  0  0  0  0  0  0  0  0
   -2.7151    0.4213   -1.0528 C   0  0  0  0  0  0  0  0  0  0  0  0
   -1.4092   -0.2932   -0.9645 C   0  0  0  0  0  0  0  0  0  0  0  0
   -0.3694    0.3947   -0.1254 C   0  0  0  0  0  0  0  0  0  0  0  0
    0.8697   -0.4557   -0.1793 C   0  0  0  0  0  0  0  0  0  0  0  0
    1.9926    0.1040    0.6268 C   0  0  0  0  0  0  0  0  0  0  0  0
    1.8309    0.4059    1.8428 O   0  0  0  0  0  0  0  0  0  0  0  0
    3.2559    0.3183    0.0880 O   0  0  0  0  0  0  0  0  0  0  0  0
    4.3366    0.8574    0.8351 C   0  0  0  0  0  0  0  0  0  0  0  0
   -4.4714    0.6415    0.2227 H   0  0  0  0  0  0  0  0  0  0  0  0
   -3.0583   -0.1459    1.0141 H   0  0  0  0  0  0  0  0  0  0  0  0
   -3.0608    1.6402    0.6548 H   0  0  0  0  0  0  0  0  0  0  0  0
   -2.6526    1.3582   -1.6417 H   0  0  0  0  0  0  0  0  0  0  0  0
   -3.4086   -0.2587   -1.6283 H   0  0  0  0  0  0  0  0  0  0  0  0
   -1.0044   -0.4881   -1.9585 H   0  0  0  0  0  0  0  0  0  0  0  0
   -1.6197   -1.2820   -0.4674 H   0  0  0  0  0  0  0  0  0  0  0  0
   -0.7510    0.5150    0.9034 H   0  0  0  0  0  0  0  0  0  0  0  0
   -0.2236    1.3959   -0.5450 H   0  0  0  0  0  0  0  0  0  0  0  0
    1.1874   -0.6834   -1.2161 H   0  0  0  0  0  0  0  0  0  0  0  0
    0.6134   -1.4368    0.2914 H   0  0  0  0  0  0  0  0  0  0  0  0
    5.2699    0.6577    0.2335 H   0  0  0  0  0  0  0  0  0  0  0  0
    4.2985    1.9606    0.9355 H   0  0  0  0  0  0  0  0  0  0  0  0
    4.4485    0.3983    1.8413 H   0  0  0  0  0  0  0  0  0  0  0  0
  1  2  1  0
  2  3  1  0
  3  4  1  0
  4  5  1  0
  5  6  1  0
  6  7  2  0
  6  8  1  0
  8  9  1  0
  1 10  1  0
  1 11  1  0
  1 12  1  0
  2 13  1  0
  2 14  1  0
  3 15  1  0
  3 16  1  0
  4 17  1  0
  4 18  1  0
  5 19  1  0
  5 20  1  0
  9 21  1  0
  9 22  1  0
  9 23  1  0
M  END
