
     RDKit          3D

 21 20  0  0  0  0  0  0  0  0999 V2000
    2.7874    0.8443    0.3746 C   0  0  0  0  0  0  0  0  0  0  0  0
    2.3377   -0.5605    0.1200 C   0  0  0  0  0  0  0  0  0  0  0  0
    0.8983   -0.8011    0.4439 C   0  0  0  0  0  0  0  0  0  0  0  0
   -0.0440    0.0659   -0.3550 C   0  0  0  0  0  0  0  0  0  0  0  0
   -1.4589   -0.3098    0.1015 C   0  0  0  0  0  0  0  0  0  0  0  0
   -2.4747    0.4931   -0.6297 C   0  0  0  0  0  0  0  0  0  0  0  0
   -2.1801    1.3487   -1.4921 O   0  0  0  0  0  0  0  0  0  0  0  0
   -3.8735    0.2627   -0.3176 C   0  0  0  0  0  0  0  0  0  0  0  0
   -4.2380   -0.5802    0.5368 O   0  0  0  0  0  0  0  0  0  0  0  0
    3.9122    0.8371    0.3354 H   0  0  0  0  0  0  0  0  0  0  0  0
    2.5136    1.2361    1.3618 H   0  0  0  0  0  0  0  0  0  0  0  0
    2.4840    1.5468   -0.4468 H   0  0  0  0  0  0  0  0  0  0  0  0
    2.6070   -0.8171   -0.9212 H   0  0  0  0  0  0  0  0  0  0  0  0
    2.9413   -1.2279    0.7695 H   0  0  0  0  0  0  0  0  0  0  0  0
    0.7343   -0.7392    1.5184 H   0  0  0  0  0  0  0  0  0  0  0  0
    0.6713   -1.8598    0.1477 H   0  0  0  0  0  0  0  0  0  0  0  0
   -0.0168   -0.1802   -1.4366 H   0  0  0  0  0  0  0  0  0  0  0  0
    0.1504    1.1389   -0.2586 H   0  0  0  0  0  0  0  0  0  0  0  0
   -1.5021   -0.1567    1.1813 H   0  0  0  0  0  0  0  0  0  0  0  0
   -1.6118   -1.3664   -0.2064 H   0  0  0  0  0  0  0  0  0  0  0  0
   -4.6377    0.8252   -0.8269 H   0  0  0  0  0  0  0  0  0  0  0  0
  1  2  1  0
  2  3  1  0
  3  4  1  0
  4  5  1  0
  5  6  1  0
  6  7  2  0
  6  8  1  0
  8  9  2  0
  1 10  1  0
  1 11  1  0
  1 12  1  0
  2 13  1  0
  2 14  1  0
  3 15  1  0
  3 16  1  0
  4 17  1  0
  4 18  1  0
  5 19  1  0
  5 20  1  0
  8 21  1  0
M  END
