
     RDKit          3D

 25 25  0  0  0  0  0  0  0  0999 V2000
   -2.4338    1.1747    0.0664 C   0  0  0  0  0  0  0  0  0  0  0  0
   -2.6947   -0.1888   -0.4946 C   0  0  0  0  0  0  0  0  0  0  0  0
   -1.7532   -1.2306    0.0135 C   0  0  0  0  0  0  0  0  0  0  0  0
   -0.3153   -0.9467   -0.3022 C   0  0  0  0  0  0  0  0  0  0  0  0
    0.6375   -2.0217    0.2240 C   0  0  0  0  0  0  0  0  0  0  0  0
    0.6304   -0.5929    0.7506 C   0  0  0  0  0  0  0  0  0  0  0  0
    1.9045    0.1500    0.4542 C   0  0  0  0  0  0  0  0  0  0  0  0
    1.6748    1.3971   -0.1259 O   0  0  0  0  0  0  0  0  0  0  0  0
    2.9574    1.9555   -0.3373 C   0  0  0  0  0  0  0  0  0  0  0  0
   -3.4056    1.7397    0.0040 H   0  0  0  0  0  0  0  0  0  0  0  0
   -1.7273    1.7394   -0.5812 H   0  0  0  0  0  0  0  0  0  0  0  0
   -2.1204    1.1595    1.1331 H   0  0  0  0  0  0  0  0  0  0  0  0
   -3.7229   -0.4892   -0.1870 H   0  0  0  0  0  0  0  0  0  0  0  0
   -2.5917   -0.1559   -1.6032 H   0  0  0  0  0  0  0  0  0  0  0  0
   -2.0140   -2.1912   -0.5004 H   0  0  0  0  0  0  0  0  0  0  0  0
   -1.9052   -1.4429    1.1026 H   0  0  0  0  0  0  0  0  0  0  0  0
   -0.1350   -0.5468   -1.3169 H   0  0  0  0  0  0  0  0  0  0  0  0
    0.2471   -2.8187    0.8593 H   0  0  0  0  0  0  0  0  0  0  0  0
    1.4155   -2.3232   -0.5008 H   0  0  0  0  0  0  0  0  0  0  0  0
    0.3285   -0.5115    1.8323 H   0  0  0  0  0  0  0  0  0  0  0  0
    2.4967    0.3313    1.3731 H   0  0  0  0  0  0  0  0  0  0  0  0
    2.5697   -0.3998   -0.2407 H   0  0  0  0  0  0  0  0  0  0  0  0
    3.4517    2.0342    0.6592 H   0  0  0  0  0  0  0  0  0  0  0  0
    2.9101    2.9435   -0.7972 H   0  0  0  0  0  0  0  0  0  0  0  0
    3.5952    1.2348   -0.9251 H   0  0  0  0  0  0  0  0  0  0  0  0
  1  2  1  0
  2  3  1  0
  3  4  1  0
  4  5  1  0
  5  6  1  0
  6  7  1  0
  7  8  1  0
  8  9  1  0
  6  4  1  0
  1 10  1  0
  1 11  1  0
  1 12  1  0
  2 13  1  0
  2 14  1  0
  3 15  1  0
  3 16  1  0
  4 17  1  0
  5 18  1  0
  5 19  1  0
  6 20  1  0
  7 21  1  0
  7 22  1  0
  9 23  1  0
  9 24  1  0
  9 25  1  0
M  END
