
     RDKit          3D

 27 26  0  0  0  0  0  0  0  0999 V2000
    2.7091    0.3467   -0.6980 C   0  0  0  0  0  0  0  0  0  0  0  0
    2.1262   -0.8346    0.0266 C   0  0  0  0  0  0  0  0  0  0  0  0
    1.3668   -0.3875    1.2394 C   0  0  0  0  0  0  0  0  0  0  0  0
    0.2215    0.4878    0.9646 C   0  0  0  0  0  0  0  0  0  0  0  0
   -0.9118    0.0216    0.1600 C   0  0  0  0  0  0  0  0  0  0  0  0
   -0.7336   -0.4123   -1.2280 C   0  0  0  0  0  0  0  0  0  0  0  0
   -1.6690   -1.0753    0.9441 C   0  0  0  0  0  0  0  0  0  0  0  0
   -1.9439    1.1747    0.1491 C   0  0  0  0  0  0  0  0  0  0  0  0
   -3.0252    0.7737   -0.5985 O   0  0  0  0  0  0  0  0  0  0  0  0
    2.4718    1.3274   -0.2430 H   0  0  0  0  0  0  0  0  0  0  0  0
    2.4401    0.3273   -1.7760 H   0  0  0  0  0  0  0  0  0  0  0  0
    3.8445    0.3268   -0.6823 H   0  0  0  0  0  0  0  0  0  0  0  0
    1.5841   -1.5243   -0.6422 H   0  0  0  0  0  0  0  0  0  0  0  0
    3.0108   -1.4249    0.4213 H   0  0  0  0  0  0  0  0  0  0  0  0
    1.1607   -1.2255    1.9443 H   0  0  0  0  0  0  0  0  0  0  0  0
    2.1185    0.2357    1.8228 H   0  0  0  0  0  0  0  0  0  0  0  0
   -0.2114    0.8616    1.9507 H   0  0  0  0  0  0  0  0  0  0  0  0
    0.6230    1.4567    0.5296 H   0  0  0  0  0  0  0  0  0  0  0  0
   -1.6652   -0.1358   -1.8217 H   0  0  0  0  0  0  0  0  0  0  0  0
    0.0776    0.0645   -1.8093 H   0  0  0  0  0  0  0  0  0  0  0  0
   -0.6515   -1.5008   -1.3981 H   0  0  0  0  0  0  0  0  0  0  0  0
   -2.7246   -1.0944    0.6083 H   0  0  0  0  0  0  0  0  0  0  0  0
   -1.7038   -0.7216    2.0116 H   0  0  0  0  0  0  0  0  0  0  0  0
   -1.1647   -2.0347    0.8734 H   0  0  0  0  0  0  0  0  0  0  0  0
   -2.2090    1.4501    1.1917 H   0  0  0  0  0  0  0  0  0  0  0  0
   -1.4460    2.0171   -0.3724 H   0  0  0  0  0  0  0  0  0  0  0  0
   -3.6955    1.4999   -0.6232 H   0  0  0  0  0  0  0  0  0  0  0  0
  1  2  1  0
  2  3  1  0
  3  4  1  0
  4  5  1  0
  5  6  1  0
  5  7  1  0
  5  8  1  0
  8  9  1  0
  1 10  1  0
  1 11  1  0
  1 12  1  0
  2 13  1  0
  2 14  1  0
  3 15  1  0
  3 16  1  0
  4 17  1  0
  4 18  1  0
  6 19  1  0
  6 20  1  0
  6 21  1  0
  7 22  1  0
  7 23  1  0
  7 24  1  0
  8 25  1  0
  8 26  1  0
  9 27  1  0
M  END
