
     RDKit          3D

 21 21  0  0  0  0  0  0  0  0999 V2000
   -3.2197   -0.5726    0.1320 C   0  0  0  0  0  0  0  0  0  0  0  0
   -1.7128   -0.8552    0.1426 C   0  0  0  0  0  0  0  0  0  0  0  0
   -1.0468    0.4289   -0.2860 C   0  0  0  0  0  0  0  0  0  0  0  0
    0.4308    0.3057   -0.3229 C   0  0  0  0  0  0  0  0  0  0  0  0
    1.1506   -0.7602   -0.0316 C   0  0  0  0  0  0  0  0  0  0  0  0
    2.6191   -0.4623   -0.1974 C   0  0  0  0  0  0  0  0  0  0  0  0
    2.6702    1.0506   -0.2045 C   0  0  0  0  0  0  0  0  0  0  0  0
    1.3121    1.3897   -0.7024 C   0  0  0  0  0  0  0  0  0  0  0  0
    1.0499    2.4527   -1.3359 O   0  0  0  0  0  0  0  0  0  0  0  0
   -3.4382    0.3548    0.7377 H   0  0  0  0  0  0  0  0  0  0  0  0
   -3.8074   -1.4315    0.4455 H   0  0  0  0  0  0  0  0  0  0  0  0
   -3.4630   -0.3218   -0.9193 H   0  0  0  0  0  0  0  0  0  0  0  0
   -1.3714   -1.2140    1.1132 H   0  0  0  0  0  0  0  0  0  0  0  0
   -1.5693   -1.6532   -0.6357 H   0  0  0  0  0  0  0  0  0  0  0  0
   -1.3783    1.2161    0.4283 H   0  0  0  0  0  0  0  0  0  0  0  0
   -1.4480    0.7222   -1.2726 H   0  0  0  0  0  0  0  0  0  0  0  0
    0.8027   -1.7389    0.2869 H   0  0  0  0  0  0  0  0  0  0  0  0
    3.2004   -0.8706    0.6630 H   0  0  0  0  0  0  0  0  0  0  0  0
    3.0245   -0.9158   -1.1052 H   0  0  0  0  0  0  0  0  0  0  0  0
    3.4487    1.4522   -0.8788 H   0  0  0  0  0  0  0  0  0  0  0  0
    2.7462    1.4233    0.8345 H   0  0  0  0  0  0  0  0  0  0  0  0
  1  2  1  0
  2  3  1  0
  3  4  1  0
  4  5  2  0
  5  6  1  0
  6  7  1  0
  7  8  1  0
  8  9  2  0
  8  4  1  0
  1 10  1  0
  1 11  1  0
  1 12  1  0
  2 13  1  0
  2 14  1  0
  3 15  1  0
  3 16  1  0
  5 17  1  0
  6 18  1  0
  6 19  1  0
  7 20  1  0
  7 21  1  0
M  END
