
     RDKit          3D

 27 27  0  0  0  0  0  0  0  0999 V2000
   -3.2703   -0.7980    1.0919 C   0  0  0  0  0  0  0  0  0  0  0  0
   -2.2778   -0.1084    0.1854 C   0  0  0  0  0  0  0  0  0  0  0  0
   -0.8629   -0.4913    0.4730 C   0  0  0  0  0  0  0  0  0  0  0  0
    0.0153    0.2672   -0.5029 C   0  0  0  0  0  0  0  0  0  0  0  0
   -0.1844    1.7391   -0.2769 C   0  0  0  0  0  0  0  0  0  0  0  0
    1.4450   -0.1651   -0.4406 C   0  0  0  0  0  0  0  0  0  0  0  0
    1.7751   -1.6223   -0.7174 C   0  0  0  0  0  0  0  0  0  0  0  0
    2.4215    0.8112   -1.0680 C   0  0  0  0  0  0  0  0  0  0  0  0
    2.4552    0.6262    0.3877 C   0  0  0  0  0  0  0  0  0  0  0  0
   -2.8750   -0.9957    2.1023 H   0  0  0  0  0  0  0  0  0  0  0  0
   -4.1681   -0.1491    1.1523 H   0  0  0  0  0  0  0  0  0  0  0  0
   -3.6361   -1.7516    0.6122 H   0  0  0  0  0  0  0  0  0  0  0  0
   -2.4053    0.9629    0.2931 H   0  0  0  0  0  0  0  0  0  0  0  0
   -2.5115   -0.4366   -0.8455 H   0  0  0  0  0  0  0  0  0  0  0  0
   -0.6574   -1.5697    0.3004 H   0  0  0  0  0  0  0  0  0  0  0  0
   -0.5643   -0.2110    1.5085 H   0  0  0  0  0  0  0  0  0  0  0  0
   -0.3504    0.0215   -1.5361 H   0  0  0  0  0  0  0  0  0  0  0  0
    0.7907    2.2739   -0.2115 H   0  0  0  0  0  0  0  0  0  0  0  0
   -0.7274    1.9445    0.6865 H   0  0  0  0  0  0  0  0  0  0  0  0
   -0.7464    2.1917   -1.1182 H   0  0  0  0  0  0  0  0  0  0  0  0
    1.4325   -1.9553   -1.7076 H   0  0  0  0  0  0  0  0  0  0  0  0
    1.4000   -2.2841    0.0958 H   0  0  0  0  0  0  0  0  0  0  0  0
    2.8830   -1.6954   -0.7181 H   0  0  0  0  0  0  0  0  0  0  0  0
    3.2678    0.3361   -1.6417 H   0  0  0  0  0  0  0  0  0  0  0  0
    2.0758    1.7189   -1.5748 H   0  0  0  0  0  0  0  0  0  0  0  0
    3.2892    0.0376    0.8229 H   0  0  0  0  0  0  0  0  0  0  0  0
    1.9862    1.3028    1.1145 H   0  0  0  0  0  0  0  0  0  0  0  0
  1  2  1  0
  2  3  1  0
  3  4  1  0
  4  5  1  0
  4  6  1  0
  6  7  1  0
  6  8  1  0
  8  9  1  0
  9  6  1  0
  1 10  1  0
  1 11  1  0
  1 12  1  0
  2 13  1  0
  2 14  1  0
  3 15  1  0
  3 16  1  0
  4 17  1  0
  5 18  1  0
  5 19  1  0
  5 20  1  0
  7 21  1  0
  7 22  1  0
  7 23  1  0
  8 24  1  0
  8 25  1  0
  9 26  1  0
  9 27  1  0
M  END
