
     RDKit          3D

 20 20  0  0  0  0  0  0  0  0999 V2000
   -2.7470   -0.5783   -0.7004 C   0  0  0  0  0  0  0  0  0  0  0  0
   -1.4620   -0.5450    0.1130 C   0  0  0  0  0  0  0  0  0  0  0  0
   -0.3605    0.1563   -0.6183 C   0  0  0  0  0  0  0  0  0  0  0  0
    0.9149    0.1904    0.1734 C   0  0  0  0  0  0  0  0  0  0  0  0
    2.0542    0.8930   -0.5372 C   0  0  0  0  0  0  0  0  0  0  0  0
    2.6270    0.0941   -1.5192 O   0  0  0  0  0  0  0  0  0  0  0  0
    0.9100    0.1790    1.6315 C   0  0  0  0  0  0  0  0  0  0  0  0
    1.1889   -0.9959    0.8453 O   0  0  0  0  0  0  0  0  0  0  0  0
   -3.1754    0.4286   -0.7971 H   0  0  0  0  0  0  0  0  0  0  0  0
   -2.5807   -1.0118   -1.7091 H   0  0  0  0  0  0  0  0  0  0  0  0
   -3.4302   -1.2713   -0.1622 H   0  0  0  0  0  0  0  0  0  0  0  0
   -1.1648   -1.5686    0.3323 H   0  0  0  0  0  0  0  0  0  0  0  0
   -1.7137   -0.0315    1.0553 H   0  0  0  0  0  0  0  0  0  0  0  0
   -0.6138    1.2056   -0.8834 H   0  0  0  0  0  0  0  0  0  0  0  0
   -0.1337   -0.3612   -1.5769 H   0  0  0  0  0  0  0  0  0  0  0  0
    1.6987    1.8358   -0.9989 H   0  0  0  0  0  0  0  0  0  0  0  0
    2.8250    1.1094    0.2177 H   0  0  0  0  0  0  0  0  0  0  0  0
    3.3779   -0.3955   -1.1349 H   0  0  0  0  0  0  0  0  0  0  0  0
   -0.0390    0.2000    2.1651 H   0  0  0  0  0  0  0  0  0  0  0  0
    1.8243    0.4668    2.1911 H   0  0  0  0  0  0  0  0  0  0  0  0
  1  2  1  0
  2  3  1  0
  3  4  1  0
  4  5  1  0
  5  6  1  0
  4  7  1  0
  7  8  1  0
  8  4  1  0
  1  9  1  0
  1 10  1  0
  1 11  1  0
  2 12  1  0
  2 13  1  0
  3 14  1  0
  3 15  1  0
  5 16  1  0
  5 17  1  0
  6 18  1  0
  7 19  1  0
  7 20  1  0
M  END
