
     RDKit          3D

 25 24  0  0  0  0  0  0  0  0999 V2000
    3.3855    0.3784   -0.0176 C   0  0  0  0  0  0  0  0  0  0  0  0
    1.9958   -0.0602   -0.4387 C   0  0  0  0  0  0  0  0  0  0  0  0
    1.1985   -0.3971    0.8045 C   0  0  0  0  0  0  0  0  0  0  0  0
   -0.1672   -0.8418    0.5211 C   0  0  0  0  0  0  0  0  0  0  0  0
   -0.3929   -2.0457    0.7285 O   0  0  0  0  0  0  0  0  0  0  0  0
   -1.3018   -0.0841    0.0239 C   0  0  0  0  0  0  0  0  0  0  0  0
   -1.0621    0.6067   -1.2964 C   0  0  0  0  0  0  0  0  0  0  0  0
   -2.4677   -1.0354   -0.2387 C   0  0  0  0  0  0  0  0  0  0  0  0
   -1.7843    0.9099    1.0370 C   0  0  0  0  0  0  0  0  0  0  0  0
    3.9404   -0.5600    0.2131 H   0  0  0  0  0  0  0  0  0  0  0  0
    3.3912    1.0700    0.8233 H   0  0  0  0  0  0  0  0  0  0  0  0
    3.9167    0.8708   -0.8866 H   0  0  0  0  0  0  0  0  0  0  0  0
    1.5527    0.8473   -0.9106 H   0  0  0  0  0  0  0  0  0  0  0  0
    2.1250   -0.9152   -1.1074 H   0  0  0  0  0  0  0  0  0  0  0  0
    1.2210    0.4646    1.4816 H   0  0  0  0  0  0  0  0  0  0  0  0
    1.7819   -1.2127    1.2806 H   0  0  0  0  0  0  0  0  0  0  0  0
   -0.4309    0.0452   -1.9805 H   0  0  0  0  0  0  0  0  0  0  0  0
   -0.6919    1.6601   -1.1126 H   0  0  0  0  0  0  0  0  0  0  0  0
   -2.0443    0.7384   -1.7742 H   0  0  0  0  0  0  0  0  0  0  0  0
   -3.1916   -0.6007   -0.9567 H   0  0  0  0  0  0  0  0  0  0  0  0
   -2.1011   -1.9974   -0.6720 H   0  0  0  0  0  0  0  0  0  0  0  0
   -3.0242   -1.2444    0.6952 H   0  0  0  0  0  0  0  0  0  0  0  0
   -2.6793    1.4191    0.5840 H   0  0  0  0  0  0  0  0  0  0  0  0
   -1.0139    1.6409    1.2792 H   0  0  0  0  0  0  0  0  0  0  0  0
   -2.1555    0.3431    1.9204 H   0  0  0  0  0  0  0  0  0  0  0  0
  1  2  1  0
  2  3  1  0
  3  4  1  0
  4  5  2  0
  4  6  1  0
  6  7  1  0
  6  8  1  0
  6  9  1  0
  1 10  1  0
  1 11  1  0
  1 12  1  0
  2 13  1  0
  2 14  1  0
  3 15  1  0
  3 16  1  0
  7 17  1  0
  7 18  1  0
  7 19  1  0
  8 20  1  0
  8 21  1  0
  8 22  1  0
  9 23  1  0
  9 24  1  0
  9 25  1  0
M  END
