
     RDKit          3D

 20 19  0  0  0  0  0  0  0  0999 V2000
   -2.6292    0.9507   -0.6126 C   0  0  0  0  0  0  0  0  0  0  0  0
   -2.4451   -0.4083    0.0236 C   0  0  0  0  0  0  0  0  0  0  0  0
   -1.1323   -0.4570    0.7794 C   0  0  0  0  0  0  0  0  0  0  0  0
    0.0262   -0.2123   -0.0972 C   0  0  0  0  0  0  0  0  0  0  0  0
   -0.1175   -0.0027   -1.2766 O   0  0  0  0  0  0  0  0  0  0  0  0
    1.3802   -0.2292    0.5036 C   0  0  0  0  0  0  0  0  0  0  0  0
    2.3330    0.0213   -0.4804 O   0  0  0  0  0  0  0  0  0  0  0  0
    3.6124    0.0091    0.0672 C   0  0  0  0  0  0  0  0  0  0  0  0
   -2.1812    1.7454    0.0208 H   0  0  0  0  0  0  0  0  0  0  0  0
   -3.7409    1.1349   -0.6598 H   0  0  0  0  0  0  0  0  0  0  0  0
   -2.2085    0.9815   -1.6249 H   0  0  0  0  0  0  0  0  0  0  0  0
   -3.2463   -0.5059    0.8043 H   0  0  0  0  0  0  0  0  0  0  0  0
   -2.5143   -1.1787   -0.7439 H   0  0  0  0  0  0  0  0  0  0  0  0
   -1.1378    0.3048    1.5849 H   0  0  0  0  0  0  0  0  0  0  0  0
   -0.9929   -1.4458    1.2590 H   0  0  0  0  0  0  0  0  0  0  0  0
    1.6079   -1.1873    1.0238 H   0  0  0  0  0  0  0  0  0  0  0  0
    1.4972    0.5887    1.2646 H   0  0  0  0  0  0  0  0  0  0  0  0
    3.8013   -0.9889    0.5151 H   0  0  0  0  0  0  0  0  0  0  0  0
    4.3226    0.1014   -0.7831 H   0  0  0  0  0  0  0  0  0  0  0  0
    3.7651    0.7782    0.8252 H   0  0  0  0  0  0  0  0  0  0  0  0
  1  2  1  0
  2  3  1  0
  3  4  1  0
  4  5  2  0
  4  6  1  0
  6  7  1  0
  7  8  1  0
  1  9  1  0
  1 10  1  0
  1 11  1  0
  2 12  1  0
  2 13  1  0
  3 14  1  0
  3 15  1  0
  6 16  1  0
  6 17  1  0
  8 18  1  0
  8 19  1  0
  8 20  1  0
M  END
