
     RDKit          3D

 25 25  0  0  0  0  0  0  0  0999 V2000
    3.4047    0.1821   -0.2924 C   0  0  0  0  0  0  0  0  0  0  0  0
    2.5739   -1.0617   -0.3709 C   0  0  0  0  0  0  0  0  0  0  0  0
    1.2576   -0.8979    0.3420 C   0  0  0  0  0  0  0  0  0  0  0  0
    0.4208    0.2117   -0.2269 C   0  0  0  0  0  0  0  0  0  0  0  0
   -0.8661    0.3002    0.5430 C   0  0  0  0  0  0  0  0  0  0  0  0
   -1.8216    1.3824    0.0814 C   0  0  0  0  0  0  0  0  0  0  0  0
   -2.9265    0.3572    0.3797 C   0  0  0  0  0  0  0  0  0  0  0  0
   -3.9791    0.3704   -0.4939 O   0  0  0  0  0  0  0  0  0  0  0  0
   -1.8840   -0.6888   -0.0364 C   0  0  0  0  0  0  0  0  0  0  0  0
    3.7113    0.5270   -1.3073 H   0  0  0  0  0  0  0  0  0  0  0  0
    2.8859    1.0307    0.2151 H   0  0  0  0  0  0  0  0  0  0  0  0
    4.3613    0.0116    0.2706 H   0  0  0  0  0  0  0  0  0  0  0  0
    2.4439   -1.4306   -1.4114 H   0  0  0  0  0  0  0  0  0  0  0  0
    3.1257   -1.8740    0.1659 H   0  0  0  0  0  0  0  0  0  0  0  0
    1.4664   -0.7070    1.4138 H   0  0  0  0  0  0  0  0  0  0  0  0
    0.6730   -1.8286    0.2744 H   0  0  0  0  0  0  0  0  0  0  0  0
    0.9000    1.1910   -0.2231 H   0  0  0  0  0  0  0  0  0  0  0  0
    0.1764   -0.0734   -1.2804 H   0  0  0  0  0  0  0  0  0  0  0  0
   -0.7884    0.1949    1.6313 H   0  0  0  0  0  0  0  0  0  0  0  0
   -1.9358    2.2372    0.7466 H   0  0  0  0  0  0  0  0  0  0  0  0
   -1.7230    1.5813   -0.9981 H   0  0  0  0  0  0  0  0  0  0  0  0
   -3.1335    0.3052    1.4493 H   0  0  0  0  0  0  0  0  0  0  0  0
   -4.6623    1.0264   -0.2711 H   0  0  0  0  0  0  0  0  0  0  0  0
   -1.7653   -0.7328   -1.1243 H   0  0  0  0  0  0  0  0  0  0  0  0
   -1.9153   -1.6146    0.5233 H   0  0  0  0  0  0  0  0  0  0  0  0
  1  2  1  0
  2  3  1  0
  3  4  1  0
  4  5  1  0
  5  6  1  0
  6  7  1  0
  7  8  1  0
  7  9  1  0
  9  5  1  0
  1 10  1  0
  1 11  1  0
  1 12  1  0
  2 13  1  0
  2 14  1  0
  3 15  1  0
  3 16  1  0
  4 17  1  0
  4 18  1  0
  5 19  1  0
  6 20  1  0
  6 21  1  0
  7 22  1  0
  8 23  1  0
  9 24  1  0
  9 25  1  0
M  END
