
     RDKit          3D

 25 25  0  0  0  0  0  0  0  0999 V2000
    3.5160    0.0244    0.2834 C   0  0  0  0  0  0  0  0  0  0  0  0
    2.1045   -0.0410    0.8211 C   0  0  0  0  0  0  0  0  0  0  0  0
    1.1570    0.3642   -0.2824 C   0  0  0  0  0  0  0  0  0  0  0  0
   -0.2855    0.3324    0.1542 C   0  0  0  0  0  0  0  0  0  0  0  0
   -0.7134   -1.0529    0.6040 C   0  0  0  0  0  0  0  0  0  0  0  0
   -2.1380   -0.9548    1.0109 C   0  0  0  0  0  0  0  0  0  0  0  0
   -2.9447   -0.1809    0.3335 C   0  0  0  0  0  0  0  0  0  0  0  0
   -2.5668    0.6387   -0.8428 C   0  0  0  0  0  0  0  0  0  0  0  0
   -1.0937    0.6270   -1.1140 C   0  0  0  0  0  0  0  0  0  0  0  0
    3.7963   -0.9447   -0.1705 H   0  0  0  0  0  0  0  0  0  0  0  0
    3.6419    0.7973   -0.5023 H   0  0  0  0  0  0  0  0  0  0  0  0
    4.2516    0.2831    1.0960 H   0  0  0  0  0  0  0  0  0  0  0  0
    1.9489    0.5160    1.7423 H   0  0  0  0  0  0  0  0  0  0  0  0
    1.9077   -1.1224    1.0654 H   0  0  0  0  0  0  0  0  0  0  0  0
    1.2422   -0.3162   -1.1540 H   0  0  0  0  0  0  0  0  0  0  0  0
    1.3728    1.3857   -0.6299 H   0  0  0  0  0  0  0  0  0  0  0  0
   -0.5417    1.1123    0.8802 H   0  0  0  0  0  0  0  0  0  0  0  0
   -0.6456   -1.6963   -0.3220 H   0  0  0  0  0  0  0  0  0  0  0  0
   -0.0755   -1.4539    1.4104 H   0  0  0  0  0  0  0  0  0  0  0  0
   -2.5017   -1.5224    1.8635 H   0  0  0  0  0  0  0  0  0  0  0  0
   -3.9840   -0.1262    0.6517 H   0  0  0  0  0  0  0  0  0  0  0  0
   -3.0797    0.2299   -1.7417 H   0  0  0  0  0  0  0  0  0  0  0  0
   -2.8648    1.7019   -0.6474 H   0  0  0  0  0  0  0  0  0  0  0  0
   -0.7016    1.5874   -1.5029 H   0  0  0  0  0  0  0  0  0  0  0  0
   -0.8022   -0.1884   -1.8367 H   0  0  0  0  0  0  0  0  0  0  0  0
  1  2  1  0
  2  3  1  0
  3  4  1  0
  4  5  1  0
  5  6  1  0
  6  7  2  0
  7  8  1  0
  8  9  1  0
  9  4  1  0
  1 10  1  0
  1 11  1  0
  1 12  1  0
  2 13  1  0
  2 14  1  0
  3 15  1  0
  3 16  1  0
  4 17  1  0
  5 18  1  0
  5 19  1  0
  6 20  1  0
  7 21  1  0
  8 22  1  0
  8 23  1  0
  9 24  1  0
  9 25  1  0
M  END
