
     RDKit          3D

 24 23  0  0  0  0  0  0  0  0999 V2000
    2.8596   -0.7755   -0.0966 C   0  0  0  0  0  0  0  0  0  0  0  0
    1.5686   -0.1053   -0.5176 C   0  0  0  0  0  0  0  0  0  0  0  0
    0.6773   -0.0240    0.6697 C   0  0  0  0  0  0  0  0  0  0  0  0
   -0.6508    0.6206    0.4103 C   0  0  0  0  0  0  0  0  0  0  0  0
   -0.4876    2.0450   -0.0795 C   0  0  0  0  0  0  0  0  0  0  0  0
   -1.4808   -0.1191   -0.5917 C   0  0  0  0  0  0  0  0  0  0  0  0
   -1.7678   -1.5404   -0.1201 C   0  0  0  0  0  0  0  0  0  0  0  0
   -2.7479    0.5117   -0.6142 O   0  0  0  0  0  0  0  0  0  0  0  0
    3.6042   -0.8141   -0.9038 H   0  0  0  0  0  0  0  0  0  0  0  0
    3.3399   -0.2370    0.7569 H   0  0  0  0  0  0  0  0  0  0  0  0
    2.6703   -1.8197    0.2383 H   0  0  0  0  0  0  0  0  0  0  0  0
    1.1268   -0.7562   -1.3146 H   0  0  0  0  0  0  0  0  0  0  0  0
    1.8309    0.9004   -0.8788 H   0  0  0  0  0  0  0  0  0  0  0  0
    0.5507   -1.0026    1.1297 H   0  0  0  0  0  0  0  0  0  0  0  0
    1.1986    0.6181    1.4352 H   0  0  0  0  0  0  0  0  0  0  0  0
   -1.2046    0.6665    1.3553 H   0  0  0  0  0  0  0  0  0  0  0  0
   -1.5106    2.3629   -0.4275 H   0  0  0  0  0  0  0  0  0  0  0  0
   -0.1798    2.6768    0.7646 H   0  0  0  0  0  0  0  0  0  0  0  0
    0.2138    2.1435   -0.9080 H   0  0  0  0  0  0  0  0  0  0  0  0
   -1.0614   -0.0894   -1.6082 H   0  0  0  0  0  0  0  0  0  0  0  0
   -2.2480   -1.4603    0.8754 H   0  0  0  0  0  0  0  0  0  0  0  0
   -2.3740   -2.0675   -0.8656 H   0  0  0  0  0  0  0  0  0  0  0  0
   -0.8077   -2.0803    0.0286 H   0  0  0  0  0  0  0  0  0  0  0  0
   -3.1198    0.3461    0.2954 H   0  0  0  0  0  0  0  0  0  0  0  0
  1  2  1  0
  2  3  1  0
  3  4  1  0
  4  5  1  0
  4  6  1  0
  6  7  1  0
  6  8  1  0
  1  9  1  0
  1 10  1  0
  1 11  1  0
  2 12  1  0
  2 13  1  0
  3 14  1  0
  3 15  1  0
  4 16  1  0
  5 17  1  0
  5 18  1  0
  5 19  1  0
  6 20  1  0
  7 21  1  0
  7 22  1  0
  7 23  1  0
  8 24  1  0
M  END
