
     RDKit          3D

 15 14  0  0  0  0  0  0  0  0999 V2000
   -1.7621   -0.4601    0.5632 C   0  0  0  0  0  0  0  0  0  0  0  0
   -1.4720    0.1669   -0.8185 C   0  0  0  0  0  0  0  0  0  0  0  0
   -0.0746    0.8365   -0.7308 C   0  0  0  0  0  0  0  0  0  0  0  0
    0.8663    0.0561   -0.2613 C   0  0  0  0  0  0  0  0  0  0  0  0
    1.7863   -0.6814    0.2022 C   0  0  0  0  0  0  0  0  0  0  0  0
    2.9654   -1.5964    0.8041 C   0  0  0  0  0  0  0  0  0  0  0  0
    3.4898   -0.7669    1.7634 O   0  0  0  0  0  0  0  0  0  0  0  0
   -1.6700    0.3472    1.3071 H   0  0  0  0  0  0  0  0  0  0  0  0
   -0.9005   -1.1862    0.7398 H   0  0  0  0  0  0  0  0  0  0  0  0
   -2.6821   -1.0166    0.5609 H   0  0  0  0  0  0  0  0  0  0  0  0
   -1.4614   -0.5371   -1.6446 H   0  0  0  0  0  0  0  0  0  0  0  0
   -2.2649    0.9018   -0.9916 H   0  0  0  0  0  0  0  0  0  0  0  0
   -0.1770    1.8789   -0.2759 H   0  0  0  0  0  0  0  0  0  0  0  0
    0.1023    1.1718   -1.8491 H   0  0  0  0  0  0  0  0  0  0  0  0
    3.2545   -2.4222    0.6310 H   0  0  0  0  0  0  0  0  0  0  0  0
  1  2  1  0
  2  3  1  0
  3  4  1  0
  4  5  3  0
  5  6  1  0
  6  7  2  0
  1  8  1  0
  1  9  1  0
  1 10  1  0
  2 11  1  0
  2 12  1  0
  3 13  1  0
  3 14  1  0
  6 15  1  0
M  END
