
     RDKit          3D

 22 21  0  0  0  0  0  0  0  0999 V2000
    2.4800    2.5879    1.6463 C   0  0  0  0  0  0  0  0  0  0  0  0
    1.4982    1.4612    1.3702 C   0  0  0  0  0  0  0  0  0  0  0  0
    1.8127    0.8560    0.0460 C   0  0  0  0  0  0  0  0  0  0  0  0
    0.8712   -0.2431   -0.1839 C   0  0  0  0  0  0  0  0  0  0  0  0
    0.0513   -1.2356   -0.3888 C   0  0  0  0  0  0  0  0  0  0  0  0
   -0.8167   -2.2562   -0.5940 C   0  0  0  0  0  0  0  0  0  0  0  0
   -2.1675   -1.7871   -1.0952 C   0  0  0  0  0  0  0  0  0  0  0  0
   -2.8688   -0.8599   -0.1502 C   0  0  0  0  0  0  0  0  0  0  0  0
    3.3519    2.5184    0.9294 H   0  0  0  0  0  0  0  0  0  0  0  0
    1.9612    3.5785    1.5101 H   0  0  0  0  0  0  0  0  0  0  0  0
    2.8527    2.5076    2.6801 H   0  0  0  0  0  0  0  0  0  0  0  0
    1.6302    0.7206    2.1778 H   0  0  0  0  0  0  0  0  0  0  0  0
    0.4503    1.8279    1.4392 H   0  0  0  0  0  0  0  0  0  0  0  0
    2.8581    0.5156    0.0022 H   0  0  0  0  0  0  0  0  0  0  0  0
    1.6582    1.6700   -0.7160 H   0  0  0  0  0  0  0  0  0  0  0  0
   -0.9668   -2.9377    0.3111 H   0  0  0  0  0  0  0  0  0  0  0  0
   -0.4942   -3.0368   -1.3718 H   0  0  0  0  0  0  0  0  0  0  0  0
   -2.0869   -1.2773   -2.0683 H   0  0  0  0  0  0  0  0  0  0  0  0
   -2.7925   -2.6850   -1.2651 H   0  0  0  0  0  0  0  0  0  0  0  0
   -3.7428   -0.4465   -0.6725 H   0  0  0  0  0  0  0  0  0  0  0  0
   -3.2721   -1.4526    0.7358 H   0  0  0  0  0  0  0  0  0  0  0  0
   -2.2678   -0.0259    0.1945 H   0  0  0  0  0  0  0  0  0  0  0  0
  1  2  1  0
  2  3  1  0
  3  4  1  0
  4  5  3  0
  5  6  1  0
  6  7  1  0
  7  8  1  0
  1  9  1  0
  1 10  1  0
  1 11  1  0
  2 12  1  0
  2 13  1  0
  3 14  1  0
  3 15  1  0
  6 16  1  0
  6 17  1  0
  7 18  1  0
  7 19  1  0
  8 20  1  0
  8 21  1  0
  8 22  1  0
M  END
