
     RDKit          3D

 23 24  0  0  0  0  0  0  0  0999 V2000
    3.5409    0.2397    0.1817 C   0  0  0  0  0  0  0  0  0  0  0  0
    2.3956   -0.1089   -0.7591 C   0  0  0  0  0  0  0  0  0  0  0  0
    1.1277   -0.0519    0.0301 C   0  0  0  0  0  0  0  0  0  0  0  0
   -0.0808   -0.3850   -0.8192 C   0  0  0  0  0  0  0  0  0  0  0  0
   -1.3565   -0.3335   -0.0479 C   0  0  0  0  0  0  0  0  0  0  0  0
   -2.6304   -0.6441   -0.7753 C   0  0  0  0  0  0  0  0  0  0  0  0
   -3.3229    0.3670    0.1499 C   0  0  0  0  0  0  0  0  0  0  0  0
   -1.9192    0.6846    0.6797 C   0  0  0  0  0  0  0  0  0  0  0  0
   -1.3349   -0.3682    1.3436 O   0  0  0  0  0  0  0  0  0  0  0  0
    4.5051    0.3197   -0.3626 H   0  0  0  0  0  0  0  0  0  0  0  0
    3.2941    1.2244    0.6277 H   0  0  0  0  0  0  0  0  0  0  0  0
    3.5784   -0.5688    0.9438 H   0  0  0  0  0  0  0  0  0  0  0  0
    2.4005    0.6726   -1.5462 H   0  0  0  0  0  0  0  0  0  0  0  0
    2.6182   -1.0863   -1.1962 H   0  0  0  0  0  0  0  0  0  0  0  0
    1.1873   -0.7660    0.8857 H   0  0  0  0  0  0  0  0  0  0  0  0
    1.0495    0.9628    0.4690 H   0  0  0  0  0  0  0  0  0  0  0  0
   -0.1390    0.3959   -1.6163 H   0  0  0  0  0  0  0  0  0  0  0  0
    0.0262   -1.3689   -1.3094 H   0  0  0  0  0  0  0  0  0  0  0  0
   -2.6260   -0.3165   -1.8148 H   0  0  0  0  0  0  0  0  0  0  0  0
   -2.9269   -1.6984   -0.5809 H   0  0  0  0  0  0  0  0  0  0  0  0
   -3.7629    1.2360   -0.4070 H   0  0  0  0  0  0  0  0  0  0  0  0
   -3.9796   -0.1270    0.8663 H   0  0  0  0  0  0  0  0  0  0  0  0
   -1.6445    1.7206    0.8705 H   0  0  0  0  0  0  0  0  0  0  0  0
  1  2  1  0
  2  3  1  0
  3  4  1  0
  4  5  1  0
  5  6  1  0
  6  7  1  0
  7  8  1  0
  8  9  1  0
  8  5  1  0
  9  5  1  0
  1 10  1  0
  1 11  1  0
  1 12  1  0
  2 13  1  0
  2 14  1  0
  3 15  1  0
  3 16  1  0
  4 17  1  0
  4 18  1  0
  6 19  1  0
  6 20  1  0
  7 21  1  0
  7 22  1  0
  8 23  1  0
M  END
