
     RDKit          3D

 25 25  0  0  0  0  0  0  0  0999 V2000
    3.4964    0.2264   -0.5924 C   0  0  0  0  0  0  0  0  0  0  0  0
    2.0422   -0.1498   -0.8184 C   0  0  0  0  0  0  0  0  0  0  0  0
    1.5106   -0.8420    0.4187 C   0  0  0  0  0  0  0  0  0  0  0  0
    0.0768   -1.2484    0.2713 C   0  0  0  0  0  0  0  0  0  0  0  0
   -0.8126   -0.0780    0.0248 C   0  0  0  0  0  0  0  0  0  0  0  0
   -2.2595   -0.5834   -0.1115 C   0  0  0  0  0  0  0  0  0  0  0  0
   -2.9753    0.7494   -0.0553 C   0  0  0  0  0  0  0  0  0  0  0  0
   -2.0185    1.6016    0.7236 C   0  0  0  0  0  0  0  0  0  0  0  0
   -0.9687    0.7464    1.1311 O   0  0  0  0  0  0  0  0  0  0  0  0
    3.9712    0.4543   -1.5499 H   0  0  0  0  0  0  0  0  0  0  0  0
    3.5676    1.0517    0.1537 H   0  0  0  0  0  0  0  0  0  0  0  0
    4.0155   -0.6508   -0.1578 H   0  0  0  0  0  0  0  0  0  0  0  0
    1.4681    0.7453   -1.0496 H   0  0  0  0  0  0  0  0  0  0  0  0
    1.9884   -0.8377   -1.6648 H   0  0  0  0  0  0  0  0  0  0  0  0
    2.0906   -1.7544    0.6614 H   0  0  0  0  0  0  0  0  0  0  0  0
    1.5713   -0.1402    1.2997 H   0  0  0  0  0  0  0  0  0  0  0  0
   -0.2858   -1.8951    1.0696 H   0  0  0  0  0  0  0  0  0  0  0  0
    0.0292   -1.8795   -0.6666 H   0  0  0  0  0  0  0  0  0  0  0  0
   -0.5357    0.5350   -0.8356 H   0  0  0  0  0  0  0  0  0  0  0  0
   -2.4024   -1.0981   -1.0760 H   0  0  0  0  0  0  0  0  0  0  0  0
   -2.4858   -1.1899    0.7717 H   0  0  0  0  0  0  0  0  0  0  0  0
   -3.9189    0.6966    0.5178 H   0  0  0  0  0  0  0  0  0  0  0  0
   -3.1187    1.0848   -1.0958 H   0  0  0  0  0  0  0  0  0  0  0  0
   -1.5701    2.3298   -0.0128 H   0  0  0  0  0  0  0  0  0  0  0  0
   -2.4757    2.1260    1.5750 H   0  0  0  0  0  0  0  0  0  0  0  0
  1  2  1  0
  2  3  1  0
  3  4  1  0
  4  5  1  0
  5  6  1  0
  6  7  1  0
  7  8  1  0
  8  9  1  0
  9  5  1  0
  1 10  1  0
  1 11  1  0
  1 12  1  0
  2 13  1  0
  2 14  1  0
  3 15  1  0
  3 16  1  0
  4 17  1  0
  4 18  1  0
  5 19  1  0
  6 20  1  0
  6 21  1  0
  7 22  1  0
  7 23  1  0
  8 24  1  0
  8 25  1  0
M  END
