
     RDKit          3D

 21 21  0  0  0  0  0  0  0  0999 V2000
   -3.3642   -0.2086    0.3558 C   0  0  0  0  0  0  0  0  0  0  0  0
   -1.9779   -0.7987    0.2280 C   0  0  0  0  0  0  0  0  0  0  0  0
   -1.0210    0.3365   -0.0053 C   0  0  0  0  0  0  0  0  0  0  0  0
    0.4038   -0.1309   -0.1498 C   0  0  0  0  0  0  0  0  0  0  0  0
    1.3052    1.0289   -0.3780 C   0  0  0  0  0  0  0  0  0  0  0  0
    0.8264    2.1502   -0.4201 O   0  0  0  0  0  0  0  0  0  0  0  0
    2.7706    0.8041   -0.5507 C   0  0  0  0  0  0  0  0  0  0  0  0
    3.4002   -0.4574   -0.1703 C   0  0  0  0  0  0  0  0  0  0  0  0
    2.9622   -0.2452   -1.5862 O   0  0  0  0  0  0  0  0  0  0  0  0
   -3.6207    0.2039   -0.6607 H   0  0  0  0  0  0  0  0  0  0  0  0
   -3.2560    0.6763    1.0431 H   0  0  0  0  0  0  0  0  0  0  0  0
   -4.1071   -0.9260    0.7162 H   0  0  0  0  0  0  0  0  0  0  0  0
   -2.0119   -1.5091   -0.6265 H   0  0  0  0  0  0  0  0  0  0  0  0
   -1.7186   -1.3034    1.1820 H   0  0  0  0  0  0  0  0  0  0  0  0
   -1.1465    1.0453    0.8464 H   0  0  0  0  0  0  0  0  0  0  0  0
   -1.3206    0.8912   -0.9159 H   0  0  0  0  0  0  0  0  0  0  0  0
    0.7390   -0.6584    0.7590 H   0  0  0  0  0  0  0  0  0  0  0  0
    0.4486   -0.8257   -1.0013 H   0  0  0  0  0  0  0  0  0  0  0  0
    3.4031    1.6891   -0.7177 H   0  0  0  0  0  0  0  0  0  0  0  0
    2.7971   -1.2748    0.2740 H   0  0  0  0  0  0  0  0  0  0  0  0
    4.4882   -0.4872   -0.1091 H   0  0  0  0  0  0  0  0  0  0  0  0
  1  2  1  0
  2  3  1  0
  3  4  1  0
  4  5  1  0
  5  6  2  0
  5  7  1  0
  7  8  1  0
  8  9  1  0
  9  7  1  0
  1 10  1  0
  1 11  1  0
  1 12  1  0
  2 13  1  0
  2 14  1  0
  3 15  1  0
  3 16  1  0
  4 17  1  0
  4 18  1  0
  7 19  1  0
  8 20  1  0
  8 21  1  0
M  END
