
     RDKit          3D

 20 19  0  0  0  0  0  0  0  0999 V2000
    2.8281   -0.5689    0.3875 C   0  0  0  0  0  0  0  0  0  0  0  0
    1.3569   -0.2987    0.6471 C   0  0  0  0  0  0  0  0  0  0  0  0
    0.8444    0.5795   -0.4684 C   0  0  0  0  0  0  0  0  0  0  0  0
   -0.6180    0.9108   -0.3065 C   0  0  0  0  0  0  0  0  0  0  0  0
   -1.4713   -0.3449   -0.2993 C   0  0  0  0  0  0  0  0  0  0  0  0
   -2.9309   -0.0278   -0.1388 C   0  0  0  0  0  0  0  0  0  0  0  0
    3.3969    0.2512    0.8531 H   0  0  0  0  0  0  0  0  0  0  0  0
    3.1252   -1.5762    0.7540 H   0  0  0  0  0  0  0  0  0  0  0  0
    2.9538   -0.5893   -0.7195 H   0  0  0  0  0  0  0  0  0  0  0  0
    1.2187    0.1515    1.6454 H   0  0  0  0  0  0  0  0  0  0  0  0
    0.8592   -1.2855    0.6723 H   0  0  0  0  0  0  0  0  0  0  0  0
    1.0547    0.0532   -1.4209 H   0  0  0  0  0  0  0  0  0  0  0  0
    1.4043    1.5377   -0.4711 H   0  0  0  0  0  0  0  0  0  0  0  0
   -0.7399    1.4883    0.6199 H   0  0  0  0  0  0  0  0  0  0  0  0
   -0.9666    1.5170   -1.1672 H   0  0  0  0  0  0  0  0  0  0  0  0
   -1.1660   -0.9082    0.6250 H   0  0  0  0  0  0  0  0  0  0  0  0
   -1.2404   -0.9926   -1.1484 H   0  0  0  0  0  0  0  0  0  0  0  0
   -3.0238    0.9484    0.3765 H   0  0  0  0  0  0  0  0  0  0  0  0
   -3.4677   -0.0215   -1.1063 H   0  0  0  0  0  0  0  0  0  0  0  0
   -3.4178   -0.8241    0.4726 H   0  0  0  0  0  0  0  0  0  0  0  0
  1  2  1  0
  2  3  1  0
  3  4  1  0
  4  5  1  0
  5  6  1  0
  1  7  1  0
  1  8  1  0
  1  9  1  0
  2 10  1  0
  2 11  1  0
  3 12  1  0
  3 13  1  0
  4 14  1  0
  4 15  1  0
  5 16  1  0
  5 17  1  0
  6 18  1  0
  6 19  1  0
  6 20  1  0
M  END
