
     RDKit          3D

 27 26  0  0  0  0  0  0  0  0999 V2000
   -3.8654   -0.4364   -0.4312 C   0  0  0  0  0  0  0  0  0  0  0  0
   -2.6381   -0.1141    0.3656 C   0  0  0  0  0  0  0  0  0  0  0  0
   -1.3775   -0.1718   -0.4692 C   0  0  0  0  0  0  0  0  0  0  0  0
   -0.1560    0.1612    0.3766 C   0  0  0  0  0  0  0  0  0  0  0  0
   -0.0662   -0.8403    1.4752 C   0  0  0  0  0  0  0  0  0  0  0  0
    1.0713    0.3253   -0.4561 C   0  0  0  0  0  0  0  0  0  0  0  0
    2.2910    0.6664    0.3468 C   0  0  0  0  0  0  0  0  0  0  0  0
    3.4498    0.8087   -0.6180 C   0  0  0  0  0  0  0  0  0  0  0  0
    3.6187   -0.3929   -1.2830 O   0  0  0  0  0  0  0  0  0  0  0  0
   -3.6997   -1.2060   -1.1888 H   0  0  0  0  0  0  0  0  0  0  0  0
   -4.6852   -0.6829    0.2877 H   0  0  0  0  0  0  0  0  0  0  0  0
   -4.1838    0.5087   -0.9418 H   0  0  0  0  0  0  0  0  0  0  0  0
   -2.6954    0.9332    0.7786 H   0  0  0  0  0  0  0  0  0  0  0  0
   -2.5308   -0.7784    1.2454 H   0  0  0  0  0  0  0  0  0  0  0  0
   -1.4239    0.5729   -1.2916 H   0  0  0  0  0  0  0  0  0  0  0  0
   -1.2515   -1.1585   -0.9597 H   0  0  0  0  0  0  0  0  0  0  0  0
   -0.3836    1.1651    0.8305 H   0  0  0  0  0  0  0  0  0  0  0  0
    0.9474   -1.1969    1.7081 H   0  0  0  0  0  0  0  0  0  0  0  0
   -0.4543   -0.4063    2.4426 H   0  0  0  0  0  0  0  0  0  0  0  0
   -0.7363   -1.7115    1.2762 H   0  0  0  0  0  0  0  0  0  0  0  0
    1.3228   -0.6234   -1.0162 H   0  0  0  0  0  0  0  0  0  0  0  0
    0.9622    1.1352   -1.2172 H   0  0  0  0  0  0  0  0  0  0  0  0
    2.4698   -0.0616    1.1277 H   0  0  0  0  0  0  0  0  0  0  0  0
    2.1446    1.6821    0.8108 H   0  0  0  0  0  0  0  0  0  0  0  0
    4.3892    1.0837   -0.1093 H   0  0  0  0  0  0  0  0  0  0  0  0
    3.1713    1.6399   -1.3203 H   0  0  0  0  0  0  0  0  0  0  0  0
    4.3095   -0.9015   -0.7902 H   0  0  0  0  0  0  0  0  0  0  0  0
  1  2  1  0
  2  3  1  0
  3  4  1  0
  4  5  1  0
  4  6  1  0
  6  7  1  0
  7  8  1  0
  8  9  1  0
  1 10  1  0
  1 11  1  0
  1 12  1  0
  2 13  1  0
  2 14  1  0
  3 15  1  0
  3 16  1  0
  4 17  1  0
  5 18  1  0
  5 19  1  0
  5 20  1  0
  6 21  1  0
  6 22  1  0
  7 23  1  0
  7 24  1  0
  8 25  1  0
  8 26  1  0
  9 27  1  0
M  END
