
     RDKit          3D

 27 26  0  0  0  0  0  0  0  0999 V2000
    3.0571    0.5101   -0.6429 C   0  0  0  0  0  0  0  0  0  0  0  0
    2.1443    1.2538    0.2762 C   0  0  0  0  0  0  0  0  0  0  0  0
    0.9253    0.5414    0.7060 C   0  0  0  0  0  0  0  0  0  0  0  0
   -0.0738    0.1562   -0.3123 C   0  0  0  0  0  0  0  0  0  0  0  0
    0.3868   -0.7743   -1.3577 C   0  0  0  0  0  0  0  0  0  0  0  0
   -1.3593   -0.3602    0.3839 C   0  0  0  0  0  0  0  0  0  0  0  0
   -1.0656   -1.5480    1.2331 C   0  0  0  0  0  0  0  0  0  0  0  0
   -2.3005   -0.5198   -0.5722 O   0  0  0  0  0  0  0  0  0  0  0  0
   -3.3791    0.3187   -0.5455 C   0  0  0  0  0  0  0  0  0  0  0  0
    3.2903   -0.5266   -0.2691 H   0  0  0  0  0  0  0  0  0  0  0  0
    4.0350    1.0867   -0.6757 H   0  0  0  0  0  0  0  0  0  0  0  0
    2.6659    0.5079   -1.6697 H   0  0  0  0  0  0  0  0  0  0  0  0
    1.8119    2.1871   -0.2825 H   0  0  0  0  0  0  0  0  0  0  0  0
    2.7252    1.6512    1.1605 H   0  0  0  0  0  0  0  0  0  0  0  0
    1.1840   -0.3440    1.3866 H   0  0  0  0  0  0  0  0  0  0  0  0
    0.3820    1.2321    1.4304 H   0  0  0  0  0  0  0  0  0  0  0  0
   -0.3892    1.1225   -0.8263 H   0  0  0  0  0  0  0  0  0  0  0  0
    1.3002   -1.3329   -1.0915 H   0  0  0  0  0  0  0  0  0  0  0  0
   -0.4238   -1.5069   -1.6673 H   0  0  0  0  0  0  0  0  0  0  0  0
    0.5888   -0.2476   -2.3262 H   0  0  0  0  0  0  0  0  0  0  0  0
   -1.6588    0.4748    1.0533 H   0  0  0  0  0  0  0  0  0  0  0  0
   -0.1301   -2.0347    0.8246 H   0  0  0  0  0  0  0  0  0  0  0  0
   -0.7948   -1.2658    2.2771 H   0  0  0  0  0  0  0  0  0  0  0  0
   -1.8877   -2.2714    1.3143 H   0  0  0  0  0  0  0  0  0  0  0  0
   -3.9855    0.2825    0.3634 H   0  0  0  0  0  0  0  0  0  0  0  0
   -3.0072    1.3537   -0.7744 H   0  0  0  0  0  0  0  0  0  0  0  0
   -4.0413    0.0535   -1.3984 H   0  0  0  0  0  0  0  0  0  0  0  0
  1  2  1  0
  2  3  1  0
  3  4  1  0
  4  5  1  0
  4  6  1  0
  6  7  1  0
  6  8  1  0
  8  9  1  0
  1 10  1  0
  1 11  1  0
  1 12  1  0
  2 13  1  0
  2 14  1  0
  3 15  1  0
  3 16  1  0
  4 17  1  0
  5 18  1  0
  5 19  1  0
  5 20  1  0
  6 21  1  0
  7 22  1  0
  7 23  1  0
  7 24  1  0
  9 25  1  0
  9 26  1  0
  9 27  1  0
M  END
