
     RDKit          3D

 23 24  0  0  0  0  0  0  0  0999 V2000
    3.4582   -0.2431    0.8322 C   0  0  0  0  0  0  0  0  0  0  0  0
    2.3755   -0.1602   -0.1816 C   0  0  0  0  0  0  0  0  0  0  0  0
    0.9784   -0.2501    0.4453 C   0  0  0  0  0  0  0  0  0  0  0  0
    0.0004   -0.1549   -0.6706 C   0  0  0  0  0  0  0  0  0  0  0  0
   -1.4316   -0.2233   -0.2621 C   0  0  0  0  0  0  0  0  0  0  0  0
   -2.4519   -0.1272   -1.3937 C   0  0  0  0  0  0  0  0  0  0  0  0
   -2.3656    0.8850   -0.3177 C   0  0  0  0  0  0  0  0  0  0  0  0
   -2.8935    0.3908    1.0218 C   0  0  0  0  0  0  0  0  0  0  0  0
   -1.8312   -0.5411    0.9995 O   0  0  0  0  0  0  0  0  0  0  0  0
    3.9968   -1.2185    0.7187 H   0  0  0  0  0  0  0  0  0  0  0  0
    4.2169    0.5517    0.5794 H   0  0  0  0  0  0  0  0  0  0  0  0
    3.1527   -0.0398    1.8669 H   0  0  0  0  0  0  0  0  0  0  0  0
    2.4208   -1.0413   -0.8859 H   0  0  0  0  0  0  0  0  0  0  0  0
    2.4249    0.7608   -0.7982 H   0  0  0  0  0  0  0  0  0  0  0  0
    0.8906   -1.2306    0.9453 H   0  0  0  0  0  0  0  0  0  0  0  0
    0.9095    0.5559    1.1851 H   0  0  0  0  0  0  0  0  0  0  0  0
    0.2042   -0.9696   -1.3930 H   0  0  0  0  0  0  0  0  0  0  0  0
    0.1716    0.8014   -1.2034 H   0  0  0  0  0  0  0  0  0  0  0  0
   -3.2962   -0.8740   -1.3561 H   0  0  0  0  0  0  0  0  0  0  0  0
   -2.0598    0.1628   -2.3682 H   0  0  0  0  0  0  0  0  0  0  0  0
   -2.1183    1.9250   -0.4691 H   0  0  0  0  0  0  0  0  0  0  0  0
   -3.8891   -0.0634    0.8644 H   0  0  0  0  0  0  0  0  0  0  0  0
   -2.8634    1.1038    1.8411 H   0  0  0  0  0  0  0  0  0  0  0  0
  1  2  1  0
  2  3  1  0
  3  4  1  0
  4  5  1  0
  5  6  1  0
  6  7  1  0
  7  8  1  0
  8  9  1  0
  7  5  1  0
  9  5  1  0
  1 10  1  0
  1 11  1  0
  1 12  1  0
  2 13  1  0
  2 14  1  0
  3 15  1  0
  3 16  1  0
  4 17  1  0
  4 18  1  0
  6 19  1  0
  6 20  1  0
  7 21  1  0
  8 22  1  0
  8 23  1  0
M  END
