
     RDKit          3D

 22 22  0  0  0  0  0  0  0  0999 V2000
   -3.6061    0.1844   -0.0532 C   0  0  0  0  0  0  0  0  0  0  0  0
   -2.3392   -0.2557    0.6348 C   0  0  0  0  0  0  0  0  0  0  0  0
   -1.1306    0.2122   -0.1207 C   0  0  0  0  0  0  0  0  0  0  0  0
    0.1468   -0.2215    0.5567 C   0  0  0  0  0  0  0  0  0  0  0  0
    1.3728    0.2415   -0.1908 C   0  0  0  0  0  0  0  0  0  0  0  0
    2.6245   -0.1963    0.4936 C   0  0  0  0  0  0  0  0  0  0  0  0
    3.9550    0.1134   -0.0111 C   0  0  0  0  0  0  0  0  0  0  0  0
    3.3475   -1.1834   -0.2349 O   0  0  0  0  0  0  0  0  0  0  0  0
   -3.8539   -0.5228   -0.8754 H   0  0  0  0  0  0  0  0  0  0  0  0
   -4.4191    0.1832    0.6798 H   0  0  0  0  0  0  0  0  0  0  0  0
   -3.4161    1.1800   -0.5046 H   0  0  0  0  0  0  0  0  0  0  0  0
   -2.3616    0.2015    1.6596 H   0  0  0  0  0  0  0  0  0  0  0  0
   -2.3649   -1.3434    0.7881 H   0  0  0  0  0  0  0  0  0  0  0  0
   -1.1569    1.3055   -0.2027 H   0  0  0  0  0  0  0  0  0  0  0  0
   -1.2109   -0.2138   -1.1534 H   0  0  0  0  0  0  0  0  0  0  0  0
    0.1726   -1.3498    0.5112 H   0  0  0  0  0  0  0  0  0  0  0  0
    0.1661    0.1652    1.5726 H   0  0  0  0  0  0  0  0  0  0  0  0
    1.2803   -0.1821   -1.2324 H   0  0  0  0  0  0  0  0  0  0  0  0
    1.3784    1.3474   -0.3423 H   0  0  0  0  0  0  0  0  0  0  0  0
    2.5168   -0.3920    1.5867 H   0  0  0  0  0  0  0  0  0  0  0  0
    4.0891    0.7318   -0.9176 H   0  0  0  0  0  0  0  0  0  0  0  0
    4.8095   -0.0054    0.6809 H   0  0  0  0  0  0  0  0  0  0  0  0
  1  2  1  0
  2  3  1  0
  3  4  1  0
  4  5  1  0
  5  6  1  0
  6  7  1  0
  7  8  1  0
  8  6  1  0
  1  9  1  0
  1 10  1  0
  1 11  1  0
  2 12  1  0
  2 13  1  0
  3 14  1  0
  3 15  1  0
  4 16  1  0
  4 17  1  0
  5 18  1  0
  5 19  1  0
  6 20  1  0
  7 21  1  0
  7 22  1  0
M  END
