
     RDKit          3D

 21 21  0  0  0  0  0  0  0  0999 V2000
    2.8803    0.1621   -0.0278 C   0  0  0  0  0  0  0  0  0  0  0  0
    1.5209    0.1846    0.5901 C   0  0  0  0  0  0  0  0  0  0  0  0
    0.4341   -0.2337   -0.3803 C   0  0  0  0  0  0  0  0  0  0  0  0
   -0.9003   -0.1843    0.3180 C   0  0  0  0  0  0  0  0  0  0  0  0
   -0.9836   -1.0713    1.4857 C   0  0  0  0  0  0  0  0  0  0  0  0
   -1.3740   -0.6674    2.5569 O   0  0  0  0  0  0  0  0  0  0  0  0
   -2.0760   -0.3691   -0.6157 C   0  0  0  0  0  0  0  0  0  0  0  0
   -1.9527    1.1214   -0.6910 C   0  0  0  0  0  0  0  0  0  0  0  0
   -1.2906    1.1253    0.5136 O   0  0  0  0  0  0  0  0  0  0  0  0
    3.5107    0.9243    0.4745 H   0  0  0  0  0  0  0  0  0  0  0  0
    2.8048    0.4624   -1.0924 H   0  0  0  0  0  0  0  0  0  0  0  0
    3.4016   -0.8185    0.1048 H   0  0  0  0  0  0  0  0  0  0  0  0
    1.4551   -0.5238    1.4521 H   0  0  0  0  0  0  0  0  0  0  0  0
    1.3288    1.2103    0.9652 H   0  0  0  0  0  0  0  0  0  0  0  0
    0.6155   -1.2204   -0.8094 H   0  0  0  0  0  0  0  0  0  0  0  0
    0.4056    0.5129   -1.2034 H   0  0  0  0  0  0  0  0  0  0  0  0
   -0.6923   -2.1013    1.3898 H   0  0  0  0  0  0  0  0  0  0  0  0
   -3.0008   -0.6877   -0.0927 H   0  0  0  0  0  0  0  0  0  0  0  0
   -1.7932   -0.9366   -1.5090 H   0  0  0  0  0  0  0  0  0  0  0  0
   -2.9189    1.6769   -0.6425 H   0  0  0  0  0  0  0  0  0  0  0  0
   -1.3748    1.4340   -1.5814 H   0  0  0  0  0  0  0  0  0  0  0  0
  1  2  1  0
  2  3  1  0
  3  4  1  0
  4  5  1  0
  5  6  2  0
  4  7  1  0
  7  8  1  0
  8  9  1  0
  9  4  1  0
  1 10  1  0
  1 11  1  0
  1 12  1  0
  2 13  1  0
  2 14  1  0
  3 15  1  0
  3 16  1  0
  5 17  1  0
  7 18  1  0
  7 19  1  0
  8 20  1  0
  8 21  1  0
M  END
