
     RDKit          3D

 23 22  0  0  0  0  0  0  0  0999 V2000
   -3.8227   -0.0359   -0.9595 C   0  0  0  0  0  0  0  0  0  0  0  0
   -2.3644    0.3503   -1.0970 C   0  0  0  0  0  0  0  0  0  0  0  0
   -1.6500   -0.1356    0.1282 C   0  0  0  0  0  0  0  0  0  0  0  0
   -0.1735    0.1919    0.1104 C   0  0  0  0  0  0  0  0  0  0  0  0
    0.4417   -0.2733    1.2543 O   0  0  0  0  0  0  0  0  0  0  0  0
    1.7879   -0.0317    1.3464 C   0  0  0  0  0  0  0  0  0  0  0  0
    2.6285   -0.6666    0.3186 C   0  0  0  0  0  0  0  0  0  0  0  0
    4.0892   -0.4129    0.3128 C   0  0  0  0  0  0  0  0  0  0  0  0
    2.1565   -1.3905   -0.5215 O   0  0  0  0  0  0  0  0  0  0  0  0
   -3.9166   -0.8893   -0.2572 H   0  0  0  0  0  0  0  0  0  0  0  0
   -4.2362   -0.3921   -1.9273 H   0  0  0  0  0  0  0  0  0  0  0  0
   -4.4409    0.8092   -0.5878 H   0  0  0  0  0  0  0  0  0  0  0  0
   -2.0013   -0.1160   -2.0323 H   0  0  0  0  0  0  0  0  0  0  0  0
   -2.2752    1.4565   -1.2084 H   0  0  0  0  0  0  0  0  0  0  0  0
   -2.1432    0.3321    1.0050 H   0  0  0  0  0  0  0  0  0  0  0  0
   -1.7556   -1.2503    0.1480 H   0  0  0  0  0  0  0  0  0  0  0  0
   -0.1206    1.3232    0.1589 H   0  0  0  0  0  0  0  0  0  0  0  0
    0.3199   -0.1041   -0.8055 H   0  0  0  0  0  0  0  0  0  0  0  0
    2.1833   -0.3144    2.3712 H   0  0  0  0  0  0  0  0  0  0  0  0
    1.9266    1.0892    1.2582 H   0  0  0  0  0  0  0  0  0  0  0  0
    4.6567   -1.1760   -0.2391 H   0  0  0  0  0  0  0  0  0  0  0  0
    4.4882   -0.3516    1.3529 H   0  0  0  0  0  0  0  0  0  0  0  0
    4.2217    0.6181   -0.1294 H   0  0  0  0  0  0  0  0  0  0  0  0
  1  2  1  0
  2  3  1  0
  3  4  1  0
  4  5  1  0
  5  6  1  0
  6  7  1  0
  7  8  1  0
  7  9  2  0
  1 10  1  0
  1 11  1  0
  1 12  1  0
  2 13  1  0
  2 14  1  0
  3 15  1  0
  3 16  1  0
  4 17  1  0
  4 18  1  0
  6 19  1  0
  6 20  1  0
  8 21  1  0
  8 22  1  0
  8 23  1  0
M  END
