
     RDKit          3D

 25 25  0  0  0  0  0  0  0  0999 V2000
   -3.5159    0.4042    0.8813 C   0  0  0  0  0  0  0  0  0  0  0  0
   -2.1573    0.6966    0.2648 C   0  0  0  0  0  0  0  0  0  0  0  0
   -1.4286   -0.5749   -0.0862 C   0  0  0  0  0  0  0  0  0  0  0  0
   -0.0976   -0.2253   -0.6900 C   0  0  0  0  0  0  0  0  0  0  0  0
    0.7749    0.5589    0.2205 C   0  0  0  0  0  0  0  0  0  0  0  0
    2.0439    0.2494   -0.0142 C   0  0  0  0  0  0  0  0  0  0  0  0
    3.1927    0.8577    0.7282 C   0  0  0  0  0  0  0  0  0  0  0  0
    2.1331   -0.7770   -1.1083 C   0  0  0  0  0  0  0  0  0  0  0  0
    0.7609   -1.4476   -0.9379 C   0  0  0  0  0  0  0  0  0  0  0  0
   -4.0309   -0.4346    0.4013 H   0  0  0  0  0  0  0  0  0  0  0  0
   -3.3233    0.1308    1.9402 H   0  0  0  0  0  0  0  0  0  0  0  0
   -4.0906    1.3521    0.8296 H   0  0  0  0  0  0  0  0  0  0  0  0
   -1.6013    1.2831    1.0267 H   0  0  0  0  0  0  0  0  0  0  0  0
   -2.2544    1.3777   -0.6174 H   0  0  0  0  0  0  0  0  0  0  0  0
   -2.0054   -1.1120   -0.8647 H   0  0  0  0  0  0  0  0  0  0  0  0
   -1.3055   -1.1773    0.8104 H   0  0  0  0  0  0  0  0  0  0  0  0
   -0.2060    0.3656   -1.6180 H   0  0  0  0  0  0  0  0  0  0  0  0
    0.4341    1.2729    0.9617 H   0  0  0  0  0  0  0  0  0  0  0  0
    4.1567    0.4347    0.3945 H   0  0  0  0  0  0  0  0  0  0  0  0
    3.1313    1.9608    0.5691 H   0  0  0  0  0  0  0  0  0  0  0  0
    3.0673    0.6579    1.8173 H   0  0  0  0  0  0  0  0  0  0  0  0
    2.9515   -1.4839   -0.9602 H   0  0  0  0  0  0  0  0  0  0  0  0
    2.1175   -0.3010   -2.1119 H   0  0  0  0  0  0  0  0  0  0  0  0
    0.4788   -2.0113   -1.8283 H   0  0  0  0  0  0  0  0  0  0  0  0
    0.7743   -2.0574   -0.0084 H   0  0  0  0  0  0  0  0  0  0  0  0
  1  2  1  0
  2  3  1  0
  3  4  1  0
  4  5  1  0
  5  6  2  0
  6  7  1  0
  6  8  1  0
  8  9  1  0
  9  4  1  0
  1 10  1  0
  1 11  1  0
  1 12  1  0
  2 13  1  0
  2 14  1  0
  3 15  1  0
  3 16  1  0
  4 17  1  0
  5 18  1  0
  7 19  1  0
  7 20  1  0
  7 21  1  0
  8 22  1  0
  8 23  1  0
  9 24  1  0
  9 25  1  0
M  END
