
     RDKit          3D

 23 24  0  0  0  0  0  0  0  0999 V2000
    2.7315    0.0899   -0.3309 C   0  0  0  0  0  0  0  0  0  0  0  0
    1.8964   -1.1109    0.0281 C   0  0  0  0  0  0  0  0  0  0  0  0
    0.6672   -0.7312    0.8299 C   0  0  0  0  0  0  0  0  0  0  0  0
   -0.2312    0.1978    0.1036 C   0  0  0  0  0  0  0  0  0  0  0  0
   -1.4788    0.6775    0.7401 C   0  0  0  0  0  0  0  0  0  0  0  0
   -2.0731   -0.6541    0.4568 C   0  0  0  0  0  0  0  0  0  0  0  0
   -1.2968   -0.3626   -0.7803 C   0  0  0  0  0  0  0  0  0  0  0  0
   -1.9069    1.0169   -0.6844 C   0  0  0  0  0  0  0  0  0  0  0  0
   -1.1486    2.0610   -1.1602 O   0  0  0  0  0  0  0  0  0  0  0  0
    3.7405   -0.2865   -0.6036 H   0  0  0  0  0  0  0  0  0  0  0  0
    2.8391    0.7281    0.5666 H   0  0  0  0  0  0  0  0  0  0  0  0
    2.3474    0.6349   -1.2166 H   0  0  0  0  0  0  0  0  0  0  0  0
    2.5141   -1.7731    0.6702 H   0  0  0  0  0  0  0  0  0  0  0  0
    1.6163   -1.6179   -0.9191 H   0  0  0  0  0  0  0  0  0  0  0  0
    0.1479   -1.6720    1.0666 H   0  0  0  0  0  0  0  0  0  0  0  0
    1.0468   -0.2244    1.7581 H   0  0  0  0  0  0  0  0  0  0  0  0
    0.3027    1.0036   -0.4783 H   0  0  0  0  0  0  0  0  0  0  0  0
   -1.6076    1.2726    1.5316 H   0  0  0  0  0  0  0  0  0  0  0  0
   -3.1823   -0.5624    0.2406 H   0  0  0  0  0  0  0  0  0  0  0  0
   -1.8160   -1.5121    1.0692 H   0  0  0  0  0  0  0  0  0  0  0  0
   -1.2001   -0.9173   -1.6038 H   0  0  0  0  0  0  0  0  0  0  0  0
   -2.9818    1.0355   -0.8634 H   0  0  0  0  0  0  0  0  0  0  0  0
   -0.9267    2.7066   -0.4207 H   0  0  0  0  0  0  0  0  0  0  0  0
  1  2  1  0
  2  3  1  0
  3  4  1  0
  4  5  1  0
  5  6  1  0
  6  7  1  0
  7  8  1  0
  8  9  1  0
  7  4  1  0
  8  5  1  0
  1 10  1  0
  1 11  1  0
  1 12  1  0
  2 13  1  0
  2 14  1  0
  3 15  1  0
  3 16  1  0
  4 17  1  0
  5 18  1  0
  6 19  1  0
  6 20  1  0
  7 21  1  0
  8 22  1  0
  9 23  1  0
M  END
