
     RDKit          3D

 24 24  0  0  0  0  0  0  0  0999 V2000
    3.2427    0.6138    0.1277 C   0  0  0  0  0  0  0  0  0  0  0  0
    2.0499    0.0729   -0.6442 C   0  0  0  0  0  0  0  0  0  0  0  0
    0.8939    0.0209    0.3490 C   0  0  0  0  0  0  0  0  0  0  0  0
   -0.3213   -0.5045   -0.3429 C   0  0  0  0  0  0  0  0  0  0  0  0
   -1.5534   -0.6006    0.5659 C   0  0  0  0  0  0  0  0  0  0  0  0
   -2.2347   -1.9285    0.5606 C   0  0  0  0  0  0  0  0  0  0  0  0
   -1.5170    0.2898   -0.6081 C   0  0  0  0  0  0  0  0  0  0  0  0
   -1.5486    1.7887   -0.3687 C   0  0  0  0  0  0  0  0  0  0  0  0
    2.9106    1.3802    0.8492 H   0  0  0  0  0  0  0  0  0  0  0  0
    3.6926   -0.2287    0.7271 H   0  0  0  0  0  0  0  0  0  0  0  0
    3.9651    1.0229   -0.5998 H   0  0  0  0  0  0  0  0  0  0  0  0
    1.8091    0.6862   -1.5221 H   0  0  0  0  0  0  0  0  0  0  0  0
    2.2453   -0.9708   -0.9413 H   0  0  0  0  0  0  0  0  0  0  0  0
    1.2040   -0.7505    1.1108 H   0  0  0  0  0  0  0  0  0  0  0  0
    0.7594    0.9736    0.8614 H   0  0  0  0  0  0  0  0  0  0  0  0
   -0.1160   -1.3807   -1.0051 H   0  0  0  0  0  0  0  0  0  0  0  0
   -1.5065   -0.0919    1.5548 H   0  0  0  0  0  0  0  0  0  0  0  0
   -2.5748   -2.2114    1.5932 H   0  0  0  0  0  0  0  0  0  0  0  0
   -3.0626   -2.0332   -0.1321 H   0  0  0  0  0  0  0  0  0  0  0  0
   -1.4779   -2.7184    0.2894 H   0  0  0  0  0  0  0  0  0  0  0  0
   -2.1323   -0.0140   -1.5056 H   0  0  0  0  0  0  0  0  0  0  0  0
   -0.5637    2.2569   -0.5611 H   0  0  0  0  0  0  0  0  0  0  0  0
   -1.8852    2.0227    0.6731 H   0  0  0  0  0  0  0  0  0  0  0  0
   -2.2788    2.3046   -1.0313 H   0  0  0  0  0  0  0  0  0  0  0  0
  1  2  1  0
  2  3  1  0
  3  4  1  0
  4  5  1  0
  5  6  1  0
  5  7  1  0
  7  8  1  0
  7  4  1  0
  1  9  1  0
  1 10  1  0
  1 11  1  0
  2 12  1  0
  2 13  1  0
  3 14  1  0
  3 15  1  0
  4 16  1  0
  5 17  1  0
  6 18  1  0
  6 19  1  0
  6 20  1  0
  7 21  1  0
  8 22  1  0
  8 23  1  0
  8 24  1  0
M  END
