
     RDKit          3D

 27 27  0  0  0  0  0  0  0  0999 V2000
    2.5603    0.7225    1.1276 C   0  0  0  0  0  0  0  0  0  0  0  0
    1.8457    1.2742   -0.0683 C   0  0  0  0  0  0  0  0  0  0  0  0
    1.3313    0.1792   -0.9851 C   0  0  0  0  0  0  0  0  0  0  0  0
    0.3754   -0.6857   -0.2218 C   0  0  0  0  0  0  0  0  0  0  0  0
   -0.1372   -1.7756   -1.1324 C   0  0  0  0  0  0  0  0  0  0  0  0
   -0.7197    0.0735    0.4543 C   0  0  0  0  0  0  0  0  0  0  0  0
   -1.6328    0.8855   -0.3974 C   0  0  0  0  0  0  0  0  0  0  0  0
   -2.7936    0.3580    0.4488 C   0  0  0  0  0  0  0  0  0  0  0  0
   -1.8870   -0.8434    0.7543 C   0  0  0  0  0  0  0  0  0  0  0  0
    1.9220    0.5994    2.0173 H   0  0  0  0  0  0  0  0  0  0  0  0
    3.3677    1.4356    1.4252 H   0  0  0  0  0  0  0  0  0  0  0  0
    3.1010   -0.2336    0.8939 H   0  0  0  0  0  0  0  0  0  0  0  0
    0.9606    1.8325    0.2840 H   0  0  0  0  0  0  0  0  0  0  0  0
    2.5401    1.9572   -0.6066 H   0  0  0  0  0  0  0  0  0  0  0  0
    0.8541    0.6403   -1.8533 H   0  0  0  0  0  0  0  0  0  0  0  0
    2.1935   -0.4581   -1.2786 H   0  0  0  0  0  0  0  0  0  0  0  0
    0.9601   -1.2002    0.5713 H   0  0  0  0  0  0  0  0  0  0  0  0
   -0.8990   -1.4343   -1.8428 H   0  0  0  0  0  0  0  0  0  0  0  0
   -0.4535   -2.6854   -0.5745 H   0  0  0  0  0  0  0  0  0  0  0  0
    0.7560   -2.1124   -1.7362 H   0  0  0  0  0  0  0  0  0  0  0  0
   -0.3784    0.6359    1.3283 H   0  0  0  0  0  0  0  0  0  0  0  0
   -1.7220    0.5861   -1.4580 H   0  0  0  0  0  0  0  0  0  0  0  0
   -1.5372    1.9850   -0.2561 H   0  0  0  0  0  0  0  0  0  0  0  0
   -3.6957    0.0922   -0.1264 H   0  0  0  0  0  0  0  0  0  0  0  0
   -2.9461    0.9212    1.3827 H   0  0  0  0  0  0  0  0  0  0  0  0
   -1.8769   -1.1250    1.8228 H   0  0  0  0  0  0  0  0  0  0  0  0
   -2.0889   -1.6248    0.0270 H   0  0  0  0  0  0  0  0  0  0  0  0
  1  2  1  0
  2  3  1  0
  3  4  1  0
  4  5  1  0
  4  6  1  0
  6  7  1  0
  7  8  1  0
  8  9  1  0
  9  6  1  0
  1 10  1  0
  1 11  1  0
  1 12  1  0
  2 13  1  0
  2 14  1  0
  3 15  1  0
  3 16  1  0
  4 17  1  0
  5 18  1  0
  5 19  1  0
  5 20  1  0
  6 21  1  0
  7 22  1  0
  7 23  1  0
  8 24  1  0
  8 25  1  0
  9 26  1  0
  9 27  1  0
M  END
