
     RDKit          3D

 27 26  0  0  0  0  0  0  0  0999 V2000
    2.9978    1.1046   -0.0558 C   0  0  0  0  0  0  0  0  0  0  0  0
    2.7178   -0.3103    0.3685 C   0  0  0  0  0  0  0  0  0  0  0  0
    1.4134   -0.8309   -0.1539 C   0  0  0  0  0  0  0  0  0  0  0  0
    0.2431    0.0013    0.3298 C   0  0  0  0  0  0  0  0  0  0  0  0
   -1.0622   -0.5405   -0.2081 C   0  0  0  0  0  0  0  0  0  0  0  0
   -1.2935   -1.9727    0.2419 C   0  0  0  0  0  0  0  0  0  0  0  0
   -2.2422    0.2606    0.2438 C   0  0  0  0  0  0  0  0  0  0  0  0
   -2.2086    1.6957   -0.1736 C   0  0  0  0  0  0  0  0  0  0  0  0
   -2.3655    0.1004    1.6209 O   0  0  0  0  0  0  0  0  0  0  0  0
    2.3193    1.4006   -0.8967 H   0  0  0  0  0  0  0  0  0  0  0  0
    2.7742    1.8185    0.7784 H   0  0  0  0  0  0  0  0  0  0  0  0
    4.0492    1.2165   -0.4021 H   0  0  0  0  0  0  0  0  0  0  0  0
    2.6712   -0.3794    1.4860 H   0  0  0  0  0  0  0  0  0  0  0  0
    3.5181   -0.9887   -0.0163 H   0  0  0  0  0  0  0  0  0  0  0  0
    1.3961   -0.9258   -1.2588 H   0  0  0  0  0  0  0  0  0  0  0  0
    1.3258   -1.8916    0.2239 H   0  0  0  0  0  0  0  0  0  0  0  0
    0.3782    1.0217   -0.0810 H   0  0  0  0  0  0  0  0  0  0  0  0
    0.2441    0.0730    1.4217 H   0  0  0  0  0  0  0  0  0  0  0  0
   -1.0446   -0.5248   -1.3160 H   0  0  0  0  0  0  0  0  0  0  0  0
   -1.2854   -1.9916    1.3458 H   0  0  0  0  0  0  0  0  0  0  0  0
   -2.3377   -2.2276   -0.0609 H   0  0  0  0  0  0  0  0  0  0  0  0
   -0.5969   -2.6787   -0.2200 H   0  0  0  0  0  0  0  0  0  0  0  0
   -3.1485   -0.2007   -0.2108 H   0  0  0  0  0  0  0  0  0  0  0  0
   -1.2735    2.2087    0.0706 H   0  0  0  0  0  0  0  0  0  0  0  0
   -2.4625    1.7534   -1.2553 H   0  0  0  0  0  0  0  0  0  0  0  0
   -3.0455    2.2132    0.3555 H   0  0  0  0  0  0  0  0  0  0  0  0
   -1.6818    0.5950    2.1353 H   0  0  0  0  0  0  0  0  0  0  0  0
  1  2  1  0
  2  3  1  0
  3  4  1  0
  4  5  1  0
  5  6  1  0
  5  7  1  0
  7  8  1  0
  7  9  1  0
  1 10  1  0
  1 11  1  0
  1 12  1  0
  2 13  1  0
  2 14  1  0
  3 15  1  0
  3 16  1  0
  4 17  1  0
  4 18  1  0
  5 19  1  0
  6 20  1  0
  6 21  1  0
  6 22  1  0
  7 23  1  0
  8 24  1  0
  8 25  1  0
  8 26  1  0
  9 27  1  0
M  END
