
     RDKit          3D

 25 25  0  0  0  0  0  0  0  0999 V2000
    3.1530   -0.0941    0.1585 C   0  0  0  0  0  0  0  0  0  0  0  0
    1.8336    0.5417   -0.2218 C   0  0  0  0  0  0  0  0  0  0  0  0
    0.6946   -0.4568   -0.0746 C   0  0  0  0  0  0  0  0  0  0  0  0
   -0.6269    0.1711   -0.4529 C   0  0  0  0  0  0  0  0  0  0  0  0
   -0.8397    1.2660    0.4094 O   0  0  0  0  0  0  0  0  0  0  0  0
   -0.9136    2.4598   -0.3171 C   0  0  0  0  0  0  0  0  0  0  0  0
   -1.7830   -0.7463   -0.2828 C   0  0  0  0  0  0  0  0  0  0  0  0
   -1.9740   -1.2435    1.1591 C   0  0  0  0  0  0  0  0  0  0  0  0
   -1.6643   -2.1713    0.0349 C   0  0  0  0  0  0  0  0  0  0  0  0
    3.1061   -0.5358    1.1871 H   0  0  0  0  0  0  0  0  0  0  0  0
    3.9215    0.6971    0.1819 H   0  0  0  0  0  0  0  0  0  0  0  0
    3.4250   -0.8889   -0.5667 H   0  0  0  0  0  0  0  0  0  0  0  0
    1.9384    0.8397   -1.3011 H   0  0  0  0  0  0  0  0  0  0  0  0
    1.6740    1.4536    0.3456 H   0  0  0  0  0  0  0  0  0  0  0  0
    0.8832   -1.3037   -0.7655 H   0  0  0  0  0  0  0  0  0  0  0  0
    0.7152   -0.8185    0.9573 H   0  0  0  0  0  0  0  0  0  0  0  0
   -0.5670    0.5089   -1.5076 H   0  0  0  0  0  0  0  0  0  0  0  0
    0.0005    2.6606   -0.8796 H   0  0  0  0  0  0  0  0  0  0  0  0
   -1.0473    3.2659    0.4340 H   0  0  0  0  0  0  0  0  0  0  0  0
   -1.8124    2.4940   -0.9738 H   0  0  0  0  0  0  0  0  0  0  0  0
   -2.7117   -0.4143   -0.8169 H   0  0  0  0  0  0  0  0  0  0  0  0
   -1.1902   -1.0068    1.8981 H   0  0  0  0  0  0  0  0  0  0  0  0
   -3.0072   -1.1415    1.5540 H   0  0  0  0  0  0  0  0  0  0  0  0
   -0.7023   -2.7063    0.1045 H   0  0  0  0  0  0  0  0  0  0  0  0
   -2.5055   -2.8307   -0.2643 H   0  0  0  0  0  0  0  0  0  0  0  0
  1  2  1  0
  2  3  1  0
  3  4  1  0
  4  5  1  0
  5  6  1  0
  4  7  1  0
  7  8  1  0
  8  9  1  0
  9  7  1  0
  1 10  1  0
  1 11  1  0
  1 12  1  0
  2 13  1  0
  2 14  1  0
  3 15  1  0
  3 16  1  0
  4 17  1  0
  6 18  1  0
  6 19  1  0
  6 20  1  0
  7 21  1  0
  8 22  1  0
  8 23  1  0
  9 24  1  0
  9 25  1  0
M  END
