
     RDKit          3D

 22 22  0  0  0  0  0  0  0  0999 V2000
    2.9181    0.2943   -0.0141 C   0  0  0  0  0  0  0  0  0  0  0  0
    1.7051   -0.5718    0.2415 C   0  0  0  0  0  0  0  0  0  0  0  0
    0.5141   -0.0006   -0.4911 C   0  0  0  0  0  0  0  0  0  0  0  0
   -0.7327   -0.7913   -0.2972 C   0  0  0  0  0  0  0  0  0  0  0  0
   -1.8345   -0.0810   -1.1009 C   0  0  0  0  0  0  0  0  0  0  0  0
   -1.9818    1.1429   -0.2680 C   0  0  0  0  0  0  0  0  0  0  0  0
   -1.6841    0.8673    0.9961 C   0  0  0  0  0  0  0  0  0  0  0  0
   -1.3144   -0.5782    1.0880 C   0  0  0  0  0  0  0  0  0  0  0  0
    3.2694    0.0333   -1.0473 H   0  0  0  0  0  0  0  0  0  0  0  0
    3.7411    0.0820    0.6898 H   0  0  0  0  0  0  0  0  0  0  0  0
    2.5856    1.3567    0.0421 H   0  0  0  0  0  0  0  0  0  0  0  0
    1.5112   -0.5301    1.3370 H   0  0  0  0  0  0  0  0  0  0  0  0
    1.9105   -1.6085   -0.0541 H   0  0  0  0  0  0  0  0  0  0  0  0
    0.3287    1.0266   -0.0981 H   0  0  0  0  0  0  0  0  0  0  0  0
    0.7665    0.0930   -1.5667 H   0  0  0  0  0  0  0  0  0  0  0  0
   -0.6572   -1.8497   -0.5625 H   0  0  0  0  0  0  0  0  0  0  0  0
   -1.4985    0.1402   -2.1299 H   0  0  0  0  0  0  0  0  0  0  0  0
   -2.7357   -0.7040   -1.0444 H   0  0  0  0  0  0  0  0  0  0  0  0
   -2.2827    2.1059   -0.6285 H   0  0  0  0  0  0  0  0  0  0  0  0
   -1.6834    1.5158    1.8692 H   0  0  0  0  0  0  0  0  0  0  0  0
   -0.5966   -0.7844    1.8924 H   0  0  0  0  0  0  0  0  0  0  0  0
   -2.2487   -1.1583    1.1468 H   0  0  0  0  0  0  0  0  0  0  0  0
  1  2  1  0
  2  3  1  0
  3  4  1  0
  4  5  1  0
  5  6  1  0
  6  7  2  0
  7  8  1  0
  8  4  1  0
  1  9  1  0
  1 10  1  0
  1 11  1  0
  2 12  1  0
  2 13  1  0
  3 14  1  0
  3 15  1  0
  4 16  1  0
  5 17  1  0
  5 18  1  0
  6 19  1  0
  7 20  1  0
  8 21  1  0
  8 22  1  0
M  END
