
     RDKit          3D

 21 21  0  0  0  0  0  0  0  0999 V2000
    2.9229    0.4440    0.4198 C   0  0  0  0  0  0  0  0  0  0  0  0
    1.7174   -0.2565   -0.1734 C   0  0  0  0  0  0  0  0  0  0  0  0
    0.4714    0.5394    0.1105 C   0  0  0  0  0  0  0  0  0  0  0  0
   -0.7733   -0.0562   -0.4266 C   0  0  0  0  0  0  0  0  0  0  0  0
   -1.1000   -1.4378    0.1021 C   0  0  0  0  0  0  0  0  0  0  0  0
   -2.5100   -0.9814    0.2550 C   0  0  0  0  0  0  0  0  0  0  0  0
   -3.6387   -1.4413    0.2762 O   0  0  0  0  0  0  0  0  0  0  0  0
   -1.9887    0.4065    0.3894 C   0  0  0  0  0  0  0  0  0  0  0  0
   -2.7852    1.3360   -0.2891 O   0  0  0  0  0  0  0  0  0  0  0  0
    3.2352    1.3257   -0.1802 H   0  0  0  0  0  0  0  0  0  0  0  0
    3.7946   -0.2445    0.5071 H   0  0  0  0  0  0  0  0  0  0  0  0
    2.6684    0.7485    1.4623 H   0  0  0  0  0  0  0  0  0  0  0  0
    1.6738   -1.2550    0.3463 H   0  0  0  0  0  0  0  0  0  0  0  0
    1.8795   -0.4349   -1.2489 H   0  0  0  0  0  0  0  0  0  0  0  0
    0.3941    0.6568    1.2094 H   0  0  0  0  0  0  0  0  0  0  0  0
    0.6070    1.5476   -0.3262 H   0  0  0  0  0  0  0  0  0  0  0  0
   -0.9655    0.0274   -1.4999 H   0  0  0  0  0  0  0  0  0  0  0  0
   -0.6363   -1.6165    1.0867 H   0  0  0  0  0  0  0  0  0  0  0  0
   -0.9198   -2.1933   -0.6738 H   0  0  0  0  0  0  0  0  0  0  0  0
   -1.7384    0.6832    1.4343 H   0  0  0  0  0  0  0  0  0  0  0  0
   -2.3085    2.2021   -0.3638 H   0  0  0  0  0  0  0  0  0  0  0  0
  1  2  1  0
  2  3  1  0
  3  4  1  0
  4  5  1  0
  5  6  1  0
  6  7  2  0
  6  8  1  0
  8  9  1  0
  8  4  1  0
  1 10  1  0
  1 11  1  0
  1 12  1  0
  2 13  1  0
  2 14  1  0
  3 15  1  0
  3 16  1  0
  4 17  1  0
  5 18  1  0
  5 19  1  0
  8 20  1  0
  9 21  1  0
M  END
