
     RDKit          3D

 23 23  0  0  0  0  0  0  0  0999 V2000
   -2.5411    0.7183   -0.9567 C   0  0  0  0  0  0  0  0  0  0  0  0
   -2.2976   -0.6879   -0.4945 C   0  0  0  0  0  0  0  0  0  0  0  0
   -1.6728   -0.6639    0.8921 C   0  0  0  0  0  0  0  0  0  0  0  0
   -0.3633    0.0696    0.8961 C   0  0  0  0  0  0  0  0  0  0  0  0
    0.5813   -0.4923    0.0525 O   0  0  0  0  0  0  0  0  0  0  0  0
    1.7299    0.2956    0.1684 C   0  0  0  0  0  0  0  0  0  0  0  0
    2.4816    0.5372   -1.0981 C   0  0  0  0  0  0  0  0  0  0  0  0
    3.6753    0.3177   -0.3759 O   0  0  0  0  0  0  0  0  0  0  0  0
    2.9472   -0.5912    0.4026 C   0  0  0  0  0  0  0  0  0  0  0  0
   -3.2565    0.7902   -1.7902 H   0  0  0  0  0  0  0  0  0  0  0  0
   -2.9536    1.2846   -0.0805 H   0  0  0  0  0  0  0  0  0  0  0  0
   -1.5797    1.2201   -1.2051 H   0  0  0  0  0  0  0  0  0  0  0  0
   -1.6808   -1.2530   -1.2072 H   0  0  0  0  0  0  0  0  0  0  0  0
   -3.2953   -1.1909   -0.3683 H   0  0  0  0  0  0  0  0  0  0  0  0
   -2.3584   -0.1131    1.5690 H   0  0  0  0  0  0  0  0  0  0  0  0
   -1.5565   -1.6855    1.3053 H   0  0  0  0  0  0  0  0  0  0  0  0
    0.0371    0.0190    1.9310 H   0  0  0  0  0  0  0  0  0  0  0  0
   -0.5290    1.1301    0.6178 H   0  0  0  0  0  0  0  0  0  0  0  0
    1.6648    1.1439    0.8547 H   0  0  0  0  0  0  0  0  0  0  0  0
    2.4872    1.5810   -1.4837 H   0  0  0  0  0  0  0  0  0  0  0  0
    2.3512   -0.2526   -1.8434 H   0  0  0  0  0  0  0  0  0  0  0  0
    2.8725   -1.5433   -0.1285 H   0  0  0  0  0  0  0  0  0  0  0  0
    3.2564   -0.6335    1.4590 H   0  0  0  0  0  0  0  0  0  0  0  0
  1  2  1  0
  2  3  1  0
  3  4  1  0
  4  5  1  0
  5  6  1  0
  6  7  1  0
  7  8  1  0
  8  9  1  0
  9  6  1  0
  1 10  1  0
  1 11  1  0
  1 12  1  0
  2 13  1  0
  2 14  1  0
  3 15  1  0
  3 16  1  0
  4 17  1  0
  4 18  1  0
  6 19  1  0
  7 20  1  0
  7 21  1  0
  9 22  1  0
  9 23  1  0
M  END
