
     RDKit          3D

 23 23  0  0  0  0  0  0  0  0999 V2000
   -2.1244    1.1374   -0.2467 C   0  0  0  0  0  0  0  0  0  0  0  0
   -1.9624   -0.2007    0.4438 C   0  0  0  0  0  0  0  0  0  0  0  0
   -0.8233   -0.9922   -0.1374 C   0  0  0  0  0  0  0  0  0  0  0  0
    0.5017   -0.3367   -0.0419 C   0  0  0  0  0  0  0  0  0  0  0  0
    1.1039    0.0325    1.2874 C   0  0  0  0  0  0  0  0  0  0  0  0
    1.2983   -1.0390    2.1215 O   0  0  0  0  0  0  0  0  0  0  0  0
    1.5370   -0.8981   -1.0328 C   0  0  0  0  0  0  0  0  0  0  0  0
    1.0118    0.5201   -1.1908 C   0  0  0  0  0  0  0  0  0  0  0  0
    1.9693    1.4954   -0.9249 O   0  0  0  0  0  0  0  0  0  0  0  0
   -1.9230    1.0103   -1.3503 H   0  0  0  0  0  0  0  0  0  0  0  0
   -3.1538    1.5459   -0.0938 H   0  0  0  0  0  0  0  0  0  0  0  0
   -1.3796    1.8822    0.1106 H   0  0  0  0  0  0  0  0  0  0  0  0
   -2.8901   -0.7908    0.2895 H   0  0  0  0  0  0  0  0  0  0  0  0
   -1.8731   -0.0143    1.5182 H   0  0  0  0  0  0  0  0  0  0  0  0
   -1.0556   -1.1050   -1.2379 H   0  0  0  0  0  0  0  0  0  0  0  0
   -0.7630   -2.0174    0.2513 H   0  0  0  0  0  0  0  0  0  0  0  0
    2.0746    0.5496    1.1478 H   0  0  0  0  0  0  0  0  0  0  0  0
    0.4230    0.8096    1.7374 H   0  0  0  0  0  0  0  0  0  0  0  0
    1.0498   -0.8605    3.0585 H   0  0  0  0  0  0  0  0  0  0  0  0
    2.5689   -1.0478   -0.6874 H   0  0  0  0  0  0  0  0  0  0  0  0
    1.1860   -1.5847   -1.8201 H   0  0  0  0  0  0  0  0  0  0  0  0
    0.3623    0.7564   -2.0339 H   0  0  0  0  0  0  0  0  0  0  0  0
    2.8616    1.1478   -1.1682 H   0  0  0  0  0  0  0  0  0  0  0  0
  1  2  1  0
  2  3  1  0
  3  4  1  0
  4  5  1  0
  5  6  1  0
  4  7  1  0
  7  8  1  0
  8  9  1  0
  8  4  1  0
  1 10  1  0
  1 11  1  0
  1 12  1  0
  2 13  1  0
  2 14  1  0
  3 15  1  0
  3 16  1  0
  5 17  1  0
  5 18  1  0
  6 19  1  0
  7 20  1  0
  7 21  1  0
  8 22  1  0
  9 23  1  0
M  END
