
     RDKit          3D

 27 26  0  0  0  0  0  0  0  0999 V2000
    3.4359    0.2336   -0.4314 C   0  0  0  0  0  0  0  0  0  0  0  0
    2.8896    0.6835    0.8791 C   0  0  0  0  0  0  0  0  0  0  0  0
    1.3689    0.6847    0.9105 C   0  0  0  0  0  0  0  0  0  0  0  0
    0.8349   -0.7065    0.6535 C   0  0  0  0  0  0  0  0  0  0  0  0
   -0.6528   -0.7745    0.6714 C   0  0  0  0  0  0  0  0  0  0  0  0
   -1.0089   -2.1139    0.4210 O   0  0  0  0  0  0  0  0  0  0  0  0
   -1.2735    0.0594   -0.4513 C   0  0  0  0  0  0  0  0  0  0  0  0
   -2.7706   -0.0985   -0.3159 C   0  0  0  0  0  0  0  0  0  0  0  0
   -3.5372    0.6680   -1.3577 C   0  0  0  0  0  0  0  0  0  0  0  0
    2.6664   -0.0039   -1.1937 H   0  0  0  0  0  0  0  0  0  0  0  0
    4.1105    0.9917   -0.9027 H   0  0  0  0  0  0  0  0  0  0  0  0
    4.0545   -0.6793   -0.3167 H   0  0  0  0  0  0  0  0  0  0  0  0
    3.2904    1.6577    1.1740 H   0  0  0  0  0  0  0  0  0  0  0  0
    3.2014   -0.0481    1.6656 H   0  0  0  0  0  0  0  0  0  0  0  0
    1.0022    1.1165    1.8441 H   0  0  0  0  0  0  0  0  0  0  0  0
    1.0473    1.3448    0.0791 H   0  0  0  0  0  0  0  0  0  0  0  0
    1.2219   -1.3486    1.4688 H   0  0  0  0  0  0  0  0  0  0  0  0
    1.1962   -1.0983   -0.2985 H   0  0  0  0  0  0  0  0  0  0  0  0
   -1.1185   -0.5206    1.6424 H   0  0  0  0  0  0  0  0  0  0  0  0
   -0.7192   -2.6147    1.2435 H   0  0  0  0  0  0  0  0  0  0  0  0
   -0.9892   -0.3429   -1.4420 H   0  0  0  0  0  0  0  0  0  0  0  0
   -0.9338    1.0849   -0.3246 H   0  0  0  0  0  0  0  0  0  0  0  0
   -3.0472   -1.1725   -0.3069 H   0  0  0  0  0  0  0  0  0  0  0  0
   -3.1139    0.2973    0.6812 H   0  0  0  0  0  0  0  0  0  0  0  0
   -4.6043    0.4420   -1.2196 H   0  0  0  0  0  0  0  0  0  0  0  0
   -3.1697    0.5040   -2.3867 H   0  0  0  0  0  0  0  0  0  0  0  0
   -3.3812    1.7544   -1.1372 H   0  0  0  0  0  0  0  0  0  0  0  0
  1  2  1  0
  2  3  1  0
  3  4  1  0
  4  5  1  0
  5  6  1  0
  5  7  1  0
  7  8  1  0
  8  9  1  0
  1 10  1  0
  1 11  1  0
  1 12  1  0
  2 13  1  0
  2 14  1  0
  3 15  1  0
  3 16  1  0
  4 17  1  0
  4 18  1  0
  5 19  1  0
  6 20  1  0
  7 21  1  0
  7 22  1  0
  8 23  1  0
  8 24  1  0
  9 25  1  0
  9 26  1  0
  9 27  1  0
M  END
