
     RDKit          3D

 20 19  0  0  0  0  0  0  0  0999 V2000
   -3.3257    0.3932   -0.9600 C   0  0  0  0  0  0  0  0  0  0  0  0
   -2.3906   -0.2249    0.1473 C   0  0  0  0  0  0  0  0  0  0  0  0
   -1.0553   -0.2211   -0.2978 C   0  0  0  0  0  0  0  0  0  0  0  0
    0.0886   -0.4403    0.1915 C   0  0  0  0  0  0  0  0  0  0  0  0
    1.2157   -0.6661    0.6547 C   0  0  0  0  0  0  0  0  0  0  0  0
    2.6770   -0.9608    1.2407 C   0  0  0  0  0  0  0  0  0  0  0  0
    3.1593    0.4439    1.3955 O   0  0  0  0  0  0  0  0  0  0  0  0
    3.0892    1.0640    0.1785 C   0  0  0  0  0  0  0  0  0  0  0  0
   -4.0340    1.1150   -0.4817 H   0  0  0  0  0  0  0  0  0  0  0  0
   -2.6862    1.0121   -1.6104 H   0  0  0  0  0  0  0  0  0  0  0  0
   -3.9028   -0.3427   -1.4794 H   0  0  0  0  0  0  0  0  0  0  0  0
   -2.6981    0.2596    1.1059 H   0  0  0  0  0  0  0  0  0  0  0  0
   -2.8954   -1.2815    0.1937 H   0  0  0  0  0  0  0  0  0  0  0  0
   -0.9676    0.2561   -1.4319 H   0  0  0  0  0  0  0  0  0  0  0  0
   -1.1853   -1.4400   -0.9778 H   0  0  0  0  0  0  0  0  0  0  0  0
    2.5483   -1.2004    2.3029 H   0  0  0  0  0  0  0  0  0  0  0  0
    3.2442   -1.4211    0.5684 H   0  0  0  0  0  0  0  0  0  0  0  0
    2.0105    1.1280   -0.1810 H   0  0  0  0  0  0  0  0  0  0  0  0
    3.5882    0.4622   -0.6650 H   0  0  0  0  0  0  0  0  0  0  0  0
    3.5200    2.0648    0.1060 H   0  0  0  0  0  0  0  0  0  0  0  0
  1  2  1  0
  2  3  1  0
  3  4  1  0
  4  5  3  0
  5  6  1  0
  6  7  1  0
  7  8  1  0
  1  9  1  0
  1 10  1  0
  1 11  1  0
  2 12  1  0
  2 13  1  0
  3 14  1  0
  3 15  1  0
  6 16  1  0
  6 17  1  0
  8 18  1  0
  8 19  1  0
  8 20  1  0
M  END
