
     RDKit          3D

 25 24  0  0  0  0  0  0  0  0999 V2000
   -3.8839   -0.4754   -0.6096 C   0  0  0  0  0  0  0  0  0  0  0  0
   -2.3732   -0.4199   -0.6482 C   0  0  0  0  0  0  0  0  0  0  0  0
   -1.8990   -0.0127    0.7171 C   0  0  0  0  0  0  0  0  0  0  0  0
   -0.3790    0.0735    0.7857 C   0  0  0  0  0  0  0  0  0  0  0  0
    0.1215    0.9836   -0.0958 O   0  0  0  0  0  0  0  0  0  0  0  0
    1.4718    1.1399   -0.0592 C   0  0  0  0  0  0  0  0  0  0  0  0
    2.3255   -0.0371   -0.3602 C   0  0  0  0  0  0  0  0  0  0  0  0
    3.8141    0.3454   -0.3174 C   0  0  0  0  0  0  0  0  0  0  0  0
    2.1972   -1.1101    0.4912 O   0  0  0  0  0  0  0  0  0  0  0  0
   -4.1660   -1.5464   -0.7853 H   0  0  0  0  0  0  0  0  0  0  0  0
   -4.2920   -0.1792    0.3901 H   0  0  0  0  0  0  0  0  0  0  0  0
   -4.3634    0.1952   -1.3405 H   0  0  0  0  0  0  0  0  0  0  0  0
   -2.0977    0.3630   -1.3978 H   0  0  0  0  0  0  0  0  0  0  0  0
   -1.9152   -1.3572   -1.0081 H   0  0  0  0  0  0  0  0  0  0  0  0
   -2.2026   -0.7918    1.4478 H   0  0  0  0  0  0  0  0  0  0  0  0
   -2.3811    0.9481    0.9734 H   0  0  0  0  0  0  0  0  0  0  0  0
   -0.1237    0.3686    1.8239 H   0  0  0  0  0  0  0  0  0  0  0  0
   -0.0283   -0.9748    0.6518 H   0  0  0  0  0  0  0  0  0  0  0  0
    1.7835    1.5557    0.9515 H   0  0  0  0  0  0  0  0  0  0  0  0
    1.7651    1.9650   -0.7690 H   0  0  0  0  0  0  0  0  0  0  0  0
    2.1012   -0.3243   -1.4301 H   0  0  0  0  0  0  0  0  0  0  0  0
    4.0779    0.3674    0.7726 H   0  0  0  0  0  0  0  0  0  0  0  0
    4.3457   -0.4517   -0.8604 H   0  0  0  0  0  0  0  0  0  0  0  0
    3.9862    1.3546   -0.7082 H   0  0  0  0  0  0  0  0  0  0  0  0
    2.1155   -1.9798    0.0251 H   0  0  0  0  0  0  0  0  0  0  0  0
  1  2  1  0
  2  3  1  0
  3  4  1  0
  4  5  1  0
  5  6  1  0
  6  7  1  0
  7  8  1  0
  7  9  1  0
  1 10  1  0
  1 11  1  0
  1 12  1  0
  2 13  1  0
  2 14  1  0
  3 15  1  0
  3 16  1  0
  4 17  1  0
  4 18  1  0
  6 19  1  0
  6 20  1  0
  7 21  1  0
  8 22  1  0
  8 23  1  0
  8 24  1  0
  9 25  1  0
M  END
