
     RDKit          3D

 23 22  0  0  0  0  0  0  0  0999 V2000
   -4.1163    0.9266    0.0484 C   0  0  0  0  0  0  0  0  0  0  0  0
   -2.7099    0.6811   -0.4488 C   0  0  0  0  0  0  0  0  0  0  0  0
   -1.9651   -0.0847    0.6024 C   0  0  0  0  0  0  0  0  0  0  0  0
   -0.5982   -0.3141    0.0997 C   0  0  0  0  0  0  0  0  0  0  0  0
    0.5258   -0.4820   -0.3179 C   0  0  0  0  0  0  0  0  0  0  0  0
    1.8910   -0.6830   -0.7990 C   0  0  0  0  0  0  0  0  0  0  0  0
    2.7145   -1.4639    0.1881 C   0  0  0  0  0  0  0  0  0  0  0  0
    2.7872   -0.8050    1.4061 O   0  0  0  0  0  0  0  0  0  0  0  0
    3.3623    0.4574    1.3323 C   0  0  0  0  0  0  0  0  0  0  0  0
   -4.8495    0.2792   -0.5030 H   0  0  0  0  0  0  0  0  0  0  0  0
   -4.3501    2.0064   -0.1231 H   0  0  0  0  0  0  0  0  0  0  0  0
   -4.1667    0.7470    1.1420 H   0  0  0  0  0  0  0  0  0  0  0  0
   -2.7090    0.0999   -1.4036 H   0  0  0  0  0  0  0  0  0  0  0  0
   -2.1799    1.6509   -0.6087 H   0  0  0  0  0  0  0  0  0  0  0  0
   -1.9037    0.5512    1.5237 H   0  0  0  0  0  0  0  0  0  0  0  0
   -2.4890   -1.0324    0.8029 H   0  0  0  0  0  0  0  0  0  0  0  0
    1.8929   -1.2693   -1.7658 H   0  0  0  0  0  0  0  0  0  0  0  0
    2.3777    0.2732   -1.0606 H   0  0  0  0  0  0  0  0  0  0  0  0
    2.3486   -2.4707    0.3705 H   0  0  0  0  0  0  0  0  0  0  0  0
    3.7785   -1.5134   -0.1881 H   0  0  0  0  0  0  0  0  0  0  0  0
    3.3576    0.8630    2.3851 H   0  0  0  0  0  0  0  0  0  0  0  0
    2.6398    1.1127    0.7668 H   0  0  0  0  0  0  0  0  0  0  0  0
    4.3613    0.4701    0.8878 H   0  0  0  0  0  0  0  0  0  0  0  0
  1  2  1  0
  2  3  1  0
  3  4  1  0
  4  5  3  0
  5  6  1  0
  6  7  1  0
  7  8  1  0
  8  9  1  0
  1 10  1  0
  1 11  1  0
  1 12  1  0
  2 13  1  0
  2 14  1  0
  3 15  1  0
  3 16  1  0
  6 17  1  0
  6 18  1  0
  7 19  1  0
  7 20  1  0
  9 21  1  0
  9 22  1  0
  9 23  1  0
M  END
