
     RDKit          3D

 23 23  0  0  0  0  0  0  0  0999 V2000
    3.2595   -0.4699    0.7513 C   0  0  0  0  0  0  0  0  0  0  0  0
    1.8150   -0.6502    0.3387 C   0  0  0  0  0  0  0  0  0  0  0  0
    1.1516    0.6986    0.0705 C   0  0  0  0  0  0  0  0  0  0  0  0
   -0.2775    0.4441   -0.3334 C   0  0  0  0  0  0  0  0  0  0  0  0
   -0.4282   -0.3349   -1.4786 O   0  0  0  0  0  0  0  0  0  0  0  0
   -1.2684    1.5953   -0.2293 C   0  0  0  0  0  0  0  0  0  0  0  0
   -1.3547    0.3777    0.6780 C   0  0  0  0  0  0  0  0  0  0  0  0
   -2.5152   -0.5734    0.4090 C   0  0  0  0  0  0  0  0  0  0  0  0
   -3.4496   -0.5369    1.4316 O   0  0  0  0  0  0  0  0  0  0  0  0
    3.3615    0.1011    1.6838 H   0  0  0  0  0  0  0  0  0  0  0  0
    3.7067   -1.4844    0.8015 H   0  0  0  0  0  0  0  0  0  0  0  0
    3.7398    0.1349   -0.0722 H   0  0  0  0  0  0  0  0  0  0  0  0
    1.2362   -1.2066    1.1016 H   0  0  0  0  0  0  0  0  0  0  0  0
    1.8018   -1.1883   -0.6317 H   0  0  0  0  0  0  0  0  0  0  0  0
    1.7321    1.1723   -0.7361 H   0  0  0  0  0  0  0  0  0  0  0  0
    1.2527    1.2955    0.9765 H   0  0  0  0  0  0  0  0  0  0  0  0
   -0.4044   -1.2809   -1.1923 H   0  0  0  0  0  0  0  0  0  0  0  0
   -0.9085    2.5407    0.2469 H   0  0  0  0  0  0  0  0  0  0  0  0
   -2.0139    1.7236   -1.0264 H   0  0  0  0  0  0  0  0  0  0  0  0
   -1.0818    0.5060    1.7375 H   0  0  0  0  0  0  0  0  0  0  0  0
   -2.9841   -0.2841   -0.5706 H   0  0  0  0  0  0  0  0  0  0  0  0
   -2.0985   -1.6001    0.2917 H   0  0  0  0  0  0  0  0  0  0  0  0
   -4.2720   -0.9801    1.1104 H   0  0  0  0  0  0  0  0  0  0  0  0
  1  2  1  0
  2  3  1  0
  3  4  1  0
  4  5  1  0
  4  6  1  0
  6  7  1  0
  7  8  1  0
  8  9  1  0
  7  4  1  0
  1 10  1  0
  1 11  1  0
  1 12  1  0
  2 13  1  0
  2 14  1  0
  3 15  1  0
  3 16  1  0
  5 17  1  0
  6 18  1  0
  6 19  1  0
  7 20  1  0
  8 21  1  0
  8 22  1  0
  9 23  1  0
M  END
