
     RDKit          3D

 25 25  0  0  0  0  0  0  0  0999 V2000
    3.4765   -0.6801   -0.2891 C   0  0  0  0  0  0  0  0  0  0  0  0
    2.3682    0.1778    0.2828 C   0  0  0  0  0  0  0  0  0  0  0  0
    1.0897   -0.2559   -0.4173 C   0  0  0  0  0  0  0  0  0  0  0  0
   -0.0633    0.5787    0.1224 C   0  0  0  0  0  0  0  0  0  0  0  0
    0.1217    1.9219   -0.0956 O   0  0  0  0  0  0  0  0  0  0  0  0
   -1.2907    0.1453   -0.6929 C   0  0  0  0  0  0  0  0  0  0  0  0
   -2.4934    0.9145   -0.2368 C   0  0  0  0  0  0  0  0  0  0  0  0
   -2.9940   -0.3411    0.4480 C   0  0  0  0  0  0  0  0  0  0  0  0
   -1.8309   -1.1470   -0.1233 C   0  0  0  0  0  0  0  0  0  0  0  0
    4.3334   -0.6146    0.4069 H   0  0  0  0  0  0  0  0  0  0  0  0
    3.1200   -1.7157   -0.4313 H   0  0  0  0  0  0  0  0  0  0  0  0
    3.7053   -0.2761   -1.2940 H   0  0  0  0  0  0  0  0  0  0  0  0
    2.5138    1.2469    0.1128 H   0  0  0  0  0  0  0  0  0  0  0  0
    2.2113   -0.0168    1.3717 H   0  0  0  0  0  0  0  0  0  0  0  0
    1.1947   -0.0994   -1.4893 H   0  0  0  0  0  0  0  0  0  0  0  0
    0.8742   -1.3145   -0.1295 H   0  0  0  0  0  0  0  0  0  0  0  0
   -0.2234    0.3854    1.1904 H   0  0  0  0  0  0  0  0  0  0  0  0
    0.6792    2.3750    0.5701 H   0  0  0  0  0  0  0  0  0  0  0  0
   -1.1041    0.0981   -1.7753 H   0  0  0  0  0  0  0  0  0  0  0  0
   -3.1315    1.2701   -1.0827 H   0  0  0  0  0  0  0  0  0  0  0  0
   -2.2788    1.7515    0.4590 H   0  0  0  0  0  0  0  0  0  0  0  0
   -2.9463   -0.2932    1.5443 H   0  0  0  0  0  0  0  0  0  0  0  0
   -3.9820   -0.6226    0.0147 H   0  0  0  0  0  0  0  0  0  0  0  0
   -2.1413   -1.8675   -0.9196 H   0  0  0  0  0  0  0  0  0  0  0  0
   -1.2083   -1.6208    0.6609 H   0  0  0  0  0  0  0  0  0  0  0  0
  1  2  1  0
  2  3  1  0
  3  4  1  0
  4  5  1  0
  4  6  1  0
  6  7  1  0
  7  8  1  0
  8  9  1  0
  9  6  1  0
  1 10  1  0
  1 11  1  0
  1 12  1  0
  2 13  1  0
  2 14  1  0
  3 15  1  0
  3 16  1  0
  4 17  1  0
  5 18  1  0
  6 19  1  0
  7 20  1  0
  7 21  1  0
  8 22  1  0
  8 23  1  0
  9 24  1  0
  9 25  1  0
M  END
