
     RDKit          3D

 25 25  0  0  0  0  0  0  0  0999 V2000
    3.1391    0.8804   -0.5673 C   0  0  0  0  0  0  0  0  0  0  0  0
    1.9473    0.2786    0.1751 C   0  0  0  0  0  0  0  0  0  0  0  0
    1.0450   -0.4216   -0.8074 C   0  0  0  0  0  0  0  0  0  0  0  0
   -0.1521   -1.0455   -0.2376 C   0  0  0  0  0  0  0  0  0  0  0  0
   -1.2022   -0.3105    0.4090 C   0  0  0  0  0  0  0  0  0  0  0  0
   -2.3010   -1.2484    0.9213 C   0  0  0  0  0  0  0  0  0  0  0  0
   -1.9414    0.7508   -0.4360 C   0  0  0  0  0  0  0  0  0  0  0  0
   -2.4751    1.1059    0.8400 O   0  0  0  0  0  0  0  0  0  0  0  0
   -1.1026    0.8884    1.2359 C   0  0  0  0  0  0  0  0  0  0  0  0
    3.3778    0.2064   -1.3939 H   0  0  0  0  0  0  0  0  0  0  0  0
    2.7992    1.8537   -0.9558 H   0  0  0  0  0  0  0  0  0  0  0  0
    3.9406    1.0061    0.1774 H   0  0  0  0  0  0  0  0  0  0  0  0
    1.4881    0.9757    0.8529 H   0  0  0  0  0  0  0  0  0  0  0  0
    2.4141   -0.5233    0.8243 H   0  0  0  0  0  0  0  0  0  0  0  0
    0.8616    0.3244   -1.6104 H   0  0  0  0  0  0  0  0  0  0  0  0
    1.6513   -1.2175   -1.3421 H   0  0  0  0  0  0  0  0  0  0  0  0
    0.2160   -1.8429    0.4957 H   0  0  0  0  0  0  0  0  0  0  0  0
   -0.6320   -1.7153   -1.0313 H   0  0  0  0  0  0  0  0  0  0  0  0
   -1.8324   -1.8757    1.7086 H   0  0  0  0  0  0  0  0  0  0  0  0
   -2.5914   -1.9199    0.0865 H   0  0  0  0  0  0  0  0  0  0  0  0
   -3.1463   -0.6639    1.2851 H   0  0  0  0  0  0  0  0  0  0  0  0
   -2.6608    0.3598   -1.1441 H   0  0  0  0  0  0  0  0  0  0  0  0
   -1.2317    1.5246   -0.7255 H   0  0  0  0  0  0  0  0  0  0  0  0
   -0.6241    1.8219    0.8089 H   0  0  0  0  0  0  0  0  0  0  0  0
   -0.9870    0.8075    2.3216 H   0  0  0  0  0  0  0  0  0  0  0  0
  1  2  1  0
  2  3  1  0
  3  4  1  0
  4  5  1  0
  5  6  1  0
  5  7  1  0
  7  8  1  0
  8  9  1  0
  9  5  1  0
  1 10  1  0
  1 11  1  0
  1 12  1  0
  2 13  1  0
  2 14  1  0
  3 15  1  0
  3 16  1  0
  4 17  1  0
  4 18  1  0
  6 19  1  0
  6 20  1  0
  6 21  1  0
  7 22  1  0
  7 23  1  0
  9 24  1  0
  9 25  1  0
M  END
