
     RDKit          3D

 23 23  0  0  0  0  0  0  0  0999 V2000
   -3.1493   -0.4891    0.3570 C   0  0  0  0  0  0  0  0  0  0  0  0
   -1.9178   -0.1601   -0.4936 C   0  0  0  0  0  0  0  0  0  0  0  0
   -0.8109    0.1741    0.4528 C   0  0  0  0  0  0  0  0  0  0  0  0
    0.4799    0.5240   -0.2136 C   0  0  0  0  0  0  0  0  0  0  0  0
    0.3307    1.6285   -1.0390 O   0  0  0  0  0  0  0  0  0  0  0  0
    1.5765    0.6776    0.8438 C   0  0  0  0  0  0  0  0  0  0  0  0
    2.1502   -0.6619    0.4318 C   0  0  0  0  0  0  0  0  0  0  0  0
    3.5201   -0.5104    0.1828 O   0  0  0  0  0  0  0  0  0  0  0  0
    1.2723   -0.6135   -0.7851 C   0  0  0  0  0  0  0  0  0  0  0  0
   -3.8487    0.3757    0.3861 H   0  0  0  0  0  0  0  0  0  0  0  0
   -3.6550   -1.3995    0.0010 H   0  0  0  0  0  0  0  0  0  0  0  0
   -2.8614   -0.6796    1.4164 H   0  0  0  0  0  0  0  0  0  0  0  0
   -1.7173   -1.0088   -1.1480 H   0  0  0  0  0  0  0  0  0  0  0  0
   -2.1575    0.7713   -1.0657 H   0  0  0  0  0  0  0  0  0  0  0  0
   -1.1404    1.0902    1.0247 H   0  0  0  0  0  0  0  0  0  0  0  0
   -0.6689   -0.6057    1.2459 H   0  0  0  0  0  0  0  0  0  0  0  0
    0.8731    1.4604   -1.8705 H   0  0  0  0  0  0  0  0  0  0  0  0
    1.2252    0.6635    1.8781 H   0  0  0  0  0  0  0  0  0  0  0  0
    2.2273    1.5447    0.6157 H   0  0  0  0  0  0  0  0  0  0  0  0
    1.8955   -1.5067    1.1035 H   0  0  0  0  0  0  0  0  0  0  0  0
    3.7972   -0.9575   -0.6456 H   0  0  0  0  0  0  0  0  0  0  0  0
    1.8730   -0.2526   -1.6628 H   0  0  0  0  0  0  0  0  0  0  0  0
    0.7060   -1.5362   -1.0156 H   0  0  0  0  0  0  0  0  0  0  0  0
  1  2  1  0
  2  3  1  0
  3  4  1  0
  4  5  1  0
  4  6  1  0
  6  7  1  0
  7  8  1  0
  7  9  1  0
  9  4  1  0
  1 10  1  0
  1 11  1  0
  1 12  1  0
  2 13  1  0
  2 14  1  0
  3 15  1  0
  3 16  1  0
  5 17  1  0
  6 18  1  0
  6 19  1  0
  7 20  1  0
  8 21  1  0
  9 22  1  0
  9 23  1  0
M  END
