
     RDKit          3D

 23 23  0  0  0  0  0  0  0  0999 V2000
    2.6862   -0.3352    0.2640 C   0  0  0  0  0  0  0  0  0  0  0  0
    1.8385    0.7668    0.7950 C   0  0  0  0  0  0  0  0  0  0  0  0
    0.6406    1.1452    0.0242 C   0  0  0  0  0  0  0  0  0  0  0  0
   -0.4314    0.1600   -0.1961 C   0  0  0  0  0  0  0  0  0  0  0  0
   -0.0117   -1.0726   -0.9485 C   0  0  0  0  0  0  0  0  0  0  0  0
   -1.0273   -0.2427    1.0132 O   0  0  0  0  0  0  0  0  0  0  0  0
   -2.2864   -0.7012    0.5579 C   0  0  0  0  0  0  0  0  0  0  0  0
   -2.6584    0.4520   -0.3486 C   0  0  0  0  0  0  0  0  0  0  0  0
   -1.4543    0.7723   -0.9241 O   0  0  0  0  0  0  0  0  0  0  0  0
    2.2958   -1.3435    0.3274 H   0  0  0  0  0  0  0  0  0  0  0  0
    3.6541   -0.3630    0.8663 H   0  0  0  0  0  0  0  0  0  0  0  0
    2.9770   -0.0860   -0.7842 H   0  0  0  0  0  0  0  0  0  0  0  0
    2.5159    1.6807    0.8008 H   0  0  0  0  0  0  0  0  0  0  0  0
    1.5941    0.6427    1.8792 H   0  0  0  0  0  0  0  0  0  0  0  0
    0.1580    2.0381    0.5376 H   0  0  0  0  0  0  0  0  0  0  0  0
    0.9744    1.5877   -0.9660 H   0  0  0  0  0  0  0  0  0  0  0  0
    0.8931   -0.8796   -1.5391 H   0  0  0  0  0  0  0  0  0  0  0  0
   -0.8163   -1.3758   -1.6740 H   0  0  0  0  0  0  0  0  0  0  0  0
    0.0834   -1.9204   -0.2200 H   0  0  0  0  0  0  0  0  0  0  0  0
   -2.9917   -0.8279    1.3961 H   0  0  0  0  0  0  0  0  0  0  0  0
   -2.1700   -1.6035   -0.0695 H   0  0  0  0  0  0  0  0  0  0  0  0
   -3.4508    0.1708   -1.0801 H   0  0  0  0  0  0  0  0  0  0  0  0
   -3.0127    1.3352    0.2572 H   0  0  0  0  0  0  0  0  0  0  0  0
  1  2  1  0
  2  3  1  0
  3  4  1  0
  4  5  1  0
  4  6  1  0
  6  7  1  0
  7  8  1  0
  8  9  1  0
  9  4  1  0
  1 10  1  0
  1 11  1  0
  1 12  1  0
  2 13  1  0
  2 14  1  0
  3 15  1  0
  3 16  1  0
  5 17  1  0
  5 18  1  0
  5 19  1  0
  7 20  1  0
  7 21  1  0
  8 22  1  0
  8 23  1  0
M  END
