
     RDKit          3D

 26 25  0  0  0  0  0  0  0  0999 V2000
    3.1017    0.3164    0.4440 C   0  0  0  0  0  0  0  0  0  0  0  0
    2.2582    0.4248   -0.7819 C   0  0  0  0  0  0  0  0  0  0  0  0
    0.9264   -0.2851   -0.6606 C   0  0  0  0  0  0  0  0  0  0  0  0
    0.1620    0.3285    0.4898 C   0  0  0  0  0  0  0  0  0  0  0  0
   -1.1799   -0.2998    0.7039 C   0  0  0  0  0  0  0  0  0  0  0  0
   -0.9993   -1.7570    0.9994 C   0  0  0  0  0  0  0  0  0  0  0  0
   -2.1295   -0.1220   -0.4458 C   0  0  0  0  0  0  0  0  0  0  0  0
   -2.3965    1.3402   -0.7277 C   0  0  0  0  0  0  0  0  0  0  0  0
    3.2220    1.3305    0.9268 H   0  0  0  0  0  0  0  0  0  0  0  0
    2.7236   -0.3491    1.2183 H   0  0  0  0  0  0  0  0  0  0  0  0
    4.1435   -0.0358    0.2032 H   0  0  0  0  0  0  0  0  0  0  0  0
    2.8384    0.0032   -1.6378 H   0  0  0  0  0  0  0  0  0  0  0  0
    2.0267    1.4919   -1.0280 H   0  0  0  0  0  0  0  0  0  0  0  0
    0.4002   -0.1542   -1.6274 H   0  0  0  0  0  0  0  0  0  0  0  0
    1.0557   -1.3828   -0.5260 H   0  0  0  0  0  0  0  0  0  0  0  0
    0.1299    1.4132    0.3166 H   0  0  0  0  0  0  0  0  0  0  0  0
    0.7551    0.1504    1.4113 H   0  0  0  0  0  0  0  0  0  0  0  0
   -1.6388    0.2003    1.5822 H   0  0  0  0  0  0  0  0  0  0  0  0
   -1.7012   -2.0597    1.8070 H   0  0  0  0  0  0  0  0  0  0  0  0
    0.0419   -2.0301    1.1843 H   0  0  0  0  0  0  0  0  0  0  0  0
   -1.3360   -2.3436    0.0961 H   0  0  0  0  0  0  0  0  0  0  0  0
   -3.0924   -0.5871   -0.1449 H   0  0  0  0  0  0  0  0  0  0  0  0
   -1.8116   -0.6267   -1.3683 H   0  0  0  0  0  0  0  0  0  0  0  0
   -3.2874    1.3659   -1.4132 H   0  0  0  0  0  0  0  0  0  0  0  0
   -1.5294    1.8141   -1.2335 H   0  0  0  0  0  0  0  0  0  0  0  0
   -2.6830    1.8536    0.2122 H   0  0  0  0  0  0  0  0  0  0  0  0
  1  2  1  0
  2  3  1  0
  3  4  1  0
  4  5  1  0
  5  6  1  0
  5  7  1  0
  7  8  1  0
  1  9  1  0
  1 10  1  0
  1 11  1  0
  2 12  1  0
  2 13  1  0
  3 14  1  0
  3 15  1  0
  4 16  1  0
  4 17  1  0
  5 18  1  0
  6 19  1  0
  6 20  1  0
  6 21  1  0
  7 22  1  0
  7 23  1  0
  8 24  1  0
  8 25  1  0
  8 26  1  0
M  END
