
     RDKit          3D

 20 20  0  0  0  0  0  0  0  0999 V2000
    2.2701    0.8539    0.9756 C   0  0  0  0  0  0  0  0  0  0  0  0
    1.8986   -0.4512    0.3632 C   0  0  0  0  0  0  0  0  0  0  0  0
    0.5075   -0.9031    0.6883 C   0  0  0  0  0  0  0  0  0  0  0  0
   -0.5599    0.0430    0.2364 C   0  0  0  0  0  0  0  0  0  0  0  0
   -1.9755   -0.4525    0.5868 C   0  0  0  0  0  0  0  0  0  0  0  0
   -1.5043   -0.2776   -0.8524 C   0  0  0  0  0  0  0  0  0  0  0  0
   -2.0637    0.8637   -1.6123 C   0  0  0  0  0  0  0  0  0  0  0  0
   -2.3438    0.7502   -2.7848 O   0  0  0  0  0  0  0  0  0  0  0  0
    1.9054    0.9285    2.0313 H   0  0  0  0  0  0  0  0  0  0  0  0
    3.3904    0.9197    0.9705 H   0  0  0  0  0  0  0  0  0  0  0  0
    1.8507    1.6778    0.3676 H   0  0  0  0  0  0  0  0  0  0  0  0
    1.9963   -0.3653   -0.7451 H   0  0  0  0  0  0  0  0  0  0  0  0
    2.6075   -1.2236    0.7273 H   0  0  0  0  0  0  0  0  0  0  0  0
    0.4425   -1.0094    1.7999 H   0  0  0  0  0  0  0  0  0  0  0  0
    0.3813   -1.9288    0.2837 H   0  0  0  0  0  0  0  0  0  0  0  0
   -0.3734    1.1168    0.4370 H   0  0  0  0  0  0  0  0  0  0  0  0
   -2.1043   -1.4608    0.9765 H   0  0  0  0  0  0  0  0  0  0  0  0
   -2.7090    0.3003    0.9226 H   0  0  0  0  0  0  0  0  0  0  0  0
   -1.3824   -1.2012   -1.4676 H   0  0  0  0  0  0  0  0  0  0  0  0
   -2.2341    1.8194   -1.1405 H   0  0  0  0  0  0  0  0  0  0  0  0
  1  2  1  0
  2  3  1  0
  3  4  1  0
  4  5  1  0
  5  6  1  0
  6  7  1  0
  7  8  2  0
  6  4  1  0
  1  9  1  0
  1 10  1  0
  1 11  1  0
  2 12  1  0
  2 13  1  0
  3 14  1  0
  3 15  1  0
  4 16  1  0
  5 17  1  0
  5 18  1  0
  6 19  1  0
  7 20  1  0
M  END
