
     RDKit          3D

 23 22  0  0  0  0  0  0  0  0999 V2000
    2.4031   -0.2934    0.7265 C   0  0  0  0  0  0  0  0  0  0  0  0
    1.7599    0.4085   -0.4313 C   0  0  0  0  0  0  0  0  0  0  0  0
    0.4382   -0.1035   -0.8611 C   0  0  0  0  0  0  0  0  0  0  0  0
   -0.6947   -0.0839    0.0567 C   0  0  0  0  0  0  0  0  0  0  0  0
   -1.9036   -0.6569   -0.7371 C   0  0  0  0  0  0  0  0  0  0  0  0
   -0.5121   -1.0917    1.1994 C   0  0  0  0  0  0  0  0  0  0  0  0
   -1.0928    1.0980    0.6174 O   0  0  0  0  0  0  0  0  0  0  0  0
   -1.5211    2.2137   -0.0743 C   0  0  0  0  0  0  0  0  0  0  0  0
   -1.5215    2.0639   -1.3245 O   0  0  0  0  0  0  0  0  0  0  0  0
    3.5350   -0.3081    0.5636 H   0  0  0  0  0  0  0  0  0  0  0  0
    2.1998    0.2740    1.6704 H   0  0  0  0  0  0  0  0  0  0  0  0
    2.0541   -1.3268    0.9019 H   0  0  0  0  0  0  0  0  0  0  0  0
    1.7232    1.5070   -0.1687 H   0  0  0  0  0  0  0  0  0  0  0  0
    2.4941    0.2977   -1.2958 H   0  0  0  0  0  0  0  0  0  0  0  0
    0.1380    0.3019   -1.8792 H   0  0  0  0  0  0  0  0  0  0  0  0
    0.6110   -1.2020   -1.1223 H   0  0  0  0  0  0  0  0  0  0  0  0
   -1.8699   -0.2818   -1.7760 H   0  0  0  0  0  0  0  0  0  0  0  0
   -1.9101   -1.7439   -0.6717 H   0  0  0  0  0  0  0  0  0  0  0  0
   -2.8478   -0.2745   -0.2833 H   0  0  0  0  0  0  0  0  0  0  0  0
   -0.1650   -2.0622    0.8405 H   0  0  0  0  0  0  0  0  0  0  0  0
    0.0650   -0.6269    2.0091 H   0  0  0  0  0  0  0  0  0  0  0  0
   -1.5640   -1.2177    1.6027 H   0  0  0  0  0  0  0  0  0  0  0  0
   -1.8188    3.1088    0.4371 H   0  0  0  0  0  0  0  0  0  0  0  0
  1  2  1  0
  2  3  1  0
  3  4  1  0
  4  5  1  0
  4  6  1  0
  4  7  1  0
  7  8  1  0
  8  9  2  0
  1 10  1  0
  1 11  1  0
  1 12  1  0
  2 13  1  0
  2 14  1  0
  3 15  1  0
  3 16  1  0
  5 17  1  0
  5 18  1  0
  5 19  1  0
  6 20  1  0
  6 21  1  0
  6 22  1  0
  8 23  1  0
M  END
