
     RDKit          3D

 24 24  0  0  0  0  0  0  0  0999 V2000
    3.2203    1.0512    0.5841 C   0  0  0  0  0  0  0  0  0  0  0  0
    2.5071   -0.1355   -0.0234 C   0  0  0  0  0  0  0  0  0  0  0  0
    1.0307   -0.0373    0.2865 C   0  0  0  0  0  0  0  0  0  0  0  0
    0.2929   -1.2089   -0.3076 C   0  0  0  0  0  0  0  0  0  0  0  0
   -1.1732   -1.1815   -0.0434 C   0  0  0  0  0  0  0  0  0  0  0  0
   -1.8426    0.0566   -0.6092 C   0  0  0  0  0  0  0  0  0  0  0  0
   -3.3614    0.1714   -0.3838 C   0  0  0  0  0  0  0  0  0  0  0  0
   -2.3904    0.9947    0.4321 C   0  0  0  0  0  0  0  0  0  0  0  0
    3.6656    0.7845    1.5786 H   0  0  0  0  0  0  0  0  0  0  0  0
    4.0719    1.3152   -0.0623 H   0  0  0  0  0  0  0  0  0  0  0  0
    2.5547    1.9303    0.7077 H   0  0  0  0  0  0  0  0  0  0  0  0
    2.7028   -0.1405   -1.1063 H   0  0  0  0  0  0  0  0  0  0  0  0
    2.9155   -1.0390    0.4731 H   0  0  0  0  0  0  0  0  0  0  0  0
    0.6016    0.9291    0.0271 H   0  0  0  0  0  0  0  0  0  0  0  0
    0.9398   -0.1382    1.4031 H   0  0  0  0  0  0  0  0  0  0  0  0
    0.4515   -1.2122   -1.3987 H   0  0  0  0  0  0  0  0  0  0  0  0
    0.6897   -2.1686    0.0810 H   0  0  0  0  0  0  0  0  0  0  0  0
   -1.4292   -1.3090    1.0291 H   0  0  0  0  0  0  0  0  0  0  0  0
   -1.6290   -2.0466   -0.5691 H   0  0  0  0  0  0  0  0  0  0  0  0
   -1.4298    0.4722   -1.5469 H   0  0  0  0  0  0  0  0  0  0  0  0
   -3.9372    0.7188   -1.1707 H   0  0  0  0  0  0  0  0  0  0  0  0
   -3.8461   -0.6485    0.1759 H   0  0  0  0  0  0  0  0  0  0  0  0
   -2.3699    2.0915    0.2458 H   0  0  0  0  0  0  0  0  0  0  0  0
   -2.2354    0.7502    1.5008 H   0  0  0  0  0  0  0  0  0  0  0  0
  1  2  1  0
  2  3  1  0
  3  4  1  0
  4  5  1  0
  5  6  1  0
  6  7  1  0
  7  8  1  0
  8  6  1  0
  1  9  1  0
  1 10  1  0
  1 11  1  0
  2 12  1  0
  2 13  1  0
  3 14  1  0
  3 15  1  0
  4 16  1  0
  4 17  1  0
  5 18  1  0
  5 19  1  0
  6 20  1  0
  7 21  1  0
  7 22  1  0
  8 23  1  0
  8 24  1  0
M  END
