
     RDKit          3D

 21 21  0  0  0  0  0  0  0  0999 V2000
   -2.7437    0.2249    0.6004 C   0  0  0  0  0  0  0  0  0  0  0  0
   -1.2502    0.5080    0.3548 C   0  0  0  0  0  0  0  0  0  0  0  0
   -0.5438   -0.7380    0.0213 C   0  0  0  0  0  0  0  0  0  0  0  0
    0.9008   -0.6751   -0.2510 C   0  0  0  0  0  0  0  0  0  0  0  0
    1.4221   -1.9628   -0.5546 O   0  0  0  0  0  0  0  0  0  0  0  0
    1.4826    0.3336   -1.1266 C   0  0  0  0  0  0  0  0  0  0  0  0
    1.7920    1.1518    0.0908 C   0  0  0  0  0  0  0  0  0  0  0  0
    1.6638   -0.0950    0.8864 C   0  0  0  0  0  0  0  0  0  0  0  0
    2.0190   -0.4912    1.9877 O   0  0  0  0  0  0  0  0  0  0  0  0
   -3.0584   -0.5646   -0.1283 H   0  0  0  0  0  0  0  0  0  0  0  0
   -3.3095    1.1488    0.4758 H   0  0  0  0  0  0  0  0  0  0  0  0
   -2.8871   -0.2092    1.6071 H   0  0  0  0  0  0  0  0  0  0  0  0
   -1.2227    1.3105   -0.3723 H   0  0  0  0  0  0  0  0  0  0  0  0
   -0.9107    0.9454    1.3341 H   0  0  0  0  0  0  0  0  0  0  0  0
   -1.0501   -1.1893   -0.8830 H   0  0  0  0  0  0  0  0  0  0  0  0
   -0.7380   -1.4807    0.8357 H   0  0  0  0  0  0  0  0  0  0  0  0
    1.2761   -2.5330    0.2345 H   0  0  0  0  0  0  0  0  0  0  0  0
    2.4602   -0.0032   -1.5749 H   0  0  0  0  0  0  0  0  0  0  0  0
    0.8802    0.8146   -1.9076 H   0  0  0  0  0  0  0  0  0  0  0  0
    0.9977    1.9153    0.2761 H   0  0  0  0  0  0  0  0  0  0  0  0
    2.8197    1.5892    0.1107 H   0  0  0  0  0  0  0  0  0  0  0  0
  1  2  1  0
  2  3  1  0
  3  4  1  0
  4  5  1  0
  4  6  1  0
  6  7  1  0
  7  8  1  0
  8  9  2  0
  8  4  1  0
  1 10  1  0
  1 11  1  0
  1 12  1  0
  2 13  1  0
  2 14  1  0
  3 15  1  0
  3 16  1  0
  5 17  1  0
  6 18  1  0
  6 19  1  0
  7 20  1  0
  7 21  1  0
M  END
