
     RDKit          3D

 22 22  0  0  0  0  0  0  0  0999 V2000
   -2.3133    0.4915   -1.0491 C   0  0  0  0  0  0  0  0  0  0  0  0
   -2.1119   -0.9097   -0.4992 C   0  0  0  0  0  0  0  0  0  0  0  0
   -0.8206   -0.9963    0.2828 C   0  0  0  0  0  0  0  0  0  0  0  0
    0.3849   -0.6737   -0.5349 C   0  0  0  0  0  0  0  0  0  0  0  0
    0.5533    0.5357   -1.1449 O   0  0  0  0  0  0  0  0  0  0  0  0
    1.3531    0.3347   -0.0224 C   0  0  0  0  0  0  0  0  0  0  0  0
    2.7987    0.0035   -0.1763 C   0  0  0  0  0  0  0  0  0  0  0  0
    0.9930    1.2182    1.1386 C   0  0  0  0  0  0  0  0  0  0  0  0
   -3.4050    0.7197   -1.1820 H   0  0  0  0  0  0  0  0  0  0  0  0
   -1.9150    1.2617   -0.3858 H   0  0  0  0  0  0  0  0  0  0  0  0
   -1.8898    0.5359   -2.0843 H   0  0  0  0  0  0  0  0  0  0  0  0
   -2.9709   -1.1016    0.1760 H   0  0  0  0  0  0  0  0  0  0  0  0
   -2.1690   -1.6646   -1.3002 H   0  0  0  0  0  0  0  0  0  0  0  0
   -0.8611   -0.3013    1.1446 H   0  0  0  0  0  0  0  0  0  0  0  0
   -0.7475   -2.0202    0.7028 H   0  0  0  0  0  0  0  0  0  0  0  0
    0.7993   -1.5392   -1.1013 H   0  0  0  0  0  0  0  0  0  0  0  0
    3.3352    0.6485   -0.8994 H   0  0  0  0  0  0  0  0  0  0  0  0
    2.9356   -1.0888   -0.4254 H   0  0  0  0  0  0  0  0  0  0  0  0
    3.2962    0.1337    0.8055 H   0  0  0  0  0  0  0  0  0  0  0  0
    1.8760    1.8466    1.3897 H   0  0  0  0  0  0  0  0  0  0  0  0
    0.7145    0.6457    2.0467 H   0  0  0  0  0  0  0  0  0  0  0  0
    0.1643    1.9202    0.9072 H   0  0  0  0  0  0  0  0  0  0  0  0
  1  2  1  0
  2  3  1  0
  3  4  1  0
  4  5  1  0
  5  6  1  0
  6  7  1  0
  6  8  1  0
  6  4  1  0
  1  9  1  0
  1 10  1  0
  1 11  1  0
  2 12  1  0
  2 13  1  0
  3 14  1  0
  3 15  1  0
  4 16  1  0
  7 17  1  0
  7 18  1  0
  7 19  1  0
  8 20  1  0
  8 21  1  0
  8 22  1  0
M  END
