
     RDKit          3D

 21 22  0  0  0  0  0  0  0  0999 V2000
   -2.9469   -0.1506    0.2477 C   0  0  0  0  0  0  0  0  0  0  0  0
   -1.5996   -0.6643   -0.2744 C   0  0  0  0  0  0  0  0  0  0  0  0
   -0.5720    0.3594    0.1086 C   0  0  0  0  0  0  0  0  0  0  0  0
    0.8161    0.0118   -0.3292 C   0  0  0  0  0  0  0  0  0  0  0  0
    1.0304   -0.1463   -1.6690 O   0  0  0  0  0  0  0  0  0  0  0  0
    1.8080    0.9650    0.3781 C   0  0  0  0  0  0  0  0  0  0  0  0
    2.7434   -0.1784    0.0444 C   0  0  0  0  0  0  0  0  0  0  0  0
    2.7534   -1.3984    0.5471 O   0  0  0  0  0  0  0  0  0  0  0  0
    1.5090   -0.9651    0.5955 C   0  0  0  0  0  0  0  0  0  0  0  0
   -3.6930   -0.9668    0.3012 H   0  0  0  0  0  0  0  0  0  0  0  0
   -2.8210    0.3557    1.2247 H   0  0  0  0  0  0  0  0  0  0  0  0
   -3.3693    0.5993   -0.4786 H   0  0  0  0  0  0  0  0  0  0  0  0
   -1.4334   -1.6589    0.1500 H   0  0  0  0  0  0  0  0  0  0  0  0
   -1.7192   -0.7321   -1.3767 H   0  0  0  0  0  0  0  0  0  0  0  0
   -0.6148    0.4962    1.1945 H   0  0  0  0  0  0  0  0  0  0  0  0
   -0.8792    1.3223   -0.3641 H   0  0  0  0  0  0  0  0  0  0  0  0
    1.3300    0.6961   -2.1285 H   0  0  0  0  0  0  0  0  0  0  0  0
    1.5477    1.0732    1.4369 H   0  0  0  0  0  0  0  0  0  0  0  0
    2.0267    1.8664   -0.1816 H   0  0  0  0  0  0  0  0  0  0  0  0
    2.8590   -0.2076   -1.0863 H   0  0  0  0  0  0  0  0  0  0  0  0
    1.2249   -0.6768    1.6597 H   0  0  0  0  0  0  0  0  0  0  0  0
  1  2  1  0
  2  3  1  0
  3  4  1  0
  4  5  1  0
  4  6  1  0
  6  7  1  0
  7  8  1  0
  8  9  1  0
  9  4  1  0
  9  7  1  0
  1 10  1  0
  1 11  1  0
  1 12  1  0
  2 13  1  0
  2 14  1  0
  3 15  1  0
  3 16  1  0
  5 17  1  0
  6 18  1  0
  6 19  1  0
  7 20  1  0
  9 21  1  0
M  END
