
     RDKit          3D

 25 25  0  0  0  0  0  0  0  0999 V2000
    2.8633    0.6215    0.7342 C   0  0  0  0  0  0  0  0  0  0  0  0
    2.3277   -0.7585    0.4759 C   0  0  0  0  0  0  0  0  0  0  0  0
    1.3762   -0.8033   -0.6943 C   0  0  0  0  0  0  0  0  0  0  0  0
    0.1835    0.0866   -0.4776 C   0  0  0  0  0  0  0  0  0  0  0  0
   -0.7203   -0.0115   -1.6879 C   0  0  0  0  0  0  0  0  0  0  0  0
   -2.0048    0.4810   -1.1360 C   0  0  0  0  0  0  0  0  0  0  0  0
   -2.0310    0.2265    0.1637 C   0  0  0  0  0  0  0  0  0  0  0  0
   -3.1697    0.5800    1.0556 C   0  0  0  0  0  0  0  0  0  0  0  0
   -0.7544   -0.4559    0.5819 C   0  0  0  0  0  0  0  0  0  0  0  0
    2.1059    1.3989    0.8177 H   0  0  0  0  0  0  0  0  0  0  0  0
    3.4005    0.5665    1.7261 H   0  0  0  0  0  0  0  0  0  0  0  0
    3.6623    0.8534   -0.0231 H   0  0  0  0  0  0  0  0  0  0  0  0
    3.2012   -1.3957    0.2002 H   0  0  0  0  0  0  0  0  0  0  0  0
    1.8729   -1.1360    1.4035 H   0  0  0  0  0  0  0  0  0  0  0  0
    1.9132   -0.4250   -1.5884 H   0  0  0  0  0  0  0  0  0  0  0  0
    1.0164   -1.8347   -0.8590 H   0  0  0  0  0  0  0  0  0  0  0  0
    0.4310    1.1357   -0.3163 H   0  0  0  0  0  0  0  0  0  0  0  0
   -0.3357    0.6138   -2.5071 H   0  0  0  0  0  0  0  0  0  0  0  0
   -0.7717   -1.0875   -1.9553 H   0  0  0  0  0  0  0  0  0  0  0  0
   -2.7871    0.9703   -1.7221 H   0  0  0  0  0  0  0  0  0  0  0  0
   -4.0125   -0.1464    0.9027 H   0  0  0  0  0  0  0  0  0  0  0  0
   -3.5123    1.6284    0.8582 H   0  0  0  0  0  0  0  0  0  0  0  0
   -2.8545    0.5575    2.1223 H   0  0  0  0  0  0  0  0  0  0  0  0
   -0.8845   -1.5355    0.4462 H   0  0  0  0  0  0  0  0  0  0  0  0
   -0.5155   -0.1302    1.5912 H   0  0  0  0  0  0  0  0  0  0  0  0
  1  2  1  0
  2  3  1  0
  3  4  1  0
  4  5  1  0
  5  6  1  0
  6  7  2  0
  7  8  1  0
  7  9  1  0
  9  4  1  0
  1 10  1  0
  1 11  1  0
  1 12  1  0
  2 13  1  0
  2 14  1  0
  3 15  1  0
  3 16  1  0
  4 17  1  0
  5 18  1  0
  5 19  1  0
  6 20  1  0
  8 21  1  0
  8 22  1  0
  8 23  1  0
  9 24  1  0
  9 25  1  0
M  END
