
     RDKit          3D

 25 24  0  0  0  0  0  0  0  0999 V2000
    2.7463    1.0157   -0.2726 C   0  0  0  0  0  0  0  0  0  0  0  0
    1.4096    0.6606    0.3961 C   0  0  0  0  0  0  0  0  0  0  0  0
    0.8489   -0.4952   -0.3454 C   0  0  0  0  0  0  0  0  0  0  0  0
   -0.4493   -1.0313    0.1198 C   0  0  0  0  0  0  0  0  0  0  0  0
   -0.4451   -1.5229    1.5397 C   0  0  0  0  0  0  0  0  0  0  0  0
   -1.6199   -0.1203   -0.1561 C   0  0  0  0  0  0  0  0  0  0  0  0
   -1.7794    0.1459   -1.6284 C   0  0  0  0  0  0  0  0  0  0  0  0
   -1.5671    1.1664    0.5612 C   0  0  0  0  0  0  0  0  0  0  0  0
   -1.8242    2.2177    0.0008 O   0  0  0  0  0  0  0  0  0  0  0  0
    3.1910    0.1117   -0.7450 H   0  0  0  0  0  0  0  0  0  0  0  0
    3.4886    1.3462    0.5030 H   0  0  0  0  0  0  0  0  0  0  0  0
    2.5713    1.8050   -1.0301 H   0  0  0  0  0  0  0  0  0  0  0  0
    1.6771    0.3300    1.4421 H   0  0  0  0  0  0  0  0  0  0  0  0
    0.8292    1.5799    0.3840 H   0  0  0  0  0  0  0  0  0  0  0  0
    0.6990   -0.1540   -1.4127 H   0  0  0  0  0  0  0  0  0  0  0  0
    1.6163   -1.3007   -0.4262 H   0  0  0  0  0  0  0  0  0  0  0  0
   -0.6565   -1.9493   -0.5121 H   0  0  0  0  0  0  0  0  0  0  0  0
   -0.3102   -2.6219    1.6115 H   0  0  0  0  0  0  0  0  0  0  0  0
   -1.4328   -1.3007    2.0247 H   0  0  0  0  0  0  0  0  0  0  0  0
    0.3783   -1.0774    2.1508 H   0  0  0  0  0  0  0  0  0  0  0  0
   -2.5264   -0.7075    0.1846 H   0  0  0  0  0  0  0  0  0  0  0  0
   -2.8587    0.2661   -1.8278 H   0  0  0  0  0  0  0  0  0  0  0  0
   -1.2790    1.0975   -1.9038 H   0  0  0  0  0  0  0  0  0  0  0  0
   -1.4093   -0.6704   -2.2665 H   0  0  0  0  0  0  0  0  0  0  0  0
   -1.2975    1.2090    1.6084 H   0  0  0  0  0  0  0  0  0  0  0  0
  1  2  1  0
  2  3  1  0
  3  4  1  0
  4  5  1  0
  4  6  1  0
  6  7  1  0
  6  8  1  0
  8  9  2  0
  1 10  1  0
  1 11  1  0
  1 12  1  0
  2 13  1  0
  2 14  1  0
  3 15  1  0
  3 16  1  0
  4 17  1  0
  5 18  1  0
  5 19  1  0
  5 20  1  0
  6 21  1  0
  7 22  1  0
  7 23  1  0
  7 24  1  0
  8 25  1  0
M  END
