
     RDKit          3D

 23 22  0  0  0  0  0  0  0  0999 V2000
    2.9162    1.0703    0.8708 C   0  0  0  0  0  0  0  0  0  0  0  0
    1.8012    0.9585   -0.1726 C   0  0  0  0  0  0  0  0  0  0  0  0
    1.2393   -0.4595   -0.0089 C   0  0  0  0  0  0  0  0  0  0  0  0
    0.1462   -0.7281   -0.9519 C   0  0  0  0  0  0  0  0  0  0  0  0
    0.3941   -1.0690   -2.0855 O   0  0  0  0  0  0  0  0  0  0  0  0
   -1.2750   -0.5930   -0.5544 C   0  0  0  0  0  0  0  0  0  0  0  0
   -2.0290   -1.9147   -0.6869 C   0  0  0  0  0  0  0  0  0  0  0  0
   -1.4035   -0.1837    0.7765 O   0  0  0  0  0  0  0  0  0  0  0  0
   -2.1326    1.0240    0.7667 C   0  0  0  0  0  0  0  0  0  0  0  0
    2.4758    1.2543    1.8578 H   0  0  0  0  0  0  0  0  0  0  0  0
    3.4738    0.1089    0.8984 H   0  0  0  0  0  0  0  0  0  0  0  0
    3.6218    1.8871    0.6082 H   0  0  0  0  0  0  0  0  0  0  0  0
    1.0219    1.7098    0.0673 H   0  0  0  0  0  0  0  0  0  0  0  0
    2.1833    1.1208   -1.2019 H   0  0  0  0  0  0  0  0  0  0  0  0
    2.0698   -1.2004   -0.1115 H   0  0  0  0  0  0  0  0  0  0  0  0
    0.9238   -0.5174    1.0651 H   0  0  0  0  0  0  0  0  0  0  0  0
   -1.7697    0.1215   -1.2542 H   0  0  0  0  0  0  0  0  0  0  0  0
   -1.6474   -2.6314    0.0456 H   0  0  0  0  0  0  0  0  0  0  0  0
   -1.9355   -2.3239   -1.7162 H   0  0  0  0  0  0  0  0  0  0  0  0
   -3.1045   -1.6548   -0.5453 H   0  0  0  0  0  0  0  0  0  0  0  0
   -2.2178    1.3234    1.8314 H   0  0  0  0  0  0  0  0  0  0  0  0
   -1.6081    1.8113    0.1880 H   0  0  0  0  0  0  0  0  0  0  0  0
   -3.1441    0.8858    0.3136 H   0  0  0  0  0  0  0  0  0  0  0  0
  1  2  1  0
  2  3  1  0
  3  4  1  0
  4  5  2  0
  4  6  1  0
  6  7  1  0
  6  8  1  0
  8  9  1  0
  1 10  1  0
  1 11  1  0
  1 12  1  0
  2 13  1  0
  2 14  1  0
  3 15  1  0
  3 16  1  0
  6 17  1  0
  7 18  1  0
  7 19  1  0
  7 20  1  0
  9 21  1  0
  9 22  1  0
  9 23  1  0
M  END
