
     RDKit          3D

 25 25  0  0  0  0  0  0  0  0999 V2000
    2.5469   -1.7705   -0.1636 C   0  0  0  0  0  0  0  0  0  0  0  0
    1.9816   -0.4173    0.2160 C   0  0  0  0  0  0  0  0  0  0  0  0
    0.4639   -0.3945    0.0202 C   0  0  0  0  0  0  0  0  0  0  0  0
   -0.0109    0.9738    0.4172 C   0  0  0  0  0  0  0  0  0  0  0  0
    0.7195    1.9486   -0.5239 C   0  0  0  0  0  0  0  0  0  0  0  0
   -1.4672    1.2203    0.3428 C   0  0  0  0  0  0  0  0  0  0  0  0
   -1.9633    1.0364   -1.0009 O   0  0  0  0  0  0  0  0  0  0  0  0
   -2.5372    0.3286    0.0849 C   0  0  0  0  0  0  0  0  0  0  0  0
   -2.5497   -1.1521    0.0431 C   0  0  0  0  0  0  0  0  0  0  0  0
    3.0926   -2.1459    0.7380 H   0  0  0  0  0  0  0  0  0  0  0  0
    1.7343   -2.4785   -0.4517 H   0  0  0  0  0  0  0  0  0  0  0  0
    3.3153   -1.6893   -0.9702 H   0  0  0  0  0  0  0  0  0  0  0  0
    2.2035   -0.1437    1.2702 H   0  0  0  0  0  0  0  0  0  0  0  0
    2.4745    0.3333   -0.4363 H   0  0  0  0  0  0  0  0  0  0  0  0
    0.2537   -0.5193   -1.0719 H   0  0  0  0  0  0  0  0  0  0  0  0
    0.0086   -1.2264    0.5444 H   0  0  0  0  0  0  0  0  0  0  0  0
    0.3824    1.2267    1.4353 H   0  0  0  0  0  0  0  0  0  0  0  0
    0.0599    2.8540   -0.6068 H   0  0  0  0  0  0  0  0  0  0  0  0
    1.7048    2.2162   -0.1559 H   0  0  0  0  0  0  0  0  0  0  0  0
    0.7161    1.4569   -1.5184 H   0  0  0  0  0  0  0  0  0  0  0  0
   -1.7364    2.2401    0.7741 H   0  0  0  0  0  0  0  0  0  0  0  0
   -3.5813    0.7410    0.2678 H   0  0  0  0  0  0  0  0  0  0  0  0
   -3.5932   -1.5046   -0.2107 H   0  0  0  0  0  0  0  0  0  0  0  0
   -1.9204   -1.4625   -0.8433 H   0  0  0  0  0  0  0  0  0  0  0  0
   -2.2983   -1.6711    0.9654 H   0  0  0  0  0  0  0  0  0  0  0  0
  1  2  1  0
  2  3  1  0
  3  4  1  0
  4  5  1  0
  4  6  1  0
  6  7  1  0
  7  8  1  0
  8  9  1  0
  8  6  1  0
  1 10  1  0
  1 11  1  0
  1 12  1  0
  2 13  1  0
  2 14  1  0
  3 15  1  0
  3 16  1  0
  4 17  1  0
  5 18  1  0
  5 19  1  0
  5 20  1  0
  6 21  1  0
  8 22  1  0
  9 23  1  0
  9 24  1  0
  9 25  1  0
M  END
