
     RDKit          3D

 16 15  0  0  0  0  0  0  0  0999 V2000
    1.4809    0.6515   -0.7159 C   0  0  0  0  0  0  0  0  0  0  0  0
    1.3530   -0.5224    0.2196 C   0  0  0  0  0  0  0  0  0  0  0  0
    0.0199   -0.5712    0.9121 C   0  0  0  0  0  0  0  0  0  0  0  0
   -1.1247   -0.6772    0.0100 C   0  0  0  0  0  0  0  0  0  0  0  0
   -1.9821    0.4839   -0.3039 C   0  0  0  0  0  0  0  0  0  0  0  0
   -1.3931   -1.7413   -0.5046 O   0  0  0  0  0  0  0  0  0  0  0  0
    1.3398    1.5894   -0.1111 H   0  0  0  0  0  0  0  0  0  0  0  0
    2.5132    0.6161   -1.1353 H   0  0  0  0  0  0  0  0  0  0  0  0
    0.7467    0.6316   -1.5323 H   0  0  0  0  0  0  0  0  0  0  0  0
    1.6193   -1.4662   -0.2880 H   0  0  0  0  0  0  0  0  0  0  0  0
    2.1237   -0.3786    1.0241 H   0  0  0  0  0  0  0  0  0  0  0  0
    0.0751   -1.4014    1.6598 H   0  0  0  0  0  0  0  0  0  0  0  0
   -0.0271    0.3635    1.5431 H   0  0  0  0  0  0  0  0  0  0  0  0
   -2.3576    0.9661    0.6406 H   0  0  0  0  0  0  0  0  0  0  0  0
   -2.8998    0.1957   -0.8600 H   0  0  0  0  0  0  0  0  0  0  0  0
   -1.4873    1.2608   -0.9014 H   0  0  0  0  0  0  0  0  0  0  0  0
  1  2  1  0
  2  3  1  0
  3  4  1  0
  4  5  1  0
  4  6  2  0
  1  7  1  0
  1  8  1  0
  1  9  1  0
  2 10  1  0
  2 11  1  0
  3 12  1  0
  3 13  1  0
  5 14  1  0
  5 15  1  0
  5 16  1  0
M  END
