
     RDKit          3D

 27 27  0  0  0  0  0  0  0  0999 V2000
    3.3392    0.3391    0.2841 C   0  0  0  0  0  0  0  0  0  0  0  0
    2.0272   -0.1884   -0.1969 C   0  0  0  0  0  0  0  0  0  0  0  0
    0.8586    0.6593    0.3079 C   0  0  0  0  0  0  0  0  0  0  0  0
   -0.4552    0.1213   -0.1808 C   0  0  0  0  0  0  0  0  0  0  0  0
   -1.5819    0.9813    0.3362 C   0  0  0  0  0  0  0  0  0  0  0  0
   -1.4835    2.4091   -0.1126 C   0  0  0  0  0  0  0  0  0  0  0  0
   -0.7325   -1.2814    0.2970 C   0  0  0  0  0  0  0  0  0  0  0  0
   -2.0759   -1.8151   -0.2101 C   0  0  0  0  0  0  0  0  0  0  0  0
   -0.7513   -2.4402   -0.5819 C   0  0  0  0  0  0  0  0  0  0  0  0
    3.4016    1.4440    0.2849 H   0  0  0  0  0  0  0  0  0  0  0  0
    3.5268   -0.0782    1.2965 H   0  0  0  0  0  0  0  0  0  0  0  0
    4.1270   -0.0154   -0.4169 H   0  0  0  0  0  0  0  0  0  0  0  0
    1.8752   -1.1959    0.2447 H   0  0  0  0  0  0  0  0  0  0  0  0
    1.9822   -0.3062   -1.2936 H   0  0  0  0  0  0  0  0  0  0  0  0
    1.0007    1.6539   -0.1667 H   0  0  0  0  0  0  0  0  0  0  0  0
    0.8950    0.7846    1.3947 H   0  0  0  0  0  0  0  0  0  0  0  0
   -0.4193    0.1046   -1.2921 H   0  0  0  0  0  0  0  0  0  0  0  0
   -2.5257    0.5160    0.0091 H   0  0  0  0  0  0  0  0  0  0  0  0
   -1.5421    0.9142    1.4531 H   0  0  0  0  0  0  0  0  0  0  0  0
   -0.8751    3.0182    0.5843 H   0  0  0  0  0  0  0  0  0  0  0  0
   -2.5216    2.8376   -0.0451 H   0  0  0  0  0  0  0  0  0  0  0  0
   -1.1455    2.4356   -1.1482 H   0  0  0  0  0  0  0  0  0  0  0  0
   -0.5533   -1.4268    1.3813 H   0  0  0  0  0  0  0  0  0  0  0  0
   -2.5952   -1.2816   -1.0081 H   0  0  0  0  0  0  0  0  0  0  0  0
   -2.7363   -2.3194    0.5104 H   0  0  0  0  0  0  0  0  0  0  0  0
   -0.5536   -3.4343   -0.0905 H   0  0  0  0  0  0  0  0  0  0  0  0
   -0.4855   -2.4358   -1.6407 H   0  0  0  0  0  0  0  0  0  0  0  0
  1  2  1  0
  2  3  1  0
  3  4  1  0
  4  5  1  0
  5  6  1  0
  4  7  1  0
  7  8  1  0
  8  9  1  0
  9  7  1  0
  1 10  1  0
  1 11  1  0
  1 12  1  0
  2 13  1  0
  2 14  1  0
  3 15  1  0
  3 16  1  0
  4 17  1  0
  5 18  1  0
  5 19  1  0
  6 20  1  0
  6 21  1  0
  6 22  1  0
  7 23  1  0
  8 24  1  0
  8 25  1  0
  9 26  1  0
  9 27  1  0
M  END
