
     RDKit          3D

 25 26  0  0  0  0  0  0  0  0999 V2000
    3.3210    0.4249    0.0945 C   0  0  0  0  0  0  0  0  0  0  0  0
    1.8655    0.4506    0.4269 C   0  0  0  0  0  0  0  0  0  0  0  0
    1.0160   -0.2354   -0.6450 C   0  0  0  0  0  0  0  0  0  0  0  0
   -0.3768   -0.1722   -0.2570 C   0  0  0  0  0  0  0  0  0  0  0  0
   -1.0604    1.1347   -0.0514 C   0  0  0  0  0  0  0  0  0  0  0  0
   -2.4368    0.6251    0.4281 C   0  0  0  0  0  0  0  0  0  0  0  0
   -2.1773   -0.8521    0.3607 C   0  0  0  0  0  0  0  0  0  0  0  0
   -1.4054   -1.0124   -0.9561 C   0  0  0  0  0  0  0  0  0  0  0  0
   -0.7932   -0.9382    1.0072 C   0  0  0  0  0  0  0  0  0  0  0  0
    3.4969   -0.4214   -0.6001 H   0  0  0  0  0  0  0  0  0  0  0  0
    3.6242    1.3821   -0.3755 H   0  0  0  0  0  0  0  0  0  0  0  0
    3.9017    0.3160    1.0379 H   0  0  0  0  0  0  0  0  0  0  0  0
    1.6047   -0.0175    1.3868 H   0  0  0  0  0  0  0  0  0  0  0  0
    1.5465    1.5116    0.4892 H   0  0  0  0  0  0  0  0  0  0  0  0
    1.3262   -1.2884   -0.7819 H   0  0  0  0  0  0  0  0  0  0  0  0
    1.1825    0.2778   -1.5907 H   0  0  0  0  0  0  0  0  0  0  0  0
   -1.1568    1.7521   -0.9505 H   0  0  0  0  0  0  0  0  0  0  0  0
   -0.5907    1.6993    0.7959 H   0  0  0  0  0  0  0  0  0  0  0  0
   -2.6814    0.9964    1.4220 H   0  0  0  0  0  0  0  0  0  0  0  0
   -3.2043    0.8810   -0.3499 H   0  0  0  0  0  0  0  0  0  0  0  0
   -2.9080   -1.5620    0.6121 H   0  0  0  0  0  0  0  0  0  0  0  0
   -1.9543   -0.5646   -1.7790 H   0  0  0  0  0  0  0  0  0  0  0  0
   -1.0647   -2.0589   -1.0806 H   0  0  0  0  0  0  0  0  0  0  0  0
   -0.6827   -0.3764    1.9333 H   0  0  0  0  0  0  0  0  0  0  0  0
   -0.3923   -1.9521    0.9567 H   0  0  0  0  0  0  0  0  0  0  0  0
  1  2  1  0
  2  3  1  0
  3  4  1  0
  4  5  1  0
  5  6  1  0
  6  7  1  0
  7  8  1  0
  7  9  1  0
  8  4  1  0
  9  4  1  0
  1 10  1  0
  1 11  1  0
  1 12  1  0
  2 13  1  0
  2 14  1  0
  3 15  1  0
  3 16  1  0
  5 17  1  0
  5 18  1  0
  6 19  1  0
  6 20  1  0
  7 21  1  0
  8 22  1  0
  8 23  1  0
  9 24  1  0
  9 25  1  0
M  END
