
     RDKit          3D

 20 20  0  0  0  0  0  0  0  0999 V2000
    2.3211    0.4339    0.8017 C   0  0  0  0  0  0  0  0  0  0  0  0
    1.7428    0.2738   -0.5980 C   0  0  0  0  0  0  0  0  0  0  0  0
    0.6180   -0.7231   -0.5733 C   0  0  0  0  0  0  0  0  0  0  0  0
   -0.5128   -0.3263    0.3343 C   0  0  0  0  0  0  0  0  0  0  0  0
   -1.4992   -1.3115    0.2862 O   0  0  0  0  0  0  0  0  0  0  0  0
   -2.0995   -0.6206   -0.7395 C   0  0  0  0  0  0  0  0  0  0  0  0
   -1.5010    0.6452   -0.2073 C   0  0  0  0  0  0  0  0  0  0  0  0
   -2.3062    1.1607    0.8131 O   0  0  0  0  0  0  0  0  0  0  0  0
    3.4320    0.4796    0.7796 H   0  0  0  0  0  0  0  0  0  0  0  0
    2.0417   -0.4353    1.4198 H   0  0  0  0  0  0  0  0  0  0  0  0
    1.9795    1.3592    1.2858 H   0  0  0  0  0  0  0  0  0  0  0  0
    1.4731    1.2475   -0.9993 H   0  0  0  0  0  0  0  0  0  0  0  0
    2.5677   -0.1282   -1.2215 H   0  0  0  0  0  0  0  0  0  0  0  0
    1.0131   -1.6879   -0.1910 H   0  0  0  0  0  0  0  0  0  0  0  0
    0.2689   -0.9248   -1.6057 H   0  0  0  0  0  0  0  0  0  0  0  0
   -0.2184   -0.0552    1.3583 H   0  0  0  0  0  0  0  0  0  0  0  0
   -1.7606   -0.8241   -1.7631 H   0  0  0  0  0  0  0  0  0  0  0  0
   -3.2112   -0.7036   -0.6302 H   0  0  0  0  0  0  0  0  0  0  0  0
   -1.1418    1.3801   -0.9322 H   0  0  0  0  0  0  0  0  0  0  0  0
   -3.2072    0.7604    0.7904 H   0  0  0  0  0  0  0  0  0  0  0  0
  1  2  1  0
  2  3  1  0
  3  4  1  0
  4  5  1  0
  5  6  1  0
  6  7  1  0
  7  8  1  0
  7  4  1  0
  1  9  1  0
  1 10  1  0
  1 11  1  0
  2 12  1  0
  2 13  1  0
  3 14  1  0
  3 15  1  0
  4 16  1  0
  6 17  1  0
  6 18  1  0
  7 19  1  0
  8 20  1  0
M  END
