
     RDKit          3D

 25 25  0  0  0  0  0  0  0  0999 V2000
    3.4369    0.2694   -0.0389 C   0  0  0  0  0  0  0  0  0  0  0  0
    2.2470   -0.5989    0.2987 C   0  0  0  0  0  0  0  0  0  0  0  0
    0.9775    0.2344    0.2153 C   0  0  0  0  0  0  0  0  0  0  0  0
   -0.2265   -0.6158    0.5498 C   0  0  0  0  0  0  0  0  0  0  0  0
   -0.3221   -1.6709   -0.3443 O   0  0  0  0  0  0  0  0  0  0  0  0
   -1.5386   -1.1967   -0.8192 C   0  0  0  0  0  0  0  0  0  0  0  0
   -1.4800    0.0123    0.0519 C   0  0  0  0  0  0  0  0  0  0  0  0
   -1.2892    1.3317   -0.6545 C   0  0  0  0  0  0  0  0  0  0  0  0
   -2.6364    0.0483    1.0275 C   0  0  0  0  0  0  0  0  0  0  0  0
    3.6865    0.2581   -1.1189 H   0  0  0  0  0  0  0  0  0  0  0  0
    3.1941    1.3041    0.2658 H   0  0  0  0  0  0  0  0  0  0  0  0
    4.3245   -0.0282    0.5660 H   0  0  0  0  0  0  0  0  0  0  0  0
    2.1707   -1.3550   -0.5207 H   0  0  0  0  0  0  0  0  0  0  0  0
    2.3084   -1.0793    1.2751 H   0  0  0  0  0  0  0  0  0  0  0  0
    1.0681    1.1224    0.8854 H   0  0  0  0  0  0  0  0  0  0  0  0
    0.8151    0.6265   -0.8087 H   0  0  0  0  0  0  0  0  0  0  0  0
   -0.2441   -1.0086    1.5850 H   0  0  0  0  0  0  0  0  0  0  0  0
   -1.4452   -1.0132   -1.9169 H   0  0  0  0  0  0  0  0  0  0  0  0
   -2.3479   -1.9054   -0.5583 H   0  0  0  0  0  0  0  0  0  0  0  0
   -0.9251    1.2222   -1.6929 H   0  0  0  0  0  0  0  0  0  0  0  0
   -2.3026    1.8130   -0.7341 H   0  0  0  0  0  0  0  0  0  0  0  0
   -0.6710    2.0119   -0.0406 H   0  0  0  0  0  0  0  0  0  0  0  0
   -3.5487   -0.2134    0.4470 H   0  0  0  0  0  0  0  0  0  0  0  0
   -2.4987   -0.6525    1.8739 H   0  0  0  0  0  0  0  0  0  0  0  0
   -2.7528    1.0838    1.4032 H   0  0  0  0  0  0  0  0  0  0  0  0
  1  2  1  0
  2  3  1  0
  3  4  1  0
  4  5  1  0
  5  6  1  0
  6  7  1  0
  7  8  1  0
  7  9  1  0
  7  4  1  0
  1 10  1  0
  1 11  1  0
  1 12  1  0
  2 13  1  0
  2 14  1  0
  3 15  1  0
  3 16  1  0
  4 17  1  0
  6 18  1  0
  6 19  1  0
  8 20  1  0
  8 21  1  0
  8 22  1  0
  9 23  1  0
  9 24  1  0
  9 25  1  0
M  END
