
     RDKit          3D

 23 23  0  0  0  0  0  0  0  0999 V2000
   -2.8783    2.1637    0.2832 C   0  0  0  0  0  0  0  0  0  0  0  0
   -3.2855    0.7948   -0.1926 C   0  0  0  0  0  0  0  0  0  0  0  0
   -2.2624    0.1748   -1.1139 C   0  0  0  0  0  0  0  0  0  0  0  0
   -0.9940    0.0374   -0.4397 C   0  0  0  0  0  0  0  0  0  0  0  0
    0.0883   -0.0924    0.1165 C   0  0  0  0  0  0  0  0  0  0  0  0
    1.3926   -0.2276    0.7692 C   0  0  0  0  0  0  0  0  0  0  0  0
    2.4430   -0.7359   -0.2228 C   0  0  0  0  0  0  0  0  0  0  0  0
    3.8247   -0.9450    0.2185 C   0  0  0  0  0  0  0  0  0  0  0  0
    2.9441   -2.1791    0.0070 C   0  0  0  0  0  0  0  0  0  0  0  0
   -2.3279    2.7488   -0.4811 H   0  0  0  0  0  0  0  0  0  0  0  0
   -2.2836    2.1486    1.2068 H   0  0  0  0  0  0  0  0  0  0  0  0
   -3.8123    2.7248    0.5074 H   0  0  0  0  0  0  0  0  0  0  0  0
   -4.2197    0.8968   -0.7672 H   0  0  0  0  0  0  0  0  0  0  0  0
   -3.4619    0.1648    0.6779 H   0  0  0  0  0  0  0  0  0  0  0  0
   -2.6453   -0.8302   -1.3902 H   0  0  0  0  0  0  0  0  0  0  0  0
   -2.1925    0.8002   -2.0450 H   0  0  0  0  0  0  0  0  0  0  0  0
    1.2978   -0.9760    1.5698 H   0  0  0  0  0  0  0  0  0  0  0  0
    1.7121    0.7560    1.1285 H   0  0  0  0  0  0  0  0  0  0  0  0
    2.2524   -0.4813   -1.2925 H   0  0  0  0  0  0  0  0  0  0  0  0
    4.6274   -0.7690   -0.5255 H   0  0  0  0  0  0  0  0  0  0  0  0
    4.1017   -0.6939    1.2608 H   0  0  0  0  0  0  0  0  0  0  0  0
    2.5520   -2.6902    0.9088 H   0  0  0  0  0  0  0  0  0  0  0  0
    3.1272   -2.7900   -0.8991 H   0  0  0  0  0  0  0  0  0  0  0  0
  1  2  1  0
  2  3  1  0
  3  4  1  0
  4  5  3  0
  5  6  1  0
  6  7  1  0
  7  8  1  0
  8  9  1  0
  9  7  1  0
  1 10  1  0
  1 11  1  0
  1 12  1  0
  2 13  1  0
  2 14  1  0
  3 15  1  0
  3 16  1  0
  6 17  1  0
  6 18  1  0
  7 19  1  0
  8 20  1  0
  8 21  1  0
  9 22  1  0
  9 23  1  0
M  END
