
     RDKit          3D

 20 19  0  0  0  0  0  0  0  0999 V2000
    2.7369    0.4044    0.9522 C   0  0  0  0  0  0  0  0  0  0  0  0
    1.4984    0.5993    0.1040 C   0  0  0  0  0  0  0  0  0  0  0  0
    0.3938   -0.3224    0.5659 C   0  0  0  0  0  0  0  0  0  0  0  0
   -0.8634   -0.1724   -0.2419 C   0  0  0  0  0  0  0  0  0  0  0  0
   -1.4078    1.2559   -0.1529 C   0  0  0  0  0  0  0  0  0  0  0  0
   -1.8665   -1.0017    0.3139 O   0  0  0  0  0  0  0  0  0  0  0  0
   -2.5028   -1.9678   -0.4470 C   0  0  0  0  0  0  0  0  0  0  0  0
   -2.2244   -2.1573   -1.6629 O   0  0  0  0  0  0  0  0  0  0  0  0
    2.4408    0.1085    1.9939 H   0  0  0  0  0  0  0  0  0  0  0  0
    3.3309    1.3396    0.9560 H   0  0  0  0  0  0  0  0  0  0  0  0
    3.2837   -0.4575    0.5318 H   0  0  0  0  0  0  0  0  0  0  0  0
    1.1918    1.6638    0.2067 H   0  0  0  0  0  0  0  0  0  0  0  0
    1.7690    0.4485   -0.9489 H   0  0  0  0  0  0  0  0  0  0  0  0
    0.7414   -1.3672    0.4371 H   0  0  0  0  0  0  0  0  0  0  0  0
    0.1960   -0.1296    1.6238 H   0  0  0  0  0  0  0  0  0  0  0  0
   -0.7409   -0.4596   -1.2928 H   0  0  0  0  0  0  0  0  0  0  0  0
   -0.9991    1.8002    0.7001 H   0  0  0  0  0  0  0  0  0  0  0  0
   -2.5141    1.2507   -0.0677 H   0  0  0  0  0  0  0  0  0  0  0  0
   -1.1937    1.7701   -1.1296 H   0  0  0  0  0  0  0  0  0  0  0  0
   -3.2703   -2.6055   -0.0300 H   0  0  0  0  0  0  0  0  0  0  0  0
  1  2  1  0
  2  3  1  0
  3  4  1  0
  4  5  1  0
  4  6  1  0
  6  7  1  0
  7  8  2  0
  1  9  1  0
  1 10  1  0
  1 11  1  0
  2 12  1  0
  2 13  1  0
  3 14  1  0
  3 15  1  0
  4 16  1  0
  5 17  1  0
  5 18  1  0
  5 19  1  0
  7 20  1  0
M  END
