
     RDKit          3D

 19 18  0  0  0  0  0  0  0  0999 V2000
    2.3296    0.1869    0.3698 C   0  0  0  0  0  0  0  0  0  0  0  0
    1.5664    0.4276   -0.8963 C   0  0  0  0  0  0  0  0  0  0  0  0
    0.2361   -0.2561   -0.9568 C   0  0  0  0  0  0  0  0  0  0  0  0
   -0.6324    0.2284    0.1643 C   0  0  0  0  0  0  0  0  0  0  0  0
   -0.0127   -0.0663    1.3572 O   0  0  0  0  0  0  0  0  0  0  0  0
   -1.9925   -0.3524    0.1248 C   0  0  0  0  0  0  0  0  0  0  0  0
   -2.3860   -1.0172    1.1096 O   0  0  0  0  0  0  0  0  0  0  0  0
   -2.9080   -0.2005   -0.9898 C   0  0  0  0  0  0  0  0  0  0  0  0
   -2.5373    0.4622   -1.9822 O   0  0  0  0  0  0  0  0  0  0  0  0
    2.1307   -0.8002    0.8351 H   0  0  0  0  0  0  0  0  0  0  0  0
    3.4237    0.3309    0.1834 H   0  0  0  0  0  0  0  0  0  0  0  0
    2.0659    0.9511    1.1232 H   0  0  0  0  0  0  0  0  0  0  0  0
    2.2392    0.0887   -1.7384 H   0  0  0  0  0  0  0  0  0  0  0  0
    1.4577    1.5267   -1.0667 H   0  0  0  0  0  0  0  0  0  0  0  0
    0.3505   -1.3532   -0.8657 H   0  0  0  0  0  0  0  0  0  0  0  0
   -0.2700   -0.0536   -1.9092 H   0  0  0  0  0  0  0  0  0  0  0  0
   -0.7375    1.3316    0.0604 H   0  0  0  0  0  0  0  0  0  0  0  0
   -0.4300   -0.7957    1.8596 H   0  0  0  0  0  0  0  0  0  0  0  0
   -3.8934   -0.6388   -0.9900 H   0  0  0  0  0  0  0  0  0  0  0  0
  1  2  1  0
  2  3  1  0
  3  4  1  0
  4  5  1  0
  4  6  1  0
  6  7  2  0
  6  8  1  0
  8  9  2  0
  1 10  1  0
  1 11  1  0
  1 12  1  0
  2 13  1  0
  2 14  1  0
  3 15  1  0
  3 16  1  0
  4 17  1  0
  5 18  1  0
  8 19  1  0
M  END
