
     RDKit          3D

 29 28  0  0  0  0  0  0  0  0999 V2000
    2.8111    1.0079   -0.2946 C   0  0  0  0  0  0  0  0  0  0  0  0
    2.4720   -0.4455   -0.2914 C   0  0  0  0  0  0  0  0  0  0  0  0
    1.7667   -0.9083    0.9560 C   0  0  0  0  0  0  0  0  0  0  0  0
    0.4686   -0.2164    1.2045 C   0  0  0  0  0  0  0  0  0  0  0  0
   -0.5316   -0.4002    0.1070 C   0  0  0  0  0  0  0  0  0  0  0  0
   -0.8888   -1.8476   -0.1251 C   0  0  0  0  0  0  0  0  0  0  0  0
   -1.7785    0.4041    0.2641 C   0  0  0  0  0  0  0  0  0  0  0  0
   -2.7366    0.1630   -0.8835 C   0  0  0  0  0  0  0  0  0  0  0  0
   -1.5490    1.8742    0.4001 C   0  0  0  0  0  0  0  0  0  0  0  0
    3.6348    1.1552   -1.0294 H   0  0  0  0  0  0  0  0  0  0  0  0
    3.2229    1.3091    0.6886 H   0  0  0  0  0  0  0  0  0  0  0  0
    1.9773    1.6580   -0.6236 H   0  0  0  0  0  0  0  0  0  0  0  0
    3.4404   -1.0130   -0.3324 H   0  0  0  0  0  0  0  0  0  0  0  0
    1.9239   -0.7176   -1.2124 H   0  0  0  0  0  0  0  0  0  0  0  0
    1.6160   -2.0111    0.8170 H   0  0  0  0  0  0  0  0  0  0  0  0
    2.4578   -0.7976    1.7929 H   0  0  0  0  0  0  0  0  0  0  0  0
    0.6656    0.8614    1.3760 H   0  0  0  0  0  0  0  0  0  0  0  0
    0.0631   -0.6050    2.1648 H   0  0  0  0  0  0  0  0  0  0  0  0
   -0.0331   -0.0438   -0.8425 H   0  0  0  0  0  0  0  0  0  0  0  0
   -1.9646   -2.0022    0.1259 H   0  0  0  0  0  0  0  0  0  0  0  0
   -0.7821   -2.1424   -1.1864 H   0  0  0  0  0  0  0  0  0  0  0  0
   -0.3350   -2.5409    0.5575 H   0  0  0  0  0  0  0  0  0  0  0  0
   -2.3342    0.0794    1.1938 H   0  0  0  0  0  0  0  0  0  0  0  0
   -2.4934   -0.7934   -1.4292 H   0  0  0  0  0  0  0  0  0  0  0  0
   -3.7824    0.1146   -0.5312 H   0  0  0  0  0  0  0  0  0  0  0  0
   -2.6690    1.0306   -1.5714 H   0  0  0  0  0  0  0  0  0  0  0  0
   -1.2726    2.1594    1.4494 H   0  0  0  0  0  0  0  0  0  0  0  0
   -0.8440    2.2855   -0.3458 H   0  0  0  0  0  0  0  0  0  0  0  0
   -2.5252    2.3826    0.2153 H   0  0  0  0  0  0  0  0  0  0  0  0
  1  2  1  0
  2  3  1  0
  3  4  1  0
  4  5  1  0
  5  6  1  0
  5  7  1  0
  7  8  1  0
  7  9  1  0
  1 10  1  0
  1 11  1  0
  1 12  1  0
  2 13  1  0
  2 14  1  0
  3 15  1  0
  3 16  1  0
  4 17  1  0
  4 18  1  0
  5 19  1  0
  6 20  1  0
  6 21  1  0
  6 22  1  0
  7 23  1  0
  8 24  1  0
  8 25  1  0
  8 26  1  0
  9 27  1  0
  9 28  1  0
  9 29  1  0
M  END
