
     RDKit          3D

 25 25  0  0  0  0  0  0  0  0999 V2000
    3.0252    0.1733   -0.7250 C   0  0  0  0  0  0  0  0  0  0  0  0
    2.2045   -1.0119   -0.2697 C   0  0  0  0  0  0  0  0  0  0  0  0
    1.0225   -0.4819    0.5169 C   0  0  0  0  0  0  0  0  0  0  0  0
    0.1491    0.4266   -0.2970 C   0  0  0  0  0  0  0  0  0  0  0  0
   -0.4085   -0.1587   -1.4311 O   0  0  0  0  0  0  0  0  0  0  0  0
   -1.7187   -0.1502   -0.9521 C   0  0  0  0  0  0  0  0  0  0  0  0
   -2.1641   -1.5372   -0.6274 C   0  0  0  0  0  0  0  0  0  0  0  0
   -1.2268    0.5654    0.2768 C   0  0  0  0  0  0  0  0  0  0  0  0
   -1.6522    2.0081    0.4044 C   0  0  0  0  0  0  0  0  0  0  0  0
    2.5757    0.5562   -1.6536 H   0  0  0  0  0  0  0  0  0  0  0  0
    2.9658    0.9954    0.0331 H   0  0  0  0  0  0  0  0  0  0  0  0
    4.1036   -0.0848   -0.8361 H   0  0  0  0  0  0  0  0  0  0  0  0
    1.9005   -1.6627   -1.0893 H   0  0  0  0  0  0  0  0  0  0  0  0
    2.8014   -1.6354    0.4370 H   0  0  0  0  0  0  0  0  0  0  0  0
    1.3713    0.0679    1.4051 H   0  0  0  0  0  0  0  0  0  0  0  0
    0.3767   -1.3132    0.8848 H   0  0  0  0  0  0  0  0  0  0  0  0
    0.6271    1.3953   -0.5962 H   0  0  0  0  0  0  0  0  0  0  0  0
   -2.3552    0.4347   -1.6324 H   0  0  0  0  0  0  0  0  0  0  0  0
   -2.9221   -1.9428   -1.3317 H   0  0  0  0  0  0  0  0  0  0  0  0
   -2.6253   -1.5017    0.4008 H   0  0  0  0  0  0  0  0  0  0  0  0
   -1.3369   -2.2741   -0.5505 H   0  0  0  0  0  0  0  0  0  0  0  0
   -1.4103    0.0394    1.2350 H   0  0  0  0  0  0  0  0  0  0  0  0
   -1.0852    2.4365    1.2574 H   0  0  0  0  0  0  0  0  0  0  0  0
   -2.7291    2.0761    0.6786 H   0  0  0  0  0  0  0  0  0  0  0  0
   -1.4891    2.5798   -0.5281 H   0  0  0  0  0  0  0  0  0  0  0  0
  1  2  1  0
  2  3  1  0
  3  4  1  0
  4  5  1  0
  5  6  1  0
  6  7  1  0
  6  8  1  0
  8  9  1  0
  8  4  1  0
  1 10  1  0
  1 11  1  0
  1 12  1  0
  2 13  1  0
  2 14  1  0
  3 15  1  0
  3 16  1  0
  4 17  1  0
  6 18  1  0
  7 19  1  0
  7 20  1  0
  7 21  1  0
  8 22  1  0
  9 23  1  0
  9 24  1  0
  9 25  1  0
M  END
