
     RDKit          3D

 25 26  0  0  0  0  0  0  0  0999 V2000
    2.7782    0.1148    0.4968 C   0  0  0  0  0  0  0  0  0  0  0  0
    2.1717   -0.0617   -0.8537 C   0  0  0  0  0  0  0  0  0  0  0  0
    0.7400    0.3161   -0.9706 C   0  0  0  0  0  0  0  0  0  0  0  0
   -0.2100   -0.4311   -0.0975 C   0  0  0  0  0  0  0  0  0  0  0  0
   -0.0663   -0.3775    1.3978 C   0  0  0  0  0  0  0  0  0  0  0  0
   -1.5549   -0.1042    1.5439 C   0  0  0  0  0  0  0  0  0  0  0  0
   -1.6333   -0.1328    0.0353 C   0  0  0  0  0  0  0  0  0  0  0  0
   -2.3518    0.9215   -0.7289 C   0  0  0  0  0  0  0  0  0  0  0  0
   -1.1759   -1.3994   -0.6741 C   0  0  0  0  0  0  0  0  0  0  0  0
    2.6338    1.1355    0.8942 H   0  0  0  0  0  0  0  0  0  0  0  0
    2.4350   -0.6932    1.1863 H   0  0  0  0  0  0  0  0  0  0  0  0
    3.8991    0.0286    0.3556 H   0  0  0  0  0  0  0  0  0  0  0  0
    2.7484    0.5920   -1.5657 H   0  0  0  0  0  0  0  0  0  0  0  0
    2.3555   -1.1061   -1.1898 H   0  0  0  0  0  0  0  0  0  0  0  0
    0.4212    0.1507   -2.0276 H   0  0  0  0  0  0  0  0  0  0  0  0
    0.6192    1.4061   -0.7326 H   0  0  0  0  0  0  0  0  0  0  0  0
    0.4775    0.5559    1.7306 H   0  0  0  0  0  0  0  0  0  0  0  0
    0.2052   -1.2952    1.9124 H   0  0  0  0  0  0  0  0  0  0  0  0
   -2.1357   -0.9395    1.9839 H   0  0  0  0  0  0  0  0  0  0  0  0
   -1.8349    0.8656    1.9455 H   0  0  0  0  0  0  0  0  0  0  0  0
   -2.1850    0.7536   -1.8003 H   0  0  0  0  0  0  0  0  0  0  0  0
   -2.1108    1.9543   -0.4046 H   0  0  0  0  0  0  0  0  0  0  0  0
   -3.4550    0.7739   -0.5494 H   0  0  0  0  0  0  0  0  0  0  0  0
   -1.3293   -1.3520   -1.7689 H   0  0  0  0  0  0  0  0  0  0  0  0
   -1.4419   -2.3163   -0.1184 H   0  0  0  0  0  0  0  0  0  0  0  0
  1  2  1  0
  2  3  1  0
  3  4  1  0
  4  5  1  0
  5  6  1  0
  6  7  1  0
  7  8  1  0
  7  9  1  0
  7  4  1  0
  9  4  1  0
  1 10  1  0
  1 11  1  0
  1 12  1  0
  2 13  1  0
  2 14  1  0
  3 15  1  0
  3 16  1  0
  5 17  1  0
  5 18  1  0
  6 19  1  0
  6 20  1  0
  8 21  1  0
  8 22  1  0
  8 23  1  0
  9 24  1  0
  9 25  1  0
M  END
