
     RDKit          3D

 23 23  0  0  0  0  0  0  0  0999 V2000
    3.2904   -0.4862   -0.1422 C   0  0  0  0  0  0  0  0  0  0  0  0
    2.1488   -0.0319    0.7375 C   0  0  0  0  0  0  0  0  0  0  0  0
    0.8941   -0.0697   -0.1016 C   0  0  0  0  0  0  0  0  0  0  0  0
   -0.3185    0.3709    0.6919 C   0  0  0  0  0  0  0  0  0  0  0  0
   -1.5033    0.2821   -0.2792 C   0  0  0  0  0  0  0  0  0  0  0  0
   -1.3756    1.1389   -1.4851 C   0  0  0  0  0  0  0  0  0  0  0  0
   -2.3181    1.0858   -2.2849 O   0  0  0  0  0  0  0  0  0  0  0  0
   -2.2235   -0.9963   -0.3086 C   0  0  0  0  0  0  0  0  0  0  0  0
   -2.8813    0.2120    0.2925 C   0  0  0  0  0  0  0  0  0  0  0  0
    2.9749   -0.6213   -1.2070 H   0  0  0  0  0  0  0  0  0  0  0  0
    3.6997   -1.4601    0.1939 H   0  0  0  0  0  0  0  0  0  0  0  0
    4.0972    0.2905   -0.1120 H   0  0  0  0  0  0  0  0  0  0  0  0
    2.0295   -0.7325    1.5783 H   0  0  0  0  0  0  0  0  0  0  0  0
    2.2638    0.9801    1.1210 H   0  0  0  0  0  0  0  0  0  0  0  0
    0.7005   -1.0748   -0.4773 H   0  0  0  0  0  0  0  0  0  0  0  0
    0.9674    0.6039   -0.9778 H   0  0  0  0  0  0  0  0  0  0  0  0
   -0.4337   -0.3597    1.5186 H   0  0  0  0  0  0  0  0  0  0  0  0
   -0.2108    1.3792    1.1138 H   0  0  0  0  0  0  0  0  0  0  0  0
   -0.5387    1.7794   -1.6930 H   0  0  0  0  0  0  0  0  0  0  0  0
   -2.5973   -1.4259   -1.2581 H   0  0  0  0  0  0  0  0  0  0  0  0
   -1.9090   -1.7834    0.4166 H   0  0  0  0  0  0  0  0  0  0  0  0
   -3.0374    0.2201    1.3827 H   0  0  0  0  0  0  0  0  0  0  0  0
   -3.7193    0.6989   -0.2716 H   0  0  0  0  0  0  0  0  0  0  0  0
  1  2  1  0
  2  3  1  0
  3  4  1  0
  4  5  1  0
  5  6  1  0
  6  7  2  0
  5  8  1  0
  8  9  1  0
  9  5  1  0
  1 10  1  0
  1 11  1  0
  1 12  1  0
  2 13  1  0
  2 14  1  0
  3 15  1  0
  3 16  1  0
  4 17  1  0
  4 18  1  0
  6 19  1  0
  8 20  1  0
  8 21  1  0
  9 22  1  0
  9 23  1  0
M  END
