
     RDKit          3D

 21 21  0  0  0  0  0  0  0  0999 V2000
   -3.1477   -0.8016    0.1042 C   0  0  0  0  0  0  0  0  0  0  0  0
   -2.1106    0.3036    0.0530 C   0  0  0  0  0  0  0  0  0  0  0  0
   -0.8342   -0.1689    0.7598 C   0  0  0  0  0  0  0  0  0  0  0  0
    0.1787    0.9643    0.6873 C   0  0  0  0  0  0  0  0  0  0  0  0
    0.5813    1.4165   -0.5685 O   0  0  0  0  0  0  0  0  0  0  0  0
    1.5450    0.7882    0.3136 C   0  0  0  0  0  0  0  0  0  0  0  0
    2.1338   -0.4402   -0.2856 C   0  0  0  0  0  0  0  0  0  0  0  0
    3.6060   -0.2548   -0.5456 C   0  0  0  0  0  0  0  0  0  0  0  0
    4.1119    0.8107   -0.2542 O   0  0  0  0  0  0  0  0  0  0  0  0
   -4.1392   -0.3473   -0.1464 H   0  0  0  0  0  0  0  0  0  0  0  0
   -2.8726   -1.5976   -0.5960 H   0  0  0  0  0  0  0  0  0  0  0  0
   -3.1592   -1.2339    1.1198 H   0  0  0  0  0  0  0  0  0  0  0  0
   -2.5169    1.1475    0.6384 H   0  0  0  0  0  0  0  0  0  0  0  0
   -1.9134    0.5869   -0.9869 H   0  0  0  0  0  0  0  0  0  0  0  0
   -0.4727   -1.0910    0.2819 H   0  0  0  0  0  0  0  0  0  0  0  0
   -1.1094   -0.2943    1.8245 H   0  0  0  0  0  0  0  0  0  0  0  0
   -0.0765    1.7940    1.3830 H   0  0  0  0  0  0  0  0  0  0  0  0
    2.3078    1.4985    0.7385 H   0  0  0  0  0  0  0  0  0  0  0  0
    1.9783   -1.3500    0.3504 H   0  0  0  0  0  0  0  0  0  0  0  0
    1.6936   -0.7116   -1.2803 H   0  0  0  0  0  0  0  0  0  0  0  0
    4.2158   -1.0192   -0.9730 H   0  0  0  0  0  0  0  0  0  0  0  0
  1  2  1  0
  2  3  1  0
  3  4  1  0
  4  5  1  0
  5  6  1  0
  6  7  1  0
  7  8  1  0
  8  9  2  0
  6  4  1  0
  1 10  1  0
  1 11  1  0
  1 12  1  0
  2 13  1  0
  2 14  1  0
  3 15  1  0
  3 16  1  0
  4 17  1  0
  6 18  1  0
  7 19  1  0
  7 20  1  0
  8 21  1  0
M  END
