
     RDKit          3D

 23 24  0  0  0  0  0  0  0  0999 V2000
    2.5292    1.1176    0.2284 C   0  0  0  0  0  0  0  0  0  0  0  0
    2.1425    0.0957   -0.7893 C   0  0  0  0  0  0  0  0  0  0  0  0
    1.3089   -1.0236   -0.1485 C   0  0  0  0  0  0  0  0  0  0  0  0
    0.0518   -0.4494    0.4559 C   0  0  0  0  0  0  0  0  0  0  0  0
   -0.9366   -1.2841    1.1369 C   0  0  0  0  0  0  0  0  0  0  0  0
   -1.2800   -0.8380   -0.2166 C   0  0  0  0  0  0  0  0  0  0  0  0
   -2.2776    0.2249   -0.5043 C   0  0  0  0  0  0  0  0  0  0  0  0
   -2.8734    1.0607    0.5268 C   0  0  0  0  0  0  0  0  0  0  0  0
   -1.7565    1.5860   -0.1584 O   0  0  0  0  0  0  0  0  0  0  0  0
    1.7473    1.8596    0.4141 H   0  0  0  0  0  0  0  0  0  0  0  0
    3.4898    1.5898   -0.1156 H   0  0  0  0  0  0  0  0  0  0  0  0
    2.7794    0.6316    1.1954 H   0  0  0  0  0  0  0  0  0  0  0  0
    1.4829    0.5603   -1.5734 H   0  0  0  0  0  0  0  0  0  0  0  0
    3.0586   -0.3141   -1.2458 H   0  0  0  0  0  0  0  0  0  0  0  0
    1.9071   -1.4487    0.7021 H   0  0  0  0  0  0  0  0  0  0  0  0
    1.1276   -1.8214   -0.8772 H   0  0  0  0  0  0  0  0  0  0  0  0
    0.1164    0.6551    0.6405 H   0  0  0  0  0  0  0  0  0  0  0  0
   -0.6423   -2.3579    1.2971 H   0  0  0  0  0  0  0  0  0  0  0  0
   -1.4883   -0.8233    1.9949 H   0  0  0  0  0  0  0  0  0  0  0  0
   -1.1943   -1.6255   -1.0175 H   0  0  0  0  0  0  0  0  0  0  0  0
   -2.7638    0.2396   -1.5085 H   0  0  0  0  0  0  0  0  0  0  0  0
   -2.7208    0.7489    1.5823 H   0  0  0  0  0  0  0  0  0  0  0  0
   -3.8079    1.6160    0.2797 H   0  0  0  0  0  0  0  0  0  0  0  0
  1  2  1  0
  2  3  1  0
  3  4  1  0
  4  5  1  0
  5  6  1  0
  6  7  1  0
  7  8  1  0
  8  9  1  0
  6  4  1  0
  9  7  1  0
  1 10  1  0
  1 11  1  0
  1 12  1  0
  2 13  1  0
  2 14  1  0
  3 15  1  0
  3 16  1  0
  4 17  1  0
  5 18  1  0
  5 19  1  0
  6 20  1  0
  7 21  1  0
  8 22  1  0
  8 23  1  0
M  END
