
     RDKit          3D

 22 22  0  0  0  0  0  0  0  0999 V2000
    3.0466   -0.3841   -0.6284 C   0  0  0  0  0  0  0  0  0  0  0  0
    2.0434   -1.2850    0.0496 C   0  0  0  0  0  0  0  0  0  0  0  0
    0.6618   -0.8029   -0.3027 C   0  0  0  0  0  0  0  0  0  0  0  0
    0.5294    0.6201    0.1924 C   0  0  0  0  0  0  0  0  0  0  0  0
   -0.6973    1.1743   -0.0719 O   0  0  0  0  0  0  0  0  0  0  0  0
   -1.7614    0.5218    0.4845 C   0  0  0  0  0  0  0  0  0  0  0  0
   -3.0084    0.3928   -0.3983 C   0  0  0  0  0  0  0  0  0  0  0  0
   -3.0158    1.1963    0.8696 C   0  0  0  0  0  0  0  0  0  0  0  0
    2.7443   -0.1288   -1.6720 H   0  0  0  0  0  0  0  0  0  0  0  0
    4.0341   -0.9152   -0.6057 H   0  0  0  0  0  0  0  0  0  0  0  0
    3.2085    0.5688   -0.0998 H   0  0  0  0  0  0  0  0  0  0  0  0
    2.2338   -2.3210   -0.3065 H   0  0  0  0  0  0  0  0  0  0  0  0
    2.2310   -1.2279    1.1354 H   0  0  0  0  0  0  0  0  0  0  0  0
    0.5853   -0.8263   -1.4165 H   0  0  0  0  0  0  0  0  0  0  0  0
   -0.0790   -1.4879    0.1232 H   0  0  0  0  0  0  0  0  0  0  0  0
    0.8059    0.6653    1.2635 H   0  0  0  0  0  0  0  0  0  0  0  0
    1.2929    1.2142   -0.3745 H   0  0  0  0  0  0  0  0  0  0  0  0
   -1.4980   -0.3834    1.0863 H   0  0  0  0  0  0  0  0  0  0  0  0
   -3.0134    0.9261   -1.3601 H   0  0  0  0  0  0  0  0  0  0  0  0
   -3.5544   -0.5653   -0.3944 H   0  0  0  0  0  0  0  0  0  0  0  0
   -3.1775    2.2768    0.7215 H   0  0  0  0  0  0  0  0  0  0  0  0
   -3.6117    0.7711    1.7046 H   0  0  0  0  0  0  0  0  0  0  0  0
  1  2  1  0
  2  3  1  0
  3  4  1  0
  4  5  1  0
  5  6  1  0
  6  7  1  0
  7  8  1  0
  8  6  1  0
  1  9  1  0
  1 10  1  0
  1 11  1  0
  2 12  1  0
  2 13  1  0
  3 14  1  0
  3 15  1  0
  4 16  1  0
  4 17  1  0
  6 18  1  0
  7 19  1  0
  7 20  1  0
  8 21  1  0
  8 22  1  0
M  END
