
     RDKit          3D

 21 21  0  0  0  0  0  0  0  0999 V2000
   -2.8708   -0.6565   -0.2798 C   0  0  0  0  0  0  0  0  0  0  0  0
   -1.7462    0.3460   -0.5674 C   0  0  0  0  0  0  0  0  0  0  0  0
   -0.4548   -0.4229   -0.4438 C   0  0  0  0  0  0  0  0  0  0  0  0
    0.7613    0.4185   -0.6974 C   0  0  0  0  0  0  0  0  0  0  0  0
    0.9376    1.5957    0.2333 C   0  0  0  0  0  0  0  0  0  0  0  0
    2.3139    1.2650    0.2642 O   0  0  0  0  0  0  0  0  0  0  0  0
    1.9240   -0.0547    0.1793 C   0  0  0  0  0  0  0  0  0  0  0  0
    2.8577   -0.9798   -0.4758 C   0  0  0  0  0  0  0  0  0  0  0  0
    3.9397   -0.6760   -0.9459 O   0  0  0  0  0  0  0  0  0  0  0  0
   -2.5504   -1.6830   -0.6190 H   0  0  0  0  0  0  0  0  0  0  0  0
   -3.0925   -0.7204    0.7880 H   0  0  0  0  0  0  0  0  0  0  0  0
   -3.7562   -0.4058   -0.8851 H   0  0  0  0  0  0  0  0  0  0  0  0
   -1.8049    1.0958    0.2438 H   0  0  0  0  0  0  0  0  0  0  0  0
   -1.8800    0.8404   -1.5297 H   0  0  0  0  0  0  0  0  0  0  0  0
   -0.4212   -0.8820    0.5506 H   0  0  0  0  0  0  0  0  0  0  0  0
   -0.4649   -1.2273   -1.2074 H   0  0  0  0  0  0  0  0  0  0  0  0
    1.0295    0.6241   -1.7289 H   0  0  0  0  0  0  0  0  0  0  0  0
    0.4640    1.3618    1.2270 H   0  0  0  0  0  0  0  0  0  0  0  0
    0.7062    2.5758   -0.1791 H   0  0  0  0  0  0  0  0  0  0  0  0
    1.5435   -0.3934    1.1690 H   0  0  0  0  0  0  0  0  0  0  0  0
    2.5646   -2.0214   -0.5501 H   0  0  0  0  0  0  0  0  0  0  0  0
  1  2  1  0
  2  3  1  0
  3  4  1  0
  4  5  1  0
  5  6  1  0
  6  7  1  0
  7  8  1  0
  8  9  2  0
  7  4  1  0
  1 10  1  0
  1 11  1  0
  1 12  1  0
  2 13  1  0
  2 14  1  0
  3 15  1  0
  3 16  1  0
  4 17  1  0
  5 18  1  0
  5 19  1  0
  7 20  1  0
  8 21  1  0
M  END
