
     RDKit          3D

 24 24  0  0  0  0  0  0  0  0999 V2000
    2.7568   -0.4791    0.4458 C   0  0  0  0  0  0  0  0  0  0  0  0
    1.9591   -0.4541   -0.8343 C   0  0  0  0  0  0  0  0  0  0  0  0
    1.1722    0.8302   -0.9424 C   0  0  0  0  0  0  0  0  0  0  0  0
    0.2106    1.0167    0.1999 C   0  0  0  0  0  0  0  0  0  0  0  0
   -0.7605   -0.1034    0.2139 C   0  0  0  0  0  0  0  0  0  0  0  0
   -1.8080   -0.0458    1.3240 C   0  0  0  0  0  0  0  0  0  0  0  0
   -2.7916   -0.6034    0.3122 C   0  0  0  0  0  0  0  0  0  0  0  0
   -1.9047   -0.0093   -0.7718 C   0  0  0  0  0  0  0  0  0  0  0  0
    2.1933   -1.0873    1.2067 H   0  0  0  0  0  0  0  0  0  0  0  0
    2.9223    0.5671    0.8065 H   0  0  0  0  0  0  0  0  0  0  0  0
    3.6941   -1.0221    0.2509 H   0  0  0  0  0  0  0  0  0  0  0  0
    1.3303   -1.3533   -0.8660 H   0  0  0  0  0  0  0  0  0  0  0  0
    2.6838   -0.5121   -1.6992 H   0  0  0  0  0  0  0  0  0  0  0  0
    1.8352    1.7090   -1.0783 H   0  0  0  0  0  0  0  0  0  0  0  0
    0.5268    0.7715   -1.8695 H   0  0  0  0  0  0  0  0  0  0  0  0
   -0.2505    2.0160    0.0659 H   0  0  0  0  0  0  0  0  0  0  0  0
    0.7921    1.0649    1.1438 H   0  0  0  0  0  0  0  0  0  0  0  0
   -0.3300   -1.1078    0.2119 H   0  0  0  0  0  0  0  0  0  0  0  0
   -1.5662   -0.7119    2.1651 H   0  0  0  0  0  0  0  0  0  0  0  0
   -2.1034    0.9954    1.6075 H   0  0  0  0  0  0  0  0  0  0  0  0
   -3.8020   -0.1819    0.3792 H   0  0  0  0  0  0  0  0  0  0  0  0
   -2.7396   -1.7195    0.3470 H   0  0  0  0  0  0  0  0  0  0  0  0
   -2.2196    1.0458   -0.9466 H   0  0  0  0  0  0  0  0  0  0  0  0
   -1.8006   -0.6258   -1.6722 H   0  0  0  0  0  0  0  0  0  0  0  0
  1  2  1  0
  2  3  1  0
  3  4  1  0
  4  5  1  0
  5  6  1  0
  6  7  1  0
  7  8  1  0
  8  5  1  0
  1  9  1  0
  1 10  1  0
  1 11  1  0
  2 12  1  0
  2 13  1  0
  3 14  1  0
  3 15  1  0
  4 16  1  0
  4 17  1  0
  5 18  1  0
  6 19  1  0
  6 20  1  0
  7 21  1  0
  7 22  1  0
  8 23  1  0
  8 24  1  0
M  END
