
     RDKit          3D

 19 19  0  0  0  0  0  0  0  0999 V2000
    2.6324    0.3287   -0.0177 C   0  0  0  0  0  0  0  0  0  0  0  0
    1.3937   -0.3480   -0.5816 C   0  0  0  0  0  0  0  0  0  0  0  0
    0.3203   -0.2413    0.4785 C   0  0  0  0  0  0  0  0  0  0  0  0
   -0.9745   -0.8791    0.0443 C   0  0  0  0  0  0  0  0  0  0  0  0
   -1.4354   -0.2460   -1.1057 O   0  0  0  0  0  0  0  0  0  0  0  0
   -2.0792    0.9095   -0.7080 C   0  0  0  0  0  0  0  0  0  0  0  0
   -2.7457    0.4967    0.4776 O   0  0  0  0  0  0  0  0  0  0  0  0
   -2.0012   -0.5135    1.0642 C   0  0  0  0  0  0  0  0  0  0  0  0
   -2.1879   -0.9889    2.2144 O   0  0  0  0  0  0  0  0  0  0  0  0
    3.5674   -0.1233   -0.3829 H   0  0  0  0  0  0  0  0  0  0  0  0
    2.5432    1.4139   -0.3172 H   0  0  0  0  0  0  0  0  0  0  0  0
    2.6168    0.3353    1.0867 H   0  0  0  0  0  0  0  0  0  0  0  0
    1.6236   -1.4255   -0.8114 H   0  0  0  0  0  0  0  0  0  0  0  0
    1.0945    0.1034   -1.5461 H   0  0  0  0  0  0  0  0  0  0  0  0
    0.1197    0.8427    0.6172 H   0  0  0  0  0  0  0  0  0  0  0  0
    0.7060   -0.6643    1.4031 H   0  0  0  0  0  0  0  0  0  0  0  0
   -0.9393   -1.9666   -0.0273 H   0  0  0  0  0  0  0  0  0  0  0  0
   -1.3833    1.7366   -0.4772 H   0  0  0  0  0  0  0  0  0  0  0  0
   -2.8714    1.2299   -1.4110 H   0  0  0  0  0  0  0  0  0  0  0  0
  1  2  1  0
  2  3  1  0
  3  4  1  0
  4  5  1  0
  5  6  1  0
  6  7  1  0
  7  8  1  0
  8  9  2  0
  8  4  1  0
  1 10  1  0
  1 11  1  0
  1 12  1  0
  2 13  1  0
  2 14  1  0
  3 15  1  0
  3 16  1  0
  4 17  1  0
  6 18  1  0
  6 19  1  0
M  END
