
     RDKit          3D

 27 26  0  0  0  0  0  0  0  0999 V2000
   -3.9817    0.2041   -0.7467 C   0  0  0  0  0  0  0  0  0  0  0  0
   -3.2346   -0.7185    0.1907 C   0  0  0  0  0  0  0  0  0  0  0  0
   -1.7921   -0.8731   -0.1993 C   0  0  0  0  0  0  0  0  0  0  0  0
   -1.0976    0.4549   -0.1771 C   0  0  0  0  0  0  0  0  0  0  0  0
    0.3579    0.3543   -0.5633 C   0  0  0  0  0  0  0  0  0  0  0  0
    1.1294   -0.5419    0.3602 C   0  0  0  0  0  0  0  0  0  0  0  0
    2.4558   -0.6724    0.0563 O   0  0  0  0  0  0  0  0  0  0  0  0
    3.1717    0.4997    0.0725 C   0  0  0  0  0  0  0  0  0  0  0  0
    4.6324    0.3005   -0.2646 C   0  0  0  0  0  0  0  0  0  0  0  0
   -3.8667   -0.1062   -1.8036 H   0  0  0  0  0  0  0  0  0  0  0  0
   -5.0668    0.1429   -0.4531 H   0  0  0  0  0  0  0  0  0  0  0  0
   -3.6920    1.2558   -0.5609 H   0  0  0  0  0  0  0  0  0  0  0  0
   -3.6968   -1.7270    0.1942 H   0  0  0  0  0  0  0  0  0  0  0  0
   -3.3391   -0.2971    1.2160 H   0  0  0  0  0  0  0  0  0  0  0  0
   -1.7393   -1.3887   -1.1596 H   0  0  0  0  0  0  0  0  0  0  0  0
   -1.3319   -1.5443    0.5791 H   0  0  0  0  0  0  0  0  0  0  0  0
   -1.1061    0.8028    0.8961 H   0  0  0  0  0  0  0  0  0  0  0  0
   -1.6435    1.1854   -0.7924 H   0  0  0  0  0  0  0  0  0  0  0  0
    0.7819    1.3940   -0.4541 H   0  0  0  0  0  0  0  0  0  0  0  0
    0.5113    0.0614   -1.6094 H   0  0  0  0  0  0  0  0  0  0  0  0
    0.6888   -1.5810    0.3242 H   0  0  0  0  0  0  0  0  0  0  0  0
    0.9806   -0.2041    1.4182 H   0  0  0  0  0  0  0  0  0  0  0  0
    3.0148    1.0306    1.0098 H   0  0  0  0  0  0  0  0  0  0  0  0
    2.7743    1.1546   -0.7583 H   0  0  0  0  0  0  0  0  0  0  0  0
    4.8036    0.2477   -1.3622 H   0  0  0  0  0  0  0  0  0  0  0  0
    5.2294    1.1704    0.0929 H   0  0  0  0  0  0  0  0  0  0  0  0
    5.0569   -0.6049    0.2479 H   0  0  0  0  0  0  0  0  0  0  0  0
  1  2  1  0
  2  3  1  0
  3  4  1  0
  4  5  1  0
  5  6  1  0
  6  7  1  0
  7  8  1  0
  8  9  1  0
  1 10  1  0
  1 11  1  0
  1 12  1  0
  2 13  1  0
  2 14  1  0
  3 15  1  0
  3 16  1  0
  4 17  1  0
  4 18  1  0
  5 19  1  0
  5 20  1  0
  6 21  1  0
  6 22  1  0
  8 23  1  0
  8 24  1  0
  9 25  1  0
  9 26  1  0
  9 27  1  0
M  END
