
     RDKit          3D

 23 24  0  0  0  0  0  0  0  0999 V2000
   -3.2769    0.5442    0.3714 C   0  0  0  0  0  0  0  0  0  0  0  0
   -2.1630   -0.1924   -0.3786 C   0  0  0  0  0  0  0  0  0  0  0  0
   -0.9687   -0.2662    0.5858 C   0  0  0  0  0  0  0  0  0  0  0  0
    0.1945   -0.9771   -0.0548 C   0  0  0  0  0  0  0  0  0  0  0  0
    0.8108   -0.4425   -1.3065 C   0  0  0  0  0  0  0  0  0  0  0  0
    1.5056   -0.4370   -0.0132 C   0  0  0  0  0  0  0  0  0  0  0  0
    1.9965    0.8064    0.5987 C   0  0  0  0  0  0  0  0  0  0  0  0
    3.3059    0.1836    0.1046 C   0  0  0  0  0  0  0  0  0  0  0  0
    2.6935   -1.0773    0.2109 O   0  0  0  0  0  0  0  0  0  0  0  0
   -3.3857    0.1520    1.4011 H   0  0  0  0  0  0  0  0  0  0  0  0
   -3.0678    1.6282    0.4352 H   0  0  0  0  0  0  0  0  0  0  0  0
   -4.1892    0.4108   -0.2340 H   0  0  0  0  0  0  0  0  0  0  0  0
   -2.5638   -1.2078   -0.5724 H   0  0  0  0  0  0  0  0  0  0  0  0
   -1.9218    0.3357   -1.2987 H   0  0  0  0  0  0  0  0  0  0  0  0
   -1.3118   -0.8832    1.4310 H   0  0  0  0  0  0  0  0  0  0  0  0
   -0.7089    0.7408    0.9533 H   0  0  0  0  0  0  0  0  0  0  0  0
    0.0742   -2.1007   -0.0211 H   0  0  0  0  0  0  0  0  0  0  0  0
    0.4033    0.5073   -1.7055 H   0  0  0  0  0  0  0  0  0  0  0  0
    1.1846   -1.1765   -2.0526 H   0  0  0  0  0  0  0  0  0  0  0  0
    1.7902    1.7573    0.0398 H   0  0  0  0  0  0  0  0  0  0  0  0
    1.9860    0.9190    1.6794 H   0  0  0  0  0  0  0  0  0  0  0  0
    3.4529    0.4361   -0.9549 H   0  0  0  0  0  0  0  0  0  0  0  0
    4.1597    0.3392    0.7812 H   0  0  0  0  0  0  0  0  0  0  0  0
  1  2  1  0
  2  3  1  0
  3  4  1  0
  4  5  1  0
  5  6  1  0
  6  7  1  0
  7  8  1  0
  8  9  1  0
  6  4  1  0
  9  6  1  0
  1 10  1  0
  1 11  1  0
  1 12  1  0
  2 13  1  0
  2 14  1  0
  3 15  1  0
  3 16  1  0
  4 17  1  0
  5 18  1  0
  5 19  1  0
  7 20  1  0
  7 21  1  0
  8 22  1  0
  8 23  1  0
M  END
