
     RDKit          3D

 24 23  0  0  0  0  0  0  0  0999 V2000
    3.3881   -0.2988    0.0294 C   0  0  0  0  0  0  0  0  0  0  0  0
    1.9123   -0.4416    0.3972 C   0  0  0  0  0  0  0  0  0  0  0  0
    1.1962    0.8680    0.3150 C   0  0  0  0  0  0  0  0  0  0  0  0
   -0.2114    0.7745    0.6945 C   0  0  0  0  0  0  0  0  0  0  0  0
   -1.1771   -0.0665   -0.0041 C   0  0  0  0  0  0  0  0  0  0  0  0
   -1.0255   -1.5259   -0.0812 C   0  0  0  0  0  0  0  0  0  0  0  0
   -2.4434    0.2130    0.5805 O   0  0  0  0  0  0  0  0  0  0  0  0
   -3.3284    0.7850   -0.2898 C   0  0  0  0  0  0  0  0  0  0  0  0
    3.4973    0.0205   -1.0053 H   0  0  0  0  0  0  0  0  0  0  0  0
    3.8769   -1.2630    0.2717 H   0  0  0  0  0  0  0  0  0  0  0  0
    3.8661    0.4631    0.6715 H   0  0  0  0  0  0  0  0  0  0  0  0
    1.8951   -0.7815    1.4489 H   0  0  0  0  0  0  0  0  0  0  0  0
    1.4868   -1.2478   -0.2306 H   0  0  0  0  0  0  0  0  0  0  0  0
    1.3950    1.4107   -0.6420 H   0  0  0  0  0  0  0  0  0  0  0  0
    1.7466    1.5303    1.0612 H   0  0  0  0  0  0  0  0  0  0  0  0
   -0.6344    1.8384    0.6518 H   0  0  0  0  0  0  0  0  0  0  0  0
   -0.2823    0.5915    1.8239 H   0  0  0  0  0  0  0  0  0  0  0  0
   -1.3162    0.2985   -1.0754 H   0  0  0  0  0  0  0  0  0  0  0  0
   -0.5911   -1.9548   -0.9908 H   0  0  0  0  0  0  0  0  0  0  0  0
   -0.4838   -1.9580    0.7853 H   0  0  0  0  0  0  0  0  0  0  0  0
   -2.0481   -2.0449    0.0055 H   0  0  0  0  0  0  0  0  0  0  0  0
   -4.2693    0.9563    0.2681 H   0  0  0  0  0  0  0  0  0  0  0  0
   -2.9024    1.7456   -0.6373 H   0  0  0  0  0  0  0  0  0  0  0  0
   -3.5469    0.0876   -1.1248 H   0  0  0  0  0  0  0  0  0  0  0  0
  1  2  1  0
  2  3  1  0
  3  4  1  0
  4  5  1  0
  5  6  1  0
  5  7  1  0
  7  8  1  0
  1  9  1  0
  1 10  1  0
  1 11  1  0
  2 12  1  0
  2 13  1  0
  3 14  1  0
  3 15  1  0
  4 16  1  0
  4 17  1  0
  5 18  1  0
  6 19  1  0
  6 20  1  0
  6 21  1  0
  8 22  1  0
  8 23  1  0
  8 24  1  0
M  END
