
     RDKit          3D

 29 28  0  0  0  0  0  0  0  0999 V2000
    3.6889    0.7858    0.6895 C   0  0  0  0  0  0  0  0  0  0  0  0
    2.6398    0.0634   -0.1369 C   0  0  0  0  0  0  0  0  0  0  0  0
    1.3125    0.2606    0.5658 C   0  0  0  0  0  0  0  0  0  0  0  0
    0.2138   -0.4391   -0.2098 C   0  0  0  0  0  0  0  0  0  0  0  0
   -1.1251   -0.2851    0.4277 C   0  0  0  0  0  0  0  0  0  0  0  0
   -1.5723    1.1428    0.5587 C   0  0  0  0  0  0  0  0  0  0  0  0
   -1.6822    1.8543   -0.7520 C   0  0  0  0  0  0  0  0  0  0  0  0
   -2.1381   -1.0363   -0.4115 C   0  0  0  0  0  0  0  0  0  0  0  0
   -1.7591   -2.4947   -0.4736 C   0  0  0  0  0  0  0  0  0  0  0  0
    3.4303    0.5766    1.7581 H   0  0  0  0  0  0  0  0  0  0  0  0
    4.7146    0.4200    0.4688 H   0  0  0  0  0  0  0  0  0  0  0  0
    3.5799    1.8688    0.4738 H   0  0  0  0  0  0  0  0  0  0  0  0
    2.5990    0.4790   -1.1631 H   0  0  0  0  0  0  0  0  0  0  0  0
    2.8605   -1.0218   -0.2211 H   0  0  0  0  0  0  0  0  0  0  0  0
    1.0954    1.3454    0.5964 H   0  0  0  0  0  0  0  0  0  0  0  0
    1.4184   -0.1313    1.5812 H   0  0  0  0  0  0  0  0  0  0  0  0
    0.2144   -0.1602   -1.2667 H   0  0  0  0  0  0  0  0  0  0  0  0
    0.4691   -1.5313   -0.1749 H   0  0  0  0  0  0  0  0  0  0  0  0
   -1.0794   -0.7306    1.4374 H   0  0  0  0  0  0  0  0  0  0  0  0
   -2.5904    1.1323    1.0168 H   0  0  0  0  0  0  0  0  0  0  0  0
   -0.9367    1.7193    1.2597 H   0  0  0  0  0  0  0  0  0  0  0  0
   -2.3891    1.3681   -1.4253 H   0  0  0  0  0  0  0  0  0  0  0  0
   -0.6626    1.9870   -1.1668 H   0  0  0  0  0  0  0  0  0  0  0  0
   -2.0646    2.8781   -0.5441 H   0  0  0  0  0  0  0  0  0  0  0  0
   -3.1821   -0.8890   -0.0358 H   0  0  0  0  0  0  0  0  0  0  0  0
   -2.1352   -0.6556   -1.4517 H   0  0  0  0  0  0  0  0  0  0  0  0
   -1.1406   -2.7053    0.4351 H   0  0  0  0  0  0  0  0  0  0  0  0
   -2.6615   -3.1363   -0.4753 H   0  0  0  0  0  0  0  0  0  0  0  0
   -1.1177   -2.6648   -1.3603 H   0  0  0  0  0  0  0  0  0  0  0  0
  1  2  1  0
  2  3  1  0
  3  4  1  0
  4  5  1  0
  5  6  1  0
  6  7  1  0
  5  8  1  0
  8  9  1  0
  1 10  1  0
  1 11  1  0
  1 12  1  0
  2 13  1  0
  2 14  1  0
  3 15  1  0
  3 16  1  0
  4 17  1  0
  4 18  1  0
  5 19  1  0
  6 20  1  0
  6 21  1  0
  7 22  1  0
  7 23  1  0
  7 24  1  0
  8 25  1  0
  8 26  1  0
  9 27  1  0
  9 28  1  0
  9 29  1  0
M  END
