
     RDKit          3D

 20 19  0  0  0  0  0  0  0  0999 V2000
    2.5679    0.4044   -0.9589 C   0  0  0  0  0  0  0  0  0  0  0  0
    2.5461   -0.2140    0.4545 C   0  0  0  0  0  0  0  0  0  0  0  0
    1.7909   -1.4901    0.4286 C   0  0  0  0  0  0  0  0  0  0  0  0
    0.2431   -0.8751    0.2071 C   0  0  0  0  0  0  0  0  0  0  0  0
   -1.0745   -0.3329    0.0025 C   0  0  0  0  0  0  0  0  0  0  0  0
   -2.0927    0.0788   -0.1709 C   0  0  0  0  0  0  0  0  0  0  0  0
   -2.9089    0.9792    0.7764 C   0  0  0  0  0  0  0  0  0  0  0  0
   -2.5917    0.3260   -1.5776 O   0  0  0  0  0  0  0  0  0  0  0  0
    3.6373    0.8034   -1.0054 H   0  0  0  0  0  0  0  0  0  0  0  0
    1.7317    0.9425   -1.2609 H   0  0  0  0  0  0  0  0  0  0  0  0
    2.6763   -0.5996   -1.5899 H   0  0  0  0  0  0  0  0  0  0  0  0
    2.0710    0.4815    1.2350 H   0  0  0  0  0  0  0  0  0  0  0  0
    3.5879   -0.4131    0.8500 H   0  0  0  0  0  0  0  0  0  0  0  0
    1.6290   -1.9975    1.3805 H   0  0  0  0  0  0  0  0  0  0  0  0
    1.8741   -2.0722   -0.4248 H   0  0  0  0  0  0  0  0  0  0  0  0
   -3.0354   -0.8730   -0.0837 H   0  0  0  0  0  0  0  0  0  0  0  0
   -3.2697    0.4325    1.6443 H   0  0  0  0  0  0  0  0  0  0  0  0
   -3.8273    1.1985    0.0594 H   0  0  0  0  0  0  0  0  0  0  0  0
   -2.4909    2.0067    0.8756 H   0  0  0  0  0  0  0  0  0  0  0  0
   -3.0641    1.2141   -1.4446 H   0  0  0  0  0  0  0  0  0  0  0  0
  1  2  1  0
  2  3  1  0
  3  4  1  0
  4  5  3  0
  5  6  1  0
  6  7  1  0
  6  8  1  0
  1  9  1  0
  1 10  1  0
  1 11  1  0
  2 12  1  0
  2 13  1  0
  3 14  1  0
  3 15  1  0
  6 16  1  0
  7 17  1  0
  7 18  1  0
  7 19  1  0
  8 20  1  0
M  END
