
     RDKit          3D

 27 27  0  0  0  0  0  0  0  0999 V2000
   -3.4178   -0.3865    0.2671 C   0  0  0  0  0  0  0  0  0  0  0  0
   -2.5296    0.7991   -0.0373 C   0  0  0  0  0  0  0  0  0  0  0  0
   -1.2329    0.3601   -0.6689 C   0  0  0  0  0  0  0  0  0  0  0  0
   -0.4283   -0.5522    0.1771 C   0  0  0  0  0  0  0  0  0  0  0  0
    0.8353   -0.9304   -0.5391 C   0  0  0  0  0  0  0  0  0  0  0  0
    1.8787   -0.0155   -0.9650 C   0  0  0  0  0  0  0  0  0  0  0  0
    1.8615    1.4525   -0.6913 C   0  0  0  0  0  0  0  0  0  0  0  0
    2.1600   -0.9831    0.1220 C   0  0  0  0  0  0  0  0  0  0  0  0
    2.2122   -0.5449    1.5635 C   0  0  0  0  0  0  0  0  0  0  0  0
   -3.1058   -0.7695    1.2607 H   0  0  0  0  0  0  0  0  0  0  0  0
   -4.4632   -0.0265    0.2686 H   0  0  0  0  0  0  0  0  0  0  0  0
   -3.3255   -1.1362   -0.5381 H   0  0  0  0  0  0  0  0  0  0  0  0
   -3.0973    1.4936   -0.6842 H   0  0  0  0  0  0  0  0  0  0  0  0
   -2.2955    1.3495    0.9026 H   0  0  0  0  0  0  0  0  0  0  0  0
   -1.5231   -0.1209   -1.6450 H   0  0  0  0  0  0  0  0  0  0  0  0
   -0.6422    1.2407   -0.9508 H   0  0  0  0  0  0  0  0  0  0  0  0
   -0.2216   -0.0214    1.1462 H   0  0  0  0  0  0  0  0  0  0  0  0
   -0.9556   -1.4922    0.4555 H   0  0  0  0  0  0  0  0  0  0  0  0
    0.6212   -1.8117   -1.2470 H   0  0  0  0  0  0  0  0  0  0  0  0
    2.3957   -0.2518   -1.9432 H   0  0  0  0  0  0  0  0  0  0  0  0
    1.3277    1.7452    0.2239 H   0  0  0  0  0  0  0  0  0  0  0  0
    1.4965    1.9826   -1.5865 H   0  0  0  0  0  0  0  0  0  0  0  0
    2.9331    1.8339   -0.5831 H   0  0  0  0  0  0  0  0  0  0  0  0
    2.8184   -1.8465   -0.0940 H   0  0  0  0  0  0  0  0  0  0  0  0
    1.6771    0.3744    1.7777 H   0  0  0  0  0  0  0  0  0  0  0  0
    3.2791   -0.3810    1.8432 H   0  0  0  0  0  0  0  0  0  0  0  0
    1.7419   -1.3611    2.1653 H   0  0  0  0  0  0  0  0  0  0  0  0
  1  2  1  0
  2  3  1  0
  3  4  1  0
  4  5  1  0
  5  6  1  0
  6  7  1  0
  6  8  1  0
  8  9  1  0
  8  5  1  0
  1 10  1  0
  1 11  1  0
  1 12  1  0
  2 13  1  0
  2 14  1  0
  3 15  1  0
  3 16  1  0
  4 17  1  0
  4 18  1  0
  5 19  1  0
  6 20  1  0
  7 21  1  0
  7 22  1  0
  7 23  1  0
  8 24  1  0
  9 25  1  0
  9 26  1  0
  9 27  1  0
M  END
