
     RDKit          3D

 19 19  0  0  0  0  0  0  0  0999 V2000
    2.6776   -0.0862    0.5350 C   0  0  0  0  0  0  0  0  0  0  0  0
    1.1687   -0.3668    0.4704 C   0  0  0  0  0  0  0  0  0  0  0  0
    0.6501    0.3876   -0.7036 C   0  0  0  0  0  0  0  0  0  0  0  0
   -0.8123    0.2465   -0.9432 C   0  0  0  0  0  0  0  0  0  0  0  0
   -1.2720   -1.0693   -1.1815 O   0  0  0  0  0  0  0  0  0  0  0  0
   -2.1294   -1.0528   -0.0942 C   0  0  0  0  0  0  0  0  0  0  0  0
   -2.9254   -1.8969    0.3746 O   0  0  0  0  0  0  0  0  0  0  0  0
   -1.7153    0.3171    0.2476 C   0  0  0  0  0  0  0  0  0  0  0  0
   -2.6959    1.2962    0.1160 O   0  0  0  0  0  0  0  0  0  0  0  0
    3.1734   -0.6218   -0.2869 H   0  0  0  0  0  0  0  0  0  0  0  0
    3.0951   -0.4014    1.5126 H   0  0  0  0  0  0  0  0  0  0  0  0
    2.8488    1.0240    0.4399 H   0  0  0  0  0  0  0  0  0  0  0  0
    1.0754   -1.4653    0.2906 H   0  0  0  0  0  0  0  0  0  0  0  0
    0.7214   -0.1252    1.4270 H   0  0  0  0  0  0  0  0  0  0  0  0
    1.1768   -0.0106   -1.6133 H   0  0  0  0  0  0  0  0  0  0  0  0
    0.8816    1.4678   -0.6131 H   0  0  0  0  0  0  0  0  0  0  0  0
   -1.1375    0.9115   -1.7691 H   0  0  0  0  0  0  0  0  0  0  0  0
   -1.2444    0.3868    1.2357 H   0  0  0  0  0  0  0  0  0  0  0  0
   -3.5370    1.0590    0.5553 H   0  0  0  0  0  0  0  0  0  0  0  0
  1  2  1  0
  2  3  1  0
  3  4  1  0
  4  5  1  0
  5  6  1  0
  6  7  2  0
  6  8  1  0
  8  9  1  0
  8  4  1  0
  1 10  1  0
  1 11  1  0
  1 12  1  0
  2 13  1  0
  2 14  1  0
  3 15  1  0
  3 16  1  0
  4 17  1  0
  8 18  1  0
  9 19  1  0
M  END
