
     RDKit          3D

 27 27  0  0  0  0  0  0  0  0999 V2000
    3.8292   -0.1107    0.5247 C   0  0  0  0  0  0  0  0  0  0  0  0
    2.4157    0.1855    0.9883 C   0  0  0  0  0  0  0  0  0  0  0  0
    1.5544    0.2415   -0.2262 C   0  0  0  0  0  0  0  0  0  0  0  0
    0.1161    0.5269    0.0519 C   0  0  0  0  0  0  0  0  0  0  0  0
   -0.5943   -0.4721    0.9377 C   0  0  0  0  0  0  0  0  0  0  0  0
   -1.8366   -0.1771    0.1009 C   0  0  0  0  0  0  0  0  0  0  0  0
   -2.5604    1.0797    0.4730 C   0  0  0  0  0  0  0  0  0  0  0  0
   -2.7349   -1.3394   -0.1441 C   0  0  0  0  0  0  0  0  0  0  0  0
   -0.8532    0.1258   -1.0407 C   0  0  0  0  0  0  0  0  0  0  0  0
    4.4383   -0.5679    1.3306 H   0  0  0  0  0  0  0  0  0  0  0  0
    3.7567   -0.7516   -0.3761 H   0  0  0  0  0  0  0  0  0  0  0  0
    4.2741    0.8665    0.2129 H   0  0  0  0  0  0  0  0  0  0  0  0
    2.4454    1.1711    1.5262 H   0  0  0  0  0  0  0  0  0  0  0  0
    2.1377   -0.5928    1.7110 H   0  0  0  0  0  0  0  0  0  0  0  0
    1.6714   -0.7025   -0.7863 H   0  0  0  0  0  0  0  0  0  0  0  0
    1.9451    1.0438   -0.8861 H   0  0  0  0  0  0  0  0  0  0  0  0
   -0.0812    1.5646    0.3653 H   0  0  0  0  0  0  0  0  0  0  0  0
   -0.2592   -1.4985    0.7469 H   0  0  0  0  0  0  0  0  0  0  0  0
   -0.6244   -0.1270    1.9656 H   0  0  0  0  0  0  0  0  0  0  0  0
   -3.6443    0.9369    0.2649 H   0  0  0  0  0  0  0  0  0  0  0  0
   -2.2555    1.9627   -0.1480 H   0  0  0  0  0  0  0  0  0  0  0  0
   -2.3730    1.3993    1.5262 H   0  0  0  0  0  0  0  0  0  0  0  0
   -2.5390   -2.2205    0.4840 H   0  0  0  0  0  0  0  0  0  0  0  0
   -3.8095   -1.0380   -0.0108 H   0  0  0  0  0  0  0  0  0  0  0  0
   -2.6577   -1.6301   -1.2233 H   0  0  0  0  0  0  0  0  0  0  0  0
   -0.5615   -0.8134   -1.5335 H   0  0  0  0  0  0  0  0  0  0  0  0
   -1.1994    0.9374   -1.6810 H   0  0  0  0  0  0  0  0  0  0  0  0
  1  2  1  0
  2  3  1  0
  3  4  1  0
  4  5  1  0
  5  6  1  0
  6  7  1  0
  6  8  1  0
  6  9  1  0
  9  4  1  0
  1 10  1  0
  1 11  1  0
  1 12  1  0
  2 13  1  0
  2 14  1  0
  3 15  1  0
  3 16  1  0
  4 17  1  0
  5 18  1  0
  5 19  1  0
  7 20  1  0
  7 21  1  0
  7 22  1  0
  8 23  1  0
  8 24  1  0
  8 25  1  0
  9 26  1  0
  9 27  1  0
M  END
