
     RDKit          3D

 27 26  0  0  0  0  0  0  0  0999 V2000
   -3.6143   -0.6217    0.6900 C   0  0  0  0  0  0  0  0  0  0  0  0
   -2.2447   -0.0702    1.0301 C   0  0  0  0  0  0  0  0  0  0  0  0
   -1.8686    0.8818   -0.0928 C   0  0  0  0  0  0  0  0  0  0  0  0
   -0.5209    1.4971    0.1315 C   0  0  0  0  0  0  0  0  0  0  0  0
    0.5200    0.6107    0.2165 O   0  0  0  0  0  0  0  0  0  0  0  0
    0.6493   -0.1284   -0.9285 C   0  0  0  0  0  0  0  0  0  0  0  0
    1.7761   -1.1155   -0.8938 C   0  0  0  0  0  0  0  0  0  0  0  0
    3.1221   -0.4453   -0.6906 C   0  0  0  0  0  0  0  0  0  0  0  0
    3.0829    0.2857    0.6191 C   0  0  0  0  0  0  0  0  0  0  0  0
   -3.7477   -0.7597   -0.3984 H   0  0  0  0  0  0  0  0  0  0  0  0
   -3.7612   -1.5368    1.2729 H   0  0  0  0  0  0  0  0  0  0  0  0
   -4.3675    0.1177    1.0458 H   0  0  0  0  0  0  0  0  0  0  0  0
   -2.2770    0.5467    1.9653 H   0  0  0  0  0  0  0  0  0  0  0  0
   -1.5230   -0.8897    1.0749 H   0  0  0  0  0  0  0  0  0  0  0  0
   -1.9991    0.3661   -1.0436 H   0  0  0  0  0  0  0  0  0  0  0  0
   -2.5998    1.7433   -0.1116 H   0  0  0  0  0  0  0  0  0  0  0  0
   -0.6045    2.1408    1.0406 H   0  0  0  0  0  0  0  0  0  0  0  0
   -0.3391    2.2194   -0.7077 H   0  0  0  0  0  0  0  0  0  0  0  0
    0.6962    0.5540   -1.7853 H   0  0  0  0  0  0  0  0  0  0  0  0
   -0.2899   -0.7379   -1.0348 H   0  0  0  0  0  0  0  0  0  0  0  0
    1.5783   -1.8767   -0.1105 H   0  0  0  0  0  0  0  0  0  0  0  0
    1.8565   -1.6772   -1.8469 H   0  0  0  0  0  0  0  0  0  0  0  0
    3.2945    0.2595   -1.5427 H   0  0  0  0  0  0  0  0  0  0  0  0
    3.9401   -1.1662   -0.7175 H   0  0  0  0  0  0  0  0  0  0  0  0
    2.3959   -0.1980    1.3391 H   0  0  0  0  0  0  0  0  0  0  0  0
    2.7283    1.3198    0.4500 H   0  0  0  0  0  0  0  0  0  0  0  0
    4.1171    0.2676    1.0289 H   0  0  0  0  0  0  0  0  0  0  0  0
  1  2  1  0
  2  3  1  0
  3  4  1  0
  4  5  1  0
  5  6  1  0
  6  7  1  0
  7  8  1  0
  8  9  1  0
  1 10  1  0
  1 11  1  0
  1 12  1  0
  2 13  1  0
  2 14  1  0
  3 15  1  0
  3 16  1  0
  4 17  1  0
  4 18  1  0
  6 19  1  0
  6 20  1  0
  7 21  1  0
  7 22  1  0
  8 23  1  0
  8 24  1  0
  9 25  1  0
  9 26  1  0
  9 27  1  0
M  END
