
     RDKit          3D

 23 24  0  0  0  0  0  0  0  0999 V2000
   -3.4260   -0.4800   -0.0123 C   0  0  0  0  0  0  0  0  0  0  0  0
   -1.9253   -0.6798   -0.0535 C   0  0  0  0  0  0  0  0  0  0  0  0
   -1.2898    0.6806    0.0648 C   0  0  0  0  0  0  0  0  0  0  0  0
    0.1987    0.6217    0.0372 C   0  0  0  0  0  0  0  0  0  0  0  0
    1.0809    1.0163    0.9564 C   0  0  0  0  0  0  0  0  0  0  0  0
    2.3986    0.7473    0.4479 C   0  0  0  0  0  0  0  0  0  0  0  0
    3.2818   -0.3315    0.3527 C   0  0  0  0  0  0  0  0  0  0  0  0
    2.0306   -0.6383   -0.1818 C   0  0  0  0  0  0  0  0  0  0  0  0
    1.0414    0.0289   -1.0936 C   0  0  0  0  0  0  0  0  0  0  0  0
   -3.8309   -0.1935   -1.0109 H   0  0  0  0  0  0  0  0  0  0  0  0
   -3.9558   -1.3868    0.3405 H   0  0  0  0  0  0  0  0  0  0  0  0
   -3.6191    0.3676    0.6856 H   0  0  0  0  0  0  0  0  0  0  0  0
   -1.5584   -1.4013    0.6722 H   0  0  0  0  0  0  0  0  0  0  0  0
   -1.6956   -1.0651   -1.0864 H   0  0  0  0  0  0  0  0  0  0  0  0
   -1.5881    1.2890   -0.8299 H   0  0  0  0  0  0  0  0  0  0  0  0
   -1.6637    1.2441    0.9393 H   0  0  0  0  0  0  0  0  0  0  0  0
    0.7516    1.4620    1.9132 H   0  0  0  0  0  0  0  0  0  0  0  0
    2.6492    1.5819   -0.2917 H   0  0  0  0  0  0  0  0  0  0  0  0
    3.6310   -0.7938    1.3234 H   0  0  0  0  0  0  0  0  0  0  0  0
    4.1669   -0.3083   -0.3397 H   0  0  0  0  0  0  0  0  0  0  0  0
    1.4169   -1.3380    0.4728 H   0  0  0  0  0  0  0  0  0  0  0  0
    1.4373    0.8990   -1.6224 H   0  0  0  0  0  0  0  0  0  0  0  0
    0.4678   -0.6805   -1.6835 H   0  0  0  0  0  0  0  0  0  0  0  0
  1  2  1  0
  2  3  1  0
  3  4  1  0
  4  5  2  0
  5  6  1  0
  6  7  1  0
  7  8  1  0
  8  9  1  0
  9  4  1  0
  8  6  1  0
  1 10  1  0
  1 11  1  0
  1 12  1  0
  2 13  1  0
  2 14  1  0
  3 15  1  0
  3 16  1  0
  5 17  1  0
  6 18  1  0
  7 19  1  0
  7 20  1  0
  8 21  1  0
  9 22  1  0
  9 23  1  0
M  END
