
     RDKit          3D

 23 23  0  0  0  0  0  0  0  0999 V2000
    3.2992    0.3802   -0.0161 C   0  0  0  0  0  0  0  0  0  0  0  0
    2.0552   -0.4101   -0.2967 C   0  0  0  0  0  0  0  0  0  0  0  0
    0.8454    0.1856    0.4049 C   0  0  0  0  0  0  0  0  0  0  0  0
   -0.3814   -0.6451    0.0911 C   0  0  0  0  0  0  0  0  0  0  0  0
   -0.2079   -1.9543    0.5255 O   0  0  0  0  0  0  0  0  0  0  0  0
   -1.6026   -0.0701    0.7301 C   0  0  0  0  0  0  0  0  0  0  0  0
   -1.9661    1.3326    0.3203 C   0  0  0  0  0  0  0  0  0  0  0  0
   -2.4656    0.7863   -0.8776 O   0  0  0  0  0  0  0  0  0  0  0  0
   -2.8564   -0.3252   -0.1035 C   0  0  0  0  0  0  0  0  0  0  0  0
    4.1742   -0.2808    0.2258 H   0  0  0  0  0  0  0  0  0  0  0  0
    3.6270    1.0014   -0.8757 H   0  0  0  0  0  0  0  0  0  0  0  0
    3.2033    1.0643    0.8489 H   0  0  0  0  0  0  0  0  0  0  0  0
    1.8603   -0.4065   -1.3906 H   0  0  0  0  0  0  0  0  0  0  0  0
    2.2367   -1.4519    0.0195 H   0  0  0  0  0  0  0  0  0  0  0  0
    0.7067    1.2427    0.1661 H   0  0  0  0  0  0  0  0  0  0  0  0
    1.0391    0.1144    1.4991 H   0  0  0  0  0  0  0  0  0  0  0  0
   -0.5423   -0.6511   -1.0251 H   0  0  0  0  0  0  0  0  0  0  0  0
   -0.6316   -2.0620    1.4155 H   0  0  0  0  0  0  0  0  0  0  0  0
   -1.7322   -0.2612    1.8070 H   0  0  0  0  0  0  0  0  0  0  0  0
   -2.8333    1.6751    0.9549 H   0  0  0  0  0  0  0  0  0  0  0  0
   -1.1635    2.0528    0.2150 H   0  0  0  0  0  0  0  0  0  0  0  0
   -3.7903   -0.0543    0.4428 H   0  0  0  0  0  0  0  0  0  0  0  0
   -2.8741   -1.2629   -0.6553 H   0  0  0  0  0  0  0  0  0  0  0  0
  1  2  1  0
  2  3  1  0
  3  4  1  0
  4  5  1  0
  4  6  1  0
  6  7  1  0
  7  8  1  0
  8  9  1  0
  9  6  1  0
  1 10  1  0
  1 11  1  0
  1 12  1  0
  2 13  1  0
  2 14  1  0
  3 15  1  0
  3 16  1  0
  4 17  1  0
  5 18  1  0
  6 19  1  0
  7 20  1  0
  7 21  1  0
  9 22  1  0
  9 23  1  0
M  END
