
     RDKit          3D

 25 24  0  0  0  0  0  0  0  0999 V2000
   -3.9283   -0.2829    0.4591 C   0  0  0  0  0  0  0  0  0  0  0  0
   -2.5957    0.4185    0.5688 C   0  0  0  0  0  0  0  0  0  0  0  0
   -1.5230   -0.2490   -0.2539 C   0  0  0  0  0  0  0  0  0  0  0  0
   -0.2348    0.5600   -0.0141 C   0  0  0  0  0  0  0  0  0  0  0  0
    0.8567   -0.0605   -0.8099 C   0  0  0  0  0  0  0  0  0  0  0  0
    0.6497   -0.2898   -1.9843 O   0  0  0  0  0  0  0  0  0  0  0  0
    2.1317   -0.3578   -0.0988 C   0  0  0  0  0  0  0  0  0  0  0  0
    3.1474   -0.9862   -1.0282 C   0  0  0  0  0  0  0  0  0  0  0  0
    2.6264    0.9173    0.5181 C   0  0  0  0  0  0  0  0  0  0  0  0
   -3.7867   -1.1870   -0.1665 H   0  0  0  0  0  0  0  0  0  0  0  0
   -4.2202   -0.5852    1.5020 H   0  0  0  0  0  0  0  0  0  0  0  0
   -4.7197    0.3725    0.0764 H   0  0  0  0  0  0  0  0  0  0  0  0
   -2.7589    1.4714    0.1882 H   0  0  0  0  0  0  0  0  0  0  0  0
   -2.2319    0.5503    1.5997 H   0  0  0  0  0  0  0  0  0  0  0  0
   -1.6931   -0.2199   -1.3237 H   0  0  0  0  0  0  0  0  0  0  0  0
   -1.3934   -1.2993    0.1246 H   0  0  0  0  0  0  0  0  0  0  0  0
   -0.4650    1.5988   -0.3168 H   0  0  0  0  0  0  0  0  0  0  0  0
   -0.0688    0.5466    1.0673 H   0  0  0  0  0  0  0  0  0  0  0  0
    1.9616   -1.0818    0.7495 H   0  0  0  0  0  0  0  0  0  0  0  0
    4.1501   -0.6591   -0.7259 H   0  0  0  0  0  0  0  0  0  0  0  0
    3.0934   -2.1106   -0.9113 H   0  0  0  0  0  0  0  0  0  0  0  0
    2.9022   -0.8177   -2.0940 H   0  0  0  0  0  0  0  0  0  0  0  0
    3.3387    0.6949    1.3431 H   0  0  0  0  0  0  0  0  0  0  0  0
    1.7444    1.4181    0.9985 H   0  0  0  0  0  0  0  0  0  0  0  0
    3.0172    1.6386   -0.2162 H   0  0  0  0  0  0  0  0  0  0  0  0
  1  2  1  0
  2  3  1  0
  3  4  1  0
  4  5  1  0
  5  6  2  0
  5  7  1  0
  7  8  1  0
  7  9  1  0
  1 10  1  0
  1 11  1  0
  1 12  1  0
  2 13  1  0
  2 14  1  0
  3 15  1  0
  3 16  1  0
  4 17  1  0
  4 18  1  0
  7 19  1  0
  8 20  1  0
  8 21  1  0
  8 22  1  0
  9 23  1  0
  9 24  1  0
  9 25  1  0
M  END
