
     RDKit          3D

 24 23  0  0  0  0  0  0  0  0999 V2000
    2.4933    0.4207   -0.7587 C   0  0  0  0  0  0  0  0  0  0  0  0
    2.0208   -0.1932    0.5256 C   0  0  0  0  0  0  0  0  0  0  0  0
    0.7058    0.2255    1.0201 C   0  0  0  0  0  0  0  0  0  0  0  0
   -0.4957   -0.0319    0.1688 C   0  0  0  0  0  0  0  0  0  0  0  0
   -0.6709   -1.5060   -0.1315 C   0  0  0  0  0  0  0  0  0  0  0  0
   -0.5088    0.8546   -1.0239 C   0  0  0  0  0  0  0  0  0  0  0  0
   -1.5752    0.3475    1.0005 O   0  0  0  0  0  0  0  0  0  0  0  0
   -2.8098    0.1638    0.4659 C   0  0  0  0  0  0  0  0  0  0  0  0
    1.9359    0.0827   -1.6487 H   0  0  0  0  0  0  0  0  0  0  0  0
    3.5333   -0.0239   -0.9174 H   0  0  0  0  0  0  0  0  0  0  0  0
    2.6223    1.5237   -0.7151 H   0  0  0  0  0  0  0  0  0  0  0  0
    2.7802    0.1372    1.3028 H   0  0  0  0  0  0  0  0  0  0  0  0
    2.1536   -1.2921    0.4145 H   0  0  0  0  0  0  0  0  0  0  0  0
    0.7276    1.3466    1.1722 H   0  0  0  0  0  0  0  0  0  0  0  0
    0.4644   -0.1631    2.0487 H   0  0  0  0  0  0  0  0  0  0  0  0
   -0.8951   -2.0283    0.8111 H   0  0  0  0  0  0  0  0  0  0  0  0
   -1.4640   -1.6522   -0.8637 H   0  0  0  0  0  0  0  0  0  0  0  0
    0.2513   -1.9579   -0.5432 H   0  0  0  0  0  0  0  0  0  0  0  0
   -1.4532    1.4693   -1.1286 H   0  0  0  0  0  0  0  0  0  0  0  0
   -0.3935    0.3389   -1.9981 H   0  0  0  0  0  0  0  0  0  0  0  0
    0.2853    1.6453   -0.9609 H   0  0  0  0  0  0  0  0  0  0  0  0
   -3.0392   -0.8906    0.1849 H   0  0  0  0  0  0  0  0  0  0  0  0
   -3.1338    0.8408   -0.3165 H   0  0  0  0  0  0  0  0  0  0  0  0
   -3.5347    0.3425    1.3279 H   0  0  0  0  0  0  0  0  0  0  0  0
  1  2  1  0
  2  3  1  0
  3  4  1  0
  4  5  1  0
  4  6  1  0
  4  7  1  0
  7  8  1  0
  1  9  1  0
  1 10  1  0
  1 11  1  0
  2 12  1  0
  2 13  1  0
  3 14  1  0
  3 15  1  0
  5 16  1  0
  5 17  1  0
  5 18  1  0
  6 19  1  0
  6 20  1  0
  6 21  1  0
  8 22  1  0
  8 23  1  0
  8 24  1  0
M  END
