
     RDKit          3D

 25 24  0  0  0  0  0  0  0  0999 V2000
    3.6234   -0.4395   -1.1608 C   0  0  0  0  0  0  0  0  0  0  0  0
    3.3368   -0.9361    0.2477 C   0  0  0  0  0  0  0  0  0  0  0  0
    1.8196   -1.0203    0.4517 C   0  0  0  0  0  0  0  0  0  0  0  0
    1.3065    0.4038    0.2392 C   0  0  0  0  0  0  0  0  0  0  0  0
   -0.1453    0.4724    0.4054 C   0  0  0  0  0  0  0  0  0  0  0  0
   -1.3441    0.5279    0.5233 C   0  0  0  0  0  0  0  0  0  0  0  0
   -2.8183    0.5710    0.6743 C   0  0  0  0  0  0  0  0  0  0  0  0
   -3.3742   -0.6895    0.0501 C   0  0  0  0  0  0  0  0  0  0  0  0
   -3.3352    1.7706   -0.1225 C   0  0  0  0  0  0  0  0  0  0  0  0
    4.5301   -0.9193   -1.5720 H   0  0  0  0  0  0  0  0  0  0  0  0
    3.7562    0.6592   -1.1408 H   0  0  0  0  0  0  0  0  0  0  0  0
    2.7677   -0.6878   -1.8346 H   0  0  0  0  0  0  0  0  0  0  0  0
    3.6860   -0.1725    0.9741 H   0  0  0  0  0  0  0  0  0  0  0  0
    3.7540   -1.9383    0.4247 H   0  0  0  0  0  0  0  0  0  0  0  0
    1.4318   -1.7000   -0.3041 H   0  0  0  0  0  0  0  0  0  0  0  0
    1.6347   -1.3703    1.4690 H   0  0  0  0  0  0  0  0  0  0  0  0
    1.8378    1.0822    0.9438 H   0  0  0  0  0  0  0  0  0  0  0  0
    1.5261    0.6674   -0.8187 H   0  0  0  0  0  0  0  0  0  0  0  0
   -3.1265    0.6132    1.7220 H   0  0  0  0  0  0  0  0  0  0  0  0
   -2.6565   -1.0637   -0.7232 H   0  0  0  0  0  0  0  0  0  0  0  0
   -4.3400   -0.4493   -0.4255 H   0  0  0  0  0  0  0  0  0  0  0  0
   -3.4447   -1.4428    0.8548 H   0  0  0  0  0  0  0  0  0  0  0  0
   -2.5852    2.5856   -0.0995 H   0  0  0  0  0  0  0  0  0  0  0  0
   -4.2973    2.0655    0.3760 H   0  0  0  0  0  0  0  0  0  0  0  0
   -3.5433    1.4108   -1.1544 H   0  0  0  0  0  0  0  0  0  0  0  0
  1  2  1  0
  2  3  1  0
  3  4  1  0
  4  5  1  0
  5  6  3  0
  6  7  1  0
  7  8  1  0
  7  9  1  0
  1 10  1  0
  1 11  1  0
  1 12  1  0
  2 13  1  0
  2 14  1  0
  3 15  1  0
  3 16  1  0
  4 17  1  0
  4 18  1  0
  7 19  1  0
  8 20  1  0
  8 21  1  0
  8 22  1  0
  9 23  1  0
  9 24  1  0
  9 25  1  0
M  END
