
     RDKit          3D

 23 22  0  0  0  0  0  0  0  0999 V2000
   -2.7291   -1.8397    0.7446 C   0  0  0  0  0  0  0  0  0  0  0  0
   -1.6486   -1.2279   -0.1369 C   0  0  0  0  0  0  0  0  0  0  0  0
   -2.0325    0.2519   -0.2860 C   0  0  0  0  0  0  0  0  0  0  0  0
   -1.0900    1.0623   -1.1169 C   0  0  0  0  0  0  0  0  0  0  0  0
    0.1402    1.0704   -0.6001 C   0  0  0  0  0  0  0  0  0  0  0  0
    1.4478    1.0616   -0.0693 C   0  0  0  0  0  0  0  0  0  0  0  0
    2.7616    1.0773    0.4664 C   0  0  0  0  0  0  0  0  0  0  0  0
    2.9396    0.0363    1.5357 C   0  0  0  0  0  0  0  0  0  0  0  0
    3.6538    0.7092   -0.6225 O   0  0  0  0  0  0  0  0  0  0  0  0
   -3.5535   -1.0941    0.8363 H   0  0  0  0  0  0  0  0  0  0  0  0
   -2.3226   -2.0384    1.7640 H   0  0  0  0  0  0  0  0  0  0  0  0
   -3.1188   -2.7806    0.3321 H   0  0  0  0  0  0  0  0  0  0  0  0
   -1.7654   -1.7103   -1.1448 H   0  0  0  0  0  0  0  0  0  0  0  0
   -0.6650   -1.3833    0.2987 H   0  0  0  0  0  0  0  0  0  0  0  0
   -3.0163    0.2255   -0.7677 H   0  0  0  0  0  0  0  0  0  0  0  0
   -2.1499    0.6584    0.7231 H   0  0  0  0  0  0  0  0  0  0  0  0
   -1.5723    2.1423   -1.0488 H   0  0  0  0  0  0  0  0  0  0  0  0
   -1.2068    0.7912   -2.1717 H   0  0  0  0  0  0  0  0  0  0  0  0
    3.0364    2.0819    0.7365 H   0  0  0  0  0  0  0  0  0  0  0  0
    2.4267   -0.9240    1.2313 H   0  0  0  0  0  0  0  0  0  0  0  0
    2.4444    0.3351    2.4711 H   0  0  0  0  0  0  0  0  0  0  0  0
    4.0226   -0.1048    1.7503 H   0  0  0  0  0  0  0  0  0  0  0  0
    3.9977    1.5999   -0.9735 H   0  0  0  0  0  0  0  0  0  0  0  0
  1  2  1  0
  2  3  1  0
  3  4  1  0
  4  5  1  0
  5  6  3  0
  6  7  1  0
  7  8  1  0
  7  9  1  0
  1 10  1  0
  1 11  1  0
  1 12  1  0
  2 13  1  0
  2 14  1  0
  3 15  1  0
  3 16  1  0
  4 17  1  0
  4 18  1  0
  7 19  1  0
  8 20  1  0
  8 21  1  0
  8 22  1  0
  9 23  1  0
M  END
