
     RDKit          3D

 27 27  0  0  0  0  0  0  0  0999 V2000
    3.8078   -0.2745    0.7702 C   0  0  0  0  0  0  0  0  0  0  0  0
    2.7277   -0.1417   -0.2571 C   0  0  0  0  0  0  0  0  0  0  0  0
    1.3471   -0.0017    0.3521 C   0  0  0  0  0  0  0  0  0  0  0  0
    0.3663    0.1219   -0.7734 C   0  0  0  0  0  0  0  0  0  0  0  0
   -1.0623    0.2696   -0.3255 C   0  0  0  0  0  0  0  0  0  0  0  0
   -1.5853   -0.8680    0.4907 C   0  0  0  0  0  0  0  0  0  0  0  0
   -3.0019   -0.7176    0.9327 C   0  0  0  0  0  0  0  0  0  0  0  0
   -1.9964    0.6791   -1.4650 C   0  0  0  0  0  0  0  0  0  0  0  0
   -1.6397    1.6081   -0.3282 C   0  0  0  0  0  0  0  0  0  0  0  0
    3.5517    0.1437    1.7552 H   0  0  0  0  0  0  0  0  0  0  0  0
    4.1134   -1.3435    0.9462 H   0  0  0  0  0  0  0  0  0  0  0  0
    4.7254    0.2092    0.3484 H   0  0  0  0  0  0  0  0  0  0  0  0
    2.7738   -1.0630   -0.9074 H   0  0  0  0  0  0  0  0  0  0  0  0
    2.9284    0.7025   -0.9636 H   0  0  0  0  0  0  0  0  0  0  0  0
    1.1869   -0.8725    0.9945 H   0  0  0  0  0  0  0  0  0  0  0  0
    1.3813    0.8919    1.0049 H   0  0  0  0  0  0  0  0  0  0  0  0
    0.6597    0.9936   -1.3850 H   0  0  0  0  0  0  0  0  0  0  0  0
    0.4305   -0.8088   -1.3745 H   0  0  0  0  0  0  0  0  0  0  0  0
   -1.5461   -1.7836   -0.1711 H   0  0  0  0  0  0  0  0  0  0  0  0
   -0.9708   -1.1149    1.3671 H   0  0  0  0  0  0  0  0  0  0  0  0
   -3.3186    0.2998    1.1628 H   0  0  0  0  0  0  0  0  0  0  0  0
   -3.6963   -1.1993    0.1917 H   0  0  0  0  0  0  0  0  0  0  0  0
   -3.1650   -1.3135    1.8788 H   0  0  0  0  0  0  0  0  0  0  0  0
   -1.5793    0.9519   -2.4331 H   0  0  0  0  0  0  0  0  0  0  0  0
   -3.0038    0.2328   -1.5106 H   0  0  0  0  0  0  0  0  0  0  0  0
   -0.9389    2.4631   -0.5653 H   0  0  0  0  0  0  0  0  0  0  0  0
   -2.4955    1.9354    0.2643 H   0  0  0  0  0  0  0  0  0  0  0  0
  1  2  1  0
  2  3  1  0
  3  4  1  0
  4  5  1  0
  5  6  1  0
  6  7  1  0
  5  8  1  0
  8  9  1  0
  9  5  1  0
  1 10  1  0
  1 11  1  0
  1 12  1  0
  2 13  1  0
  2 14  1  0
  3 15  1  0
  3 16  1  0
  4 17  1  0
  4 18  1  0
  6 19  1  0
  6 20  1  0
  7 21  1  0
  7 22  1  0
  7 23  1  0
  8 24  1  0
  8 25  1  0
  9 26  1  0
  9 27  1  0
M  END
