
     RDKit          3D

 23 23  0  0  0  0  0  0  0  0999 V2000
   -2.5431   -0.4754   -1.9483 C   0  0  0  0  0  0  0  0  0  0  0  0
   -2.8093   -0.2351   -0.4768 C   0  0  0  0  0  0  0  0  0  0  0  0
   -1.6744   -0.7411    0.3846 C   0  0  0  0  0  0  0  0  0  0  0  0
   -0.3899   -0.0362    0.0221 C   0  0  0  0  0  0  0  0  0  0  0  0
    0.6804   -0.4742    0.7934 O   0  0  0  0  0  0  0  0  0  0  0  0
    1.8032    0.2052    0.4105 C   0  0  0  0  0  0  0  0  0  0  0  0
    3.1714   -0.2707    0.6952 C   0  0  0  0  0  0  0  0  0  0  0  0
    2.6105    0.7357    1.6277 C   0  0  0  0  0  0  0  0  0  0  0  0
    3.0393    2.0734    1.5355 O   0  0  0  0  0  0  0  0  0  0  0  0
   -3.4987   -0.6269   -2.5138 H   0  0  0  0  0  0  0  0  0  0  0  0
   -1.9179   -1.3651   -2.1256 H   0  0  0  0  0  0  0  0  0  0  0  0
   -2.0869    0.4569   -2.3677 H   0  0  0  0  0  0  0  0  0  0  0  0
   -3.7345   -0.7971   -0.2270 H   0  0  0  0  0  0  0  0  0  0  0  0
   -2.9579    0.8570   -0.2802 H   0  0  0  0  0  0  0  0  0  0  0  0
   -1.9609   -0.5943    1.4286 H   0  0  0  0  0  0  0  0  0  0  0  0
   -1.5356   -1.8258    0.2115 H   0  0  0  0  0  0  0  0  0  0  0  0
   -0.1583   -0.3391   -1.0344 H   0  0  0  0  0  0  0  0  0  0  0  0
   -0.4817    1.0570    0.0182 H   0  0  0  0  0  0  0  0  0  0  0  0
    1.6700    0.9411   -0.3987 H   0  0  0  0  0  0  0  0  0  0  0  0
    3.9700    0.1021    0.0208 H   0  0  0  0  0  0  0  0  0  0  0  0
    3.3746   -1.3157    1.0336 H   0  0  0  0  0  0  0  0  0  0  0  0
    2.3481    0.3816    2.6216 H   0  0  0  0  0  0  0  0  0  0  0  0
    3.0818    2.2866    0.5691 H   0  0  0  0  0  0  0  0  0  0  0  0
  1  2  1  0
  2  3  1  0
  3  4  1  0
  4  5  1  0
  5  6  1  0
  6  7  1  0
  7  8  1  0
  8  9  1  0
  8  6  1  0
  1 10  1  0
  1 11  1  0
  1 12  1  0
  2 13  1  0
  2 14  1  0
  3 15  1  0
  3 16  1  0
  4 17  1  0
  4 18  1  0
  6 19  1  0
  7 20  1  0
  7 21  1  0
  8 22  1  0
  9 23  1  0
M  END
