
     RDKit          3D

 23 23  0  0  0  0  0  0  0  0999 V2000
   -3.1056    0.8315   -0.0735 C   0  0  0  0  0  0  0  0  0  0  0  0
   -1.6324    0.6465   -0.4593 C   0  0  0  0  0  0  0  0  0  0  0  0
   -1.2187   -0.7153    0.0404 C   0  0  0  0  0  0  0  0  0  0  0  0
    0.2266   -1.0448   -0.2726 C   0  0  0  0  0  0  0  0  0  0  0  0
    0.4235   -2.3425    0.2659 O   0  0  0  0  0  0  0  0  0  0  0  0
    1.1809   -0.1563    0.4753 C   0  0  0  0  0  0  0  0  0  0  0  0
    2.5971   -0.2753   -0.0772 C   0  0  0  0  0  0  0  0  0  0  0  0
    2.5841    1.2318    0.0558 C   0  0  0  0  0  0  0  0  0  0  0  0
    1.2114    1.1698    0.1580 O   0  0  0  0  0  0  0  0  0  0  0  0
   -3.6512   -0.1038   -0.3204 H   0  0  0  0  0  0  0  0  0  0  0  0
   -3.1947    0.9615    1.0349 H   0  0  0  0  0  0  0  0  0  0  0  0
   -3.5490    1.6967   -0.6131 H   0  0  0  0  0  0  0  0  0  0  0  0
   -1.0990    1.4470    0.0894 H   0  0  0  0  0  0  0  0  0  0  0  0
   -1.5578    0.7375   -1.5586 H   0  0  0  0  0  0  0  0  0  0  0  0
   -1.8829   -1.4949   -0.3888 H   0  0  0  0  0  0  0  0  0  0  0  0
   -1.3131   -0.7721    1.1455 H   0  0  0  0  0  0  0  0  0  0  0  0
    0.4064   -1.0632   -1.3648 H   0  0  0  0  0  0  0  0  0  0  0  0
    0.3293   -2.2006    1.2581 H   0  0  0  0  0  0  0  0  0  0  0  0
    1.2053   -0.4212    1.5508 H   0  0  0  0  0  0  0  0  0  0  0  0
    3.3135   -0.7897    0.5938 H   0  0  0  0  0  0  0  0  0  0  0  0
    2.6257   -0.6467   -1.1347 H   0  0  0  0  0  0  0  0  0  0  0  0
    2.9830    1.6876   -0.8724 H   0  0  0  0  0  0  0  0  0  0  0  0
    3.1178    1.6165    0.9522 H   0  0  0  0  0  0  0  0  0  0  0  0
  1  2  1  0
  2  3  1  0
  3  4  1  0
  4  5  1  0
  4  6  1  0
  6  7  1  0
  7  8  1  0
  8  9  1  0
  9  6  1  0
  1 10  1  0
  1 11  1  0
  1 12  1  0
  2 13  1  0
  2 14  1  0
  3 15  1  0
  3 16  1  0
  4 17  1  0
  5 18  1  0
  6 19  1  0
  7 20  1  0
  7 21  1  0
  8 22  1  0
  8 23  1  0
M  END
