
     RDKit          3D

 23 23  0  0  0  0  0  0  0  0999 V2000
   -2.9008   -0.5239   -0.9166 C   0  0  0  0  0  0  0  0  0  0  0  0
   -1.9795    0.6696   -0.8177 C   0  0  0  0  0  0  0  0  0  0  0  0
   -1.0781    0.5794    0.3870 C   0  0  0  0  0  0  0  0  0  0  0  0
   -0.1984   -0.6509    0.3560 C   0  0  0  0  0  0  0  0  0  0  0  0
    0.6331   -0.6276    1.5785 C   0  0  0  0  0  0  0  0  0  0  0  0
    1.7748   -0.0378    1.2622 C   0  0  0  0  0  0  0  0  0  0  0  0
    1.7030    0.3364   -0.1942 C   0  0  0  0  0  0  0  0  0  0  0  0
    3.0746    0.0174   -0.7730 C   0  0  0  0  0  0  0  0  0  0  0  0
    0.7292   -0.5470   -0.6684 O   0  0  0  0  0  0  0  0  0  0  0  0
   -2.7791   -1.2309   -0.0838 H   0  0  0  0  0  0  0  0  0  0  0  0
   -3.9694   -0.1647   -0.8522 H   0  0  0  0  0  0  0  0  0  0  0  0
   -2.7862   -1.0309   -1.9000 H   0  0  0  0  0  0  0  0  0  0  0  0
   -2.5777    1.6026   -0.6910 H   0  0  0  0  0  0  0  0  0  0  0  0
   -1.4070    0.8134   -1.7612 H   0  0  0  0  0  0  0  0  0  0  0  0
   -0.4434    1.4841    0.4189 H   0  0  0  0  0  0  0  0  0  0  0  0
   -1.7294    0.5937    1.2803 H   0  0  0  0  0  0  0  0  0  0  0  0
   -0.8012   -1.5793    0.2752 H   0  0  0  0  0  0  0  0  0  0  0  0
    0.3649   -1.0260    2.5822 H   0  0  0  0  0  0  0  0  0  0  0  0
    2.6051    0.1368    1.9450 H   0  0  0  0  0  0  0  0  0  0  0  0
    1.4314    1.3759   -0.3599 H   0  0  0  0  0  0  0  0  0  0  0  0
    3.1541   -1.0339   -1.0999 H   0  0  0  0  0  0  0  0  0  0  0  0
    3.3342    0.6908   -1.6091 H   0  0  0  0  0  0  0  0  0  0  0  0
    3.8458    0.1528    0.0244 H   0  0  0  0  0  0  0  0  0  0  0  0
  1  2  1  0
  2  3  1  0
  3  4  1  0
  4  5  1  0
  5  6  2  0
  6  7  1  0
  7  8  1  0
  7  9  1  0
  9  4  1  0
  1 10  1  0
  1 11  1  0
  1 12  1  0
  2 13  1  0
  2 14  1  0
  3 15  1  0
  3 16  1  0
  4 17  1  0
  5 18  1  0
  6 19  1  0
  7 20  1  0
  8 21  1  0
  8 22  1  0
  8 23  1  0
M  END
