
     RDKit          3D

 25 25  0  0  0  0  0  0  0  0999 V2000
    3.7587    0.4386    0.0974 C   0  0  0  0  0  0  0  0  0  0  0  0
    2.5514   -0.5079    0.1063 C   0  0  0  0  0  0  0  0  0  0  0  0
    1.3786    0.3239   -0.2921 C   0  0  0  0  0  0  0  0  0  0  0  0
    0.0790   -0.4509   -0.3393 C   0  0  0  0  0  0  0  0  0  0  0  0
    0.1212   -1.4947   -1.2382 O   0  0  0  0  0  0  0  0  0  0  0  0
   -0.9811    0.5803   -0.7132 C   0  0  0  0  0  0  0  0  0  0  0  0
   -2.3466    0.0095   -0.8119 C   0  0  0  0  0  0  0  0  0  0  0  0
   -3.0162   -0.6485    0.3345 C   0  0  0  0  0  0  0  0  0  0  0  0
   -3.4318    0.7414    0.0029 C   0  0  0  0  0  0  0  0  0  0  0  0
    3.6871    0.9832   -0.8862 H   0  0  0  0  0  0  0  0  0  0  0  0
    4.7007   -0.0918    0.2267 H   0  0  0  0  0  0  0  0  0  0  0  0
    3.5514    1.1739    0.9139 H   0  0  0  0  0  0  0  0  0  0  0  0
    2.7085   -1.3487   -0.5960 H   0  0  0  0  0  0  0  0  0  0  0  0
    2.4468   -0.8914    1.1271 H   0  0  0  0  0  0  0  0  0  0  0  0
    1.2454    1.1476    0.4377 H   0  0  0  0  0  0  0  0  0  0  0  0
    1.5321    0.7845   -1.2829 H   0  0  0  0  0  0  0  0  0  0  0  0
   -0.1658   -0.8720    0.6547 H   0  0  0  0  0  0  0  0  0  0  0  0
    0.2541   -2.3834   -0.7781 H   0  0  0  0  0  0  0  0  0  0  0  0
   -0.7036    1.0189   -1.7047 H   0  0  0  0  0  0  0  0  0  0  0  0
   -0.9504    1.4005    0.0078 H   0  0  0  0  0  0  0  0  0  0  0  0
   -2.6973   -0.2567   -1.8500 H   0  0  0  0  0  0  0  0  0  0  0  0
   -3.7789   -1.4267    0.0622 H   0  0  0  0  0  0  0  0  0  0  0  0
   -2.4780   -0.7821    1.2752 H   0  0  0  0  0  0  0  0  0  0  0  0
   -3.0763    1.5991    0.6318 H   0  0  0  0  0  0  0  0  0  0  0  0
   -4.3891    0.9534   -0.4873 H   0  0  0  0  0  0  0  0  0  0  0  0
  1  2  1  0
  2  3  1  0
  3  4  1  0
  4  5  1  0
  4  6  1  0
  6  7  1  0
  7  8  1  0
  8  9  1  0
  9  7  1  0
  1 10  1  0
  1 11  1  0
  1 12  1  0
  2 13  1  0
  2 14  1  0
  3 15  1  0
  3 16  1  0
  4 17  1  0
  5 18  1  0
  6 19  1  0
  6 20  1  0
  7 21  1  0
  8 22  1  0
  8 23  1  0
  9 24  1  0
  9 25  1  0
M  END
