
     RDKit          3D

 27 26  0  0  0  0  0  0  0  0999 V2000
    3.0135    0.5446   -0.7623 C   0  0  0  0  0  0  0  0  0  0  0  0
    1.5302    0.2954   -1.0073 C   0  0  0  0  0  0  0  0  0  0  0  0
    0.9643   -0.2636    0.2680 C   0  0  0  0  0  0  0  0  0  0  0  0
   -0.5045   -0.5676    0.1943 C   0  0  0  0  0  0  0  0  0  0  0  0
   -0.7589   -1.5878   -0.8936 C   0  0  0  0  0  0  0  0  0  0  0  0
   -0.8992   -1.1249    1.5486 C   0  0  0  0  0  0  0  0  0  0  0  0
   -1.3504    0.6354   -0.1112 C   0  0  0  0  0  0  0  0  0  0  0  0
   -1.2276    1.7305    0.9092 C   0  0  0  0  0  0  0  0  0  0  0  0
   -2.6819    0.2162   -0.1206 O   0  0  0  0  0  0  0  0  0  0  0  0
    3.0685    1.1280    0.1860 H   0  0  0  0  0  0  0  0  0  0  0  0
    3.5312   -0.4421   -0.6639 H   0  0  0  0  0  0  0  0  0  0  0  0
    3.4349    1.1466   -1.6103 H   0  0  0  0  0  0  0  0  0  0  0  0
    1.3986   -0.3741   -1.8675 H   0  0  0  0  0  0  0  0  0  0  0  0
    1.0902    1.3153   -1.1803 H   0  0  0  0  0  0  0  0  0  0  0  0
    1.1768    0.4557    1.0759 H   0  0  0  0  0  0  0  0  0  0  0  0
    1.4859   -1.2165    0.4892 H   0  0  0  0  0  0  0  0  0  0  0  0
   -1.7428   -2.0752   -0.6312 H   0  0  0  0  0  0  0  0  0  0  0  0
   -0.8151   -1.1167   -1.8860 H   0  0  0  0  0  0  0  0  0  0  0  0
    0.0297   -2.3770   -0.9253 H   0  0  0  0  0  0  0  0  0  0  0  0
   -1.9863   -1.1270    1.7036 H   0  0  0  0  0  0  0  0  0  0  0  0
   -0.4384   -2.1366    1.6952 H   0  0  0  0  0  0  0  0  0  0  0  0
   -0.4013   -0.4728    2.3226 H   0  0  0  0  0  0  0  0  0  0  0  0
   -1.1392    1.0141   -1.1338 H   0  0  0  0  0  0  0  0  0  0  0  0
   -1.6385    2.6622    0.4360 H   0  0  0  0  0  0  0  0  0  0  0  0
   -0.1834    1.9733    1.1796 H   0  0  0  0  0  0  0  0  0  0  0  0
   -1.8432    1.4491    1.7870 H   0  0  0  0  0  0  0  0  0  0  0  0
   -3.1133    0.3155   -1.0019 H   0  0  0  0  0  0  0  0  0  0  0  0
  1  2  1  0
  2  3  1  0
  3  4  1  0
  4  5  1  0
  4  6  1  0
  4  7  1  0
  7  8  1  0
  7  9  1  0
  1 10  1  0
  1 11  1  0
  1 12  1  0
  2 13  1  0
  2 14  1  0
  3 15  1  0
  3 16  1  0
  5 17  1  0
  5 18  1  0
  5 19  1  0
  6 20  1  0
  6 21  1  0
  6 22  1  0
  7 23  1  0
  8 24  1  0
  8 25  1  0
  8 26  1  0
  9 27  1  0
M  END
