
     RDKit          3D

 25 24  0  0  0  0  0  0  0  0999 V2000
   -3.7269   -0.3887    0.1568 C   0  0  0  0  0  0  0  0  0  0  0  0
   -2.2307   -0.6450    0.2278 C   0  0  0  0  0  0  0  0  0  0  0  0
   -1.5589    0.6888    0.3906 C   0  0  0  0  0  0  0  0  0  0  0  0
   -0.0561    0.5847    0.4758 C   0  0  0  0  0  0  0  0  0  0  0  0
    0.5538   -0.0327   -0.7421 C   0  0  0  0  0  0  0  0  0  0  0  0
    0.2051    0.7943   -1.8360 O   0  0  0  0  0  0  0  0  0  0  0  0
    2.0594    0.0718   -0.6139 C   0  0  0  0  0  0  0  0  0  0  0  0
    2.5175   -0.7127    0.4459 O   0  0  0  0  0  0  0  0  0  0  0  0
    3.8804   -0.6527    0.6054 C   0  0  0  0  0  0  0  0  0  0  0  0
   -4.2852   -1.0027    0.8963 H   0  0  0  0  0  0  0  0  0  0  0  0
   -4.0719   -0.6405   -0.8765 H   0  0  0  0  0  0  0  0  0  0  0  0
   -3.9780    0.6788    0.3258 H   0  0  0  0  0  0  0  0  0  0  0  0
   -2.0440   -1.3301    1.0799 H   0  0  0  0  0  0  0  0  0  0  0  0
   -1.8633   -1.1848   -0.6786 H   0  0  0  0  0  0  0  0  0  0  0  0
   -1.8142    1.3172   -0.4685 H   0  0  0  0  0  0  0  0  0  0  0  0
   -1.9633    1.1575    1.3091 H   0  0  0  0  0  0  0  0  0  0  0  0
    0.2810    0.0591    1.3862 H   0  0  0  0  0  0  0  0  0  0  0  0
    0.3266    1.6321    0.5415 H   0  0  0  0  0  0  0  0  0  0  0  0
    0.2404   -1.0738   -0.9194 H   0  0  0  0  0  0  0  0  0  0  0  0
   -0.0064    1.7081   -1.5533 H   0  0  0  0  0  0  0  0  0  0  0  0
    2.4954   -0.2687   -1.5711 H   0  0  0  0  0  0  0  0  0  0  0  0
    2.3353    1.1252   -0.4457 H   0  0  0  0  0  0  0  0  0  0  0  0
    4.1574   -1.2932    1.4540 H   0  0  0  0  0  0  0  0  0  0  0  0
    4.1877    0.4039    0.7428 H   0  0  0  0  0  0  0  0  0  0  0  0
    4.3588   -0.9958   -0.3327 H   0  0  0  0  0  0  0  0  0  0  0  0
  1  2  1  0
  2  3  1  0
  3  4  1  0
  4  5  1  0
  5  6  1  0
  5  7  1  0
  7  8  1  0
  8  9  1  0
  1 10  1  0
  1 11  1  0
  1 12  1  0
  2 13  1  0
  2 14  1  0
  3 15  1  0
  3 16  1  0
  4 17  1  0
  4 18  1  0
  5 19  1  0
  6 20  1  0
  7 21  1  0
  7 22  1  0
  9 23  1  0
  9 24  1  0
  9 25  1  0
M  END
