
     RDKit          3D

 27 26  0  0  0  0  0  0  0  0999 V2000
    3.2459    0.8159    0.3139 C   0  0  0  0  0  0  0  0  0  0  0  0
    1.7200    0.8317    0.4443 C   0  0  0  0  0  0  0  0  0  0  0  0
    1.1705   -0.4501   -0.1115 C   0  0  0  0  0  0  0  0  0  0  0  0
   -0.3359   -0.5093   -0.0160 C   0  0  0  0  0  0  0  0  0  0  0  0
   -0.8122   -0.4106    1.3979 C   0  0  0  0  0  0  0  0  0  0  0  0
   -0.7685   -1.8898   -0.5296 C   0  0  0  0  0  0  0  0  0  0  0  0
   -0.9177    0.5034   -0.9408 C   0  0  0  0  0  0  0  0  0  0  0  0
   -2.4339    0.5154   -0.9121 C   0  0  0  0  0  0  0  0  0  0  0  0
   -2.8863    0.8126    0.3821 O   0  0  0  0  0  0  0  0  0  0  0  0
    3.5891   -0.2028    0.4828 H   0  0  0  0  0  0  0  0  0  0  0  0
    3.5180    1.1505   -0.7059 H   0  0  0  0  0  0  0  0  0  0  0  0
    3.7136    1.4886    1.0734 H   0  0  0  0  0  0  0  0  0  0  0  0
    1.3386    1.7162   -0.1030 H   0  0  0  0  0  0  0  0  0  0  0  0
    1.5132    0.9423    1.5193 H   0  0  0  0  0  0  0  0  0  0  0  0
    1.6652   -1.2863    0.4185 H   0  0  0  0  0  0  0  0  0  0  0  0
    1.4188   -0.5064   -1.1958 H   0  0  0  0  0  0  0  0  0  0  0  0
   -0.9494    0.6106    1.7616 H   0  0  0  0  0  0  0  0  0  0  0  0
   -0.0237   -0.8775    2.0518 H   0  0  0  0  0  0  0  0  0  0  0  0
   -1.7241   -1.0225    1.5600 H   0  0  0  0  0  0  0  0  0  0  0  0
   -0.6432   -1.9107   -1.6198 H   0  0  0  0  0  0  0  0  0  0  0  0
   -1.8223   -2.0656   -0.2446 H   0  0  0  0  0  0  0  0  0  0  0  0
   -0.1298   -2.6260    0.0046 H   0  0  0  0  0  0  0  0  0  0  0  0
   -0.6149    0.2327   -1.9799 H   0  0  0  0  0  0  0  0  0  0  0  0
   -0.5688    1.5351   -0.7801 H   0  0  0  0  0  0  0  0  0  0  0  0
   -2.7905    1.3190   -1.5843 H   0  0  0  0  0  0  0  0  0  0  0  0
   -2.7804   -0.4736   -1.2531 H   0  0  0  0  0  0  0  0  0  0  0  0
   -2.6911    1.7572    0.5664 H   0  0  0  0  0  0  0  0  0  0  0  0
  1  2  1  0
  2  3  1  0
  3  4  1  0
  4  5  1  0
  4  6  1  0
  4  7  1  0
  7  8  1  0
  8  9  1  0
  1 10  1  0
  1 11  1  0
  1 12  1  0
  2 13  1  0
  2 14  1  0
  3 15  1  0
  3 16  1  0
  5 17  1  0
  5 18  1  0
  5 19  1  0
  6 20  1  0
  6 21  1  0
  6 22  1  0
  7 23  1  0
  7 24  1  0
  8 25  1  0
  8 26  1  0
  9 27  1  0
M  END
