
     RDKit          3D

 21 21  0  0  0  0  0  0  0  0999 V2000
    2.2965    0.2805   -1.0122 C   0  0  0  0  0  0  0  0  0  0  0  0
    1.6707   -0.9417   -0.3909 C   0  0  0  0  0  0  0  0  0  0  0  0
    0.9710   -0.6336    0.9037 C   0  0  0  0  0  0  0  0  0  0  0  0
   -0.1413    0.3679    0.7520 C   0  0  0  0  0  0  0  0  0  0  0  0
   -1.1853   -0.1579   -0.2086 C   0  0  0  0  0  0  0  0  0  0  0  0
   -2.3231    0.8334   -0.3822 C   0  0  0  0  0  0  0  0  0  0  0  0
   -2.7237    0.2204    0.9060 C   0  0  0  0  0  0  0  0  0  0  0  0
   -3.2949    0.6110    1.9480 O   0  0  0  0  0  0  0  0  0  0  0  0
   -2.1842   -0.9661    0.4356 O   0  0  0  0  0  0  0  0  0  0  0  0
    2.5412    0.0120   -2.0685 H   0  0  0  0  0  0  0  0  0  0  0  0
    3.2572    0.5511   -0.5342 H   0  0  0  0  0  0  0  0  0  0  0  0
    1.6298    1.1505   -1.0145 H   0  0  0  0  0  0  0  0  0  0  0  0
    1.0232   -1.4552   -1.1205 H   0  0  0  0  0  0  0  0  0  0  0  0
    2.5004   -1.6411   -0.1528 H   0  0  0  0  0  0  0  0  0  0  0  0
    1.7427   -0.2838    1.6187 H   0  0  0  0  0  0  0  0  0  0  0  0
    0.5388   -1.5738    1.2874 H   0  0  0  0  0  0  0  0  0  0  0  0
   -0.6451    0.4358    1.7479 H   0  0  0  0  0  0  0  0  0  0  0  0
    0.2034    1.3761    0.4877 H   0  0  0  0  0  0  0  0  0  0  0  0
   -0.8232   -0.5441   -1.1613 H   0  0  0  0  0  0  0  0  0  0  0  0
   -2.0583    1.8831   -0.3694 H   0  0  0  0  0  0  0  0  0  0  0  0
   -2.9960    0.4756   -1.1851 H   0  0  0  0  0  0  0  0  0  0  0  0
  1  2  1  0
  2  3  1  0
  3  4  1  0
  4  5  1  0
  5  6  1  0
  6  7  1  0
  7  8  2  0
  7  9  1  0
  9  5  1  0
  1 10  1  0
  1 11  1  0
  1 12  1  0
  2 13  1  0
  2 14  1  0
  3 15  1  0
  3 16  1  0
  4 17  1  0
  4 18  1  0
  5 19  1  0
  6 20  1  0
  6 21  1  0
M  END
