
     RDKit          3D

 25 25  0  0  0  0  0  0  0  0999 V2000
    3.4938   -0.2062   -0.1076 C   0  0  0  0  0  0  0  0  0  0  0  0
    2.0966   -0.2004    0.4238 C   0  0  0  0  0  0  0  0  0  0  0  0
    1.0629   -0.1959   -0.6965 C   0  0  0  0  0  0  0  0  0  0  0  0
   -0.3107   -0.1900   -0.1213 C   0  0  0  0  0  0  0  0  0  0  0  0
   -1.2749    0.6911   -0.2649 C   0  0  0  0  0  0  0  0  0  0  0  0
   -1.1986    1.9456   -1.0807 C   0  0  0  0  0  0  0  0  0  0  0  0
   -2.4948    0.3140    0.4903 C   0  0  0  0  0  0  0  0  0  0  0  0
   -2.3509   -1.1652    0.6339 C   0  0  0  0  0  0  0  0  0  0  0  0
   -0.8358   -1.2841    0.7774 C   0  0  0  0  0  0  0  0  0  0  0  0
    3.9798    0.7574    0.2244 H   0  0  0  0  0  0  0  0  0  0  0  0
    4.1040   -1.0166    0.3433 H   0  0  0  0  0  0  0  0  0  0  0  0
    3.5635   -0.2637   -1.2080 H   0  0  0  0  0  0  0  0  0  0  0  0
    1.8923    0.5995    1.1618 H   0  0  0  0  0  0  0  0  0  0  0  0
    1.9422   -1.1659    0.9668 H   0  0  0  0  0  0  0  0  0  0  0  0
    1.2157   -1.0514   -1.3720 H   0  0  0  0  0  0  0  0  0  0  0  0
    1.2090    0.7586   -1.2484 H   0  0  0  0  0  0  0  0  0  0  0  0
   -0.4710    1.8185   -1.9155 H   0  0  0  0  0  0  0  0  0  0  0  0
   -2.1960    2.2447   -1.4292 H   0  0  0  0  0  0  0  0  0  0  0  0
   -0.8557    2.7475   -0.3694 H   0  0  0  0  0  0  0  0  0  0  0  0
   -3.4070    0.5419   -0.0985 H   0  0  0  0  0  0  0  0  0  0  0  0
   -2.4713    0.8355    1.4635 H   0  0  0  0  0  0  0  0  0  0  0  0
   -2.8899   -1.5113    1.5139 H   0  0  0  0  0  0  0  0  0  0  0  0
   -2.6695   -1.6475   -0.3089 H   0  0  0  0  0  0  0  0  0  0  0  0
   -0.5297   -2.2583    0.3909 H   0  0  0  0  0  0  0  0  0  0  0  0
   -0.6040   -1.0979    1.8310 H   0  0  0  0  0  0  0  0  0  0  0  0
  1  2  1  0
  2  3  1  0
  3  4  1  0
  4  5  2  0
  5  6  1  0
  5  7  1  0
  7  8  1  0
  8  9  1  0
  9  4  1  0
  1 10  1  0
  1 11  1  0
  1 12  1  0
  2 13  1  0
  2 14  1  0
  3 15  1  0
  3 16  1  0
  6 17  1  0
  6 18  1  0
  6 19  1  0
  7 20  1  0
  7 21  1  0
  8 22  1  0
  8 23  1  0
  9 24  1  0
  9 25  1  0
M  END
