
     RDKit          3D

 23 23  0  0  0  0  0  0  0  0999 V2000
   -2.8752   -0.6919    0.3013 C   0  0  0  0  0  0  0  0  0  0  0  0
   -1.6863   -0.0484   -0.4155 C   0  0  0  0  0  0  0  0  0  0  0  0
   -0.4198   -0.2155    0.4350 C   0  0  0  0  0  0  0  0  0  0  0  0
    0.6960    0.4272   -0.3136 C   0  0  0  0  0  0  0  0  0  0  0  0
    0.4423    1.9147   -0.5629 C   0  0  0  0  0  0  0  0  0  0  0  0
    1.2199   -0.3956   -1.4696 C   0  0  0  0  0  0  0  0  0  0  0  0
    2.0906   -0.0031   -0.3036 C   0  0  0  0  0  0  0  0  0  0  0  0
    2.6473   -1.0604    0.5489 C   0  0  0  0  0  0  0  0  0  0  0  0
    1.9188   -1.9589    0.9240 O   0  0  0  0  0  0  0  0  0  0  0  0
   -3.2871   -0.0273    1.0654 H   0  0  0  0  0  0  0  0  0  0  0  0
   -3.6592   -0.8205   -0.4813 H   0  0  0  0  0  0  0  0  0  0  0  0
   -2.5848   -1.6877    0.6506 H   0  0  0  0  0  0  0  0  0  0  0  0
   -1.5734   -0.5662   -1.3785 H   0  0  0  0  0  0  0  0  0  0  0  0
   -1.9526    1.0247   -0.5096 H   0  0  0  0  0  0  0  0  0  0  0  0
   -0.6272    0.3879    1.3641 H   0  0  0  0  0  0  0  0  0  0  0  0
   -0.2767   -1.2425    0.7523 H   0  0  0  0  0  0  0  0  0  0  0  0
   -0.3440    1.9567   -1.3446 H   0  0  0  0  0  0  0  0  0  0  0  0
    1.3767    2.3778   -0.8616 H   0  0  0  0  0  0  0  0  0  0  0  0
    0.0368    2.3107    0.4017 H   0  0  0  0  0  0  0  0  0  0  0  0
    1.3510    0.0846   -2.4536 H   0  0  0  0  0  0  0  0  0  0  0  0
    0.9705   -1.4620   -1.5166 H   0  0  0  0  0  0  0  0  0  0  0  0
    2.8536    0.7707   -0.5953 H   0  0  0  0  0  0  0  0  0  0  0  0
    3.6828   -1.0749    0.8596 H   0  0  0  0  0  0  0  0  0  0  0  0
  1  2  1  0
  2  3  1  0
  3  4  1  0
  4  5  1  0
  4  6  1  0
  6  7  1  0
  7  8  1  0
  8  9  2  0
  7  4  1  0
  1 10  1  0
  1 11  1  0
  1 12  1  0
  2 13  1  0
  2 14  1  0
  3 15  1  0
  3 16  1  0
  5 17  1  0
  5 18  1  0
  5 19  1  0
  6 20  1  0
  6 21  1  0
  7 22  1  0
  8 23  1  0
M  END
