
     RDKit          3D

 27 26  0  0  0  0  0  0  0  0999 V2000
    4.0884    0.8681    0.0972 C   0  0  0  0  0  0  0  0  0  0  0  0
    3.1245   -0.3028   -0.0728 C   0  0  0  0  0  0  0  0  0  0  0  0
    1.7308    0.2753   -0.0495 C   0  0  0  0  0  0  0  0  0  0  0  0
    0.6653   -0.7690   -0.2077 C   0  0  0  0  0  0  0  0  0  0  0  0
   -0.6788   -0.0827   -0.1700 C   0  0  0  0  0  0  0  0  0  0  0  0
   -1.7982   -1.0672   -0.3230 C   0  0  0  0  0  0  0  0  0  0  0  0
   -3.1280   -0.3594   -0.2822 C   0  0  0  0  0  0  0  0  0  0  0  0
   -3.3343    0.3772    1.0255 C   0  0  0  0  0  0  0  0  0  0  0  0
   -3.1460    0.5683   -1.3318 O   0  0  0  0  0  0  0  0  0  0  0  0
    4.7573    0.5969    0.9272 H   0  0  0  0  0  0  0  0  0  0  0  0
    3.5592    1.7992    0.3871 H   0  0  0  0  0  0  0  0  0  0  0  0
    4.6935    1.0535   -0.7927 H   0  0  0  0  0  0  0  0  0  0  0  0
    3.3546   -0.7396   -1.0647 H   0  0  0  0  0  0  0  0  0  0  0  0
    3.2805   -1.0872    0.6709 H   0  0  0  0  0  0  0  0  0  0  0  0
    1.5624    0.8103    0.9025 H   0  0  0  0  0  0  0  0  0  0  0  0
    1.6434    1.0191   -0.8627 H   0  0  0  0  0  0  0  0  0  0  0  0
    0.7304   -1.3360   -1.1372 H   0  0  0  0  0  0  0  0  0  0  0  0
    0.6969   -1.4740    0.6653 H   0  0  0  0  0  0  0  0  0  0  0  0
   -0.7471    0.7187   -0.9249 H   0  0  0  0  0  0  0  0  0  0  0  0
   -0.8346    0.4321    0.8214 H   0  0  0  0  0  0  0  0  0  0  0  0
   -1.7102   -1.5328   -1.3285 H   0  0  0  0  0  0  0  0  0  0  0  0
   -1.6935   -1.8553    0.4254 H   0  0  0  0  0  0  0  0  0  0  0  0
   -3.9707   -1.0656   -0.4026 H   0  0  0  0  0  0  0  0  0  0  0  0
   -3.2201    1.4788    0.8612 H   0  0  0  0  0  0  0  0  0  0  0  0
   -4.3610    0.2060    1.4290 H   0  0  0  0  0  0  0  0  0  0  0  0
   -2.5939    0.0836    1.7931 H   0  0  0  0  0  0  0  0  0  0  0  0
   -2.6708    1.3846   -1.0556 H   0  0  0  0  0  0  0  0  0  0  0  0
  1  2  1  0
  2  3  1  0
  3  4  1  0
  4  5  1  0
  5  6  1  0
  6  7  1  0
  7  8  1  0
  7  9  1  0
  1 10  1  0
  1 11  1  0
  1 12  1  0
  2 13  1  0
  2 14  1  0
  3 15  1  0
  3 16  1  0
  4 17  1  0
  4 18  1  0
  5 19  1  0
  5 20  1  0
  6 21  1  0
  6 22  1  0
  7 23  1  0
  8 24  1  0
  8 25  1  0
  8 26  1  0
  9 27  1  0
M  END
