
     RDKit          3D

 25 25  0  0  0  0  0  0  0  0999 V2000
    3.3057    0.4187   -0.2326 C   0  0  0  0  0  0  0  0  0  0  0  0
    2.0571   -0.3850    0.0454 C   0  0  0  0  0  0  0  0  0  0  0  0
    0.8982    0.5353    0.3805 C   0  0  0  0  0  0  0  0  0  0  0  0
   -0.2997   -0.3119    0.6436 C   0  0  0  0  0  0  0  0  0  0  0  0
   -0.7182   -1.1700   -0.5045 C   0  0  0  0  0  0  0  0  0  0  0  0
   -2.2162   -1.3154   -0.2517 C   0  0  0  0  0  0  0  0  0  0  0  0
   -2.5098   -0.5844    0.8696 O   0  0  0  0  0  0  0  0  0  0  0  0
   -1.5493    0.4524    0.9455 C   0  0  0  0  0  0  0  0  0  0  0  0
   -1.9247    1.4529   -0.1043 C   0  0  0  0  0  0  0  0  0  0  0  0
    3.3560    1.3263    0.4032 H   0  0  0  0  0  0  0  0  0  0  0  0
    3.3920    0.6592   -1.3163 H   0  0  0  0  0  0  0  0  0  0  0  0
    4.1883   -0.2269   -0.0049 H   0  0  0  0  0  0  0  0  0  0  0  0
    2.2006   -1.0807    0.8846 H   0  0  0  0  0  0  0  0  0  0  0  0
    1.7784   -0.9609   -0.8675 H   0  0  0  0  0  0  0  0  0  0  0  0
    1.1711    1.0447    1.3278 H   0  0  0  0  0  0  0  0  0  0  0  0
    0.7670    1.3131   -0.3769 H   0  0  0  0  0  0  0  0  0  0  0  0
   -0.0825   -0.9656    1.5028 H   0  0  0  0  0  0  0  0  0  0  0  0
   -0.2258   -2.1651   -0.5020 H   0  0  0  0  0  0  0  0  0  0  0  0
   -0.6149   -0.6587   -1.4874 H   0  0  0  0  0  0  0  0  0  0  0  0
   -2.8138   -1.0158   -1.1397 H   0  0  0  0  0  0  0  0  0  0  0  0
   -2.4344   -2.4140   -0.1193 H   0  0  0  0  0  0  0  0  0  0  0  0
   -1.4778    0.8597    1.9532 H   0  0  0  0  0  0  0  0  0  0  0  0
   -2.7060    2.1227    0.3572 H   0  0  0  0  0  0  0  0  0  0  0  0
   -1.1180    2.0899   -0.4509 H   0  0  0  0  0  0  0  0  0  0  0  0
   -2.4233    0.9794   -0.9675 H   0  0  0  0  0  0  0  0  0  0  0  0
  1  2  1  0
  2  3  1  0
  3  4  1  0
  4  5  1  0
  5  6  1  0
  6  7  1  0
  7  8  1  0
  8  9  1  0
  8  4  1  0
  1 10  1  0
  1 11  1  0
  1 12  1  0
  2 13  1  0
  2 14  1  0
  3 15  1  0
  3 16  1  0
  4 17  1  0
  5 18  1  0
  5 19  1  0
  6 20  1  0
  6 21  1  0
  8 22  1  0
  9 23  1  0
  9 24  1  0
  9 25  1  0
M  END
