
     RDKit          3D

 25 25  0  0  0  0  0  0  0  0999 V2000
    3.7413   -0.3578    0.1931 C   0  0  0  0  0  0  0  0  0  0  0  0
    2.3057   -0.5961    0.6126 C   0  0  0  0  0  0  0  0  0  0  0  0
    1.4130    0.5578    0.2170 C   0  0  0  0  0  0  0  0  0  0  0  0
    0.0203    0.2655    0.6571 C   0  0  0  0  0  0  0  0  0  0  0  0
   -0.5931   -0.9877    0.0519 C   0  0  0  0  0  0  0  0  0  0  0  0
   -0.0604   -1.5701   -1.0683 O   0  0  0  0  0  0  0  0  0  0  0  0
   -1.1707    0.3876   -0.1901 C   0  0  0  0  0  0  0  0  0  0  0  0
   -2.5082    0.6278    0.4618 C   0  0  0  0  0  0  0  0  0  0  0  0
   -3.6207    0.7256   -0.5735 C   0  0  0  0  0  0  0  0  0  0  0  0
    4.4210   -0.7880    0.9758 H   0  0  0  0  0  0  0  0  0  0  0  0
    3.9733   -0.8977   -0.7450 H   0  0  0  0  0  0  0  0  0  0  0  0
    3.9218    0.7293    0.0504 H   0  0  0  0  0  0  0  0  0  0  0  0
    1.9522   -1.4878    0.0604 H   0  0  0  0  0  0  0  0  0  0  0  0
    2.2120   -0.8231    1.6878 H   0  0  0  0  0  0  0  0  0  0  0  0
    1.4503    0.6366   -0.8993 H   0  0  0  0  0  0  0  0  0  0  0  0
    1.8141    1.5131    0.6096 H   0  0  0  0  0  0  0  0  0  0  0  0
   -0.1590    0.4280    1.7491 H   0  0  0  0  0  0  0  0  0  0  0  0
   -1.1445   -1.6756    0.7446 H   0  0  0  0  0  0  0  0  0  0  0  0
    0.0973   -0.9585   -1.8161 H   0  0  0  0  0  0  0  0  0  0  0  0
   -1.0807    0.8342   -1.2185 H   0  0  0  0  0  0  0  0  0  0  0  0
   -2.5009    1.5225    1.1176 H   0  0  0  0  0  0  0  0  0  0  0  0
   -2.7579   -0.2268    1.1188 H   0  0  0  0  0  0  0  0  0  0  0  0
   -3.7335    1.7343   -0.9790 H   0  0  0  0  0  0  0  0  0  0  0  0
   -3.4084    0.0073   -1.3634 H   0  0  0  0  0  0  0  0  0  0  0  0
   -4.5843    0.3996   -0.0882 H   0  0  0  0  0  0  0  0  0  0  0  0
  1  2  1  0
  2  3  1  0
  3  4  1  0
  4  5  1  0
  5  6  1  0
  5  7  1  0
  7  8  1  0
  8  9  1  0
  7  4  1  0
  1 10  1  0
  1 11  1  0
  1 12  1  0
  2 13  1  0
  2 14  1  0
  3 15  1  0
  3 16  1  0
  4 17  1  0
  5 18  1  0
  6 19  1  0
  7 20  1  0
  8 21  1  0
  8 22  1  0
  9 23  1  0
  9 24  1  0
  9 25  1  0
M  END
