
     RDKit          3D

 21 20  0  0  0  0  0  0  0  0999 V2000
   -2.8576    0.1585   -0.3562 C   0  0  0  0  0  0  0  0  0  0  0  0
   -1.8407   -0.8742   -0.8071 C   0  0  0  0  0  0  0  0  0  0  0  0
   -1.0725   -0.2610   -1.9547 C   0  0  0  0  0  0  0  0  0  0  0  0
   -0.3566    1.0108   -1.5453 C   0  0  0  0  0  0  0  0  0  0  0  0
    0.5905    0.7097   -0.4691 C   0  0  0  0  0  0  0  0  0  0  0  0
    1.3849    0.4572    0.4025 C   0  0  0  0  0  0  0  0  0  0  0  0
    2.3431    0.1728    1.4319 C   0  0  0  0  0  0  0  0  0  0  0  0
    3.6454   -0.4028    1.0195 C   0  0  0  0  0  0  0  0  0  0  0  0
    2.1488    0.3801    2.6566 O   0  0  0  0  0  0  0  0  0  0  0  0
   -3.2585    0.6355   -1.2633 H   0  0  0  0  0  0  0  0  0  0  0  0
   -3.7104   -0.3988    0.1084 H   0  0  0  0  0  0  0  0  0  0  0  0
   -2.4279    0.9065    0.3213 H   0  0  0  0  0  0  0  0  0  0  0  0
   -1.1826   -1.1515    0.0363 H   0  0  0  0  0  0  0  0  0  0  0  0
   -2.3823   -1.7440   -1.2053 H   0  0  0  0  0  0  0  0  0  0  0  0
   -0.2823   -0.9617   -2.3207 H   0  0  0  0  0  0  0  0  0  0  0  0
   -1.7710   -0.0795   -2.7851 H   0  0  0  0  0  0  0  0  0  0  0  0
    0.1783    1.3725   -2.4476 H   0  0  0  0  0  0  0  0  0  0  0  0
   -1.0560    1.7707   -1.1412 H   0  0  0  0  0  0  0  0  0  0  0  0
    3.4987   -0.9936    0.0878 H   0  0  0  0  0  0  0  0  0  0  0  0
    4.0350   -1.1218    1.7961 H   0  0  0  0  0  0  0  0  0  0  0  0
    4.3738    0.4146    0.8340 H   0  0  0  0  0  0  0  0  0  0  0  0
  1  2  1  0
  2  3  1  0
  3  4  1  0
  4  5  1  0
  5  6  3  0
  6  7  1  0
  7  8  1  0
  7  9  2  0
  1 10  1  0
  1 11  1  0
  1 12  1  0
  2 13  1  0
  2 14  1  0
  3 15  1  0
  3 16  1  0
  4 17  1  0
  4 18  1  0
  8 19  1  0
  8 20  1  0
  8 21  1  0
M  END
