
     RDKit          3D

 23 24  0  0  0  0  0  0  0  0999 V2000
    3.2558   -0.1252    0.6374 C   0  0  0  0  0  0  0  0  0  0  0  0
    1.9447   -0.5267    0.0166 C   0  0  0  0  0  0  0  0  0  0  0  0
    0.9546    0.6289    0.0116 C   0  0  0  0  0  0  0  0  0  0  0  0
   -0.3299    0.1537   -0.6226 C   0  0  0  0  0  0  0  0  0  0  0  0
   -1.4228    1.1732   -0.7096 C   0  0  0  0  0  0  0  0  0  0  0  0
   -2.3794    0.0531   -0.3043 C   0  0  0  0  0  0  0  0  0  0  0  0
   -3.1514   -0.5595   -1.2467 O   0  0  0  0  0  0  0  0  0  0  0  0
   -2.2357   -0.3934    1.0794 C   0  0  0  0  0  0  0  0  0  0  0  0
   -1.1603   -0.7888    0.1587 C   0  0  0  0  0  0  0  0  0  0  0  0
    3.7260    0.7207    0.0909 H   0  0  0  0  0  0  0  0  0  0  0  0
    3.0987    0.1951    1.6867 H   0  0  0  0  0  0  0  0  0  0  0  0
    3.9183   -1.0095    0.6114 H   0  0  0  0  0  0  0  0  0  0  0  0
    1.5206   -1.3355    0.6413 H   0  0  0  0  0  0  0  0  0  0  0  0
    2.1024   -0.9038   -1.0066 H   0  0  0  0  0  0  0  0  0  0  0  0
    1.3857    1.3936   -0.6868 H   0  0  0  0  0  0  0  0  0  0  0  0
    0.7798    1.0056    1.0193 H   0  0  0  0  0  0  0  0  0  0  0  0
   -0.0972   -0.2284   -1.6591 H   0  0  0  0  0  0  0  0  0  0  0  0
   -1.6895    1.5491   -1.7006 H   0  0  0  0  0  0  0  0  0  0  0  0
   -1.2930    1.9365    0.0920 H   0  0  0  0  0  0  0  0  0  0  0  0
   -2.7946   -0.3311   -2.1514 H   0  0  0  0  0  0  0  0  0  0  0  0
   -2.0884    0.4118    1.8506 H   0  0  0  0  0  0  0  0  0  0  0  0
   -2.9146   -1.1807    1.4304 H   0  0  0  0  0  0  0  0  0  0  0  0
   -1.1299   -1.8388   -0.1689 H   0  0  0  0  0  0  0  0  0  0  0  0
  1  2  1  0
  2  3  1  0
  3  4  1  0
  4  5  1  0
  5  6  1  0
  6  7  1  0
  6  8  1  0
  8  9  1  0
  9  4  1  0
  9  6  1  0
  1 10  1  0
  1 11  1  0
  1 12  1  0
  2 13  1  0
  2 14  1  0
  3 15  1  0
  3 16  1  0
  4 17  1  0
  5 18  1  0
  5 19  1  0
  7 20  1  0
  8 21  1  0
  8 22  1  0
  9 23  1  0
M  END
