
     RDKit          3D

 25 26  0  0  0  0  0  0  0  0999 V2000
    3.7107   -0.3820   -0.2908 C   0  0  0  0  0  0  0  0  0  0  0  0
    2.4355   -0.9863    0.2686 C   0  0  0  0  0  0  0  0  0  0  0  0
    1.3356    0.0340    0.0278 C   0  0  0  0  0  0  0  0  0  0  0  0
   -0.0026   -0.4889    0.5627 C   0  0  0  0  0  0  0  0  0  0  0  0
   -1.0141    0.5673    0.2860 C   0  0  0  0  0  0  0  0  0  0  0  0
   -2.4209    0.3557    0.6924 C   0  0  0  0  0  0  0  0  0  0  0  0
   -2.5443   -0.5926   -0.4642 C   0  0  0  0  0  0  0  0  0  0  0  0
   -1.7472    0.5197   -1.0264 C   0  0  0  0  0  0  0  0  0  0  0  0
   -2.7505    1.4254   -0.3316 C   0  0  0  0  0  0  0  0  0  0  0  0
    3.6646    0.7423   -0.1965 H   0  0  0  0  0  0  0  0  0  0  0  0
    4.5910   -0.6806    0.3305 H   0  0  0  0  0  0  0  0  0  0  0  0
    3.8446   -0.5951   -1.3619 H   0  0  0  0  0  0  0  0  0  0  0  0
    2.1692   -1.9326   -0.2298 H   0  0  0  0  0  0  0  0  0  0  0  0
    2.5651   -1.1726    1.3460 H   0  0  0  0  0  0  0  0  0  0  0  0
    1.5924    1.0114    0.4481 H   0  0  0  0  0  0  0  0  0  0  0  0
    1.2276    0.1282   -1.0723 H   0  0  0  0  0  0  0  0  0  0  0  0
   -0.1656   -1.4471    0.0763 H   0  0  0  0  0  0  0  0  0  0  0  0
    0.1277   -0.6319    1.6578 H   0  0  0  0  0  0  0  0  0  0  0  0
   -0.6335    1.6222    0.4255 H   0  0  0  0  0  0  0  0  0  0  0  0
   -2.8258    0.2704    1.6003 H   0  0  0  0  0  0  0  0  0  0  0  0
   -3.6169   -0.6321   -0.7898 H   0  0  0  0  0  0  0  0  0  0  0  0
   -2.1276   -1.5887   -0.3741 H   0  0  0  0  0  0  0  0  0  0  0  0
   -1.3732    0.6550   -1.9400 H   0  0  0  0  0  0  0  0  0  0  0  0
   -3.7535    1.3999   -0.7537 H   0  0  0  0  0  0  0  0  0  0  0  0
   -2.2882    2.3990   -0.1398 H   0  0  0  0  0  0  0  0  0  0  0  0
  1  2  1  0
  2  3  1  0
  3  4  1  0
  4  5  1  0
  5  6  1  0
  6  7  1  0
  7  8  1  0
  8  9  1  0
  8  5  1  0
  9  6  1  0
  1 10  1  0
  1 11  1  0
  1 12  1  0
  2 13  1  0
  2 14  1  0
  3 15  1  0
  3 16  1  0
  4 17  1  0
  4 18  1  0
  5 19  1  0
  6 20  1  0
  7 21  1  0
  7 22  1  0
  8 23  1  0
  9 24  1  0
  9 25  1  0
M  END
