
     RDKit          3D

 23 24  0  0  0  0  0  0  0  0999 V2000
    3.0097   -0.2479   -0.8028 C   0  0  0  0  0  0  0  0  0  0  0  0
    1.5594    0.1232   -0.6179 C   0  0  0  0  0  0  0  0  0  0  0  0
    1.0222   -0.3172    0.7229 C   0  0  0  0  0  0  0  0  0  0  0  0
   -0.4125    0.0810    0.8375 C   0  0  0  0  0  0  0  0  0  0  0  0
   -0.7992    1.5381    0.7476 C   0  0  0  0  0  0  0  0  0  0  0  0
   -2.1472    1.0486    0.1958 C   0  0  0  0  0  0  0  0  0  0  0  0
   -1.5547   -0.3540    0.2899 C   0  0  0  0  0  0  0  0  0  0  0  0
   -1.9466   -1.3936   -0.6780 C   0  0  0  0  0  0  0  0  0  0  0  0
   -1.2297   -0.7465    1.5639 O   0  0  0  0  0  0  0  0  0  0  0  0
    3.3934    0.3521   -1.6535 H   0  0  0  0  0  0  0  0  0  0  0  0
    3.1281   -1.3313   -1.0168 H   0  0  0  0  0  0  0  0  0  0  0  0
    3.6226    0.0335    0.0825 H   0  0  0  0  0  0  0  0  0  0  0  0
    0.9809   -0.4252   -1.3928 H   0  0  0  0  0  0  0  0  0  0  0  0
    1.4807    1.2176   -0.7655 H   0  0  0  0  0  0  0  0  0  0  0  0
    1.5744    0.1564    1.5654 H   0  0  0  0  0  0  0  0  0  0  0  0
    1.1811   -1.4045    0.8120 H   0  0  0  0  0  0  0  0  0  0  0  0
   -0.2458    2.1356    0.0197 H   0  0  0  0  0  0  0  0  0  0  0  0
   -0.9751    2.0306    1.7354 H   0  0  0  0  0  0  0  0  0  0  0  0
   -2.9795    1.1212    0.9266 H   0  0  0  0  0  0  0  0  0  0  0  0
   -2.3647    1.3916   -0.8273 H   0  0  0  0  0  0  0  0  0  0  0  0
   -1.9837   -1.0419   -1.7330 H   0  0  0  0  0  0  0  0  0  0  0  0
   -3.0105   -1.6974   -0.4464 H   0  0  0  0  0  0  0  0  0  0  0  0
   -1.3032   -2.2701   -0.5639 H   0  0  0  0  0  0  0  0  0  0  0  0
  1  2  1  0
  2  3  1  0
  3  4  1  0
  4  5  1  0
  5  6  1  0
  6  7  1  0
  7  8  1  0
  7  9  1  0
  7  4  1  0
  9  4  1  0
  1 10  1  0
  1 11  1  0
  1 12  1  0
  2 13  1  0
  2 14  1  0
  3 15  1  0
  3 16  1  0
  5 17  1  0
  5 18  1  0
  6 19  1  0
  6 20  1  0
  8 21  1  0
  8 22  1  0
  8 23  1  0
M  END
