
     RDKit          3D

 25 25  0  0  0  0  0  0  0  0999 V2000
    2.0425    1.2569    0.8921 C   0  0  0  0  0  0  0  0  0  0  0  0
    2.2906    0.0771    0.0223 C   0  0  0  0  0  0  0  0  0  0  0  0
    1.2947   -1.0068    0.0034 C   0  0  0  0  0  0  0  0  0  0  0  0
   -0.0797   -0.7614   -0.4821 C   0  0  0  0  0  0  0  0  0  0  0  0
   -0.8204   -2.1131   -0.3512 C   0  0  0  0  0  0  0  0  0  0  0  0
   -0.8650    0.2200    0.2949 C   0  0  0  0  0  0  0  0  0  0  0  0
   -2.2984    0.4213   -0.2045 C   0  0  0  0  0  0  0  0  0  0  0  0
   -2.0028    1.7770    0.3967 C   0  0  0  0  0  0  0  0  0  0  0  0
   -0.6742    1.5668   -0.0383 O   0  0  0  0  0  0  0  0  0  0  0  0
    1.8918    2.1820    0.2750 H   0  0  0  0  0  0  0  0  0  0  0  0
    3.0249    1.4852    1.4346 H   0  0  0  0  0  0  0  0  0  0  0  0
    1.3052    1.1234    1.6888 H   0  0  0  0  0  0  0  0  0  0  0  0
    2.5114    0.4500   -1.0166 H   0  0  0  0  0  0  0  0  0  0  0  0
    3.2560   -0.4060    0.3876 H   0  0  0  0  0  0  0  0  0  0  0  0
    1.2287   -1.4429    1.0488 H   0  0  0  0  0  0  0  0  0  0  0  0
    1.7937   -1.8561   -0.5833 H   0  0  0  0  0  0  0  0  0  0  0  0
   -0.1112   -0.4547   -1.5651 H   0  0  0  0  0  0  0  0  0  0  0  0
   -1.9064   -1.9605   -0.3722 H   0  0  0  0  0  0  0  0  0  0  0  0
   -0.4327   -2.7478   -1.1606 H   0  0  0  0  0  0  0  0  0  0  0  0
   -0.5593   -2.5224    0.6531 H   0  0  0  0  0  0  0  0  0  0  0  0
   -0.8709    0.0365    1.3772 H   0  0  0  0  0  0  0  0  0  0  0  0
   -2.3974    0.4822   -1.2928 H   0  0  0  0  0  0  0  0  0  0  0  0
   -2.9834   -0.2210    0.3473 H   0  0  0  0  0  0  0  0  0  0  0  0
   -2.1039    1.8394    1.4861 H   0  0  0  0  0  0  0  0  0  0  0  0
   -2.5337    2.5751   -0.1388 H   0  0  0  0  0  0  0  0  0  0  0  0
  1  2  1  0
  2  3  1  0
  3  4  1  0
  4  5  1  0
  4  6  1  0
  6  7  1  0
  7  8  1  0
  8  9  1  0
  9  6  1  0
  1 10  1  0
  1 11  1  0
  1 12  1  0
  2 13  1  0
  2 14  1  0
  3 15  1  0
  3 16  1  0
  4 17  1  0
  5 18  1  0
  5 19  1  0
  5 20  1  0
  6 21  1  0
  7 22  1  0
  7 23  1  0
  8 24  1  0
  8 25  1  0
M  END
