
     RDKit          3D

 25 24  0  0  0  0  0  0  0  0999 V2000
   -2.0666   -1.0940    0.3323 C   0  0  0  0  0  0  0  0  0  0  0  0
   -2.4727    0.2992    0.0237 C   0  0  0  0  0  0  0  0  0  0  0  0
   -1.4344    1.3399   -0.1093 C   0  0  0  0  0  0  0  0  0  0  0  0
   -0.4325    1.1716   -1.1853 C   0  0  0  0  0  0  0  0  0  0  0  0
    0.4258    2.3143   -1.1401 O   0  0  0  0  0  0  0  0  0  0  0  0
    0.4906   -0.0152   -1.0016 C   0  0  0  0  0  0  0  0  0  0  0  0
    1.1450    0.1182    0.2212 O   0  0  0  0  0  0  0  0  0  0  0  0
    2.0151   -0.9322    0.4712 C   0  0  0  0  0  0  0  0  0  0  0  0
    3.1005   -1.0381   -0.5996 C   0  0  0  0  0  0  0  0  0  0  0  0
   -2.0854   -1.6989   -0.6185 H   0  0  0  0  0  0  0  0  0  0  0  0
   -1.1158   -1.1518    0.8526 H   0  0  0  0  0  0  0  0  0  0  0  0
   -2.8645   -1.6255    0.9554 H   0  0  0  0  0  0  0  0  0  0  0  0
   -3.2499    0.5870    0.8081 H   0  0  0  0  0  0  0  0  0  0  0  0
   -3.0943    0.3077   -0.9289 H   0  0  0  0  0  0  0  0  0  0  0  0
   -0.9224    1.5260    0.8718 H   0  0  0  0  0  0  0  0  0  0  0  0
   -1.9831    2.3166   -0.3184 H   0  0  0  0  0  0  0  0  0  0  0  0
   -0.9412    1.1194   -2.1689 H   0  0  0  0  0  0  0  0  0  0  0  0
   -0.0553    3.0708   -0.7100 H   0  0  0  0  0  0  0  0  0  0  0  0
    0.0503   -0.9859   -1.1965 H   0  0  0  0  0  0  0  0  0  0  0  0
    1.3208    0.1940   -1.7642 H   0  0  0  0  0  0  0  0  0  0  0  0
    1.5077   -1.9077    0.5933 H   0  0  0  0  0  0  0  0  0  0  0  0
    2.5472   -0.7220    1.4217 H   0  0  0  0  0  0  0  0  0  0  0  0
    3.8229   -1.8113   -0.2224 H   0  0  0  0  0  0  0  0  0  0  0  0
    3.6111   -0.0665   -0.7284 H   0  0  0  0  0  0  0  0  0  0  0  0
    2.6810   -1.3158   -1.5851 H   0  0  0  0  0  0  0  0  0  0  0  0
  1  2  1  0
  2  3  1  0
  3  4  1  0
  4  5  1  0
  4  6  1  0
  6  7  1  0
  7  8  1  0
  8  9  1  0
  1 10  1  0
  1 11  1  0
  1 12  1  0
  2 13  1  0
  2 14  1  0
  3 15  1  0
  3 16  1  0
  4 17  1  0
  5 18  1  0
  6 19  1  0
  6 20  1  0
  8 21  1  0
  8 22  1  0
  9 23  1  0
  9 24  1  0
  9 25  1  0
M  END
