
     RDKit          3D

 25 26  0  0  0  0  0  0  0  0999 V2000
    3.2903    0.7585    0.4072 C   0  0  0  0  0  0  0  0  0  0  0  0
    1.8887    0.8743   -0.1596 C   0  0  0  0  0  0  0  0  0  0  0  0
    1.1125   -0.3081    0.2681 C   0  0  0  0  0  0  0  0  0  0  0  0
   -0.3004   -0.3889   -0.1857 C   0  0  0  0  0  0  0  0  0  0  0  0
   -1.2933    0.6841    0.1905 C   0  0  0  0  0  0  0  0  0  0  0  0
   -2.6880    0.6511   -0.2284 C   0  0  0  0  0  0  0  0  0  0  0  0
   -2.3282    0.4306    1.2343 C   0  0  0  0  0  0  0  0  0  0  0  0
   -0.8249   -1.8338   -0.2594 C   0  0  0  0  0  0  0  0  0  0  0  0
   -0.5843   -1.1021   -1.5249 C   0  0  0  0  0  0  0  0  0  0  0  0
    3.6882   -0.2550    0.1885 H   0  0  0  0  0  0  0  0  0  0  0  0
    3.9028    1.5457   -0.1126 H   0  0  0  0  0  0  0  0  0  0  0  0
    3.3262    0.8967    1.4926 H   0  0  0  0  0  0  0  0  0  0  0  0
    2.0064    0.8624   -1.2791 H   0  0  0  0  0  0  0  0  0  0  0  0
    1.5039    1.8482    0.1049 H   0  0  0  0  0  0  0  0  0  0  0  0
    1.6522   -1.2202   -0.0641 H   0  0  0  0  0  0  0  0  0  0  0  0
    1.1193   -0.3700    1.3965 H   0  0  0  0  0  0  0  0  0  0  0  0
   -0.8253    1.6866    0.2848 H   0  0  0  0  0  0  0  0  0  0  0  0
   -3.1868   -0.2260   -0.6780 H   0  0  0  0  0  0  0  0  0  0  0  0
   -3.2196    1.6076   -0.4957 H   0  0  0  0  0  0  0  0  0  0  0  0
   -2.4638   -0.5670    1.6800 H   0  0  0  0  0  0  0  0  0  0  0  0
   -2.6323    1.2471    1.9350 H   0  0  0  0  0  0  0  0  0  0  0  0
   -0.1437   -2.6596   -0.0547 H   0  0  0  0  0  0  0  0  0  0  0  0
   -1.8619   -2.0184    0.0733 H   0  0  0  0  0  0  0  0  0  0  0  0
    0.3205   -1.3317   -2.1174 H   0  0  0  0  0  0  0  0  0  0  0  0
   -1.4585   -0.8121   -2.0963 H   0  0  0  0  0  0  0  0  0  0  0  0
  1  2  1  0
  2  3  1  0
  3  4  1  0
  4  5  1  0
  5  6  1  0
  6  7  1  0
  4  8  1  0
  8  9  1  0
  9  4  1  0
  7  5  1  0
  1 10  1  0
  1 11  1  0
  1 12  1  0
  2 13  1  0
  2 14  1  0
  3 15  1  0
  3 16  1  0
  5 17  1  0
  6 18  1  0
  6 19  1  0
  7 20  1  0
  7 21  1  0
  8 22  1  0
  8 23  1  0
  9 24  1  0
  9 25  1  0
M  END
