
     RDKit          3D

 25 25  0  0  0  0  0  0  0  0999 V2000
    3.4881   -0.0627    0.0788 C   0  0  0  0  0  0  0  0  0  0  0  0
    2.1247   -0.3160    0.6941 C   0  0  0  0  0  0  0  0  0  0  0  0
    1.0190    0.2591   -0.1568 C   0  0  0  0  0  0  0  0  0  0  0  0
   -0.2995   -0.0240    0.5088 C   0  0  0  0  0  0  0  0  0  0  0  0
   -0.5766   -1.4574    0.6898 C   0  0  0  0  0  0  0  0  0  0  0  0
   -1.8388   -1.7425    0.4632 C   0  0  0  0  0  0  0  0  0  0  0  0
   -2.5481   -0.4950    0.0991 C   0  0  0  0  0  0  0  0  0  0  0  0
   -1.4654    0.4797   -0.3140 C   0  0  0  0  0  0  0  0  0  0  0  0
   -1.8698    1.8601    0.1957 C   0  0  0  0  0  0  0  0  0  0  0  0
    4.0009    0.8109    0.5336 H   0  0  0  0  0  0  0  0  0  0  0  0
    3.4399    0.1127   -1.0014 H   0  0  0  0  0  0  0  0  0  0  0  0
    4.1665   -0.9338    0.2516 H   0  0  0  0  0  0  0  0  0  0  0  0
    2.1369    0.1309    1.7196 H   0  0  0  0  0  0  0  0  0  0  0  0
    2.0272   -1.4083    0.8333 H   0  0  0  0  0  0  0  0  0  0  0  0
    1.0432   -0.3078   -1.1212 H   0  0  0  0  0  0  0  0  0  0  0  0
    1.1792    1.3211   -0.3502 H   0  0  0  0  0  0  0  0  0  0  0  0
   -0.3644    0.4504    1.5194 H   0  0  0  0  0  0  0  0  0  0  0  0
    0.1749   -2.2236    0.9827 H   0  0  0  0  0  0  0  0  0  0  0  0
   -2.3107   -2.7588    0.5308 H   0  0  0  0  0  0  0  0  0  0  0  0
   -3.1662   -0.0992    0.9470 H   0  0  0  0  0  0  0  0  0  0  0  0
   -3.1703   -0.6730   -0.8025 H   0  0  0  0  0  0  0  0  0  0  0  0
   -1.2764    0.4743   -1.3919 H   0  0  0  0  0  0  0  0  0  0  0  0
   -1.4674    2.6637   -0.4578 H   0  0  0  0  0  0  0  0  0  0  0  0
   -2.9768    1.9344    0.2908 H   0  0  0  0  0  0  0  0  0  0  0  0
   -1.4705    2.0048    1.2343 H   0  0  0  0  0  0  0  0  0  0  0  0
  1  2  1  0
  2  3  1  0
  3  4  1  0
  4  5  1  0
  5  6  2  0
  6  7  1  0
  7  8  1  0
  8  9  1  0
  8  4  1  0
  1 10  1  0
  1 11  1  0
  1 12  1  0
  2 13  1  0
  2 14  1  0
  3 15  1  0
  3 16  1  0
  4 17  1  0
  5 18  1  0
  6 19  1  0
  7 20  1  0
  7 21  1  0
  8 22  1  0
  9 23  1  0
  9 24  1  0
  9 25  1  0
M  END
