
     RDKit          3D

 23 24  0  0  0  0  0  0  0  0999 V2000
   -2.3887    0.9868   -0.0390 C   0  0  0  0  0  0  0  0  0  0  0  0
   -2.3301   -0.4776   -0.3729 C   0  0  0  0  0  0  0  0  0  0  0  0
   -1.1190   -1.1425    0.2202 C   0  0  0  0  0  0  0  0  0  0  0  0
    0.1538   -0.5203   -0.2892 C   0  0  0  0  0  0  0  0  0  0  0  0
    1.4199   -1.1553    0.2761 C   0  0  0  0  0  0  0  0  0  0  0  0
    1.9997    0.1981    0.3009 C   0  0  0  0  0  0  0  0  0  0  0  0
    2.9965    0.8141   -0.3812 C   0  0  0  0  0  0  0  0  0  0  0  0
    3.0086    0.6058    1.1040 O   0  0  0  0  0  0  0  0  0  0  0  0
    0.5871    0.7428    0.4666 C   0  0  0  0  0  0  0  0  0  0  0  0
   -2.0183    1.2072    0.9678 H   0  0  0  0  0  0  0  0  0  0  0  0
   -3.4804    1.2757   -0.0880 H   0  0  0  0  0  0  0  0  0  0  0  0
   -1.8232    1.5525   -0.8171 H   0  0  0  0  0  0  0  0  0  0  0  0
   -2.3451   -0.5615   -1.4812 H   0  0  0  0  0  0  0  0  0  0  0  0
   -3.2398   -0.9605    0.0689 H   0  0  0  0  0  0  0  0  0  0  0  0
   -1.1369   -2.2179    0.0006 H   0  0  0  0  0  0  0  0  0  0  0  0
   -1.1449   -0.9893    1.3152 H   0  0  0  0  0  0  0  0  0  0  0  0
    0.2522   -0.4375   -1.3826 H   0  0  0  0  0  0  0  0  0  0  0  0
    1.8561   -1.9075   -0.3983 H   0  0  0  0  0  0  0  0  0  0  0  0
    1.2092   -1.5545    1.3046 H   0  0  0  0  0  0  0  0  0  0  0  0
    2.9915    1.9070   -0.6309 H   0  0  0  0  0  0  0  0  0  0  0  0
    3.8544    0.2803   -0.8648 H   0  0  0  0  0  0  0  0  0  0  0  0
    0.4463    1.6787   -0.0570 H   0  0  0  0  0  0  0  0  0  0  0  0
    0.2511    0.6754    1.5223 H   0  0  0  0  0  0  0  0  0  0  0  0
  1  2  1  0
  2  3  1  0
  3  4  1  0
  4  5  1  0
  5  6  1  0
  6  7  1  0
  7  8  1  0
  6  9  1  0
  9  4  1  0
  8  6  1  0
  1 10  1  0
  1 11  1  0
  1 12  1  0
  2 13  1  0
  2 14  1  0
  3 15  1  0
  3 16  1  0
  4 17  1  0
  5 18  1  0
  5 19  1  0
  7 20  1  0
  7 21  1  0
  9 22  1  0
  9 23  1  0
M  END
