
     RDKit          3D

 21 21  0  0  0  0  0  0  0  0999 V2000
    2.8255   -0.1619   -0.2800 C   0  0  0  0  0  0  0  0  0  0  0  0
    2.1350    0.2924    0.9767 C   0  0  0  0  0  0  0  0  0  0  0  0
    0.6879    0.6102    0.7761 C   0  0  0  0  0  0  0  0  0  0  0  0
   -0.1113   -0.5260    0.2922 C   0  0  0  0  0  0  0  0  0  0  0  0
    0.3264   -1.6296    0.0661 O   0  0  0  0  0  0  0  0  0  0  0  0
   -1.5662   -0.3008    0.0640 C   0  0  0  0  0  0  0  0  0  0  0  0
   -2.1360    1.0762    0.3414 C   0  0  0  0  0  0  0  0  0  0  0  0
   -2.5190   -1.4339    0.2985 C   0  0  0  0  0  0  0  0  0  0  0  0
   -2.1817   -0.9390   -1.0081 O   0  0  0  0  0  0  0  0  0  0  0  0
    2.6992   -1.2319   -0.4984 H   0  0  0  0  0  0  0  0  0  0  0  0
    3.9300    0.0084   -0.1178 H   0  0  0  0  0  0  0  0  0  0  0  0
    2.5350    0.5099   -1.0975 H   0  0  0  0  0  0  0  0  0  0  0  0
    2.6336    1.2488    1.2850 H   0  0  0  0  0  0  0  0  0  0  0  0
    2.2957   -0.4086    1.8252 H   0  0  0  0  0  0  0  0  0  0  0  0
    0.2708    0.9392    1.7421 H   0  0  0  0  0  0  0  0  0  0  0  0
    0.6063    1.4234    0.0234 H   0  0  0  0  0  0  0  0  0  0  0  0
   -3.2189    1.0337    0.1982 H   0  0  0  0  0  0  0  0  0  0  0  0
   -1.6252    1.7703   -0.3640 H   0  0  0  0  0  0  0  0  0  0  0  0
   -1.9424    1.3849    1.3901 H   0  0  0  0  0  0  0  0  0  0  0  0
   -3.5259   -1.2082    0.6639 H   0  0  0  0  0  0  0  0  0  0  0  0
   -2.1186   -2.4574    0.4569 H   0  0  0  0  0  0  0  0  0  0  0  0
  1  2  1  0
  2  3  1  0
  3  4  1  0
  4  5  2  0
  4  6  1  0
  6  7  1  0
  6  8  1  0
  8  9  1  0
  9  6  1  0
  1 10  1  0
  1 11  1  0
  1 12  1  0
  2 13  1  0
  2 14  1  0
  3 15  1  0
  3 16  1  0
  7 17  1  0
  7 18  1  0
  7 19  1  0
  8 20  1  0
  8 21  1  0
M  END
