
     RDKit          3D

 23 23  0  0  0  0  0  0  0  0999 V2000
    2.7637   -0.1588    0.8825 C   0  0  0  0  0  0  0  0  0  0  0  0
    1.2565   -0.1269    0.6593 C   0  0  0  0  0  0  0  0  0  0  0  0
    1.0336    0.3253   -0.7475 C   0  0  0  0  0  0  0  0  0  0  0  0
   -0.4505    0.4077   -1.1144 C   0  0  0  0  0  0  0  0  0  0  0  0
   -1.1689    1.3533   -0.2510 C   0  0  0  0  0  0  0  0  0  0  0  0
   -1.9712    0.8912    0.6874 C   0  0  0  0  0  0  0  0  0  0  0  0
   -2.0863   -0.5716    0.7986 C   0  0  0  0  0  0  0  0  0  0  0  0
   -1.9913   -1.2951   -0.3303 O   0  0  0  0  0  0  0  0  0  0  0  0
   -1.0742   -0.9362   -1.2676 C   0  0  0  0  0  0  0  0  0  0  0  0
    2.9846    0.5613    1.7034 H   0  0  0  0  0  0  0  0  0  0  0  0
    3.0696   -1.1961    1.1597 H   0  0  0  0  0  0  0  0  0  0  0  0
    3.3253    0.1505   -0.0080 H   0  0  0  0  0  0  0  0  0  0  0  0
    0.8462   -1.1604    0.7379 H   0  0  0  0  0  0  0  0  0  0  0  0
    0.7552    0.5827    1.3484 H   0  0  0  0  0  0  0  0  0  0  0  0
    1.4440   -0.4826   -1.4169 H   0  0  0  0  0  0  0  0  0  0  0  0
    1.5324    1.2895   -0.9702 H   0  0  0  0  0  0  0  0  0  0  0  0
   -0.4261    0.8870   -2.1421 H   0  0  0  0  0  0  0  0  0  0  0  0
   -1.0252    2.4183   -0.4015 H   0  0  0  0  0  0  0  0  0  0  0  0
   -2.5315    1.5727    1.3591 H   0  0  0  0  0  0  0  0  0  0  0  0
   -1.3898   -1.0066    1.5747 H   0  0  0  0  0  0  0  0  0  0  0  0
   -3.1078   -0.7622    1.2478 H   0  0  0  0  0  0  0  0  0  0  0  0
   -0.2500   -1.6933   -1.2394 H   0  0  0  0  0  0  0  0  0  0  0  0
   -1.5386   -1.0497   -2.2698 H   0  0  0  0  0  0  0  0  0  0  0  0
  1  2  1  0
  2  3  1  0
  3  4  1  0
  4  5  1  0
  5  6  2  0
  6  7  1  0
  7  8  1  0
  8  9  1  0
  9  4  1  0
  1 10  1  0
  1 11  1  0
  1 12  1  0
  2 13  1  0
  2 14  1  0
  3 15  1  0
  3 16  1  0
  4 17  1  0
  5 18  1  0
  6 19  1  0
  7 20  1  0
  7 21  1  0
  9 22  1  0
  9 23  1  0
M  END
