
     RDKit          3D

 21 21  0  0  0  0  0  0  0  0999 V2000
    3.8483    0.0379    0.0042 C   0  0  0  0  0  0  0  0  0  0  0  0
    2.3933   -0.3568    0.0422 C   0  0  0  0  0  0  0  0  0  0  0  0
    1.5692    0.8179   -0.4381 C   0  0  0  0  0  0  0  0  0  0  0  0
    0.1517    0.3965   -0.3876 C   0  0  0  0  0  0  0  0  0  0  0  0
   -1.0025    0.0473   -0.3573 C   0  0  0  0  0  0  0  0  0  0  0  0
   -2.4025   -0.3710   -0.3456 C   0  0  0  0  0  0  0  0  0  0  0  0
   -2.8964   -1.0104   -1.4853 O   0  0  0  0  0  0  0  0  0  0  0  0
   -3.3463    0.6309    0.3560 C   0  0  0  0  0  0  0  0  0  0  0  0
   -3.0547   -0.7019    0.9268 C   0  0  0  0  0  0  0  0  0  0  0  0
    4.0903    0.3333   -1.0203 H   0  0  0  0  0  0  0  0  0  0  0  0
    4.0784    0.8395    0.7437 H   0  0  0  0  0  0  0  0  0  0  0  0
    4.4277   -0.8796    0.2927 H   0  0  0  0  0  0  0  0  0  0  0  0
    2.1220   -0.6471    1.0701 H   0  0  0  0  0  0  0  0  0  0  0  0
    2.2345   -1.1793   -0.6626 H   0  0  0  0  0  0  0  0  0  0  0  0
    1.6994    1.6899    0.2152 H   0  0  0  0  0  0  0  0  0  0  0  0
    1.8862    1.0904   -1.4499 H   0  0  0  0  0  0  0  0  0  0  0  0
   -2.2823   -0.8844   -2.2700 H   0  0  0  0  0  0  0  0  0  0  0  0
   -4.2523    0.8516   -0.2234 H   0  0  0  0  0  0  0  0  0  0  0  0
   -2.8628    1.4853    0.8873 H   0  0  0  0  0  0  0  0  0  0  0  0
   -3.9239   -1.4176    0.8990 H   0  0  0  0  0  0  0  0  0  0  0  0
   -2.4775   -0.7725    1.8629 H   0  0  0  0  0  0  0  0  0  0  0  0
  1  2  1  0
  2  3  1  0
  3  4  1  0
  4  5  3  0
  5  6  1  0
  6  7  1  0
  6  8  1  0
  8  9  1  0
  9  6  1  0
  1 10  1  0
  1 11  1  0
  1 12  1  0
  2 13  1  0
  2 14  1  0
  3 15  1  0
  3 16  1  0
  7 17  1  0
  8 18  1  0
  8 19  1  0
  9 20  1  0
  9 21  1  0
M  END
