
     RDKit          3D

 29 28  0  0  0  0  0  0  0  0999 V2000
    4.1897   -0.1783    0.0824 C   0  0  0  0  0  0  0  0  0  0  0  0
    2.6949   -0.1233   -0.3133 C   0  0  0  0  0  0  0  0  0  0  0  0
    2.0252    0.6732    0.7495 C   0  0  0  0  0  0  0  0  0  0  0  0
    0.5844    0.9501    0.6297 C   0  0  0  0  0  0  0  0  0  0  0  0
   -0.3731   -0.1846    0.5609 C   0  0  0  0  0  0  0  0  0  0  0  0
   -0.2280   -1.1022   -0.5992 C   0  0  0  0  0  0  0  0  0  0  0  0
   -1.7625    0.4082    0.6088 C   0  0  0  0  0  0  0  0  0  0  0  0
   -2.8802   -0.5643    0.5754 C   0  0  0  0  0  0  0  0  0  0  0  0
   -4.2175    0.1965    0.6463 C   0  0  0  0  0  0  0  0  0  0  0  0
    4.4760    0.8554    0.3021 H   0  0  0  0  0  0  0  0  0  0  0  0
    4.7178   -0.5179   -0.8056 H   0  0  0  0  0  0  0  0  0  0  0  0
    4.3397   -0.7873    0.9783 H   0  0  0  0  0  0  0  0  0  0  0  0
    2.3137   -1.1860   -0.2748 H   0  0  0  0  0  0  0  0  0  0  0  0
    2.6307    0.3399   -1.2887 H   0  0  0  0  0  0  0  0  0  0  0  0
    2.3177    0.2676    1.7529 H   0  0  0  0  0  0  0  0  0  0  0  0
    2.5447    1.6893    0.7424 H   0  0  0  0  0  0  0  0  0  0  0  0
    0.3911    1.6825   -0.1927 H   0  0  0  0  0  0  0  0  0  0  0  0
    0.2968    1.5408    1.5592 H   0  0  0  0  0  0  0  0  0  0  0  0
   -0.2765   -0.8216    1.4869 H   0  0  0  0  0  0  0  0  0  0  0  0
    0.3867   -0.6991   -1.4348 H   0  0  0  0  0  0  0  0  0  0  0  0
    0.1624   -2.1026   -0.3289 H   0  0  0  0  0  0  0  0  0  0  0  0
   -1.2164   -1.3201   -1.1118 H   0  0  0  0  0  0  0  0  0  0  0  0
   -1.8086    1.0881    1.4844 H   0  0  0  0  0  0  0  0  0  0  0  0
   -1.8384    1.0604   -0.3126 H   0  0  0  0  0  0  0  0  0  0  0  0
   -2.9640   -1.2097   -0.2863 H   0  0  0  0  0  0  0  0  0  0  0  0
   -2.8621   -1.1533    1.5401 H   0  0  0  0  0  0  0  0  0  0  0  0
   -4.1826    1.1113    0.0182 H   0  0  0  0  0  0  0  0  0  0  0  0
   -4.3978    0.5503    1.6872 H   0  0  0  0  0  0  0  0  0  0  0  0
   -5.0639   -0.4633    0.3774 H   0  0  0  0  0  0  0  0  0  0  0  0
  1  2  1  0
  2  3  1  0
  3  4  1  0
  4  5  1  0
  5  6  1  0
  5  7  1  0
  7  8  1  0
  8  9  1  0
  1 10  1  0
  1 11  1  0
  1 12  1  0
  2 13  1  0
  2 14  1  0
  3 15  1  0
  3 16  1  0
  4 17  1  0
  4 18  1  0
  5 19  1  0
  6 20  1  0
  6 21  1  0
  6 22  1  0
  7 23  1  0
  7 24  1  0
  8 25  1  0
  8 26  1  0
  9 27  1  0
  9 28  1  0
  9 29  1  0
M  END
