
     RDKit          3D

 23 23  0  0  0  0  0  0  0  0999 V2000
    2.9613   -0.1484   -0.8429 C   0  0  0  0  0  0  0  0  0  0  0  0
    1.5760   -0.7299   -0.5274 C   0  0  0  0  0  0  0  0  0  0  0  0
    0.7155    0.4069   -0.0955 C   0  0  0  0  0  0  0  0  0  0  0  0
   -0.6831    0.0474    0.2589 C   0  0  0  0  0  0  0  0  0  0  0  0
   -0.8943   -0.9244    1.3720 C   0  0  0  0  0  0  0  0  0  0  0  0
   -1.5104    1.3032    0.4945 C   0  0  0  0  0  0  0  0  0  0  0  0
   -2.5379    0.7775   -0.4463 C   0  0  0  0  0  0  0  0  0  0  0  0
   -3.6762    1.0492   -0.7147 O   0  0  0  0  0  0  0  0  0  0  0  0
   -1.5669   -0.2476   -0.9361 C   0  0  0  0  0  0  0  0  0  0  0  0
    3.2107    0.5185    0.0267 H   0  0  0  0  0  0  0  0  0  0  0  0
    2.8462    0.5251   -1.7281 H   0  0  0  0  0  0  0  0  0  0  0  0
    3.7057   -0.9230   -1.0090 H   0  0  0  0  0  0  0  0  0  0  0  0
    1.2118   -1.1567   -1.4911 H   0  0  0  0  0  0  0  0  0  0  0  0
    1.7413   -1.4979    0.2350 H   0  0  0  0  0  0  0  0  0  0  0  0
    0.6811    1.1450   -0.9235 H   0  0  0  0  0  0  0  0  0  0  0  0
    1.2150    0.9431    0.7540 H   0  0  0  0  0  0  0  0  0  0  0  0
   -0.2443   -1.8130    1.3266 H   0  0  0  0  0  0  0  0  0  0  0  0
   -1.9400   -1.2968    1.3443 H   0  0  0  0  0  0  0  0  0  0  0  0
   -0.7933   -0.3665    2.3352 H   0  0  0  0  0  0  0  0  0  0  0  0
   -1.0204    2.2399    0.1630 H   0  0  0  0  0  0  0  0  0  0  0  0
   -1.8531    1.4282    1.5430 H   0  0  0  0  0  0  0  0  0  0  0  0
   -2.0254   -1.2419   -0.9232 H   0  0  0  0  0  0  0  0  0  0  0  0
   -1.1193   -0.0379   -1.9233 H   0  0  0  0  0  0  0  0  0  0  0  0
  1  2  1  0
  2  3  1  0
  3  4  1  0
  4  5  1  0
  4  6  1  0
  6  7  1  0
  7  8  2  0
  7  9  1  0
  9  4  1  0
  1 10  1  0
  1 11  1  0
  1 12  1  0
  2 13  1  0
  2 14  1  0
  3 15  1  0
  3 16  1  0
  5 17  1  0
  5 18  1  0
  5 19  1  0
  6 20  1  0
  6 21  1  0
  9 22  1  0
  9 23  1  0
M  END
