
     RDKit          3D

 23 22  0  0  0  0  0  0  0  0999 V2000
    2.4834    0.5714    0.3399 C   0  0  0  0  0  0  0  0  0  0  0  0
    1.7458   -0.7580    0.4362 C   0  0  0  0  0  0  0  0  0  0  0  0
    0.8802   -0.9426   -0.7942 C   0  0  0  0  0  0  0  0  0  0  0  0
   -0.1302    0.1759   -0.9002 C   0  0  0  0  0  0  0  0  0  0  0  0
   -1.0518    0.2530    0.2753 C   0  0  0  0  0  0  0  0  0  0  0  0
   -1.8675   -0.9721    0.5045 C   0  0  0  0  0  0  0  0  0  0  0  0
   -2.0204    1.3984    0.0149 C   0  0  0  0  0  0  0  0  0  0  0  0
    2.7201    0.7184   -0.7408 H   0  0  0  0  0  0  0  0  0  0  0  0
    1.8587    1.4033    0.7293 H   0  0  0  0  0  0  0  0  0  0  0  0
    3.4362    0.4470    0.8933 H   0  0  0  0  0  0  0  0  0  0  0  0
    1.1413   -0.8107    1.3552 H   0  0  0  0  0  0  0  0  0  0  0  0
    2.4983   -1.5654    0.5024 H   0  0  0  0  0  0  0  0  0  0  0  0
    1.5239   -0.8747   -1.6965 H   0  0  0  0  0  0  0  0  0  0  0  0
    0.4229   -1.9350   -0.7977 H   0  0  0  0  0  0  0  0  0  0  0  0
   -0.6639    0.1542   -1.8708 H   0  0  0  0  0  0  0  0  0  0  0  0
    0.4630    1.1272   -0.9107 H   0  0  0  0  0  0  0  0  0  0  0  0
   -0.4448    0.4598    1.1818 H   0  0  0  0  0  0  0  0  0  0  0  0
   -2.3801   -0.8649    1.4837 H   0  0  0  0  0  0  0  0  0  0  0  0
   -2.6732   -1.0801   -0.2684 H   0  0  0  0  0  0  0  0  0  0  0  0
   -1.2816   -1.9062    0.5529 H   0  0  0  0  0  0  0  0  0  0  0  0
   -2.4093    1.2379   -1.0245 H   0  0  0  0  0  0  0  0  0  0  0  0
   -2.8255    1.4169    0.7628 H   0  0  0  0  0  0  0  0  0  0  0  0
   -1.4255    2.3461    0.0543 H   0  0  0  0  0  0  0  0  0  0  0  0
  1  2  1  0
  2  3  1  0
  3  4  1  0
  4  5  1  0
  5  6  1  0
  5  7  1  0
  1  8  1  0
  1  9  1  0
  1 10  1  0
  2 11  1  0
  2 12  1  0
  3 13  1  0
  3 14  1  0
  4 15  1  0
  4 16  1  0
  5 17  1  0
  6 18  1  0
  6 19  1  0
  6 20  1  0
  7 21  1  0
  7 22  1  0
  7 23  1  0
M  END
