
     RDKit          3D

 25 24  0  0  0  0  0  0  0  0999 V2000
    3.4217    0.4151   -0.0042 C   0  0  0  0  0  0  0  0  0  0  0  0
    2.1688   -0.4516    0.0801 C   0  0  0  0  0  0  0  0  0  0  0  0
    0.9458    0.4358    0.2098 C   0  0  0  0  0  0  0  0  0  0  0  0
   -0.2660   -0.4454    0.2900 C   0  0  0  0  0  0  0  0  0  0  0  0
   -0.3956   -1.2780   -0.9132 C   0  0  0  0  0  0  0  0  0  0  0  0
    0.0235   -2.4284   -0.9880 O   0  0  0  0  0  0  0  0  0  0  0  0
   -1.5201    0.3206    0.6242 C   0  0  0  0  0  0  0  0  0  0  0  0
   -2.6743   -0.6584    0.6797 C   0  0  0  0  0  0  0  0  0  0  0  0
   -1.8557    1.3708   -0.3852 C   0  0  0  0  0  0  0  0  0  0  0  0
    4.3035   -0.2424   -0.0194 H   0  0  0  0  0  0  0  0  0  0  0  0
    3.3710    0.9248   -0.9856 H   0  0  0  0  0  0  0  0  0  0  0  0
    3.3959    1.1209    0.8445 H   0  0  0  0  0  0  0  0  0  0  0  0
    2.1557   -1.0795   -0.8188 H   0  0  0  0  0  0  0  0  0  0  0  0
    2.2885   -1.1146    0.9612 H   0  0  0  0  0  0  0  0  0  0  0  0
    1.0438    0.9658    1.1903 H   0  0  0  0  0  0  0  0  0  0  0  0
    0.9406    1.1189   -0.6498 H   0  0  0  0  0  0  0  0  0  0  0  0
   -0.0921   -1.1476    1.1541 H   0  0  0  0  0  0  0  0  0  0  0  0
   -0.8863   -0.8608   -1.7851 H   0  0  0  0  0  0  0  0  0  0  0  0
   -1.4170    0.7484    1.6405 H   0  0  0  0  0  0  0  0  0  0  0  0
   -3.5185   -0.2017    1.2714 H   0  0  0  0  0  0  0  0  0  0  0  0
   -2.3449   -1.6130    1.1270 H   0  0  0  0  0  0  0  0  0  0  0  0
   -3.0990   -0.8466   -0.3303 H   0  0  0  0  0  0  0  0  0  0  0  0
   -1.3095    2.3246   -0.2227 H   0  0  0  0  0  0  0  0  0  0  0  0
   -1.7400    0.9914   -1.4073 H   0  0  0  0  0  0  0  0  0  0  0  0
   -2.9398    1.6307   -0.2486 H   0  0  0  0  0  0  0  0  0  0  0  0
  1  2  1  0
  2  3  1  0
  3  4  1  0
  4  5  1  0
  5  6  2  0
  4  7  1  0
  7  8  1  0
  7  9  1  0
  1 10  1  0
  1 11  1  0
  1 12  1  0
  2 13  1  0
  2 14  1  0
  3 15  1  0
  3 16  1  0
  4 17  1  0
  5 18  1  0
  7 19  1  0
  8 20  1  0
  8 21  1  0
  8 22  1  0
  9 23  1  0
  9 24  1  0
  9 25  1  0
M  END
