
     RDKit          3D

 25 25  0  0  0  0  0  0  0  0999 V2000
    3.2494   -0.1936    0.3921 C   0  0  0  0  0  0  0  0  0  0  0  0
    1.8762   -0.6477   -0.0937 C   0  0  0  0  0  0  0  0  0  0  0  0
    1.0418    0.5840   -0.2676 C   0  0  0  0  0  0  0  0  0  0  0  0
   -0.3551    0.2936   -0.7482 C   0  0  0  0  0  0  0  0  0  0  0  0
   -1.0518    1.6560   -0.8667 C   0  0  0  0  0  0  0  0  0  0  0  0
   -2.3835    1.2731   -0.7110 O   0  0  0  0  0  0  0  0  0  0  0  0
   -2.3465    0.5882    0.4886 C   0  0  0  0  0  0  0  0  0  0  0  0
   -1.1803   -0.3720    0.3046 C   0  0  0  0  0  0  0  0  0  0  0  0
   -1.7434   -1.6965   -0.0952 C   0  0  0  0  0  0  0  0  0  0  0  0
    4.0427   -0.9213    0.1002 H   0  0  0  0  0  0  0  0  0  0  0  0
    3.2694   -0.0219    1.4797 H   0  0  0  0  0  0  0  0  0  0  0  0
    3.4533    0.7879   -0.0939 H   0  0  0  0  0  0  0  0  0  0  0  0
    2.0301   -1.2151   -1.0252 H   0  0  0  0  0  0  0  0  0  0  0  0
    1.4601   -1.3102    0.6932 H   0  0  0  0  0  0  0  0  0  0  0  0
    0.9552    1.0741    0.7255 H   0  0  0  0  0  0  0  0  0  0  0  0
    1.5718    1.2603   -0.9679 H   0  0  0  0  0  0  0  0  0  0  0  0
   -0.3736   -0.2358   -1.7127 H   0  0  0  0  0  0  0  0  0  0  0  0
   -0.8467    2.1497   -1.8119 H   0  0  0  0  0  0  0  0  0  0  0  0
   -0.7306    2.2555    0.0281 H   0  0  0  0  0  0  0  0  0  0  0  0
   -3.2918    0.0217    0.6805 H   0  0  0  0  0  0  0  0  0  0  0  0
   -2.1845    1.2456    1.3629 H   0  0  0  0  0  0  0  0  0  0  0  0
   -0.6385   -0.4492    1.2552 H   0  0  0  0  0  0  0  0  0  0  0  0
   -2.1470   -1.6813   -1.1243 H   0  0  0  0  0  0  0  0  0  0  0  0
   -1.0502   -2.5517    0.0805 H   0  0  0  0  0  0  0  0  0  0  0  0
   -2.6266   -1.8933    0.5758 H   0  0  0  0  0  0  0  0  0  0  0  0
  1  2  1  0
  2  3  1  0
  3  4  1  0
  4  5  1  0
  5  6  1  0
  6  7  1  0
  7  8  1  0
  8  9  1  0
  8  4  1  0
  1 10  1  0
  1 11  1  0
  1 12  1  0
  2 13  1  0
  2 14  1  0
  3 15  1  0
  3 16  1  0
  4 17  1  0
  5 18  1  0
  5 19  1  0
  7 20  1  0
  7 21  1  0
  8 22  1  0
  9 23  1  0
  9 24  1  0
  9 25  1  0
M  END
