
     RDKit          3D

 27 27  0  0  0  0  0  0  0  0999 V2000
    2.6693    0.0485   -0.7155 C   0  0  0  0  0  0  0  0  0  0  0  0
    2.4079    0.7061    0.6096 C   0  0  0  0  0  0  0  0  0  0  0  0
    1.1056    0.2829    1.1849 C   0  0  0  0  0  0  0  0  0  0  0  0
   -0.1134    0.6061    0.4075 C   0  0  0  0  0  0  0  0  0  0  0  0
   -0.4642    0.1574   -0.9275 C   0  0  0  0  0  0  0  0  0  0  0  0
   -1.4851    0.9667   -1.7158 C   0  0  0  0  0  0  0  0  0  0  0  0
   -1.1268   -0.5095    0.3010 C   0  0  0  0  0  0  0  0  0  0  0  0
   -2.5159   -0.1267    0.6818 C   0  0  0  0  0  0  0  0  0  0  0  0
   -0.6441   -1.9202    0.5388 C   0  0  0  0  0  0  0  0  0  0  0  0
    3.7754   -0.0159   -0.9187 H   0  0  0  0  0  0  0  0  0  0  0  0
    2.2081    0.6501   -1.5104 H   0  0  0  0  0  0  0  0  0  0  0  0
    2.2987   -0.9766   -0.7716 H   0  0  0  0  0  0  0  0  0  0  0  0
    3.2563    0.5760    1.3223 H   0  0  0  0  0  0  0  0  0  0  0  0
    2.3517    1.8348    0.4942 H   0  0  0  0  0  0  0  0  0  0  0  0
    1.0208    0.8050    2.1915 H   0  0  0  0  0  0  0  0  0  0  0  0
    1.1257   -0.8153    1.4449 H   0  0  0  0  0  0  0  0  0  0  0  0
   -0.5134    1.6387    0.6653 H   0  0  0  0  0  0  0  0  0  0  0  0
    0.1652   -0.4693   -1.5464 H   0  0  0  0  0  0  0  0  0  0  0  0
   -1.1402    1.1925   -2.7312 H   0  0  0  0  0  0  0  0  0  0  0  0
   -2.3732    0.2886   -1.8334 H   0  0  0  0  0  0  0  0  0  0  0  0
   -1.7436    1.9149   -1.2197 H   0  0  0  0  0  0  0  0  0  0  0  0
   -2.5014    0.1784    1.7590 H   0  0  0  0  0  0  0  0  0  0  0  0
   -3.2761   -0.8955    0.4655 H   0  0  0  0  0  0  0  0  0  0  0  0
   -2.8330    0.7862    0.1256 H   0  0  0  0  0  0  0  0  0  0  0  0
   -0.4195   -2.1382    1.5923 H   0  0  0  0  0  0  0  0  0  0  0  0
   -1.4668   -2.5985    0.2012 H   0  0  0  0  0  0  0  0  0  0  0  0
    0.2323   -2.1671   -0.0953 H   0  0  0  0  0  0  0  0  0  0  0  0
  1  2  1  0
  2  3  1  0
  3  4  1  0
  4  5  1  0
  5  6  1  0
  5  7  1  0
  7  8  1  0
  7  9  1  0
  7  4  1  0
  1 10  1  0
  1 11  1  0
  1 12  1  0
  2 13  1  0
  2 14  1  0
  3 15  1  0
  3 16  1  0
  4 17  1  0
  5 18  1  0
  6 19  1  0
  6 20  1  0
  6 21  1  0
  8 22  1  0
  8 23  1  0
  8 24  1  0
  9 25  1  0
  9 26  1  0
  9 27  1  0
M  END
