
     RDKit          3D

 19 18  0  0  0  0  0  0  0  0999 V2000
    2.1779   -0.0860    0.2229 C   0  0  0  0  0  0  0  0  0  0  0  0
    1.2267    0.0315   -0.9347 C   0  0  0  0  0  0  0  0  0  0  0  0
    0.0122    0.8348   -0.5104 C   0  0  0  0  0  0  0  0  0  0  0  0
   -0.7194    0.1795    0.6429 C   0  0  0  0  0  0  0  0  0  0  0  0
   -1.8128    1.0222    0.9311 O   0  0  0  0  0  0  0  0  0  0  0  0
   -1.2627   -1.1672    0.2739 C   0  0  0  0  0  0  0  0  0  0  0  0
   -2.0819   -0.9843   -0.8538 O   0  0  0  0  0  0  0  0  0  0  0  0
    3.1826    0.3514   -0.0445 H   0  0  0  0  0  0  0  0  0  0  0  0
    2.4075   -1.1555    0.4728 H   0  0  0  0  0  0  0  0  0  0  0  0
    1.8360    0.4860    1.1001 H   0  0  0  0  0  0  0  0  0  0  0  0
    0.9398   -0.9601   -1.3451 H   0  0  0  0  0  0  0  0  0  0  0  0
    1.7195    0.6145   -1.7408 H   0  0  0  0  0  0  0  0  0  0  0  0
    0.3664    1.8470   -0.2278 H   0  0  0  0  0  0  0  0  0  0  0  0
   -0.7100    0.9680   -1.3324 H   0  0  0  0  0  0  0  0  0  0  0  0
   -0.1197    0.1455    1.5694 H   0  0  0  0  0  0  0  0  0  0  0  0
   -2.0210    1.6242    0.1780 H   0  0  0  0  0  0  0  0  0  0  0  0
   -1.8887   -1.5639    1.0751 H   0  0  0  0  0  0  0  0  0  0  0  0
   -0.5009   -1.9029    0.0201 H   0  0  0  0  0  0  0  0  0  0  0  0
   -2.7515   -0.2847   -0.5898 H   0  0  0  0  0  0  0  0  0  0  0  0
  1  2  1  0
  2  3  1  0
  3  4  1  0
  4  5  1  0
  4  6  1  0
  6  7  1  0
  1  8  1  0
  1  9  1  0
  1 10  1  0
  2 11  1  0
  2 12  1  0
  3 13  1  0
  3 14  1  0
  4 15  1  0
  5 16  1  0
  6 17  1  0
  6 18  1  0
  7 19  1  0
M  END
