
     RDKit          3D

 23 23  0  0  0  0  0  0  0  0999 V2000
    2.9974    0.6952   -0.2576 C   0  0  0  0  0  0  0  0  0  0  0  0
    2.4960   -0.3035    0.7643 C   0  0  0  0  0  0  0  0  0  0  0  0
    0.9907   -0.1090    0.9816 C   0  0  0  0  0  0  0  0  0  0  0  0
    0.3220   -0.3330   -0.3551 C   0  0  0  0  0  0  0  0  0  0  0  0
   -1.1323   -0.1788   -0.3006 C   0  0  0  0  0  0  0  0  0  0  0  0
   -1.8757    0.6825   -0.9749 C   0  0  0  0  0  0  0  0  0  0  0  0
   -3.3087    0.4400   -0.5668 C   0  0  0  0  0  0  0  0  0  0  0  0
   -3.2715   -0.9138   -0.2415 O   0  0  0  0  0  0  0  0  0  0  0  0
   -2.0819   -0.9634    0.5254 C   0  0  0  0  0  0  0  0  0  0  0  0
    2.2694    1.5321   -0.2724 H   0  0  0  0  0  0  0  0  0  0  0  0
    3.9952    1.0333    0.1019 H   0  0  0  0  0  0  0  0  0  0  0  0
    3.0372    0.2333   -1.2623 H   0  0  0  0  0  0  0  0  0  0  0  0
    2.7132   -1.3109    0.3804 H   0  0  0  0  0  0  0  0  0  0  0  0
    3.0293   -0.2032    1.7381 H   0  0  0  0  0  0  0  0  0  0  0  0
    0.8165    0.8945    1.3962 H   0  0  0  0  0  0  0  0  0  0  0  0
    0.6503   -0.8587    1.7185 H   0  0  0  0  0  0  0  0  0  0  0  0
    0.8202    0.3331   -1.0790 H   0  0  0  0  0  0  0  0  0  0  0  0
    0.6184   -1.3774   -0.6676 H   0  0  0  0  0  0  0  0  0  0  0  0
   -1.5288    1.4236   -1.6862 H   0  0  0  0  0  0  0  0  0  0  0  0
   -4.0054    0.6706   -1.3749 H   0  0  0  0  0  0  0  0  0  0  0  0
   -3.4746    1.0350    0.3586 H   0  0  0  0  0  0  0  0  0  0  0  0
   -1.7713   -2.0056    0.6831 H   0  0  0  0  0  0  0  0  0  0  0  0
   -2.3055   -0.4159    1.4673 H   0  0  0  0  0  0  0  0  0  0  0  0
  1  2  1  0
  2  3  1  0
  3  4  1  0
  4  5  1  0
  5  6  2  0
  6  7  1  0
  7  8  1  0
  8  9  1  0
  9  5  1  0
  1 10  1  0
  1 11  1  0
  1 12  1  0
  2 13  1  0
  2 14  1  0
  3 15  1  0
  3 16  1  0
  4 17  1  0
  4 18  1  0
  6 19  1  0
  7 20  1  0
  7 21  1  0
  9 22  1  0
  9 23  1  0
M  END
