
     RDKit          3D

 27 27  0  0  0  0  0  0  0  0999 V2000
   -3.5814    0.9203   -0.7918 C   0  0  0  0  0  0  0  0  0  0  0  0
   -2.5256    0.2696    0.1033 C   0  0  0  0  0  0  0  0  0  0  0  0
   -1.1448    0.4295   -0.5163 C   0  0  0  0  0  0  0  0  0  0  0  0
   -0.1589   -0.2225    0.3984 C   0  0  0  0  0  0  0  0  0  0  0  0
   -0.5580   -1.7002    0.5096 C   0  0  0  0  0  0  0  0  0  0  0  0
    1.2483   -0.2034   -0.1330 C   0  0  0  0  0  0  0  0  0  0  0  0
    2.2418   -0.8810    0.8282 C   0  0  0  0  0  0  0  0  0  0  0  0
    2.3091    0.6033    0.4635 C   0  0  0  0  0  0  0  0  0  0  0  0
    3.5119    0.9598   -0.3848 C   0  0  0  0  0  0  0  0  0  0  0  0
   -3.8117    0.2218   -1.6230 H   0  0  0  0  0  0  0  0  0  0  0  0
   -3.1503    1.8724   -1.1589 H   0  0  0  0  0  0  0  0  0  0  0  0
   -4.4747    1.0943   -0.1778 H   0  0  0  0  0  0  0  0  0  0  0  0
   -2.8113   -0.8219    0.1403 H   0  0  0  0  0  0  0  0  0  0  0  0
   -2.5760    0.6295    1.1360 H   0  0  0  0  0  0  0  0  0  0  0  0
   -1.1595   -0.1044   -1.4797 H   0  0  0  0  0  0  0  0  0  0  0  0
   -0.9829    1.5134   -0.6380 H   0  0  0  0  0  0  0  0  0  0  0  0
   -0.2366    0.2047    1.4171 H   0  0  0  0  0  0  0  0  0  0  0  0
   -1.0134   -1.9865   -0.4698 H   0  0  0  0  0  0  0  0  0  0  0  0
   -1.2585   -1.8448    1.3540 H   0  0  0  0  0  0  0  0  0  0  0  0
    0.3616   -2.3327    0.6013 H   0  0  0  0  0  0  0  0  0  0  0  0
    1.3261   -0.4762   -1.2044 H   0  0  0  0  0  0  0  0  0  0  0  0
    2.9386   -1.5764    0.3468 H   0  0  0  0  0  0  0  0  0  0  0  0
    1.9379   -1.0564    1.8602 H   0  0  0  0  0  0  0  0  0  0  0  0
    2.0553    1.3510    1.2216 H   0  0  0  0  0  0  0  0  0  0  0  0
    4.4378    0.5750    0.0887 H   0  0  0  0  0  0  0  0  0  0  0  0
    3.6305    2.0581   -0.4827 H   0  0  0  0  0  0  0  0  0  0  0  0
    3.4448    0.5037   -1.4090 H   0  0  0  0  0  0  0  0  0  0  0  0
  1  2  1  0
  2  3  1  0
  3  4  1  0
  4  5  1  0
  4  6  1  0
  6  7  1  0
  7  8  1  0
  8  9  1  0
  8  6  1  0
  1 10  1  0
  1 11  1  0
  1 12  1  0
  2 13  1  0
  2 14  1  0
  3 15  1  0
  3 16  1  0
  4 17  1  0
  5 18  1  0
  5 19  1  0
  5 20  1  0
  6 21  1  0
  7 22  1  0
  7 23  1  0
  8 24  1  0
  9 25  1  0
  9 26  1  0
  9 27  1  0
M  END
