
     RDKit          3D

 25 25  0  0  0  0  0  0  0  0999 V2000
    3.3930    0.8091    0.1199 C   0  0  0  0  0  0  0  0  0  0  0  0
    2.2143   -0.1153    0.3553 C   0  0  0  0  0  0  0  0  0  0  0  0
    0.9715    0.5616   -0.1694 C   0  0  0  0  0  0  0  0  0  0  0  0
   -0.2464   -0.3103    0.0349 C   0  0  0  0  0  0  0  0  0  0  0  0
   -0.0409   -1.6227   -0.7115 C   0  0  0  0  0  0  0  0  0  0  0  0
   -1.4817    0.3153   -0.5813 C   0  0  0  0  0  0  0  0  0  0  0  0
   -2.7273   -0.5435   -0.3906 C   0  0  0  0  0  0  0  0  0  0  0  0
   -2.5819    0.8223    0.2326 C   0  0  0  0  0  0  0  0  0  0  0  0
   -2.5012    0.9472    1.6102 O   0  0  0  0  0  0  0  0  0  0  0  0
    3.0473    1.8698    0.1085 H   0  0  0  0  0  0  0  0  0  0  0  0
    4.1293    0.7062    0.9472 H   0  0  0  0  0  0  0  0  0  0  0  0
    3.9477    0.5491   -0.8154 H   0  0  0  0  0  0  0  0  0  0  0  0
    2.0846   -0.2643    1.4331 H   0  0  0  0  0  0  0  0  0  0  0  0
    2.4006   -1.0342   -0.2134 H   0  0  0  0  0  0  0  0  0  0  0  0
    1.0618    0.7488   -1.2673 H   0  0  0  0  0  0  0  0  0  0  0  0
    0.8677    1.5183    0.3836 H   0  0  0  0  0  0  0  0  0  0  0  0
   -0.4692   -0.4902    1.0922 H   0  0  0  0  0  0  0  0  0  0  0  0
   -1.0242   -2.1547   -0.7631 H   0  0  0  0  0  0  0  0  0  0  0  0
    0.7481   -2.2367   -0.2849 H   0  0  0  0  0  0  0  0  0  0  0  0
    0.1684   -1.3230   -1.7789 H   0  0  0  0  0  0  0  0  0  0  0  0
   -1.3019    0.7376   -1.5903 H   0  0  0  0  0  0  0  0  0  0  0  0
   -2.7005   -1.3666    0.3466 H   0  0  0  0  0  0  0  0  0  0  0  0
   -3.3452   -0.6873   -1.2809 H   0  0  0  0  0  0  0  0  0  0  0  0
   -3.2402    1.5928   -0.2368 H   0  0  0  0  0  0  0  0  0  0  0  0
   -3.3738    0.9707    2.0564 H   0  0  0  0  0  0  0  0  0  0  0  0
  1  2  1  0
  2  3  1  0
  3  4  1  0
  4  5  1  0
  4  6  1  0
  6  7  1  0
  7  8  1  0
  8  9  1  0
  8  6  1  0
  1 10  1  0
  1 11  1  0
  1 12  1  0
  2 13  1  0
  2 14  1  0
  3 15  1  0
  3 16  1  0
  4 17  1  0
  5 18  1  0
  5 19  1  0
  5 20  1  0
  6 21  1  0
  7 22  1  0
  7 23  1  0
  8 24  1  0
  9 25  1  0
M  END
