
     RDKit          3D

 25 25  0  0  0  0  0  0  0  0999 V2000
    2.7706    0.5516   -0.2842 C   0  0  0  0  0  0  0  0  0  0  0  0
    1.9945   -0.4113    0.5337 C   0  0  0  0  0  0  0  0  0  0  0  0
    0.6435   -0.0331    0.9950 C   0  0  0  0  0  0  0  0  0  0  0  0
   -0.3950    0.2306   -0.0389 C   0  0  0  0  0  0  0  0  0  0  0  0
   -0.0166    1.3789   -0.9175 C   0  0  0  0  0  0  0  0  0  0  0  0
   -1.7547    0.5021    0.5792 C   0  0  0  0  0  0  0  0  0  0  0  0
   -2.5898   -0.6897    0.1772 C   0  0  0  0  0  0  0  0  0  0  0  0
   -1.4663   -1.7074   -0.0699 C   0  0  0  0  0  0  0  0  0  0  0  0
   -0.5661   -0.9474   -0.7664 O   0  0  0  0  0  0  0  0  0  0  0  0
    3.8151    0.0856   -0.3894 H   0  0  0  0  0  0  0  0  0  0  0  0
    2.4089    0.5565   -1.3209 H   0  0  0  0  0  0  0  0  0  0  0  0
    2.8964    1.5640    0.1572 H   0  0  0  0  0  0  0  0  0  0  0  0
    2.5679   -0.7341    1.4603 H   0  0  0  0  0  0  0  0  0  0  0  0
    1.9855   -1.3806   -0.0673 H   0  0  0  0  0  0  0  0  0  0  0  0
    0.1972   -0.8230    1.6786 H   0  0  0  0  0  0  0  0  0  0  0  0
    0.7349    0.8528    1.7079 H   0  0  0  0  0  0  0  0  0  0  0  0
   -0.9372    2.0550   -1.0275 H   0  0  0  0  0  0  0  0  0  0  0  0
    0.2510    1.1051   -1.9574 H   0  0  0  0  0  0  0  0  0  0  0  0
    0.7373    2.0424   -0.5165 H   0  0  0  0  0  0  0  0  0  0  0  0
   -1.7026    0.6447    1.6741 H   0  0  0  0  0  0  0  0  0  0  0  0
   -2.2190    1.3906    0.0847 H   0  0  0  0  0  0  0  0  0  0  0  0
   -3.1375   -0.5509   -0.7565 H   0  0  0  0  0  0  0  0  0  0  0  0
   -3.1976   -1.0879    1.0126 H   0  0  0  0  0  0  0  0  0  0  0  0
   -1.1677   -2.0657    0.9162 H   0  0  0  0  0  0  0  0  0  0  0  0
   -1.8526   -2.5287   -0.7268 H   0  0  0  0  0  0  0  0  0  0  0  0
  1  2  1  0
  2  3  1  0
  3  4  1  0
  4  5  1  0
  4  6  1  0
  6  7  1  0
  7  8  1  0
  8  9  1  0
  9  4  1  0
  1 10  1  0
  1 11  1  0
  1 12  1  0
  2 13  1  0
  2 14  1  0
  3 15  1  0
  3 16  1  0
  5 17  1  0
  5 18  1  0
  5 19  1  0
  6 20  1  0
  6 21  1  0
  7 22  1  0
  7 23  1  0
  8 24  1  0
  8 25  1  0
M  END
