
     RDKit          3D

 19 19  0  0  0  0  0  0  0  0999 V2000
    2.8418    0.1745   -0.0028 C   0  0  0  0  0  0  0  0  0  0  0  0
    1.5452   -0.6145    0.0011 C   0  0  0  0  0  0  0  0  0  0  0  0
    0.4262    0.3588    0.2318 C   0  0  0  0  0  0  0  0  0  0  0  0
   -0.9310   -0.2945    0.2595 C   0  0  0  0  0  0  0  0  0  0  0  0
   -2.0616    0.7167    0.4964 C   0  0  0  0  0  0  0  0  0  0  0  0
   -1.9377   -0.0104   -0.7893 C   0  0  0  0  0  0  0  0  0  0  0  0
   -2.9021   -0.9502   -1.0821 O   0  0  0  0  0  0  0  0  0  0  0  0
    3.0195    0.5371   -1.0477 H   0  0  0  0  0  0  0  0  0  0  0  0
    2.7087    1.0313    0.6914 H   0  0  0  0  0  0  0  0  0  0  0  0
    3.6788   -0.4957    0.3167 H   0  0  0  0  0  0  0  0  0  0  0  0
    1.4362   -1.2170   -0.8947 H   0  0  0  0  0  0  0  0  0  0  0  0
    1.6003   -1.3033    0.8764 H   0  0  0  0  0  0  0  0  0  0  0  0
    0.5888    0.8812    1.1938 H   0  0  0  0  0  0  0  0  0  0  0  0
    0.3994    1.1458   -0.5500 H   0  0  0  0  0  0  0  0  0  0  0  0
   -1.0064   -1.2622    0.7932 H   0  0  0  0  0  0  0  0  0  0  0  0
   -1.8365    1.7873    0.4654 H   0  0  0  0  0  0  0  0  0  0  0  0
   -2.8443    0.4450    1.2363 H   0  0  0  0  0  0  0  0  0  0  0  0
   -1.5911    0.5678   -1.6881 H   0  0  0  0  0  0  0  0  0  0  0  0
   -3.1341   -1.4977   -0.2865 H   0  0  0  0  0  0  0  0  0  0  0  0
  1  2  1  0
  2  3  1  0
  3  4  1  0
  4  5  1  0
  5  6  1  0
  6  7  1  0
  6  4  1  0
  1  8  1  0
  1  9  1  0
  1 10  1  0
  2 11  1  0
  2 12  1  0
  3 13  1  0
  3 14  1  0
  4 15  1  0
  5 16  1  0
  5 17  1  0
  6 18  1  0
  7 19  1  0
M  END
