
     RDKit          3D

 29 28  0  0  0  0  0  0  0  0999 V2000
   -4.2048    0.6013    0.1076 C   0  0  0  0  0  0  0  0  0  0  0  0
   -3.2393   -0.5151   -0.2203 C   0  0  0  0  0  0  0  0  0  0  0  0
   -1.8390   -0.1923    0.3089 C   0  0  0  0  0  0  0  0  0  0  0  0
   -0.8763   -1.2875   -0.0089 C   0  0  0  0  0  0  0  0  0  0  0  0
    0.5274   -1.0449    0.4864 C   0  0  0  0  0  0  0  0  0  0  0  0
    1.0495    0.2007   -0.1454 C   0  0  0  0  0  0  0  0  0  0  0  0
    2.4608    0.5377    0.2784 C   0  0  0  0  0  0  0  0  0  0  0  0
    2.8369    1.8152   -0.4443 C   0  0  0  0  0  0  0  0  0  0  0  0
    3.4469   -0.5300   -0.1292 C   0  0  0  0  0  0  0  0  0  0  0  0
   -3.7123    1.5717   -0.0963 H   0  0  0  0  0  0  0  0  0  0  0  0
   -5.1099    0.4987   -0.4982 H   0  0  0  0  0  0  0  0  0  0  0  0
   -4.4613    0.5964    1.1899 H   0  0  0  0  0  0  0  0  0  0  0  0
   -3.2260   -0.7235   -1.2919 H   0  0  0  0  0  0  0  0  0  0  0  0
   -3.6424   -1.4304    0.2842 H   0  0  0  0  0  0  0  0  0  0  0  0
   -1.5532    0.7669   -0.1234 H   0  0  0  0  0  0  0  0  0  0  0  0
   -1.9337   -0.0623    1.4065 H   0  0  0  0  0  0  0  0  0  0  0  0
   -1.2139   -2.2598    0.3918 H   0  0  0  0  0  0  0  0  0  0  0  0
   -0.7951   -1.3548   -1.1327 H   0  0  0  0  0  0  0  0  0  0  0  0
    0.5540   -1.0162    1.5970 H   0  0  0  0  0  0  0  0  0  0  0  0
    1.1297   -1.9430    0.1867 H   0  0  0  0  0  0  0  0  0  0  0  0
    1.0175    0.1086   -1.2478 H   0  0  0  0  0  0  0  0  0  0  0  0
    0.4244    1.0591    0.1475 H   0  0  0  0  0  0  0  0  0  0  0  0
    2.4997    0.7080    1.3702 H   0  0  0  0  0  0  0  0  0  0  0  0
    3.8574    2.1280   -0.1692 H   0  0  0  0  0  0  0  0  0  0  0  0
    2.7605    1.5819   -1.5432 H   0  0  0  0  0  0  0  0  0  0  0  0
    2.0616    2.5581   -0.2049 H   0  0  0  0  0  0  0  0  0  0  0  0
    3.7201   -1.1989    0.7279 H   0  0  0  0  0  0  0  0  0  0  0  0
    3.0632   -1.1312   -0.9777 H   0  0  0  0  0  0  0  0  0  0  0  0
    4.3976   -0.0425   -0.4341 H   0  0  0  0  0  0  0  0  0  0  0  0
  1  2  1  0
  2  3  1  0
  3  4  1  0
  4  5  1  0
  5  6  1  0
  6  7  1  0
  7  8  1  0
  7  9  1  0
  1 10  1  0
  1 11  1  0
  1 12  1  0
  2 13  1  0
  2 14  1  0
  3 15  1  0
  3 16  1  0
  4 17  1  0
  4 18  1  0
  5 19  1  0
  5 20  1  0
  6 21  1  0
  6 22  1  0
  7 23  1  0
  8 24  1  0
  8 25  1  0
  8 26  1  0
  9 27  1  0
  9 28  1  0
  9 29  1  0
M  END
