
     RDKit          3D

 25 25  0  0  0  0  0  0  0  0999 V2000
    3.4284    0.5359    0.3991 C   0  0  0  0  0  0  0  0  0  0  0  0
    2.2713   -0.1396   -0.3093 C   0  0  0  0  0  0  0  0  0  0  0  0
    0.9384    0.3029    0.3129 C   0  0  0  0  0  0  0  0  0  0  0  0
   -0.1436   -0.4019   -0.4361 C   0  0  0  0  0  0  0  0  0  0  0  0
    0.0546   -1.7715   -0.2923 O   0  0  0  0  0  0  0  0  0  0  0  0
   -1.5284    0.0247   -0.0534 C   0  0  0  0  0  0  0  0  0  0  0  0
   -1.8176    1.4940   -0.2752 C   0  0  0  0  0  0  0  0  0  0  0  0
   -2.3297   -0.6849    0.9567 C   0  0  0  0  0  0  0  0  0  0  0  0
   -2.6207   -0.9636   -0.5036 C   0  0  0  0  0  0  0  0  0  0  0  0
    3.5579    1.5864    0.1199 H   0  0  0  0  0  0  0  0  0  0  0  0
    3.3778    0.3745    1.5004 H   0  0  0  0  0  0  0  0  0  0  0  0
    4.3521   -0.0024    0.0601 H   0  0  0  0  0  0  0  0  0  0  0  0
    2.4065   -1.2168   -0.1986 H   0  0  0  0  0  0  0  0  0  0  0  0
    2.3291    0.1493   -1.3789 H   0  0  0  0  0  0  0  0  0  0  0  0
    0.8546    1.4077    0.2992 H   0  0  0  0  0  0  0  0  0  0  0  0
    1.0059    0.0103    1.3784 H   0  0  0  0  0  0  0  0  0  0  0  0
    0.0029   -0.1695   -1.5238 H   0  0  0  0  0  0  0  0  0  0  0  0
    0.4865   -1.9299    0.5808 H   0  0  0  0  0  0  0  0  0  0  0  0
   -0.9037    2.0483   -0.5135 H   0  0  0  0  0  0  0  0  0  0  0  0
   -2.5740    1.5506   -1.0824 H   0  0  0  0  0  0  0  0  0  0  0  0
   -2.2699    1.9297    0.6295 H   0  0  0  0  0  0  0  0  0  0  0  0
   -1.9216   -1.4947    1.5884 H   0  0  0  0  0  0  0  0  0  0  0  0
   -3.1225   -0.1027    1.4733 H   0  0  0  0  0  0  0  0  0  0  0  0
   -3.5373   -0.5659   -0.9406 H   0  0  0  0  0  0  0  0  0  0  0  0
   -2.2972   -1.9709   -0.8254 H   0  0  0  0  0  0  0  0  0  0  0  0
  1  2  1  0
  2  3  1  0
  3  4  1  0
  4  5  1  0
  4  6  1  0
  6  7  1  0
  6  8  1  0
  8  9  1  0
  9  6  1  0
  1 10  1  0
  1 11  1  0
  1 12  1  0
  2 13  1  0
  2 14  1  0
  3 15  1  0
  3 16  1  0
  4 17  1  0
  5 18  1  0
  7 19  1  0
  7 20  1  0
  7 21  1  0
  8 22  1  0
  8 23  1  0
  9 24  1  0
  9 25  1  0
M  END
