
     RDKit          3D

 23 23  0  0  0  0  0  0  0  0999 V2000
    2.9498   -0.1502    0.2399 C   0  0  0  0  0  0  0  0  0  0  0  0
    1.5581   -0.7742    0.3027 C   0  0  0  0  0  0  0  0  0  0  0  0
    0.5997    0.2214   -0.2483 C   0  0  0  0  0  0  0  0  0  0  0  0
   -0.8329   -0.2457   -0.2565 C   0  0  0  0  0  0  0  0  0  0  0  0
   -1.0262   -1.4922   -1.0858 C   0  0  0  0  0  0  0  0  0  0  0  0
   -1.6470    0.8366   -0.8313 C   0  0  0  0  0  0  0  0  0  0  0  0
   -2.1053    1.5584    0.1701 C   0  0  0  0  0  0  0  0  0  0  0  0
   -1.5806    0.9307    1.3962 C   0  0  0  0  0  0  0  0  0  0  0  0
   -1.3012   -0.3854    1.0300 O   0  0  0  0  0  0  0  0  0  0  0  0
    2.9500    0.8159    0.7801 H   0  0  0  0  0  0  0  0  0  0  0  0
    3.6934   -0.8623    0.6661 H   0  0  0  0  0  0  0  0  0  0  0  0
    3.2673    0.0467   -0.7975 H   0  0  0  0  0  0  0  0  0  0  0  0
    1.3302   -0.8950    1.3970 H   0  0  0  0  0  0  0  0  0  0  0  0
    1.5291   -1.7425   -0.1983 H   0  0  0  0  0  0  0  0  0  0  0  0
    0.6757    1.1609    0.3298 H   0  0  0  0  0  0  0  0  0  0  0  0
    0.9497    0.4852   -1.2820 H   0  0  0  0  0  0  0  0  0  0  0  0
   -0.4001   -2.3318   -0.7700 H   0  0  0  0  0  0  0  0  0  0  0  0
   -0.8926   -1.2208   -2.1511 H   0  0  0  0  0  0  0  0  0  0  0  0
   -2.1071   -1.7701   -0.9642 H   0  0  0  0  0  0  0  0  0  0  0  0
   -1.8386    1.0133   -1.8846 H   0  0  0  0  0  0  0  0  0  0  0  0
   -2.7386    2.4391    0.1584 H   0  0  0  0  0  0  0  0  0  0  0  0
   -0.6947    1.4408    1.7948 H   0  0  0  0  0  0  0  0  0  0  0  0
   -2.3382    0.9214    2.2045 H   0  0  0  0  0  0  0  0  0  0  0  0
  1  2  1  0
  2  3  1  0
  3  4  1  0
  4  5  1  0
  4  6  1  0
  6  7  2  0
  7  8  1  0
  8  9  1  0
  9  4  1  0
  1 10  1  0
  1 11  1  0
  1 12  1  0
  2 13  1  0
  2 14  1  0
  3 15  1  0
  3 16  1  0
  5 17  1  0
  5 18  1  0
  5 19  1  0
  6 20  1  0
  7 21  1  0
  8 22  1  0
  8 23  1  0
M  END
