
     RDKit          3D

 23 24  0  0  0  0  0  0  0  0999 V2000
   -2.6662    0.1814    0.5553 C   0  0  0  0  0  0  0  0  0  0  0  0
   -2.0331   -0.2018   -0.7750 C   0  0  0  0  0  0  0  0  0  0  0  0
   -0.7347    0.5116   -0.9767 C   0  0  0  0  0  0  0  0  0  0  0  0
    0.2723    0.1951    0.1014 C   0  0  0  0  0  0  0  0  0  0  0  0
    0.5151   -1.3265    0.0537 C   0  0  0  0  0  0  0  0  0  0  0  0
    1.9269   -1.4688   -0.0589 O   0  0  0  0  0  0  0  0  0  0  0  0
    2.3172   -0.4233    0.7165 C   0  0  0  0  0  0  0  0  0  0  0  0
    2.8179    0.8645    0.4859 C   0  0  0  0  0  0  0  0  0  0  0  0
    1.6414    0.6437   -0.2425 C   0  0  0  0  0  0  0  0  0  0  0  0
   -3.7561    0.0666    0.4394 H   0  0  0  0  0  0  0  0  0  0  0  0
   -2.3573   -0.5202    1.3609 H   0  0  0  0  0  0  0  0  0  0  0  0
   -2.3779    1.2219    0.7734 H   0  0  0  0  0  0  0  0  0  0  0  0
   -1.9642   -1.3014   -0.8860 H   0  0  0  0  0  0  0  0  0  0  0  0
   -2.7427    0.1525   -1.5725 H   0  0  0  0  0  0  0  0  0  0  0  0
   -0.3430    0.2817   -1.9781 H   0  0  0  0  0  0  0  0  0  0  0  0
   -0.9512    1.6111   -0.9675 H   0  0  0  0  0  0  0  0  0  0  0  0
   -0.0327    0.5206    1.0947 H   0  0  0  0  0  0  0  0  0  0  0  0
    0.0068   -1.7949   -0.7924 H   0  0  0  0  0  0  0  0  0  0  0  0
    0.2573   -1.7188    1.0418 H   0  0  0  0  0  0  0  0  0  0  0  0
    1.8101   -0.5539    1.7259 H   0  0  0  0  0  0  0  0  0  0  0  0
    3.8024    0.9656   -0.0499 H   0  0  0  0  0  0  0  0  0  0  0  0
    2.7964    1.6417    1.3026 H   0  0  0  0  0  0  0  0  0  0  0  0
    1.7952    0.4515   -1.3522 H   0  0  0  0  0  0  0  0  0  0  0  0
  1  2  1  0
  2  3  1  0
  3  4  1  0
  4  5  1  0
  5  6  1  0
  6  7  1  0
  7  8  1  0
  8  9  1  0
  9  4  1  0
  9  7  1  0
  1 10  1  0
  1 11  1  0
  1 12  1  0
  2 13  1  0
  2 14  1  0
  3 15  1  0
  3 16  1  0
  4 17  1  0
  5 18  1  0
  5 19  1  0
  7 20  1  0
  8 21  1  0
  8 22  1  0
  9 23  1  0
M  END
