
     RDKit          3D

 25 26  0  0  0  0  0  0  0  0999 V2000
    2.6620    0.4949   -0.1085 C   0  0  0  0  0  0  0  0  0  0  0  0
    1.7407    0.1381   -1.2583 C   0  0  0  0  0  0  0  0  0  0  0  0
    0.6575   -0.8239   -0.8107 C   0  0  0  0  0  0  0  0  0  0  0  0
   -0.1974   -0.4242    0.1840 C   0  0  0  0  0  0  0  0  0  0  0  0
   -1.3280   -1.1997    0.7781 C   0  0  0  0  0  0  0  0  0  0  0  0
   -1.4004    0.1308    1.4803 C   0  0  0  0  0  0  0  0  0  0  0  0
    0.1061    0.0240    1.5719 C   0  0  0  0  0  0  0  0  0  0  0  0
   -1.1660    0.7369    0.1288 C   0  0  0  0  0  0  0  0  0  0  0  0
   -2.2798    0.5918   -0.8656 C   0  0  0  0  0  0  0  0  0  0  0  0
    2.5627   -0.1786    0.7520 H   0  0  0  0  0  0  0  0  0  0  0  0
    3.7197    0.5261   -0.4912 H   0  0  0  0  0  0  0  0  0  0  0  0
    2.4754    1.5324    0.2697 H   0  0  0  0  0  0  0  0  0  0  0  0
    2.3509   -0.2903   -2.0863 H   0  0  0  0  0  0  0  0  0  0  0  0
    1.2887    1.0761   -1.6291 H   0  0  0  0  0  0  0  0  0  0  0  0
    0.0980   -1.0820   -1.7615 H   0  0  0  0  0  0  0  0  0  0  0  0
    1.1912   -1.7784   -0.5641 H   0  0  0  0  0  0  0  0  0  0  0  0
   -2.1623   -1.4560    0.1293 H   0  0  0  0  0  0  0  0  0  0  0  0
   -0.9992   -1.9782    1.5003 H   0  0  0  0  0  0  0  0  0  0  0  0
   -2.0320    0.4170    2.1960 H   0  0  0  0  0  0  0  0  0  0  0  0
    0.6496    0.9524    1.7158 H   0  0  0  0  0  0  0  0  0  0  0  0
    0.3792   -0.8293    2.2354 H   0  0  0  0  0  0  0  0  0  0  0  0
   -0.6719    1.7116    0.0918 H   0  0  0  0  0  0  0  0  0  0  0  0
   -2.3446    1.4972   -1.5183 H   0  0  0  0  0  0  0  0  0  0  0  0
   -3.2489    0.4678   -0.3638 H   0  0  0  0  0  0  0  0  0  0  0  0
   -2.0511   -0.2564   -1.5758 H   0  0  0  0  0  0  0  0  0  0  0  0
  1  2  1  0
  2  3  1  0
  3  4  1  0
  4  5  1  0
  5  6  1  0
  6  7  1  0
  6  8  1  0
  8  9  1  0
  7  4  1  0
  8  4  1  0
  1 10  1  0
  1 11  1  0
  1 12  1  0
  2 13  1  0
  2 14  1  0
  3 15  1  0
  3 16  1  0
  5 17  1  0
  5 18  1  0
  6 19  1  0
  7 20  1  0
  7 21  1  0
  8 22  1  0
  9 23  1  0
  9 24  1  0
  9 25  1  0
M  END
