
     RDKit          3D

 18 17  0  0  0  0  0  0  0  0999 V2000
   -2.2288   -1.3129    0.1197 C   0  0  0  0  0  0  0  0  0  0  0  0
   -1.0636   -0.5195    0.7184 C   0  0  0  0  0  0  0  0  0  0  0  0
   -0.9878    0.7689   -0.0700 C   0  0  0  0  0  0  0  0  0  0  0  0
    0.1337    1.6609    0.4200 C   0  0  0  0  0  0  0  0  0  0  0  0
    1.3977    0.9173    0.2622 C   0  0  0  0  0  0  0  0  0  0  0  0
    2.4349    0.3028    0.1241 C   0  0  0  0  0  0  0  0  0  0  0  0
    3.6562   -0.4484   -0.0319 C   0  0  0  0  0  0  0  0  0  0  0  0
    3.6528   -1.6872    0.2138 O   0  0  0  0  0  0  0  0  0  0  0  0
   -2.9769   -0.6097   -0.2733 H   0  0  0  0  0  0  0  0  0  0  0  0
   -1.8275   -1.9258   -0.7118 H   0  0  0  0  0  0  0  0  0  0  0  0
   -2.6960   -1.9651    0.8699 H   0  0  0  0  0  0  0  0  0  0  0  0
   -1.2946   -0.3470    1.7818 H   0  0  0  0  0  0  0  0  0  0  0  0
   -0.1404   -1.1206    0.6568 H   0  0  0  0  0  0  0  0  0  0  0  0
   -0.8946    0.5403   -1.1462 H   0  0  0  0  0  0  0  0  0  0  0  0
   -1.9697    1.2761    0.0573 H   0  0  0  0  0  0  0  0  0  0  0  0
    0.2181    2.5373   -0.2525 H   0  0  0  0  0  0  0  0  0  0  0  0
    0.0098    1.9425    1.4772 H   0  0  0  0  0  0  0  0  0  0  0  0
    4.5766   -0.0097   -0.3480 H   0  0  0  0  0  0  0  0  0  0  0  0
  1  2  1  0
  2  3  1  0
  3  4  1  0
  4  5  1  0
  5  6  3  0
  6  7  1  0
  7  8  2  0
  1  9  1  0
  1 10  1  0
  1 11  1  0
  2 12  1  0
  2 13  1  0
  3 14  1  0
  3 15  1  0
  4 16  1  0
  4 17  1  0
  7 18  1  0
M  END
