
     RDKit          3D

 25 24  0  0  0  0  0  0  0  0999 V2000
    3.0628   -0.7299    0.5189 C   0  0  0  0  0  0  0  0  0  0  0  0
    2.1024    0.3649    0.8576 C   0  0  0  0  0  0  0  0  0  0  0  0
    1.5505    1.0865   -0.3483 C   0  0  0  0  0  0  0  0  0  0  0  0
    0.8107    0.1395   -1.2730 C   0  0  0  0  0  0  0  0  0  0  0  0
   -0.3481   -0.5339   -0.6204 C   0  0  0  0  0  0  0  0  0  0  0  0
   -1.3960    0.4700   -0.1510 C   0  0  0  0  0  0  0  0  0  0  0  0
   -2.4988   -0.3253    0.4729 C   0  0  0  0  0  0  0  0  0  0  0  0
   -3.9063   -0.2321   -0.0009 C   0  0  0  0  0  0  0  0  0  0  0  0
   -2.2385   -1.0787    1.3978 O   0  0  0  0  0  0  0  0  0  0  0  0
    2.6994   -1.4350   -0.2525 H   0  0  0  0  0  0  0  0  0  0  0  0
    4.0699   -0.3412    0.1784 H   0  0  0  0  0  0  0  0  0  0  0  0
    3.2874   -1.2604    1.4730 H   0  0  0  0  0  0  0  0  0  0  0  0
    1.2958   -0.0902    1.4737 H   0  0  0  0  0  0  0  0  0  0  0  0
    2.6583    1.1240    1.4694 H   0  0  0  0  0  0  0  0  0  0  0  0
    2.4060    1.5142   -0.9127 H   0  0  0  0  0  0  0  0  0  0  0  0
    0.9081    1.9042   -0.0084 H   0  0  0  0  0  0  0  0  0  0  0  0
    0.4111    0.7344   -2.1232 H   0  0  0  0  0  0  0  0  0  0  0  0
    1.4799   -0.6347   -1.6699 H   0  0  0  0  0  0  0  0  0  0  0  0
   -0.0853   -1.1765    0.2242 H   0  0  0  0  0  0  0  0  0  0  0  0
   -0.8654   -1.1219   -1.4139 H   0  0  0  0  0  0  0  0  0  0  0  0
   -1.7443    1.0998   -0.9726 H   0  0  0  0  0  0  0  0  0  0  0  0
   -0.8751    1.0884    0.6143 H   0  0  0  0  0  0  0  0  0  0  0  0
   -4.0378    0.6608   -0.6278 H   0  0  0  0  0  0  0  0  0  0  0  0
   -4.1776   -1.1107   -0.6238 H   0  0  0  0  0  0  0  0  0  0  0  0
   -4.5691   -0.1161    0.8719 H   0  0  0  0  0  0  0  0  0  0  0  0
  1  2  1  0
  2  3  1  0
  3  4  1  0
  4  5  1  0
  5  6  1  0
  6  7  1  0
  7  8  1  0
  7  9  2  0
  1 10  1  0
  1 11  1  0
  1 12  1  0
  2 13  1  0
  2 14  1  0
  3 15  1  0
  3 16  1  0
  4 17  1  0
  4 18  1  0
  5 19  1  0
  5 20  1  0
  6 21  1  0
  6 22  1  0
  8 23  1  0
  8 24  1  0
  8 25  1  0
M  END
