
     RDKit          3D

 22 21  0  0  0  0  0  0  0  0999 V2000
    2.8526   -0.1541   -0.2861 C   0  0  0  0  0  0  0  0  0  0  0  0
    1.3991   -0.3792   -0.6789 C   0  0  0  0  0  0  0  0  0  0  0  0
    0.5302    0.2951    0.3530 C   0  0  0  0  0  0  0  0  0  0  0  0
   -0.9314    0.1453    0.0776 C   0  0  0  0  0  0  0  0  0  0  0  0
   -1.3637   -1.2940    0.0481 C   0  0  0  0  0  0  0  0  0  0  0  0
   -1.6702    0.7951    1.2555 C   0  0  0  0  0  0  0  0  0  0  0  0
   -1.3728    0.8651   -1.1371 C   0  0  0  0  0  0  0  0  0  0  0  0
   -1.0812    2.0240   -1.3232 O   0  0  0  0  0  0  0  0  0  0  0  0
    3.4808   -0.8071   -0.9266 H   0  0  0  0  0  0  0  0  0  0  0  0
    2.9930   -0.4950    0.7502 H   0  0  0  0  0  0  0  0  0  0  0  0
    3.1291    0.9228   -0.3716 H   0  0  0  0  0  0  0  0  0  0  0  0
    1.1988   -0.0285   -1.7046 H   0  0  0  0  0  0  0  0  0  0  0  0
    1.2518   -1.4789   -0.6789 H   0  0  0  0  0  0  0  0  0  0  0  0
    0.7391   -0.1259    1.3457 H   0  0  0  0  0  0  0  0  0  0  0  0
    0.7764    1.3708    0.3873 H   0  0  0  0  0  0  0  0  0  0  0  0
   -2.4144   -1.3733   -0.2648 H   0  0  0  0  0  0  0  0  0  0  0  0
   -1.3235   -1.7271    1.0861 H   0  0  0  0  0  0  0  0  0  0  0  0
   -0.7545   -1.8491   -0.6691 H   0  0  0  0  0  0  0  0  0  0  0  0
   -1.5418    1.8957    1.1730 H   0  0  0  0  0  0  0  0  0  0  0  0
   -1.1946    0.4933    2.2199 H   0  0  0  0  0  0  0  0  0  0  0  0
   -2.7381    0.5696    1.2060 H   0  0  0  0  0  0  0  0  0  0  0  0
   -1.9645    0.3353   -1.8615 H   0  0  0  0  0  0  0  0  0  0  0  0
  1  2  1  0
  2  3  1  0
  3  4  1  0
  4  5  1  0
  4  6  1  0
  4  7  1  0
  7  8  2  0
  1  9  1  0
  1 10  1  0
  1 11  1  0
  2 12  1  0
  2 13  1  0
  3 14  1  0
  3 15  1  0
  5 16  1  0
  5 17  1  0
  5 18  1  0
  6 19  1  0
  6 20  1  0
  6 21  1  0
  7 22  1  0
M  END
