
     RDKit          3D

 27 26  0  0  0  0  0  0  0  0999 V2000
   -3.1879    0.8181   -0.1124 C   0  0  0  0  0  0  0  0  0  0  0  0
   -2.1472   -0.3068   -0.1804 C   0  0  0  0  0  0  0  0  0  0  0  0
   -0.8049    0.3419   -0.1901 C   0  0  0  0  0  0  0  0  0  0  0  0
    0.3467   -0.6027   -0.2543 C   0  0  0  0  0  0  0  0  0  0  0  0
    0.3248   -1.5153    0.9329 C   0  0  0  0  0  0  0  0  0  0  0  0
    0.3713   -1.4408   -1.5013 C   0  0  0  0  0  0  0  0  0  0  0  0
    1.6240    0.2435   -0.2396 C   0  0  0  0  0  0  0  0  0  0  0  0
    1.5807    0.9585    0.9682 O   0  0  0  0  0  0  0  0  0  0  0  0
    2.7448    1.7510    1.0160 C   0  0  0  0  0  0  0  0  0  0  0  0
   -4.2097    0.4447   -0.2015 H   0  0  0  0  0  0  0  0  0  0  0  0
   -2.9042    1.5429   -0.8962 H   0  0  0  0  0  0  0  0  0  0  0  0
   -3.0456    1.3476    0.8627 H   0  0  0  0  0  0  0  0  0  0  0  0
   -2.3022   -0.8235   -1.1486 H   0  0  0  0  0  0  0  0  0  0  0  0
   -2.3417   -0.9770    0.6559 H   0  0  0  0  0  0  0  0  0  0  0  0
   -0.6865    0.9664    0.7163 H   0  0  0  0  0  0  0  0  0  0  0  0
   -0.7739    1.0410   -1.0567 H   0  0  0  0  0  0  0  0  0  0  0  0
    0.4655   -0.9199    1.8779 H   0  0  0  0  0  0  0  0  0  0  0  0
   -0.6337   -2.0322    1.0156 H   0  0  0  0  0  0  0  0  0  0  0  0
    1.1221   -2.2958    0.8266 H   0  0  0  0  0  0  0  0  0  0  0  0
    0.3309   -0.8531   -2.4297 H   0  0  0  0  0  0  0  0  0  0  0  0
    1.3302   -2.0153   -1.4888 H   0  0  0  0  0  0  0  0  0  0  0  0
   -0.4331   -2.1837   -1.5431 H   0  0  0  0  0  0  0  0  0  0  0  0
    2.5247   -0.3628   -0.3457 H   0  0  0  0  0  0  0  0  0  0  0  0
    1.5948    1.0093   -1.0411 H   0  0  0  0  0  0  0  0  0  0  0  0
    2.7233    2.4307    0.1353 H   0  0  0  0  0  0  0  0  0  0  0  0
    3.6224    1.0674    0.9359 H   0  0  0  0  0  0  0  0  0  0  0  0
    2.7644    2.3660    1.9365 H   0  0  0  0  0  0  0  0  0  0  0  0
  1  2  1  0
  2  3  1  0
  3  4  1  0
  4  5  1  0
  4  6  1  0
  4  7  1  0
  7  8  1  0
  8  9  1  0
  1 10  1  0
  1 11  1  0
  1 12  1  0
  2 13  1  0
  2 14  1  0
  3 15  1  0
  3 16  1  0
  5 17  1  0
  5 18  1  0
  5 19  1  0
  6 20  1  0
  6 21  1  0
  6 22  1  0
  7 23  1  0
  7 24  1  0
  9 25  1  0
  9 26  1  0
  9 27  1  0
M  END
