
     RDKit          3D

 24 23  0  0  0  0  0  0  0  0999 V2000
    3.4665   -0.7365   -0.2956 C   0  0  0  0  0  0  0  0  0  0  0  0
    2.3361    0.0206    0.2998 C   0  0  0  0  0  0  0  0  0  0  0  0
    0.9911   -0.3291   -0.3512 C   0  0  0  0  0  0  0  0  0  0  0  0
   -0.0441    0.5185    0.3618 C   0  0  0  0  0  0  0  0  0  0  0  0
   -1.4269    0.3072   -0.1471 C   0  0  0  0  0  0  0  0  0  0  0  0
   -1.7929   -1.1556    0.0520 C   0  0  0  0  0  0  0  0  0  0  0  0
   -2.3678    1.1053    0.7427 C   0  0  0  0  0  0  0  0  0  0  0  0
   -3.6816    0.9897    0.3709 O   0  0  0  0  0  0  0  0  0  0  0  0
    3.2056   -1.7027   -0.7410 H   0  0  0  0  0  0  0  0  0  0  0  0
    4.2681   -0.8673    0.4878 H   0  0  0  0  0  0  0  0  0  0  0  0
    3.9599   -0.0904   -1.0722 H   0  0  0  0  0  0  0  0  0  0  0  0
    2.2010   -0.2433    1.3811 H   0  0  0  0  0  0  0  0  0  0  0  0
    2.4476    1.1202    0.2013 H   0  0  0  0  0  0  0  0  0  0  0  0
    0.8454   -1.4094   -0.1404 H   0  0  0  0  0  0  0  0  0  0  0  0
    1.0065   -0.1866   -1.4304 H   0  0  0  0  0  0  0  0  0  0  0  0
   -0.0181    0.2108    1.4312 H   0  0  0  0  0  0  0  0  0  0  0  0
    0.2421    1.5887    0.3219 H   0  0  0  0  0  0  0  0  0  0  0  0
   -1.5967    0.5955   -1.1818 H   0  0  0  0  0  0  0  0  0  0  0  0
   -1.6497   -1.7237   -0.8879 H   0  0  0  0  0  0  0  0  0  0  0  0
   -2.8687   -1.2765    0.3198 H   0  0  0  0  0  0  0  0  0  0  0  0
   -1.1663   -1.6350    0.8274 H   0  0  0  0  0  0  0  0  0  0  0  0
   -2.0507    2.1750    0.6307 H   0  0  0  0  0  0  0  0  0  0  0  0
   -2.1806    0.8549    1.8164 H   0  0  0  0  0  0  0  0  0  0  0  0
   -4.1260    1.8697    0.5493 H   0  0  0  0  0  0  0  0  0  0  0  0
  1  2  1  0
  2  3  1  0
  3  4  1  0
  4  5  1  0
  5  6  1  0
  5  7  1  0
  7  8  1  0
  1  9  1  0
  1 10  1  0
  1 11  1  0
  2 12  1  0
  2 13  1  0
  3 14  1  0
  3 15  1  0
  4 16  1  0
  4 17  1  0
  5 18  1  0
  6 19  1  0
  6 20  1  0
  6 21  1  0
  7 22  1  0
  7 23  1  0
  8 24  1  0
M  END
