
     RDKit          3D

 20 20  0  0  0  0  0  0  0  0999 V2000
    3.0056   -0.1670    0.0527 C   0  0  0  0  0  0  0  0  0  0  0  0
    1.5660    0.1809    0.2392 C   0  0  0  0  0  0  0  0  0  0  0  0
    0.6406   -0.6277   -0.6589 C   0  0  0  0  0  0  0  0  0  0  0  0
   -0.7462   -0.1671   -0.3556 C   0  0  0  0  0  0  0  0  0  0  0  0
   -1.6014    0.3738   -1.1862 C   0  0  0  0  0  0  0  0  0  0  0  0
   -2.8456    0.6674   -0.4404 C   0  0  0  0  0  0  0  0  0  0  0  0
   -2.5499    0.4617    0.8861 O   0  0  0  0  0  0  0  0  0  0  0  0
   -1.3867   -0.2562    0.9802 C   0  0  0  0  0  0  0  0  0  0  0  0
    3.2053   -0.8389   -0.7996 H   0  0  0  0  0  0  0  0  0  0  0  0
    3.5619    0.7947   -0.1356 H   0  0  0  0  0  0  0  0  0  0  0  0
    3.4328   -0.5688    1.0044 H   0  0  0  0  0  0  0  0  0  0  0  0
    1.3524    1.2437    0.0233 H   0  0  0  0  0  0  0  0  0  0  0  0
    1.2558   -0.0315    1.2784 H   0  0  0  0  0  0  0  0  0  0  0  0
    0.7818   -1.7113   -0.4152 H   0  0  0  0  0  0  0  0  0  0  0  0
    0.8788   -0.5008   -1.7305 H   0  0  0  0  0  0  0  0  0  0  0  0
   -1.3990    0.5587   -2.2296 H   0  0  0  0  0  0  0  0  0  0  0  0
   -3.6811    0.0555   -0.8212 H   0  0  0  0  0  0  0  0  0  0  0  0
   -3.1662    1.7369   -0.6041 H   0  0  0  0  0  0  0  0  0  0  0  0
   -1.5618   -1.3273    1.1861 H   0  0  0  0  0  0  0  0  0  0  0  0
   -0.7432    0.1230    1.7937 H   0  0  0  0  0  0  0  0  0  0  0  0
  1  2  1  0
  2  3  1  0
  3  4  1  0
  4  5  2  0
  5  6  1  0
  6  7  1  0
  7  8  1  0
  8  4  1  0
  1  9  1  0
  1 10  1  0
  1 11  1  0
  2 12  1  0
  2 13  1  0
  3 14  1  0
  3 15  1  0
  5 16  1  0
  6 17  1  0
  6 18  1  0
  8 19  1  0
  8 20  1  0
M  END
