
     RDKit          3D

 23 23  0  0  0  0  0  0  0  0999 V2000
    2.8502    1.1550   -0.0020 C   0  0  0  0  0  0  0  0  0  0  0  0
    1.8168    0.0594    0.3115 C   0  0  0  0  0  0  0  0  0  0  0  0
    0.5197    0.5243   -0.2786 C   0  0  0  0  0  0  0  0  0  0  0  0
   -0.5551   -0.5127   -0.2639 C   0  0  0  0  0  0  0  0  0  0  0  0
   -1.8642   -0.0314   -0.8392 C   0  0  0  0  0  0  0  0  0  0  0  0
   -2.5714    1.0687   -0.1657 C   0  0  0  0  0  0  0  0  0  0  0  0
   -2.2666   -0.5935   -1.8334 O   0  0  0  0  0  0  0  0  0  0  0  0
   -0.3272   -1.9539   -0.2595 C   0  0  0  0  0  0  0  0  0  0  0  0
   -0.8131   -1.2710    1.0203 C   0  0  0  0  0  0  0  0  0  0  0  0
    3.2018    0.8697   -1.0557 H   0  0  0  0  0  0  0  0  0  0  0  0
    2.3560    2.1207   -0.1129 H   0  0  0  0  0  0  0  0  0  0  0  0
    3.7192    1.1127    0.6532 H   0  0  0  0  0  0  0  0  0  0  0  0
    2.2057   -0.8889    0.0523 H   0  0  0  0  0  0  0  0  0  0  0  0
    1.7103    0.1046    1.4595 H   0  0  0  0  0  0  0  0  0  0  0  0
    0.1753    1.4089    0.2864 H   0  0  0  0  0  0  0  0  0  0  0  0
    0.7515    0.7806   -1.3417 H   0  0  0  0  0  0  0  0  0  0  0  0
   -3.6794    0.7574   -0.2086 H   0  0  0  0  0  0  0  0  0  0  0  0
   -2.3951    0.9854    0.9561 H   0  0  0  0  0  0  0  0  0  0  0  0
   -2.4275    2.0711   -0.5254 H   0  0  0  0  0  0  0  0  0  0  0  0
    0.6702   -2.4189   -0.2347 H   0  0  0  0  0  0  0  0  0  0  0  0
   -1.0976   -2.5821   -0.7862 H   0  0  0  0  0  0  0  0  0  0  0  0
   -0.1136   -1.2552    1.8516 H   0  0  0  0  0  0  0  0  0  0  0  0
   -1.8658   -1.5110    1.3167 H   0  0  0  0  0  0  0  0  0  0  0  0
  1  2  1  0
  2  3  1  0
  3  4  1  0
  4  5  1  0
  5  6  1  0
  5  7  2  0
  4  8  1  0
  8  9  1  0
  9  4  1  0
  1 10  1  0
  1 11  1  0
  1 12  1  0
  2 13  1  0
  2 14  1  0
  3 15  1  0
  3 16  1  0
  6 17  1  0
  6 18  1  0
  6 19  1  0
  8 20  1  0
  8 21  1  0
  9 22  1  0
  9 23  1  0
M  END
