
     RDKit          3D

 18 17  0  0  0  0  0  0  0  0999 V2000
   -2.2873    0.5261   -0.0741 C   0  0  0  0  0  0  0  0  0  0  0  0
   -1.7122   -0.6554    0.6736 C   0  0  0  0  0  0  0  0  0  0  0  0
   -0.3064   -0.9483    0.2776 C   0  0  0  0  0  0  0  0  0  0  0  0
    0.6328    0.2096    0.5367 C   0  0  0  0  0  0  0  0  0  0  0  0
    2.0076   -0.1245    0.1310 C   0  0  0  0  0  0  0  0  0  0  0  0
    2.2330   -1.2608   -0.3540 O   0  0  0  0  0  0  0  0  0  0  0  0
    3.1214    0.8071    0.2674 C   0  0  0  0  0  0  0  0  0  0  0  0
    2.9737    1.9616    0.7439 O   0  0  0  0  0  0  0  0  0  0  0  0
   -3.3902    0.4397   -0.0831 H   0  0  0  0  0  0  0  0  0  0  0  0
   -1.9653    1.4803    0.3936 H   0  0  0  0  0  0  0  0  0  0  0  0
   -1.9071    0.5362   -1.1229 H   0  0  0  0  0  0  0  0  0  0  0  0
   -2.3327   -1.5325    0.4107 H   0  0  0  0  0  0  0  0  0  0  0  0
   -1.7834   -0.4074    1.7576 H   0  0  0  0  0  0  0  0  0  0  0  0
   -0.2924   -1.2221   -0.7942 H   0  0  0  0  0  0  0  0  0  0  0  0
    0.0457   -1.8287    0.8440 H   0  0  0  0  0  0  0  0  0  0  0  0
    0.6137    0.3724    1.6512 H   0  0  0  0  0  0  0  0  0  0  0  0
    0.2258    1.1059    0.0478 H   0  0  0  0  0  0  0  0  0  0  0  0
    4.1233    0.5407   -0.0372 H   0  0  0  0  0  0  0  0  0  0  0  0
  1  2  1  0
  2  3  1  0
  3  4  1  0
  4  5  1  0
  5  6  2  0
  5  7  1  0
  7  8  2  0
  1  9  1  0
  1 10  1  0
  1 11  1  0
  2 12  1  0
  2 13  1  0
  3 14  1  0
  3 15  1  0
  4 16  1  0
  4 17  1  0
  7 18  1  0
M  END
