
     RDKit          3D

 19 18  0  0  0  0  0  0  0  0999 V2000
    2.5742   -0.5096    0.1772 C   0  0  0  0  0  0  0  0  0  0  0  0
    1.2166   -0.4089   -0.5132 C   0  0  0  0  0  0  0  0  0  0  0  0
    0.2867    0.2636    0.4843 C   0  0  0  0  0  0  0  0  0  0  0  0
   -1.0967    0.4177   -0.0942 C   0  0  0  0  0  0  0  0  0  0  0  0
   -1.0045    1.1998   -1.2419 O   0  0  0  0  0  0  0  0  0  0  0  0
   -1.5634   -0.9638   -0.4547 C   0  0  0  0  0  0  0  0  0  0  0  0
   -1.6873   -1.7521    0.4591 O   0  0  0  0  0  0  0  0  0  0  0  0
   -1.9974    1.0756    0.8560 C   0  0  0  0  0  0  0  0  0  0  0  0
   -2.5350    2.1311    0.6041 O   0  0  0  0  0  0  0  0  0  0  0  0
    2.6684    0.3134    0.9137 H   0  0  0  0  0  0  0  0  0  0  0  0
    3.3978   -0.5692   -0.5413 H   0  0  0  0  0  0  0  0  0  0  0  0
    2.5354   -1.4533    0.7759 H   0  0  0  0  0  0  0  0  0  0  0  0
    0.8300   -1.4131   -0.7778 H   0  0  0  0  0  0  0  0  0  0  0  0
    1.2817    0.1704   -1.4442 H   0  0  0  0  0  0  0  0  0  0  0  0
    0.6590    1.2684    0.7626 H   0  0  0  0  0  0  0  0  0  0  0  0
    0.2886   -0.3368    1.4145 H   0  0  0  0  0  0  0  0  0  0  0  0
   -1.8752    1.1323   -1.7118 H   0  0  0  0  0  0  0  0  0  0  0  0
   -1.7667   -1.1983   -1.4923 H   0  0  0  0  0  0  0  0  0  0  0  0
   -2.2122    0.6329    1.8238 H   0  0  0  0  0  0  0  0  0  0  0  0
  1  2  1  0
  2  3  1  0
  3  4  1  0
  4  5  1  0
  4  6  1  0
  6  7  2  0
  4  8  1  0
  8  9  2  0
  1 10  1  0
  1 11  1  0
  1 12  1  0
  2 13  1  0
  2 14  1  0
  3 15  1  0
  3 16  1  0
  5 17  1  0
  6 18  1  0
  8 19  1  0
M  END
