
     RDKit          3D

 17 16  0  0  0  0  0  0  0  0999 V2000
   -2.7384   -0.2979   -0.4440 C   0  0  0  0  0  0  0  0  0  0  0  0
   -1.7047    0.8006   -0.0980 C   0  0  0  0  0  0  0  0  0  0  0  0
   -0.3644    0.4296   -0.4178 C   0  0  0  0  0  0  0  0  0  0  0  0
    0.1229   -0.6428    0.9700 C   0  0  0  0  0  0  0  0  0  0  0  0
   -0.8063   -0.8923    1.3739 O   0  0  0  0  0  0  0  0  0  0  0  0
    1.4336   -0.5314    0.7283 C   0  0  0  0  0  0  0  0  0  0  0  0
    2.7661   -0.4420    0.4820 C   0  0  0  0  0  0  0  0  0  0  0  0
    4.2316   -0.3257    0.2053 C   0  0  0  0  0  0  0  0  0  0  0  0
    4.7513    0.2459    1.2310 O   0  0  0  0  0  0  0  0  0  0  0  0
   -3.6921   -0.0698   -0.0071 H   0  0  0  0  0  0  0  0  0  0  0  0
   -2.8057   -0.1585   -1.5914 H   0  0  0  0  0  0  0  0  0  0  0  0
   -2.4053   -1.3012   -0.2120 H   0  0  0  0  0  0  0  0  0  0  0  0
   -2.0613    1.7242   -0.5656 H   0  0  0  0  0  0  0  0  0  0  0  0
   -1.7533    1.0204    1.0280 H   0  0  0  0  0  0  0  0  0  0  0  0
    0.3369    1.2498   -0.0984 H   0  0  0  0  0  0  0  0  0  0  0  0
   -0.0494   -0.2143   -1.1536 H   0  0  0  0  0  0  0  0  0  0  0  0
    4.7387   -0.5946   -0.5862 H   0  0  0  0  0  0  0  0  0  0  0  0
  1  2  1  0
  2  3  1  0
  3  4  1  0
  4  5  2  0
  4  6  1  0
  6  7  3  0
  7  8  1  0
  8  9  2  0
  1 10  1  0
  1 11  1  0
  1 12  1  0
  2 13  1  0
  2 14  1  0
  3 15  1  0
  3 16  1  0
  8 17  1  0
M  END
