
     RDKit          3D

 21 20  0  0  0  0  0  0  0  0999 V2000
   -3.3908   -0.2213    0.0360 C   0  0  0  0  0  0  0  0  0  0  0  0
   -1.9242   -0.5528   -0.0568 C   0  0  0  0  0  0  0  0  0  0  0  0
   -1.0618    0.6908    0.0003 C   0  0  0  0  0  0  0  0  0  0  0  0
    0.3860    0.3529   -0.0922 C   0  0  0  0  0  0  0  0  0  0  0  0
    0.7996    0.0759   -1.2132 O   0  0  0  0  0  0  0  0  0  0  0  0
    1.1811    0.3783    1.1334 C   0  0  0  0  0  0  0  0  0  0  0  0
    2.5933    0.0424    0.9819 C   0  0  0  0  0  0  0  0  0  0  0  0
    3.2727   -0.2977   -0.2720 C   0  0  0  0  0  0  0  0  0  0  0  0
    3.2747    0.0470    2.0130 O   0  0  0  0  0  0  0  0  0  0  0  0
   -3.9195   -1.2151    0.1449 H   0  0  0  0  0  0  0  0  0  0  0  0
   -3.7785    0.3124   -0.8347 H   0  0  0  0  0  0  0  0  0  0  0  0
   -3.6185    0.3156    0.9922 H   0  0  0  0  0  0  0  0  0  0  0  0
   -1.7010   -1.2586    0.7814 H   0  0  0  0  0  0  0  0  0  0  0  0
   -1.7512   -1.0872   -1.0066 H   0  0  0  0  0  0  0  0  0  0  0  0
   -1.2775    1.2450    0.9421 H   0  0  0  0  0  0  0  0  0  0  0  0
   -1.4000    1.3481   -0.8248 H   0  0  0  0  0  0  0  0  0  0  0  0
    1.1143    1.4008    1.5803 H   0  0  0  0  0  0  0  0  0  0  0  0
    0.7293   -0.3765    1.8416 H   0  0  0  0  0  0  0  0  0  0  0  0
    3.0997    0.4364   -1.0967 H   0  0  0  0  0  0  0  0  0  0  0  0
    2.9848   -1.3103   -0.6609 H   0  0  0  0  0  0  0  0  0  0  0  0
    4.3874   -0.3266   -0.1546 H   0  0  0  0  0  0  0  0  0  0  0  0
  1  2  1  0
  2  3  1  0
  3  4  1  0
  4  5  2  0
  4  6  1  0
  6  7  1  0
  7  8  1  0
  7  9  2  0
  1 10  1  0
  1 11  1  0
  1 12  1  0
  2 13  1  0
  2 14  1  0
  3 15  1  0
  3 16  1  0
  6 17  1  0
  6 18  1  0
  8 19  1  0
  8 20  1  0
  8 21  1  0
M  END
