
     RDKit          3D

 23 23  0  0  0  0  0  0  0  0999 V2000
    2.6863    0.7034    0.0834 C   0  0  0  0  0  0  0  0  0  0  0  0
    1.9211   -0.3623    0.7958 C   0  0  0  0  0  0  0  0  0  0  0  0
    1.1841   -1.2944   -0.1330 C   0  0  0  0  0  0  0  0  0  0  0  0
    0.2031   -0.5006   -0.9542 C   0  0  0  0  0  0  0  0  0  0  0  0
   -0.8144    0.2157   -0.1288 C   0  0  0  0  0  0  0  0  0  0  0  0
   -1.8106    1.0214   -0.9602 C   0  0  0  0  0  0  0  0  0  0  0  0
   -2.2512   -0.1633   -0.1851 C   0  0  0  0  0  0  0  0  0  0  0  0
   -3.0934    0.1287    0.9984 C   0  0  0  0  0  0  0  0  0  0  0  0
   -3.9814   -0.6297    1.3251 O   0  0  0  0  0  0  0  0  0  0  0  0
    2.1305    1.6643    0.0054 H   0  0  0  0  0  0  0  0  0  0  0  0
    3.5937    0.9288    0.6818 H   0  0  0  0  0  0  0  0  0  0  0  0
    2.9942    0.4327   -0.9442 H   0  0  0  0  0  0  0  0  0  0  0  0
    2.6588   -1.0087    1.3553 H   0  0  0  0  0  0  0  0  0  0  0  0
    1.2859    0.0934    1.5509 H   0  0  0  0  0  0  0  0  0  0  0  0
    1.9219   -1.7956   -0.7910 H   0  0  0  0  0  0  0  0  0  0  0  0
    0.7137   -2.0760    0.4741 H   0  0  0  0  0  0  0  0  0  0  0  0
    0.7322    0.2425   -1.5773 H   0  0  0  0  0  0  0  0  0  0  0  0
   -0.3072   -1.2114   -1.6365 H   0  0  0  0  0  0  0  0  0  0  0  0
   -0.4974    0.7385    0.8003 H   0  0  0  0  0  0  0  0  0  0  0  0
   -2.0437    2.0535   -0.6399 H   0  0  0  0  0  0  0  0  0  0  0  0
   -1.8121    0.8987   -2.0556 H   0  0  0  0  0  0  0  0  0  0  0  0
   -2.4888   -1.0958   -0.7281 H   0  0  0  0  0  0  0  0  0  0  0  0
   -2.9252    1.0164    1.5792 H   0  0  0  0  0  0  0  0  0  0  0  0
  1  2  1  0
  2  3  1  0
  3  4  1  0
  4  5  1  0
  5  6  1  0
  6  7  1  0
  7  8  1  0
  8  9  2  0
  7  5  1  0
  1 10  1  0
  1 11  1  0
  1 12  1  0
  2 13  1  0
  2 14  1  0
  3 15  1  0
  3 16  1  0
  4 17  1  0
  4 18  1  0
  5 19  1  0
  6 20  1  0
  6 21  1  0
  7 22  1  0
  8 23  1  0
M  END
