
     RDKit          3D

 25 24  0  0  0  0  0  0  0  0999 V2000
    3.7454    0.4764    0.5031 C   0  0  0  0  0  0  0  0  0  0  0  0
    2.6329   -0.3341   -0.1253 C   0  0  0  0  0  0  0  0  0  0  0  0
    1.2762    0.0888    0.4218 C   0  0  0  0  0  0  0  0  0  0  0  0
    0.2025   -0.7380   -0.2262 C   0  0  0  0  0  0  0  0  0  0  0  0
    0.4954   -1.5853   -1.0481 O   0  0  0  0  0  0  0  0  0  0  0  0
   -1.2294   -0.5483    0.1125 C   0  0  0  0  0  0  0  0  0  0  0  0
   -2.0490   -1.5039   -0.6841 C   0  0  0  0  0  0  0  0  0  0  0  0
   -1.5499    0.9009   -0.1759 C   0  0  0  0  0  0  0  0  0  0  0  0
   -2.9780    1.2571    0.1187 C   0  0  0  0  0  0  0  0  0  0  0  0
    3.9709   -0.0046    1.4880 H   0  0  0  0  0  0  0  0  0  0  0  0
    4.6339    0.3779   -0.1688 H   0  0  0  0  0  0  0  0  0  0  0  0
    3.4595    1.5452    0.6454 H   0  0  0  0  0  0  0  0  0  0  0  0
    2.6622   -0.2518   -1.2292 H   0  0  0  0  0  0  0  0  0  0  0  0
    2.8325   -1.3954    0.1275 H   0  0  0  0  0  0  0  0  0  0  0  0
    1.0955    1.1626    0.2213 H   0  0  0  0  0  0  0  0  0  0  0  0
    1.2964   -0.0553    1.5190 H   0  0  0  0  0  0  0  0  0  0  0  0
   -1.4180   -0.7610    1.1898 H   0  0  0  0  0  0  0  0  0  0  0  0
   -1.5490   -2.4925   -0.7026 H   0  0  0  0  0  0  0  0  0  0  0  0
   -3.0566   -1.6871   -0.2202 H   0  0  0  0  0  0  0  0  0  0  0  0
   -2.2541   -1.1741   -1.7227 H   0  0  0  0  0  0  0  0  0  0  0  0
   -0.8984    1.5090    0.4762 H   0  0  0  0  0  0  0  0  0  0  0  0
   -1.2972    1.1376   -1.2108 H   0  0  0  0  0  0  0  0  0  0  0  0
   -3.0472    1.6792    1.1364 H   0  0  0  0  0  0  0  0  0  0  0  0
   -3.3111    2.0070   -0.6512 H   0  0  0  0  0  0  0  0  0  0  0  0
   -3.6655    0.3896    0.0446 H   0  0  0  0  0  0  0  0  0  0  0  0
  1  2  1  0
  2  3  1  0
  3  4  1  0
  4  5  2  0
  4  6  1  0
  6  7  1  0
  6  8  1  0
  8  9  1  0
  1 10  1  0
  1 11  1  0
  1 12  1  0
  2 13  1  0
  2 14  1  0
  3 15  1  0
  3 16  1  0
  6 17  1  0
  7 18  1  0
  7 19  1  0
  7 20  1  0
  8 21  1  0
  8 22  1  0
  9 23  1  0
  9 24  1  0
  9 25  1  0
M  END
