
     RDKit          3D

 19 21  0  0  0  0  0  0  0  0999 V2000
    2.7176    0.1373    0.2215 C   0  0  0  0  0  0  0  0  0  0  0  0
    1.5174   -0.0430   -0.7185 C   0  0  0  0  0  0  0  0  0  0  0  0
    0.2931    0.1059    0.1569 C   0  0  0  0  0  0  0  0  0  0  0  0
   -0.9928   -0.0404   -0.5919 C   0  0  0  0  0  0  0  0  0  0  0  0
   -1.3313   -1.1523   -1.2615 O   0  0  0  0  0  0  0  0  0  0  0  0
   -1.9899   -1.0838   -0.0483 C   0  0  0  0  0  0  0  0  0  0  0  0
   -2.2263    0.0681    0.8387 C   0  0  0  0  0  0  0  0  0  0  0  0
   -2.8770    1.1931    0.6923 O   0  0  0  0  0  0  0  0  0  0  0  0
   -2.1047    0.9612   -0.4108 C   0  0  0  0  0  0  0  0  0  0  0  0
    3.6437   -0.1530   -0.2770 H   0  0  0  0  0  0  0  0  0  0  0  0
    2.5373   -0.4771    1.1363 H   0  0  0  0  0  0  0  0  0  0  0  0
    2.7097    1.2374    0.4698 H   0  0  0  0  0  0  0  0  0  0  0  0
    1.5941   -1.0941   -1.0809 H   0  0  0  0  0  0  0  0  0  0  0  0
    1.5662    0.6863   -1.5344 H   0  0  0  0  0  0  0  0  0  0  0  0
    0.2900    1.1184    0.6104 H   0  0  0  0  0  0  0  0  0  0  0  0
    0.4190   -0.6501    0.9766 H   0  0  0  0  0  0  0  0  0  0  0  0
   -1.5944   -1.9688    0.5438 H   0  0  0  0  0  0  0  0  0  0  0  0
   -1.3226    0.2590    1.5161 H   0  0  0  0  0  0  0  0  0  0  0  0
   -2.8490    0.8959   -1.2393 H   0  0  0  0  0  0  0  0  0  0  0  0
  1  2  1  0
  2  3  1  0
  3  4  1  0
  4  5  1  0
  5  6  1  0
  6  7  1  0
  7  8  1  0
  8  9  1  0
  6  4  1  0
  9  7  1  0
  9  4  1  0
  1 10  1  0
  1 11  1  0
  1 12  1  0
  2 13  1  0
  2 14  1  0
  3 15  1  0
  3 16  1  0
  6 17  1  0
  7 18  1  0
  9 19  1  0
M  END
