
     RDKit          3D

 21 20  0  0  0  0  0  0  0  0999 V2000
   -3.2152   -0.8000   -0.3037 C   0  0  0  0  0  0  0  0  0  0  0  0
   -2.2872    0.0207    0.5930 C   0  0  0  0  0  0  0  0  0  0  0  0
   -0.9377    0.0278   -0.0812 C   0  0  0  0  0  0  0  0  0  0  0  0
    0.0921    0.8088    0.6991 C   0  0  0  0  0  0  0  0  0  0  0  0
    1.3719    0.7346   -0.0777 C   0  0  0  0  0  0  0  0  0  0  0  0
    1.4479    1.5364   -1.0614 O   0  0  0  0  0  0  0  0  0  0  0  0
    2.4402   -0.1573    0.2393 C   0  0  0  0  0  0  0  0  0  0  0  0
    3.6679   -0.1657   -0.5787 C   0  0  0  0  0  0  0  0  0  0  0  0
    2.3516   -0.9385    1.2074 O   0  0  0  0  0  0  0  0  0  0  0  0
   -2.7282   -1.7555   -0.6024 H   0  0  0  0  0  0  0  0  0  0  0  0
   -3.3617   -0.2241   -1.2385 H   0  0  0  0  0  0  0  0  0  0  0  0
   -4.1557   -0.9914    0.2358 H   0  0  0  0  0  0  0  0  0  0  0  0
   -2.2680   -0.4345    1.5983 H   0  0  0  0  0  0  0  0  0  0  0  0
   -2.6436    1.0708    0.6084 H   0  0  0  0  0  0  0  0  0  0  0  0
   -1.0960    0.5185   -1.0826 H   0  0  0  0  0  0  0  0  0  0  0  0
   -0.5335   -1.0068   -0.1984 H   0  0  0  0  0  0  0  0  0  0  0  0
    0.1986    0.3822    1.7046 H   0  0  0  0  0  0  0  0  0  0  0  0
   -0.2856    1.8715    0.7338 H   0  0  0  0  0  0  0  0  0  0  0  0
    4.4807    0.2860    0.0254 H   0  0  0  0  0  0  0  0  0  0  0  0
    3.5034    0.4062   -1.5187 H   0  0  0  0  0  0  0  0  0  0  0  0
    3.9581   -1.1895   -0.9019 H   0  0  0  0  0  0  0  0  0  0  0  0
  1  2  1  0
  2  3  1  0
  3  4  1  0
  4  5  1  0
  5  6  2  0
  5  7  1  0
  7  8  1  0
  7  9  2  0
  1 10  1  0
  1 11  1  0
  1 12  1  0
  2 13  1  0
  2 14  1  0
  3 15  1  0
  3 16  1  0
  4 17  1  0
  4 18  1  0
  8 19  1  0
  8 20  1  0
  8 21  1  0
M  END
