
     RDKit          3D

 23 24  0  0  0  0  0  0  0  0999 V2000
   -2.8956   -0.5308   -0.6042 C   0  0  0  0  0  0  0  0  0  0  0  0
   -2.5984    0.8199    0.0187 C   0  0  0  0  0  0  0  0  0  0  0  0
   -1.2259    0.7512    0.6487 C   0  0  0  0  0  0  0  0  0  0  0  0
   -0.1616    0.4334   -0.3566 C   0  0  0  0  0  0  0  0  0  0  0  0
    1.1607    0.3852    0.3538 C   0  0  0  0  0  0  0  0  0  0  0  0
    1.2088   -0.6006    1.3797 O   0  0  0  0  0  0  0  0  0  0  0  0
    2.5802   -0.4234    1.2049 C   0  0  0  0  0  0  0  0  0  0  0  0
    3.4351   -0.9697    0.2142 C   0  0  0  0  0  0  0  0  0  0  0  0
    2.1313   -0.6100   -0.3008 C   0  0  0  0  0  0  0  0  0  0  0  0
   -2.2811   -0.6525   -1.5027 H   0  0  0  0  0  0  0  0  0  0  0  0
   -2.6585   -1.3311    0.1303 H   0  0  0  0  0  0  0  0  0  0  0  0
   -3.9838   -0.5387   -0.8369 H   0  0  0  0  0  0  0  0  0  0  0  0
   -3.3340    1.0583    0.8178 H   0  0  0  0  0  0  0  0  0  0  0  0
   -2.6797    1.6078   -0.7383 H   0  0  0  0  0  0  0  0  0  0  0  0
   -1.0035    1.7807    1.0378 H   0  0  0  0  0  0  0  0  0  0  0  0
   -1.2105    0.0570    1.4884 H   0  0  0  0  0  0  0  0  0  0  0  0
   -0.3393   -0.5234   -0.8906 H   0  0  0  0  0  0  0  0  0  0  0  0
   -0.1129    1.2293   -1.1060 H   0  0  0  0  0  0  0  0  0  0  0  0
    1.5759    1.3544    0.6130 H   0  0  0  0  0  0  0  0  0  0  0  0
    2.8120    0.6525    1.4837 H   0  0  0  0  0  0  0  0  0  0  0  0
    4.2897   -0.3693   -0.2119 H   0  0  0  0  0  0  0  0  0  0  0  0
    3.7826   -2.0375    0.3561 H   0  0  0  0  0  0  0  0  0  0  0  0
    1.5083   -1.5429   -0.4863 H   0  0  0  0  0  0  0  0  0  0  0  0
  1  2  1  0
  2  3  1  0
  3  4  1  0
  4  5  1  0
  5  6  1  0
  6  7  1  0
  7  8  1  0
  8  9  1  0
  9  5  1  0
  9  7  1  0
  1 10  1  0
  1 11  1  0
  1 12  1  0
  2 13  1  0
  2 14  1  0
  3 15  1  0
  3 16  1  0
  4 17  1  0
  4 18  1  0
  5 19  1  0
  7 20  1  0
  8 21  1  0
  8 22  1  0
  9 23  1  0
M  END
