
     RDKit          3D

 25 25  0  0  0  0  0  0  0  0999 V2000
    3.9224    0.4027   -0.4403 C   0  0  0  0  0  0  0  0  0  0  0  0
    2.7045    0.1860    0.4059 C   0  0  0  0  0  0  0  0  0  0  0  0
    1.4273    0.2690   -0.4112 C   0  0  0  0  0  0  0  0  0  0  0  0
    0.2073    0.0481    0.4576 C   0  0  0  0  0  0  0  0  0  0  0  0
   -1.0112    0.1511   -0.4531 C   0  0  0  0  0  0  0  0  0  0  0  0
   -2.2598   -0.0575    0.3397 C   0  0  0  0  0  0  0  0  0  0  0  0
   -2.4578    0.8669    1.3764 O   0  0  0  0  0  0  0  0  0  0  0  0
   -2.8261   -1.4055    0.4070 C   0  0  0  0  0  0  0  0  0  0  0  0
   -3.5405   -0.4065   -0.3894 C   0  0  0  0  0  0  0  0  0  0  0  0
    3.7345    1.0906   -1.2926 H   0  0  0  0  0  0  0  0  0  0  0  0
    4.2887   -0.6008   -0.8078 H   0  0  0  0  0  0  0  0  0  0  0  0
    4.7269    0.7782    0.2193 H   0  0  0  0  0  0  0  0  0  0  0  0
    2.6853    0.9229    1.2125 H   0  0  0  0  0  0  0  0  0  0  0  0
    2.7826   -0.8345    0.8592 H   0  0  0  0  0  0  0  0  0  0  0  0
    1.4556   -0.4490   -1.2461 H   0  0  0  0  0  0  0  0  0  0  0  0
    1.4121    1.2831   -0.8705 H   0  0  0  0  0  0  0  0  0  0  0  0
    0.2714   -0.9691    0.8871 H   0  0  0  0  0  0  0  0  0  0  0  0
    0.1324    0.8170    1.2373 H   0  0  0  0  0  0  0  0  0  0  0  0
   -1.0378    1.1134   -0.9594 H   0  0  0  0  0  0  0  0  0  0  0  0
   -0.9118   -0.6553   -1.2015 H   0  0  0  0  0  0  0  0  0  0  0  0
   -2.2245    1.7771    1.0983 H   0  0  0  0  0  0  0  0  0  0  0  0
   -3.2889   -1.7411    1.3578 H   0  0  0  0  0  0  0  0  0  0  0  0
   -2.2390   -2.2352   -0.0803 H   0  0  0  0  0  0  0  0  0  0  0  0
   -4.5057   -0.0240   -0.0050 H   0  0  0  0  0  0  0  0  0  0  0  0
   -3.4481   -0.3276   -1.4910 H   0  0  0  0  0  0  0  0  0  0  0  0
  1  2  1  0
  2  3  1  0
  3  4  1  0
  4  5  1  0
  5  6  1  0
  6  7  1  0
  6  8  1  0
  8  9  1  0
  9  6  1  0
  1 10  1  0
  1 11  1  0
  1 12  1  0
  2 13  1  0
  2 14  1  0
  3 15  1  0
  3 16  1  0
  4 17  1  0
  4 18  1  0
  5 19  1  0
  5 20  1  0
  7 21  1  0
  8 22  1  0
  8 23  1  0
  9 24  1  0
  9 25  1  0
M  END
