
     RDKit          3D

 25 26  0  0  0  0  0  0  0  0999 V2000
    3.0668    0.2661   -0.7339 C   0  0  0  0  0  0  0  0  0  0  0  0
    1.8731   -0.5830   -0.3429 C   0  0  0  0  0  0  0  0  0  0  0  0
    0.7865    0.3269    0.1747 C   0  0  0  0  0  0  0  0  0  0  0  0
   -0.4485   -0.3979    0.5940 C   0  0  0  0  0  0  0  0  0  0  0  0
   -0.3159   -1.4393    1.7085 C   0  0  0  0  0  0  0  0  0  0  0  0
   -1.6523    0.4985    0.7326 C   0  0  0  0  0  0  0  0  0  0  0  0
   -1.8820    1.4949   -0.3330 C   0  0  0  0  0  0  0  0  0  0  0  0
   -1.9423    0.4132   -1.3666 C   0  0  0  0  0  0  0  0  0  0  0  0
   -1.6231   -0.5813   -0.2747 C   0  0  0  0  0  0  0  0  0  0  0  0
    3.5103    0.7597    0.1764 H   0  0  0  0  0  0  0  0  0  0  0  0
    2.7643    1.1060   -1.3931 H   0  0  0  0  0  0  0  0  0  0  0  0
    3.8736   -0.3363   -1.1884 H   0  0  0  0  0  0  0  0  0  0  0  0
    1.5134   -1.0780   -1.2707 H   0  0  0  0  0  0  0  0  0  0  0  0
    2.2276   -1.2984    0.4177 H   0  0  0  0  0  0  0  0  0  0  0  0
    0.5542    1.0633   -0.6210 H   0  0  0  0  0  0  0  0  0  0  0  0
    1.2240    0.9065    1.0194 H   0  0  0  0  0  0  0  0  0  0  0  0
    0.0140   -0.9327    2.6409 H   0  0  0  0  0  0  0  0  0  0  0  0
    0.3395   -2.2513    1.3865 H   0  0  0  0  0  0  0  0  0  0  0  0
   -1.3100   -1.8685    1.9251 H   0  0  0  0  0  0  0  0  0  0  0  0
   -2.2755    0.4495    1.6404 H   0  0  0  0  0  0  0  0  0  0  0  0
   -2.8540    2.0309   -0.3212 H   0  0  0  0  0  0  0  0  0  0  0  0
   -1.0762    2.2410   -0.5124 H   0  0  0  0  0  0  0  0  0  0  0  0
   -1.1340    0.4716   -2.1375 H   0  0  0  0  0  0  0  0  0  0  0  0
   -2.9550    0.1910   -1.7811 H   0  0  0  0  0  0  0  0  0  0  0  0
   -2.2784   -1.4523   -0.1395 H   0  0  0  0  0  0  0  0  0  0  0  0
  1  2  1  0
  2  3  1  0
  3  4  1  0
  4  5  1  0
  4  6  1  0
  6  7  1  0
  7  8  1  0
  8  9  1  0
  9  4  1  0
  9  6  1  0
  1 10  1  0
  1 11  1  0
  1 12  1  0
  2 13  1  0
  2 14  1  0
  3 15  1  0
  3 16  1  0
  5 17  1  0
  5 18  1  0
  5 19  1  0
  6 20  1  0
  7 21  1  0
  7 22  1  0
  8 23  1  0
  8 24  1  0
  9 25  1  0
M  END
