
     RDKit          3D

 20 19  0  0  0  0  0  0  0  0999 V2000
   -2.3058    0.6092    0.7790 C   0  0  0  0  0  0  0  0  0  0  0  0
   -1.7874   -0.4086   -0.2010 C   0  0  0  0  0  0  0  0  0  0  0  0
   -0.3277   -0.1972   -0.5630 C   0  0  0  0  0  0  0  0  0  0  0  0
    0.5600   -0.2861    0.6426 C   0  0  0  0  0  0  0  0  0  0  0  0
    0.4171   -1.5561    1.2004 O   0  0  0  0  0  0  0  0  0  0  0  0
    1.9956   -0.1533    0.1953 C   0  0  0  0  0  0  0  0  0  0  0  0
    2.2634    1.1273   -0.4877 C   0  0  0  0  0  0  0  0  0  0  0  0
    2.5607    1.1335   -1.6669 O   0  0  0  0  0  0  0  0  0  0  0  0
   -2.5966    0.0538    1.7181 H   0  0  0  0  0  0  0  0  0  0  0  0
   -1.5567    1.3489    1.1018 H   0  0  0  0  0  0  0  0  0  0  0  0
   -3.2453    1.1082    0.4373 H   0  0  0  0  0  0  0  0  0  0  0  0
   -1.8696   -1.4317    0.2003 H   0  0  0  0  0  0  0  0  0  0  0  0
   -2.4024   -0.3120   -1.1328 H   0  0  0  0  0  0  0  0  0  0  0  0
   -0.0448   -1.0231   -1.2455 H   0  0  0  0  0  0  0  0  0  0  0  0
   -0.1656    0.7663   -1.0728 H   0  0  0  0  0  0  0  0  0  0  0  0
    0.3108    0.4542    1.4370 H   0  0  0  0  0  0  0  0  0  0  0  0
    0.9948   -2.1691    0.6733 H   0  0  0  0  0  0  0  0  0  0  0  0
    2.3006   -0.9869   -0.4657 H   0  0  0  0  0  0  0  0  0  0  0  0
    2.6954   -0.1781    1.0717 H   0  0  0  0  0  0  0  0  0  0  0  0
    2.2035    2.1007    0.0275 H   0  0  0  0  0  0  0  0  0  0  0  0
  1  2  1  0
  2  3  1  0
  3  4  1  0
  4  5  1  0
  4  6  1  0
  6  7  1  0
  7  8  2  0
  1  9  1  0
  1 10  1  0
  1 11  1  0
  2 12  1  0
  2 13  1  0
  3 14  1  0
  3 15  1  0
  4 16  1  0
  5 17  1  0
  6 18  1  0
  6 19  1  0
  7 20  1  0
M  END
