
     RDKit          3D

 21 21  0  0  0  0  0  0  0  0999 V2000
   -2.9209    0.7427   -0.6438 C   0  0  0  0  0  0  0  0  0  0  0  0
   -1.7001    0.4789    0.2215 C   0  0  0  0  0  0  0  0  0  0  0  0
   -0.9425   -0.7258   -0.2176 C   0  0  0  0  0  0  0  0  0  0  0  0
    0.2459   -0.9320    0.6823 C   0  0  0  0  0  0  0  0  0  0  0  0
    1.2246    0.1942    0.7017 C   0  0  0  0  0  0  0  0  0  0  0  0
    2.3092   -0.0789    1.5658 O   0  0  0  0  0  0  0  0  0  0  0  0
    3.3000   -0.0955    0.5672 C   0  0  0  0  0  0  0  0  0  0  0  0
    2.2124    0.1905   -0.4023 C   0  0  0  0  0  0  0  0  0  0  0  0
    2.2097    0.3460   -1.6048 O   0  0  0  0  0  0  0  0  0  0  0  0
   -3.7677    0.1017   -0.3422 H   0  0  0  0  0  0  0  0  0  0  0  0
   -2.6727    0.6821   -1.7157 H   0  0  0  0  0  0  0  0  0  0  0  0
   -3.2265    1.7906   -0.4419 H   0  0  0  0  0  0  0  0  0  0  0  0
   -1.0675    1.3773    0.3082 H   0  0  0  0  0  0  0  0  0  0  0  0
   -2.1063    0.2564    1.2487 H   0  0  0  0  0  0  0  0  0  0  0  0
   -0.6640   -0.7114   -1.2904 H   0  0  0  0  0  0  0  0  0  0  0  0
   -1.5899   -1.6377   -0.0738 H   0  0  0  0  0  0  0  0  0  0  0  0
   -0.1753   -1.0438    1.7252 H   0  0  0  0  0  0  0  0  0  0  0  0
    0.7367   -1.8857    0.4157 H   0  0  0  0  0  0  0  0  0  0  0  0
    0.8166    1.1774    0.9768 H   0  0  0  0  0  0  0  0  0  0  0  0
    3.9433    0.8104    0.6792 H   0  0  0  0  0  0  0  0  0  0  0  0
    3.8350   -1.0375    0.4463 H   0  0  0  0  0  0  0  0  0  0  0  0
  1  2  1  0
  2  3  1  0
  3  4  1  0
  4  5  1  0
  5  6  1  0
  6  7  1  0
  7  8  1  0
  8  9  2  0
  8  5  1  0
  1 10  1  0
  1 11  1  0
  1 12  1  0
  2 13  1  0
  2 14  1  0
  3 15  1  0
  3 16  1  0
  4 17  1  0
  4 18  1  0
  5 19  1  0
  7 20  1  0
  7 21  1  0
M  END
