
     RDKit          3D

 19 19  0  0  0  0  0  0  0  0999 V2000
    2.0609    0.8196   -0.1982 C   0  0  0  0  0  0  0  0  0  0  0  0
    1.7463   -0.6641   -0.2980 C   0  0  0  0  0  0  0  0  0  0  0  0
    0.4166   -0.9786    0.3515 C   0  0  0  0  0  0  0  0  0  0  0  0
   -0.7223   -0.2499   -0.2756 C   0  0  0  0  0  0  0  0  0  0  0  0
   -1.9984   -0.6330    0.4440 C   0  0  0  0  0  0  0  0  0  0  0  0
   -2.8566    0.4356    0.0463 O   0  0  0  0  0  0  0  0  0  0  0  0
   -2.0334    1.5443   -0.0946 C   0  0  0  0  0  0  0  0  0  0  0  0
   -2.4948    2.7106   -0.2277 O   0  0  0  0  0  0  0  0  0  0  0  0
   -0.6870    1.1448   -0.0625 O   0  0  0  0  0  0  0  0  0  0  0  0
    3.1398    0.9458   -0.4844 H   0  0  0  0  0  0  0  0  0  0  0  0
    1.4849    1.4315   -0.8940 H   0  0  0  0  0  0  0  0  0  0  0  0
    1.9985    1.1762    0.8561 H   0  0  0  0  0  0  0  0  0  0  0  0
    1.7940   -0.9589   -1.3462 H   0  0  0  0  0  0  0  0  0  0  0  0
    2.5601   -1.1869    0.2453 H   0  0  0  0  0  0  0  0  0  0  0  0
    0.2386   -2.0658    0.2161 H   0  0  0  0  0  0  0  0  0  0  0  0
    0.4772   -0.7908    1.4289 H   0  0  0  0  0  0  0  0  0  0  0  0
   -0.8160   -0.5111   -1.3390 H   0  0  0  0  0  0  0  0  0  0  0  0
   -1.8750   -0.5959    1.5446 H   0  0  0  0  0  0  0  0  0  0  0  0
   -2.4334   -1.5734    0.0874 H   0  0  0  0  0  0  0  0  0  0  0  0
  1  2  1  0
  2  3  1  0
  3  4  1  0
  4  5  1  0
  5  6  1  0
  6  7  1  0
  7  8  2  0
  7  9  1  0
  9  4  1  0
  1 10  1  0
  1 11  1  0
  1 12  1  0
  2 13  1  0
  2 14  1  0
  3 15  1  0
  3 16  1  0
  4 17  1  0
  5 18  1  0
  5 19  1  0
M  END
