
     RDKit          3D

 25 25  0  0  0  0  0  0  0  0999 V2000
    3.2259    0.2538    0.2273 C   0  0  0  0  0  0  0  0  0  0  0  0
    2.4629   -0.6252   -0.7278 C   0  0  0  0  0  0  0  0  0  0  0  0
    1.1806   -0.0306   -1.1889 C   0  0  0  0  0  0  0  0  0  0  0  0
    0.2179    0.2613   -0.0738 C   0  0  0  0  0  0  0  0  0  0  0  0
   -0.1575   -0.9623    0.6909 C   0  0  0  0  0  0  0  0  0  0  0  0
   -1.4502   -0.8781    1.0624 C   0  0  0  0  0  0  0  0  0  0  0  0
   -1.9959    0.3968    0.5671 C   0  0  0  0  0  0  0  0  0  0  0  0
   -3.4595    0.3415    0.2339 C   0  0  0  0  0  0  0  0  0  0  0  0
   -1.1365    0.6314   -0.6666 C   0  0  0  0  0  0  0  0  0  0  0  0
    3.9241    0.9518   -0.2849 H   0  0  0  0  0  0  0  0  0  0  0  0
    2.5660    0.7862    0.9347 H   0  0  0  0  0  0  0  0  0  0  0  0
    3.8726   -0.4089    0.8717 H   0  0  0  0  0  0  0  0  0  0  0  0
    2.3201   -1.6106   -0.2442 H   0  0  0  0  0  0  0  0  0  0  0  0
    3.1117   -0.7791   -1.6150 H   0  0  0  0  0  0  0  0  0  0  0  0
    1.3915    0.9127   -1.7082 H   0  0  0  0  0  0  0  0  0  0  0  0
    0.6927   -0.7311   -1.8801 H   0  0  0  0  0  0  0  0  0  0  0  0
    0.5346    1.0824    0.5799 H   0  0  0  0  0  0  0  0  0  0  0  0
    0.5175   -1.7731    0.9004 H   0  0  0  0  0  0  0  0  0  0  0  0
   -1.9731   -1.6444    1.6339 H   0  0  0  0  0  0  0  0  0  0  0  0
   -1.8308    1.2253    1.2641 H   0  0  0  0  0  0  0  0  0  0  0  0
   -3.7197   -0.4241   -0.5154 H   0  0  0  0  0  0  0  0  0  0  0  0
   -4.0049    0.1739    1.1751 H   0  0  0  0  0  0  0  0  0  0  0  0
   -3.7512    1.3459   -0.1337 H   0  0  0  0  0  0  0  0  0  0  0  0
   -1.3612   -0.1484   -1.4212 H   0  0  0  0  0  0  0  0  0  0  0  0
   -1.1777    1.6529   -1.0364 H   0  0  0  0  0  0  0  0  0  0  0  0
  1  2  1  0
  2  3  1  0
  3  4  1  0
  4  5  1  0
  5  6  2  0
  6  7  1  0
  7  8  1  0
  7  9  1  0
  9  4  1  0
  1 10  1  0
  1 11  1  0
  1 12  1  0
  2 13  1  0
  2 14  1  0
  3 15  1  0
  3 16  1  0
  4 17  1  0
  5 18  1  0
  6 19  1  0
  7 20  1  0
  8 21  1  0
  8 22  1  0
  8 23  1  0
  9 24  1  0
  9 25  1  0
M  END
