
     RDKit          3D

 27 26  0  0  0  0  0  0  0  0999 V2000
   -2.0349    1.6372    0.6432 C   0  0  0  0  0  0  0  0  0  0  0  0
   -2.3788    0.7555   -0.5251 C   0  0  0  0  0  0  0  0  0  0  0  0
   -1.6307   -0.5046   -0.5014 C   0  0  0  0  0  0  0  0  0  0  0  0
   -0.1733   -0.5541   -0.5873 C   0  0  0  0  0  0  0  0  0  0  0  0
    0.1746   -2.0606   -0.5276 C   0  0  0  0  0  0  0  0  0  0  0  0
    0.3470   -0.1384   -1.8209 O   0  0  0  0  0  0  0  0  0  0  0  0
    0.6425    0.1259    0.4524 C   0  0  0  0  0  0  0  0  0  0  0  0
    2.1345   -0.0853    0.1558 C   0  0  0  0  0  0  0  0  0  0  0  0
    2.9782    0.6037    1.2095 C   0  0  0  0  0  0  0  0  0  0  0  0
   -1.4200    2.5169    0.3730 H   0  0  0  0  0  0  0  0  0  0  0  0
   -1.5465    1.0156    1.4164 H   0  0  0  0  0  0  0  0  0  0  0  0
   -2.9976    1.9811    1.1370 H   0  0  0  0  0  0  0  0  0  0  0  0
   -2.3228    1.3078   -1.4919 H   0  0  0  0  0  0  0  0  0  0  0  0
   -3.4819    0.5149   -0.4137 H   0  0  0  0  0  0  0  0  0  0  0  0
   -1.9440   -1.1138    0.3959 H   0  0  0  0  0  0  0  0  0  0  0  0
   -2.0200   -1.1379   -1.3664 H   0  0  0  0  0  0  0  0  0  0  0  0
    0.1820   -2.3905    0.5204 H   0  0  0  0  0  0  0  0  0  0  0  0
    1.1069   -2.2673   -1.0747 H   0  0  0  0  0  0  0  0  0  0  0  0
   -0.6212   -2.6412   -1.0411 H   0  0  0  0  0  0  0  0  0  0  0  0
   -0.3267   -0.1253   -2.5294 H   0  0  0  0  0  0  0  0  0  0  0  0
    0.5258    1.2349    0.3327 H   0  0  0  0  0  0  0  0  0  0  0  0
    0.4996   -0.2140    1.4828 H   0  0  0  0  0  0  0  0  0  0  0  0
    2.3980   -1.1632    0.1846 H   0  0  0  0  0  0  0  0  0  0  0  0
    2.4274    0.3554   -0.8044 H   0  0  0  0  0  0  0  0  0  0  0  0
    3.9740    0.1199    1.2668 H   0  0  0  0  0  0  0  0  0  0  0  0
    2.4707    0.5509    2.1957 H   0  0  0  0  0  0  0  0  0  0  0  0
    3.0375    1.6765    0.9179 H   0  0  0  0  0  0  0  0  0  0  0  0
  1  2  1  0
  2  3  1  0
  3  4  1  0
  4  5  1  0
  4  6  1  0
  4  7  1  0
  7  8  1  0
  8  9  1  0
  1 10  1  0
  1 11  1  0
  1 12  1  0
  2 13  1  0
  2 14  1  0
  3 15  1  0
  3 16  1  0
  5 17  1  0
  5 18  1  0
  5 19  1  0
  6 20  1  0
  7 21  1  0
  7 22  1  0
  8 23  1  0
  8 24  1  0
  9 25  1  0
  9 26  1  0
  9 27  1  0
M  END
