
     RDKit          3D

 21 21  0  0  0  0  0  0  0  0999 V2000
    2.5829    0.4356   -0.6157 C   0  0  0  0  0  0  0  0  0  0  0  0
    1.8837   -0.7911   -0.1055 C   0  0  0  0  0  0  0  0  0  0  0  0
    0.7151   -0.4675    0.7693 C   0  0  0  0  0  0  0  0  0  0  0  0
   -0.3389    0.3515    0.0471 C   0  0  0  0  0  0  0  0  0  0  0  0
   -1.4994    0.6612    0.9491 C   0  0  0  0  0  0  0  0  0  0  0  0
   -2.6440    0.5318    0.0025 C   0  0  0  0  0  0  0  0  0  0  0  0
   -3.6925    1.1165    0.0190 O   0  0  0  0  0  0  0  0  0  0  0  0
   -2.1408   -0.5120   -0.9645 C   0  0  0  0  0  0  0  0  0  0  0  0
   -0.7893   -0.3140   -1.0510 O   0  0  0  0  0  0  0  0  0  0  0  0
    1.9177    1.0496   -1.2724 H   0  0  0  0  0  0  0  0  0  0  0  0
    2.9680    1.0466    0.2256 H   0  0  0  0  0  0  0  0  0  0  0  0
    3.4579    0.0879   -1.2112 H   0  0  0  0  0  0  0  0  0  0  0  0
    2.6147   -1.3552    0.5090 H   0  0  0  0  0  0  0  0  0  0  0  0
    1.6272   -1.4348   -0.9675 H   0  0  0  0  0  0  0  0  0  0  0  0
    1.0977    0.0706    1.6615 H   0  0  0  0  0  0  0  0  0  0  0  0
    0.2365   -1.3985    1.1345 H   0  0  0  0  0  0  0  0  0  0  0  0
    0.0805    1.3292   -0.2869 H   0  0  0  0  0  0  0  0  0  0  0  0
   -1.6571   -0.1296    1.7322 H   0  0  0  0  0  0  0  0  0  0  0  0
   -1.4365    1.6754    1.3927 H   0  0  0  0  0  0  0  0  0  0  0  0
   -2.3093   -1.4900   -0.4264 H   0  0  0  0  0  0  0  0  0  0  0  0
   -2.6743   -0.4632   -1.9237 H   0  0  0  0  0  0  0  0  0  0  0  0
  1  2  1  0
  2  3  1  0
  3  4  1  0
  4  5  1  0
  5  6  1  0
  6  7  2  0
  6  8  1  0
  8  9  1  0
  9  4  1  0
  1 10  1  0
  1 11  1  0
  1 12  1  0
  2 13  1  0
  2 14  1  0
  3 15  1  0
  3 16  1  0
  4 17  1  0
  5 18  1  0
  5 19  1  0
  8 20  1  0
  8 21  1  0
M  END
