
     RDKit          3D

 23 23  0  0  0  0  0  0  0  0999 V2000
    3.2726   -0.3054    0.0861 C   0  0  0  0  0  0  0  0  0  0  0  0
    2.0019    0.1556   -0.6038 C   0  0  0  0  0  0  0  0  0  0  0  0
    0.8445   -0.4499    0.1094 C   0  0  0  0  0  0  0  0  0  0  0  0
   -0.4941   -0.0930   -0.4489 C   0  0  0  0  0  0  0  0  0  0  0  0
   -0.8860    1.3290   -0.4861 C   0  0  0  0  0  0  0  0  0  0  0  0
   -1.6557    1.1968    0.7808 C   0  0  0  0  0  0  0  0  0  0  0  0
   -2.1701    1.8954    1.6363 O   0  0  0  0  0  0  0  0  0  0  0  0
   -1.5678   -0.2967    0.6191 C   0  0  0  0  0  0  0  0  0  0  0  0
   -2.8619   -0.8227    0.0782 C   0  0  0  0  0  0  0  0  0  0  0  0
    4.0338    0.4881   -0.0299 H   0  0  0  0  0  0  0  0  0  0  0  0
    3.1348   -0.4838    1.1635 H   0  0  0  0  0  0  0  0  0  0  0  0
    3.6566   -1.2530   -0.3686 H   0  0  0  0  0  0  0  0  0  0  0  0
    1.9707    1.2617   -0.5066 H   0  0  0  0  0  0  0  0  0  0  0  0
    2.0812   -0.1563   -1.6573 H   0  0  0  0  0  0  0  0  0  0  0  0
    0.9378   -1.5731    0.0291 H   0  0  0  0  0  0  0  0  0  0  0  0
    0.9298   -0.2387    1.1939 H   0  0  0  0  0  0  0  0  0  0  0  0
   -0.7903   -0.6423   -1.3592 H   0  0  0  0  0  0  0  0  0  0  0  0
   -0.0940    2.0899   -0.3727 H   0  0  0  0  0  0  0  0  0  0  0  0
   -1.5783    1.6162   -1.3071 H   0  0  0  0  0  0  0  0  0  0  0  0
   -1.2269   -0.8064    1.5219 H   0  0  0  0  0  0  0  0  0  0  0  0
   -3.5848   -0.8600    0.9161 H   0  0  0  0  0  0  0  0  0  0  0  0
   -2.6918   -1.8673   -0.2759 H   0  0  0  0  0  0  0  0  0  0  0  0
   -3.2619   -0.1839   -0.7181 H   0  0  0  0  0  0  0  0  0  0  0  0
  1  2  1  0
  2  3  1  0
  3  4  1  0
  4  5  1  0
  5  6  1  0
  6  7  2  0
  6  8  1  0
  8  9  1  0
  8  4  1  0
  1 10  1  0
  1 11  1  0
  1 12  1  0
  2 13  1  0
  2 14  1  0
  3 15  1  0
  3 16  1  0
  4 17  1  0
  5 18  1  0
  5 19  1  0
  8 20  1  0
  9 21  1  0
  9 22  1  0
  9 23  1  0
M  END
