
     RDKit          3D

 23 25  0  0  0  0  0  0  0  0999 V2000
   -2.1960    1.1345    0.2744 C   0  0  0  0  0  0  0  0  0  0  0  0
   -2.0533   -0.3689    0.1505 C   0  0  0  0  0  0  0  0  0  0  0  0
   -0.9925   -0.7471   -0.8492 C   0  0  0  0  0  0  0  0  0  0  0  0
    0.3627   -0.2415   -0.5250 C   0  0  0  0  0  0  0  0  0  0  0  0
    1.4487   -0.5881   -1.4826 C   0  0  0  0  0  0  0  0  0  0  0  0
    1.4744   -1.2016   -0.1397 C   0  0  0  0  0  0  0  0  0  0  0  0
    1.9352   -0.2987    0.9827 C   0  0  0  0  0  0  0  0  0  0  0  0
    2.0061    1.1678    0.7812 C   0  0  0  0  0  0  0  0  0  0  0  0
    0.6571    0.5394    0.7062 C   0  0  0  0  0  0  0  0  0  0  0  0
   -2.2911    1.3607    1.3630 H   0  0  0  0  0  0  0  0  0  0  0  0
   -3.1035    1.5096   -0.2690 H   0  0  0  0  0  0  0  0  0  0  0  0
   -1.3429    1.6830   -0.1703 H   0  0  0  0  0  0  0  0  0  0  0  0
   -1.9015   -0.8546    1.1371 H   0  0  0  0  0  0  0  0  0  0  0  0
   -3.0265   -0.7445   -0.2293 H   0  0  0  0  0  0  0  0  0  0  0  0
   -1.2940   -0.3553   -1.8362 H   0  0  0  0  0  0  0  0  0  0  0  0
   -1.0198   -1.8603   -0.9396 H   0  0  0  0  0  0  0  0  0  0  0  0
    1.2155   -1.2465   -2.3194 H   0  0  0  0  0  0  0  0  0  0  0  0
    2.2821    0.1211   -1.6905 H   0  0  0  0  0  0  0  0  0  0  0  0
    1.1290   -2.2078    0.0781 H   0  0  0  0  0  0  0  0  0  0  0  0
    2.0680   -0.6933    1.9968 H   0  0  0  0  0  0  0  0  0  0  0  0
    2.3208    1.7596    1.6414 H   0  0  0  0  0  0  0  0  0  0  0  0
    2.3649    1.5951   -0.1982 H   0  0  0  0  0  0  0  0  0  0  0  0
   -0.0435    0.5373    1.5379 H   0  0  0  0  0  0  0  0  0  0  0  0
  1  2  1  0
  2  3  1  0
  3  4  1  0
  4  5  1  0
  5  6  1  0
  6  7  1  0
  7  8  1  0
  8  9  1  0
  6  4  1  0
  9  7  1  0
  9  4  1  0
  1 10  1  0
  1 11  1  0
  1 12  1  0
  2 13  1  0
  2 14  1  0
  3 15  1  0
  3 16  1  0
  5 17  1  0
  5 18  1  0
  6 19  1  0
  7 20  1  0
  8 21  1  0
  8 22  1  0
  9 23  1  0
M  END
