
     RDKit          3D

 23 24  0  0  0  0  0  0  0  0999 V2000
   -2.8017    0.3043    0.4179 C   0  0  0  0  0  0  0  0  0  0  0  0
   -2.2510   -0.8774   -0.3453 C   0  0  0  0  0  0  0  0  0  0  0  0
   -0.8231   -1.1359    0.1300 C   0  0  0  0  0  0  0  0  0  0  0  0
    0.0326    0.0601   -0.1178 C   0  0  0  0  0  0  0  0  0  0  0  0
    0.1849    0.5269   -1.5237 C   0  0  0  0  0  0  0  0  0  0  0  0
    1.3461   -0.0417   -0.8116 C   0  0  0  0  0  0  0  0  0  0  0  0
    1.8879    0.8222    0.2941 C   0  0  0  0  0  0  0  0  0  0  0  0
    3.0851    0.2978    1.0241 C   0  0  0  0  0  0  0  0  0  0  0  0
    0.6749    0.7019    0.9270 O   0  0  0  0  0  0  0  0  0  0  0  0
   -3.2712    0.0159    1.3800 H   0  0  0  0  0  0  0  0  0  0  0  0
   -1.9939    1.0449    0.5765 H   0  0  0  0  0  0  0  0  0  0  0  0
   -3.5724    0.8299   -0.2040 H   0  0  0  0  0  0  0  0  0  0  0  0
   -2.8816   -1.7693   -0.1563 H   0  0  0  0  0  0  0  0  0  0  0  0
   -2.2729   -0.6078   -1.4183 H   0  0  0  0  0  0  0  0  0  0  0  0
   -0.8794   -1.3037    1.2331 H   0  0  0  0  0  0  0  0  0  0  0  0
   -0.4120   -2.0502   -0.3389 H   0  0  0  0  0  0  0  0  0  0  0  0
    0.1781    1.6469   -1.6281 H   0  0  0  0  0  0  0  0  0  0  0  0
   -0.3335   -0.0533   -2.2818 H   0  0  0  0  0  0  0  0  0  0  0  0
    1.8041   -1.0013   -1.0637 H   0  0  0  0  0  0  0  0  0  0  0  0
    2.0605    1.8810   -0.0020 H   0  0  0  0  0  0  0  0  0  0  0  0
    3.9763    0.4941    0.3654 H   0  0  0  0  0  0  0  0  0  0  0  0
    3.0186   -0.7350    1.3488 H   0  0  0  0  0  0  0  0  0  0  0  0
    3.2435    0.9497    1.9132 H   0  0  0  0  0  0  0  0  0  0  0  0
  1  2  1  0
  2  3  1  0
  3  4  1  0
  4  5  1  0
  5  6  1  0
  6  7  1  0
  7  8  1  0
  7  9  1  0
  6  4  1  0
  9  4  1  0
  1 10  1  0
  1 11  1  0
  1 12  1  0
  2 13  1  0
  2 14  1  0
  3 15  1  0
  3 16  1  0
  5 17  1  0
  5 18  1  0
  6 19  1  0
  7 20  1  0
  8 21  1  0
  8 22  1  0
  8 23  1  0
M  END
