
     RDKit          3D

 23 23  0  0  0  0  0  0  0  0999 V2000
    3.2192    0.2511    0.4143 C   0  0  0  0  0  0  0  0  0  0  0  0
    1.9869   -0.4006   -0.1365 C   0  0  0  0  0  0  0  0  0  0  0  0
    0.7786    0.5431   -0.0854 C   0  0  0  0  0  0  0  0  0  0  0  0
   -0.3748   -0.2417   -0.6664 C   0  0  0  0  0  0  0  0  0  0  0  0
   -0.5579   -1.4432    0.1871 C   0  0  0  0  0  0  0  0  0  0  0  0
   -0.3400   -1.4651    1.3820 O   0  0  0  0  0  0  0  0  0  0  0  0
   -1.6550    0.5460   -0.7067 C   0  0  0  0  0  0  0  0  0  0  0  0
   -2.2829    1.0842    0.4944 C   0  0  0  0  0  0  0  0  0  0  0  0
   -2.8765   -0.1660   -0.1540 C   0  0  0  0  0  0  0  0  0  0  0  0
    3.1548    1.3407    0.3395 H   0  0  0  0  0  0  0  0  0  0  0  0
    3.3282   -0.0171    1.4843 H   0  0  0  0  0  0  0  0  0  0  0  0
    4.1435   -0.0681   -0.0919 H   0  0  0  0  0  0  0  0  0  0  0  0
    1.7813   -1.3343    0.4097 H   0  0  0  0  0  0  0  0  0  0  0  0
    2.2123   -0.6886   -1.1911 H   0  0  0  0  0  0  0  0  0  0  0  0
    0.9808    1.4842   -0.5917 H   0  0  0  0  0  0  0  0  0  0  0  0
    0.5587    0.6633    1.0079 H   0  0  0  0  0  0  0  0  0  0  0  0
   -0.0578   -0.5644   -1.6779 H   0  0  0  0  0  0  0  0  0  0  0  0
   -0.9061   -2.3413   -0.3018 H   0  0  0  0  0  0  0  0  0  0  0  0
   -1.8182    1.0833   -1.6786 H   0  0  0  0  0  0  0  0  0  0  0  0
   -1.7856    0.9443    1.4790 H   0  0  0  0  0  0  0  0  0  0  0  0
   -2.9384    1.9906    0.3560 H   0  0  0  0  0  0  0  0  0  0  0  0
   -3.8413   -0.0807   -0.6836 H   0  0  0  0  0  0  0  0  0  0  0  0
   -2.7098   -1.1195    0.4113 H   0  0  0  0  0  0  0  0  0  0  0  0
  1  2  1  0
  2  3  1  0
  3  4  1  0
  4  5  1  0
  5  6  2  0
  4  7  1  0
  7  8  1  0
  8  9  1  0
  9  7  1  0
  1 10  1  0
  1 11  1  0
  1 12  1  0
  2 13  1  0
  2 14  1  0
  3 15  1  0
  3 16  1  0
  4 17  1  0
  5 18  1  0
  7 19  1  0
  8 20  1  0
  8 21  1  0
  9 22  1  0
  9 23  1  0
M  END
