
     RDKit          3D

 23 22  0  0  0  0  0  0  0  0999 V2000
   -2.5825   -0.2301    0.4164 C   0  0  0  0  0  0  0  0  0  0  0  0
   -1.6318   -0.5123   -0.6934 C   0  0  0  0  0  0  0  0  0  0  0  0
   -0.6759    0.5673   -1.0373 C   0  0  0  0  0  0  0  0  0  0  0  0
    0.2470    1.0003    0.0443 C   0  0  0  0  0  0  0  0  0  0  0  0
   -0.4469    1.5290    1.2509 C   0  0  0  0  0  0  0  0  0  0  0  0
   -1.1747    2.4963    1.1567 O   0  0  0  0  0  0  0  0  0  0  0  0
    1.2834   -0.0330    0.4068 C   0  0  0  0  0  0  0  0  0  0  0  0
    2.0806   -0.3499   -0.6769 O   0  0  0  0  0  0  0  0  0  0  0  0
    3.0404   -1.2876   -0.3960 C   0  0  0  0  0  0  0  0  0  0  0  0
   -2.1618   -0.2325    1.4199 H   0  0  0  0  0  0  0  0  0  0  0  0
   -3.3999   -1.0000    0.3486 H   0  0  0  0  0  0  0  0  0  0  0  0
   -3.0849    0.7443    0.2491 H   0  0  0  0  0  0  0  0  0  0  0  0
   -2.2614   -0.6873   -1.6175 H   0  0  0  0  0  0  0  0  0  0  0  0
   -1.1288   -1.5103   -0.5372 H   0  0  0  0  0  0  0  0  0  0  0  0
   -1.2781    1.4624   -1.3461 H   0  0  0  0  0  0  0  0  0  0  0  0
   -0.0997    0.2591   -1.9195 H   0  0  0  0  0  0  0  0  0  0  0  0
    0.8293    1.8783   -0.3670 H   0  0  0  0  0  0  0  0  0  0  0  0
   -0.3278    1.0782    2.2294 H   0  0  0  0  0  0  0  0  0  0  0  0
    1.9604    0.4584    1.1627 H   0  0  0  0  0  0  0  0  0  0  0  0
    0.8800   -0.9245    0.8842 H   0  0  0  0  0  0  0  0  0  0  0  0
    3.6243   -1.4738   -1.3209 H   0  0  0  0  0  0  0  0  0  0  0  0
    2.5778   -2.2613   -0.0921 H   0  0  0  0  0  0  0  0  0  0  0  0
    3.7310   -0.9709    0.4350 H   0  0  0  0  0  0  0  0  0  0  0  0
  1  2  1  0
  2  3  1  0
  3  4  1  0
  4  5  1  0
  5  6  2  0
  4  7  1  0
  7  8  1  0
  8  9  1  0
  1 10  1  0
  1 11  1  0
  1 12  1  0
  2 13  1  0
  2 14  1  0
  3 15  1  0
  3 16  1  0
  4 17  1  0
  5 18  1  0
  7 19  1  0
  7 20  1  0
  9 21  1  0
  9 22  1  0
  9 23  1  0
M  END
