
     RDKit          3D

 21 21  0  0  0  0  0  0  0  0999 V2000
    2.2846    0.3834   -0.2868 C   0  0  0  0  0  0  0  0  0  0  0  0
    1.5608   -0.7568    0.3384 C   0  0  0  0  0  0  0  0  0  0  0  0
    0.2516   -0.3998    0.9643 C   0  0  0  0  0  0  0  0  0  0  0  0
   -0.7521    0.1807    0.0391 C   0  0  0  0  0  0  0  0  0  0  0  0
   -0.4205    1.4199   -0.6562 C   0  0  0  0  0  0  0  0  0  0  0  0
   -0.2622    1.3687   -1.8817 O   0  0  0  0  0  0  0  0  0  0  0  0
   -2.1575    0.1315    0.6517 C   0  0  0  0  0  0  0  0  0  0  0  0
   -2.1767   -1.2303    0.2676 O   0  0  0  0  0  0  0  0  0  0  0  0
   -1.4532   -0.8200   -0.8723 C   0  0  0  0  0  0  0  0  0  0  0  0
    3.3870    0.3614   -0.0505 H   0  0  0  0  0  0  0  0  0  0  0  0
    2.2511    0.3562   -1.4121 H   0  0  0  0  0  0  0  0  0  0  0  0
    1.9311    1.3691    0.0886 H   0  0  0  0  0  0  0  0  0  0  0  0
    1.3997   -1.6130   -0.3613 H   0  0  0  0  0  0  0  0  0  0  0  0
    2.2083   -1.1714    1.1537 H   0  0  0  0  0  0  0  0  0  0  0  0
   -0.1722   -1.3308    1.3995 H   0  0  0  0  0  0  0  0  0  0  0  0
    0.4487    0.3248    1.7898 H   0  0  0  0  0  0  0  0  0  0  0  0
   -0.3151    2.3631   -0.1132 H   0  0  0  0  0  0  0  0  0  0  0  0
   -2.9227    0.6649    0.0793 H   0  0  0  0  0  0  0  0  0  0  0  0
   -2.1610    0.2858    1.7320 H   0  0  0  0  0  0  0  0  0  0  0  0
   -2.1069   -0.2828   -1.5873 H   0  0  0  0  0  0  0  0  0  0  0  0
   -0.8229   -1.6046   -1.2826 H   0  0  0  0  0  0  0  0  0  0  0  0
  1  2  1  0
  2  3  1  0
  3  4  1  0
  4  5  1  0
  5  6  2  0
  4  7  1  0
  7  8  1  0
  8  9  1  0
  9  4  1  0
  1 10  1  0
  1 11  1  0
  1 12  1  0
  2 13  1  0
  2 14  1  0
  3 15  1  0
  3 16  1  0
  5 17  1  0
  7 18  1  0
  7 19  1  0
  9 20  1  0
  9 21  1  0
M  END
