
     RDKit          3D

 25 24  0  0  0  0  0  0  0  0999 V2000
   -3.5254   -0.8359   -0.4644 C   0  0  0  0  0  0  0  0  0  0  0  0
   -2.5078    0.1555    0.0970 C   0  0  0  0  0  0  0  0  0  0  0  0
   -1.1614   -0.4699   -0.0224 C   0  0  0  0  0  0  0  0  0  0  0  0
   -0.0346    0.3636    0.4817 C   0  0  0  0  0  0  0  0  0  0  0  0
    0.1066    1.6869   -0.2301 C   0  0  0  0  0  0  0  0  0  0  0  0
    1.2433   -0.3752    0.2761 C   0  0  0  0  0  0  0  0  0  0  0  0
    1.2196   -1.4618   -0.2281 O   0  0  0  0  0  0  0  0  0  0  0  0
    2.5455    0.2170    0.6875 C   0  0  0  0  0  0  0  0  0  0  0  0
    3.6459   -0.7401    0.3622 C   0  0  0  0  0  0  0  0  0  0  0  0
   -4.5207   -0.5143   -0.0663 H   0  0  0  0  0  0  0  0  0  0  0  0
   -3.3128   -1.8644   -0.1751 H   0  0  0  0  0  0  0  0  0  0  0  0
   -3.5973   -0.7768   -1.5648 H   0  0  0  0  0  0  0  0  0  0  0  0
   -2.5116    1.0670   -0.5650 H   0  0  0  0  0  0  0  0  0  0  0  0
   -2.7397    0.4134    1.1333 H   0  0  0  0  0  0  0  0  0  0  0  0
   -1.1692   -1.4079    0.5978 H   0  0  0  0  0  0  0  0  0  0  0  0
   -1.0254   -0.7969   -1.0728 H   0  0  0  0  0  0  0  0  0  0  0  0
   -0.1659    0.6031    1.5613 H   0  0  0  0  0  0  0  0  0  0  0  0
    0.9328    2.2317    0.2774 H   0  0  0  0  0  0  0  0  0  0  0  0
    0.3736    1.5829   -1.2904 H   0  0  0  0  0  0  0  0  0  0  0  0
   -0.8090    2.3241   -0.0804 H   0  0  0  0  0  0  0  0  0  0  0  0
    2.7096    1.2271    0.2229 H   0  0  0  0  0  0  0  0  0  0  0  0
    2.5466    0.3815    1.7897 H   0  0  0  0  0  0  0  0  0  0  0  0
    4.5811   -0.1728    0.2663 H   0  0  0  0  0  0  0  0  0  0  0  0
    3.4533   -1.3261   -0.5772 H   0  0  0  0  0  0  0  0  0  0  0  0
    3.7228   -1.5117    1.1816 H   0  0  0  0  0  0  0  0  0  0  0  0
  1  2  1  0
  2  3  1  0
  3  4  1  0
  4  5  1  0
  4  6  1  0
  6  7  2  0
  6  8  1  0
  8  9  1  0
  1 10  1  0
  1 11  1  0
  1 12  1  0
  2 13  1  0
  2 14  1  0
  3 15  1  0
  3 16  1  0
  4 17  1  0
  5 18  1  0
  5 19  1  0
  5 20  1  0
  8 21  1  0
  8 22  1  0
  9 23  1  0
  9 24  1  0
  9 25  1  0
M  END
