
     RDKit          3D

 21 22  0  0  0  0  0  0  0  0999 V2000
    3.0430   -0.0242   -0.3158 C   0  0  0  0  0  0  0  0  0  0  0  0
    1.7529   -0.3488    0.4317 C   0  0  0  0  0  0  0  0  0  0  0  0
    0.6790    0.5270   -0.1564 C   0  0  0  0  0  0  0  0  0  0  0  0
   -0.6673    0.3200    0.4847 C   0  0  0  0  0  0  0  0  0  0  0  0
   -1.6468    1.2164   -0.1550 C   0  0  0  0  0  0  0  0  0  0  0  0
   -2.7196    0.5371   -0.5280 C   0  0  0  0  0  0  0  0  0  0  0  0
   -2.5934   -0.8919   -0.1866 C   0  0  0  0  0  0  0  0  0  0  0  0
   -1.5985   -1.5813   -0.8574 O   0  0  0  0  0  0  0  0  0  0  0  0
   -1.1931   -1.0594    0.3606 C   0  0  0  0  0  0  0  0  0  0  0  0
    3.1823    1.0760   -0.2538 H   0  0  0  0  0  0  0  0  0  0  0  0
    3.9209   -0.5078    0.1465 H   0  0  0  0  0  0  0  0  0  0  0  0
    2.9953   -0.3841   -1.3649 H   0  0  0  0  0  0  0  0  0  0  0  0
    1.5419   -1.4121    0.3741 H   0  0  0  0  0  0  0  0  0  0  0  0
    1.9428   -0.0933    1.4935 H   0  0  0  0  0  0  0  0  0  0  0  0
    0.6119    0.3516   -1.2469 H   0  0  0  0  0  0  0  0  0  0  0  0
    0.9772    1.5866   -0.0165 H   0  0  0  0  0  0  0  0  0  0  0  0
   -0.5980    0.5877    1.5519 H   0  0  0  0  0  0  0  0  0  0  0  0
   -1.4814    2.2829   -0.2871 H   0  0  0  0  0  0  0  0  0  0  0  0
   -3.5758    0.9795   -1.0199 H   0  0  0  0  0  0  0  0  0  0  0  0
   -3.4270   -1.4334    0.2886 H   0  0  0  0  0  0  0  0  0  0  0  0
   -1.1465   -1.7284    1.2565 H   0  0  0  0  0  0  0  0  0  0  0  0
  1  2  1  0
  2  3  1  0
  3  4  1  0
  4  5  1  0
  5  6  2  0
  6  7  1  0
  7  8  1  0
  8  9  1  0
  9  4  1  0
  9  7  1  0
  1 10  1  0
  1 11  1  0
  1 12  1  0
  2 13  1  0
  2 14  1  0
  3 15  1  0
  3 16  1  0
  4 17  1  0
  5 18  1  0
  6 19  1  0
  7 20  1  0
  9 21  1  0
M  END
