
     RDKit          3D

 21 20  0  0  0  0  0  0  0  0999 V2000
    3.0551   -0.5091   -0.2574 C   0  0  0  0  0  0  0  0  0  0  0  0
    1.7628    0.2353   -0.0632 C   0  0  0  0  0  0  0  0  0  0  0  0
    0.5554   -0.6802   -0.1507 C   0  0  0  0  0  0  0  0  0  0  0  0
   -0.6505    0.2103    0.0631 C   0  0  0  0  0  0  0  0  0  0  0  0
   -0.4954    0.8258    1.4157 C   0  0  0  0  0  0  0  0  0  0  0  0
   -0.1855    1.9895    1.5564 O   0  0  0  0  0  0  0  0  0  0  0  0
   -1.9223   -0.4834   -0.1076 C   0  0  0  0  0  0  0  0  0  0  0  0
   -3.1904    0.2515    0.0684 C   0  0  0  0  0  0  0  0  0  0  0  0
   -1.9509   -1.6557   -0.3921 O   0  0  0  0  0  0  0  0  0  0  0  0
    2.9474   -1.4499   -0.8218 H   0  0  0  0  0  0  0  0  0  0  0  0
    3.5893   -0.6354    0.7059 H   0  0  0  0  0  0  0  0  0  0  0  0
    3.7139    0.1521   -0.8834 H   0  0  0  0  0  0  0  0  0  0  0  0
    1.7075    0.7351    0.9267 H   0  0  0  0  0  0  0  0  0  0  0  0
    1.6224    0.9943   -0.8814 H   0  0  0  0  0  0  0  0  0  0  0  0
    0.4994   -1.2149   -1.1213 H   0  0  0  0  0  0  0  0  0  0  0  0
    0.6312   -1.4491    0.6578 H   0  0  0  0  0  0  0  0  0  0  0  0
   -0.5552    1.0365   -0.6909 H   0  0  0  0  0  0  0  0  0  0  0  0
   -0.6569    0.2450    2.3163 H   0  0  0  0  0  0  0  0  0  0  0  0
   -3.3814    0.3678    1.1576 H   0  0  0  0  0  0  0  0  0  0  0  0
   -3.0524    1.2538   -0.4202 H   0  0  0  0  0  0  0  0  0  0  0  0
   -4.0434   -0.2193   -0.4585 H   0  0  0  0  0  0  0  0  0  0  0  0
  1  2  1  0
  2  3  1  0
  3  4  1  0
  4  5  1  0
  5  6  2  0
  4  7  1  0
  7  8  1  0
  7  9  2  0
  1 10  1  0
  1 11  1  0
  1 12  1  0
  2 13  1  0
  2 14  1  0
  3 15  1  0
  3 16  1  0
  4 17  1  0
  5 18  1  0
  8 19  1  0
  8 20  1  0
  8 21  1  0
M  END
