
     RDKit          3D

 23 22  0  0  0  0  0  0  0  0999 V2000
   -2.1812   -1.7874    0.6654 C   0  0  0  0  0  0  0  0  0  0  0  0
   -2.5521   -0.7064   -0.3308 C   0  0  0  0  0  0  0  0  0  0  0  0
   -2.2629    0.6803    0.2595 C   0  0  0  0  0  0  0  0  0  0  0  0
   -0.8405    0.8119    0.5835 C   0  0  0  0  0  0  0  0  0  0  0  0
    0.3413    0.9404    0.8442 C   0  0  0  0  0  0  0  0  0  0  0  0
    1.7641    1.1169    1.1446 C   0  0  0  0  0  0  0  0  0  0  0  0
    2.2553    0.0223    1.8874 O   0  0  0  0  0  0  0  0  0  0  0  0
    2.5463    1.0982   -0.1697 C   0  0  0  0  0  0  0  0  0  0  0  0
    2.3189   -0.2308   -0.8572 C   0  0  0  0  0  0  0  0  0  0  0  0
   -1.0924   -1.8817    0.7367 H   0  0  0  0  0  0  0  0  0  0  0  0
   -2.6728   -2.7361    0.3724 H   0  0  0  0  0  0  0  0  0  0  0  0
   -2.6459   -1.4930    1.6341 H   0  0  0  0  0  0  0  0  0  0  0  0
   -1.8911   -0.8029   -1.2174 H   0  0  0  0  0  0  0  0  0  0  0  0
   -3.5818   -0.7824   -0.6807 H   0  0  0  0  0  0  0  0  0  0  0  0
   -2.5684    1.4088   -0.5360 H   0  0  0  0  0  0  0  0  0  0  0  0
   -2.8290    0.8334    1.1874 H   0  0  0  0  0  0  0  0  0  0  0  0
    1.9296    2.0645    1.6896 H   0  0  0  0  0  0  0  0  0  0  0  0
    1.5585   -0.1198    2.6022 H   0  0  0  0  0  0  0  0  0  0  0  0
    3.6278    1.1861    0.0095 H   0  0  0  0  0  0  0  0  0  0  0  0
    2.1446    1.9399   -0.7725 H   0  0  0  0  0  0  0  0  0  0  0  0
    1.2461   -0.5061   -0.6576 H   0  0  0  0  0  0  0  0  0  0  0  0
    3.0287   -0.9988   -0.5577 H   0  0  0  0  0  0  0  0  0  0  0  0
    2.3571   -0.0573   -1.9628 H   0  0  0  0  0  0  0  0  0  0  0  0
  1  2  1  0
  2  3  1  0
  3  4  1  0
  4  5  3  0
  5  6  1  0
  6  7  1  0
  6  8  1  0
  8  9  1  0
  1 10  1  0
  1 11  1  0
  1 12  1  0
  2 13  1  0
  2 14  1  0
  3 15  1  0
  3 16  1  0
  6 17  1  0
  7 18  1  0
  8 19  1  0
  8 20  1  0
  9 21  1  0
  9 22  1  0
  9 23  1  0
M  END
