
     RDKit          3D

 25 25  0  0  0  0  0  0  0  0999 V2000
    2.6363   -0.4429   -1.3312 C   0  0  0  0  0  0  0  0  0  0  0  0
    1.2210   -0.7632   -0.8095 C   0  0  0  0  0  0  0  0  0  0  0  0
    0.8377    0.3922    0.0384 C   0  0  0  0  0  0  0  0  0  0  0  0
   -0.5028    0.3637    0.6730 C   0  0  0  0  0  0  0  0  0  0  0  0
   -0.9150   -0.7262    1.6367 C   0  0  0  0  0  0  0  0  0  0  0  0
   -0.8919   -2.1066    1.0421 C   0  0  0  0  0  0  0  0  0  0  0  0
   -0.7376    1.6705    1.3459 O   0  0  0  0  0  0  0  0  0  0  0  0
   -1.5414    1.2486    0.2165 C   0  0  0  0  0  0  0  0  0  0  0  0
   -1.4230    2.2216   -0.9028 C   0  0  0  0  0  0  0  0  0  0  0  0
    2.5198    0.4501   -1.9644 H   0  0  0  0  0  0  0  0  0  0  0  0
    3.0107   -1.3202   -1.8962 H   0  0  0  0  0  0  0  0  0  0  0  0
    3.2307   -0.2396   -0.4089 H   0  0  0  0  0  0  0  0  0  0  0  0
    0.5878   -0.8387   -1.7158 H   0  0  0  0  0  0  0  0  0  0  0  0
    1.3250   -1.7282   -0.2781 H   0  0  0  0  0  0  0  0  0  0  0  0
    1.6708    0.5405    0.7821 H   0  0  0  0  0  0  0  0  0  0  0  0
    0.8750    1.3022   -0.6281 H   0  0  0  0  0  0  0  0  0  0  0  0
   -0.2733   -0.6869    2.5673 H   0  0  0  0  0  0  0  0  0  0  0  0
   -1.9544   -0.5332    1.9811 H   0  0  0  0  0  0  0  0  0  0  0  0
   -0.0356   -2.7151    1.3918 H   0  0  0  0  0  0  0  0  0  0  0  0
   -1.0212   -2.0578   -0.0454 H   0  0  0  0  0  0  0  0  0  0  0  0
   -1.7964   -2.6512    1.4408 H   0  0  0  0  0  0  0  0  0  0  0  0
   -2.5896    1.0860    0.5809 H   0  0  0  0  0  0  0  0  0  0  0  0
   -2.4182    2.6690   -1.1643 H   0  0  0  0  0  0  0  0  0  0  0  0
   -1.0560    1.7741   -1.8485 H   0  0  0  0  0  0  0  0  0  0  0  0
   -0.7584    3.0912   -0.7033 H   0  0  0  0  0  0  0  0  0  0  0  0
  1  2  1  0
  2  3  1  0
  3  4  1  0
  4  5  1  0
  5  6  1  0
  4  7  1  0
  7  8  1  0
  8  9  1  0
  8  4  1  0
  1 10  1  0
  1 11  1  0
  1 12  1  0
  2 13  1  0
  2 14  1  0
  3 15  1  0
  3 16  1  0
  5 17  1  0
  5 18  1  0
  6 19  1  0
  6 20  1  0
  6 21  1  0
  8 22  1  0
  9 23  1  0
  9 24  1  0
  9 25  1  0
M  END
