
     RDKit          3D

 25 24  0  0  0  0  0  0  0  0999 V2000
    1.8780   -1.3665    1.1951 C   0  0  0  0  0  0  0  0  0  0  0  0
    1.5186   -1.6589   -0.2555 C   0  0  0  0  0  0  0  0  0  0  0  0
    1.2277   -0.3766   -0.9890 C   0  0  0  0  0  0  0  0  0  0  0  0
    0.1036    0.3334   -0.3347 C   0  0  0  0  0  0  0  0  0  0  0  0
   -1.1302   -0.5344   -0.3587 C   0  0  0  0  0  0  0  0  0  0  0  0
   -2.3249    0.1339    0.2957 C   0  0  0  0  0  0  0  0  0  0  0  0
   -2.1101    0.4366    1.6297 O   0  0  0  0  0  0  0  0  0  0  0  0
   -0.2222    1.5449   -0.9040 O   0  0  0  0  0  0  0  0  0  0  0  0
   -0.0915    2.6569   -0.1434 C   0  0  0  0  0  0  0  0  0  0  0  0
    2.3322   -2.2796    1.6271 H   0  0  0  0  0  0  0  0  0  0  0  0
    2.6240   -0.5551    1.1956 H   0  0  0  0  0  0  0  0  0  0  0  0
    1.0020   -1.1057    1.7959 H   0  0  0  0  0  0  0  0  0  0  0  0
    2.3924   -2.1797   -0.7281 H   0  0  0  0  0  0  0  0  0  0  0  0
    0.7084   -2.4089   -0.2872 H   0  0  0  0  0  0  0  0  0  0  0  0
    2.1705    0.1894   -1.0444 H   0  0  0  0  0  0  0  0  0  0  0  0
    0.9248   -0.6598   -2.0391 H   0  0  0  0  0  0  0  0  0  0  0  0
    0.4153    0.5324    0.7264 H   0  0  0  0  0  0  0  0  0  0  0  0
   -1.4319   -0.8129   -1.3862 H   0  0  0  0  0  0  0  0  0  0  0  0
   -0.9806   -1.5055    0.1930 H   0  0  0  0  0  0  0  0  0  0  0  0
   -2.6053    1.0625   -0.2591 H   0  0  0  0  0  0  0  0  0  0  0  0
   -3.2061   -0.5290    0.2360 H   0  0  0  0  0  0  0  0  0  0  0  0
   -2.8581    0.1078    2.2059 H   0  0  0  0  0  0  0  0  0  0  0  0
   -0.3967    3.5295   -0.7776 H   0  0  0  0  0  0  0  0  0  0  0  0
   -0.8347    2.6422    0.6770 H   0  0  0  0  0  0  0  0  0  0  0  0
    0.8949    2.8034    0.3265 H   0  0  0  0  0  0  0  0  0  0  0  0
  1  2  1  0
  2  3  1  0
  3  4  1  0
  4  5  1  0
  5  6  1  0
  6  7  1  0
  4  8  1  0
  8  9  1  0
  1 10  1  0
  1 11  1  0
  1 12  1  0
  2 13  1  0
  2 14  1  0
  3 15  1  0
  3 16  1  0
  4 17  1  0
  5 18  1  0
  5 19  1  0
  6 20  1  0
  6 21  1  0
  7 22  1  0
  9 23  1  0
  9 24  1  0
  9 25  1  0
M  END
