
     RDKit          3D

 26 25  0  0  0  0  0  0  0  0999 V2000
    3.4198    0.3022   -0.4152 C   0  0  0  0  0  0  0  0  0  0  0  0
    2.0964   -0.4197   -0.5410 C   0  0  0  0  0  0  0  0  0  0  0  0
    0.9506    0.4741   -0.0726 C   0  0  0  0  0  0  0  0  0  0  0  0
   -0.3256   -0.3015   -0.2241 C   0  0  0  0  0  0  0  0  0  0  0  0
   -0.2237   -1.5571    0.6394 C   0  0  0  0  0  0  0  0  0  0  0  0
   -1.5462    0.4366    0.2164 C   0  0  0  0  0  0  0  0  0  0  0  0
   -2.7321   -0.4811   -0.0024 C   0  0  0  0  0  0  0  0  0  0  0  0
   -1.7842    1.7236   -0.5182 C   0  0  0  0  0  0  0  0  0  0  0  0
    3.5220    0.8297    0.5459 H   0  0  0  0  0  0  0  0  0  0  0  0
    4.2088   -0.4887   -0.4212 H   0  0  0  0  0  0  0  0  0  0  0  0
    3.5692    0.9811   -1.2776 H   0  0  0  0  0  0  0  0  0  0  0  0
    1.9484   -0.7189   -1.5932 H   0  0  0  0  0  0  0  0  0  0  0  0
    2.1144   -1.3112    0.1290 H   0  0  0  0  0  0  0  0  0  0  0  0
    1.1377    0.8337    0.9405 H   0  0  0  0  0  0  0  0  0  0  0  0
    0.9177    1.3161   -0.7991 H   0  0  0  0  0  0  0  0  0  0  0  0
   -0.4277   -0.6375   -1.2676 H   0  0  0  0  0  0  0  0  0  0  0  0
   -1.1742   -1.7567    1.1836 H   0  0  0  0  0  0  0  0  0  0  0  0
    0.5434   -1.3968    1.4279 H   0  0  0  0  0  0  0  0  0  0  0  0
   -0.0132   -2.4587    0.0317 H   0  0  0  0  0  0  0  0  0  0  0  0
   -1.4259    0.6260    1.3238 H   0  0  0  0  0  0  0  0  0  0  0  0
   -3.4155   -0.0467   -0.7411 H   0  0  0  0  0  0  0  0  0  0  0  0
   -3.2234   -0.6876    0.9732 H   0  0  0  0  0  0  0  0  0  0  0  0
   -2.4307   -1.4782   -0.3990 H   0  0  0  0  0  0  0  0  0  0  0  0
   -2.6996    1.6537   -1.1767 H   0  0  0  0  0  0  0  0  0  0  0  0
   -0.9548    2.0598   -1.1370 H   0  0  0  0  0  0  0  0  0  0  0  0
   -2.0518    2.5037    0.2449 H   0  0  0  0  0  0  0  0  0  0  0  0
  1  2  1  0
  2  3  1  0
  3  4  1  0
  4  5  1  0
  4  6  1  0
  6  7  1  0
  6  8  1  0
  1  9  1  0
  1 10  1  0
  1 11  1  0
  2 12  1  0
  2 13  1  0
  3 14  1  0
  3 15  1  0
  4 16  1  0
  5 17  1  0
  5 18  1  0
  5 19  1  0
  6 20  1  0
  7 21  1  0
  7 22  1  0
  7 23  1  0
  8 24  1  0
  8 25  1  0
  8 26  1  0
M  END
