
     RDKit          3D

 23 22  0  0  0  0  0  0  0  0999 V2000
    2.6755    0.7326   -0.6556 C   0  0  0  0  0  0  0  0  0  0  0  0
    1.1339    0.7715   -0.6801 C   0  0  0  0  0  0  0  0  0  0  0  0
    0.6890   -0.4310    0.0594 C   0  0  0  0  0  0  0  0  0  0  0  0
   -0.7992   -0.6396    0.1803 C   0  0  0  0  0  0  0  0  0  0  0  0
   -1.4263   -0.7290   -1.2033 C   0  0  0  0  0  0  0  0  0  0  0  0
   -0.8974   -2.0798    0.6717 C   0  0  0  0  0  0  0  0  0  0  0  0
   -0.3828   -2.9772    0.0577 O   0  0  0  0  0  0  0  0  0  0  0  0
   -1.4643    0.0975    1.0724 O   0  0  0  0  0  0  0  0  0  0  0  0
   -1.5136    1.4317    1.0690 C   0  0  0  0  0  0  0  0  0  0  0  0
    3.0815    1.7435   -0.8760 H   0  0  0  0  0  0  0  0  0  0  0  0
    2.9367    0.4228    0.3765 H   0  0  0  0  0  0  0  0  0  0  0  0
    2.9864   -0.0436   -1.3525 H   0  0  0  0  0  0  0  0  0  0  0  0
    0.8731    1.7448   -0.2940 H   0  0  0  0  0  0  0  0  0  0  0  0
    0.9004    0.6972   -1.7805 H   0  0  0  0  0  0  0  0  0  0  0  0
    1.1234   -0.3576    1.0982 H   0  0  0  0  0  0  0  0  0  0  0  0
    1.1352   -1.3292   -0.4517 H   0  0  0  0  0  0  0  0  0  0  0  0
   -0.9967   -1.6314   -1.6922 H   0  0  0  0  0  0  0  0  0  0  0  0
   -2.4974   -0.9230   -1.0635 H   0  0  0  0  0  0  0  0  0  0  0  0
   -1.1802    0.1252   -1.8350 H   0  0  0  0  0  0  0  0  0  0  0  0
   -1.4338   -2.2519    1.5691 H   0  0  0  0  0  0  0  0  0  0  0  0
   -1.9216    1.8851    0.1193 H   0  0  0  0  0  0  0  0  0  0  0  0
   -2.3547    1.7201    1.8063 H   0  0  0  0  0  0  0  0  0  0  0  0
   -0.6671    2.0213    1.3987 H   0  0  0  0  0  0  0  0  0  0  0  0
  1  2  1  0
  2  3  1  0
  3  4  1  0
  4  5  1  0
  4  6  1  0
  6  7  2  0
  4  8  1  0
  8  9  1  0
  1 10  1  0
  1 11  1  0
  1 12  1  0
  2 13  1  0
  2 14  1  0
  3 15  1  0
  3 16  1  0
  5 17  1  0
  5 18  1  0
  5 19  1  0
  6 20  1  0
  9 21  1  0
  9 22  1  0
  9 23  1  0
M  END
