
     RDKit          3D

 25 26  0  0  0  0  0  0  0  0999 V2000
    2.9812   -0.1159    0.1131 C   0  0  0  0  0  0  0  0  0  0  0  0
    2.1998    0.8338   -0.7294 C   0  0  0  0  0  0  0  0  0  0  0  0
    0.9614    0.1015   -1.2525 C   0  0  0  0  0  0  0  0  0  0  0  0
    0.1643   -0.3441   -0.0737 C   0  0  0  0  0  0  0  0  0  0  0  0
   -1.1212   -1.0981   -0.2607 C   0  0  0  0  0  0  0  0  0  0  0  0
   -1.8328   -1.5532    0.9664 C   0  0  0  0  0  0  0  0  0  0  0  0
   -1.6934   -0.1979    1.6348 C   0  0  0  0  0  0  0  0  0  0  0  0
   -1.0786    0.3066    0.3485 C   0  0  0  0  0  0  0  0  0  0  0  0
   -1.7894    1.3343   -0.4661 C   0  0  0  0  0  0  0  0  0  0  0  0
    2.6421   -0.0210    1.1677 H   0  0  0  0  0  0  0  0  0  0  0  0
    4.0595    0.1505    0.0093 H   0  0  0  0  0  0  0  0  0  0  0  0
    2.7853   -1.1481   -0.2697 H   0  0  0  0  0  0  0  0  0  0  0  0
    2.7747    1.2834   -1.5572 H   0  0  0  0  0  0  0  0  0  0  0  0
    1.8528    1.6724   -0.0920 H   0  0  0  0  0  0  0  0  0  0  0  0
    1.2450   -0.7217   -1.9327 H   0  0  0  0  0  0  0  0  0  0  0  0
    0.4311    0.8535   -1.8837 H   0  0  0  0  0  0  0  0  0  0  0  0
    0.7907   -0.7744    0.7622 H   0  0  0  0  0  0  0  0  0  0  0  0
   -1.5580   -1.2223   -1.2657 H   0  0  0  0  0  0  0  0  0  0  0  0
   -1.3405   -2.3692    1.5529 H   0  0  0  0  0  0  0  0  0  0  0  0
   -2.9012   -1.8270    0.8388 H   0  0  0  0  0  0  0  0  0  0  0  0
   -0.9235   -0.2200    2.4449 H   0  0  0  0  0  0  0  0  0  0  0  0
   -2.6264    0.3103    1.8801 H   0  0  0  0  0  0  0  0  0  0  0  0
   -1.8392    1.0840   -1.5323 H   0  0  0  0  0  0  0  0  0  0  0  0
   -1.3258    2.3301   -0.3028 H   0  0  0  0  0  0  0  0  0  0  0  0
   -2.8580    1.3525   -0.1004 H   0  0  0  0  0  0  0  0  0  0  0  0
  1  2  1  0
  2  3  1  0
  3  4  1  0
  4  5  1  0
  5  6  1  0
  6  7  1  0
  7  8  1  0
  8  9  1  0
  8  4  1  0
  8  5  1  0
  1 10  1  0
  1 11  1  0
  1 12  1  0
  2 13  1  0
  2 14  1  0
  3 15  1  0
  3 16  1  0
  4 17  1  0
  5 18  1  0
  6 19  1  0
  6 20  1  0
  7 21  1  0
  7 22  1  0
  9 23  1  0
  9 24  1  0
  9 25  1  0
M  END
