
     RDKit          3D

 27 27  0  0  0  0  0  0  0  0999 V2000
    3.5226   -0.0272    0.0878 C   0  0  0  0  0  0  0  0  0  0  0  0
    2.6922   -1.1261   -0.5352 C   0  0  0  0  0  0  0  0  0  0  0  0
    1.3392   -0.5389   -0.8711 C   0  0  0  0  0  0  0  0  0  0  0  0
    0.6451   -0.0168    0.3770 C   0  0  0  0  0  0  0  0  0  0  0  0
   -0.6815    0.5371   -0.0927 C   0  0  0  0  0  0  0  0  0  0  0  0
   -1.5040    1.1030    1.0449 C   0  0  0  0  0  0  0  0  0  0  0  0
   -2.8929    1.0722    0.3898 C   0  0  0  0  0  0  0  0  0  0  0  0
   -2.9316   -0.3612   -0.0982 C   0  0  0  0  0  0  0  0  0  0  0  0
   -1.5503   -0.5368   -0.6930 C   0  0  0  0  0  0  0  0  0  0  0  0
    3.5387   -0.0932    1.1973 H   0  0  0  0  0  0  0  0  0  0  0  0
    4.5569   -0.0030   -0.3411 H   0  0  0  0  0  0  0  0  0  0  0  0
    3.0947    0.9886   -0.1598 H   0  0  0  0  0  0  0  0  0  0  0  0
    2.6202   -2.0301    0.0687 H   0  0  0  0  0  0  0  0  0  0  0  0
    3.1763   -1.3632   -1.5205 H   0  0  0  0  0  0  0  0  0  0  0  0
    0.6751   -1.2791   -1.3609 H   0  0  0  0  0  0  0  0  0  0  0  0
    1.4233    0.3220   -1.5646 H   0  0  0  0  0  0  0  0  0  0  0  0
    0.4940   -0.8288    1.1159 H   0  0  0  0  0  0  0  0  0  0  0  0
    1.2691    0.7443    0.8705 H   0  0  0  0  0  0  0  0  0  0  0  0
   -0.5485    1.3502   -0.8339 H   0  0  0  0  0  0  0  0  0  0  0  0
   -1.2720    2.1426    1.2820 H   0  0  0  0  0  0  0  0  0  0  0  0
   -1.5285    0.4307    1.9276 H   0  0  0  0  0  0  0  0  0  0  0  0
   -2.8425    1.7172   -0.5093 H   0  0  0  0  0  0  0  0  0  0  0  0
   -3.6878    1.3207    1.0886 H   0  0  0  0  0  0  0  0  0  0  0  0
   -3.7253   -0.5204   -0.8521 H   0  0  0  0  0  0  0  0  0  0  0  0
   -3.0870   -1.0188    0.7850 H   0  0  0  0  0  0  0  0  0  0  0  0
   -1.1346   -1.5490   -0.4595 H   0  0  0  0  0  0  0  0  0  0  0  0
   -1.6610   -0.4358   -1.7950 H   0  0  0  0  0  0  0  0  0  0  0  0
  1  2  1  0
  2  3  1  0
  3  4  1  0
  4  5  1  0
  5  6  1  0
  6  7  1  0
  7  8  1  0
  8  9  1  0
  9  5  1  0
  1 10  1  0
  1 11  1  0
  1 12  1  0
  2 13  1  0
  2 14  1  0
  3 15  1  0
  3 16  1  0
  4 17  1  0
  4 18  1  0
  5 19  1  0
  6 20  1  0
  6 21  1  0
  7 22  1  0
  7 23  1  0
  8 24  1  0
  8 25  1  0
  9 26  1  0
  9 27  1  0
M  END
