
     RDKit          3D

 19 18  0  0  0  0  0  0  0  0999 V2000
   -2.4199    0.5004   -0.7287 C   0  0  0  0  0  0  0  0  0  0  0  0
   -0.9390    0.6700   -0.3102 C   0  0  0  0  0  0  0  0  0  0  0  0
   -0.6091   -0.5501    0.4813 C   0  0  0  0  0  0  0  0  0  0  0  0
    0.7449   -0.6449    1.0592 C   0  0  0  0  0  0  0  0  0  0  0  0
    1.9146   -0.6065    0.1530 C   0  0  0  0  0  0  0  0  0  0  0  0
    2.1238    0.6399   -0.5950 C   0  0  0  0  0  0  0  0  0  0  0  0
    2.9581    0.6303   -1.4994 O   0  0  0  0  0  0  0  0  0  0  0  0
   -2.9216    0.1746    0.2321 H   0  0  0  0  0  0  0  0  0  0  0  0
   -2.8680    1.4452   -1.0499 H   0  0  0  0  0  0  0  0  0  0  0  0
   -2.4960   -0.3234   -1.4320 H   0  0  0  0  0  0  0  0  0  0  0  0
   -0.3568    0.7747   -1.2592 H   0  0  0  0  0  0  0  0  0  0  0  0
   -0.8417    1.5692    0.3121 H   0  0  0  0  0  0  0  0  0  0  0  0
   -0.8902   -1.4948   -0.0676 H   0  0  0  0  0  0  0  0  0  0  0  0
   -1.3442   -0.5599    1.3523 H   0  0  0  0  0  0  0  0  0  0  0  0
    0.8399    0.1462    1.8762 H   0  0  0  0  0  0  0  0  0  0  0  0
    0.7615   -1.6316    1.6341 H   0  0  0  0  0  0  0  0  0  0  0  0
    1.9079   -1.4876   -0.5415 H   0  0  0  0  0  0  0  0  0  0  0  0
    2.8342   -0.7976    0.7861 H   0  0  0  0  0  0  0  0  0  0  0  0
    1.6014    1.5459   -0.4028 H   0  0  0  0  0  0  0  0  0  0  0  0
  1  2  1  0
  2  3  1  0
  3  4  1  0
  4  5  1  0
  5  6  1  0
  6  7  2  0
  1  8  1  0
  1  9  1  0
  1 10  1  0
  2 11  1  0
  2 12  1  0
  3 13  1  0
  3 14  1  0
  4 15  1  0
  4 16  1  0
  5 17  1  0
  5 18  1  0
  6 19  1  0
M  END
