
     RDKit          3D

 21 21  0  0  0  0  0  0  0  0999 V2000
   -2.6912    0.5493   -1.0714 C   0  0  0  0  0  0  0  0  0  0  0  0
   -2.6198    0.9503    0.3926 C   0  0  0  0  0  0  0  0  0  0  0  0
   -1.8386   -0.1075    1.1412 C   0  0  0  0  0  0  0  0  0  0  0  0
   -0.4820   -0.2427    0.6200 C   0  0  0  0  0  0  0  0  0  0  0  0
    0.6391   -0.3732    0.1784 C   0  0  0  0  0  0  0  0  0  0  0  0
    2.0031   -0.5571   -0.3539 C   0  0  0  0  0  0  0  0  0  0  0  0
    2.7353    0.6677   -0.7813 C   0  0  0  0  0  0  0  0  0  0  0  0
    2.8439   -1.6689    0.2479 C   0  0  0  0  0  0  0  0  0  0  0  0
    2.2928   -1.7377   -1.0201 O   0  0  0  0  0  0  0  0  0  0  0  0
   -2.6192    1.4707   -1.6833 H   0  0  0  0  0  0  0  0  0  0  0  0
   -3.5860   -0.0488   -1.2989 H   0  0  0  0  0  0  0  0  0  0  0  0
   -1.8152   -0.0844   -1.3606 H   0  0  0  0  0  0  0  0  0  0  0  0
   -2.1089    1.9118    0.4678 H   0  0  0  0  0  0  0  0  0  0  0  0
   -3.6676    0.9785    0.7542 H   0  0  0  0  0  0  0  0  0  0  0  0
   -2.3441   -1.0797    0.9729 H   0  0  0  0  0  0  0  0  0  0  0  0
   -1.8530    0.1761    2.2184 H   0  0  0  0  0  0  0  0  0  0  0  0
    2.8899    1.3287    0.0996 H   0  0  0  0  0  0  0  0  0  0  0  0
    3.7304    0.3448   -1.1895 H   0  0  0  0  0  0  0  0  0  0  0  0
    2.1995    1.2374   -1.5585 H   0  0  0  0  0  0  0  0  0  0  0  0
    2.3493   -2.2127    1.0837 H   0  0  0  0  0  0  0  0  0  0  0  0
    3.9425   -1.5028    0.3506 H   0  0  0  0  0  0  0  0  0  0  0  0
  1  2  1  0
  2  3  1  0
  3  4  1  0
  4  5  3  0
  5  6  1  0
  6  7  1  0
  6  8  1  0
  8  9  1  0
  9  6  1  0
  1 10  1  0
  1 11  1  0
  1 12  1  0
  2 13  1  0
  2 14  1  0
  3 15  1  0
  3 16  1  0
  7 17  1  0
  7 18  1  0
  7 19  1  0
  8 20  1  0
  8 21  1  0
M  END
