
     RDKit          3D

 22 21  0  0  0  0  0  0  0  0999 V2000
   -2.9646    0.2045   -0.2134 C   0  0  0  0  0  0  0  0  0  0  0  0
   -2.1215   -1.0491   -0.0871 C   0  0  0  0  0  0  0  0  0  0  0  0
   -0.7324   -0.8443   -0.6195 C   0  0  0  0  0  0  0  0  0  0  0  0
    0.0130    0.2216    0.0762 C   0  0  0  0  0  0  0  0  0  0  0  0
   -0.4291    0.8883    0.9969 O   0  0  0  0  0  0  0  0  0  0  0  0
    1.4035    0.4932   -0.3883 C   0  0  0  0  0  0  0  0  0  0  0  0
    2.2929   -0.7297   -0.2519 C   0  0  0  0  0  0  0  0  0  0  0  0
    2.0405    1.6199    0.4251 C   0  0  0  0  0  0  0  0  0  0  0  0
   -4.0377   -0.0929   -0.1752 H   0  0  0  0  0  0  0  0  0  0  0  0
   -2.7230    0.9567    0.5512 H   0  0  0  0  0  0  0  0  0  0  0  0
   -2.7159    0.6591   -1.1977 H   0  0  0  0  0  0  0  0  0  0  0  0
   -2.6063   -1.8067   -0.7612 H   0  0  0  0  0  0  0  0  0  0  0  0
   -2.1507   -1.4783    0.9214 H   0  0  0  0  0  0  0  0  0  0  0  0
   -0.8224   -0.6484   -1.7109 H   0  0  0  0  0  0  0  0  0  0  0  0
   -0.1906   -1.8067   -0.5020 H   0  0  0  0  0  0  0  0  0  0  0  0
    1.4046    0.7658   -1.4793 H   0  0  0  0  0  0  0  0  0  0  0  0
    1.9036   -1.3674    0.5629 H   0  0  0  0  0  0  0  0  0  0  0  0
    3.3235   -0.4133    0.0651 H   0  0  0  0  0  0  0  0  0  0  0  0
    2.4191   -1.2548   -1.2089 H   0  0  0  0  0  0  0  0  0  0  0  0
    1.4414    1.8473    1.3264 H   0  0  0  0  0  0  0  0  0  0  0  0
    2.2014    2.5049   -0.2294 H   0  0  0  0  0  0  0  0  0  0  0  0
    3.0506    1.3303    0.7949 H   0  0  0  0  0  0  0  0  0  0  0  0
  1  2  1  0
  2  3  1  0
  3  4  1  0
  4  5  2  0
  4  6  1  0
  6  7  1  0
  6  8  1  0
  1  9  1  0
  1 10  1  0
  1 11  1  0
  2 12  1  0
  2 13  1  0
  3 14  1  0
  3 15  1  0
  6 16  1  0
  7 17  1  0
  7 18  1  0
  7 19  1  0
  8 20  1  0
  8 21  1  0
  8 22  1  0
M  END
