
     RDKit          3D

 25 24  0  0  0  0  0  0  0  0999 V2000
    2.3604   -0.9761   -0.6855 C   0  0  0  0  0  0  0  0  0  0  0  0
    2.0920    0.4428   -0.2917 C   0  0  0  0  0  0  0  0  0  0  0  0
    0.7673    1.0140   -0.4730 C   0  0  0  0  0  0  0  0  0  0  0  0
   -0.4269    0.4674    0.1748 C   0  0  0  0  0  0  0  0  0  0  0  0
   -1.6443    1.4057   -0.1919 C   0  0  0  0  0  0  0  0  0  0  0  0
   -0.4532    0.3387    1.6408 C   0  0  0  0  0  0  0  0  0  0  0  0
   -0.8603   -0.8081   -0.4635 C   0  0  0  0  0  0  0  0  0  0  0  0
   -1.9245   -1.6769    0.0914 C   0  0  0  0  0  0  0  0  0  0  0  0
   -0.3259   -1.1504   -1.4829 O   0  0  0  0  0  0  0  0  0  0  0  0
    2.2922   -1.1800   -1.7704 H   0  0  0  0  0  0  0  0  0  0  0  0
    1.8154   -1.6885   -0.0451 H   0  0  0  0  0  0  0  0  0  0  0  0
    3.4574   -1.2169   -0.4099 H   0  0  0  0  0  0  0  0  0  0  0  0
    2.5422    0.6157    0.7269 H   0  0  0  0  0  0  0  0  0  0  0  0
    2.8152    1.0475   -0.9440 H   0  0  0  0  0  0  0  0  0  0  0  0
    0.6103    1.1212   -1.5989 H   0  0  0  0  0  0  0  0  0  0  0  0
    0.8253    2.1124   -0.1672 H   0  0  0  0  0  0  0  0  0  0  0  0
   -1.2253    2.4293   -0.1685 H   0  0  0  0  0  0  0  0  0  0  0  0
   -1.9753    1.1905   -1.2111 H   0  0  0  0  0  0  0  0  0  0  0  0
   -2.4162    1.3200    0.5698 H   0  0  0  0  0  0  0  0  0  0  0  0
   -1.5391    0.2932    1.9564 H   0  0  0  0  0  0  0  0  0  0  0  0
   -0.0519    1.2265    2.1774 H   0  0  0  0  0  0  0  0  0  0  0  0
   -0.0171   -0.6071    2.0202 H   0  0  0  0  0  0  0  0  0  0  0  0
   -2.1560   -1.4894    1.1405 H   0  0  0  0  0  0  0  0  0  0  0  0
   -2.8766   -1.4873   -0.4838 H   0  0  0  0  0  0  0  0  0  0  0  0
   -1.6850   -2.7442   -0.1106 H   0  0  0  0  0  0  0  0  0  0  0  0
  1  2  1  0
  2  3  1  0
  3  4  1  0
  4  5  1  0
  4  6  1  0
  4  7  1  0
  7  8  1  0
  7  9  2  0
  1 10  1  0
  1 11  1  0
  1 12  1  0
  2 13  1  0
  2 14  1  0
  3 15  1  0
  3 16  1  0
  5 17  1  0
  5 18  1  0
  5 19  1  0
  6 20  1  0
  6 21  1  0
  6 22  1  0
  8 23  1  0
  8 24  1  0
  8 25  1  0
M  END
