
     RDKit          3D

 21 21  0  0  0  0  0  0  0  0999 V2000
    2.8160    1.1008    0.2007 C   0  0  0  0  0  0  0  0  0  0  0  0
    2.1245   -0.2347    0.0984 C   0  0  0  0  0  0  0  0  0  0  0  0
    0.6291   -0.0282    0.1593 C   0  0  0  0  0  0  0  0  0  0  0  0
   -0.0915   -1.3224    0.0615 C   0  0  0  0  0  0  0  0  0  0  0  0
    0.6102   -2.3391   -0.0514 O   0  0  0  0  0  0  0  0  0  0  0  0
   -1.5410   -1.4775    0.0887 C   0  0  0  0  0  0  0  0  0  0  0  0
   -2.0536   -0.8936    1.3781 O   0  0  0  0  0  0  0  0  0  0  0  0
   -2.5339   -0.4491    0.0935 C   0  0  0  0  0  0  0  0  0  0  0  0
   -2.2893    0.9918   -0.2056 C   0  0  0  0  0  0  0  0  0  0  0  0
    3.9127    0.9762    0.0605 H   0  0  0  0  0  0  0  0  0  0  0  0
    2.6797    1.4875    1.2320 H   0  0  0  0  0  0  0  0  0  0  0  0
    2.3747    1.8010   -0.5164 H   0  0  0  0  0  0  0  0  0  0  0  0
    2.3932   -0.8206    1.0209 H   0  0  0  0  0  0  0  0  0  0  0  0
    2.4484   -0.8346   -0.7619 H   0  0  0  0  0  0  0  0  0  0  0  0
    0.3565    0.6928   -0.6236 H   0  0  0  0  0  0  0  0  0  0  0  0
    0.4447    0.4572    1.1630 H   0  0  0  0  0  0  0  0  0  0  0  0
   -1.9083   -2.5381    0.0070 H   0  0  0  0  0  0  0  0  0  0  0  0
   -3.6004   -0.7504   -0.0115 H   0  0  0  0  0  0  0  0  0  0  0  0
   -1.6018    1.5013    0.4949 H   0  0  0  0  0  0  0  0  0  0  0  0
   -3.2520    1.5730   -0.1604 H   0  0  0  0  0  0  0  0  0  0  0  0
   -1.9179    1.1066   -1.2449 H   0  0  0  0  0  0  0  0  0  0  0  0
  1  2  1  0
  2  3  1  0
  3  4  1  0
  4  5  2  0
  4  6  1  0
  6  7  1  0
  7  8  1  0
  8  9  1  0
  8  6  1  0
  1 10  1  0
  1 11  1  0
  1 12  1  0
  2 13  1  0
  2 14  1  0
  3 15  1  0
  3 16  1  0
  6 17  1  0
  8 18  1  0
  9 19  1  0
  9 20  1  0
  9 21  1  0
M  END
