
     RDKit          3D

 29 28  0  0  0  0  0  0  0  0999 V2000
    2.4770   -1.4942    0.3811 C   0  0  0  0  0  0  0  0  0  0  0  0
    2.1287   -0.1203    0.8878 C   0  0  0  0  0  0  0  0  0  0  0  0
    1.1507    0.6314    0.0823 C   0  0  0  0  0  0  0  0  0  0  0  0
   -0.1991    0.1004   -0.1213 C   0  0  0  0  0  0  0  0  0  0  0  0
   -0.9107   -0.0822    1.2259 C   0  0  0  0  0  0  0  0  0  0  0  0
   -0.3934   -1.1017   -0.9505 C   0  0  0  0  0  0  0  0  0  0  0  0
   -1.8638   -1.4724   -1.0297 C   0  0  0  0  0  0  0  0  0  0  0  0
   -1.0168    1.2148   -0.8084 C   0  0  0  0  0  0  0  0  0  0  0  0
   -1.0618    2.4467    0.0623 C   0  0  0  0  0  0  0  0  0  0  0  0
    2.4755   -1.5722   -0.7056 H   0  0  0  0  0  0  0  0  0  0  0  0
    1.8798   -2.2813    0.8996 H   0  0  0  0  0  0  0  0  0  0  0  0
    3.5366   -1.7149    0.6926 H   0  0  0  0  0  0  0  0  0  0  0  0
    1.8977   -0.1716    1.9730 H   0  0  0  0  0  0  0  0  0  0  0  0
    3.0940    0.4727    0.8556 H   0  0  0  0  0  0  0  0  0  0  0  0
    1.6516    0.8718   -0.9038 H   0  0  0  0  0  0  0  0  0  0  0  0
    1.0482    1.6554    0.5516 H   0  0  0  0  0  0  0  0  0  0  0  0
   -1.9524    0.2275    1.1828 H   0  0  0  0  0  0  0  0  0  0  0  0
   -0.3929    0.5267    2.0009 H   0  0  0  0  0  0  0  0  0  0  0  0
   -0.7842   -1.1464    1.5615 H   0  0  0  0  0  0  0  0  0  0  0  0
    0.1348   -2.0094   -0.6925 H   0  0  0  0  0  0  0  0  0  0  0  0
   -0.0887   -0.8468   -2.0067 H   0  0  0  0  0  0  0  0  0  0  0  0
   -2.3365   -0.9206   -1.8723 H   0  0  0  0  0  0  0  0  0  0  0  0
   -2.4200   -1.2706   -0.1166 H   0  0  0  0  0  0  0  0  0  0  0  0
   -1.9732   -2.5742   -1.2292 H   0  0  0  0  0  0  0  0  0  0  0  0
   -0.6207    1.4547   -1.7976 H   0  0  0  0  0  0  0  0  0  0  0  0
   -2.0483    0.8487   -0.9045 H   0  0  0  0  0  0  0  0  0  0  0  0
   -1.9881    3.0101   -0.2549 H   0  0  0  0  0  0  0  0  0  0  0  0
   -0.2130    3.1261   -0.0872 H   0  0  0  0  0  0  0  0  0  0  0  0
   -1.2110    2.1916    1.1237 H   0  0  0  0  0  0  0  0  0  0  0  0
  1  2  1  0
  2  3  1  0
  3  4  1  0
  4  5  1  0
  4  6  1  0
  6  7  1  0
  4  8  1  0
  8  9  1  0
  1 10  1  0
  1 11  1  0
  1 12  1  0
  2 13  1  0
  2 14  1  0
  3 15  1  0
  3 16  1  0
  5 17  1  0
  5 18  1  0
  5 19  1  0
  6 20  1  0
  6 21  1  0
  7 22  1  0
  7 23  1  0
  7 24  1  0
  8 25  1  0
  8 26  1  0
  9 27  1  0
  9 28  1  0
  9 29  1  0
M  END
