
     RDKit          3D

 25 24  0  0  0  0  0  0  0  0999 V2000
    3.1081    0.5235    0.4637 C   0  0  0  0  0  0  0  0  0  0  0  0
    1.6723    0.7296   -0.0025 C   0  0  0  0  0  0  0  0  0  0  0  0
    0.9439   -0.5588    0.2846 C   0  0  0  0  0  0  0  0  0  0  0  0
   -0.5058   -0.5055   -0.1332 C   0  0  0  0  0  0  0  0  0  0  0  0
   -0.5412   -0.2393   -1.6182 C   0  0  0  0  0  0  0  0  0  0  0  0
   -1.0880   -1.8460    0.1253 C   0  0  0  0  0  0  0  0  0  0  0  0
   -0.9755   -2.7623   -0.6634 O   0  0  0  0  0  0  0  0  0  0  0  0
   -1.1938    0.5724    0.6570 C   0  0  0  0  0  0  0  0  0  0  0  0
   -2.6601    0.6943    0.3015 C   0  0  0  0  0  0  0  0  0  0  0  0
    3.0297   -0.0261    1.4356 H   0  0  0  0  0  0  0  0  0  0  0  0
    3.5627    1.5059    0.5972 H   0  0  0  0  0  0  0  0  0  0  0  0
    3.6820   -0.1247   -0.2157 H   0  0  0  0  0  0  0  0  0  0  0  0
    1.6099    1.0453   -1.0554 H   0  0  0  0  0  0  0  0  0  0  0  0
    1.2930    1.5731    0.6091 H   0  0  0  0  0  0  0  0  0  0  0  0
    0.9273   -0.6508    1.4111 H   0  0  0  0  0  0  0  0  0  0  0  0
    1.4244   -1.4366   -0.1444 H   0  0  0  0  0  0  0  0  0  0  0  0
    0.0642   -1.0326   -2.1075 H   0  0  0  0  0  0  0  0  0  0  0  0
   -1.5902   -0.3852   -1.9822 H   0  0  0  0  0  0  0  0  0  0  0  0
   -0.2276    0.7671   -1.8966 H   0  0  0  0  0  0  0  0  0  0  0  0
   -1.6319   -2.0317    1.0373 H   0  0  0  0  0  0  0  0  0  0  0  0
   -1.0920    0.3823    1.7407 H   0  0  0  0  0  0  0  0  0  0  0  0
   -0.7262    1.5450    0.4406 H   0  0  0  0  0  0  0  0  0  0  0  0
   -2.7819    1.0311   -0.7415 H   0  0  0  0  0  0  0  0  0  0  0  0
   -3.0956    1.4763    0.9572 H   0  0  0  0  0  0  0  0  0  0  0  0
   -3.2078   -0.2464    0.4999 H   0  0  0  0  0  0  0  0  0  0  0  0
  1  2  1  0
  2  3  1  0
  3  4  1  0
  4  5  1  0
  4  6  1  0
  6  7  2  0
  4  8  1  0
  8  9  1  0
  1 10  1  0
  1 11  1  0
  1 12  1  0
  2 13  1  0
  2 14  1  0
  3 15  1  0
  3 16  1  0
  5 17  1  0
  5 18  1  0
  5 19  1  0
  6 20  1  0
  8 21  1  0
  8 22  1  0
  9 23  1  0
  9 24  1  0
  9 25  1  0
M  END
