
     RDKit          3D

 21 20  0  0  0  0  0  0  0  0999 V2000
    2.4356    0.3057    0.9759 C   0  0  0  0  0  0  0  0  0  0  0  0
    2.0704   -0.0143   -0.4283 C   0  0  0  0  0  0  0  0  0  0  0  0
    0.6110    0.1386   -0.7417 C   0  0  0  0  0  0  0  0  0  0  0  0
   -0.2458   -0.7669    0.1185 C   0  0  0  0  0  0  0  0  0  0  0  0
   -1.6922   -0.5419   -0.2693 C   0  0  0  0  0  0  0  0  0  0  0  0
   -2.0960    0.9018   -0.0453 C   0  0  0  0  0  0  0  0  0  0  0  0
   -2.5652   -1.3350    0.4508 O   0  0  0  0  0  0  0  0  0  0  0  0
    2.3267   -0.5948    1.6234 H   0  0  0  0  0  0  0  0  0  0  0  0
    1.9358    1.1781    1.4028 H   0  0  0  0  0  0  0  0  0  0  0  0
    3.5383    0.5462    0.9885 H   0  0  0  0  0  0  0  0  0  0  0  0
    2.3806   -1.0510   -0.6454 H   0  0  0  0  0  0  0  0  0  0  0  0
    2.6265    0.6375   -1.1467 H   0  0  0  0  0  0  0  0  0  0  0  0
    0.2776    1.1849   -0.7371 H   0  0  0  0  0  0  0  0  0  0  0  0
    0.4711   -0.2233   -1.7965 H   0  0  0  0  0  0  0  0  0  0  0  0
   -0.0687   -0.6604    1.1868 H   0  0  0  0  0  0  0  0  0  0  0  0
   -0.0060   -1.8165   -0.1916 H   0  0  0  0  0  0  0  0  0  0  0  0
   -1.8216   -0.7531   -1.3465 H   0  0  0  0  0  0  0  0  0  0  0  0
   -3.2075    0.9684   -0.0901 H   0  0  0  0  0  0  0  0  0  0  0  0
   -1.7772    1.2530    0.9633 H   0  0  0  0  0  0  0  0  0  0  0  0
   -1.7226    1.5747   -0.8459 H   0  0  0  0  0  0  0  0  0  0  0  0
   -3.4708   -0.9318    0.4064 H   0  0  0  0  0  0  0  0  0  0  0  0
  1  2  1  0
  2  3  1  0
  3  4  1  0
  4  5  1  0
  5  6  1  0
  5  7  1  0
  1  8  1  0
  1  9  1  0
  1 10  1  0
  2 11  1  0
  2 12  1  0
  3 13  1  0
  3 14  1  0
  4 15  1  0
  4 16  1  0
  5 17  1  0
  6 18  1  0
  6 19  1  0
  6 20  1  0
  7 21  1  0
M  END
