
     RDKit          3D

 23 23  0  0  0  0  0  0  0  0999 V2000
   -3.5322    0.1010    0.0168 C   0  0  0  0  0  0  0  0  0  0  0  0
   -2.1035    0.5607    0.2173 C   0  0  0  0  0  0  0  0  0  0  0  0
   -1.1297   -0.4717   -0.3105 C   0  0  0  0  0  0  0  0  0  0  0  0
    0.2817   -0.0468   -0.1270 C   0  0  0  0  0  0  0  0  0  0  0  0
    1.1684   -0.7324    0.5886 C   0  0  0  0  0  0  0  0  0  0  0  0
    2.4609   -0.0188    0.5524 C   0  0  0  0  0  0  0  0  0  0  0  0
    3.5581   -0.8414    0.6542 O   0  0  0  0  0  0  0  0  0  0  0  0
    2.3759    0.6923   -0.7822 C   0  0  0  0  0  0  0  0  0  0  0  0
    0.9196    1.1739   -0.6948 C   0  0  0  0  0  0  0  0  0  0  0  0
   -3.7999    0.0767   -1.0661 H   0  0  0  0  0  0  0  0  0  0  0  0
   -3.7143   -0.8574    0.5119 H   0  0  0  0  0  0  0  0  0  0  0  0
   -4.1970    0.8779    0.4631 H   0  0  0  0  0  0  0  0  0  0  0  0
   -1.9424    1.5609   -0.1948 H   0  0  0  0  0  0  0  0  0  0  0  0
   -1.9467    0.6141    1.3232 H   0  0  0  0  0  0  0  0  0  0  0  0
   -1.3103   -0.6628   -1.3997 H   0  0  0  0  0  0  0  0  0  0  0  0
   -1.3477   -1.4143    0.2285 H   0  0  0  0  0  0  0  0  0  0  0  0
    1.0256   -1.6718    1.1348 H   0  0  0  0  0  0  0  0  0  0  0  0
    2.4405    0.7630    1.3328 H   0  0  0  0  0  0  0  0  0  0  0  0
    3.7887   -0.8879    1.6345 H   0  0  0  0  0  0  0  0  0  0  0  0
    2.5023   -0.0106   -1.6402 H   0  0  0  0  0  0  0  0  0  0  0  0
    3.0544    1.5622   -0.8476 H   0  0  0  0  0  0  0  0  0  0  0  0
    0.9198    1.9732    0.0670 H   0  0  0  0  0  0  0  0  0  0  0  0
    0.5280    1.4703   -1.6625 H   0  0  0  0  0  0  0  0  0  0  0  0
  1  2  1  0
  2  3  1  0
  3  4  1  0
  4  5  2  0
  5  6  1  0
  6  7  1  0
  6  8  1  0
  8  9  1  0
  9  4  1  0
  1 10  1  0
  1 11  1  0
  1 12  1  0
  2 13  1  0
  2 14  1  0
  3 15  1  0
  3 16  1  0
  5 17  1  0
  6 18  1  0
  7 19  1  0
  8 20  1  0
  8 21  1  0
  9 22  1  0
  9 23  1  0
M  END
