
     RDKit          3D

 23 24  0  0  0  0  0  0  0  0999 V2000
    3.1145   -0.5462   -0.1321 C   0  0  0  0  0  0  0  0  0  0  0  0
    1.7664   -0.1775   -0.7213 C   0  0  0  0  0  0  0  0  0  0  0  0
    0.8827    0.2494    0.4162 C   0  0  0  0  0  0  0  0  0  0  0  0
   -0.4993    0.6494   -0.0074 C   0  0  0  0  0  0  0  0  0  0  0  0
   -1.4063   -0.2946   -0.7026 C   0  0  0  0  0  0  0  0  0  0  0  0
   -1.8505   -1.5722   -0.1158 C   0  0  0  0  0  0  0  0  0  0  0  0
   -2.8179   -0.4040   -0.1005 C   0  0  0  0  0  0  0  0  0  0  0  0
   -0.7719    2.1131   -0.2842 C   0  0  0  0  0  0  0  0  0  0  0  0
   -1.0876    1.5679    0.9366 O   0  0  0  0  0  0  0  0  0  0  0  0
    3.2169   -0.1722    0.9088 H   0  0  0  0  0  0  0  0  0  0  0  0
    3.2825   -1.6297   -0.1211 H   0  0  0  0  0  0  0  0  0  0  0  0
    3.9020   -0.0383   -0.7331 H   0  0  0  0  0  0  0  0  0  0  0  0
    1.8805    0.6354   -1.4746 H   0  0  0  0  0  0  0  0  0  0  0  0
    1.3729   -1.1014   -1.1938 H   0  0  0  0  0  0  0  0  0  0  0  0
    1.3683    1.0878    0.9558 H   0  0  0  0  0  0  0  0  0  0  0  0
    0.7851   -0.5961    1.1227 H   0  0  0  0  0  0  0  0  0  0  0  0
   -1.4015   -0.2239   -1.8167 H   0  0  0  0  0  0  0  0  0  0  0  0
   -2.1577   -2.3772   -0.8154 H   0  0  0  0  0  0  0  0  0  0  0  0
   -1.4491   -1.9241    0.8548 H   0  0  0  0  0  0  0  0  0  0  0  0
   -2.9872    0.0407    0.8878 H   0  0  0  0  0  0  0  0  0  0  0  0
   -3.6709   -0.4038   -0.8069 H   0  0  0  0  0  0  0  0  0  0  0  0
   -1.6173    2.4068   -0.9010 H   0  0  0  0  0  0  0  0  0  0  0  0
    0.1454    2.7107   -0.4294 H   0  0  0  0  0  0  0  0  0  0  0  0
  1  2  1  0
  2  3  1  0
  3  4  1  0
  4  5  1  0
  5  6  1  0
  6  7  1  0
  4  8  1  0
  8  9  1  0
  9  4  1  0
  7  5  1  0
  1 10  1  0
  1 11  1  0
  1 12  1  0
  2 13  1  0
  2 14  1  0
  3 15  1  0
  3 16  1  0
  5 17  1  0
  6 18  1  0
  6 19  1  0
  7 20  1  0
  7 21  1  0
  8 22  1  0
  8 23  1  0
M  END
