
     RDKit          3D

 25 25  0  0  0  0  0  0  0  0999 V2000
    3.6947   -0.3015   -0.2051 C   0  0  0  0  0  0  0  0  0  0  0  0
    2.4151   -0.5115    0.5789 C   0  0  0  0  0  0  0  0  0  0  0  0
    1.2936    0.3119   -0.0591 C   0  0  0  0  0  0  0  0  0  0  0  0
    0.0382    0.0640    0.7651 C   0  0  0  0  0  0  0  0  0  0  0  0
   -1.0665    0.8608    0.1546 C   0  0  0  0  0  0  0  0  0  0  0  0
   -1.3804    0.5071   -1.2943 C   0  0  0  0  0  0  0  0  0  0  0  0
   -2.3839    0.3287   -0.1526 C   0  0  0  0  0  0  0  0  0  0  0  0
   -2.7932   -1.0932    0.0801 C   0  0  0  0  0  0  0  0  0  0  0  0
   -3.4598    1.2292   -0.2201 O   0  0  0  0  0  0  0  0  0  0  0  0
    4.5677   -0.3432    0.4690 H   0  0  0  0  0  0  0  0  0  0  0  0
    3.6754    0.7352   -0.6337 H   0  0  0  0  0  0  0  0  0  0  0  0
    3.7267   -1.0031   -1.0418 H   0  0  0  0  0  0  0  0  0  0  0  0
    2.1539   -1.5887    0.5923 H   0  0  0  0  0  0  0  0  0  0  0  0
    2.5708   -0.1988    1.6149 H   0  0  0  0  0  0  0  0  0  0  0  0
    1.1737    0.0446   -1.1144 H   0  0  0  0  0  0  0  0  0  0  0  0
    1.5963    1.3780   -0.0150 H   0  0  0  0  0  0  0  0  0  0  0  0
   -0.1679   -1.0021    0.8994 H   0  0  0  0  0  0  0  0  0  0  0  0
    0.2804    0.4647    1.7912 H   0  0  0  0  0  0  0  0  0  0  0  0
   -1.0068    1.9561    0.3701 H   0  0  0  0  0  0  0  0  0  0  0  0
   -1.5370    1.3478   -2.0020 H   0  0  0  0  0  0  0  0  0  0  0  0
   -0.9143   -0.4178   -1.7208 H   0  0  0  0  0  0  0  0  0  0  0  0
   -3.7671   -1.2478   -0.4474 H   0  0  0  0  0  0  0  0  0  0  0  0
   -2.0653   -1.8103   -0.2973 H   0  0  0  0  0  0  0  0  0  0  0  0
   -2.9846   -1.3236    1.1474 H   0  0  0  0  0  0  0  0  0  0  0  0
   -3.6596    1.6135    0.6558 H   0  0  0  0  0  0  0  0  0  0  0  0
  1  2  1  0
  2  3  1  0
  3  4  1  0
  4  5  1  0
  5  6  1  0
  6  7  1  0
  7  8  1  0
  7  9  1  0
  7  5  1  0
  1 10  1  0
  1 11  1  0
  1 12  1  0
  2 13  1  0
  2 14  1  0
  3 15  1  0
  3 16  1  0
  4 17  1  0
  4 18  1  0
  5 19  1  0
  6 20  1  0
  6 21  1  0
  8 22  1  0
  8 23  1  0
  8 24  1  0
  9 25  1  0
M  END
