
     RDKit          3D

 23 23  0  0  0  0  0  0  0  0999 V2000
    3.5495   -0.0492    0.5692 C   0  0  0  0  0  0  0  0  0  0  0  0
    2.2416    0.6322    0.2666 C   0  0  0  0  0  0  0  0  0  0  0  0
    1.1917   -0.3822   -0.1055 C   0  0  0  0  0  0  0  0  0  0  0  0
   -0.1116    0.2741   -0.4089 C   0  0  0  0  0  0  0  0  0  0  0  0
   -0.1374    1.4905   -0.3156 O   0  0  0  0  0  0  0  0  0  0  0  0
   -1.3178   -0.4986   -0.8037 C   0  0  0  0  0  0  0  0  0  0  0  0
   -2.4781    0.4473   -1.0443 C   0  0  0  0  0  0  0  0  0  0  0  0
   -2.6889    0.4117    0.4629 C   0  0  0  0  0  0  0  0  0  0  0  0
   -2.0854   -0.9796    0.4252 C   0  0  0  0  0  0  0  0  0  0  0  0
    4.2776    0.7425    0.8559 H   0  0  0  0  0  0  0  0  0  0  0  0
    3.9827   -0.5721   -0.2967 H   0  0  0  0  0  0  0  0  0  0  0  0
    3.4618   -0.7219    1.4584 H   0  0  0  0  0  0  0  0  0  0  0  0
    2.3934    1.4028   -0.4902 H   0  0  0  0  0  0  0  0  0  0  0  0
    1.9119    1.1136    1.2294 H   0  0  0  0  0  0  0  0  0  0  0  0
    1.4927   -0.8973   -1.0631 H   0  0  0  0  0  0  0  0  0  0  0  0
    1.0952   -1.1112    0.7258 H   0  0  0  0  0  0  0  0  0  0  0  0
   -1.1632   -1.2616   -1.5808 H   0  0  0  0  0  0  0  0  0  0  0  0
   -3.3193   -0.0565   -1.5628 H   0  0  0  0  0  0  0  0  0  0  0  0
   -2.1894    1.4199   -1.4496 H   0  0  0  0  0  0  0  0  0  0  0  0
   -2.0277    1.1047    1.0055 H   0  0  0  0  0  0  0  0  0  0  0  0
   -3.7603    0.4520    0.7259 H   0  0  0  0  0  0  0  0  0  0  0  0
   -2.8702   -1.7292    0.1953 H   0  0  0  0  0  0  0  0  0  0  0  0
   -1.4486   -1.2320    1.2881 H   0  0  0  0  0  0  0  0  0  0  0  0
  1  2  1  0
  2  3  1  0
  3  4  1  0
  4  5  2  0
  4  6  1  0
  6  7  1  0
  7  8  1  0
  8  9  1  0
  9  6  1  0
  1 10  1  0
  1 11  1  0
  1 12  1  0
  2 13  1  0
  2 14  1  0
  3 15  1  0
  3 16  1  0
  6 17  1  0
  7 18  1  0
  7 19  1  0
  8 20  1  0
  8 21  1  0
  9 22  1  0
  9 23  1  0
M  END
