
     RDKit          3D

 23 23  0  0  0  0  0  0  0  0999 V2000
    2.9313    0.6684    0.5379 C   0  0  0  0  0  0  0  0  0  0  0  0
    1.4119    0.8831    0.4594 C   0  0  0  0  0  0  0  0  0  0  0  0
    0.8541   -0.4173   -0.0229 C   0  0  0  0  0  0  0  0  0  0  0  0
   -0.6247   -0.4483   -0.1783 C   0  0  0  0  0  0  0  0  0  0  0  0
   -1.0188   -1.8272   -0.6703 C   0  0  0  0  0  0  0  0  0  0  0  0
   -1.1995    0.5901   -1.0659 C   0  0  0  0  0  0  0  0  0  0  0  0
   -2.4742    0.7775   -0.5295 O   0  0  0  0  0  0  0  0  0  0  0  0
   -2.3637    0.5283    0.8169 C   0  0  0  0  0  0  0  0  0  0  0  0
   -1.2456   -0.2422    1.0370 O   0  0  0  0  0  0  0  0  0  0  0  0
    3.4646    1.6219    0.6299 H   0  0  0  0  0  0  0  0  0  0  0  0
    3.0896   -0.0318    1.3748 H   0  0  0  0  0  0  0  0  0  0  0  0
    3.1920    0.1133   -0.3911 H   0  0  0  0  0  0  0  0  0  0  0  0
    1.2739    1.7177   -0.2529 H   0  0  0  0  0  0  0  0  0  0  0  0
    1.0551    1.1393    1.4921 H   0  0  0  0  0  0  0  0  0  0  0  0
    1.3730   -0.6754   -0.9704 H   0  0  0  0  0  0  0  0  0  0  0  0
    1.1409   -1.1991    0.7101 H   0  0  0  0  0  0  0  0  0  0  0  0
   -0.3551   -2.5694   -0.1508 H   0  0  0  0  0  0  0  0  0  0  0  0
   -2.0917   -2.0391   -0.4990 H   0  0  0  0  0  0  0  0  0  0  0  0
   -0.7290   -1.8873   -1.7434 H   0  0  0  0  0  0  0  0  0  0  0  0
   -1.3664    0.2440   -2.1208 H   0  0  0  0  0  0  0  0  0  0  0  0
   -0.6772    1.5616   -1.0244 H   0  0  0  0  0  0  0  0  0  0  0  0
   -2.3562    1.4934    1.3910 H   0  0  0  0  0  0  0  0  0  0  0  0
   -3.2843   -0.0015    1.1707 H   0  0  0  0  0  0  0  0  0  0  0  0
  1  2  1  0
  2  3  1  0
  3  4  1  0
  4  5  1  0
  4  6  1  0
  6  7  1  0
  7  8  1  0
  8  9  1  0
  9  4  1  0
  1 10  1  0
  1 11  1  0
  1 12  1  0
  2 13  1  0
  2 14  1  0
  3 15  1  0
  3 16  1  0
  5 17  1  0
  5 18  1  0
  5 19  1  0
  6 20  1  0
  6 21  1  0
  8 22  1  0
  8 23  1  0
M  END
