
     RDKit          3D

 23 23  0  0  0  0  0  0  0  0999 V2000
    3.5032    0.5630    0.2195 C   0  0  0  0  0  0  0  0  0  0  0  0
    2.0818    0.3070    0.6752 C   0  0  0  0  0  0  0  0  0  0  0  0
    1.2756   -0.1416   -0.5222 C   0  0  0  0  0  0  0  0  0  0  0  0
   -0.1421   -0.4082   -0.1229 C   0  0  0  0  0  0  0  0  0  0  0  0
   -1.1956    0.2181   -0.6217 C   0  0  0  0  0  0  0  0  0  0  0  0
   -2.3949   -0.3254    0.0237 C   0  0  0  0  0  0  0  0  0  0  0  0
   -3.3734    0.7315    0.4767 C   0  0  0  0  0  0  0  0  0  0  0  0
   -1.9055   -0.9688    1.1587 O   0  0  0  0  0  0  0  0  0  0  0  0
   -0.6389   -1.3916    0.8691 C   0  0  0  0  0  0  0  0  0  0  0  0
    3.4246    0.9575   -0.8321 H   0  0  0  0  0  0  0  0  0  0  0  0
    3.9716    1.2971    0.9023 H   0  0  0  0  0  0  0  0  0  0  0  0
    4.1239   -0.3623    0.2394 H   0  0  0  0  0  0  0  0  0  0  0  0
    1.7121    1.2468    1.1122 H   0  0  0  0  0  0  0  0  0  0  0  0
    2.1208   -0.4757    1.4518 H   0  0  0  0  0  0  0  0  0  0  0  0
    1.2751    0.6233   -1.3125 H   0  0  0  0  0  0  0  0  0  0  0  0
    1.7699   -1.0509   -0.9312 H   0  0  0  0  0  0  0  0  0  0  0  0
   -1.1866    1.0152   -1.3923 H   0  0  0  0  0  0  0  0  0  0  0  0
   -2.9032   -1.0250   -0.6671 H   0  0  0  0  0  0  0  0  0  0  0  0
   -4.3891    0.2858    0.4746 H   0  0  0  0  0  0  0  0  0  0  0  0
   -3.1624    1.0118    1.5413 H   0  0  0  0  0  0  0  0  0  0  0  0
   -3.3985    1.6149   -0.1930 H   0  0  0  0  0  0  0  0  0  0  0  0
    0.0337   -1.2880    1.7689 H   0  0  0  0  0  0  0  0  0  0  0  0
   -0.6021   -2.4344    0.4817 H   0  0  0  0  0  0  0  0  0  0  0  0
  1  2  1  0
  2  3  1  0
  3  4  1  0
  4  5  2  0
  5  6  1  0
  6  7  1  0
  6  8  1  0
  8  9  1  0
  9  4  1  0
  1 10  1  0
  1 11  1  0
  1 12  1  0
  2 13  1  0
  2 14  1  0
  3 15  1  0
  3 16  1  0
  5 17  1  0
  6 18  1  0
  7 19  1  0
  7 20  1  0
  7 21  1  0
  9 22  1  0
  9 23  1  0
M  END
