
     RDKit          3D

 23 23  0  0  0  0  0  0  0  0999 V2000
   -4.0256   -0.0790   -0.1172 C   0  0  0  0  0  0  0  0  0  0  0  0
   -2.6501    0.4859   -0.0461 C   0  0  0  0  0  0  0  0  0  0  0  0
   -1.5884   -0.4545   -0.6011 C   0  0  0  0  0  0  0  0  0  0  0  0
   -0.2587    0.2901   -0.4444 C   0  0  0  0  0  0  0  0  0  0  0  0
   -0.0372    0.5794    0.9992 O   0  0  0  0  0  0  0  0  0  0  0  0
    0.7875   -0.3935    0.2362 C   0  0  0  0  0  0  0  0  0  0  0  0
    2.2147    0.0558    0.3166 C   0  0  0  0  0  0  0  0  0  0  0  0
    3.0938   -0.7587   -0.3506 O   0  0  0  0  0  0  0  0  0  0  0  0
    4.3794   -0.2033   -0.1791 C   0  0  0  0  0  0  0  0  0  0  0  0
   -4.6241    0.5642   -0.8052 H   0  0  0  0  0  0  0  0  0  0  0  0
   -4.4774    0.0220    0.9125 H   0  0  0  0  0  0  0  0  0  0  0  0
   -4.0690   -1.1415   -0.3768 H   0  0  0  0  0  0  0  0  0  0  0  0
   -2.5408    1.4335   -0.6459 H   0  0  0  0  0  0  0  0  0  0  0  0
   -2.3219    0.7536    0.9819 H   0  0  0  0  0  0  0  0  0  0  0  0
   -1.7698   -0.5933   -1.6791 H   0  0  0  0  0  0  0  0  0  0  0  0
   -1.5702   -1.4208   -0.1027 H   0  0  0  0  0  0  0  0  0  0  0  0
   -0.1256    1.1823   -1.0539 H   0  0  0  0  0  0  0  0  0  0  0  0
    0.5969   -1.3930    0.6768 H   0  0  0  0  0  0  0  0  0  0  0  0
    2.4933    0.0820    1.4006 H   0  0  0  0  0  0  0  0  0  0  0  0
    2.3394    1.0963   -0.0462 H   0  0  0  0  0  0  0  0  0  0  0  0
    4.4426    0.8185   -0.5844 H   0  0  0  0  0  0  0  0  0  0  0  0
    5.1547   -0.8050   -0.6840 H   0  0  0  0  0  0  0  0  0  0  0  0
    4.5565   -0.1208    0.9273 H   0  0  0  0  0  0  0  0  0  0  0  0
  1  2  1  0
  2  3  1  0
  3  4  1  0
  4  5  1  0
  5  6  1  0
  6  7  1  0
  7  8  1  0
  8  9  1  0
  6  4  1  0
  1 10  1  0
  1 11  1  0
  1 12  1  0
  2 13  1  0
  2 14  1  0
  3 15  1  0
  3 16  1  0
  4 17  1  0
  6 18  1  0
  7 19  1  0
  7 20  1  0
  9 21  1  0
  9 22  1  0
  9 23  1  0
M  END
