
     RDKit          3D

 25 25  0  0  0  0  0  0  0  0999 V2000
    3.5234    0.2062    0.0523 C   0  0  0  0  0  0  0  0  0  0  0  0
    2.1377    0.7889    0.2351 C   0  0  0  0  0  0  0  0  0  0  0  0
    1.1116   -0.0733   -0.5078 C   0  0  0  0  0  0  0  0  0  0  0  0
   -0.2592    0.4925   -0.3342 C   0  0  0  0  0  0  0  0  0  0  0  0
   -1.4234   -0.1585   -0.9549 C   0  0  0  0  0  0  0  0  0  0  0  0
   -1.3736   -1.5453   -1.5290 C   0  0  0  0  0  0  0  0  0  0  0  0
   -1.2604   -0.1168    0.5513 C   0  0  0  0  0  0  0  0  0  0  0  0
   -2.3001    0.7251    1.2599 C   0  0  0  0  0  0  0  0  0  0  0  0
   -3.1363   -0.0582    2.0385 O   0  0  0  0  0  0  0  0  0  0  0  0
    3.6513   -0.2689   -0.9333 H   0  0  0  0  0  0  0  0  0  0  0  0
    4.3000    0.9824    0.2186 H   0  0  0  0  0  0  0  0  0  0  0  0
    3.6584   -0.5676    0.8482 H   0  0  0  0  0  0  0  0  0  0  0  0
    2.1274    1.7721   -0.2789 H   0  0  0  0  0  0  0  0  0  0  0  0
    1.8446    0.8435    1.2929 H   0  0  0  0  0  0  0  0  0  0  0  0
    1.4039   -0.0115   -1.5802 H   0  0  0  0  0  0  0  0  0  0  0  0
    1.1958   -1.1206   -0.2132 H   0  0  0  0  0  0  0  0  0  0  0  0
   -0.2732    1.6222   -0.3403 H   0  0  0  0  0  0  0  0  0  0  0  0
   -2.1962    0.4844   -1.4320 H   0  0  0  0  0  0  0  0  0  0  0  0
   -0.3975   -2.0323   -1.4559 H   0  0  0  0  0  0  0  0  0  0  0  0
   -1.7614   -1.5785   -2.5570 H   0  0  0  0  0  0  0  0  0  0  0  0
   -2.0761   -2.1649   -0.9034 H   0  0  0  0  0  0  0  0  0  0  0  0
   -1.0268   -1.0675    1.0936 H   0  0  0  0  0  0  0  0  0  0  0  0
   -2.8736    1.3406    0.5355 H   0  0  0  0  0  0  0  0  0  0  0  0
   -1.7144    1.4398    1.9076 H   0  0  0  0  0  0  0  0  0  0  0  0
   -2.8818    0.0662    2.9864 H   0  0  0  0  0  0  0  0  0  0  0  0
  1  2  1  0
  2  3  1  0
  3  4  1  0
  4  5  1  0
  5  6  1  0
  5  7  1  0
  7  8  1  0
  8  9  1  0
  7  4  1  0
  1 10  1  0
  1 11  1  0
  1 12  1  0
  2 13  1  0
  2 14  1  0
  3 15  1  0
  3 16  1  0
  4 17  1  0
  5 18  1  0
  6 19  1  0
  6 20  1  0
  6 21  1  0
  7 22  1  0
  8 23  1  0
  8 24  1  0
  9 25  1  0
M  END
