
     RDKit          3D

 25 26  0  0  0  0  0  0  0  0999 V2000
    3.2074    0.0239    0.5764 C   0  0  0  0  0  0  0  0  0  0  0  0
    1.7190    0.0462    0.9474 C   0  0  0  0  0  0  0  0  0  0  0  0
    0.9369   -0.2207   -0.3197 C   0  0  0  0  0  0  0  0  0  0  0  0
   -0.5303   -0.2262   -0.1000 C   0  0  0  0  0  0  0  0  0  0  0  0
   -0.9519   -1.2952    0.8974 C   0  0  0  0  0  0  0  0  0  0  0  0
   -1.4519   -0.2258   -1.2530 C   0  0  0  0  0  0  0  0  0  0  0  0
   -1.1503    1.2287   -1.4300 C   0  0  0  0  0  0  0  0  0  0  0  0
   -1.2433    1.0772    0.0460 C   0  0  0  0  0  0  0  0  0  0  0  0
   -2.4896    0.2680   -0.2589 C   0  0  0  0  0  0  0  0  0  0  0  0
    3.3886   -0.9652    0.1177 H   0  0  0  0  0  0  0  0  0  0  0  0
    3.3397    0.8252   -0.1755 H   0  0  0  0  0  0  0  0  0  0  0  0
    3.8289    0.2265    1.4632 H   0  0  0  0  0  0  0  0  0  0  0  0
    1.4668    1.0282    1.3909 H   0  0  0  0  0  0  0  0  0  0  0  0
    1.5613   -0.7323    1.7093 H   0  0  0  0  0  0  0  0  0  0  0  0
    1.2511   -1.2541   -0.6525 H   0  0  0  0  0  0  0  0  0  0  0  0
    1.2460    0.4713   -1.1156 H   0  0  0  0  0  0  0  0  0  0  0  0
   -0.0380   -1.8884    1.1954 H   0  0  0  0  0  0  0  0  0  0  0  0
   -1.3512   -0.8618    1.8192 H   0  0  0  0  0  0  0  0  0  0  0  0
   -1.6078   -2.0472    0.4158 H   0  0  0  0  0  0  0  0  0  0  0  0
   -1.6039   -0.9133   -1.9599 H   0  0  0  0  0  0  0  0  0  0  0  0
   -2.0261    1.7238   -1.9220 H   0  0  0  0  0  0  0  0  0  0  0  0
   -0.2231    1.5222   -1.9006 H   0  0  0  0  0  0  0  0  0  0  0  0
   -1.1501    1.7639    0.7624 H   0  0  0  0  0  0  0  0  0  0  0  0
   -3.2992    0.8552   -0.7516 H   0  0  0  0  0  0  0  0  0  0  0  0
   -2.8289   -0.4304    0.4983 H   0  0  0  0  0  0  0  0  0  0  0  0
  1  2  1  0
  2  3  1  0
  3  4  1  0
  4  5  1  0
  4  6  1  0
  6  7  1  0
  7  8  1  0
  8  9  1  0
  8  4  1  0
  9  6  1  0
  1 10  1  0
  1 11  1  0
  1 12  1  0
  2 13  1  0
  2 14  1  0
  3 15  1  0
  3 16  1  0
  5 17  1  0
  5 18  1  0
  5 19  1  0
  6 20  1  0
  7 21  1  0
  7 22  1  0
  8 23  1  0
  9 24  1  0
  9 25  1  0
M  END
