
     RDKit          3D

 17 16  0  0  0  0  0  0  0  0999 V2000
   -2.5420   -0.5258    0.0354 C   0  0  0  0  0  0  0  0  0  0  0  0
   -1.0842   -0.6004   -0.4326 C   0  0  0  0  0  0  0  0  0  0  0  0
   -0.4271    0.6735    0.0117 C   0  0  0  0  0  0  0  0  0  0  0  0
    1.0294    0.7398   -0.3852 C   0  0  0  0  0  0  0  0  0  0  0  0
    1.7663   -0.3184    0.1789 O   0  0  0  0  0  0  0  0  0  0  0  0
    3.1213   -0.3972   -0.0919 C   0  0  0  0  0  0  0  0  0  0  0  0
    3.6471    0.4688   -0.8252 O   0  0  0  0  0  0  0  0  0  0  0  0
   -3.1227    0.0229   -0.7378 H   0  0  0  0  0  0  0  0  0  0  0  0
   -2.9186   -1.5350    0.2354 H   0  0  0  0  0  0  0  0  0  0  0  0
   -2.6182    0.0975    0.9604 H   0  0  0  0  0  0  0  0  0  0  0  0
   -0.6100   -1.5069   -0.0325 H   0  0  0  0  0  0  0  0  0  0  0  0
   -1.0404   -0.7050   -1.5538 H   0  0  0  0  0  0  0  0  0  0  0  0
   -0.9416    1.5107   -0.5087 H   0  0  0  0  0  0  0  0  0  0  0  0
   -0.5722    0.7994    1.0800 H   0  0  0  0  0  0  0  0  0  0  0  0
    1.1583    0.7210   -1.4640 H   0  0  0  0  0  0  0  0  0  0  0  0
    1.4003    1.7377   -0.0314 H   0  0  0  0  0  0  0  0  0  0  0  0
    3.7542   -1.1825    0.3060 H   0  0  0  0  0  0  0  0  0  0  0  0
  1  2  1  0
  2  3  1  0
  3  4  1  0
  4  5  1  0
  5  6  1  0
  6  7  2  0
  1  8  1  0
  1  9  1  0
  1 10  1  0
  2 11  1  0
  2 12  1  0
  3 13  1  0
  3 14  1  0
  4 15  1  0
  4 16  1  0
  6 17  1  0
M  END
