
     RDKit          3D

 23 22  0  0  0  0  0  0  0  0999 V2000
   -2.6973   -1.7753   -0.5499 C   0  0  0  0  0  0  0  0  0  0  0  0
   -2.4065   -0.3032   -0.6130 C   0  0  0  0  0  0  0  0  0  0  0  0
   -0.9903    0.0464   -0.5707 C   0  0  0  0  0  0  0  0  0  0  0  0
    0.0327   -0.3562    0.3494 C   0  0  0  0  0  0  0  0  0  0  0  0
   -0.2697   -0.0307    1.8587 C   0  0  0  0  0  0  0  0  0  0  0  0
    1.1521    0.2917    0.1299 C   0  0  0  0  0  0  0  0  0  0  0  0
    2.3412    0.9585   -0.1146 C   0  0  0  0  0  0  0  0  0  0  0  0
    3.8545    1.7789   -0.4059 C   0  0  0  0  0  0  0  0  0  0  0  0
    3.9666    1.3604   -1.6037 O   0  0  0  0  0  0  0  0  0  0  0  0
   -3.7461   -2.0413   -0.5609 H   0  0  0  0  0  0  0  0  0  0  0  0
   -2.2120   -2.4273   -1.3169 H   0  0  0  0  0  0  0  0  0  0  0  0
   -2.2994   -2.1755    0.4548 H   0  0  0  0  0  0  0  0  0  0  0  0
   -2.9571    0.2166    0.1746 H   0  0  0  0  0  0  0  0  0  0  0  0
   -2.8821    0.0922   -1.6039 H   0  0  0  0  0  0  0  0  0  0  0  0
   -1.0297    1.2653   -0.2149 H   0  0  0  0  0  0  0  0  0  0  0  0
   -0.5252    0.2352   -1.5974 H   0  0  0  0  0  0  0  0  0  0  0  0
    0.3490   -1.4403    0.3899 H   0  0  0  0  0  0  0  0  0  0  0  0
   -1.1989   -0.5890    2.2014 H   0  0  0  0  0  0  0  0  0  0  0  0
    0.5898   -0.1023    2.4620 H   0  0  0  0  0  0  0  0  0  0  0  0
   -0.6146    1.0266    1.8319 H   0  0  0  0  0  0  0  0  0  0  0  0
    4.3421    1.0005    0.3737 H   0  0  0  0  0  0  0  0  0  0  0  0
    3.5614    2.6318    0.1442 H   0  0  0  0  0  0  0  0  0  0  0  0
    3.6393    0.3369   -1.6512 H   0  0  0  0  0  0  0  0  0  0  0  0
  1  2  1  0
  2  3  1  0
  3  4  1  0
  4  5  1  0
  4  6  1  0
  6  7  3  0
  7  8  1  0
  8  9  1  0
  1 10  1  0
  1 11  1  0
  1 12  1  0
  2 13  1  0
  2 14  1  0
  3 15  1  0
  3 16  1  0
  4 17  1  0
  5 18  1  0
  5 19  1  0
  5 20  1  0
  8 21  1  0
  8 22  1  0
  9 23  1  0
M  END
