
     RDKit          3D

 21 21  0  0  0  0  0  0  0  0999 V2000
   -2.4372    0.2618    0.4739 C   0  0  0  0  0  0  0  0  0  0  0  0
   -1.7882   -0.0609   -0.8303 C   0  0  0  0  0  0  0  0  0  0  0  0
   -0.4764   -0.7888   -0.6882 C   0  0  0  0  0  0  0  0  0  0  0  0
    0.5580   -0.0378    0.0724 C   0  0  0  0  0  0  0  0  0  0  0  0
    0.2446    0.2982    1.3825 O   0  0  0  0  0  0  0  0  0  0  0  0
    1.5612    0.8335   -0.5867 C   0  0  0  0  0  0  0  0  0  0  0  0
    2.1553    1.8421    0.1772 O   0  0  0  0  0  0  0  0  0  0  0  0
    1.9921   -0.5504   -0.1900 C   0  0  0  0  0  0  0  0  0  0  0  0
    2.7389   -0.7472    0.9549 O   0  0  0  0  0  0  0  0  0  0  0  0
   -3.5506    0.0841    0.4569 H   0  0  0  0  0  0  0  0  0  0  0  0
   -2.0201   -0.2780    1.3348 H   0  0  0  0  0  0  0  0  0  0  0  0
   -2.3021    1.3621    0.6889 H   0  0  0  0  0  0  0  0  0  0  0  0
   -2.4797   -0.7318   -1.3833 H   0  0  0  0  0  0  0  0  0  0  0  0
   -1.6157    0.8700   -1.4225 H   0  0  0  0  0  0  0  0  0  0  0  0
   -0.1218   -1.0673   -1.7025 H   0  0  0  0  0  0  0  0  0  0  0  0
   -0.6764   -1.7480   -0.1517 H   0  0  0  0  0  0  0  0  0  0  0  0
    0.7156   -0.2259    2.0520 H   0  0  0  0  0  0  0  0  0  0  0  0
    1.4504    1.1104   -1.6472 H   0  0  0  0  0  0  0  0  0  0  0  0
    1.4985    2.4071    0.6475 H   0  0  0  0  0  0  0  0  0  0  0  0
    2.1528   -1.2427   -1.0166 H   0  0  0  0  0  0  0  0  0  0  0  0
    2.4010   -1.5905    1.3779 H   0  0  0  0  0  0  0  0  0  0  0  0
  1  2  1  0
  2  3  1  0
  3  4  1  0
  4  5  1  0
  4  6  1  0
  6  7  1  0
  6  8  1  0
  8  9  1  0
  8  4  1  0
  1 10  1  0
  1 11  1  0
  1 12  1  0
  2 13  1  0
  2 14  1  0
  3 15  1  0
  3 16  1  0
  5 17  1  0
  6 18  1  0
  7 19  1  0
  8 20  1  0
  9 21  1  0
M  END
