
     RDKit          3D

 25 26  0  0  0  0  0  0  0  0999 V2000
    3.3879   -0.4684    0.2190 C   0  0  0  0  0  0  0  0  0  0  0  0
    2.0797    0.1580    0.7229 C   0  0  0  0  0  0  0  0  0  0  0  0
    1.1081    0.1091   -0.3881 C   0  0  0  0  0  0  0  0  0  0  0  0
   -0.2376    0.6711   -0.1080 C   0  0  0  0  0  0  0  0  0  0  0  0
   -1.1527    0.5593   -1.3443 C   0  0  0  0  0  0  0  0  0  0  0  0
   -2.3495   -0.0651   -0.6958 C   0  0  0  0  0  0  0  0  0  0  0  0
   -1.7259   -1.2054    0.0899 C   0  0  0  0  0  0  0  0  0  0  0  0
   -1.0697   -0.0581    0.8724 C   0  0  0  0  0  0  0  0  0  0  0  0
   -2.4253    0.6433    0.6638 C   0  0  0  0  0  0  0  0  0  0  0  0
    3.9362    0.3744   -0.2876 H   0  0  0  0  0  0  0  0  0  0  0  0
    4.0027   -0.8411    1.0502 H   0  0  0  0  0  0  0  0  0  0  0  0
    3.1731   -1.2216   -0.5391 H   0  0  0  0  0  0  0  0  0  0  0  0
    2.2798    1.1434    1.1428 H   0  0  0  0  0  0  0  0  0  0  0  0
    1.7622   -0.4955    1.5695 H   0  0  0  0  0  0  0  0  0  0  0  0
    0.9673   -0.9720   -0.6705 H   0  0  0  0  0  0  0  0  0  0  0  0
    1.5075    0.5911   -1.3046 H   0  0  0  0  0  0  0  0  0  0  0  0
   -0.2115    1.7501    0.1433 H   0  0  0  0  0  0  0  0  0  0  0  0
   -0.7137   -0.1894   -2.0334 H   0  0  0  0  0  0  0  0  0  0  0  0
   -1.3241    1.5272   -1.8059 H   0  0  0  0  0  0  0  0  0  0  0  0
   -3.2452   -0.2260   -1.2251 H   0  0  0  0  0  0  0  0  0  0  0  0
   -0.9750   -1.7863   -0.4581 H   0  0  0  0  0  0  0  0  0  0  0  0
   -2.4434   -1.7522    0.7055 H   0  0  0  0  0  0  0  0  0  0  0  0
   -0.7644   -0.2458    1.8657 H   0  0  0  0  0  0  0  0  0  0  0  0
   -2.3470    1.7249    0.5010 H   0  0  0  0  0  0  0  0  0  0  0  0
   -3.2196    0.2747    1.3147 H   0  0  0  0  0  0  0  0  0  0  0  0
  1  2  1  0
  2  3  1  0
  3  4  1  0
  4  5  1  0
  5  6  1  0
  6  7  1  0
  7  8  1  0
  8  9  1  0
  8  4  1  0
  9  6  1  0
  1 10  1  0
  1 11  1  0
  1 12  1  0
  2 13  1  0
  2 14  1  0
  3 15  1  0
  3 16  1  0
  4 17  1  0
  5 18  1  0
  5 19  1  0
  6 20  1  0
  7 21  1  0
  7 22  1  0
  8 23  1  0
  9 24  1  0
  9 25  1  0
M  END
