
     RDKit          3D

 20 20  0  0  0  0  0  0  0  0999 V2000
    2.8097   -0.3936    0.6913 C   0  0  0  0  0  0  0  0  0  0  0  0
    1.5820   -0.4151   -0.1987 C   0  0  0  0  0  0  0  0  0  0  0  0
    0.4690    0.2379    0.5436 C   0  0  0  0  0  0  0  0  0  0  0  0
   -0.8354    0.3046   -0.1957 C   0  0  0  0  0  0  0  0  0  0  0  0
   -0.8089    1.0028   -1.3994 O   0  0  0  0  0  0  0  0  0  0  0  0
   -2.0068    0.7359    0.7143 C   0  0  0  0  0  0  0  0  0  0  0  0
   -1.9531   -0.5962    0.0545 C   0  0  0  0  0  0  0  0  0  0  0  0
   -2.8981   -0.7546   -0.9661 O   0  0  0  0  0  0  0  0  0  0  0  0
    3.7324   -0.6465    0.1178 H   0  0  0  0  0  0  0  0  0  0  0  0
    2.9855    0.6276    1.1061 H   0  0  0  0  0  0  0  0  0  0  0  0
    2.6985   -1.0660    1.5675 H   0  0  0  0  0  0  0  0  0  0  0  0
    1.8454    0.0893   -1.1482 H   0  0  0  0  0  0  0  0  0  0  0  0
    1.3809   -1.4902   -0.4173 H   0  0  0  0  0  0  0  0  0  0  0  0
    0.3656   -0.2692    1.5248 H   0  0  0  0  0  0  0  0  0  0  0  0
    0.7754    1.2873    0.7599 H   0  0  0  0  0  0  0  0  0  0  0  0
   -0.2093    0.6370   -2.0618 H   0  0  0  0  0  0  0  0  0  0  0  0
   -2.6766    1.5275    0.3620 H   0  0  0  0  0  0  0  0  0  0  0  0
   -1.8529    0.7282    1.8001 H   0  0  0  0  0  0  0  0  0  0  0  0
   -1.8190   -1.5078    0.6680 H   0  0  0  0  0  0  0  0  0  0  0  0
   -3.5842   -0.0388   -0.9589 H   0  0  0  0  0  0  0  0  0  0  0  0
  1  2  1  0
  2  3  1  0
  3  4  1  0
  4  5  1  0
  4  6  1  0
  6  7  1  0
  7  8  1  0
  7  4  1  0
  1  9  1  0
  1 10  1  0
  1 11  1  0
  2 12  1  0
  2 13  1  0
  3 14  1  0
  3 15  1  0
  5 16  1  0
  6 17  1  0
  6 18  1  0
  7 19  1  0
  8 20  1  0
M  END
