
     RDKit          3D

 27 26  0  0  0  0  0  0  0  0999 V2000
    3.5276    0.4539   -0.0279 C   0  0  0  0  0  0  0  0  0  0  0  0
    2.5390    0.0466   -1.1039 C   0  0  0  0  0  0  0  0  0  0  0  0
    1.2259   -0.4433   -0.4878 C   0  0  0  0  0  0  0  0  0  0  0  0
    0.6113    0.6288    0.3250 C   0  0  0  0  0  0  0  0  0  0  0  0
   -0.6391    0.3582    1.0468 C   0  0  0  0  0  0  0  0  0  0  0  0
   -1.8458   -0.0314    0.2661 C   0  0  0  0  0  0  0  0  0  0  0  0
   -1.6984   -1.2990   -0.4928 C   0  0  0  0  0  0  0  0  0  0  0  0
   -3.0803   -0.1397    1.1571 C   0  0  0  0  0  0  0  0  0  0  0  0
   -2.1320    1.0562   -0.5959 O   0  0  0  0  0  0  0  0  0  0  0  0
    3.3004    1.4634    0.3623 H   0  0  0  0  0  0  0  0  0  0  0  0
    3.5893   -0.2957    0.7800 H   0  0  0  0  0  0  0  0  0  0  0  0
    4.5423    0.4647   -0.5059 H   0  0  0  0  0  0  0  0  0  0  0  0
    3.0213   -0.7586   -1.6953 H   0  0  0  0  0  0  0  0  0  0  0  0
    2.3521    0.9191   -1.7600 H   0  0  0  0  0  0  0  0  0  0  0  0
    1.4187   -1.3588    0.0765 H   0  0  0  0  0  0  0  0  0  0  0  0
    0.5755   -0.6462   -1.3919 H   0  0  0  0  0  0  0  0  0  0  0  0
    0.4046    1.4845   -0.4009 H   0  0  0  0  0  0  0  0  0  0  0  0
    1.3995    1.0920    1.0042 H   0  0  0  0  0  0  0  0  0  0  0  0
   -0.9550    1.2544    1.6841 H   0  0  0  0  0  0  0  0  0  0  0  0
   -0.5093   -0.4439    1.8504 H   0  0  0  0  0  0  0  0  0  0  0  0
   -1.6599   -1.1605   -1.6055 H   0  0  0  0  0  0  0  0  0  0  0  0
   -2.6362   -1.9428   -0.3283 H   0  0  0  0  0  0  0  0  0  0  0  0
   -0.8855   -1.9215   -0.1192 H   0  0  0  0  0  0  0  0  0  0  0  0
   -3.0717    0.5829    1.9773 H   0  0  0  0  0  0  0  0  0  0  0  0
   -3.9606   -0.0006    0.4728 H   0  0  0  0  0  0  0  0  0  0  0  0
   -3.1366   -1.1861    1.5232 H   0  0  0  0  0  0  0  0  0  0  0  0
   -2.2971    1.8233    0.0107 H   0  0  0  0  0  0  0  0  0  0  0  0
  1  2  1  0
  2  3  1  0
  3  4  1  0
  4  5  1  0
  5  6  1  0
  6  7  1  0
  6  8  1  0
  6  9  1  0
  1 10  1  0
  1 11  1  0
  1 12  1  0
  2 13  1  0
  2 14  1  0
  3 15  1  0
  3 16  1  0
  4 17  1  0
  4 18  1  0
  5 19  1  0
  5 20  1  0
  7 21  1  0
  7 22  1  0
  7 23  1  0
  8 24  1  0
  8 25  1  0
  8 26  1  0
  9 27  1  0
M  END
