
     RDKit          3D

 23 23  0  0  0  0  0  0  0  0999 V2000
    2.4675    0.2843   -0.1863 C   0  0  0  0  0  0  0  0  0  0  0  0
    1.8857   -0.8581    0.5506 C   0  0  0  0  0  0  0  0  0  0  0  0
    0.5564   -0.7217    1.1668 C   0  0  0  0  0  0  0  0  0  0  0  0
   -0.5850   -0.4725    0.2183 C   0  0  0  0  0  0  0  0  0  0  0  0
   -0.6665   -1.5276   -0.7072 O   0  0  0  0  0  0  0  0  0  0  0  0
   -1.8759   -0.4155    0.9870 C   0  0  0  0  0  0  0  0  0  0  0  0
   -2.5784    0.6322    0.6306 C   0  0  0  0  0  0  0  0  0  0  0  0
   -1.8693    1.4171   -0.4137 C   0  0  0  0  0  0  0  0  0  0  0  0
   -0.4629    0.8173   -0.5013 C   0  0  0  0  0  0  0  0  0  0  0  0
    3.5767    0.0845   -0.4107 H   0  0  0  0  0  0  0  0  0  0  0  0
    2.0436    0.5050   -1.1762 H   0  0  0  0  0  0  0  0  0  0  0  0
    2.4934    1.2354    0.3993 H   0  0  0  0  0  0  0  0  0  0  0  0
    1.9683   -1.7938   -0.0708 H   0  0  0  0  0  0  0  0  0  0  0  0
    2.6084   -1.0789    1.4073 H   0  0  0  0  0  0  0  0  0  0  0  0
    0.5644    0.0836    1.9748 H   0  0  0  0  0  0  0  0  0  0  0  0
    0.2797   -1.6365    1.7899 H   0  0  0  0  0  0  0  0  0  0  0  0
   -0.5305   -2.3684   -0.1721 H   0  0  0  0  0  0  0  0  0  0  0  0
   -2.1560   -1.1465    1.7202 H   0  0  0  0  0  0  0  0  0  0  0  0
   -3.5561    0.9581    0.9977 H   0  0  0  0  0  0  0  0  0  0  0  0
   -2.3528    1.3729   -1.3990 H   0  0  0  0  0  0  0  0  0  0  0  0
   -1.8178    2.4810   -0.0663 H   0  0  0  0  0  0  0  0  0  0  0  0
   -0.2199    0.6149   -1.5730 H   0  0  0  0  0  0  0  0  0  0  0  0
    0.2270    1.5332   -0.0172 H   0  0  0  0  0  0  0  0  0  0  0  0
  1  2  1  0
  2  3  1  0
  3  4  1  0
  4  5  1  0
  4  6  1  0
  6  7  2  0
  7  8  1  0
  8  9  1  0
  9  4  1  0
  1 10  1  0
  1 11  1  0
  1 12  1  0
  2 13  1  0
  2 14  1  0
  3 15  1  0
  3 16  1  0
  5 17  1  0
  6 18  1  0
  7 19  1  0
  8 20  1  0
  8 21  1  0
  9 22  1  0
  9 23  1  0
M  END
