
     RDKit          3D

 21 20  0  0  0  0  0  0  0  0999 V2000
   -2.5610    0.6547    0.1744 C   0  0  0  0  0  0  0  0  0  0  0  0
   -1.9441   -0.4189   -0.7312 C   0  0  0  0  0  0  0  0  0  0  0  0
   -0.4437   -0.1884   -0.8303 C   0  0  0  0  0  0  0  0  0  0  0  0
    0.2083   -0.2648    0.5272 C   0  0  0  0  0  0  0  0  0  0  0  0
    1.6804   -0.0456    0.4873 C   0  0  0  0  0  0  0  0  0  0  0  0
    2.0737    1.2686   -0.0527 C   0  0  0  0  0  0  0  0  0  0  0  0
    2.6429    1.3378   -1.1142 O   0  0  0  0  0  0  0  0  0  0  0  0
    2.4006   -1.1542   -0.1926 C   0  0  0  0  0  0  0  0  0  0  0  0
    3.3980   -1.6774    0.2757 O   0  0  0  0  0  0  0  0  0  0  0  0
   -2.2328    1.6600   -0.1081 H   0  0  0  0  0  0  0  0  0  0  0  0
   -2.3177    0.4636    1.2437 H   0  0  0  0  0  0  0  0  0  0  0  0
   -3.6708    0.5137    0.0867 H   0  0  0  0  0  0  0  0  0  0  0  0
   -2.4233   -0.2739   -1.7196 H   0  0  0  0  0  0  0  0  0  0  0  0
   -2.1715   -1.3987   -0.2777 H   0  0  0  0  0  0  0  0  0  0  0  0
   -0.0596   -0.9465   -1.5314 H   0  0  0  0  0  0  0  0  0  0  0  0
   -0.3108    0.8205   -1.2765 H   0  0  0  0  0  0  0  0  0  0  0  0
    0.0381   -1.3006    0.9219 H   0  0  0  0  0  0  0  0  0  0  0  0
   -0.2675    0.4163    1.2332 H   0  0  0  0  0  0  0  0  0  0  0  0
    2.0370   -0.0653    1.5583 H   0  0  0  0  0  0  0  0  0  0  0  0
    1.8558    2.1633    0.4946 H   0  0  0  0  0  0  0  0  0  0  0  0
    2.0682   -1.5642   -1.1628 H   0  0  0  0  0  0  0  0  0  0  0  0
  1  2  1  0
  2  3  1  0
  3  4  1  0
  4  5  1  0
  5  6  1  0
  6  7  2  0
  5  8  1  0
  8  9  2  0
  1 10  1  0
  1 11  1  0
  1 12  1  0
  2 13  1  0
  2 14  1  0
  3 15  1  0
  3 16  1  0
  4 17  1  0
  4 18  1  0
  5 19  1  0
  6 20  1  0
  8 21  1  0
M  END
