
     RDKit          3D

 25 25  0  0  0  0  0  0  0  0999 V2000
    2.9633    0.0812    0.6361 C   0  0  0  0  0  0  0  0  0  0  0  0
    1.5143    0.5484    0.3853 C   0  0  0  0  0  0  0  0  0  0  0  0
    0.6871   -0.5735   -0.1160 C   0  0  0  0  0  0  0  0  0  0  0  0
   -0.7325   -0.3116   -0.4381 C   0  0  0  0  0  0  0  0  0  0  0  0
   -1.2969   -1.6654   -0.9208 C   0  0  0  0  0  0  0  0  0  0  0  0
   -0.9028    0.5840   -1.6582 C   0  0  0  0  0  0  0  0  0  0  0  0
   -1.6050    0.1326    0.6954 C   0  0  0  0  0  0  0  0  0  0  0  0
   -1.4211    1.3444    1.4856 C   0  0  0  0  0  0  0  0  0  0  0  0
   -0.9495    0.1372    1.9659 O   0  0  0  0  0  0  0  0  0  0  0  0
    3.4879    0.9341    1.0627 H   0  0  0  0  0  0  0  0  0  0  0  0
    2.9981   -0.7660    1.3287 H   0  0  0  0  0  0  0  0  0  0  0  0
    3.3978   -0.1600   -0.3539 H   0  0  0  0  0  0  0  0  0  0  0  0
    1.1988    0.8617    1.4279 H   0  0  0  0  0  0  0  0  0  0  0  0
    1.5751    1.4309   -0.2381 H   0  0  0  0  0  0  0  0  0  0  0  0
    1.2214   -0.9803   -1.0266 H   0  0  0  0  0  0  0  0  0  0  0  0
    0.7665   -1.4158    0.6182 H   0  0  0  0  0  0  0  0  0  0  0  0
   -2.3843   -1.5890   -1.0434 H   0  0  0  0  0  0  0  0  0  0  0  0
   -0.8316   -1.9420   -1.8863 H   0  0  0  0  0  0  0  0  0  0  0  0
   -1.0884   -2.4371   -0.1414 H   0  0  0  0  0  0  0  0  0  0  0  0
   -0.7364    1.6390   -1.4331 H   0  0  0  0  0  0  0  0  0  0  0  0
   -0.2421    0.1856   -2.4385 H   0  0  0  0  0  0  0  0  0  0  0  0
   -1.9508    0.4397   -1.9953 H   0  0  0  0  0  0  0  0  0  0  0  0
   -2.6331   -0.3436    0.7731 H   0  0  0  0  0  0  0  0  0  0  0  0
   -0.7363    2.1536    1.2378 H   0  0  0  0  0  0  0  0  0  0  0  0
   -2.2993    1.7118    2.0729 H   0  0  0  0  0  0  0  0  0  0  0  0
  1  2  1  0
  2  3  1  0
  3  4  1  0
  4  5  1  0
  4  6  1  0
  4  7  1  0
  7  8  1  0
  8  9  1  0
  9  7  1  0
  1 10  1  0
  1 11  1  0
  1 12  1  0
  2 13  1  0
  2 14  1  0
  3 15  1  0
  3 16  1  0
  5 17  1  0
  5 18  1  0
  5 19  1  0
  6 20  1  0
  6 21  1  0
  6 22  1  0
  7 23  1  0
  8 24  1  0
  8 25  1  0
M  END
