
     RDKit          3D

 25 24  0  0  0  0  0  0  0  0999 V2000
    3.4307    0.3868   -0.7374 C   0  0  0  0  0  0  0  0  0  0  0  0
    2.7305    0.8010    0.5405 C   0  0  0  0  0  0  0  0  0  0  0  0
    1.2346    0.6276    0.3196 C   0  0  0  0  0  0  0  0  0  0  0  0
    1.0218   -0.8371    0.0068 C   0  0  0  0  0  0  0  0  0  0  0  0
   -0.4033   -1.1553   -0.2335 C   0  0  0  0  0  0  0  0  0  0  0  0
   -0.6948   -2.2985   -0.4934 O   0  0  0  0  0  0  0  0  0  0  0  0
   -1.4608   -0.1053   -0.1605 C   0  0  0  0  0  0  0  0  0  0  0  0
   -2.8079   -0.7329   -0.4515 C   0  0  0  0  0  0  0  0  0  0  0  0
   -3.8333    0.3920   -0.3597 C   0  0  0  0  0  0  0  0  0  0  0  0
    4.2610    1.1192   -0.8877 H   0  0  0  0  0  0  0  0  0  0  0  0
    3.7993   -0.6591   -0.6835 H   0  0  0  0  0  0  0  0  0  0  0  0
    2.7425    0.4819   -1.6252 H   0  0  0  0  0  0  0  0  0  0  0  0
    2.9352    1.8287    0.8334 H   0  0  0  0  0  0  0  0  0  0  0  0
    3.0456    0.0739    1.3432 H   0  0  0  0  0  0  0  0  0  0  0  0
    0.7473    0.9347    1.2660 H   0  0  0  0  0  0  0  0  0  0  0  0
    0.9461    1.2288   -0.5434 H   0  0  0  0  0  0  0  0  0  0  0  0
    1.3989   -1.4326    0.8482 H   0  0  0  0  0  0  0  0  0  0  0  0
    1.6313   -1.0658   -0.8961 H   0  0  0  0  0  0  0  0  0  0  0  0
   -1.5142    0.3683    0.8230 H   0  0  0  0  0  0  0  0  0  0  0  0
   -1.2637    0.6807   -0.9317 H   0  0  0  0  0  0  0  0  0  0  0  0
   -3.0251   -1.4607    0.3554 H   0  0  0  0  0  0  0  0  0  0  0  0
   -2.7677   -1.1809   -1.4531 H   0  0  0  0  0  0  0  0  0  0  0  0
   -4.8283   -0.0208   -0.5552 H   0  0  0  0  0  0  0  0  0  0  0  0
   -3.7122    0.8488    0.6259 H   0  0  0  0  0  0  0  0  0  0  0  0
   -3.6132    1.1766   -1.1134 H   0  0  0  0  0  0  0  0  0  0  0  0
  1  2  1  0
  2  3  1  0
  3  4  1  0
  4  5  1  0
  5  6  2  0
  5  7  1  0
  7  8  1  0
  8  9  1  0
  1 10  1  0
  1 11  1  0
  1 12  1  0
  2 13  1  0
  2 14  1  0
  3 15  1  0
  3 16  1  0
  4 17  1  0
  4 18  1  0
  7 19  1  0
  7 20  1  0
  8 21  1  0
  8 22  1  0
  9 23  1  0
  9 24  1  0
  9 25  1  0
M  END
