
     RDKit          3D

 23 24  0  0  0  0  0  0  0  0999 V2000
    3.2403    0.4805   -0.3588 C   0  0  0  0  0  0  0  0  0  0  0  0
    2.0674    0.0231    0.4843 C   0  0  0  0  0  0  0  0  0  0  0  0
    0.9306   -0.3114   -0.4450 C   0  0  0  0  0  0  0  0  0  0  0  0
   -0.3006   -0.7810    0.2691 C   0  0  0  0  0  0  0  0  0  0  0  0
   -0.9694    0.1494    1.2728 C   0  0  0  0  0  0  0  0  0  0  0  0
   -1.5575   -0.1385   -0.0004 C   0  0  0  0  0  0  0  0  0  0  0  0
   -1.9138    0.7681   -1.0835 C   0  0  0  0  0  0  0  0  0  0  0  0
   -2.7272   -0.2586   -1.6211 O   0  0  0  0  0  0  0  0  0  0  0  0
   -2.8393   -0.7782   -0.3083 C   0  0  0  0  0  0  0  0  0  0  0  0
    2.8151    0.9720   -1.2561 H   0  0  0  0  0  0  0  0  0  0  0  0
    3.8675   -0.3998   -0.6353 H   0  0  0  0  0  0  0  0  0  0  0  0
    3.8468    1.2664    0.1674 H   0  0  0  0  0  0  0  0  0  0  0  0
    2.3193   -0.7879    1.1745 H   0  0  0  0  0  0  0  0  0  0  0  0
    1.7905    0.9046    1.1287 H   0  0  0  0  0  0  0  0  0  0  0  0
    0.7212    0.5775   -1.0503 H   0  0  0  0  0  0  0  0  0  0  0  0
    1.2510   -1.1164   -1.1257 H   0  0  0  0  0  0  0  0  0  0  0  0
   -0.3256   -1.8832    0.5016 H   0  0  0  0  0  0  0  0  0  0  0  0
   -0.4553    1.1027    1.5033 H   0  0  0  0  0  0  0  0  0  0  0  0
   -1.4192   -0.3110    2.1850 H   0  0  0  0  0  0  0  0  0  0  0  0
   -1.1598    1.1151   -1.7941 H   0  0  0  0  0  0  0  0  0  0  0  0
   -2.6054    1.5869   -0.7344 H   0  0  0  0  0  0  0  0  0  0  0  0
   -2.8585   -1.8929   -0.2932 H   0  0  0  0  0  0  0  0  0  0  0  0
   -3.7179   -0.2873    0.1657 H   0  0  0  0  0  0  0  0  0  0  0  0
  1  2  1  0
  2  3  1  0
  3  4  1  0
  4  5  1  0
  5  6  1  0
  6  7  1  0
  7  8  1  0
  8  9  1  0
  6  4  1  0
  9  6  1  0
  1 10  1  0
  1 11  1  0
  1 12  1  0
  2 13  1  0
  2 14  1  0
  3 15  1  0
  3 16  1  0
  4 17  1  0
  5 18  1  0
  5 19  1  0
  7 20  1  0
  7 21  1  0
  9 22  1  0
  9 23  1  0
M  END
