
     RDKit          3D

 27 26  0  0  0  0  0  0  0  0999 V2000
    4.1985   -0.1364    0.5538 C   0  0  0  0  0  0  0  0  0  0  0  0
    3.0688    0.8052    0.1828 C   0  0  0  0  0  0  0  0  0  0  0  0
    1.8172   -0.0186    0.0582 C   0  0  0  0  0  0  0  0  0  0  0  0
    0.6101    0.8102   -0.3109 C   0  0  0  0  0  0  0  0  0  0  0  0
   -0.5683   -0.1702   -0.3969 C   0  0  0  0  0  0  0  0  0  0  0  0
   -1.8290    0.5621   -0.7619 C   0  0  0  0  0  0  0  0  0  0  0  0
   -2.9707   -0.4000   -0.8453 C   0  0  0  0  0  0  0  0  0  0  0  0
   -3.2260   -1.1210    0.4560 C   0  0  0  0  0  0  0  0  0  0  0  0
   -3.5194   -0.1574    1.4263 O   0  0  0  0  0  0  0  0  0  0  0  0
    4.9870   -0.1177   -0.2448 H   0  0  0  0  0  0  0  0  0  0  0  0
    3.8537   -1.1957    0.6268 H   0  0  0  0  0  0  0  0  0  0  0  0
    4.7025    0.1888    1.4911 H   0  0  0  0  0  0  0  0  0  0  0  0
    2.9985    1.5746    0.9775 H   0  0  0  0  0  0  0  0  0  0  0  0
    3.3333    1.3300   -0.7543 H   0  0  0  0  0  0  0  0  0  0  0  0
    1.6303   -0.4951    1.0417 H   0  0  0  0  0  0  0  0  0  0  0  0
    1.9915   -0.7762   -0.7272 H   0  0  0  0  0  0  0  0  0  0  0  0
    0.7793    1.1921   -1.3362 H   0  0  0  0  0  0  0  0  0  0  0  0
    0.3841    1.5969    0.4040 H   0  0  0  0  0  0  0  0  0  0  0  0
   -0.3769   -0.9255   -1.1828 H   0  0  0  0  0  0  0  0  0  0  0  0
   -0.6691   -0.7146    0.5657 H   0  0  0  0  0  0  0  0  0  0  0  0
   -1.6876    1.0027   -1.7706 H   0  0  0  0  0  0  0  0  0  0  0  0
   -2.0995    1.3346   -0.0058 H   0  0  0  0  0  0  0  0  0  0  0  0
   -2.7625   -1.1959   -1.6058 H   0  0  0  0  0  0  0  0  0  0  0  0
   -3.9217    0.0967   -1.1264 H   0  0  0  0  0  0  0  0  0  0  0  0
   -2.3989   -1.7652    0.7551 H   0  0  0  0  0  0  0  0  0  0  0  0
   -4.1278   -1.7725    0.3658 H   0  0  0  0  0  0  0  0  0  0  0  0
   -4.1973    0.4678    1.0164 H   0  0  0  0  0  0  0  0  0  0  0  0
  1  2  1  0
  2  3  1  0
  3  4  1  0
  4  5  1  0
  5  6  1  0
  6  7  1  0
  7  8  1  0
  8  9  1  0
  1 10  1  0
  1 11  1  0
  1 12  1  0
  2 13  1  0
  2 14  1  0
  3 15  1  0
  3 16  1  0
  4 17  1  0
  4 18  1  0
  5 19  1  0
  5 20  1  0
  6 21  1  0
  6 22  1  0
  7 23  1  0
  7 24  1  0
  8 25  1  0
  8 26  1  0
  9 27  1  0
M  END
