
     RDKit          3D

 21 24  0  0  0  0  0  0  0  0999 V2000
    3.0794   -0.2211    0.2789 C   0  0  0  0  0  0  0  0  0  0  0  0
    1.6259   -0.0041    0.5659 C   0  0  0  0  0  0  0  0  0  0  0  0
    0.7662   -0.2196   -0.6783 C   0  0  0  0  0  0  0  0  0  0  0  0
   -0.6213   -0.0032   -0.3665 C   0  0  0  0  0  0  0  0  0  0  0  0
   -1.4778   -0.6842    0.5926 C   0  0  0  0  0  0  0  0  0  0  0  0
   -2.3086    0.4695    0.7493 C   0  0  0  0  0  0  0  0  0  0  0  0
   -2.6735   -0.3460   -0.3498 C   0  0  0  0  0  0  0  0  0  0  0  0
   -1.7234    0.3407   -1.2210 C   0  0  0  0  0  0  0  0  0  0  0  0
   -1.3486    1.2198   -0.1202 C   0  0  0  0  0  0  0  0  0  0  0  0
    3.5012   -0.9233    1.0446 H   0  0  0  0  0  0  0  0  0  0  0  0
    3.5932    0.7641    0.3479 H   0  0  0  0  0  0  0  0  0  0  0  0
    3.2446   -0.6899   -0.7164 H   0  0  0  0  0  0  0  0  0  0  0  0
    1.2348   -0.7315    1.3227 H   0  0  0  0  0  0  0  0  0  0  0  0
    1.4077    1.0139    0.9739 H   0  0  0  0  0  0  0  0  0  0  0  0
    0.9566   -1.2694   -1.0106 H   0  0  0  0  0  0  0  0  0  0  0  0
    1.1322    0.4441   -1.4705 H   0  0  0  0  0  0  0  0  0  0  0  0
   -1.4103   -1.6126    1.0609 H   0  0  0  0  0  0  0  0  0  0  0  0
   -2.8312    0.8653    1.5763 H   0  0  0  0  0  0  0  0  0  0  0  0
   -3.2845   -1.1803   -0.5179 H   0  0  0  0  0  0  0  0  0  0  0  0
   -1.7767    0.5447   -2.2554 H   0  0  0  0  0  0  0  0  0  0  0  0
   -1.0858    2.2232   -0.0856 H   0  0  0  0  0  0  0  0  0  0  0  0
  1  2  1  0
  2  3  1  0
  3  4  1  0
  4  5  1  0
  5  6  1  0
  6  7  1  0
  7  8  1  0
  8  9  1  0
  8  4  1  0
  9  4  1  0
  7  5  1  0
  9  6  1  0
  1 10  1  0
  1 11  1  0
  1 12  1  0
  2 13  1  0
  2 14  1  0
  3 15  1  0
  3 16  1  0
  5 17  1  0
  6 18  1  0
  7 19  1  0
  8 20  1  0
  9 21  1  0
M  END
