
     RDKit          3D

 23 22  0  0  0  0  0  0  0  0999 V2000
   -3.2656   -0.9497    0.0319 C   0  0  0  0  0  0  0  0  0  0  0  0
   -2.9788    0.2568    0.9042 C   0  0  0  0  0  0  0  0  0  0  0  0
   -1.5750    0.1910    1.4244 C   0  0  0  0  0  0  0  0  0  0  0  0
   -0.5230    0.1872    0.3124 C   0  0  0  0  0  0  0  0  0  0  0  0
    0.8006    0.0802    0.9852 C   0  0  0  0  0  0  0  0  0  0  0  0
    1.8780    0.0511    0.1195 C   0  0  0  0  0  0  0  0  0  0  0  0
    2.9056    0.0190   -0.7356 C   0  0  0  0  0  0  0  0  0  0  0  0
    3.9578   -0.0349   -1.6020 C   0  0  0  0  0  0  0  0  0  0  0  0
    5.0940    0.7203   -1.2001 O   0  0  0  0  0  0  0  0  0  0  0  0
   -3.5206   -0.6829   -0.9892 H   0  0  0  0  0  0  0  0  0  0  0  0
   -4.0719   -1.5597    0.4713 H   0  0  0  0  0  0  0  0  0  0  0  0
   -2.3036   -1.5463   -0.0137 H   0  0  0  0  0  0  0  0  0  0  0  0
   -3.6823    0.1764    1.7803 H   0  0  0  0  0  0  0  0  0  0  0  0
   -3.1470    1.1809    0.3550 H   0  0  0  0  0  0  0  0  0  0  0  0
   -1.4343   -0.7521    1.9901 H   0  0  0  0  0  0  0  0  0  0  0  0
   -1.3871    1.0715    2.0897 H   0  0  0  0  0  0  0  0  0  0  0  0
   -0.6037    1.2386   -0.1197 H   0  0  0  0  0  0  0  0  0  0  0  0
   -0.7366   -0.4949   -0.4946 H   0  0  0  0  0  0  0  0  0  0  0  0
    0.9041    0.8236    1.8378 H   0  0  0  0  0  0  0  0  0  0  0  0
    0.7918   -0.9172    1.6057 H   0  0  0  0  0  0  0  0  0  0  0  0
    4.3528   -1.0835   -1.7304 H   0  0  0  0  0  0  0  0  0  0  0  0
    3.7555    0.3665   -2.6571 H   0  0  0  0  0  0  0  0  0  0  0  0
    4.7894    1.6580   -1.0427 H   0  0  0  0  0  0  0  0  0  0  0  0
  1  2  1  0
  2  3  1  0
  3  4  1  0
  4  5  1  0
  5  6  1  0
  6  7  3  0
  7  8  1  0
  8  9  1  0
  1 10  1  0
  1 11  1  0
  1 12  1  0
  2 13  1  0
  2 14  1  0
  3 15  1  0
  3 16  1  0
  4 17  1  0
  4 18  1  0
  5 19  1  0
  5 20  1  0
  8 21  1  0
  8 22  1  0
  9 23  1  0
M  END
