
     RDKit          3D

 23 22  0  0  0  0  0  0  0  0999 V2000
    2.9787    0.2753    1.2611 C   0  0  0  0  0  0  0  0  0  0  0  0
    1.7193    0.5880    0.5259 C   0  0  0  0  0  0  0  0  0  0  0  0
    0.8495   -0.6428    0.3183 C   0  0  0  0  0  0  0  0  0  0  0  0
   -0.4008   -0.2091   -0.4372 C   0  0  0  0  0  0  0  0  0  0  0  0
   -1.1228    0.7351    0.2486 O   0  0  0  0  0  0  0  0  0  0  0  0
   -1.3081    1.9068   -0.4698 C   0  0  0  0  0  0  0  0  0  0  0  0
   -1.2520   -1.4201   -0.6089 C   0  0  0  0  0  0  0  0  0  0  0  0
   -2.6356   -1.5336   -0.1057 C   0  0  0  0  0  0  0  0  0  0  0  0
   -0.7615   -2.3654   -1.2030 O   0  0  0  0  0  0  0  0  0  0  0  0
    3.1030    0.9166    2.1740 H   0  0  0  0  0  0  0  0  0  0  0  0
    3.8697    0.5265    0.6194 H   0  0  0  0  0  0  0  0  0  0  0  0
    3.0696   -0.7799    1.5684 H   0  0  0  0  0  0  0  0  0  0  0  0
    1.9354    1.0054   -0.4788 H   0  0  0  0  0  0  0  0  0  0  0  0
    1.1168    1.3113    1.0925 H   0  0  0  0  0  0  0  0  0  0  0  0
    1.4512   -1.3418   -0.2955 H   0  0  0  0  0  0  0  0  0  0  0  0
    0.5815   -1.1326    1.2698 H   0  0  0  0  0  0  0  0  0  0  0  0
   -0.0869    0.1276   -1.4543 H   0  0  0  0  0  0  0  0  0  0  0  0
   -0.3078    2.3626   -0.7207 H   0  0  0  0  0  0  0  0  0  0  0  0
   -1.9473    1.7999   -1.3434 H   0  0  0  0  0  0  0  0  0  0  0  0
   -1.7876    2.6440    0.2137 H   0  0  0  0  0  0  0  0  0  0  0  0
   -2.6813   -1.9618    0.9257 H   0  0  0  0  0  0  0  0  0  0  0  0
   -3.1869   -2.2419   -0.7583 H   0  0  0  0  0  0  0  0  0  0  0  0
   -3.1962   -0.5701   -0.1702 H   0  0  0  0  0  0  0  0  0  0  0  0
  1  2  1  0
  2  3  1  0
  3  4  1  0
  4  5  1  0
  5  6  1  0
  4  7  1  0
  7  8  1  0
  7  9  2  0
  1 10  1  0
  1 11  1  0
  1 12  1  0
  2 13  1  0
  2 14  1  0
  3 15  1  0
  3 16  1  0
  4 17  1  0
  6 18  1  0
  6 19  1  0
  6 20  1  0
  8 21  1  0
  8 22  1  0
  8 23  1  0
M  END
