
     RDKit          3D

 25 25  0  0  0  0  0  0  0  0999 V2000
    2.6048    0.5967    0.7420 C   0  0  0  0  0  0  0  0  0  0  0  0
    2.1708    0.5883   -0.6950 C   0  0  0  0  0  0  0  0  0  0  0  0
    0.6989    0.8188   -0.8538 C   0  0  0  0  0  0  0  0  0  0  0  0
   -0.1387   -0.2192   -0.2090 C   0  0  0  0  0  0  0  0  0  0  0  0
   -1.6550    0.0363   -0.4031 C   0  0  0  0  0  0  0  0  0  0  0  0
   -2.1703   -0.6881   -1.6017 C   0  0  0  0  0  0  0  0  0  0  0  0
   -1.8318   -0.6579    0.9195 C   0  0  0  0  0  0  0  0  0  0  0  0
   -0.4261   -0.1215    1.2654 C   0  0  0  0  0  0  0  0  0  0  0  0
    0.2778   -1.0201    2.0727 O   0  0  0  0  0  0  0  0  0  0  0  0
    1.8089    1.0893    1.3312 H   0  0  0  0  0  0  0  0  0  0  0  0
    3.5602    1.1677    0.8549 H   0  0  0  0  0  0  0  0  0  0  0  0
    2.7219   -0.4503    1.0917 H   0  0  0  0  0  0  0  0  0  0  0  0
    2.4670   -0.4180   -1.1236 H   0  0  0  0  0  0  0  0  0  0  0  0
    2.7522    1.3896   -1.2093 H   0  0  0  0  0  0  0  0  0  0  0  0
    0.4077    1.8292   -0.4817 H   0  0  0  0  0  0  0  0  0  0  0  0
    0.4580    0.7969   -1.9508 H   0  0  0  0  0  0  0  0  0  0  0  0
    0.0583   -1.2611   -0.5400 H   0  0  0  0  0  0  0  0  0  0  0  0
   -1.8597    1.1332   -0.3599 H   0  0  0  0  0  0  0  0  0  0  0  0
   -2.0586   -0.0229   -2.4786 H   0  0  0  0  0  0  0  0  0  0  0  0
   -1.5118   -1.5667   -1.7965 H   0  0  0  0  0  0  0  0  0  0  0  0
   -3.2362   -0.9673   -1.5461 H   0  0  0  0  0  0  0  0  0  0  0  0
   -1.8428   -1.7587    0.7620 H   0  0  0  0  0  0  0  0  0  0  0  0
   -2.6239   -0.2881    1.5718 H   0  0  0  0  0  0  0  0  0  0  0  0
   -0.5489    0.8906    1.6478 H   0  0  0  0  0  0  0  0  0  0  0  0
   -0.0825   -0.8966    2.9900 H   0  0  0  0  0  0  0  0  0  0  0  0
  1  2  1  0
  2  3  1  0
  3  4  1  0
  4  5  1  0
  5  6  1  0
  5  7  1  0
  7  8  1  0
  8  9  1  0
  8  4  1  0
  1 10  1  0
  1 11  1  0
  1 12  1  0
  2 13  1  0
  2 14  1  0
  3 15  1  0
  3 16  1  0
  4 17  1  0
  5 18  1  0
  6 19  1  0
  6 20  1  0
  6 21  1  0
  7 22  1  0
  7 23  1  0
  8 24  1  0
  9 25  1  0
M  END
