
     RDKit          3D

 27 26  0  0  0  0  0  0  0  0999 V2000
   -3.2997    1.7680    0.4778 C   0  0  0  0  0  0  0  0  0  0  0  0
   -2.7269    0.5757   -0.2285 C   0  0  0  0  0  0  0  0  0  0  0  0
   -1.4133    0.1240    0.4359 C   0  0  0  0  0  0  0  0  0  0  0  0
   -0.9493   -1.0519   -0.3463 C   0  0  0  0  0  0  0  0  0  0  0  0
    0.2684   -1.7618    0.0197 C   0  0  0  0  0  0  0  0  0  0  0  0
    1.6109   -1.1689   -0.0242 C   0  0  0  0  0  0  0  0  0  0  0  0
    1.9264    0.0114    0.7970 C   0  0  0  0  0  0  0  0  0  0  0  0
    3.2855    0.4068    0.7242 O   0  0  0  0  0  0  0  0  0  0  0  0
    3.6762    0.7573   -0.5533 C   0  0  0  0  0  0  0  0  0  0  0  0
   -3.0641    2.6873   -0.0968 H   0  0  0  0  0  0  0  0  0  0  0  0
   -4.3854    1.6876    0.5410 H   0  0  0  0  0  0  0  0  0  0  0  0
   -2.9120    1.8419    1.5309 H   0  0  0  0  0  0  0  0  0  0  0  0
   -2.4946    0.8479   -1.2739 H   0  0  0  0  0  0  0  0  0  0  0  0
   -3.4716   -0.2453   -0.1786 H   0  0  0  0  0  0  0  0  0  0  0  0
   -1.6654   -0.2714    1.4698 H   0  0  0  0  0  0  0  0  0  0  0  0
   -0.7518    0.9625    0.5698 H   0  0  0  0  0  0  0  0  0  0  0  0
   -1.8017   -1.8173   -0.2487 H   0  0  0  0  0  0  0  0  0  0  0  0
   -0.9917   -0.7633   -1.4435 H   0  0  0  0  0  0  0  0  0  0  0  0
    0.2487   -2.7460   -0.5886 H   0  0  0  0  0  0  0  0  0  0  0  0
    0.0705   -2.1914    1.0774 H   0  0  0  0  0  0  0  0  0  0  0  0
    2.3296   -1.9920    0.3200 H   0  0  0  0  0  0  0  0  0  0  0  0
    1.9494   -1.0359   -1.1106 H   0  0  0  0  0  0  0  0  0  0  0  0
    1.6965   -0.1584    1.8609 H   0  0  0  0  0  0  0  0  0  0  0  0
    1.3859    0.9438    0.4215 H   0  0  0  0  0  0  0  0  0  0  0  0
    4.7531    1.0926   -0.5529 H   0  0  0  0  0  0  0  0  0  0  0  0
    3.6454   -0.0936   -1.2854 H   0  0  0  0  0  0  0  0  0  0  0  0
    3.0809    1.5904   -0.9610 H   0  0  0  0  0  0  0  0  0  0  0  0
  1  2  1  0
  2  3  1  0
  3  4  1  0
  4  5  1  0
  5  6  1  0
  6  7  1  0
  7  8  1  0
  8  9  1  0
  1 10  1  0
  1 11  1  0
  1 12  1  0
  2 13  1  0
  2 14  1  0
  3 15  1  0
  3 16  1  0
  4 17  1  0
  4 18  1  0
  5 19  1  0
  5 20  1  0
  6 21  1  0
  6 22  1  0
  7 23  1  0
  7 24  1  0
  9 25  1  0
  9 26  1  0
  9 27  1  0
M  END
