
     RDKit          3D

 23 24  0  0  0  0  0  0  0  0999 V2000
    3.2300    0.0678   -0.2832 C   0  0  0  0  0  0  0  0  0  0  0  0
    1.7698    0.1273   -0.6780 C   0  0  0  0  0  0  0  0  0  0  0  0
    0.8594    0.0333    0.5214 C   0  0  0  0  0  0  0  0  0  0  0  0
   -0.5469    0.0803    0.2546 C   0  0  0  0  0  0  0  0  0  0  0  0
   -1.1867    1.2288   -0.4010 C   0  0  0  0  0  0  0  0  0  0  0  0
   -2.4879    0.8430   -0.4563 C   0  0  0  0  0  0  0  0  0  0  0  0
   -2.4677   -0.4854    0.1525 C   0  0  0  0  0  0  0  0  0  0  0  0
   -1.5396   -0.2434    1.3544 C   0  0  0  0  0  0  0  0  0  0  0  0
   -1.2055   -1.0821   -0.4933 C   0  0  0  0  0  0  0  0  0  0  0  0
    3.8241   -0.3768   -1.1179 H   0  0  0  0  0  0  0  0  0  0  0  0
    3.6471    1.0828   -0.1275 H   0  0  0  0  0  0  0  0  0  0  0  0
    3.3876   -0.4804    0.6751 H   0  0  0  0  0  0  0  0  0  0  0  0
    1.5982    1.1098   -1.1754 H   0  0  0  0  0  0  0  0  0  0  0  0
    1.5388   -0.7201   -1.3379 H   0  0  0  0  0  0  0  0  0  0  0  0
    1.1250   -0.9407    1.0247 H   0  0  0  0  0  0  0  0  0  0  0  0
    1.1415    0.8112    1.2600 H   0  0  0  0  0  0  0  0  0  0  0  0
   -0.7388    2.1500   -0.7521 H   0  0  0  0  0  0  0  0  0  0  0  0
   -3.3294    1.3914   -0.8556 H   0  0  0  0  0  0  0  0  0  0  0  0
   -3.3099   -1.0901    0.2741 H   0  0  0  0  0  0  0  0  0  0  0  0
   -1.3220   -1.1570    1.9306 H   0  0  0  0  0  0  0  0  0  0  0  0
   -1.7672    0.6576    1.9236 H   0  0  0  0  0  0  0  0  0  0  0  0
   -0.9497   -2.0772   -0.1196 H   0  0  0  0  0  0  0  0  0  0  0  0
   -1.2701   -0.9301   -1.5734 H   0  0  0  0  0  0  0  0  0  0  0  0
  1  2  1  0
  2  3  1  0
  3  4  1  0
  4  5  1  0
  5  6  2  0
  6  7  1  0
  7  8  1  0
  7  9  1  0
  8  4  1  0
  9  4  1  0
  1 10  1  0
  1 11  1  0
  1 12  1  0
  2 13  1  0
  2 14  1  0
  3 15  1  0
  3 16  1  0
  5 17  1  0
  6 18  1  0
  7 19  1  0
  8 20  1  0
  8 21  1  0
  9 22  1  0
  9 23  1  0
M  END
