
     RDKit          3D

 21 20  0  0  0  0  0  0  0  0999 V2000
   -4.1681   -0.2232    0.6371 C   0  0  0  0  0  0  0  0  0  0  0  0
   -2.7755    0.2414    0.2986 C   0  0  0  0  0  0  0  0  0  0  0  0
   -1.8407   -0.9616    0.1423 C   0  0  0  0  0  0  0  0  0  0  0  0
   -0.5207   -0.4205   -0.1832 C   0  0  0  0  0  0  0  0  0  0  0  0
    0.5935    0.0174   -0.4436 C   0  0  0  0  0  0  0  0  0  0  0  0
    1.8981    0.5263   -0.7229 C   0  0  0  0  0  0  0  0  0  0  0  0
    2.0411    1.4328   -1.5697 O   0  0  0  0  0  0  0  0  0  0  0  0
    3.0543   -0.0304   -0.0035 C   0  0  0  0  0  0  0  0  0  0  0  0
    4.3564    0.5794   -0.3801 C   0  0  0  0  0  0  0  0  0  0  0  0
   -4.4895    0.2208    1.5958 H   0  0  0  0  0  0  0  0  0  0  0  0
   -4.1899   -1.3377    0.6598 H   0  0  0  0  0  0  0  0  0  0  0  0
   -4.9067    0.1327   -0.1337 H   0  0  0  0  0  0  0  0  0  0  0  0
   -2.3602    0.8906    1.0971 H   0  0  0  0  0  0  0  0  0  0  0  0
   -2.7806    0.8669   -0.6244 H   0  0  0  0  0  0  0  0  0  0  0  0
   -2.1951   -1.6506   -0.6221 H   0  0  0  0  0  0  0  0  0  0  0  0
   -1.8414   -1.4536    1.1534 H   0  0  0  0  0  0  0  0  0  0  0  0
    3.0620   -1.1513   -0.1036 H   0  0  0  0  0  0  0  0  0  0  0  0
    2.8856    0.1898    1.0890 H   0  0  0  0  0  0  0  0  0  0  0  0
    4.4998    1.5161    0.1896 H   0  0  0  0  0  0  0  0  0  0  0  0
    5.1707   -0.1098   -0.0450 H   0  0  0  0  0  0  0  0  0  0  0  0
    4.5069    0.7246   -1.4612 H   0  0  0  0  0  0  0  0  0  0  0  0
  1  2  1  0
  2  3  1  0
  3  4  1  0
  4  5  3  0
  5  6  1  0
  6  7  2  0
  6  8  1  0
  8  9  1  0
  1 10  1  0
  1 11  1  0
  1 12  1  0
  2 13  1  0
  2 14  1  0
  3 15  1  0
  3 16  1  0
  8 17  1  0
  8 18  1  0
  9 19  1  0
  9 20  1  0
  9 21  1  0
M  END
