
     RDKit          3D

 23 23  0  0  0  0  0  0  0  0999 V2000
    3.1378   -0.1160   -0.5145 C   0  0  0  0  0  0  0  0  0  0  0  0
    1.8673    0.4540    0.1293 C   0  0  0  0  0  0  0  0  0  0  0  0
    0.7475   -0.5961    0.0696 C   0  0  0  0  0  0  0  0  0  0  0  0
   -0.4545    0.0051    0.7039 C   0  0  0  0  0  0  0  0  0  0  0  0
   -0.2543    0.3760    2.0538 O   0  0  0  0  0  0  0  0  0  0  0  0
   -1.1484    1.0613   -0.1734 C   0  0  0  0  0  0  0  0  0  0  0  0
   -1.8282   -0.1979    0.2477 C   0  0  0  0  0  0  0  0  0  0  0  0
   -2.2158   -1.1635   -0.8197 C   0  0  0  0  0  0  0  0  0  0  0  0
   -2.8324    0.0052    1.2179 O   0  0  0  0  0  0  0  0  0  0  0  0
    3.7723   -0.5237    0.3094 H   0  0  0  0  0  0  0  0  0  0  0  0
    3.6996    0.6632   -1.0520 H   0  0  0  0  0  0  0  0  0  0  0  0
    2.8337   -0.8742   -1.2477 H   0  0  0  0  0  0  0  0  0  0  0  0
    1.5943    1.3477   -0.4688 H   0  0  0  0  0  0  0  0  0  0  0  0
    2.0647    0.7429    1.1862 H   0  0  0  0  0  0  0  0  0  0  0  0
    0.5737   -0.7686   -1.0191 H   0  0  0  0  0  0  0  0  0  0  0  0
    1.0918   -1.5392    0.4901 H   0  0  0  0  0  0  0  0  0  0  0  0
   -0.2498    1.3664    2.0676 H   0  0  0  0  0  0  0  0  0  0  0  0
   -0.8689    1.1310   -1.2250 H   0  0  0  0  0  0  0  0  0  0  0  0
   -1.3499    2.0233    0.3287 H   0  0  0  0  0  0  0  0  0  0  0  0
   -3.0152   -1.8357   -0.4692 H   0  0  0  0  0  0  0  0  0  0  0  0
   -2.5171   -0.6211   -1.7610 H   0  0  0  0  0  0  0  0  0  0  0  0
   -1.3289   -1.7966   -1.0961 H   0  0  0  0  0  0  0  0  0  0  0  0
   -3.3195    0.8565    1.0422 H   0  0  0  0  0  0  0  0  0  0  0  0
  1  2  1  0
  2  3  1  0
  3  4  1  0
  4  5  1  0
  4  6  1  0
  6  7  1  0
  7  8  1  0
  7  9  1  0
  7  4  1  0
  1 10  1  0
  1 11  1  0
  1 12  1  0
  2 13  1  0
  2 14  1  0
  3 15  1  0
  3 16  1  0
  5 17  1  0
  6 18  1  0
  6 19  1  0
  8 20  1  0
  8 21  1  0
  8 22  1  0
  9 23  1  0
M  END
