
     RDKit          3D

 21 21  0  0  0  0  0  0  0  0999 V2000
    2.8515   -0.5867    0.4309 C   0  0  0  0  0  0  0  0  0  0  0  0
    1.7131    0.1797   -0.2179 C   0  0  0  0  0  0  0  0  0  0  0  0
    0.4427   -0.5247    0.1272 C   0  0  0  0  0  0  0  0  0  0  0  0
   -0.7891    0.1028   -0.4367 C   0  0  0  0  0  0  0  0  0  0  0  0
   -0.8247    0.1826   -1.8163 O   0  0  0  0  0  0  0  0  0  0  0  0
   -2.0332   -0.5263    0.1955 C   0  0  0  0  0  0  0  0  0  0  0  0
   -2.6493    0.8119    0.0733 C   0  0  0  0  0  0  0  0  0  0  0  0
   -3.7624    1.2394   -0.0659 O   0  0  0  0  0  0  0  0  0  0  0  0
   -1.2812    1.3599    0.2002 C   0  0  0  0  0  0  0  0  0  0  0  0
    3.5282    0.0874    0.9926 H   0  0  0  0  0  0  0  0  0  0  0  0
    3.3984   -1.1843   -0.3378 H   0  0  0  0  0  0  0  0  0  0  0  0
    2.4709   -1.3229    1.1841 H   0  0  0  0  0  0  0  0  0  0  0  0
    1.6910    1.1875    0.2597 H   0  0  0  0  0  0  0  0  0  0  0  0
    1.9221    0.2294   -1.2910 H   0  0  0  0  0  0  0  0  0  0  0  0
    0.5092   -1.5623   -0.3034 H   0  0  0  0  0  0  0  0  0  0  0  0
    0.3827   -0.6425    1.2263 H   0  0  0  0  0  0  0  0  0  0  0  0
   -1.1579   -0.6998   -2.1462 H   0  0  0  0  0  0  0  0  0  0  0  0
   -2.4782   -1.3315   -0.3963 H   0  0  0  0  0  0  0  0  0  0  0  0
   -1.8192   -0.7469    1.2565 H   0  0  0  0  0  0  0  0  0  0  0  0
   -1.0323    1.4523    1.2980 H   0  0  0  0  0  0  0  0  0  0  0  0
   -1.0824    2.2951   -0.3750 H   0  0  0  0  0  0  0  0  0  0  0  0
  1  2  1  0
  2  3  1  0
  3  4  1  0
  4  5  1  0
  4  6  1  0
  6  7  1  0
  7  8  2  0
  7  9  1  0
  9  4  1  0
  1 10  1  0
  1 11  1  0
  1 12  1  0
  2 13  1  0
  2 14  1  0
  3 15  1  0
  3 16  1  0
  5 17  1  0
  6 18  1  0
  6 19  1  0
  9 20  1  0
  9 21  1  0
M  END
