
     RDKit          3D

 18 17  0  0  0  0  0  0  0  0999 V2000
   -2.7554   -2.0771   -0.0546 C   0  0  0  0  0  0  0  0  0  0  0  0
   -1.3515   -1.5312    0.0526 C   0  0  0  0  0  0  0  0  0  0  0  0
   -1.3026   -0.0178   -0.0121 C   0  0  0  0  0  0  0  0  0  0  0  0
    0.0418    0.4701    0.1130 C   0  0  0  0  0  0  0  0  0  0  0  0
    1.1461    0.8750    0.2285 C   0  0  0  0  0  0  0  0  0  0  0  0
    2.4841    1.3557    0.3849 C   0  0  0  0  0  0  0  0  0  0  0  0
    3.1639    2.2329   -0.5069 C   0  0  0  0  0  0  0  0  0  0  0  0
    3.1297    0.9379    1.4621 O   0  0  0  0  0  0  0  0  0  0  0  0
   -2.7784   -3.1747   -0.1005 H   0  0  0  0  0  0  0  0  0  0  0  0
   -3.2483   -1.5568   -0.9008 H   0  0  0  0  0  0  0  0  0  0  0  0
   -3.3269   -1.7934    0.8869 H   0  0  0  0  0  0  0  0  0  0  0  0
   -0.7331   -2.0345   -0.7096 H   0  0  0  0  0  0  0  0  0  0  0  0
   -0.9545   -1.8643    1.0580 H   0  0  0  0  0  0  0  0  0  0  0  0
   -1.8706    0.4254    0.8587 H   0  0  0  0  0  0  0  0  0  0  0  0
   -1.8352    0.2934   -0.9366 H   0  0  0  0  0  0  0  0  0  0  0  0
    2.4802    2.9023   -1.1092 H   0  0  0  0  0  0  0  0  0  0  0  0
    3.8793    2.8733    0.1013 H   0  0  0  0  0  0  0  0  0  0  0  0
    3.8315    1.6839   -1.2415 H   0  0  0  0  0  0  0  0  0  0  0  0
  1  2  1  0
  2  3  1  0
  3  4  1  0
  4  5  3  0
  5  6  1  0
  6  7  1  0
  6  8  2  0
  1  9  1  0
  1 10  1  0
  1 11  1  0
  2 12  1  0
  2 13  1  0
  3 14  1  0
  3 15  1  0
  7 16  1  0
  7 17  1  0
  7 18  1  0
M  END
