
     RDKit          3D

 23 24  0  0  0  0  0  0  0  0999 V2000
    2.2744    0.7519   -0.5405 C   0  0  0  0  0  0  0  0  0  0  0  0
    1.9192   -0.6911   -0.3091 C   0  0  0  0  0  0  0  0  0  0  0  0
    0.8111   -0.8931    0.7014 C   0  0  0  0  0  0  0  0  0  0  0  0
   -0.3702   -0.2958    0.3349 C   0  0  0  0  0  0  0  0  0  0  0  0
   -0.6869    1.1264    0.0639 C   0  0  0  0  0  0  0  0  0  0  0  0
   -1.9985    0.4247   -0.1652 C   0  0  0  0  0  0  0  0  0  0  0  0
   -1.1776   -0.6166   -0.8989 C   0  0  0  0  0  0  0  0  0  0  0  0
   -1.6851   -0.3648    1.0656 C   0  0  0  0  0  0  0  0  0  0  0  0
   -1.7536    0.2950    2.2669 O   0  0  0  0  0  0  0  0  0  0  0  0
    3.3767    0.8515   -0.4071 H   0  0  0  0  0  0  0  0  0  0  0  0
    1.8331    1.4253    0.2298 H   0  0  0  0  0  0  0  0  0  0  0  0
    1.9853    1.1100   -1.5522 H   0  0  0  0  0  0  0  0  0  0  0  0
    1.6332   -1.0996   -1.3096 H   0  0  0  0  0  0  0  0  0  0  0  0
    2.8379   -1.2428   -0.0325 H   0  0  0  0  0  0  0  0  0  0  0  0
    1.2072   -0.5147    1.6672 H   0  0  0  0  0  0  0  0  0  0  0  0
    0.7173   -1.9898    0.8353 H   0  0  0  0  0  0  0  0  0  0  0  0
   -0.2745    1.4963   -0.8902 H   0  0  0  0  0  0  0  0  0  0  0  0
   -0.6645    1.8262    0.9186 H   0  0  0  0  0  0  0  0  0  0  0  0
   -2.8642    0.8187   -0.4583 H   0  0  0  0  0  0  0  0  0  0  0  0
   -0.6749   -0.2846   -1.8063 H   0  0  0  0  0  0  0  0  0  0  0  0
   -1.6638   -1.6002   -0.9019 H   0  0  0  0  0  0  0  0  0  0  0  0
   -2.1799   -1.3574    1.0182 H   0  0  0  0  0  0  0  0  0  0  0  0
   -2.6016    0.8244    2.2800 H   0  0  0  0  0  0  0  0  0  0  0  0
  1  2  1  0
  2  3  1  0
  3  4  1  0
  4  5  1  0
  5  6  1  0
  6  7  1  0
  6  8  1  0
  8  9  1  0
  7  4  1  0
  8  4  1  0
  1 10  1  0
  1 11  1  0
  1 12  1  0
  2 13  1  0
  2 14  1  0
  3 15  1  0
  3 16  1  0
  5 17  1  0
  5 18  1  0
  6 19  1  0
  7 20  1  0
  7 21  1  0
  8 22  1  0
  9 23  1  0
M  END
