
     RDKit          3D

 20 19  0  0  0  0  0  0  0  0999 V2000
   -1.7404   -1.9574   -0.5717 C   0  0  0  0  0  0  0  0  0  0  0  0
   -2.3899   -0.6594   -0.9571 C   0  0  0  0  0  0  0  0  0  0  0  0
   -1.4323    0.3691   -1.4654 C   0  0  0  0  0  0  0  0  0  0  0  0
   -0.4604    0.6595   -0.3840 C   0  0  0  0  0  0  0  0  0  0  0  0
    0.3144    0.9006    0.5012 C   0  0  0  0  0  0  0  0  0  0  0  0
    1.2918    1.1964    1.5789 C   0  0  0  0  0  0  0  0  0  0  0  0
    2.5977    1.5341    0.8944 C   0  0  0  0  0  0  0  0  0  0  0  0
    3.6225    1.8381    1.7529 O   0  0  0  0  0  0  0  0  0  0  0  0
   -2.4050   -2.4302    0.2093 H   0  0  0  0  0  0  0  0  0  0  0  0
   -1.7054   -2.5835   -1.4893 H   0  0  0  0  0  0  0  0  0  0  0  0
   -0.7185   -1.8509   -0.1909 H   0  0  0  0  0  0  0  0  0  0  0  0
   -3.1230   -0.8566   -1.7674 H   0  0  0  0  0  0  0  0  0  0  0  0
   -2.9215   -0.2056   -0.0646 H   0  0  0  0  0  0  0  0  0  0  0  0
   -0.8528    0.0302   -2.3460 H   0  0  0  0  0  0  0  0  0  0  0  0
   -1.9682    1.2785   -1.7689 H   0  0  0  0  0  0  0  0  0  0  0  0
    1.3565    0.3168    2.2195 H   0  0  0  0  0  0  0  0  0  0  0  0
    0.9538    2.1134    2.1355 H   0  0  0  0  0  0  0  0  0  0  0  0
    2.8457    0.6416    0.2558 H   0  0  0  0  0  0  0  0  0  0  0  0
    2.3967    2.4445    0.2634 H   0  0  0  0  0  0  0  0  0  0  0  0
    4.3383    2.2580    1.1942 H   0  0  0  0  0  0  0  0  0  0  0  0
  1  2  1  0
  2  3  1  0
  3  4  1  0
  4  5  3  0
  5  6  1  0
  6  7  1  0
  7  8  1  0
  1  9  1  0
  1 10  1  0
  1 11  1  0
  2 12  1  0
  2 13  1  0
  3 14  1  0
  3 15  1  0
  6 16  1  0
  6 17  1  0
  7 18  1  0
  7 19  1  0
  8 20  1  0
M  END
