
     RDKit          3D

 23 22  0  0  0  0  0  0  0  0999 V2000
    3.2669    0.9059    0.4051 C   0  0  0  0  0  0  0  0  0  0  0  0
    2.7294   -0.1256   -0.5149 C   0  0  0  0  0  0  0  0  0  0  0  0
    1.2779   -0.0281   -0.8507 C   0  0  0  0  0  0  0  0  0  0  0  0
    0.3934   -0.1167    0.3316 C   0  0  0  0  0  0  0  0  0  0  0  0
    0.5333    0.7038    1.2231 O   0  0  0  0  0  0  0  0  0  0  0  0
   -0.6514   -1.1481    0.4919 C   0  0  0  0  0  0  0  0  0  0  0  0
   -2.0182   -0.6834    0.0700 C   0  0  0  0  0  0  0  0  0  0  0  0
   -2.4559    0.4090    0.7887 O   0  0  0  0  0  0  0  0  0  0  0  0
   -3.7360    0.7263    0.3074 C   0  0  0  0  0  0  0  0  0  0  0  0
    2.5897    1.6773    0.7580 H   0  0  0  0  0  0  0  0  0  0  0  0
    4.1255    1.4465   -0.0881 H   0  0  0  0  0  0  0  0  0  0  0  0
    3.7638    0.3784    1.2771 H   0  0  0  0  0  0  0  0  0  0  0  0
    2.9128   -1.1592   -0.1174 H   0  0  0  0  0  0  0  0  0  0  0  0
    3.2875   -0.1009   -1.5002 H   0  0  0  0  0  0  0  0  0  0  0  0
    1.0371   -0.9108   -1.5008 H   0  0  0  0  0  0  0  0  0  0  0  0
    1.0793    0.8791   -1.4570 H   0  0  0  0  0  0  0  0  0  0  0  0
   -0.3934   -2.0478   -0.0866 H   0  0  0  0  0  0  0  0  0  0  0  0
   -0.7350   -1.3915    1.5819 H   0  0  0  0  0  0  0  0  0  0  0  0
   -2.7288   -1.5264    0.2770 H   0  0  0  0  0  0  0  0  0  0  0  0
   -2.0141   -0.3859   -1.0015 H   0  0  0  0  0  0  0  0  0  0  0  0
   -4.4526   -0.0988    0.4326 H   0  0  0  0  0  0  0  0  0  0  0  0
   -3.6467    0.9831   -0.7772 H   0  0  0  0  0  0  0  0  0  0  0  0
   -4.1646    1.6138    0.8057 H   0  0  0  0  0  0  0  0  0  0  0  0
  1  2  1  0
  2  3  1  0
  3  4  1  0
  4  5  2  0
  4  6  1  0
  6  7  1  0
  7  8  1  0
  8  9  1  0
  1 10  1  0
  1 11  1  0
  1 12  1  0
  2 13  1  0
  2 14  1  0
  3 15  1  0
  3 16  1  0
  6 17  1  0
  6 18  1  0
  7 19  1  0
  7 20  1  0
  9 21  1  0
  9 22  1  0
  9 23  1  0
M  END
