
     RDKit          3D

 20 21  0  0  0  0  0  0  0  0999 V2000
    2.3390    0.3156   -0.0413 C   0  0  0  0  0  0  0  0  0  0  0  0
    1.4769   -0.2751    1.0285 C   0  0  0  0  0  0  0  0  0  0  0  0
    0.1947   -0.8981    0.4414 C   0  0  0  0  0  0  0  0  0  0  0  0
   -0.5317    0.2445   -0.2586 C   0  0  0  0  0  0  0  0  0  0  0  0
   -0.8776    1.3013    0.6241 C   0  0  0  0  0  0  0  0  0  0  0  0
   -2.0046    0.5152    0.1610 C   0  0  0  0  0  0  0  0  0  0  0  0
   -2.0139   -0.8242   -0.5303 C   0  0  0  0  0  0  0  0  0  0  0  0
   -1.1231   -0.1689   -1.4212 O   0  0  0  0  0  0  0  0  0  0  0  0
    2.4631   -0.3973   -0.8793 H   0  0  0  0  0  0  0  0  0  0  0  0
    1.9645    1.2979   -0.3604 H   0  0  0  0  0  0  0  0  0  0  0  0
    3.3493    0.4718    0.3893 H   0  0  0  0  0  0  0  0  0  0  0  0
    1.1596    0.4447    1.7774 H   0  0  0  0  0  0  0  0  0  0  0  0
    2.0323   -1.1151    1.5195 H   0  0  0  0  0  0  0  0  0  0  0  0
    0.4515   -1.7260   -0.2056 H   0  0  0  0  0  0  0  0  0  0  0  0
   -0.3381   -1.2005    1.3946 H   0  0  0  0  0  0  0  0  0  0  0  0
   -0.7141    1.2452    1.7418 H   0  0  0  0  0  0  0  0  0  0  0  0
   -0.6168    2.3456    0.2921 H   0  0  0  0  0  0  0  0  0  0  0  0
   -2.6201    1.2001   -0.5070 H   0  0  0  0  0  0  0  0  0  0  0  0
   -1.6372   -1.7013   -0.0452 H   0  0  0  0  0  0  0  0  0  0  0  0
   -2.9537   -1.0754   -1.0447 H   0  0  0  0  0  0  0  0  0  0  0  0
  1  2  1  0
  2  3  1  0
  3  4  1  0
  4  5  1  0
  5  6  1  0
  6  7  1  0
  7  8  1  0
  6  4  1  0
  8  4  1  0
  1  9  1  0
  1 10  1  0
  1 11  1  0
  2 12  1  0
  2 13  1  0
  3 14  1  0
  3 15  1  0
  5 16  1  0
  5 17  1  0
  6 18  1  0
  7 19  1  0
  7 20  1  0
M  END
