
     RDKit          3D

 21 21  0  0  0  0  0  0  0  0999 V2000
    3.3506   -0.2491    0.0920 C   0  0  0  0  0  0  0  0  0  0  0  0
    2.0516    0.0256    0.8575 C   0  0  0  0  0  0  0  0  0  0  0  0
    0.9414   -0.0370   -0.1668 C   0  0  0  0  0  0  0  0  0  0  0  0
   -0.3895    0.2093    0.4184 C   0  0  0  0  0  0  0  0  0  0  0  0
   -0.4835    0.4282    1.5966 O   0  0  0  0  0  0  0  0  0  0  0  0
   -1.5790    0.1805   -0.4632 C   0  0  0  0  0  0  0  0  0  0  0  0
   -1.3731   -0.0816   -1.8175 O   0  0  0  0  0  0  0  0  0  0  0  0
   -2.7885   -0.4901    0.1781 C   0  0  0  0  0  0  0  0  0  0  0  0
   -2.7844    0.9860   -0.1362 C   0  0  0  0  0  0  0  0  0  0  0  0
    3.2208   -1.1140   -0.6063 H   0  0  0  0  0  0  0  0  0  0  0  0
    3.5448    0.6584   -0.5152 H   0  0  0  0  0  0  0  0  0  0  0  0
    4.1922   -0.4284    0.7744 H   0  0  0  0  0  0  0  0  0  0  0  0
    1.9429   -0.8190    1.5632 H   0  0  0  0  0  0  0  0  0  0  0  0
    2.1589    1.0000    1.3255 H   0  0  0  0  0  0  0  0  0  0  0  0
    1.0896    0.7115   -0.9737 H   0  0  0  0  0  0  0  0  0  0  0  0
    0.9144   -1.0410   -0.6371 H   0  0  0  0  0  0  0  0  0  0  0  0
   -1.7217   -0.9659   -2.0096 H   0  0  0  0  0  0  0  0  0  0  0  0
   -3.3427   -1.1928   -0.4562 H   0  0  0  0  0  0  0  0  0  0  0  0
   -2.7351   -0.7891    1.2392 H   0  0  0  0  0  0  0  0  0  0  0  0
   -2.7668    1.7204    0.7020 H   0  0  0  0  0  0  0  0  0  0  0  0
   -3.4429    1.2880   -0.9652 H   0  0  0  0  0  0  0  0  0  0  0  0
  1  2  1  0
  2  3  1  0
  3  4  1  0
  4  5  2  0
  4  6  1  0
  6  7  1  0
  6  8  1  0
  8  9  1  0
  9  6  1  0
  1 10  1  0
  1 11  1  0
  1 12  1  0
  2 13  1  0
  2 14  1  0
  3 15  1  0
  3 16  1  0
  7 17  1  0
  8 18  1  0
  8 19  1  0
  9 20  1  0
  9 21  1  0
M  END
