
     RDKit          3D

 23 23  0  0  0  0  0  0  0  0999 V2000
    2.8059   -1.0018   -0.0414 C   0  0  0  0  0  0  0  0  0  0  0  0
    1.4283   -0.4465   -0.4227 C   0  0  0  0  0  0  0  0  0  0  0  0
    1.0771    0.5453    0.6664 C   0  0  0  0  0  0  0  0  0  0  0  0
   -0.2745    1.1969    0.4447 C   0  0  0  0  0  0  0  0  0  0  0  0
   -0.3359    1.8974   -0.7549 O   0  0  0  0  0  0  0  0  0  0  0  0
   -1.3653    0.1683    0.5571 C   0  0  0  0  0  0  0  0  0  0  0  0
   -1.3724   -0.5772    1.7345 O   0  0  0  0  0  0  0  0  0  0  0  0
   -1.6781   -0.5670   -0.7367 C   0  0  0  0  0  0  0  0  0  0  0  0
   -2.6737    0.3487   -0.1141 C   0  0  0  0  0  0  0  0  0  0  0  0
    3.2832   -1.4454   -0.9529 H   0  0  0  0  0  0  0  0  0  0  0  0
    2.7169   -1.7511    0.7465 H   0  0  0  0  0  0  0  0  0  0  0  0
    3.4055   -0.1577    0.3219 H   0  0  0  0  0  0  0  0  0  0  0  0
    1.5039    0.0719   -1.3814 H   0  0  0  0  0  0  0  0  0  0  0  0
    0.7492   -1.3148   -0.4142 H   0  0  0  0  0  0  0  0  0  0  0  0
    1.8757    1.2948    0.7977 H   0  0  0  0  0  0  0  0  0  0  0  0
    1.0398   -0.0345    1.6115 H   0  0  0  0  0  0  0  0  0  0  0  0
   -0.3622    1.9820    1.2478 H   0  0  0  0  0  0  0  0  0  0  0  0
   -0.0355    1.3896   -1.5221 H   0  0  0  0  0  0  0  0  0  0  0  0
   -2.2985   -0.8366    1.9703 H   0  0  0  0  0  0  0  0  0  0  0  0
   -1.2448   -0.2384   -1.6865 H   0  0  0  0  0  0  0  0  0  0  0  0
   -1.7675   -1.6667   -0.6263 H   0  0  0  0  0  0  0  0  0  0  0  0
   -3.5521   -0.1481    0.3268 H   0  0  0  0  0  0  0  0  0  0  0  0
   -2.9251    1.2911   -0.6577 H   0  0  0  0  0  0  0  0  0  0  0  0
  1  2  1  0
  2  3  1  0
  3  4  1  0
  4  5  1  0
  4  6  1  0
  6  7  1  0
  6  8  1  0
  8  9  1  0
  9  6  1  0
  1 10  1  0
  1 11  1  0
  1 12  1  0
  2 13  1  0
  2 14  1  0
  3 15  1  0
  3 16  1  0
  4 17  1  0
  5 18  1  0
  7 19  1  0
  8 20  1  0
  8 21  1  0
  9 22  1  0
  9 23  1  0
M  END
