
     RDKit          3D

 23 23  0  0  0  0  0  0  0  0999 V2000
    3.3855    0.3843   -0.2201 C   0  0  0  0  0  0  0  0  0  0  0  0
    1.8722    0.5271   -0.3158 C   0  0  0  0  0  0  0  0  0  0  0  0
    1.2157   -0.8137   -0.0547 C   0  0  0  0  0  0  0  0  0  0  0  0
   -0.2603   -0.6381   -0.1559 C   0  0  0  0  0  0  0  0  0  0  0  0
   -1.1199   -1.2288   -0.9809 C   0  0  0  0  0  0  0  0  0  0  0  0
   -2.4908   -0.7374   -0.7118 C   0  0  0  0  0  0  0  0  0  0  0  0
   -2.2112    0.6270   -0.1181 C   0  0  0  0  0  0  0  0  0  0  0  0
   -3.2833    1.0973    0.6251 O   0  0  0  0  0  0  0  0  0  0  0  0
   -1.0068    0.3131    0.7461 C   0  0  0  0  0  0  0  0  0  0  0  0
    3.7466    0.1425   -1.2412 H   0  0  0  0  0  0  0  0  0  0  0  0
    3.8710    1.3378    0.0861 H   0  0  0  0  0  0  0  0  0  0  0  0
    3.6725   -0.3859    0.5245 H   0  0  0  0  0  0  0  0  0  0  0  0
    1.5511    1.2513    0.4375 H   0  0  0  0  0  0  0  0  0  0  0  0
    1.5584    0.8216   -1.3531 H   0  0  0  0  0  0  0  0  0  0  0  0
    1.4616   -1.0822    0.9966 H   0  0  0  0  0  0  0  0  0  0  0  0
    1.5227   -1.5720   -0.7764 H   0  0  0  0  0  0  0  0  0  0  0  0
   -0.7920   -1.9599   -1.7233 H   0  0  0  0  0  0  0  0  0  0  0  0
   -3.1180   -0.6800   -1.6195 H   0  0  0  0  0  0  0  0  0  0  0  0
   -2.9208   -1.3668    0.0793 H   0  0  0  0  0  0  0  0  0  0  0  0
   -1.9158    1.3309   -0.9279 H   0  0  0  0  0  0  0  0  0  0  0  0
   -2.9594    1.7210    1.3114 H   0  0  0  0  0  0  0  0  0  0  0  0
   -1.3656   -0.2778    1.6154 H   0  0  0  0  0  0  0  0  0  0  0  0
   -0.4134    1.1886    1.0088 H   0  0  0  0  0  0  0  0  0  0  0  0
  1  2  1  0
  2  3  1  0
  3  4  1  0
  4  5  2  0
  5  6  1  0
  6  7  1  0
  7  8  1  0
  7  9  1  0
  9  4  1  0
  1 10  1  0
  1 11  1  0
  1 12  1  0
  2 13  1  0
  2 14  1  0
  3 15  1  0
  3 16  1  0
  5 17  1  0
  6 18  1  0
  6 19  1  0
  7 20  1  0
  8 21  1  0
  9 22  1  0
  9 23  1  0
M  END
