
     RDKit          3D

 27 26  0  0  0  0  0  0  0  0999 V2000
    2.5952    0.9383    0.9464 C   0  0  0  0  0  0  0  0  0  0  0  0
    2.6795   -0.2909    0.0982 C   0  0  0  0  0  0  0  0  0  0  0  0
    1.3537   -0.4110   -0.6673 C   0  0  0  0  0  0  0  0  0  0  0  0
    0.2742   -0.5182    0.3803 C   0  0  0  0  0  0  0  0  0  0  0  0
   -1.1006   -0.6446   -0.1990 C   0  0  0  0  0  0  0  0  0  0  0  0
   -1.2530   -1.8661   -1.0725 C   0  0  0  0  0  0  0  0  0  0  0  0
   -1.4261    0.6252   -0.9279 C   0  0  0  0  0  0  0  0  0  0  0  0
   -1.3970    1.7373   -0.1005 O   0  0  0  0  0  0  0  0  0  0  0  0
   -2.2834    1.6925    0.9442 C   0  0  0  0  0  0  0  0  0  0  0  0
    3.5759    1.4644    1.0467 H   0  0  0  0  0  0  0  0  0  0  0  0
    1.8497    1.6836    0.5763 H   0  0  0  0  0  0  0  0  0  0  0  0
    2.2578    0.6359    1.9692 H   0  0  0  0  0  0  0  0  0  0  0  0
    2.7509   -1.2232    0.7264 H   0  0  0  0  0  0  0  0  0  0  0  0
    3.5377   -0.3202   -0.5844 H   0  0  0  0  0  0  0  0  0  0  0  0
    1.2553    0.5196   -1.2623 H   0  0  0  0  0  0  0  0  0  0  0  0
    1.3867   -1.2455   -1.3678 H   0  0  0  0  0  0  0  0  0  0  0  0
    0.4422   -1.3433    1.0871 H   0  0  0  0  0  0  0  0  0  0  0  0
    0.2982    0.4207    0.9755 H   0  0  0  0  0  0  0  0  0  0  0  0
   -1.8063   -0.7854    0.6438 H   0  0  0  0  0  0  0  0  0  0  0  0
   -0.9212   -1.6959   -2.1119 H   0  0  0  0  0  0  0  0  0  0  0  0
   -2.3377   -2.0961   -1.1218 H   0  0  0  0  0  0  0  0  0  0  0  0
   -0.7468   -2.7178   -0.5808 H   0  0  0  0  0  0  0  0  0  0  0  0
   -2.4884    0.5613   -1.3057 H   0  0  0  0  0  0  0  0  0  0  0  0
   -0.7444    0.8054   -1.7868 H   0  0  0  0  0  0  0  0  0  0  0  0
   -3.3136    1.6029    0.4906 H   0  0  0  0  0  0  0  0  0  0  0  0
   -2.1112    0.9130    1.6949 H   0  0  0  0  0  0  0  0  0  0  0  0
   -2.3274    2.6601    1.5093 H   0  0  0  0  0  0  0  0  0  0  0  0
  1  2  1  0
  2  3  1  0
  3  4  1  0
  4  5  1  0
  5  6  1  0
  5  7  1  0
  7  8  1  0
  8  9  1  0
  1 10  1  0
  1 11  1  0
  1 12  1  0
  2 13  1  0
  2 14  1  0
  3 15  1  0
  3 16  1  0
  4 17  1  0
  4 18  1  0
  5 19  1  0
  6 20  1  0
  6 21  1  0
  6 22  1  0
  7 23  1  0
  7 24  1  0
  9 25  1  0
  9 26  1  0
  9 27  1  0
M  END
