
     RDKit          3D

 19 18  0  0  0  0  0  0  0  0999 V2000
   -2.4572    0.7049    0.2189 C   0  0  0  0  0  0  0  0  0  0  0  0
   -2.0961   -0.7616    0.1611 C   0  0  0  0  0  0  0  0  0  0  0  0
   -0.7420   -0.9909    0.8112 C   0  0  0  0  0  0  0  0  0  0  0  0
    0.3204   -0.2225    0.1208 C   0  0  0  0  0  0  0  0  0  0  0  0
   -0.0032    0.4967   -0.8760 O   0  0  0  0  0  0  0  0  0  0  0  0
    1.6631   -0.3249    0.6076 C   0  0  0  0  0  0  0  0  0  0  0  0
    1.9142   -1.0553    1.5993 O   0  0  0  0  0  0  0  0  0  0  0  0
    2.8334    0.3775    0.0297 C   0  0  0  0  0  0  0  0  0  0  0  0
    2.5153    1.1617   -1.0469 O   0  0  0  0  0  0  0  0  0  0  0  0
   -1.8217    1.2815    0.8977 H   0  0  0  0  0  0  0  0  0  0  0  0
   -2.4108    1.1355   -0.8103 H   0  0  0  0  0  0  0  0  0  0  0  0
   -3.4998    0.7653    0.5968 H   0  0  0  0  0  0  0  0  0  0  0  0
   -1.9871   -1.0976   -0.8996 H   0  0  0  0  0  0  0  0  0  0  0  0
   -2.8218   -1.3970    0.7125 H   0  0  0  0  0  0  0  0  0  0  0  0
   -0.8128   -0.5743    1.8434 H   0  0  0  0  0  0  0  0  0  0  0  0
   -0.5294   -2.0599    0.9038 H   0  0  0  0  0  0  0  0  0  0  0  0
    3.5645   -0.4137   -0.2833 H   0  0  0  0  0  0  0  0  0  0  0  0
    3.3156    0.9852    0.8137 H   0  0  0  0  0  0  0  0  0  0  0  0
    3.0554    1.9895   -1.0095 H   0  0  0  0  0  0  0  0  0  0  0  0
  1  2  1  0
  2  3  1  0
  3  4  1  0
  4  5  2  0
  4  6  1  0
  6  7  2  0
  6  8  1  0
  8  9  1  0
  1 10  1  0
  1 11  1  0
  1 12  1  0
  2 13  1  0
  2 14  1  0
  3 15  1  0
  3 16  1  0
  8 17  1  0
  8 18  1  0
  9 19  1  0
M  END
