
     RDKit          3D

 22 23  0  0  0  0  0  0  0  0999 V2000
    2.6586    0.3559   -0.1250 C   0  0  0  0  0  0  0  0  0  0  0  0
    1.8465   -0.6847    0.6139 C   0  0  0  0  0  0  0  0  0  0  0  0
    0.6133   -0.0743    1.2358 C   0  0  0  0  0  0  0  0  0  0  0  0
   -0.2449    0.5259    0.1715 C   0  0  0  0  0  0  0  0  0  0  0  0
   -0.7466   -0.4124   -0.8919 C   0  0  0  0  0  0  0  0  0  0  0  0
   -2.1459    0.0279   -0.5358 C   0  0  0  0  0  0  0  0  0  0  0  0
   -2.6082   -0.3655    0.8064 C   0  0  0  0  0  0  0  0  0  0  0  0
   -1.6415    0.7439    0.6461 C   0  0  0  0  0  0  0  0  0  0  0  0
    2.1620    0.5394   -1.1091 H   0  0  0  0  0  0  0  0  0  0  0  0
    2.6849    1.3264    0.4053 H   0  0  0  0  0  0  0  0  0  0  0  0
    3.7116    0.0131   -0.2544 H   0  0  0  0  0  0  0  0  0  0  0  0
    1.5929   -1.5003   -0.1058 H   0  0  0  0  0  0  0  0  0  0  0  0
    2.4414   -1.1447    1.4294 H   0  0  0  0  0  0  0  0  0  0  0  0
    0.0672   -0.7671    1.8797 H   0  0  0  0  0  0  0  0  0  0  0  0
    0.9683    0.7579    1.8858 H   0  0  0  0  0  0  0  0  0  0  0  0
    0.2314    1.4416   -0.2399 H   0  0  0  0  0  0  0  0  0  0  0  0
   -0.4270   -0.0934   -1.9202 H   0  0  0  0  0  0  0  0  0  0  0  0
   -0.5552   -1.4863   -0.7111 H   0  0  0  0  0  0  0  0  0  0  0  0
   -2.7974    0.4808   -1.2959 H   0  0  0  0  0  0  0  0  0  0  0  0
   -2.2749   -1.3801    1.1392 H   0  0  0  0  0  0  0  0  0  0  0  0
   -3.5951   -0.0743    1.2132 H   0  0  0  0  0  0  0  0  0  0  0  0
   -1.9415    1.7702    0.9035 H   0  0  0  0  0  0  0  0  0  0  0  0
  1  2  1  0
  2  3  1  0
  3  4  1  0
  4  5  1  0
  5  6  1  0
  6  7  1  0
  7  8  1  0
  8  4  1  0
  8  6  1  0
  1  9  1  0
  1 10  1  0
  1 11  1  0
  2 12  1  0
  2 13  1  0
  3 14  1  0
  3 15  1  0
  4 16  1  0
  5 17  1  0
  5 18  1  0
  6 19  1  0
  7 20  1  0
  7 21  1  0
  8 22  1  0
M  END
