
     RDKit          3D

 21 21  0  0  0  0  0  0  0  0999 V2000
   -3.1337    0.2697    0.7877 C   0  0  0  0  0  0  0  0  0  0  0  0
   -3.0191   -0.3068   -0.6080 C   0  0  0  0  0  0  0  0  0  0  0  0
   -1.9174    0.4548   -1.3078 C   0  0  0  0  0  0  0  0  0  0  0  0
   -0.6725    0.2682   -0.5501 C   0  0  0  0  0  0  0  0  0  0  0  0
    0.3604    0.1075    0.0556 C   0  0  0  0  0  0  0  0  0  0  0  0
    1.6242   -0.0661    0.8068 C   0  0  0  0  0  0  0  0  0  0  0  0
    2.1286   -1.3417    0.9472 O   0  0  0  0  0  0  0  0  0  0  0  0
    2.8225   -0.5751   -0.0063 C   0  0  0  0  0  0  0  0  0  0  0  0
    4.1852   -0.0573    0.3154 C   0  0  0  0  0  0  0  0  0  0  0  0
   -3.2952   -0.5238    1.5418 H   0  0  0  0  0  0  0  0  0  0  0  0
   -4.0227    0.9558    0.8521 H   0  0  0  0  0  0  0  0  0  0  0  0
   -2.2382    0.8451    1.0897 H   0  0  0  0  0  0  0  0  0  0  0  0
   -3.9595   -0.0756   -1.1524 H   0  0  0  0  0  0  0  0  0  0  0  0
   -2.8477   -1.3892   -0.6143 H   0  0  0  0  0  0  0  0  0  0  0  0
   -2.1999    1.5219   -1.3617 H   0  0  0  0  0  0  0  0  0  0  0  0
   -1.8203    0.0815   -2.3558 H   0  0  0  0  0  0  0  0  0  0  0  0
    1.8160    0.6008    1.6522 H   0  0  0  0  0  0  0  0  0  0  0  0
    2.5873   -0.9005   -1.0482 H   0  0  0  0  0  0  0  0  0  0  0  0
    4.1219    0.9560    0.7544 H   0  0  0  0  0  0  0  0  0  0  0  0
    4.6532   -0.7679    1.0420 H   0  0  0  0  0  0  0  0  0  0  0  0
    4.8269   -0.0575   -0.6100 H   0  0  0  0  0  0  0  0  0  0  0  0
  1  2  1  0
  2  3  1  0
  3  4  1  0
  4  5  3  0
  5  6  1  0
  6  7  1  0
  7  8  1  0
  8  9  1  0
  8  6  1  0
  1 10  1  0
  1 11  1  0
  1 12  1  0
  2 13  1  0
  2 14  1  0
  3 15  1  0
  3 16  1  0
  6 17  1  0
  8 18  1  0
  9 19  1  0
  9 20  1  0
  9 21  1  0
M  END
