
     RDKit          3D

 27 27  0  0  0  0  0  0  0  0999 V2000
    2.7191   -0.0048   -1.0637 C   0  0  0  0  0  0  0  0  0  0  0  0
    2.3017   -0.1884    0.3443 C   0  0  0  0  0  0  0  0  0  0  0  0
    0.9787   -0.8498    0.5464 C   0  0  0  0  0  0  0  0  0  0  0  0
   -0.1834   -0.1365   -0.0562 C   0  0  0  0  0  0  0  0  0  0  0  0
   -1.4664   -0.9054    0.2167 C   0  0  0  0  0  0  0  0  0  0  0  0
   -1.9361   -1.7985   -0.8725 C   0  0  0  0  0  0  0  0  0  0  0  0
   -2.1500    0.4701    0.2734 C   0  0  0  0  0  0  0  0  0  0  0  0
   -0.7869    0.9780    0.7628 C   0  0  0  0  0  0  0  0  0  0  0  0
   -0.4476    2.3677    0.3215 C   0  0  0  0  0  0  0  0  0  0  0  0
    1.9217    0.2296   -1.7734 H   0  0  0  0  0  0  0  0  0  0  0  0
    3.4679    0.8405   -1.1039 H   0  0  0  0  0  0  0  0  0  0  0  0
    3.2919   -0.8862   -1.4746 H   0  0  0  0  0  0  0  0  0  0  0  0
    2.3052    0.7908    0.8996 H   0  0  0  0  0  0  0  0  0  0  0  0
    3.0679   -0.8100    0.8549 H   0  0  0  0  0  0  0  0  0  0  0  0
    0.9987   -1.8835    0.1265 H   0  0  0  0  0  0  0  0  0  0  0  0
    0.8018   -0.9549    1.6342 H   0  0  0  0  0  0  0  0  0  0  0  0
   -0.1245    0.0533   -1.1442 H   0  0  0  0  0  0  0  0  0  0  0  0
   -1.4998   -1.3630    1.2270 H   0  0  0  0  0  0  0  0  0  0  0  0
   -2.8791   -1.4140   -1.3237 H   0  0  0  0  0  0  0  0  0  0  0  0
   -1.1738   -2.0398   -1.6331 H   0  0  0  0  0  0  0  0  0  0  0  0
   -2.2268   -2.7926   -0.4214 H   0  0  0  0  0  0  0  0  0  0  0  0
   -2.3554    0.8698   -0.7385 H   0  0  0  0  0  0  0  0  0  0  0  0
   -2.9377    0.5600    1.0214 H   0  0  0  0  0  0  0  0  0  0  0  0
   -0.6846    0.7797    1.8374 H   0  0  0  0  0  0  0  0  0  0  0  0
    0.6484    2.4969    0.4144 H   0  0  0  0  0  0  0  0  0  0  0  0
   -0.9104    3.0713    1.0365 H   0  0  0  0  0  0  0  0  0  0  0  0
   -0.7406    2.5198   -0.7155 H   0  0  0  0  0  0  0  0  0  0  0  0
  1  2  1  0
  2  3  1  0
  3  4  1  0
  4  5  1  0
  5  6  1  0
  5  7  1  0
  7  8  1  0
  8  9  1  0
  8  4  1  0
  1 10  1  0
  1 11  1  0
  1 12  1  0
  2 13  1  0
  2 14  1  0
  3 15  1  0
  3 16  1  0
  4 17  1  0
  5 18  1  0
  6 19  1  0
  6 20  1  0
  6 21  1  0
  7 22  1  0
  7 23  1  0
  8 24  1  0
  9 25  1  0
  9 26  1  0
  9 27  1  0
M  END
