
     RDKit          3D

 27 26  0  0  0  0  0  0  0  0999 V2000
    3.9435   -0.7488    0.5103 C   0  0  0  0  0  0  0  0  0  0  0  0
    2.4369   -0.6632    0.3029 C   0  0  0  0  0  0  0  0  0  0  0  0
    2.1542    0.6902   -0.3117 C   0  0  0  0  0  0  0  0  0  0  0  0
    0.6762    0.8923   -0.5659 C   0  0  0  0  0  0  0  0  0  0  0  0
   -0.0717    0.8182    0.5805 O   0  0  0  0  0  0  0  0  0  0  0  0
   -1.4238    1.0088    0.3993 C   0  0  0  0  0  0  0  0  0  0  0  0
   -2.1012    0.0353   -0.5044 C   0  0  0  0  0  0  0  0  0  0  0  0
   -3.5947    0.3763   -0.5992 C   0  0  0  0  0  0  0  0  0  0  0  0
   -2.0443   -1.3599    0.0846 C   0  0  0  0  0  0  0  0  0  0  0  0
    4.4306   -1.4384   -0.1852 H   0  0  0  0  0  0  0  0  0  0  0  0
    4.4263    0.2513    0.4209 H   0  0  0  0  0  0  0  0  0  0  0  0
    4.1835   -1.1026    1.5472 H   0  0  0  0  0  0  0  0  0  0  0  0
    1.9521   -0.7476    1.3032 H   0  0  0  0  0  0  0  0  0  0  0  0
    2.1493   -1.4970   -0.3618 H   0  0  0  0  0  0  0  0  0  0  0  0
    2.6101    1.4717    0.2938 H   0  0  0  0  0  0  0  0  0  0  0  0
    2.6572    0.6997   -1.3093 H   0  0  0  0  0  0  0  0  0  0  0  0
    0.3445    0.0914   -1.2629 H   0  0  0  0  0  0  0  0  0  0  0  0
    0.5620    1.9086   -0.9968 H   0  0  0  0  0  0  0  0  0  0  0  0
   -1.5918    2.0290   -0.0437 H   0  0  0  0  0  0  0  0  0  0  0  0
   -1.9745    1.0009    1.3675 H   0  0  0  0  0  0  0  0  0  0  0  0
   -1.6477    0.0397   -1.5244 H   0  0  0  0  0  0  0  0  0  0  0  0
   -3.7609    1.4110   -0.9008 H   0  0  0  0  0  0  0  0  0  0  0  0
   -4.0693   -0.3565   -1.2787 H   0  0  0  0  0  0  0  0  0  0  0  0
   -4.0153    0.2445    0.4205 H   0  0  0  0  0  0  0  0  0  0  0  0
   -1.0033   -1.6563    0.2964 H   0  0  0  0  0  0  0  0  0  0  0  0
   -2.6638   -1.3289    1.0131 H   0  0  0  0  0  0  0  0  0  0  0  0
   -2.5642   -2.0697   -0.5976 H   0  0  0  0  0  0  0  0  0  0  0  0
  1  2  1  0
  2  3  1  0
  3  4  1  0
  4  5  1  0
  5  6  1  0
  6  7  1  0
  7  8  1  0
  7  9  1  0
  1 10  1  0
  1 11  1  0
  1 12  1  0
  2 13  1  0
  2 14  1  0
  3 15  1  0
  3 16  1  0
  4 17  1  0
  4 18  1  0
  6 19  1  0
  6 20  1  0
  7 21  1  0
  8 22  1  0
  8 23  1  0
  8 24  1  0
  9 25  1  0
  9 26  1  0
  9 27  1  0
M  END
