
     RDKit          3D

 21 20  0  0  0  0  0  0  0  0999 V2000
    3.1302    0.5399    0.0615 C   0  0  0  0  0  0  0  0  0  0  0  0
    2.0460   -0.4976    0.2427 C   0  0  0  0  0  0  0  0  0  0  0  0
    0.7279    0.2025   -0.0673 C   0  0  0  0  0  0  0  0  0  0  0  0
   -0.4255   -0.7165    0.0756 C   0  0  0  0  0  0  0  0  0  0  0  0
   -0.2241   -1.8611    0.4035 O   0  0  0  0  0  0  0  0  0  0  0  0
   -1.7700   -0.1565   -0.1990 C   0  0  0  0  0  0  0  0  0  0  0  0
   -2.0093    0.9821    0.7647 C   0  0  0  0  0  0  0  0  0  0  0  0
   -2.8366   -1.1605   -0.1846 C   0  0  0  0  0  0  0  0  0  0  0  0
   -2.5701   -2.3373   -0.1973 O   0  0  0  0  0  0  0  0  0  0  0  0
    4.1454    0.0996    0.0885 H   0  0  0  0  0  0  0  0  0  0  0  0
    2.9923    1.3214    0.8433 H   0  0  0  0  0  0  0  0  0  0  0  0
    2.9465    1.0391   -0.9140 H   0  0  0  0  0  0  0  0  0  0  0  0
    2.1556   -1.3099   -0.4867 H   0  0  0  0  0  0  0  0  0  0  0  0
    2.0400   -0.9335    1.2617 H   0  0  0  0  0  0  0  0  0  0  0  0
    0.7714    0.4832   -1.1555 H   0  0  0  0  0  0  0  0  0  0  0  0
    0.6736    1.0791    0.5854 H   0  0  0  0  0  0  0  0  0  0  0  0
   -1.7389    0.2877   -1.2356 H   0  0  0  0  0  0  0  0  0  0  0  0
   -2.0470    1.9560    0.2505 H   0  0  0  0  0  0  0  0  0  0  0  0
   -2.9444    0.7966    1.3304 H   0  0  0  0  0  0  0  0  0  0  0  0
   -1.2009    1.0336    1.5381 H   0  0  0  0  0  0  0  0  0  0  0  0
   -3.8621   -0.8478   -0.1626 H   0  0  0  0  0  0  0  0  0  0  0  0
  1  2  1  0
  2  3  1  0
  3  4  1  0
  4  5  2  0
  4  6  1  0
  6  7  1  0
  6  8  1  0
  8  9  2  0
  1 10  1  0
  1 11  1  0
  1 12  1  0
  2 13  1  0
  2 14  1  0
  3 15  1  0
  3 16  1  0
  6 17  1  0
  7 18  1  0
  7 19  1  0
  7 20  1  0
  8 21  1  0
M  END
