
     RDKit          3D

 25 25  0  0  0  0  0  0  0  0999 V2000
    3.0406    0.8431    0.2158 C   0  0  0  0  0  0  0  0  0  0  0  0
    2.2074    0.0960   -0.7983 C   0  0  0  0  0  0  0  0  0  0  0  0
    1.2563   -0.8689   -0.1577 C   0  0  0  0  0  0  0  0  0  0  0  0
    0.2771   -0.2335    0.7696 C   0  0  0  0  0  0  0  0  0  0  0  0
   -0.6036    0.7848    0.1222 C   0  0  0  0  0  0  0  0  0  0  0  0
   -1.7381   -0.0357   -0.4552 C   0  0  0  0  0  0  0  0  0  0  0  0
   -3.0887    0.5452   -0.1418 C   0  0  0  0  0  0  0  0  0  0  0  0
   -1.5568   -1.3720    0.2022 C   0  0  0  0  0  0  0  0  0  0  0  0
   -0.6103   -1.2317    1.1983 O   0  0  0  0  0  0  0  0  0  0  0  0
    2.4435    1.4033    0.9367 H   0  0  0  0  0  0  0  0  0  0  0  0
    3.6637    1.5768   -0.3487 H   0  0  0  0  0  0  0  0  0  0  0  0
    3.7508    0.1887    0.7526 H   0  0  0  0  0  0  0  0  0  0  0  0
    1.7431    0.8170   -1.4725 H   0  0  0  0  0  0  0  0  0  0  0  0
    2.9205   -0.5080   -1.4123 H   0  0  0  0  0  0  0  0  0  0  0  0
    1.8080   -1.6559    0.3537 H   0  0  0  0  0  0  0  0  0  0  0  0
    0.6792   -1.3540   -0.9786 H   0  0  0  0  0  0  0  0  0  0  0  0
    0.7353    0.1841    1.6818 H   0  0  0  0  0  0  0  0  0  0  0  0
   -1.0401    1.4829    0.8418 H   0  0  0  0  0  0  0  0  0  0  0  0
   -0.0911    1.3364   -0.6884 H   0  0  0  0  0  0  0  0  0  0  0  0
   -1.6513   -0.1200   -1.5650 H   0  0  0  0  0  0  0  0  0  0  0  0
   -3.4241    1.2151   -0.9672 H   0  0  0  0  0  0  0  0  0  0  0  0
   -3.7985   -0.3150   -0.0572 H   0  0  0  0  0  0  0  0  0  0  0  0
   -3.1067    1.0441    0.8448 H   0  0  0  0  0  0  0  0  0  0  0  0
   -1.2718   -2.1320   -0.5456 H   0  0  0  0  0  0  0  0  0  0  0  0
   -2.5443   -1.6908    0.6111 H   0  0  0  0  0  0  0  0  0  0  0  0
  1  2  1  0
  2  3  1  0
  3  4  1  0
  4  5  1  0
  5  6  1  0
  6  7  1  0
  6  8  1  0
  8  9  1  0
  9  4  1  0
  1 10  1  0
  1 11  1  0
  1 12  1  0
  2 13  1  0
  2 14  1  0
  3 15  1  0
  3 16  1  0
  4 17  1  0
  5 18  1  0
  5 19  1  0
  6 20  1  0
  7 21  1  0
  7 22  1  0
  7 23  1  0
  8 24  1  0
  8 25  1  0
M  END
