
     RDKit          3D

 24 24  0  0  0  0  0  0  0  0999 V2000
    3.6388   -0.2104   -0.1312 C   0  0  0  0  0  0  0  0  0  0  0  0
    2.1957   -0.5188   -0.5018 C   0  0  0  0  0  0  0  0  0  0  0  0
    1.3290    0.4748    0.2035 C   0  0  0  0  0  0  0  0  0  0  0  0
   -0.1395    0.2847   -0.0761 C   0  0  0  0  0  0  0  0  0  0  0  0
   -1.0429    1.2767    0.6247 C   0  0  0  0  0  0  0  0  0  0  0  0
   -1.0874   -0.1531    0.9567 C   0  0  0  0  0  0  0  0  0  0  0  0
   -2.3055   -0.9392    0.5302 C   0  0  0  0  0  0  0  0  0  0  0  0
   -3.1785   -0.1372   -0.4423 C   0  0  0  0  0  0  0  0  0  0  0  0
    3.9306    0.6838   -0.7307 H   0  0  0  0  0  0  0  0  0  0  0  0
    3.6400    0.1543    0.9375 H   0  0  0  0  0  0  0  0  0  0  0  0
    4.3086   -1.0650   -0.2834 H   0  0  0  0  0  0  0  0  0  0  0  0
    2.0590   -0.4074   -1.6057 H   0  0  0  0  0  0  0  0  0  0  0  0
    1.9782   -1.5651   -0.2522 H   0  0  0  0  0  0  0  0  0  0  0  0
    1.5542    0.4432    1.2850 H   0  0  0  0  0  0  0  0  0  0  0  0
    1.6071    1.4858   -0.1772 H   0  0  0  0  0  0  0  0  0  0  0  0
   -0.3668    0.0009   -1.1120 H   0  0  0  0  0  0  0  0  0  0  0  0
   -0.5734    1.9801    1.3641 H   0  0  0  0  0  0  0  0  0  0  0  0
   -1.7896    1.7874   -0.0043 H   0  0  0  0  0  0  0  0  0  0  0  0
   -0.7188   -0.4236    1.9861 H   0  0  0  0  0  0  0  0  0  0  0  0
   -2.8893   -1.3460    1.3526 H   0  0  0  0  0  0  0  0  0  0  0  0
   -1.9485   -1.8225   -0.0713 H   0  0  0  0  0  0  0  0  0  0  0  0
   -3.5584    0.7743    0.0490 H   0  0  0  0  0  0  0  0  0  0  0  0
   -2.6313    0.0684   -1.3801 H   0  0  0  0  0  0  0  0  0  0  0  0
   -4.0116   -0.8262   -0.7149 H   0  0  0  0  0  0  0  0  0  0  0  0
  1  2  1  0
  2  3  1  0
  3  4  1  0
  4  5  1  0
  5  6  1  0
  6  7  1  0
  7  8  1  0
  6  4  1  0
  1  9  1  0
  1 10  1  0
  1 11  1  0
  2 12  1  0
  2 13  1  0
  3 14  1  0
  3 15  1  0
  4 16  1  0
  5 17  1  0
  5 18  1  0
  6 19  1  0
  7 20  1  0
  7 21  1  0
  8 22  1  0
  8 23  1  0
  8 24  1  0
M  END
