
     RDKit          3D

 25 25  0  0  0  0  0  0  0  0999 V2000
    3.2811    0.2999    0.5251 C   0  0  0  0  0  0  0  0  0  0  0  0
    2.1071   -0.1096   -0.3621 C   0  0  0  0  0  0  0  0  0  0  0  0
    0.8178    0.2161    0.3531 C   0  0  0  0  0  0  0  0  0  0  0  0
   -0.3503   -0.1881   -0.5231 C   0  0  0  0  0  0  0  0  0  0  0  0
   -0.3375   -1.6612   -0.8337 C   0  0  0  0  0  0  0  0  0  0  0  0
   -1.6114    0.1826    0.2276 C   0  0  0  0  0  0  0  0  0  0  0  0
   -1.7757   -0.4283    1.4632 O   0  0  0  0  0  0  0  0  0  0  0  0
   -2.1846    1.5104   -0.0691 C   0  0  0  0  0  0  0  0  0  0  0  0
   -2.9186    0.2671   -0.5618 C   0  0  0  0  0  0  0  0  0  0  0  0
    4.1919    0.3969   -0.1025 H   0  0  0  0  0  0  0  0  0  0  0  0
    3.3820   -0.4208    1.3437 H   0  0  0  0  0  0  0  0  0  0  0  0
    3.0826    1.2981    0.9673 H   0  0  0  0  0  0  0  0  0  0  0  0
    2.1704   -1.1729   -0.6166 H   0  0  0  0  0  0  0  0  0  0  0  0
    2.1702    0.5605   -1.2596 H   0  0  0  0  0  0  0  0  0  0  0  0
    0.7587    1.2855    0.5550 H   0  0  0  0  0  0  0  0  0  0  0  0
    0.7370   -0.4203    1.2734 H   0  0  0  0  0  0  0  0  0  0  0  0
   -0.3027    0.4323   -1.4445 H   0  0  0  0  0  0  0  0  0  0  0  0
    0.4411   -2.1879   -0.2375 H   0  0  0  0  0  0  0  0  0  0  0  0
   -1.3167   -2.1419   -0.5446 H   0  0  0  0  0  0  0  0  0  0  0  0
   -0.1546   -1.8170   -1.9163 H   0  0  0  0  0  0  0  0  0  0  0  0
   -1.1065   -0.1761    2.1269 H   0  0  0  0  0  0  0  0  0  0  0  0
   -2.6628    2.1269    0.7185 H   0  0  0  0  0  0  0  0  0  0  0  0
   -1.7434    2.0935   -0.8794 H   0  0  0  0  0  0  0  0  0  0  0  0
   -3.8646    0.0838   -0.0426 H   0  0  0  0  0  0  0  0  0  0  0  0
   -2.8103   -0.0296   -1.6218 H   0  0  0  0  0  0  0  0  0  0  0  0
  1  2  1  0
  2  3  1  0
  3  4  1  0
  4  5  1  0
  4  6  1  0
  6  7  1  0
  6  8  1  0
  8  9  1  0
  9  6  1  0
  1 10  1  0
  1 11  1  0
  1 12  1  0
  2 13  1  0
  2 14  1  0
  3 15  1  0
  3 16  1  0
  4 17  1  0
  5 18  1  0
  5 19  1  0
  5 20  1  0
  7 21  1  0
  8 22  1  0
  8 23  1  0
  9 24  1  0
  9 25  1  0
M  END
