
     RDKit          3D

 26 25  0  0  0  0  0  0  0  0999 V2000
    3.2101    0.6401   -0.8096 C   0  0  0  0  0  0  0  0  0  0  0  0
    2.0564   -0.2293   -0.3508 C   0  0  0  0  0  0  0  0  0  0  0  0
    0.8133    0.5919   -0.2557 C   0  0  0  0  0  0  0  0  0  0  0  0
   -0.4082   -0.0990    0.1779 C   0  0  0  0  0  0  0  0  0  0  0  0
   -0.7177   -1.2227   -0.8154 C   0  0  0  0  0  0  0  0  0  0  0  0
   -0.4611   -0.6523    1.5358 C   0  0  0  0  0  0  0  0  0  0  0  0
   -1.5591    0.9114    0.0494 C   0  0  0  0  0  0  0  0  0  0  0  0
   -2.8650    0.2816    0.4779 C   0  0  0  0  0  0  0  0  0  0  0  0
    4.1685    0.3588   -0.3103 H   0  0  0  0  0  0  0  0  0  0  0  0
    3.0214    1.6992   -0.5028 H   0  0  0  0  0  0  0  0  0  0  0  0
    3.2857    0.6370   -1.9109 H   0  0  0  0  0  0  0  0  0  0  0  0
    2.3655   -0.7044    0.5875 H   0  0  0  0  0  0  0  0  0  0  0  0
    1.9655   -1.0441   -1.1050 H   0  0  0  0  0  0  0  0  0  0  0  0
    1.0403    1.4627    0.4189 H   0  0  0  0  0  0  0  0  0  0  0  0
    0.6321    1.0457   -1.2540 H   0  0  0  0  0  0  0  0  0  0  0  0
   -1.5505   -1.8375   -0.3638 H   0  0  0  0  0  0  0  0  0  0  0  0
    0.1284   -1.9125   -0.9252 H   0  0  0  0  0  0  0  0  0  0  0  0
   -1.1179   -0.8280   -1.7608 H   0  0  0  0  0  0  0  0  0  0  0  0
   -1.1979   -1.4888    1.5711 H   0  0  0  0  0  0  0  0  0  0  0  0
   -0.8494    0.1092    2.2708 H   0  0  0  0  0  0  0  0  0  0  0  0
    0.4810   -1.0389    1.9487 H   0  0  0  0  0  0  0  0  0  0  0  0
   -1.2754    1.7727    0.6964 H   0  0  0  0  0  0  0  0  0  0  0  0
   -1.6160    1.1859   -1.0006 H   0  0  0  0  0  0  0  0  0  0  0  0
   -3.6420    1.0529    0.3867 H   0  0  0  0  0  0  0  0  0  0  0  0
   -3.1022   -0.5195   -0.2347 H   0  0  0  0  0  0  0  0  0  0  0  0
   -2.8059   -0.1721    1.4785 H   0  0  0  0  0  0  0  0  0  0  0  0
  1  2  1  0
  2  3  1  0
  3  4  1  0
  4  5  1  0
  4  6  1  0
  4  7  1  0
  7  8  1  0
  1  9  1  0
  1 10  1  0
  1 11  1  0
  2 12  1  0
  2 13  1  0
  3 14  1  0
  3 15  1  0
  5 16  1  0
  5 17  1  0
  5 18  1  0
  6 19  1  0
  6 20  1  0
  6 21  1  0
  7 22  1  0
  7 23  1  0
  8 24  1  0
  8 25  1  0
  8 26  1  0
M  END
