
     RDKit          3D

 20 20  0  0  0  0  0  0  0  0999 V2000
   -2.9475    0.5194   -0.1184 C   0  0  0  0  0  0  0  0  0  0  0  0
   -1.7370   -0.1084    0.5093 C   0  0  0  0  0  0  0  0  0  0  0  0
   -0.4695    0.2263   -0.2349 C   0  0  0  0  0  0  0  0  0  0  0  0
    0.6729   -0.4718    0.5066 C   0  0  0  0  0  0  0  0  0  0  0  0
    0.4051   -1.8182    0.4837 O   0  0  0  0  0  0  0  0  0  0  0  0
    1.9320   -0.1067   -0.2382 C   0  0  0  0  0  0  0  0  0  0  0  0
    3.0783    0.4634    0.3871 C   0  0  0  0  0  0  0  0  0  0  0  0
    2.1021    1.3677   -0.1353 O   0  0  0  0  0  0  0  0  0  0  0  0
   -3.8351   -0.1390    0.1018 H   0  0  0  0  0  0  0  0  0  0  0  0
   -3.1671    1.5267    0.2859 H   0  0  0  0  0  0  0  0  0  0  0  0
   -2.8711    0.5150   -1.2355 H   0  0  0  0  0  0  0  0  0  0  0  0
   -1.6672    0.1868    1.5579 H   0  0  0  0  0  0  0  0  0  0  0  0
   -1.8633   -1.2148    0.4504 H   0  0  0  0  0  0  0  0  0  0  0  0
   -0.2373    1.2897   -0.2738 H   0  0  0  0  0  0  0  0  0  0  0  0
   -0.4994   -0.2399   -1.2496 H   0  0  0  0  0  0  0  0  0  0  0  0
    0.6802   -0.1366    1.5526 H   0  0  0  0  0  0  0  0  0  0  0  0
    1.2072   -2.3618    0.6217 H   0  0  0  0  0  0  0  0  0  0  0  0
    1.9536   -0.4566   -1.2869 H   0  0  0  0  0  0  0  0  0  0  0  0
    3.2279    0.4671    1.4831 H   0  0  0  0  0  0  0  0  0  0  0  0
    4.0353    0.4918   -0.1737 H   0  0  0  0  0  0  0  0  0  0  0  0
  1  2  1  0
  2  3  1  0
  3  4  1  0
  4  5  1  0
  4  6  1  0
  6  7  1  0
  7  8  1  0
  8  6  1  0
  1  9  1  0
  1 10  1  0
  1 11  1  0
  2 12  1  0
  2 13  1  0
  3 14  1  0
  3 15  1  0
  4 16  1  0
  5 17  1  0
  6 18  1  0
  7 19  1  0
  7 20  1  0
M  END
