
     RDKit          3D

 19 20  0  0  0  0  0  0  0  0999 V2000
   -2.4975    0.6666    0.4427 C   0  0  0  0  0  0  0  0  0  0  0  0
   -1.0178    0.5379    0.1464 C   0  0  0  0  0  0  0  0  0  0  0  0
   -0.5440   -0.8865    0.3595 C   0  0  0  0  0  0  0  0  0  0  0  0
    0.9188   -0.9639    0.0552 C   0  0  0  0  0  0  0  0  0  0  0  0
    1.2967   -0.5859   -1.3383 C   0  0  0  0  0  0  0  0  0  0  0  0
    1.0636   -0.8846   -2.4798 O   0  0  0  0  0  0  0  0  0  0  0  0
    2.2004    0.4470   -0.7321 C   0  0  0  0  0  0  0  0  0  0  0  0
    3.1136    0.0307    0.2326 O   0  0  0  0  0  0  0  0  0  0  0  0
    1.7611    0.2013    0.5259 C   0  0  0  0  0  0  0  0  0  0  0  0
   -2.6293    0.8170    1.5243 H   0  0  0  0  0  0  0  0  0  0  0  0
   -3.0172   -0.2597    0.0863 H   0  0  0  0  0  0  0  0  0  0  0  0
   -2.8681    1.5336   -0.1386 H   0  0  0  0  0  0  0  0  0  0  0  0
   -0.8206    0.7809   -0.9264 H   0  0  0  0  0  0  0  0  0  0  0  0
   -0.4546    1.2049    0.8300 H   0  0  0  0  0  0  0  0  0  0  0  0
   -0.7210   -1.2374    1.3821 H   0  0  0  0  0  0  0  0  0  0  0  0
   -1.0853   -1.5474   -0.3682 H   0  0  0  0  0  0  0  0  0  0  0  0
    1.3285   -1.9609    0.3187 H   0  0  0  0  0  0  0  0  0  0  0  0
    2.5116    1.3115   -1.3131 H   0  0  0  0  0  0  0  0  0  0  0  0
    1.4612    0.7950    1.3930 H   0  0  0  0  0  0  0  0  0  0  0  0
  1  2  1  0
  2  3  1  0
  3  4  1  0
  4  5  1  0
  5  6  2  0
  5  7  1  0
  7  8  1  0
  8  9  1  0
  9  4  1  0
  9  7  1  0
  1 10  1  0
  1 11  1  0
  1 12  1  0
  2 13  1  0
  2 14  1  0
  3 15  1  0
  3 16  1  0
  4 17  1  0
  7 18  1  0
  9 19  1  0
M  END
