
     RDKit          3D

 20 20  0  0  0  0  0  0  0  0999 V2000
    2.4804   -0.3776    0.4352 C   0  0  0  0  0  0  0  0  0  0  0  0
    1.6189   -0.6808   -0.7556 C   0  0  0  0  0  0  0  0  0  0  0  0
    0.4534    0.2826   -0.8619 C   0  0  0  0  0  0  0  0  0  0  0  0
   -0.4421    0.2327    0.3498 C   0  0  0  0  0  0  0  0  0  0  0  0
   -1.5819    1.2149    0.1806 C   0  0  0  0  0  0  0  0  0  0  0  0
   -2.5879    0.0886    0.2162 C   0  0  0  0  0  0  0  0  0  0  0  0
   -1.4456   -0.8611    0.3361 C   0  0  0  0  0  0  0  0  0  0  0  0
   -1.4327   -2.0793    0.3949 O   0  0  0  0  0  0  0  0  0  0  0  0
    3.2810   -1.1685    0.4558 H   0  0  0  0  0  0  0  0  0  0  0  0
    2.9949    0.5924    0.2919 H   0  0  0  0  0  0  0  0  0  0  0  0
    1.9536   -0.4555    1.3968 H   0  0  0  0  0  0  0  0  0  0  0  0
    2.2507   -0.4906   -1.6642 H   0  0  0  0  0  0  0  0  0  0  0  0
    1.3142   -1.7336   -0.8165 H   0  0  0  0  0  0  0  0  0  0  0  0
   -0.1288    0.1025   -1.7861 H   0  0  0  0  0  0  0  0  0  0  0  0
    0.8809    1.3033   -0.9340 H   0  0  0  0  0  0  0  0  0  0  0  0
    0.0528    0.2799    1.3181 H   0  0  0  0  0  0  0  0  0  0  0  0
   -1.6419    1.9204    1.0474 H   0  0  0  0  0  0  0  0  0  0  0  0
   -1.6294    1.7242   -0.8003 H   0  0  0  0  0  0  0  0  0  0  0  0
   -3.1821    0.1509    1.1484 H   0  0  0  0  0  0  0  0  0  0  0  0
   -3.2085   -0.0452   -0.6704 H   0  0  0  0  0  0  0  0  0  0  0  0
  1  2  1  0
  2  3  1  0
  3  4  1  0
  4  5  1  0
  5  6  1  0
  6  7  1  0
  7  8  2  0
  7  4  1  0
  1  9  1  0
  1 10  1  0
  1 11  1  0
  2 12  1  0
  2 13  1  0
  3 14  1  0
  3 15  1  0
  4 16  1  0
  5 17  1  0
  5 18  1  0
  6 19  1  0
  6 20  1  0
M  END
