
     RDKit          3D

 18 18  0  0  0  0  0  0  0  0999 V2000
    2.9807    0.1386    0.3342 C   0  0  0  0  0  0  0  0  0  0  0  0
    1.6363    0.4275   -0.2716 C   0  0  0  0  0  0  0  0  0  0  0  0
    0.5007   -0.0815    0.5915 C   0  0  0  0  0  0  0  0  0  0  0  0
   -0.8213    0.2052   -0.0088 C   0  0  0  0  0  0  0  0  0  0  0  0
   -0.8819    0.7852   -1.0711 O   0  0  0  0  0  0  0  0  0  0  0  0
   -2.0705   -0.2016    0.6614 C   0  0  0  0  0  0  0  0  0  0  0  0
   -3.2994   -0.5016   -0.1089 C   0  0  0  0  0  0  0  0  0  0  0  0
   -3.1580    0.6714    0.6639 O   0  0  0  0  0  0  0  0  0  0  0  0
    3.4798   -0.6917   -0.2090 H   0  0  0  0  0  0  0  0  0  0  0  0
    2.9129   -0.1198    1.4261 H   0  0  0  0  0  0  0  0  0  0  0  0
    3.6858    1.0115    0.2391 H   0  0  0  0  0  0  0  0  0  0  0  0
    1.5093    1.5348   -0.3854 H   0  0  0  0  0  0  0  0  0  0  0  0
    1.6028    0.0020   -1.2926 H   0  0  0  0  0  0  0  0  0  0  0  0
    0.6094   -1.2007    0.6807 H   0  0  0  0  0  0  0  0  0  0  0  0
    0.5733    0.3226    1.6204 H   0  0  0  0  0  0  0  0  0  0  0  0
   -1.9443   -0.7300    1.6333 H   0  0  0  0  0  0  0  0  0  0  0  0
   -3.9631   -1.2971    0.2955 H   0  0  0  0  0  0  0  0  0  0  0  0
   -3.3526   -0.2748   -1.1892 H   0  0  0  0  0  0  0  0  0  0  0  0
  1  2  1  0
  2  3  1  0
  3  4  1  0
  4  5  2  0
  4  6  1  0
  6  7  1  0
  7  8  1  0
  8  6  1  0
  1  9  1  0
  1 10  1  0
  1 11  1  0
  2 12  1  0
  2 13  1  0
  3 14  1  0
  3 15  1  0
  6 16  1  0
  7 17  1  0
  7 18  1  0
M  END
