
     RDKit          3D

 22 22  0  0  0  0  0  0  0  0999 V2000
   -3.5121   -0.5042   -0.2427 C   0  0  0  0  0  0  0  0  0  0  0  0
   -2.3575    0.2132    0.4578 C   0  0  0  0  0  0  0  0  0  0  0  0
   -1.0608   -0.0039   -0.2805 C   0  0  0  0  0  0  0  0  0  0  0  0
    0.0271    0.7141    0.4422 C   0  0  0  0  0  0  0  0  0  0  0  0
    1.3777    0.5536   -0.2289 C   0  0  0  0  0  0  0  0  0  0  0  0
    2.3848    1.3026    0.5659 O   0  0  0  0  0  0  0  0  0  0  0  0
    2.4011   -0.1577    0.4959 C   0  0  0  0  0  0  0  0  0  0  0  0
    3.6781   -0.6502   -0.0968 C   0  0  0  0  0  0  0  0  0  0  0  0
   -3.1791   -1.5289   -0.5128 H   0  0  0  0  0  0  0  0  0  0  0  0
   -4.3632   -0.6194    0.4566 H   0  0  0  0  0  0  0  0  0  0  0  0
   -3.8378    0.1033   -1.0889 H   0  0  0  0  0  0  0  0  0  0  0  0
   -2.6247    1.2871    0.5503 H   0  0  0  0  0  0  0  0  0  0  0  0
   -2.3226   -0.1989    1.4920 H   0  0  0  0  0  0  0  0  0  0  0  0
   -1.1908    0.4587   -1.2915 H   0  0  0  0  0  0  0  0  0  0  0  0
   -0.9060   -1.0780   -0.3939 H   0  0  0  0  0  0  0  0  0  0  0  0
   -0.2280    1.8015    0.4421 H   0  0  0  0  0  0  0  0  0  0  0  0
    0.1052    0.4138    1.4927 H   0  0  0  0  0  0  0  0  0  0  0  0
    1.4487    0.8535   -1.2749 H   0  0  0  0  0  0  0  0  0  0  0  0
    2.1148   -0.6595    1.4455 H   0  0  0  0  0  0  0  0  0  0  0  0
    3.6635   -0.4902   -1.1925 H   0  0  0  0  0  0  0  0  0  0  0  0
    4.5354   -0.0910    0.3728 H   0  0  0  0  0  0  0  0  0  0  0  0
    3.8462   -1.7195    0.1045 H   0  0  0  0  0  0  0  0  0  0  0  0
  1  2  1  0
  2  3  1  0
  3  4  1  0
  4  5  1  0
  5  6  1  0
  6  7  1  0
  7  8  1  0
  7  5  1  0
  1  9  1  0
  1 10  1  0
  1 11  1  0
  2 12  1  0
  2 13  1  0
  3 14  1  0
  3 15  1  0
  4 16  1  0
  4 17  1  0
  5 18  1  0
  7 19  1  0
  8 20  1  0
  8 21  1  0
  8 22  1  0
M  END
