
     RDKit          3D

 25 25  0  0  0  0  0  0  0  0999 V2000
    2.9137    0.2856    1.2121 C   0  0  0  0  0  0  0  0  0  0  0  0
    1.7742    0.3642    0.2232 C   0  0  0  0  0  0  0  0  0  0  0  0
    0.7742   -0.7584    0.4137 C   0  0  0  0  0  0  0  0  0  0  0  0
   -0.3126   -0.5879   -0.6143 C   0  0  0  0  0  0  0  0  0  0  0  0
   -1.3717   -1.6574   -0.5185 C   0  0  0  0  0  0  0  0  0  0  0  0
    0.2820   -0.7171   -1.8678 O   0  0  0  0  0  0  0  0  0  0  0  0
   -0.8613    0.7927   -0.5056 C   0  0  0  0  0  0  0  0  0  0  0  0
   -1.4879    1.3058    0.7279 C   0  0  0  0  0  0  0  0  0  0  0  0
   -2.3482    1.0380   -0.4921 C   0  0  0  0  0  0  0  0  0  0  0  0
    2.6325   -0.3140    2.0970 H   0  0  0  0  0  0  0  0  0  0  0  0
    3.7659   -0.2357    0.7061 H   0  0  0  0  0  0  0  0  0  0  0  0
    3.2134    1.2862    1.5831 H   0  0  0  0  0  0  0  0  0  0  0  0
    2.1810    0.3645   -0.8154 H   0  0  0  0  0  0  0  0  0  0  0  0
    1.2768    1.3712    0.3367 H   0  0  0  0  0  0  0  0  0  0  0  0
    1.3028   -1.6972    0.2250 H   0  0  0  0  0  0  0  0  0  0  0  0
    0.3953   -0.6917    1.4549 H   0  0  0  0  0  0  0  0  0  0  0  0
   -2.1387   -1.4313   -1.2833 H   0  0  0  0  0  0  0  0  0  0  0  0
   -1.7892   -1.7821    0.4843 H   0  0  0  0  0  0  0  0  0  0  0  0
   -0.8780   -2.6178   -0.8355 H   0  0  0  0  0  0  0  0  0  0  0  0
   -0.3096   -1.0479   -2.5613 H   0  0  0  0  0  0  0  0  0  0  0  0
   -0.2723    1.5584   -1.0924 H   0  0  0  0  0  0  0  0  0  0  0  0
   -1.3429    2.3769    1.0000 H   0  0  0  0  0  0  0  0  0  0  0  0
   -1.5884    0.6534    1.6003 H   0  0  0  0  0  0  0  0  0  0  0  0
   -2.7536    1.9402   -1.0024 H   0  0  0  0  0  0  0  0  0  0  0  0
   -3.0575    0.2012   -0.4758 H   0  0  0  0  0  0  0  0  0  0  0  0
  1  2  1  0
  2  3  1  0
  3  4  1  0
  4  5  1  0
  4  6  1  0
  4  7  1  0
  7  8  1  0
  8  9  1  0
  9  7  1  0
  1 10  1  0
  1 11  1  0
  1 12  1  0
  2 13  1  0
  2 14  1  0
  3 15  1  0
  3 16  1  0
  5 17  1  0
  5 18  1  0
  5 19  1  0
  6 20  1  0
  7 21  1  0
  8 22  1  0
  8 23  1  0
  9 24  1  0
  9 25  1  0
M  END
