
     RDKit          3D

 25 25  0  0  0  0  0  0  0  0999 V2000
    3.4845    0.5463    0.3448 C   0  0  0  0  0  0  0  0  0  0  0  0
    2.8487   -0.3487   -0.6615 C   0  0  0  0  0  0  0  0  0  0  0  0
    1.3558   -0.5013   -0.4655 C   0  0  0  0  0  0  0  0  0  0  0  0
    0.6689    0.8375   -0.5704 C   0  0  0  0  0  0  0  0  0  0  0  0
   -0.6838    0.7851   -0.4045 O   0  0  0  0  0  0  0  0  0  0  0  0
   -1.1162    0.2984    0.7966 C   0  0  0  0  0  0  0  0  0  0  0  0
   -2.6420    0.3215    0.7829 C   0  0  0  0  0  0  0  0  0  0  0  0
   -3.3528   -0.4695   -0.2594 C   0  0  0  0  0  0  0  0  0  0  0  0
   -3.3874   -0.8648    1.2151 C   0  0  0  0  0  0  0  0  0  0  0  0
    3.9004    1.4844   -0.1159 H   0  0  0  0  0  0  0  0  0  0  0  0
    4.3758    0.0662    0.8450 H   0  0  0  0  0  0  0  0  0  0  0  0
    2.8035    0.8912    1.1497 H   0  0  0  0  0  0  0  0  0  0  0  0
    3.0542    0.0752   -1.6732 H   0  0  0  0  0  0  0  0  0  0  0  0
    3.3270   -1.3410   -0.6145 H   0  0  0  0  0  0  0  0  0  0  0  0
    1.0068   -1.2164   -1.2334 H   0  0  0  0  0  0  0  0  0  0  0  0
    1.2115   -0.8974    0.5750 H   0  0  0  0  0  0  0  0  0  0  0  0
    1.1961    1.5593    0.0861 H   0  0  0  0  0  0  0  0  0  0  0  0
    0.8621    1.2022   -1.6170 H   0  0  0  0  0  0  0  0  0  0  0  0
   -0.7285    0.8094    1.6785 H   0  0  0  0  0  0  0  0  0  0  0  0
   -0.8351   -0.7817    0.9042 H   0  0  0  0  0  0  0  0  0  0  0  0
   -3.0479    1.3566    0.9418 H   0  0  0  0  0  0  0  0  0  0  0  0
   -2.8017   -1.1629   -0.9180 H   0  0  0  0  0  0  0  0  0  0  0  0
   -4.3216   -0.1314   -0.6684 H   0  0  0  0  0  0  0  0  0  0  0  0
   -2.8254   -1.7670    1.5133 H   0  0  0  0  0  0  0  0  0  0  0  0
   -4.3529   -0.7511    1.7451 H   0  0  0  0  0  0  0  0  0  0  0  0
  1  2  1  0
  2  3  1  0
  3  4  1  0
  4  5  1  0
  5  6  1  0
  6  7  1  0
  7  8  1  0
  8  9  1  0
  9  7  1  0
  1 10  1  0
  1 11  1  0
  1 12  1  0
  2 13  1  0
  2 14  1  0
  3 15  1  0
  3 16  1  0
  4 17  1  0
  4 18  1  0
  6 19  1  0
  6 20  1  0
  7 21  1  0
  8 22  1  0
  8 23  1  0
  9 24  1  0
  9 25  1  0
M  END
