
     RDKit          3D

 19 19  0  0  0  0  0  0  0  0999 V2000
    1.9596   -0.2573    0.4577 C   0  0  0  0  0  0  0  0  0  0  0  0
    1.2560    0.2096   -0.7946 C   0  0  0  0  0  0  0  0  0  0  0  0
    0.0127    0.9580   -0.4728 C   0  0  0  0  0  0  0  0  0  0  0  0
   -1.0406    0.2294    0.2746 C   0  0  0  0  0  0  0  0  0  0  0  0
   -2.1272    1.1072    0.4756 O   0  0  0  0  0  0  0  0  0  0  0  0
   -1.5798   -1.0136   -0.4168 C   0  0  0  0  0  0  0  0  0  0  0  0
   -1.0243   -1.7496    0.6563 O   0  0  0  0  0  0  0  0  0  0  0  0
   -0.7072   -0.6219    1.3946 C   0  0  0  0  0  0  0  0  0  0  0  0
   -0.3006   -0.4915    2.5651 O   0  0  0  0  0  0  0  0  0  0  0  0
    1.6626   -1.2448    0.8091 H   0  0  0  0  0  0  0  0  0  0  0  0
    1.8751    0.5233    1.2582 H   0  0  0  0  0  0  0  0  0  0  0  0
    3.0517   -0.3576    0.1785 H   0  0  0  0  0  0  0  0  0  0  0  0
    1.9597    0.9133   -1.3237 H   0  0  0  0  0  0  0  0  0  0  0  0
    1.0696   -0.6405   -1.4875 H   0  0  0  0  0  0  0  0  0  0  0  0
   -0.4527    1.2748   -1.4552 H   0  0  0  0  0  0  0  0  0  0  0  0
    0.3299    1.9053    0.0521 H   0  0  0  0  0  0  0  0  0  0  0  0
   -2.2228    1.6442   -0.3534 H   0  0  0  0  0  0  0  0  0  0  0  0
   -2.6636   -1.1132   -0.4511 H   0  0  0  0  0  0  0  0  0  0  0  0
   -1.0583   -1.2752   -1.3665 H   0  0  0  0  0  0  0  0  0  0  0  0
  1  2  1  0
  2  3  1  0
  3  4  1  0
  4  5  1  0
  4  6  1  0
  6  7  1  0
  7  8  1  0
  8  9  2  0
  8  4  1  0
  1 10  1  0
  1 11  1  0
  1 12  1  0
  2 13  1  0
  2 14  1  0
  3 15  1  0
  3 16  1  0
  5 17  1  0
  6 18  1  0
  6 19  1  0
M  END
