
     RDKit          3D

 27 27  0  0  0  0  0  0  0  0999 V2000
    2.2403   -1.6614    0.6423 C   0  0  0  0  0  0  0  0  0  0  0  0
    2.0370   -0.9657   -0.6441 C   0  0  0  0  0  0  0  0  0  0  0  0
    0.6975   -0.5564   -1.0711 C   0  0  0  0  0  0  0  0  0  0  0  0
   -0.0782    0.4119   -0.2533 C   0  0  0  0  0  0  0  0  0  0  0  0
   -0.4379    0.0286    1.1416 C   0  0  0  0  0  0  0  0  0  0  0  0
   -1.2933   -1.2191    1.0921 C   0  0  0  0  0  0  0  0  0  0  0  0
    0.2077    1.8443   -0.5758 C   0  0  0  0  0  0  0  0  0  0  0  0
   -1.1406    1.2453   -0.9471 C   0  0  0  0  0  0  0  0  0  0  0  0
   -2.2664    1.8727   -0.2156 C   0  0  0  0  0  0  0  0  0  0  0  0
    2.5813   -0.9574    1.4615 H   0  0  0  0  0  0  0  0  0  0  0  0
    1.3803   -2.2077    1.0470 H   0  0  0  0  0  0  0  0  0  0  0  0
    3.1252   -2.3628    0.5471 H   0  0  0  0  0  0  0  0  0  0  0  0
    2.8006   -0.1393   -0.6782 H   0  0  0  0  0  0  0  0  0  0  0  0
    2.4257   -1.6702   -1.4573 H   0  0  0  0  0  0  0  0  0  0  0  0
    0.1179   -1.5144   -1.2755 H   0  0  0  0  0  0  0  0  0  0  0  0
    0.7749   -0.1114   -2.1251 H   0  0  0  0  0  0  0  0  0  0  0  0
    0.4142   -0.1934    1.8119 H   0  0  0  0  0  0  0  0  0  0  0  0
   -1.0258    0.8699    1.6467 H   0  0  0  0  0  0  0  0  0  0  0  0
   -0.8758   -1.9592    0.3877 H   0  0  0  0  0  0  0  0  0  0  0  0
   -1.3616   -1.6299    2.1317 H   0  0  0  0  0  0  0  0  0  0  0  0
   -2.3216   -1.0121    0.6874 H   0  0  0  0  0  0  0  0  0  0  0  0
    0.2930    2.5169    0.2801 H   0  0  0  0  0  0  0  0  0  0  0  0
    0.8257    2.0979   -1.4295 H   0  0  0  0  0  0  0  0  0  0  0  0
   -1.3053    0.9690   -2.0084 H   0  0  0  0  0  0  0  0  0  0  0  0
   -2.7054    1.3210    0.6107 H   0  0  0  0  0  0  0  0  0  0  0  0
   -2.0091    2.9122    0.1474 H   0  0  0  0  0  0  0  0  0  0  0  0
   -3.1001    2.0707   -0.9541 H   0  0  0  0  0  0  0  0  0  0  0  0
  1  2  1  0
  2  3  1  0
  3  4  1  0
  4  5  1  0
  5  6  1  0
  4  7  1  0
  7  8  1  0
  8  9  1  0
  8  4  1  0
  1 10  1  0
  1 11  1  0
  1 12  1  0
  2 13  1  0
  2 14  1  0
  3 15  1  0
  3 16  1  0
  5 17  1  0
  5 18  1  0
  6 19  1  0
  6 20  1  0
  6 21  1  0
  7 22  1  0
  7 23  1  0
  8 24  1  0
  9 25  1  0
  9 26  1  0
  9 27  1  0
M  END
