
     RDKit          3D

 23 24  0  0  0  0  0  0  0  0999 V2000
    3.0942    0.0305    0.0725 C   0  0  0  0  0  0  0  0  0  0  0  0
    1.6581   -0.4532    0.3098 C   0  0  0  0  0  0  0  0  0  0  0  0
    0.7902    0.2416   -0.6729 C   0  0  0  0  0  0  0  0  0  0  0  0
   -0.6474   -0.0840   -0.6162 C   0  0  0  0  0  0  0  0  0  0  0  0
   -1.5213    0.6234   -1.6145 C   0  0  0  0  0  0  0  0  0  0  0  0
   -2.3534    1.1536   -0.4769 C   0  0  0  0  0  0  0  0  0  0  0  0
   -1.5441    0.3366    0.4753 C   0  0  0  0  0  0  0  0  0  0  0  0
   -1.2603   -1.1127    0.2045 C   0  0  0  0  0  0  0  0  0  0  0  0
   -0.6243   -1.7839    1.2155 O   0  0  0  0  0  0  0  0  0  0  0  0
    3.1406    1.0364    0.5479 H   0  0  0  0  0  0  0  0  0  0  0  0
    3.1855    0.2027   -1.0153 H   0  0  0  0  0  0  0  0  0  0  0  0
    3.8275   -0.6791    0.4718 H   0  0  0  0  0  0  0  0  0  0  0  0
    1.6876   -1.5597    0.0935 H   0  0  0  0  0  0  0  0  0  0  0  0
    1.4305   -0.2451    1.3572 H   0  0  0  0  0  0  0  0  0  0  0  0
    1.1707    0.0382   -1.6942 H   0  0  0  0  0  0  0  0  0  0  0  0
    0.9075    1.3505   -0.5207 H   0  0  0  0  0  0  0  0  0  0  0  0
   -1.0155    1.4294   -2.1759 H   0  0  0  0  0  0  0  0  0  0  0  0
   -2.0431   -0.0553   -2.3207 H   0  0  0  0  0  0  0  0  0  0  0  0
   -2.1921    2.2456   -0.2623 H   0  0  0  0  0  0  0  0  0  0  0  0
   -3.4167    0.8937   -0.5921 H   0  0  0  0  0  0  0  0  0  0  0  0
   -1.1836    0.7747    1.4213 H   0  0  0  0  0  0  0  0  0  0  0  0
   -2.1012   -1.7095   -0.2589 H   0  0  0  0  0  0  0  0  0  0  0  0
   -0.9894   -2.6742    1.4184 H   0  0  0  0  0  0  0  0  0  0  0  0
  1  2  1  0
  2  3  1  0
  3  4  1  0
  4  5  1  0
  5  6  1  0
  6  7  1  0
  7  8  1  0
  8  9  1  0
  7  4  1  0
  8  4  1  0
  1 10  1  0
  1 11  1  0
  1 12  1  0
  2 13  1  0
  2 14  1  0
  3 15  1  0
  3 16  1  0
  5 17  1  0
  5 18  1  0
  6 19  1  0
  6 20  1  0
  7 21  1  0
  8 22  1  0
  9 23  1  0
M  END
