
     RDKit          3D

 27 27  0  0  0  0  0  0  0  0999 V2000
    3.3288   -0.3971   -0.1038 C   0  0  0  0  0  0  0  0  0  0  0  0
    1.8507   -0.5897   -0.4226 C   0  0  0  0  0  0  0  0  0  0  0  0
    1.0735    0.5255    0.2092 C   0  0  0  0  0  0  0  0  0  0  0  0
   -0.3938    0.5029   -0.0015 C   0  0  0  0  0  0  0  0  0  0  0  0
   -1.0382    1.6793    0.6881 C   0  0  0  0  0  0  0  0  0  0  0  0
   -0.8358    0.5139   -1.4722 C   0  0  0  0  0  0  0  0  0  0  0  0
   -2.0081   -0.3613   -1.0064 C   0  0  0  0  0  0  0  0  0  0  0  0
   -1.0693   -0.8075    0.1257 C   0  0  0  0  0  0  0  0  0  0  0  0
   -1.7611   -1.1256    1.4083 C   0  0  0  0  0  0  0  0  0  0  0  0
    3.9234   -1.1544   -0.6559 H   0  0  0  0  0  0  0  0  0  0  0  0
    3.6034    0.5957   -0.5145 H   0  0  0  0  0  0  0  0  0  0  0  0
    3.5344   -0.4781    0.9688 H   0  0  0  0  0  0  0  0  0  0  0  0
    1.5931   -1.5803   -0.0524 H   0  0  0  0  0  0  0  0  0  0  0  0
    1.7291   -0.5565   -1.5203 H   0  0  0  0  0  0  0  0  0  0  0  0
    1.2781    0.5631    1.2989 H   0  0  0  0  0  0  0  0  0  0  0  0
    1.4597    1.5071   -0.1863 H   0  0  0  0  0  0  0  0  0  0  0  0
   -0.6334    2.5941    0.1885 H   0  0  0  0  0  0  0  0  0  0  0  0
   -2.1313    1.7157    0.5679 H   0  0  0  0  0  0  0  0  0  0  0  0
   -0.7186    1.7679    1.7553 H   0  0  0  0  0  0  0  0  0  0  0  0
   -0.1997   -0.0578   -2.1467 H   0  0  0  0  0  0  0  0  0  0  0  0
   -1.1758    1.5053   -1.8291 H   0  0  0  0  0  0  0  0  0  0  0  0
   -2.2525   -1.1891   -1.6841 H   0  0  0  0  0  0  0  0  0  0  0  0
   -2.8504    0.1896   -0.5808 H   0  0  0  0  0  0  0  0  0  0  0  0
   -0.4240   -1.6332   -0.2286 H   0  0  0  0  0  0  0  0  0  0  0  0
   -1.2867   -2.0092    1.8869 H   0  0  0  0  0  0  0  0  0  0  0  0
   -1.7872   -0.3045    2.1366 H   0  0  0  0  0  0  0  0  0  0  0  0
   -2.8081   -1.4159    1.1709 H   0  0  0  0  0  0  0  0  0  0  0  0
  1  2  1  0
  2  3  1  0
  3  4  1  0
  4  5  1  0
  4  6  1  0
  6  7  1  0
  7  8  1  0
  8  9  1  0
  8  4  1  0
  1 10  1  0
  1 11  1  0
  1 12  1  0
  2 13  1  0
  2 14  1  0
  3 15  1  0
  3 16  1  0
  5 17  1  0
  5 18  1  0
  5 19  1  0
  6 20  1  0
  6 21  1  0
  7 22  1  0
  7 23  1  0
  8 24  1  0
  9 25  1  0
  9 26  1  0
  9 27  1  0
M  END
