
     RDKit          3D

 23 24  0  0  0  0  0  0  0  0999 V2000
   -3.1268   -0.0432   -0.0582 C   0  0  0  0  0  0  0  0  0  0  0  0
   -2.2366   -1.2399   -0.3261 C   0  0  0  0  0  0  0  0  0  0  0  0
   -0.8684   -0.8025   -0.8098 C   0  0  0  0  0  0  0  0  0  0  0  0
   -0.1837    0.0725    0.2342 C   0  0  0  0  0  0  0  0  0  0  0  0
    1.1808    0.5094   -0.2472 C   0  0  0  0  0  0  0  0  0  0  0  0
    1.8926    1.3674    0.7371 C   0  0  0  0  0  0  0  0  0  0  0  0
    3.1817    0.8835    0.1780 C   0  0  0  0  0  0  0  0  0  0  0  0
    2.2834   -0.3024    0.3391 C   0  0  0  0  0  0  0  0  0  0  0  0
    1.9263    0.2365    1.5705 O   0  0  0  0  0  0  0  0  0  0  0  0
   -3.1003    0.1833    1.0356 H   0  0  0  0  0  0  0  0  0  0  0  0
   -4.1552   -0.3004   -0.3730 H   0  0  0  0  0  0  0  0  0  0  0  0
   -2.7601    0.8041   -0.6755 H   0  0  0  0  0  0  0  0  0  0  0  0
   -2.7006   -1.8642   -1.0941 H   0  0  0  0  0  0  0  0  0  0  0  0
   -2.1804   -1.8290    0.5986 H   0  0  0  0  0  0  0  0  0  0  0  0
   -0.9307   -0.2834   -1.7758 H   0  0  0  0  0  0  0  0  0  0  0  0
   -0.2617   -1.7164   -0.9513 H   0  0  0  0  0  0  0  0  0  0  0  0
   -0.0614   -0.4982    1.1776 H   0  0  0  0  0  0  0  0  0  0  0  0
   -0.7840    0.9591    0.4730 H   0  0  0  0  0  0  0  0  0  0  0  0
    1.2563    0.7749   -1.3019 H   0  0  0  0  0  0  0  0  0  0  0  0
    1.6533    2.2971    1.0406 H   0  0  0  0  0  0  0  0  0  0  0  0
    3.4534    1.1822   -0.8343 H   0  0  0  0  0  0  0  0  0  0  0  0
    4.0126    0.8773    0.9105 H   0  0  0  0  0  0  0  0  0  0  0  0
    2.5095   -1.2675    0.1526 H   0  0  0  0  0  0  0  0  0  0  0  0
  1  2  1  0
  2  3  1  0
  3  4  1  0
  4  5  1  0
  5  6  1  0
  6  7  1  0
  7  8  1  0
  8  9  1  0
  8  5  1  0
  9  6  1  0
  1 10  1  0
  1 11  1  0
  1 12  1  0
  2 13  1  0
  2 14  1  0
  3 15  1  0
  3 16  1  0
  4 17  1  0
  4 18  1  0
  5 19  1  0
  6 20  1  0
  7 21  1  0
  7 22  1  0
  8 23  1  0
M  END
