
     RDKit          3D

 23 22  0  0  0  0  0  0  0  0999 V2000
    2.5306    1.3363   -0.6241 C   0  0  0  0  0  0  0  0  0  0  0  0
    2.9158    0.1105    0.1676 C   0  0  0  0  0  0  0  0  0  0  0  0
    1.9965    0.0102    1.3541 C   0  0  0  0  0  0  0  0  0  0  0  0
    0.6257   -0.1018    0.8185 C   0  0  0  0  0  0  0  0  0  0  0  0
   -0.4926   -0.2014    0.3608 C   0  0  0  0  0  0  0  0  0  0  0  0
   -1.8429   -0.3083   -0.1882 C   0  0  0  0  0  0  0  0  0  0  0  0
   -2.8506    0.0024    0.9078 C   0  0  0  0  0  0  0  0  0  0  0  0
   -2.0966   -1.6989   -0.6787 C   0  0  0  0  0  0  0  0  0  0  0  0
   -1.9828    0.6431   -1.2009 O   0  0  0  0  0  0  0  0  0  0  0  0
    3.3456    2.0921   -0.6579 H   0  0  0  0  0  0  0  0  0  0  0  0
    1.6119    1.8088   -0.2189 H   0  0  0  0  0  0  0  0  0  0  0  0
    2.3117    1.0577   -1.6816 H   0  0  0  0  0  0  0  0  0  0  0  0
    2.8939   -0.7836   -0.4736 H   0  0  0  0  0  0  0  0  0  0  0  0
    3.9440    0.2911    0.5601 H   0  0  0  0  0  0  0  0  0  0  0  0
    2.1168    0.9683    1.9315 H   0  0  0  0  0  0  0  0  0  0  0  0
    2.2449   -0.8168    2.0410 H   0  0  0  0  0  0  0  0  0  0  0  0
   -2.4539   -0.4523    1.8593 H   0  0  0  0  0  0  0  0  0  0  0  0
   -2.8239    1.1061    1.0653 H   0  0  0  0  0  0  0  0  0  0  0  0
   -3.8417   -0.3769    0.6498 H   0  0  0  0  0  0  0  0  0  0  0  0
   -3.1881   -1.9230   -0.7168 H   0  0  0  0  0  0  0  0  0  0  0  0
   -1.6549   -1.8583   -1.6844 H   0  0  0  0  0  0  0  0  0  0  0  0
   -1.6415   -2.4083    0.0537 H   0  0  0  0  0  0  0  0  0  0  0  0
   -1.6681    1.5030   -0.8076 H   0  0  0  0  0  0  0  0  0  0  0  0
  1  2  1  0
  2  3  1  0
  3  4  1  0
  4  5  3  0
  5  6  1  0
  6  7  1  0
  6  8  1  0
  6  9  1  0
  1 10  1  0
  1 11  1  0
  1 12  1  0
  2 13  1  0
  2 14  1  0
  3 15  1  0
  3 16  1  0
  7 17  1  0
  7 18  1  0
  7 19  1  0
  8 20  1  0
  8 21  1  0
  8 22  1  0
  9 23  1  0
M  END
