
     RDKit          3D

 19 18  0  0  0  0  0  0  0  0999 V2000
   -3.4798   -0.8406    2.2626 C   0  0  0  0  0  0  0  0  0  0  0  0
   -2.2119   -0.1744    1.7406 C   0  0  0  0  0  0  0  0  0  0  0  0
   -1.6431   -1.0360    0.6652 C   0  0  0  0  0  0  0  0  0  0  0  0
   -0.4164   -0.4637    0.1080 C   0  0  0  0  0  0  0  0  0  0  0  0
    0.6024   -0.0057   -0.3594 C   0  0  0  0  0  0  0  0  0  0  0  0
    1.7944    0.5173   -0.9198 C   0  0  0  0  0  0  0  0  0  0  0  0
    2.8236    0.9784   -1.3848 C   0  0  0  0  0  0  0  0  0  0  0  0
    4.0596    1.5176   -1.9604 C   0  0  0  0  0  0  0  0  0  0  0  0
    4.7263    0.5666   -2.7332 O   0  0  0  0  0  0  0  0  0  0  0  0
   -4.3478   -0.5670    1.6327 H   0  0  0  0  0  0  0  0  0  0  0  0
   -3.5788   -0.5749    3.3173 H   0  0  0  0  0  0  0  0  0  0  0  0
   -3.2909   -1.9454    2.2026 H   0  0  0  0  0  0  0  0  0  0  0  0
   -1.4813   -0.1480    2.5821 H   0  0  0  0  0  0  0  0  0  0  0  0
   -2.4565    0.8439    1.3813 H   0  0  0  0  0  0  0  0  0  0  0  0
   -1.4343   -2.0384    1.0899 H   0  0  0  0  0  0  0  0  0  0  0  0
   -2.4241   -1.1895   -0.1255 H   0  0  0  0  0  0  0  0  0  0  0  0
    4.7502    1.7913   -1.1378 H   0  0  0  0  0  0  0  0  0  0  0  0
    3.8327    2.3791   -2.6237 H   0  0  0  0  0  0  0  0  0  0  0  0
    4.1756    0.3894   -3.5112 H   0  0  0  0  0  0  0  0  0  0  0  0
  1  2  1  0
  2  3  1  0
  3  4  1  0
  4  5  3  0
  5  6  1  0
  6  7  3  0
  7  8  1  0
  8  9  1  0
  1 10  1  0
  1 11  1  0
  1 12  1  0
  2 13  1  0
  2 14  1  0
  3 15  1  0
  3 16  1  0
  8 17  1  0
  8 18  1  0
  9 19  1  0
M  END
