
     RDKit          3D

 23 23  0  0  0  0  0  0  0  0999 V2000
    2.5347   -1.2112   -0.5774 C   0  0  0  0  0  0  0  0  0  0  0  0
    1.4037   -0.7513    0.3110 C   0  0  0  0  0  0  0  0  0  0  0  0
    0.4605    0.0993   -0.5299 C   0  0  0  0  0  0  0  0  0  0  0  0
   -0.6650    0.5537    0.3659 C   0  0  0  0  0  0  0  0  0  0  0  0
   -1.4171   -0.4365    0.9388 O   0  0  0  0  0  0  0  0  0  0  0  0
   -2.0450   -1.2578    0.0388 C   0  0  0  0  0  0  0  0  0  0  0  0
   -1.4382    1.7335   -0.1650 C   0  0  0  0  0  0  0  0  0  0  0  0
   -1.4012    2.2776    1.1239 O   0  0  0  0  0  0  0  0  0  0  0  0
   -0.1972    1.6120    1.3135 C   0  0  0  0  0  0  0  0  0  0  0  0
    2.0817   -1.7272   -1.4420 H   0  0  0  0  0  0  0  0  0  0  0  0
    3.1834   -0.3647   -0.8991 H   0  0  0  0  0  0  0  0  0  0  0  0
    3.1765   -1.8795    0.0397 H   0  0  0  0  0  0  0  0  0  0  0  0
    0.8767   -1.6644    0.6542 H   0  0  0  0  0  0  0  0  0  0  0  0
    1.7472   -0.2170    1.2119 H   0  0  0  0  0  0  0  0  0  0  0  0
    0.9832    0.9774   -0.9399 H   0  0  0  0  0  0  0  0  0  0  0  0
    0.1209   -0.5185   -1.3813 H   0  0  0  0  0  0  0  0  0  0  0  0
   -1.3391   -1.7932   -0.6412 H   0  0  0  0  0  0  0  0  0  0  0  0
   -2.5841   -2.0446    0.6200 H   0  0  0  0  0  0  0  0  0  0  0  0
   -2.7932   -0.7564   -0.6005 H   0  0  0  0  0  0  0  0  0  0  0  0
   -2.4697    1.5213   -0.4474 H   0  0  0  0  0  0  0  0  0  0  0  0
   -0.8612    2.3225   -0.9264 H   0  0  0  0  0  0  0  0  0  0  0  0
    0.6291    2.2319    0.9041 H   0  0  0  0  0  0  0  0  0  0  0  0
    0.0135    1.2931    2.3472 H   0  0  0  0  0  0  0  0  0  0  0  0
  1  2  1  0
  2  3  1  0
  3  4  1  0
  4  5  1  0
  5  6  1  0
  4  7  1  0
  7  8  1  0
  8  9  1  0
  9  4  1  0
  1 10  1  0
  1 11  1  0
  1 12  1  0
  2 13  1  0
  2 14  1  0
  3 15  1  0
  3 16  1  0
  6 17  1  0
  6 18  1  0
  6 19  1  0
  7 20  1  0
  7 21  1  0
  9 22  1  0
  9 23  1  0
M  END
