
     RDKit          3D

 21 21  0  0  0  0  0  0  0  0999 V2000
   -2.9457   -0.1981   -0.7069 C   0  0  0  0  0  0  0  0  0  0  0  0
   -1.7889    0.6626   -0.1983 C   0  0  0  0  0  0  0  0  0  0  0  0
   -0.5724   -0.2004   -0.1523 C   0  0  0  0  0  0  0  0  0  0  0  0
    0.6607    0.4768    0.3235 C   0  0  0  0  0  0  0  0  0  0  0  0
    1.1571    1.6257   -0.4179 C   0  0  0  0  0  0  0  0  0  0  0  0
    0.6834    2.6170   -0.9975 O   0  0  0  0  0  0  0  0  0  0  0  0
    2.4412    1.1588   -0.2159 O   0  0  0  0  0  0  0  0  0  0  0  0
    1.9300   -0.1355   -0.2879 C   0  0  0  0  0  0  0  0  0  0  0  0
    2.4941   -1.1551    0.6419 C   0  0  0  0  0  0  0  0  0  0  0  0
   -3.3015   -0.8541    0.1118 H   0  0  0  0  0  0  0  0  0  0  0  0
   -2.5217   -0.8187   -1.5348 H   0  0  0  0  0  0  0  0  0  0  0  0
   -3.7857    0.4062   -1.0433 H   0  0  0  0  0  0  0  0  0  0  0  0
   -1.6271    1.4719   -0.9243 H   0  0  0  0  0  0  0  0  0  0  0  0
   -2.0543    0.9816    0.8085 H   0  0  0  0  0  0  0  0  0  0  0  0
   -0.7750   -1.0651    0.5094 H   0  0  0  0  0  0  0  0  0  0  0  0
   -0.3556   -0.6367   -1.1693 H   0  0  0  0  0  0  0  0  0  0  0  0
    0.7854    0.5883    1.4112 H   0  0  0  0  0  0  0  0  0  0  0  0
    1.7684   -0.4705   -1.3229 H   0  0  0  0  0  0  0  0  0  0  0  0
    3.5934   -1.1999    0.6703 H   0  0  0  0  0  0  0  0  0  0  0  0
    2.1620   -2.1656    0.2601 H   0  0  0  0  0  0  0  0  0  0  0  0
    2.0525   -1.0890    1.6679 H   0  0  0  0  0  0  0  0  0  0  0  0
  1  2  1  0
  2  3  1  0
  3  4  1  0
  4  5  1  0
  5  6  2  0
  5  7  1  0
  7  8  1  0
  8  9  1  0
  8  4  1  0
  1 10  1  0
  1 11  1  0
  1 12  1  0
  2 13  1  0
  2 14  1  0
  3 15  1  0
  3 16  1  0
  4 17  1  0
  8 18  1  0
  9 19  1  0
  9 20  1  0
  9 21  1  0
M  END
