
     RDKit          3D

 25 25  0  0  0  0  0  0  0  0999 V2000
    3.3126   -0.0002    1.0869 C   0  0  0  0  0  0  0  0  0  0  0  0
    2.1158    0.4794    0.2936 C   0  0  0  0  0  0  0  0  0  0  0  0
    1.0528   -0.5731    0.2269 C   0  0  0  0  0  0  0  0  0  0  0  0
   -0.1195   -0.0523   -0.5722 C   0  0  0  0  0  0  0  0  0  0  0  0
    0.1666    0.3010   -1.8770 O   0  0  0  0  0  0  0  0  0  0  0  0
   -0.9297    1.0144    0.1207 C   0  0  0  0  0  0  0  0  0  0  0  0
   -1.8393   -0.0578    0.6431 C   0  0  0  0  0  0  0  0  0  0  0  0
   -3.3196    0.1721    0.3715 C   0  0  0  0  0  0  0  0  0  0  0  0
   -1.2994   -1.0016   -0.4156 C   0  0  0  0  0  0  0  0  0  0  0  0
    4.1503    0.6919    0.8627 H   0  0  0  0  0  0  0  0  0  0  0  0
    3.1184    0.0354    2.1840 H   0  0  0  0  0  0  0  0  0  0  0  0
    3.6018   -1.0301    0.7648 H   0  0  0  0  0  0  0  0  0  0  0  0
    1.6975    1.3846    0.7694 H   0  0  0  0  0  0  0  0  0  0  0  0
    2.4665    0.6726   -0.7340 H   0  0  0  0  0  0  0  0  0  0  0  0
    0.7577   -1.0023    1.1821 H   0  0  0  0  0  0  0  0  0  0  0  0
    1.4816   -1.4207   -0.3845 H   0  0  0  0  0  0  0  0  0  0  0  0
    1.0689    0.0509   -2.1686 H   0  0  0  0  0  0  0  0  0  0  0  0
   -0.3797    1.5987    0.8886 H   0  0  0  0  0  0  0  0  0  0  0  0
   -1.4659    1.6881   -0.5641 H   0  0  0  0  0  0  0  0  0  0  0  0
   -1.6455   -0.3557    1.6788 H   0  0  0  0  0  0  0  0  0  0  0  0
   -3.8419    0.5997    1.2321 H   0  0  0  0  0  0  0  0  0  0  0  0
   -3.7495   -0.8608    0.2148 H   0  0  0  0  0  0  0  0  0  0  0  0
   -3.4572    0.7036   -0.5742 H   0  0  0  0  0  0  0  0  0  0  0  0
   -1.0498   -1.9694    0.0637 H   0  0  0  0  0  0  0  0  0  0  0  0
   -1.8935   -1.0683   -1.3401 H   0  0  0  0  0  0  0  0  0  0  0  0
  1  2  1  0
  2  3  1  0
  3  4  1  0
  4  5  1  0
  4  6  1  0
  6  7  1  0
  7  8  1  0
  7  9  1  0
  9  4  1  0
  1 10  1  0
  1 11  1  0
  1 12  1  0
  2 13  1  0
  2 14  1  0
  3 15  1  0
  3 16  1  0
  5 17  1  0
  6 18  1  0
  6 19  1  0
  7 20  1  0
  8 21  1  0
  8 22  1  0
  8 23  1  0
  9 24  1  0
  9 25  1  0
M  END
