
     RDKit          3D

 21 21  0  0  0  0  0  0  0  0999 V2000
    2.4252    0.5427    0.0936 C   0  0  0  0  0  0  0  0  0  0  0  0
    1.5856   -0.1714   -0.9197 C   0  0  0  0  0  0  0  0  0  0  0  0
    0.5127   -0.9960   -0.2156 C   0  0  0  0  0  0  0  0  0  0  0  0
   -0.3402   -0.0288    0.5938 C   0  0  0  0  0  0  0  0  0  0  0  0
   -1.4383   -0.6833    1.3438 C   0  0  0  0  0  0  0  0  0  0  0  0
   -1.6099   -1.1016    2.4621 O   0  0  0  0  0  0  0  0  0  0  0  0
   -2.2488   -0.6016    0.1076 C   0  0  0  0  0  0  0  0  0  0  0  0
   -1.4165    0.5789   -0.2895 C   0  0  0  0  0  0  0  0  0  0  0  0
   -1.8585    1.7801    0.2785 O   0  0  0  0  0  0  0  0  0  0  0  0
    3.5163    0.3803   -0.0535 H   0  0  0  0  0  0  0  0  0  0  0  0
    2.2000    0.1883    1.1175 H   0  0  0  0  0  0  0  0  0  0  0  0
    2.2510    1.6231    0.0413 H   0  0  0  0  0  0  0  0  0  0  0  0
    2.2200   -0.8211   -1.5646 H   0  0  0  0  0  0  0  0  0  0  0  0
    1.1185    0.5659   -1.5962 H   0  0  0  0  0  0  0  0  0  0  0  0
    0.9534   -1.7912    0.3817 H   0  0  0  0  0  0  0  0  0  0  0  0
   -0.0957   -1.4567   -1.0204 H   0  0  0  0  0  0  0  0  0  0  0  0
    0.2324    0.7287    1.1540 H   0  0  0  0  0  0  0  0  0  0  0  0
   -3.3266   -0.4163    0.2499 H   0  0  0  0  0  0  0  0  0  0  0  0
   -2.0731   -1.4918   -0.5226 H   0  0  0  0  0  0  0  0  0  0  0  0
   -1.1489    0.6678   -1.3529 H   0  0  0  0  0  0  0  0  0  0  0  0
   -1.4585    2.5041   -0.2888 H   0  0  0  0  0  0  0  0  0  0  0  0
  1  2  1  0
  2  3  1  0
  3  4  1  0
  4  5  1  0
  5  6  2  0
  5  7  1  0
  7  8  1  0
  8  9  1  0
  8  4  1  0
  1 10  1  0
  1 11  1  0
  1 12  1  0
  2 13  1  0
  2 14  1  0
  3 15  1  0
  3 16  1  0
  4 17  1  0
  7 18  1  0
  7 19  1  0
  8 20  1  0
  9 21  1  0
M  END
