
     RDKit          3D

 25 26  0  0  0  0  0  0  0  0999 V2000
    3.6932   -0.1543    0.1375 C   0  0  0  0  0  0  0  0  0  0  0  0
    2.3295    0.2606    0.5945 C   0  0  0  0  0  0  0  0  0  0  0  0
    1.2736    0.0177   -0.5026 C   0  0  0  0  0  0  0  0  0  0  0  0
   -0.0156    0.4614    0.0619 C   0  0  0  0  0  0  0  0  0  0  0  0
   -1.2644    0.3733   -0.7401 C   0  0  0  0  0  0  0  0  0  0  0  0
   -1.3065   -1.0680   -0.4320 C   0  0  0  0  0  0  0  0  0  0  0  0
   -0.8587   -0.4805    0.8529 C   0  0  0  0  0  0  0  0  0  0  0  0
   -1.9183    0.5742    0.6202 C   0  0  0  0  0  0  0  0  0  0  0  0
   -3.3262    0.1644    0.7507 C   0  0  0  0  0  0  0  0  0  0  0  0
    3.6024   -1.0328   -0.5155 H   0  0  0  0  0  0  0  0  0  0  0  0
    4.3071   -0.4144    1.0268 H   0  0  0  0  0  0  0  0  0  0  0  0
    4.1616    0.6886   -0.4482 H   0  0  0  0  0  0  0  0  0  0  0  0
    2.3280    1.3515    0.7859 H   0  0  0  0  0  0  0  0  0  0  0  0
    1.9657   -0.2436    1.4885 H   0  0  0  0  0  0  0  0  0  0  0  0
    1.2467   -1.0598   -0.7437 H   0  0  0  0  0  0  0  0  0  0  0  0
    1.5825    0.5473   -1.4248 H   0  0  0  0  0  0  0  0  0  0  0  0
    0.0056    1.4694    0.5717 H   0  0  0  0  0  0  0  0  0  0  0  0
   -1.5072    0.8673   -1.5744 H   0  0  0  0  0  0  0  0  0  0  0  0
   -2.3123   -1.5530   -0.4282 H   0  0  0  0  0  0  0  0  0  0  0  0
   -0.5899   -1.7406   -0.8920 H   0  0  0  0  0  0  0  0  0  0  0  0
   -0.6493   -0.9254    1.7226 H   0  0  0  0  0  0  0  0  0  0  0  0
   -1.6311    1.5713    1.0097 H   0  0  0  0  0  0  0  0  0  0  0  0
   -3.8138    0.8276    1.5245 H   0  0  0  0  0  0  0  0  0  0  0  0
   -3.8648    0.3551   -0.2038 H   0  0  0  0  0  0  0  0  0  0  0  0
   -3.4378   -0.8573    1.1257 H   0  0  0  0  0  0  0  0  0  0  0  0
  1  2  1  0
  2  3  1  0
  3  4  1  0
  4  5  1  0
  5  6  1  0
  6  7  1  0
  7  8  1  0
  8  9  1  0
  7  4  1  0
  8  5  1  0
  1 10  1  0
  1 11  1  0
  1 12  1  0
  2 13  1  0
  2 14  1  0
  3 15  1  0
  3 16  1  0
  4 17  1  0
  5 18  1  0
  6 19  1  0
  6 20  1  0
  7 21  1  0
  8 22  1  0
  9 23  1  0
  9 24  1  0
  9 25  1  0
M  END
