
     RDKit          3D

 25 25  0  0  0  0  0  0  0  0999 V2000
   -3.4833    0.1479    0.1639 C   0  0  0  0  0  0  0  0  0  0  0  0
   -2.5389   -0.7369   -0.5683 C   0  0  0  0  0  0  0  0  0  0  0  0
   -1.1350   -0.7145   -0.0332 C   0  0  0  0  0  0  0  0  0  0  0  0
   -0.5051    0.6490   -0.0802 C   0  0  0  0  0  0  0  0  0  0  0  0
    0.8875    0.6238    0.4609 C   0  0  0  0  0  0  0  0  0  0  0  0
    1.8149   -0.2829   -0.2778 C   0  0  0  0  0  0  0  0  0  0  0  0
    3.2032   -0.2277    0.3606 C   0  0  0  0  0  0  0  0  0  0  0  0
    3.5027    0.9170   -0.4103 O   0  0  0  0  0  0  0  0  0  0  0  0
    2.5973    0.4059   -1.3647 C   0  0  0  0  0  0  0  0  0  0  0  0
   -3.2371    0.2869    1.2412 H   0  0  0  0  0  0  0  0  0  0  0  0
   -3.5849    1.1533   -0.3279 H   0  0  0  0  0  0  0  0  0  0  0  0
   -4.4983   -0.2994    0.1135 H   0  0  0  0  0  0  0  0  0  0  0  0
   -2.9056   -1.7891   -0.4579 H   0  0  0  0  0  0  0  0  0  0  0  0
   -2.5969   -0.5078   -1.6415 H   0  0  0  0  0  0  0  0  0  0  0  0
   -1.1087   -1.0884    1.0076 H   0  0  0  0  0  0  0  0  0  0  0  0
   -0.5205   -1.3971   -0.6528 H   0  0  0  0  0  0  0  0  0  0  0  0
   -0.5599    1.0978   -1.0872 H   0  0  0  0  0  0  0  0  0  0  0  0
   -1.1041    1.3211    0.5840 H   0  0  0  0  0  0  0  0  0  0  0  0
    0.8280    0.2336    1.5196 H   0  0  0  0  0  0  0  0  0  0  0  0
    1.3406    1.6356    0.4759 H   0  0  0  0  0  0  0  0  0  0  0  0
    1.5079   -1.3068   -0.4603 H   0  0  0  0  0  0  0  0  0  0  0  0
    3.8370   -1.1051    0.1010 H   0  0  0  0  0  0  0  0  0  0  0  0
    3.1747   -0.0105    1.4441 H   0  0  0  0  0  0  0  0  0  0  0  0
    3.0453   -0.2372   -2.1255 H   0  0  0  0  0  0  0  0  0  0  0  0
    2.0391    1.2313   -1.8288 H   0  0  0  0  0  0  0  0  0  0  0  0
  1  2  1  0
  2  3  1  0
  3  4  1  0
  4  5  1  0
  5  6  1  0
  6  7  1  0
  7  8  1  0
  8  9  1  0
  9  6  1  0
  1 10  1  0
  1 11  1  0
  1 12  1  0
  2 13  1  0
  2 14  1  0
  3 15  1  0
  3 16  1  0
  4 17  1  0
  4 18  1  0
  5 19  1  0
  5 20  1  0
  6 21  1  0
  7 22  1  0
  7 23  1  0
  9 24  1  0
  9 25  1  0
M  END
