
     RDKit          3D

 23 22  0  0  0  0  0  0  0  0999 V2000
    2.8020   -0.8492    0.0523 C   0  0  0  0  0  0  0  0  0  0  0  0
    2.7007    0.4304   -0.6874 C   0  0  0  0  0  0  0  0  0  0  0  0
    1.9306    1.5093    0.0066 C   0  0  0  0  0  0  0  0  0  0  0  0
    0.5654    1.0597    0.2428 C   0  0  0  0  0  0  0  0  0  0  0  0
   -0.5670    0.6892    0.4176 C   0  0  0  0  0  0  0  0  0  0  0  0
   -1.9341    0.2343    0.6535 C   0  0  0  0  0  0  0  0  0  0  0  0
   -2.8953    0.6803   -0.4006 C   0  0  0  0  0  0  0  0  0  0  0  0
   -1.9007   -1.2786    0.7563 C   0  0  0  0  0  0  0  0  0  0  0  0
   -1.4108   -1.8187   -0.4238 O   0  0  0  0  0  0  0  0  0  0  0  0
    3.7759   -1.3223   -0.1919 H   0  0  0  0  0  0  0  0  0  0  0  0
    2.7095   -0.7717    1.1495 H   0  0  0  0  0  0  0  0  0  0  0  0
    2.0244   -1.5514   -0.3599 H   0  0  0  0  0  0  0  0  0  0  0  0
    2.3127    0.2352   -1.7068 H   0  0  0  0  0  0  0  0  0  0  0  0
    3.7434    0.8338   -0.8499 H   0  0  0  0  0  0  0  0  0  0  0  0
    1.9217    2.3941   -0.6911 H   0  0  0  0  0  0  0  0  0  0  0  0
    2.4449    1.8638    0.9162 H   0  0  0  0  0  0  0  0  0  0  0  0
   -2.3263    0.5964    1.6407 H   0  0  0  0  0  0  0  0  0  0  0  0
   -2.8633    1.7690   -0.5109 H   0  0  0  0  0  0  0  0  0  0  0  0
   -2.6899    0.1537   -1.3734 H   0  0  0  0  0  0  0  0  0  0  0  0
   -3.9061    0.3944   -0.1072 H   0  0  0  0  0  0  0  0  0  0  0  0
   -2.9415   -1.6859    0.8851 H   0  0  0  0  0  0  0  0  0  0  0  0
   -1.3283   -1.6211    1.6315 H   0  0  0  0  0  0  0  0  0  0  0  0
   -2.1675   -1.9447   -1.0491 H   0  0  0  0  0  0  0  0  0  0  0  0
  1  2  1  0
  2  3  1  0
  3  4  1  0
  4  5  3  0
  5  6  1  0
  6  7  1  0
  6  8  1  0
  8  9  1  0
  1 10  1  0
  1 11  1  0
  1 12  1  0
  2 13  1  0
  2 14  1  0
  3 15  1  0
  3 16  1  0
  6 17  1  0
  7 18  1  0
  7 19  1  0
  7 20  1  0
  8 21  1  0
  8 22  1  0
  9 23  1  0
M  END
