
     RDKit          3D

 21 21  0  0  0  0  0  0  0  0999 V2000
    1.9435    0.3561   -0.9653 C   0  0  0  0  0  0  0  0  0  0  0  0
    1.4348   -0.9813   -0.5158 C   0  0  0  0  0  0  0  0  0  0  0  0
    0.4792   -0.8297    0.6461 C   0  0  0  0  0  0  0  0  0  0  0  0
   -0.7241    0.0133    0.2937 C   0  0  0  0  0  0  0  0  0  0  0  0
   -1.5914   -0.4947   -0.8380 C   0  0  0  0  0  0  0  0  0  0  0  0
   -1.4390    0.5686    1.5278 C   0  0  0  0  0  0  0  0  0  0  0  0
   -0.7634    1.4579    0.5553 C   0  0  0  0  0  0  0  0  0  0  0  0
    2.5283    0.2043   -1.9054 H   0  0  0  0  0  0  0  0  0  0  0  0
    1.1702    1.1107   -1.1269 H   0  0  0  0  0  0  0  0  0  0  0  0
    2.6526    0.7371   -0.1790 H   0  0  0  0  0  0  0  0  0  0  0  0
    2.3115   -1.5496   -0.1245 H   0  0  0  0  0  0  0  0  0  0  0  0
    1.0047   -1.5792   -1.3217 H   0  0  0  0  0  0  0  0  0  0  0  0
    0.1029   -1.8079    1.0080 H   0  0  0  0  0  0  0  0  0  0  0  0
    1.0619   -0.3948    1.4845 H   0  0  0  0  0  0  0  0  0  0  0  0
   -2.5591   -0.8861   -0.4466 H   0  0  0  0  0  0  0  0  0  0  0  0
   -1.0338   -1.2587   -1.4291 H   0  0  0  0  0  0  0  0  0  0  0  0
   -1.8174    0.3320   -1.5648 H   0  0  0  0  0  0  0  0  0  0  0  0
   -2.5375    0.4635    1.5724 H   0  0  0  0  0  0  0  0  0  0  0  0
   -0.9524    0.4721    2.5118 H   0  0  0  0  0  0  0  0  0  0  0  0
   -1.4321    2.0882   -0.0520 H   0  0  0  0  0  0  0  0  0  0  0  0
    0.1605    1.9782    0.8696 H   0  0  0  0  0  0  0  0  0  0  0  0
  1  2  1  0
  2  3  1  0
  3  4  1  0
  4  5  1  0
  4  6  1  0
  6  7  1  0
  7  4  1  0
  1  8  1  0
  1  9  1  0
  1 10  1  0
  2 11  1  0
  2 12  1  0
  3 13  1  0
  3 14  1  0
  5 15  1  0
  5 16  1  0
  5 17  1  0
  6 18  1  0
  6 19  1  0
  7 20  1  0
  7 21  1  0
M  END
