
     RDKit          3D

 27 27  0  0  0  0  0  0  0  0999 V2000
    4.0399    0.3405    0.6304 C   0  0  0  0  0  0  0  0  0  0  0  0
    2.7118    0.2264   -0.0559 C   0  0  0  0  0  0  0  0  0  0  0  0
    2.0036   -0.9989    0.4182 C   0  0  0  0  0  0  0  0  0  0  0  0
    0.6527   -1.1840   -0.2301 C   0  0  0  0  0  0  0  0  0  0  0  0
   -0.2794   -0.0334    0.0407 C   0  0  0  0  0  0  0  0  0  0  0  0
   -1.5910   -0.3227   -0.6503 C   0  0  0  0  0  0  0  0  0  0  0  0
   -2.6096    0.7478   -0.4588 C   0  0  0  0  0  0  0  0  0  0  0  0
   -3.0995    1.1361    0.8845 C   0  0  0  0  0  0  0  0  0  0  0  0
   -3.9793    0.2603    0.0515 C   0  0  0  0  0  0  0  0  0  0  0  0
    4.6158   -0.5996    0.5486 H   0  0  0  0  0  0  0  0  0  0  0  0
    3.9406    0.6473    1.6876 H   0  0  0  0  0  0  0  0  0  0  0  0
    4.6291    1.1225    0.1185 H   0  0  0  0  0  0  0  0  0  0  0  0
    2.0893    1.1070    0.1791 H   0  0  0  0  0  0  0  0  0  0  0  0
    2.9006    0.1169   -1.1452 H   0  0  0  0  0  0  0  0  0  0  0  0
    1.8318   -0.9846    1.5150 H   0  0  0  0  0  0  0  0  0  0  0  0
    2.6085   -1.8953    0.1563 H   0  0  0  0  0  0  0  0  0  0  0  0
    0.7369   -1.2746   -1.3432 H   0  0  0  0  0  0  0  0  0  0  0  0
    0.1467   -2.1037    0.1233 H   0  0  0  0  0  0  0  0  0  0  0  0
    0.1346    0.8897   -0.4604 H   0  0  0  0  0  0  0  0  0  0  0  0
   -0.3948    0.2226    1.0935 H   0  0  0  0  0  0  0  0  0  0  0  0
   -2.0231   -1.2875   -0.3252 H   0  0  0  0  0  0  0  0  0  0  0  0
   -1.4303   -0.4275   -1.7559 H   0  0  0  0  0  0  0  0  0  0  0  0
   -2.6581    1.5425   -1.2378 H   0  0  0  0  0  0  0  0  0  0  0  0
   -2.6220    0.6712    1.7875 H   0  0  0  0  0  0  0  0  0  0  0  0
   -3.3903    2.1954    1.0502 H   0  0  0  0  0  0  0  0  0  0  0  0
   -4.8807    0.6808   -0.4474 H   0  0  0  0  0  0  0  0  0  0  0  0
   -4.0837   -0.7951    0.3221 H   0  0  0  0  0  0  0  0  0  0  0  0
  1  2  1  0
  2  3  1  0
  3  4  1  0
  4  5  1  0
  5  6  1  0
  6  7  1  0
  7  8  1  0
  8  9  1  0
  9  7  1  0
  1 10  1  0
  1 11  1  0
  1 12  1  0
  2 13  1  0
  2 14  1  0
  3 15  1  0
  3 16  1  0
  4 17  1  0
  4 18  1  0
  5 19  1  0
  5 20  1  0
  6 21  1  0
  6 22  1  0
  7 23  1  0
  8 24  1  0
  8 25  1  0
  9 26  1  0
  9 27  1  0
M  END
