
     RDKit          3D

 23 22  0  0  0  0  0  0  0  0999 V2000
    3.1214   -0.5619   -0.4198 C   0  0  0  0  0  0  0  0  0  0  0  0
    1.6294   -0.8878   -0.3689 C   0  0  0  0  0  0  0  0  0  0  0  0
    0.8178    0.3433   -0.2346 C   0  0  0  0  0  0  0  0  0  0  0  0
   -0.6608    0.1623   -0.1746 C   0  0  0  0  0  0  0  0  0  0  0  0
   -1.2270    1.5931   -0.0471 C   0  0  0  0  0  0  0  0  0  0  0  0
   -0.7930    2.2755   -1.1996 O   0  0  0  0  0  0  0  0  0  0  0  0
   -1.1376   -0.6526    0.9658 C   0  0  0  0  0  0  0  0  0  0  0  0
   -2.5794   -0.9345    1.1467 C   0  0  0  0  0  0  0  0  0  0  0  0
   -0.3553   -1.1006    1.7686 O   0  0  0  0  0  0  0  0  0  0  0  0
    3.6468   -1.2177   -1.1266 H   0  0  0  0  0  0  0  0  0  0  0  0
    3.2726    0.5120   -0.6600 H   0  0  0  0  0  0  0  0  0  0  0  0
    3.5106   -0.6811    0.6305 H   0  0  0  0  0  0  0  0  0  0  0  0
    1.4101   -1.3448   -1.3788 H   0  0  0  0  0  0  0  0  0  0  0  0
    1.4207   -1.6353    0.3998 H   0  0  0  0  0  0  0  0  0  0  0  0
    1.2166    0.9196    0.6428 H   0  0  0  0  0  0  0  0  0  0  0  0
    1.0239    1.0229   -1.1081 H   0  0  0  0  0  0  0  0  0  0  0  0
   -1.0677   -0.1976   -1.1483 H   0  0  0  0  0  0  0  0  0  0  0  0
   -0.8189    2.0965    0.8482 H   0  0  0  0  0  0  0  0  0  0  0  0
   -2.3254    1.5718   -0.0773 H   0  0  0  0  0  0  0  0  0  0  0  0
   -1.1647    1.7826   -1.9747 H   0  0  0  0  0  0  0  0  0  0  0  0
   -2.8800   -1.7782    0.4640 H   0  0  0  0  0  0  0  0  0  0  0  0
   -2.8338   -1.2067    2.1937 H   0  0  0  0  0  0  0  0  0  0  0  0
   -3.2260   -0.0805    0.8582 H   0  0  0  0  0  0  0  0  0  0  0  0
  1  2  1  0
  2  3  1  0
  3  4  1  0
  4  5  1  0
  5  6  1  0
  4  7  1  0
  7  8  1  0
  7  9  2  0
  1 10  1  0
  1 11  1  0
  1 12  1  0
  2 13  1  0
  2 14  1  0
  3 15  1  0
  3 16  1  0
  4 17  1  0
  5 18  1  0
  5 19  1  0
  6 20  1  0
  8 21  1  0
  8 22  1  0
  8 23  1  0
M  END
