
     RDKit          3D

 25 24  0  0  0  0  0  0  0  0999 V2000
    3.7657   -0.5475   -0.8747 C   0  0  0  0  0  0  0  0  0  0  0  0
    2.3207   -0.1576   -0.8632 C   0  0  0  0  0  0  0  0  0  0  0  0
    1.8366    0.3994    0.4415 C   0  0  0  0  0  0  0  0  0  0  0  0
    0.3827    0.7247    0.2434 C   0  0  0  0  0  0  0  0  0  0  0  0
    0.0731    1.7287   -0.3747 O   0  0  0  0  0  0  0  0  0  0  0  0
   -0.6941   -0.1378    0.7774 C   0  0  0  0  0  0  0  0  0  0  0  0
   -2.0597    0.3829    0.4200 C   0  0  0  0  0  0  0  0  0  0  0  0
   -3.1537   -0.5107    0.9835 C   0  0  0  0  0  0  0  0  0  0  0  0
   -2.2785    0.4178   -1.0770 C   0  0  0  0  0  0  0  0  0  0  0  0
    3.8838   -1.3136   -1.6852 H   0  0  0  0  0  0  0  0  0  0  0  0
    4.1070   -1.0176    0.0526 H   0  0  0  0  0  0  0  0  0  0  0  0
    4.4399    0.2903   -1.2033 H   0  0  0  0  0  0  0  0  0  0  0  0
    2.1597    0.6290   -1.6325 H   0  0  0  0  0  0  0  0  0  0  0  0
    1.7188   -1.0833   -1.0932 H   0  0  0  0  0  0  0  0  0  0  0  0
    2.3514    1.3866    0.6089 H   0  0  0  0  0  0  0  0  0  0  0  0
    1.9985   -0.2566    1.3072 H   0  0  0  0  0  0  0  0  0  0  0  0
   -0.6088   -0.3251    1.8537 H   0  0  0  0  0  0  0  0  0  0  0  0
   -0.5888   -1.1204    0.2297 H   0  0  0  0  0  0  0  0  0  0  0  0
   -2.1314    1.4248    0.7873 H   0  0  0  0  0  0  0  0  0  0  0  0
   -3.3284   -0.2769    2.0534 H   0  0  0  0  0  0  0  0  0  0  0  0
   -2.8854   -1.5660    0.7975 H   0  0  0  0  0  0  0  0  0  0  0  0
   -4.1208   -0.3383    0.4543 H   0  0  0  0  0  0  0  0  0  0  0  0
   -3.3954    0.3923   -1.2337 H   0  0  0  0  0  0  0  0  0  0  0  0
   -1.8825   -0.4889   -1.5858 H   0  0  0  0  0  0  0  0  0  0  0  0
   -1.9102    1.3636   -1.5011 H   0  0  0  0  0  0  0  0  0  0  0  0
  1  2  1  0
  2  3  1  0
  3  4  1  0
  4  5  2  0
  4  6  1  0
  6  7  1  0
  7  8  1  0
  7  9  1  0
  1 10  1  0
  1 11  1  0
  1 12  1  0
  2 13  1  0
  2 14  1  0
  3 15  1  0
  3 16  1  0
  6 17  1  0
  6 18  1  0
  7 19  1  0
  8 20  1  0
  8 21  1  0
  8 22  1  0
  9 23  1  0
  9 24  1  0
  9 25  1  0
M  END
