
     RDKit          3D

 25 26  0  0  0  0  0  0  0  0999 V2000
    2.6517   -0.5680   -0.3087 C   0  0  0  0  0  0  0  0  0  0  0  0
    1.6421   -1.0520    0.6908 C   0  0  0  0  0  0  0  0  0  0  0  0
    0.7995    0.0811    1.2425 C   0  0  0  0  0  0  0  0  0  0  0  0
    0.0727    0.7352    0.1013 C   0  0  0  0  0  0  0  0  0  0  0  0
   -0.8191    1.9075    0.5369 C   0  0  0  0  0  0  0  0  0  0  0  0
   -1.8049    1.4354   -0.5142 C   0  0  0  0  0  0  0  0  0  0  0  0
   -1.1324    0.1005   -0.4397 C   0  0  0  0  0  0  0  0  0  0  0  0
   -1.2403   -0.9476   -1.4152 C   0  0  0  0  0  0  0  0  0  0  0  0
   -1.7806   -1.1067    0.0176 C   0  0  0  0  0  0  0  0  0  0  0  0
    3.0600    0.4315   -0.0726 H   0  0  0  0  0  0  0  0  0  0  0  0
    2.2610   -0.5340   -1.3384 H   0  0  0  0  0  0  0  0  0  0  0  0
    3.5374   -1.2603   -0.3456 H   0  0  0  0  0  0  0  0  0  0  0  0
    1.0297   -1.8362    0.2037 H   0  0  0  0  0  0  0  0  0  0  0  0
    2.1443   -1.5835    1.5503 H   0  0  0  0  0  0  0  0  0  0  0  0
    0.1155   -0.2839    2.0298 H   0  0  0  0  0  0  0  0  0  0  0  0
    1.4636    0.8193    1.7054 H   0  0  0  0  0  0  0  0  0  0  0  0
    0.7542    1.1016   -0.6904 H   0  0  0  0  0  0  0  0  0  0  0  0
   -0.4136    2.9001    0.2590 H   0  0  0  0  0  0  0  0  0  0  0  0
   -1.1930    1.7986    1.5672 H   0  0  0  0  0  0  0  0  0  0  0  0
   -2.8519    1.3690   -0.1700 H   0  0  0  0  0  0  0  0  0  0  0  0
   -1.6556    1.8874   -1.5121 H   0  0  0  0  0  0  0  0  0  0  0  0
   -2.0003   -0.8490   -2.2265 H   0  0  0  0  0  0  0  0  0  0  0  0
   -0.4092   -1.5990   -1.6953 H   0  0  0  0  0  0  0  0  0  0  0  0
   -2.9082   -1.0786    0.0760 H   0  0  0  0  0  0  0  0  0  0  0  0
   -1.3225   -1.8683    0.6649 H   0  0  0  0  0  0  0  0  0  0  0  0
  1  2  1  0
  2  3  1  0
  3  4  1  0
  4  5  1  0
  5  6  1  0
  6  7  1  0
  7  8  1  0
  8  9  1  0
  7  4  1  0
  9  7  1  0
  1 10  1  0
  1 11  1  0
  1 12  1  0
  2 13  1  0
  2 14  1  0
  3 15  1  0
  3 16  1  0
  4 17  1  0
  5 18  1  0
  5 19  1  0
  6 20  1  0
  6 21  1  0
  8 22  1  0
  8 23  1  0
  9 24  1  0
  9 25  1  0
M  END
