
     RDKit          3D

 22 23  0  0  0  0  0  0  0  0999 V2000
    2.5500    0.7155    0.2402 C   0  0  0  0  0  0  0  0  0  0  0  0
    2.0632   -0.7050    0.0427 C   0  0  0  0  0  0  0  0  0  0  0  0
    1.0166   -0.7003   -1.0632 C   0  0  0  0  0  0  0  0  0  0  0  0
   -0.1542    0.1783   -0.7083 C   0  0  0  0  0  0  0  0  0  0  0  0
   -0.8897   -0.1997    0.5199 C   0  0  0  0  0  0  0  0  0  0  0  0
   -2.0274    0.6928    0.9099 C   0  0  0  0  0  0  0  0  0  0  0  0
   -2.7313    0.2754   -0.3690 C   0  0  0  0  0  0  0  0  0  0  0  0
   -1.4974   -0.3787   -0.8936 C   0  0  0  0  0  0  0  0  0  0  0  0
    2.3962    1.2712   -0.7161 H   0  0  0  0  0  0  0  0  0  0  0  0
    3.6242    0.7531    0.5106 H   0  0  0  0  0  0  0  0  0  0  0  0
    1.9024    1.1829    1.0170 H   0  0  0  0  0  0  0  0  0  0  0  0
    2.9178   -1.2967   -0.3439 H   0  0  0  0  0  0  0  0  0  0  0  0
    1.7034   -1.1717    0.9591 H   0  0  0  0  0  0  0  0  0  0  0  0
    1.5331   -0.3916   -1.9832 H   0  0  0  0  0  0  0  0  0  0  0  0
    0.7244   -1.7664   -1.2076 H   0  0  0  0  0  0  0  0  0  0  0  0
    0.0405    1.2576   -0.8509 H   0  0  0  0  0  0  0  0  0  0  0  0
   -0.6735   -1.1266    1.0784 H   0  0  0  0  0  0  0  0  0  0  0  0
   -1.7054    1.7698    0.8979 H   0  0  0  0  0  0  0  0  0  0  0  0
   -2.5459    0.3814    1.8353 H   0  0  0  0  0  0  0  0  0  0  0  0
   -3.5297   -0.4536   -0.1230 H   0  0  0  0  0  0  0  0  0  0  0  0
   -3.1470    1.1094   -0.9657 H   0  0  0  0  0  0  0  0  0  0  0  0
   -1.5703   -1.3974   -1.2896 H   0  0  0  0  0  0  0  0  0  0  0  0
  1  2  1  0
  2  3  1  0
  3  4  1  0
  4  5  1  0
  5  6  1  0
  6  7  1  0
  7  8  1  0
  8  4  1  0
  8  5  1  0
  1  9  1  0
  1 10  1  0
  1 11  1  0
  2 12  1  0
  2 13  1  0
  3 14  1  0
  3 15  1  0
  4 16  1  0
  5 17  1  0
  6 18  1  0
  6 19  1  0
  7 20  1  0
  7 21  1  0
  8 22  1  0
M  END
