
     RDKit          3D

 19 20  0  0  0  0  0  0  0  0999 V2000
    2.9167    0.3697    0.4557 C   0  0  0  0  0  0  0  0  0  0  0  0
    1.6420   -0.1994   -0.1598 C   0  0  0  0  0  0  0  0  0  0  0  0
    0.4121    0.2905    0.5719 C   0  0  0  0  0  0  0  0  0  0  0  0
   -0.7926   -0.3077   -0.0870 C   0  0  0  0  0  0  0  0  0  0  0  0
   -0.9612    0.0038   -1.4079 O   0  0  0  0  0  0  0  0  0  0  0  0
   -1.8915    0.5958   -0.6049 C   0  0  0  0  0  0  0  0  0  0  0  0
   -2.9251   -0.3357   -0.0386 C   0  0  0  0  0  0  0  0  0  0  0  0
   -1.8106   -1.0262    0.6883 C   0  0  0  0  0  0  0  0  0  0  0  0
   -1.7657   -1.8513    1.5679 O   0  0  0  0  0  0  0  0  0  0  0  0
    2.9499    1.4792    0.3525 H   0  0  0  0  0  0  0  0  0  0  0  0
    3.0579    0.0109    1.4759 H   0  0  0  0  0  0  0  0  0  0  0  0
    3.7504   -0.0376   -0.1559 H   0  0  0  0  0  0  0  0  0  0  0  0
    1.7304   -1.3033   -0.1238 H   0  0  0  0  0  0  0  0  0  0  0  0
    1.6422    0.0830   -1.2342 H   0  0  0  0  0  0  0  0  0  0  0  0
    0.4012    1.3984    0.5027 H   0  0  0  0  0  0  0  0  0  0  0  0
    0.5335    0.0136    1.6291 H   0  0  0  0  0  0  0  0  0  0  0  0
   -1.8865    1.6626   -0.3620 H   0  0  0  0  0  0  0  0  0  0  0  0
   -3.6756    0.1465    0.6028 H   0  0  0  0  0  0  0  0  0  0  0  0
   -3.3274   -0.9928   -0.8440 H   0  0  0  0  0  0  0  0  0  0  0  0
  1  2  1  0
  2  3  1  0
  3  4  1  0
  4  5  1  0
  5  6  1  0
  6  7  1  0
  7  8  1  0
  8  9  2  0
  6  4  1  0
  8  4  1  0
  1 10  1  0
  1 11  1  0
  1 12  1  0
  2 13  1  0
  2 14  1  0
  3 15  1  0
  3 16  1  0
  6 17  1  0
  7 18  1  0
  7 19  1  0
M  END
