
     RDKit          3D

 25 24  0  0  0  0  0  0  0  0999 V2000
    3.4518   -0.0514   -0.4452 C   0  0  0  0  0  0  0  0  0  0  0  0
    2.3070    0.5783    0.3256 C   0  0  0  0  0  0  0  0  0  0  0  0
    1.2128   -0.4135    0.6202 C   0  0  0  0  0  0  0  0  0  0  0  0
    0.6724   -0.9514   -0.6905 C   0  0  0  0  0  0  0  0  0  0  0  0
    0.1497    0.0282   -1.5053 O   0  0  0  0  0  0  0  0  0  0  0  0
   -0.9052    0.7268   -0.9352 C   0  0  0  0  0  0  0  0  0  0  0  0
   -2.0705   -0.1689   -0.5773 C   0  0  0  0  0  0  0  0  0  0  0  0
   -3.2068    0.5867    0.0342 C   0  0  0  0  0  0  0  0  0  0  0  0
   -4.2191   -0.3352    0.3220 O   0  0  0  0  0  0  0  0  0  0  0  0
    4.3872    0.4983   -0.3411 H   0  0  0  0  0  0  0  0  0  0  0  0
    3.1585   -0.0396   -1.5172 H   0  0  0  0  0  0  0  0  0  0  0  0
    3.6098   -1.0954   -0.1079 H   0  0  0  0  0  0  0  0  0  0  0  0
    2.7064    1.0411    1.2417 H   0  0  0  0  0  0  0  0  0  0  0  0
    1.8592    1.3643   -0.3247 H   0  0  0  0  0  0  0  0  0  0  0  0
    1.6269   -1.2680    1.2156 H   0  0  0  0  0  0  0  0  0  0  0  0
    0.4522    0.0822    1.2378 H   0  0  0  0  0  0  0  0  0  0  0  0
    1.5585   -1.3787   -1.2462 H   0  0  0  0  0  0  0  0  0  0  0  0
   -0.0544   -1.7579   -0.5554 H   0  0  0  0  0  0  0  0  0  0  0  0
   -1.2763    1.4807   -1.6593 H   0  0  0  0  0  0  0  0  0  0  0  0
   -0.5258    1.2915   -0.0686 H   0  0  0  0  0  0  0  0  0  0  0  0
   -1.7364   -0.9105    0.2062 H   0  0  0  0  0  0  0  0  0  0  0  0
   -2.4220   -0.7560   -1.4321 H   0  0  0  0  0  0  0  0  0  0  0  0
   -3.6252    1.3695   -0.6196 H   0  0  0  0  0  0  0  0  0  0  0  0
   -2.8929    1.0663    1.0009 H   0  0  0  0  0  0  0  0  0  0  0  0
   -4.2177   -0.9874   -0.4446 H   0  0  0  0  0  0  0  0  0  0  0  0
  1  2  1  0
  2  3  1  0
  3  4  1  0
  4  5  1  0
  5  6  1  0
  6  7  1  0
  7  8  1  0
  8  9  1  0
  1 10  1  0
  1 11  1  0
  1 12  1  0
  2 13  1  0
  2 14  1  0
  3 15  1  0
  3 16  1  0
  4 17  1  0
  4 18  1  0
  6 19  1  0
  6 20  1  0
  7 21  1  0
  7 22  1  0
  8 23  1  0
  8 24  1  0
  9 25  1  0
M  END
