
     RDKit          3D

 25 24  0  0  0  0  0  0  0  0999 V2000
    3.1282    1.2044    0.3737 C   0  0  0  0  0  0  0  0  0  0  0  0
    2.0733    0.1357    0.5176 C   0  0  0  0  0  0  0  0  0  0  0  0
    0.7449    0.5890   -0.0858 C   0  0  0  0  0  0  0  0  0  0  0  0
   -0.2175   -0.5395    0.1124 C   0  0  0  0  0  0  0  0  0  0  0  0
    0.2705   -1.7929   -0.5769 C   0  0  0  0  0  0  0  0  0  0  0  0
   -0.2559   -0.8209    1.4852 O   0  0  0  0  0  0  0  0  0  0  0  0
   -1.6099   -0.2335   -0.3702 C   0  0  0  0  0  0  0  0  0  0  0  0
   -2.1913    0.8430    0.2512 O   0  0  0  0  0  0  0  0  0  0  0  0
   -3.4625    1.0160   -0.2816 C   0  0  0  0  0  0  0  0  0  0  0  0
    3.9558    0.9770    1.0712 H   0  0  0  0  0  0  0  0  0  0  0  0
    2.7255    2.2163    0.4822 H   0  0  0  0  0  0  0  0  0  0  0  0
    3.5374    1.1405   -0.6681 H   0  0  0  0  0  0  0  0  0  0  0  0
    2.3556   -0.7982   -0.0037 H   0  0  0  0  0  0  0  0  0  0  0  0
    1.9114   -0.0978    1.5897 H   0  0  0  0  0  0  0  0  0  0  0  0
    0.3612    1.4677    0.4625 H   0  0  0  0  0  0  0  0  0  0  0  0
    0.9073    0.8519   -1.1469 H   0  0  0  0  0  0  0  0  0  0  0  0
    1.0202   -2.3413    0.0109 H   0  0  0  0  0  0  0  0  0  0  0  0
    0.6047   -1.5727   -1.6160 H   0  0  0  0  0  0  0  0  0  0  0  0
   -0.6229   -2.4622   -0.6887 H   0  0  0  0  0  0  0  0  0  0  0  0
    0.1142   -1.7007    1.7009 H   0  0  0  0  0  0  0  0  0  0  0  0
   -1.5885   -0.1283   -1.4823 H   0  0  0  0  0  0  0  0  0  0  0  0
   -2.2309   -1.1354   -0.1358 H   0  0  0  0  0  0  0  0  0  0  0  0
   -4.1129    0.1305   -0.1341 H   0  0  0  0  0  0  0  0  0  0  0  0
   -3.4290    1.1810   -1.3889 H   0  0  0  0  0  0  0  0  0  0  0  0
   -3.9889    1.8703    0.2207 H   0  0  0  0  0  0  0  0  0  0  0  0
  1  2  1  0
  2  3  1  0
  3  4  1  0
  4  5  1  0
  4  6  1  0
  4  7  1  0
  7  8  1  0
  8  9  1  0
  1 10  1  0
  1 11  1  0
  1 12  1  0
  2 13  1  0
  2 14  1  0
  3 15  1  0
  3 16  1  0
  5 17  1  0
  5 18  1  0
  5 19  1  0
  6 20  1  0
  7 21  1  0
  7 22  1  0
  9 23  1  0
  9 24  1  0
  9 25  1  0
M  END
