
     RDKit          3D

 23 22  0  0  0  0  0  0  0  0999 V2000
   -2.9165   -0.7956    0.1862 C   0  0  0  0  0  0  0  0  0  0  0  0
   -1.6278   -0.4557   -0.5493 C   0  0  0  0  0  0  0  0  0  0  0  0
   -0.5637    0.0204    0.4256 C   0  0  0  0  0  0  0  0  0  0  0  0
    0.6847    0.3422   -0.3532 C   0  0  0  0  0  0  0  0  0  0  0  0
    0.4560    1.4255   -1.3848 C   0  0  0  0  0  0  0  0  0  0  0  0
    1.7550    0.8525    0.5797 C   0  0  0  0  0  0  0  0  0  0  0  0
    2.0479   -0.1117    1.5294 O   0  0  0  0  0  0  0  0  0  0  0  0
    2.5310   -1.3605    1.2746 C   0  0  0  0  0  0  0  0  0  0  0  0
    2.7484   -1.7191    0.1045 O   0  0  0  0  0  0  0  0  0  0  0  0
   -3.7411   -0.8100   -0.5603 H   0  0  0  0  0  0  0  0  0  0  0  0
   -2.8715   -1.8120    0.6294 H   0  0  0  0  0  0  0  0  0  0  0  0
   -3.1843   -0.0124    0.9341 H   0  0  0  0  0  0  0  0  0  0  0  0
   -1.3198   -1.3884   -1.0639 H   0  0  0  0  0  0  0  0  0  0  0  0
   -1.8133    0.3355   -1.3015 H   0  0  0  0  0  0  0  0  0  0  0  0
   -0.9224    0.8413    1.0590 H   0  0  0  0  0  0  0  0  0  0  0  0
   -0.3278   -0.8462    1.0779 H   0  0  0  0  0  0  0  0  0  0  0  0
    1.0127   -0.5583   -0.8865 H   0  0  0  0  0  0  0  0  0  0  0  0
   -0.1555    1.0933   -2.2365 H   0  0  0  0  0  0  0  0  0  0  0  0
    0.0506    2.3340   -0.8782 H   0  0  0  0  0  0  0  0  0  0  0  0
    1.4649    1.7055   -1.7687 H   0  0  0  0  0  0  0  0  0  0  0  0
    1.3458    1.7634    1.0929 H   0  0  0  0  0  0  0  0  0  0  0  0
    2.6225    1.1957   -0.0157 H   0  0  0  0  0  0  0  0  0  0  0  0
    2.7243   -2.0392    2.1052 H   0  0  0  0  0  0  0  0  0  0  0  0
  1  2  1  0
  2  3  1  0
  3  4  1  0
  4  5  1  0
  4  6  1  0
  6  7  1  0
  7  8  1  0
  8  9  2  0
  1 10  1  0
  1 11  1  0
  1 12  1  0
  2 13  1  0
  2 14  1  0
  3 15  1  0
  3 16  1  0
  4 17  1  0
  5 18  1  0
  5 19  1  0
  5 20  1  0
  6 21  1  0
  6 22  1  0
  8 23  1  0
M  END
