
     RDKit          3D

 23 24  0  0  0  0  0  0  0  0999 V2000
    3.1131   -0.7569    0.1715 C   0  0  0  0  0  0  0  0  0  0  0  0
    1.6486   -0.7144   -0.2507 C   0  0  0  0  0  0  0  0  0  0  0  0
    0.9568    0.2810    0.6457 C   0  0  0  0  0  0  0  0  0  0  0  0
   -0.5009    0.4383    0.3546 C   0  0  0  0  0  0  0  0  0  0  0  0
   -1.4403   -0.7148    0.4527 C   0  0  0  0  0  0  0  0  0  0  0  0
   -2.1271   -0.2510   -0.8379 C   0  0  0  0  0  0  0  0  0  0  0  0
   -3.3719    0.3399   -0.6001 O   0  0  0  0  0  0  0  0  0  0  0  0
   -1.0271    0.7744   -0.9739 C   0  0  0  0  0  0  0  0  0  0  0  0
   -1.0152    1.8129    0.1027 C   0  0  0  0  0  0  0  0  0  0  0  0
    3.4722   -1.7932    0.1089 H   0  0  0  0  0  0  0  0  0  0  0  0
    3.6782   -0.1171   -0.5408 H   0  0  0  0  0  0  0  0  0  0  0  0
    3.2720   -0.3744    1.1873 H   0  0  0  0  0  0  0  0  0  0  0  0
    1.1830   -1.7098   -0.1112 H   0  0  0  0  0  0  0  0  0  0  0  0
    1.5483   -0.4144   -1.3187 H   0  0  0  0  0  0  0  0  0  0  0  0
    1.4466    1.2746    0.5942 H   0  0  0  0  0  0  0  0  0  0  0  0
    1.0874   -0.0755    1.6887 H   0  0  0  0  0  0  0  0  0  0  0  0
   -2.1014   -0.6063    1.3382 H   0  0  0  0  0  0  0  0  0  0  0  0
   -0.9773   -1.7052    0.3289 H   0  0  0  0  0  0  0  0  0  0  0  0
   -2.1860   -1.0116   -1.6239 H   0  0  0  0  0  0  0  0  0  0  0  0
   -3.9786   -0.2274   -0.0803 H   0  0  0  0  0  0  0  0  0  0  0  0
   -0.4311    0.8542   -1.8764 H   0  0  0  0  0  0  0  0  0  0  0  0
   -0.2625    2.6122    0.0026 H   0  0  0  0  0  0  0  0  0  0  0  0
   -1.9869    2.0844    0.6067 H   0  0  0  0  0  0  0  0  0  0  0  0
  1  2  1  0
  2  3  1  0
  3  4  1  0
  4  5  1  0
  5  6  1  0
  6  7  1  0
  6  8  1  0
  8  9  1  0
  8  4  1  0
  9  4  1  0
  1 10  1  0
  1 11  1  0
  1 12  1  0
  2 13  1  0
  2 14  1  0
  3 15  1  0
  3 16  1  0
  5 17  1  0
  5 18  1  0
  6 19  1  0
  7 20  1  0
  8 21  1  0
  9 22  1  0
  9 23  1  0
M  END
