
     RDKit          3D

 25 25  0  0  0  0  0  0  0  0999 V2000
    3.1488    0.9008    0.0674 C   0  0  0  0  0  0  0  0  0  0  0  0
    1.6507    0.6453   -0.1751 C   0  0  0  0  0  0  0  0  0  0  0  0
    1.3574   -0.7023    0.3246 C   0  0  0  0  0  0  0  0  0  0  0  0
   -0.0169   -1.2296    0.2234 C   0  0  0  0  0  0  0  0  0  0  0  0
   -0.0163   -2.5460    0.7765 O   0  0  0  0  0  0  0  0  0  0  0  0
   -0.7655   -1.2160   -1.0865 C   0  0  0  0  0  0  0  0  0  0  0  0
   -1.2737   -0.5622    0.2181 C   0  0  0  0  0  0  0  0  0  0  0  0
   -1.5549    0.8946    0.0526 C   0  0  0  0  0  0  0  0  0  0  0  0
   -3.0557    1.2001    0.1039 C   0  0  0  0  0  0  0  0  0  0  0  0
    3.3534    1.9750    0.2141 H   0  0  0  0  0  0  0  0  0  0  0  0
    3.4952    0.3823    0.9852 H   0  0  0  0  0  0  0  0  0  0  0  0
    3.7425    0.4708   -0.7725 H   0  0  0  0  0  0  0  0  0  0  0  0
    1.5289    0.7289   -1.2822 H   0  0  0  0  0  0  0  0  0  0  0  0
    1.1413    1.4869    0.2696 H   0  0  0  0  0  0  0  0  0  0  0  0
    2.0327   -1.4140   -0.2447 H   0  0  0  0  0  0  0  0  0  0  0  0
    1.6948   -0.8242    1.3869 H   0  0  0  0  0  0  0  0  0  0  0  0
   -0.0350   -3.2230    0.0644 H   0  0  0  0  0  0  0  0  0  0  0  0
   -1.3327   -2.0772   -1.4387 H   0  0  0  0  0  0  0  0  0  0  0  0
   -0.3159   -0.5522   -1.8451 H   0  0  0  0  0  0  0  0  0  0  0  0
   -2.1625   -1.0896    0.6866 H   0  0  0  0  0  0  0  0  0  0  0  0
   -1.1488    1.4558    0.9356 H   0  0  0  0  0  0  0  0  0  0  0  0
   -1.2355    1.3242   -0.9161 H   0  0  0  0  0  0  0  0  0  0  0  0
   -3.1559    2.3151    0.2337 H   0  0  0  0  0  0  0  0  0  0  0  0
   -3.5268    0.6909    0.9673 H   0  0  0  0  0  0  0  0  0  0  0  0
   -3.5494    0.9656   -0.8585 H   0  0  0  0  0  0  0  0  0  0  0  0
  1  2  1  0
  2  3  1  0
  3  4  1  0
  4  5  1  0
  4  6  1  0
  6  7  1  0
  7  8  1  0
  8  9  1  0
  7  4  1  0
  1 10  1  0
  1 11  1  0
  1 12  1  0
  2 13  1  0
  2 14  1  0
  3 15  1  0
  3 16  1  0
  5 17  1  0
  6 18  1  0
  6 19  1  0
  7 20  1  0
  8 21  1  0
  8 22  1  0
  9 23  1  0
  9 24  1  0
  9 25  1  0
M  END
