
     RDKit          3D

 25 25  0  0  0  0  0  0  0  0999 V2000
    2.6743   -0.5502    0.8936 C   0  0  0  0  0  0  0  0  0  0  0  0
    2.3395   -0.0845   -0.4662 C   0  0  0  0  0  0  0  0  0  0  0  0
    1.1078   -0.5344   -1.1119 C   0  0  0  0  0  0  0  0  0  0  0  0
   -0.2013   -0.2581   -0.5326 C   0  0  0  0  0  0  0  0  0  0  0  0
   -0.4630   -0.8089    0.8240 C   0  0  0  0  0  0  0  0  0  0  0  0
   -1.7465   -0.6655    1.2306 C   0  0  0  0  0  0  0  0  0  0  0  0
   -2.6781    0.0014    0.2887 C   0  0  0  0  0  0  0  0  0  0  0  0
   -2.1078    1.2433   -0.3477 C   0  0  0  0  0  0  0  0  0  0  0  0
   -0.5966    1.1993   -0.4696 C   0  0  0  0  0  0  0  0  0  0  0  0
    2.2000    0.0878    1.6902 H   0  0  0  0  0  0  0  0  0  0  0  0
    3.7772   -0.3349    1.0622 H   0  0  0  0  0  0  0  0  0  0  0  0
    2.5912   -1.6243    1.0651 H   0  0  0  0  0  0  0  0  0  0  0  0
    2.3404    1.0446   -0.4702 H   0  0  0  0  0  0  0  0  0  0  0  0
    3.1908   -0.3296   -1.1718 H   0  0  0  0  0  0  0  0  0  0  0  0
    1.1195   -0.1207   -2.1650 H   0  0  0  0  0  0  0  0  0  0  0  0
    1.1972   -1.6478   -1.2927 H   0  0  0  0  0  0  0  0  0  0  0  0
   -0.9835   -0.7414   -1.1936 H   0  0  0  0  0  0  0  0  0  0  0  0
    0.2702   -1.2844    1.4497 H   0  0  0  0  0  0  0  0  0  0  0  0
   -2.0172   -1.0393    2.2043 H   0  0  0  0  0  0  0  0  0  0  0  0
   -2.9771   -0.7227   -0.5076 H   0  0  0  0  0  0  0  0  0  0  0  0
   -3.6053    0.2409    0.8859 H   0  0  0  0  0  0  0  0  0  0  0  0
   -2.5534    1.4561   -1.3369 H   0  0  0  0  0  0  0  0  0  0  0  0
   -2.4202    2.1014    0.3173 H   0  0  0  0  0  0  0  0  0  0  0  0
   -0.2328    1.7702   -1.3422 H   0  0  0  0  0  0  0  0  0  0  0  0
   -0.2254    1.6018    0.4965 H   0  0  0  0  0  0  0  0  0  0  0  0
  1  2  1  0
  2  3  1  0
  3  4  1  0
  4  5  1  0
  5  6  2  0
  6  7  1  0
  7  8  1  0
  8  9  1  0
  9  4  1  0
  1 10  1  0
  1 11  1  0
  1 12  1  0
  2 13  1  0
  2 14  1  0
  3 15  1  0
  3 16  1  0
  4 17  1  0
  5 18  1  0
  6 19  1  0
  7 20  1  0
  7 21  1  0
  8 22  1  0
  8 23  1  0
  9 24  1  0
  9 25  1  0
M  END
