
     RDKit          3D

 23 22  0  0  0  0  0  0  0  0999 V2000
   -1.7638    0.4751   -0.3555 C   0  0  0  0  0  0  0  0  0  0  0  0
   -2.5690   -0.7278   -0.0204 C   0  0  0  0  0  0  0  0  0  0  0  0
   -1.9647   -1.6780    0.9549 C   0  0  0  0  0  0  0  0  0  0  0  0
   -0.6665   -2.2848    0.5629 C   0  0  0  0  0  0  0  0  0  0  0  0
    0.3777   -1.3160    0.3528 C   0  0  0  0  0  0  0  0  0  0  0  0
    1.2700   -0.5103    0.1893 C   0  0  0  0  0  0  0  0  0  0  0  0
    2.3498    0.4543   -0.0177 C   0  0  0  0  0  0  0  0  0  0  0  0
    1.8587    1.5951   -0.6514 O   0  0  0  0  0  0  0  0  0  0  0  0
    2.8240    2.5419   -0.8747 C   0  0  0  0  0  0  0  0  0  0  0  0
   -1.2524    0.8544    0.5286 H   0  0  0  0  0  0  0  0  0  0  0  0
   -1.1306    0.2428   -1.2268 H   0  0  0  0  0  0  0  0  0  0  0  0
   -2.4991    1.2883   -0.6362 H   0  0  0  0  0  0  0  0  0  0  0  0
   -3.5477   -0.3967    0.4272 H   0  0  0  0  0  0  0  0  0  0  0  0
   -2.8349   -1.2451   -0.9630 H   0  0  0  0  0  0  0  0  0  0  0  0
   -1.9120   -1.2420    1.9785 H   0  0  0  0  0  0  0  0  0  0  0  0
   -2.7033   -2.5283    1.0569 H   0  0  0  0  0  0  0  0  0  0  0  0
   -0.8101   -2.9810   -0.2877 H   0  0  0  0  0  0  0  0  0  0  0  0
   -0.3394   -2.9329    1.4231 H   0  0  0  0  0  0  0  0  0  0  0  0
    2.8241    0.7613    0.9372 H   0  0  0  0  0  0  0  0  0  0  0  0
    3.1373   -0.0579   -0.6125 H   0  0  0  0  0  0  0  0  0  0  0  0
    3.3072    2.9018    0.0799 H   0  0  0  0  0  0  0  0  0  0  0  0
    2.3910    3.3927   -1.4115 H   0  0  0  0  0  0  0  0  0  0  0  0
    3.6537    2.0504   -1.4339 H   0  0  0  0  0  0  0  0  0  0  0  0
  1  2  1  0
  2  3  1  0
  3  4  1  0
  4  5  1  0
  5  6  3  0
  6  7  1  0
  7  8  1  0
  8  9  1  0
  1 10  1  0
  1 11  1  0
  1 12  1  0
  2 13  1  0
  2 14  1  0
  3 15  1  0
  3 16  1  0
  4 17  1  0
  4 18  1  0
  7 19  1  0
  7 20  1  0
  9 21  1  0
  9 22  1  0
  9 23  1  0
M  END
