
     RDKit          3D

 25 24  0  0  0  0  0  0  0  0999 V2000
    3.9239   -1.7324   -1.6705 C   0  0  0  0  0  0  0  0  0  0  0  0
    2.9934   -1.2323   -0.5977 C   0  0  0  0  0  0  0  0  0  0  0  0
    1.8639   -0.4774   -1.3113 C   0  0  0  0  0  0  0  0  0  0  0  0
    0.9028    0.0455   -0.4062 C   0  0  0  0  0  0  0  0  0  0  0  0
    0.0550    0.5296    0.3897 C   0  0  0  0  0  0  0  0  0  0  0  0
   -0.9408    1.0689    1.3145 C   0  0  0  0  0  0  0  0  0  0  0  0
   -2.2368    1.1580    0.5422 C   0  0  0  0  0  0  0  0  0  0  0  0
   -3.2915    1.7105    1.4724 C   0  0  0  0  0  0  0  0  0  0  0  0
   -2.6688   -0.2299    0.1182 C   0  0  0  0  0  0  0  0  0  0  0  0
    4.8186   -2.2240   -1.2597 H   0  0  0  0  0  0  0  0  0  0  0  0
    3.3939   -2.4718   -2.3088 H   0  0  0  0  0  0  0  0  0  0  0  0
    4.1797   -0.8909   -2.3416 H   0  0  0  0  0  0  0  0  0  0  0  0
    3.5933   -0.4931    0.0026 H   0  0  0  0  0  0  0  0  0  0  0  0
    2.6022   -2.0096    0.0489 H   0  0  0  0  0  0  0  0  0  0  0  0
    2.3934    0.3122   -1.9007 H   0  0  0  0  0  0  0  0  0  0  0  0
    1.3584   -1.1556   -2.0330 H   0  0  0  0  0  0  0  0  0  0  0  0
   -1.0964    0.3827    2.1703 H   0  0  0  0  0  0  0  0  0  0  0  0
   -0.6101    2.0492    1.7162 H   0  0  0  0  0  0  0  0  0  0  0  0
   -2.1534    1.8344   -0.3335 H   0  0  0  0  0  0  0  0  0  0  0  0
   -2.8162    2.2427    2.3427 H   0  0  0  0  0  0  0  0  0  0  0  0
   -3.9551    2.4303    0.9718 H   0  0  0  0  0  0  0  0  0  0  0  0
   -3.9455    0.8805    1.8545 H   0  0  0  0  0  0  0  0  0  0  0  0
   -3.7744   -0.3562    0.2703 H   0  0  0  0  0  0  0  0  0  0  0  0
   -2.1321   -0.9510    0.7498 H   0  0  0  0  0  0  0  0  0  0  0  0
   -2.4576   -0.4202   -0.9464 H   0  0  0  0  0  0  0  0  0  0  0  0
  1  2  1  0
  2  3  1  0
  3  4  1  0
  4  5  3  0
  5  6  1  0
  6  7  1  0
  7  8  1  0
  7  9  1  0
  1 10  1  0
  1 11  1  0
  1 12  1  0
  2 13  1  0
  2 14  1  0
  3 15  1  0
  3 16  1  0
  6 17  1  0
  6 18  1  0
  7 19  1  0
  8 20  1  0
  8 21  1  0
  8 22  1  0
  9 23  1  0
  9 24  1  0
  9 25  1  0
M  END
