
     RDKit          3D

 23 23  0  0  0  0  0  0  0  0999 V2000
    2.5474    0.1727    0.6837 C   0  0  0  0  0  0  0  0  0  0  0  0
    1.5330    1.0664    0.0034 C   0  0  0  0  0  0  0  0  0  0  0  0
    0.5522    0.2582   -0.8106 C   0  0  0  0  0  0  0  0  0  0  0  0
   -0.2236   -0.7196   -0.0055 C   0  0  0  0  0  0  0  0  0  0  0  0
    0.5278   -1.6615    0.6477 O   0  0  0  0  0  0  0  0  0  0  0  0
   -1.3824   -1.2674   -0.8255 C   0  0  0  0  0  0  0  0  0  0  0  0
   -2.1611   -1.2750    0.3203 O   0  0  0  0  0  0  0  0  0  0  0  0
   -1.3715   -0.2035    0.8000 C   0  0  0  0  0  0  0  0  0  0  0  0
   -1.9770    1.0898    0.3834 C   0  0  0  0  0  0  0  0  0  0  0  0
    2.7487   -0.6643   -0.0269 H   0  0  0  0  0  0  0  0  0  0  0  0
    2.1425   -0.2677    1.6048 H   0  0  0  0  0  0  0  0  0  0  0  0
    3.5091    0.7015    0.8371 H   0  0  0  0  0  0  0  0  0  0  0  0
    1.0079    1.7231    0.7405 H   0  0  0  0  0  0  0  0  0  0  0  0
    2.0950    1.7420   -0.6658 H   0  0  0  0  0  0  0  0  0  0  0  0
   -0.0928    0.8843   -1.4418 H   0  0  0  0  0  0  0  0  0  0  0  0
    1.1832   -0.3385   -1.5351 H   0  0  0  0  0  0  0  0  0  0  0  0
   -0.0544   -2.4183    0.9009 H   0  0  0  0  0  0  0  0  0  0  0  0
   -1.7134   -0.5841   -1.6351 H   0  0  0  0  0  0  0  0  0  0  0  0
   -1.1058   -2.2340   -1.2475 H   0  0  0  0  0  0  0  0  0  0  0  0
   -1.1853   -0.3493    1.8773 H   0  0  0  0  0  0  0  0  0  0  0  0
   -2.7947    0.9773   -0.3793 H   0  0  0  0  0  0  0  0  0  0  0  0
   -1.2813    1.8506    0.0314 H   0  0  0  0  0  0  0  0  0  0  0  0
   -2.5034    1.5174    1.2841 H   0  0  0  0  0  0  0  0  0  0  0  0
  1  2  1  0
  2  3  1  0
  3  4  1  0
  4  5  1  0
  4  6  1  0
  6  7  1  0
  7  8  1  0
  8  9  1  0
  8  4  1  0
  1 10  1  0
  1 11  1  0
  1 12  1  0
  2 13  1  0
  2 14  1  0
  3 15  1  0
  3 16  1  0
  5 17  1  0
  6 18  1  0
  6 19  1  0
  8 20  1  0
  9 21  1  0
  9 22  1  0
  9 23  1  0
M  END
