
     RDKit          3D

 25 25  0  0  0  0  0  0  0  0999 V2000
   -3.3428    1.0575    0.3725 C   0  0  0  0  0  0  0  0  0  0  0  0
   -1.8197    0.9166    0.5095 C   0  0  0  0  0  0  0  0  0  0  0  0
   -1.4755   -0.4697    0.0734 C   0  0  0  0  0  0  0  0  0  0  0  0
   -0.0289   -0.8127    0.1318 C   0  0  0  0  0  0  0  0  0  0  0  0
    0.2264   -2.2411   -0.3295 C   0  0  0  0  0  0  0  0  0  0  0  0
    0.6939   -0.5141    1.3078 O   0  0  0  0  0  0  0  0  0  0  0  0
    1.0556    0.1336    0.1434 C   0  0  0  0  0  0  0  0  0  0  0  0
    2.3815   -0.0892   -0.5010 C   0  0  0  0  0  0  0  0  0  0  0  0
    3.2679    1.1176   -0.2834 C   0  0  0  0  0  0  0  0  0  0  0  0
   -3.7717    0.6213    1.2834 H   0  0  0  0  0  0  0  0  0  0  0  0
   -3.5347    2.1548    0.3660 H   0  0  0  0  0  0  0  0  0  0  0  0
   -3.7022    0.5607   -0.5468 H   0  0  0  0  0  0  0  0  0  0  0  0
   -1.5936    1.1438    1.5489 H   0  0  0  0  0  0  0  0  0  0  0  0
   -1.3988    1.6730   -0.1823 H   0  0  0  0  0  0  0  0  0  0  0  0
   -1.7908   -0.5577   -1.0057 H   0  0  0  0  0  0  0  0  0  0  0  0
   -2.0650   -1.2445    0.6046 H   0  0  0  0  0  0  0  0  0  0  0  0
   -0.1834   -2.3789   -1.3632 H   0  0  0  0  0  0  0  0  0  0  0  0
   -0.3989   -2.8879    0.3396 H   0  0  0  0  0  0  0  0  0  0  0  0
    1.2532   -2.5598   -0.2103 H   0  0  0  0  0  0  0  0  0  0  0  0
    0.7822    1.2296    0.1579 H   0  0  0  0  0  0  0  0  0  0  0  0
    2.2047   -0.1329   -1.6166 H   0  0  0  0  0  0  0  0  0  0  0  0
    2.9182   -0.9871   -0.1520 H   0  0  0  0  0  0  0  0  0  0  0  0
    2.7575    1.9862   -0.7570 H   0  0  0  0  0  0  0  0  0  0  0  0
    4.2850    0.9558   -0.6985 H   0  0  0  0  0  0  0  0  0  0  0  0
    3.2798    1.3252    0.8076 H   0  0  0  0  0  0  0  0  0  0  0  0
  1  2  1  0
  2  3  1  0
  3  4  1  0
  4  5  1  0
  4  6  1  0
  6  7  1  0
  7  8  1  0
  8  9  1  0
  7  4  1  0
  1 10  1  0
  1 11  1  0
  1 12  1  0
  2 13  1  0
  2 14  1  0
  3 15  1  0
  3 16  1  0
  5 17  1  0
  5 18  1  0
  5 19  1  0
  7 20  1  0
  8 21  1  0
  8 22  1  0
  9 23  1  0
  9 24  1  0
  9 25  1  0
M  END
