
     RDKit          3D

 24 23  0  0  0  0  0  0  0  0999 V2000
   -3.0789    0.9069    0.8858 C   0  0  0  0  0  0  0  0  0  0  0  0
   -2.8416    0.5505   -0.5540 C   0  0  0  0  0  0  0  0  0  0  0  0
   -1.8421   -0.5708   -0.7247 C   0  0  0  0  0  0  0  0  0  0  0  0
   -0.4828   -0.1824   -0.1272 C   0  0  0  0  0  0  0  0  0  0  0  0
    0.3549   -1.2493   -0.3254 O   0  0  0  0  0  0  0  0  0  0  0  0
    1.6311   -1.1038    0.1422 C   0  0  0  0  0  0  0  0  0  0  0  0
    2.3915    0.0492   -0.4685 C   0  0  0  0  0  0  0  0  0  0  0  0
    3.7699    0.1256    0.1026 C   0  0  0  0  0  0  0  0  0  0  0  0
   -4.1525    1.2241    1.0246 H   0  0  0  0  0  0  0  0  0  0  0  0
   -2.9161    0.0691    1.5736 H   0  0  0  0  0  0  0  0  0  0  0  0
   -2.4746    1.7952    1.1235 H   0  0  0  0  0  0  0  0  0  0  0  0
   -3.8013    0.1796   -0.9696 H   0  0  0  0  0  0  0  0  0  0  0  0
   -2.5058    1.4021   -1.1673 H   0  0  0  0  0  0  0  0  0  0  0  0
   -1.7205   -0.7325   -1.8150 H   0  0  0  0  0  0  0  0  0  0  0  0
   -2.1705   -1.5138   -0.2732 H   0  0  0  0  0  0  0  0  0  0  0  0
   -0.1404    0.7465   -0.6709 H   0  0  0  0  0  0  0  0  0  0  0  0
   -0.6047    0.1204    0.9222 H   0  0  0  0  0  0  0  0  0  0  0  0
    1.7047   -1.0560    1.2480 H   0  0  0  0  0  0  0  0  0  0  0  0
    2.1914   -2.0343   -0.1459 H   0  0  0  0  0  0  0  0  0  0  0  0
    2.4262   -0.0645   -1.5758 H   0  0  0  0  0  0  0  0  0  0  0  0
    1.8408    1.0117   -0.2827 H   0  0  0  0  0  0  0  0  0  0  0  0
    3.9276   -0.7271    0.7894 H   0  0  0  0  0  0  0  0  0  0  0  0
    3.9772    1.0701    0.6390 H   0  0  0  0  0  0  0  0  0  0  0  0
    4.5167   -0.0165   -0.7323 H   0  0  0  0  0  0  0  0  0  0  0  0
  1  2  1  0
  2  3  1  0
  3  4  1  0
  4  5  1  0
  5  6  1  0
  6  7  1  0
  7  8  1  0
  1  9  1  0
  1 10  1  0
  1 11  1  0
  2 12  1  0
  2 13  1  0
  3 14  1  0
  3 15  1  0
  4 16  1  0
  4 17  1  0
  6 18  1  0
  6 19  1  0
  7 20  1  0
  7 21  1  0
  8 22  1  0
  8 23  1  0
  8 24  1  0
M  END
