
     RDKit          3D

 21 21  0  0  0  0  0  0  0  0999 V2000
   -1.2228    2.0892   -0.4272 C   0  0  0  0  0  0  0  0  0  0  0  0
   -2.0127    1.5320    0.7331 C   0  0  0  0  0  0  0  0  0  0  0  0
   -1.0606    0.8660    1.7145 C   0  0  0  0  0  0  0  0  0  0  0  0
   -0.4020   -0.2705    1.0378 C   0  0  0  0  0  0  0  0  0  0  0  0
    0.1041   -1.1834    0.4948 C   0  0  0  0  0  0  0  0  0  0  0  0
    0.7274   -2.3602   -0.2058 C   0  0  0  0  0  0  0  0  0  0  0  0
    2.0142   -1.7620   -0.7577 C   0  0  0  0  0  0  0  0  0  0  0  0
    2.0062   -0.6528   -1.6507 C   0  0  0  0  0  0  0  0  0  0  0  0
    2.1528   -2.0182   -2.2087 O   0  0  0  0  0  0  0  0  0  0  0  0
   -1.7580    1.7849   -1.3609 H   0  0  0  0  0  0  0  0  0  0  0  0
   -0.1970    1.6380   -0.3993 H   0  0  0  0  0  0  0  0  0  0  0  0
   -1.1958    3.1716   -0.3904 H   0  0  0  0  0  0  0  0  0  0  0  0
   -2.7615    0.7821    0.3695 H   0  0  0  0  0  0  0  0  0  0  0  0
   -2.6248    2.2913    1.2496 H   0  0  0  0  0  0  0  0  0  0  0  0
   -0.2499    1.6238    1.9952 H   0  0  0  0  0  0  0  0  0  0  0  0
   -1.5619    0.5951    2.6381 H   0  0  0  0  0  0  0  0  0  0  0  0
    1.0182   -3.1067    0.5629 H   0  0  0  0  0  0  0  0  0  0  0  0
    0.0855   -2.7961   -0.9686 H   0  0  0  0  0  0  0  0  0  0  0  0
    2.9291   -2.0412   -0.2261 H   0  0  0  0  0  0  0  0  0  0  0  0
    2.9108   -0.0367   -1.7785 H   0  0  0  0  0  0  0  0  0  0  0  0
    1.0986   -0.1462   -2.0199 H   0  0  0  0  0  0  0  0  0  0  0  0
  1  2  1  0
  2  3  1  0
  3  4  1  0
  4  5  3  0
  5  6  1  0
  6  7  1  0
  7  8  1  0
  8  9  1  0
  9  7  1  0
  1 10  1  0
  1 11  1  0
  1 12  1  0
  2 13  1  0
  2 14  1  0
  3 15  1  0
  3 16  1  0
  6 17  1  0
  6 18  1  0
  7 19  1  0
  8 20  1  0
  8 21  1  0
M  END
