
     RDKit          3D

 25 25  0  0  0  0  0  0  0  0999 V2000
    3.2629   -0.8010   -0.1118 C   0  0  0  0  0  0  0  0  0  0  0  0
    1.7817   -0.7229    0.2372 C   0  0  0  0  0  0  0  0  0  0  0  0
    1.0758    0.2924   -0.6199 C   0  0  0  0  0  0  0  0  0  0  0  0
   -0.3982    0.3501   -0.2416 C   0  0  0  0  0  0  0  0  0  0  0  0
   -1.1148   -0.9269   -0.4127 C   0  0  0  0  0  0  0  0  0  0  0  0
   -2.5736   -0.9031   -0.0526 C   0  0  0  0  0  0  0  0  0  0  0  0
   -0.6257    1.0448    1.1217 C   0  0  0  0  0  0  0  0  0  0  0  0
   -1.0066    1.6781   -0.2320 C   0  0  0  0  0  0  0  0  0  0  0  0
   -2.3388    1.9542   -0.3327 O   0  0  0  0  0  0  0  0  0  0  0  0
    3.8562   -0.1085    0.5379 H   0  0  0  0  0  0  0  0  0  0  0  0
    3.4122   -0.4971   -1.1675 H   0  0  0  0  0  0  0  0  0  0  0  0
    3.6470   -1.8183    0.1063 H   0  0  0  0  0  0  0  0  0  0  0  0
    1.3894   -1.7494    0.0372 H   0  0  0  0  0  0  0  0  0  0  0  0
    1.6361   -0.5184    1.3159 H   0  0  0  0  0  0  0  0  0  0  0  0
    1.1019   -0.0906   -1.6641 H   0  0  0  0  0  0  0  0  0  0  0  0
    1.5565    1.2708   -0.6254 H   0  0  0  0  0  0  0  0  0  0  0  0
   -1.0452   -1.3109   -1.4533 H   0  0  0  0  0  0  0  0  0  0  0  0
   -0.6236   -1.7350    0.2077 H   0  0  0  0  0  0  0  0  0  0  0  0
   -3.1769   -0.1987   -0.6105 H   0  0  0  0  0  0  0  0  0  0  0  0
   -3.0422   -1.9157   -0.2273 H   0  0  0  0  0  0  0  0  0  0  0  0
   -2.6931   -0.7137    1.0322 H   0  0  0  0  0  0  0  0  0  0  0  0
    0.2512    1.4932    1.6281 H   0  0  0  0  0  0  0  0  0  0  0  0
   -1.4266    0.6848    1.7724 H   0  0  0  0  0  0  0  0  0  0  0  0
   -0.3586    2.5426   -0.5392 H   0  0  0  0  0  0  0  0  0  0  0  0
   -2.5472    2.6989    0.2941 H   0  0  0  0  0  0  0  0  0  0  0  0
  1  2  1  0
  2  3  1  0
  3  4  1  0
  4  5  1  0
  5  6  1  0
  4  7  1  0
  7  8  1  0
  8  9  1  0
  8  4  1  0
  1 10  1  0
  1 11  1  0
  1 12  1  0
  2 13  1  0
  2 14  1  0
  3 15  1  0
  3 16  1  0
  5 17  1  0
  5 18  1  0
  6 19  1  0
  6 20  1  0
  6 21  1  0
  7 22  1  0
  7 23  1  0
  8 24  1  0
  9 25  1  0
M  END
