
     RDKit          3D

 27 26  0  0  0  0  0  0  0  0999 V2000
   -1.0893    1.9312    0.9013 C   0  0  0  0  0  0  0  0  0  0  0  0
   -1.4893    1.2365   -0.3917 C   0  0  0  0  0  0  0  0  0  0  0  0
   -1.8514   -0.1643   -0.1088 C   0  0  0  0  0  0  0  0  0  0  0  0
   -0.8200   -1.0318    0.4919 C   0  0  0  0  0  0  0  0  0  0  0  0
   -1.3612   -2.4340    0.7148 C   0  0  0  0  0  0  0  0  0  0  0  0
    0.4666   -1.1452   -0.2313 C   0  0  0  0  0  0  0  0  0  0  0  0
    1.1022    0.1059   -0.3660 O   0  0  0  0  0  0  0  0  0  0  0  0
    2.3071   -0.0379   -1.0495 C   0  0  0  0  0  0  0  0  0  0  0  0
    2.9349    1.3349   -1.1595 C   0  0  0  0  0  0  0  0  0  0  0  0
   -1.2411    1.2682    1.7897 H   0  0  0  0  0  0  0  0  0  0  0  0
   -1.7004    2.8356    1.1039 H   0  0  0  0  0  0  0  0  0  0  0  0
   -0.0326    2.3009    0.8397 H   0  0  0  0  0  0  0  0  0  0  0  0
   -0.6894    1.3957   -1.1268 H   0  0  0  0  0  0  0  0  0  0  0  0
   -2.3754    1.7917   -0.7730 H   0  0  0  0  0  0  0  0  0  0  0  0
   -2.7613   -0.1752    0.5273 H   0  0  0  0  0  0  0  0  0  0  0  0
   -2.1812   -0.6400   -1.0796 H   0  0  0  0  0  0  0  0  0  0  0  0
   -0.5849   -0.6453    1.5288 H   0  0  0  0  0  0  0  0  0  0  0  0
   -2.0143   -2.4101    1.6214 H   0  0  0  0  0  0  0  0  0  0  0  0
   -2.0070   -2.7054   -0.1714 H   0  0  0  0  0  0  0  0  0  0  0  0
   -0.5507   -3.1792    0.7912 H   0  0  0  0  0  0  0  0  0  0  0  0
    1.1642   -1.7456    0.4134 H   0  0  0  0  0  0  0  0  0  0  0  0
    0.4204   -1.6815   -1.1910 H   0  0  0  0  0  0  0  0  0  0  0  0
    2.1289   -0.4396   -2.0890 H   0  0  0  0  0  0  0  0  0  0  0  0
    3.0014   -0.7467   -0.5264 H   0  0  0  0  0  0  0  0  0  0  0  0
    2.3049    1.9316   -1.8413 H   0  0  0  0  0  0  0  0  0  0  0  0
    3.9762    1.2777   -1.5535 H   0  0  0  0  0  0  0  0  0  0  0  0
    2.9428    1.7719   -0.1262 H   0  0  0  0  0  0  0  0  0  0  0  0
  1  2  1  0
  2  3  1  0
  3  4  1  0
  4  5  1  0
  4  6  1  0
  6  7  1  0
  7  8  1  0
  8  9  1  0
  1 10  1  0
  1 11  1  0
  1 12  1  0
  2 13  1  0
  2 14  1  0
  3 15  1  0
  3 16  1  0
  4 17  1  0
  5 18  1  0
  5 19  1  0
  5 20  1  0
  6 21  1  0
  6 22  1  0
  8 23  1  0
  8 24  1  0
  9 25  1  0
  9 26  1  0
  9 27  1  0
M  END
