
     RDKit          3D

 22 21  0  0  0  0  0  0  0  0999 V2000
    2.8596   -0.2550    0.0846 C   0  0  0  0  0  0  0  0  0  0  0  0
    1.4489   -0.1864    0.6794 C   0  0  0  0  0  0  0  0  0  0  0  0
    0.4690    0.2751   -0.3625 C   0  0  0  0  0  0  0  0  0  0  0  0
   -0.8962    0.3273    0.2642 C   0  0  0  0  0  0  0  0  0  0  0  0
   -1.9505    0.7914   -0.7427 C   0  0  0  0  0  0  0  0  0  0  0  0
   -0.8595    1.3119    1.2540 O   0  0  0  0  0  0  0  0  0  0  0  0
   -1.3525   -0.9917    0.7979 C   0  0  0  0  0  0  0  0  0  0  0  0
   -1.3627   -1.9185   -0.2425 O   0  0  0  0  0  0  0  0  0  0  0  0
    3.2069   -1.3005   -0.0210 H   0  0  0  0  0  0  0  0  0  0  0  0
    2.8194    0.1998   -0.9335 H   0  0  0  0  0  0  0  0  0  0  0  0
    3.5370    0.3551    0.7027 H   0  0  0  0  0  0  0  0  0  0  0  0
    1.4475    0.5093    1.5659 H   0  0  0  0  0  0  0  0  0  0  0  0
    1.2435   -1.1871    1.0804 H   0  0  0  0  0  0  0  0  0  0  0  0
    0.7567    1.3183   -0.6355 H   0  0  0  0  0  0  0  0  0  0  0  0
    0.5437   -0.3877   -1.2310 H   0  0  0  0  0  0  0  0  0  0  0  0
   -2.9250    0.4660   -0.3207 H   0  0  0  0  0  0  0  0  0  0  0  0
   -1.9921    1.9004   -0.7773 H   0  0  0  0  0  0  0  0  0  0  0  0
   -1.8214    0.3309   -1.7269 H   0  0  0  0  0  0  0  0  0  0  0  0
   -0.9108    2.1831    0.7772 H   0  0  0  0  0  0  0  0  0  0  0  0
   -0.7163   -1.4033    1.6007 H   0  0  0  0  0  0  0  0  0  0  0  0
   -2.3796   -0.8473    1.2055 H   0  0  0  0  0  0  0  0  0  0  0  0
   -1.1656   -1.4912   -1.0884 H   0  0  0  0  0  0  0  0  0  0  0  0
  1  2  1  0
  2  3  1  0
  3  4  1  0
  4  5  1  0
  4  6  1  0
  4  7  1  0
  7  8  1  0
  1  9  1  0
  1 10  1  0
  1 11  1  0
  2 12  1  0
  2 13  1  0
  3 14  1  0
  3 15  1  0
  5 16  1  0
  5 17  1  0
  5 18  1  0
  6 19  1  0
  7 20  1  0
  7 21  1  0
  8 22  1  0
M  END
