
     RDKit          3D

 21 21  0  0  0  0  0  0  0  0999 V2000
   -3.1417    1.9428   -0.5342 C   0  0  0  0  0  0  0  0  0  0  0  0
   -1.9451    1.0188   -0.5094 C   0  0  0  0  0  0  0  0  0  0  0  0
   -0.8325    1.6376    0.3132 C   0  0  0  0  0  0  0  0  0  0  0  0
    0.3321    0.7197    0.3086 C   0  0  0  0  0  0  0  0  0  0  0  0
    1.2994   -0.0300    0.3067 C   0  0  0  0  0  0  0  0  0  0  0  0
    2.4719   -0.9367    0.2787 C   0  0  0  0  0  0  0  0  0  0  0  0
    2.1882   -2.2895    0.8008 C   0  0  0  0  0  0  0  0  0  0  0  0
    2.3777   -2.0437   -0.7020 C   0  0  0  0  0  0  0  0  0  0  0  0
    1.2283   -2.2037   -1.4718 O   0  0  0  0  0  0  0  0  0  0  0  0
   -2.7734    2.9016   -0.9860 H   0  0  0  0  0  0  0  0  0  0  0  0
   -3.5198    2.1413    0.5019 H   0  0  0  0  0  0  0  0  0  0  0  0
   -3.9376    1.5448   -1.1952 H   0  0  0  0  0  0  0  0  0  0  0  0
   -1.6087    0.7711   -1.5169 H   0  0  0  0  0  0  0  0  0  0  0  0
   -2.2389    0.0434   -0.0265 H   0  0  0  0  0  0  0  0  0  0  0  0
   -0.5305    2.5692   -0.1672 H   0  0  0  0  0  0  0  0  0  0  0  0
   -1.1909    1.8474    1.3358 H   0  0  0  0  0  0  0  0  0  0  0  0
    3.4722   -0.5279    0.4788 H   0  0  0  0  0  0  0  0  0  0  0  0
    1.1838   -2.5762    1.1601 H   0  0  0  0  0  0  0  0  0  0  0  0
    2.9951   -2.8330    1.3539 H   0  0  0  0  0  0  0  0  0  0  0  0
    3.3133   -2.4298   -1.1479 H   0  0  0  0  0  0  0  0  0  0  0  0
    0.8572   -1.2672   -1.5619 H   0  0  0  0  0  0  0  0  0  0  0  0
  1  2  1  0
  2  3  1  0
  3  4  1  0
  4  5  3  0
  5  6  1  0
  6  7  1  0
  7  8  1  0
  8  9  1  0
  8  6  1  0
  1 10  1  0
  1 11  1  0
  1 12  1  0
  2 13  1  0
  2 14  1  0
  3 15  1  0
  3 16  1  0
  6 17  1  0
  7 18  1  0
  7 19  1  0
  8 20  1  0
  9 21  1  0
M  END
