
     RDKit          3D

 27 26  0  0  0  0  0  0  0  0999 V2000
   -3.0762    1.0300   -0.5686 C   0  0  0  0  0  0  0  0  0  0  0  0
   -2.1604   -0.1397   -0.2795 C   0  0  0  0  0  0  0  0  0  0  0  0
   -0.8107    0.4504    0.1053 C   0  0  0  0  0  0  0  0  0  0  0  0
    0.2003   -0.5890    0.4201 C   0  0  0  0  0  0  0  0  0  0  0  0
   -0.2111   -1.4908    1.5675 C   0  0  0  0  0  0  0  0  0  0  0  0
    0.4159   -1.4942   -0.7802 C   0  0  0  0  0  0  0  0  0  0  0  0
    1.4146    0.0022    0.7052 O   0  0  0  0  0  0  0  0  0  0  0  0
    1.9638    0.7434   -0.3042 C   0  0  0  0  0  0  0  0  0  0  0  0
    3.3067    1.2684    0.2139 C   0  0  0  0  0  0  0  0  0  0  0  0
   -4.1049    0.8562   -0.1989 H   0  0  0  0  0  0  0  0  0  0  0  0
   -3.0797    1.2355   -1.6758 H   0  0  0  0  0  0  0  0  0  0  0  0
   -2.6934    1.9574   -0.0943 H   0  0  0  0  0  0  0  0  0  0  0  0
   -2.5420   -0.6892    0.5925 H   0  0  0  0  0  0  0  0  0  0  0  0
   -2.0984   -0.7541   -1.1896 H   0  0  0  0  0  0  0  0  0  0  0  0
   -1.0085    1.1547    0.9369 H   0  0  0  0  0  0  0  0  0  0  0  0
   -0.4991    1.0424   -0.7712 H   0  0  0  0  0  0  0  0  0  0  0  0
   -0.5217   -0.9492    2.4580 H   0  0  0  0  0  0  0  0  0  0  0  0
   -1.0177   -2.1496    1.1749 H   0  0  0  0  0  0  0  0  0  0  0  0
    0.6592   -2.1511    1.7762 H   0  0  0  0  0  0  0  0  0  0  0  0
    0.4786   -0.8987   -1.7278 H   0  0  0  0  0  0  0  0  0  0  0  0
   -0.4608   -2.1916   -0.8803 H   0  0  0  0  0  0  0  0  0  0  0  0
    1.3239   -2.1154   -0.6473 H   0  0  0  0  0  0  0  0  0  0  0  0
    1.3654    1.6180   -0.6421 H   0  0  0  0  0  0  0  0  0  0  0  0
    2.1867    0.1267   -1.1935 H   0  0  0  0  0  0  0  0  0  0  0  0
    3.6475    2.1396   -0.3820 H   0  0  0  0  0  0  0  0  0  0  0  0
    4.0884    0.4888    0.0892 H   0  0  0  0  0  0  0  0  0  0  0  0
    3.2339    1.4992    1.2954 H   0  0  0  0  0  0  0  0  0  0  0  0
  1  2  1  0
  2  3  1  0
  3  4  1  0
  4  5  1  0
  4  6  1  0
  4  7  1  0
  7  8  1  0
  8  9  1  0
  1 10  1  0
  1 11  1  0
  1 12  1  0
  2 13  1  0
  2 14  1  0
  3 15  1  0
  3 16  1  0
  5 17  1  0
  5 18  1  0
  5 19  1  0
  6 20  1  0
  6 21  1  0
  6 22  1  0
  8 23  1  0
  8 24  1  0
  9 25  1  0
  9 26  1  0
  9 27  1  0
M  END
