
     RDKit          3D

 18 17  0  0  0  0  0  0  0  0999 V2000
   -2.0955    0.3851   -0.2206 C   0  0  0  0  0  0  0  0  0  0  0  0
   -1.2681   -0.7573    0.2556 C   0  0  0  0  0  0  0  0  0  0  0  0
    0.0967   -0.8136   -0.3741 C   0  0  0  0  0  0  0  0  0  0  0  0
    0.9183    0.4196   -0.1022 C   0  0  0  0  0  0  0  0  0  0  0  0
    1.1585    0.6684    1.3256 C   0  0  0  0  0  0  0  0  0  0  0  0
    1.6087   -0.1999    2.0264 O   0  0  0  0  0  0  0  0  0  0  0  0
    2.2406    0.2272   -0.7619 C   0  0  0  0  0  0  0  0  0  0  0  0
    2.3525   -0.5369   -1.7009 O   0  0  0  0  0  0  0  0  0  0  0  0
   -2.0714    0.4483   -1.3151 H   0  0  0  0  0  0  0  0  0  0  0  0
   -1.8337    1.3567    0.2300 H   0  0  0  0  0  0  0  0  0  0  0  0
   -3.1625    0.1783    0.0570 H   0  0  0  0  0  0  0  0  0  0  0  0
   -1.7870   -1.7015   -0.0048 H   0  0  0  0  0  0  0  0  0  0  0  0
   -1.1305   -0.7592    1.3507 H   0  0  0  0  0  0  0  0  0  0  0  0
   -0.0294   -0.8751   -1.4785 H   0  0  0  0  0  0  0  0  0  0  0  0
    0.5933   -1.7343   -0.0516 H   0  0  0  0  0  0  0  0  0  0  0  0
    0.3992    1.2802   -0.5930 H   0  0  0  0  0  0  0  0  0  0  0  0
    0.9292    1.6281    1.7340 H   0  0  0  0  0  0  0  0  0  0  0  0
    3.0811    0.7859   -0.3767 H   0  0  0  0  0  0  0  0  0  0  0  0
  1  2  1  0
  2  3  1  0
  3  4  1  0
  4  5  1  0
  5  6  2  0
  4  7  1  0
  7  8  2  0
  1  9  1  0
  1 10  1  0
  1 11  1  0
  2 12  1  0
  2 13  1  0
  3 14  1  0
  3 15  1  0
  4 16  1  0
  5 17  1  0
  7 18  1  0
M  END
