
     RDKit          3D

 24 23  0  0  0  0  0  0  0  0999 V2000
    3.3293    0.7002   -0.1935 C   0  0  0  0  0  0  0  0  0  0  0  0
    2.1230   -0.2028   -0.3254 C   0  0  0  0  0  0  0  0  0  0  0  0
    0.9276    0.5633    0.2024 C   0  0  0  0  0  0  0  0  0  0  0  0
   -0.2577   -0.3994    0.0416 C   0  0  0  0  0  0  0  0  0  0  0  0
    0.0949   -1.6148    0.8747 C   0  0  0  0  0  0  0  0  0  0  0  0
   -1.4408    0.1798    0.4040 O   0  0  0  0  0  0  0  0  0  0  0  0
   -2.2817    0.2063   -0.7050 C   0  0  0  0  0  0  0  0  0  0  0  0
   -3.5796    0.8467   -0.2897 C   0  0  0  0  0  0  0  0  0  0  0  0
    3.2915    1.1428    0.8214 H   0  0  0  0  0  0  0  0  0  0  0  0
    4.2279    0.0792   -0.3616 H   0  0  0  0  0  0  0  0  0  0  0  0
    3.2149    1.5160   -0.9325 H   0  0  0  0  0  0  0  0  0  0  0  0
    2.2217   -1.1261    0.2756 H   0  0  0  0  0  0  0  0  0  0  0  0
    1.9980   -0.4763   -1.3914 H   0  0  0  0  0  0  0  0  0  0  0  0
    0.7421    1.4902   -0.3783 H   0  0  0  0  0  0  0  0  0  0  0  0
    1.0452    0.7276    1.2732 H   0  0  0  0  0  0  0  0  0  0  0  0
   -0.2675   -0.6908   -1.0059 H   0  0  0  0  0  0  0  0  0  0  0  0
    0.5959   -2.3529    0.2392 H   0  0  0  0  0  0  0  0  0  0  0  0
   -0.8149   -2.0592    1.3246 H   0  0  0  0  0  0  0  0  0  0  0  0
    0.7767   -1.3284    1.7000 H   0  0  0  0  0  0  0  0  0  0  0  0
   -1.8203    0.6723   -1.5901 H   0  0  0  0  0  0  0  0  0  0  0  0
   -2.5256   -0.8672   -0.9542 H   0  0  0  0  0  0  0  0  0  0  0  0
   -3.4851    1.9463   -0.4139 H   0  0  0  0  0  0  0  0  0  0  0  0
   -3.7321    0.6262    0.7970 H   0  0  0  0  0  0  0  0  0  0  0  0
   -4.3835    0.4209   -0.9199 H   0  0  0  0  0  0  0  0  0  0  0  0
  1  2  1  0
  2  3  1  0
  3  4  1  0
  4  5  1  0
  4  6  1  0
  6  7  1  0
  7  8  1  0
  1  9  1  0
  1 10  1  0
  1 11  1  0
  2 12  1  0
  2 13  1  0
  3 14  1  0
  3 15  1  0
  4 16  1  0
  5 17  1  0
  5 18  1  0
  5 19  1  0
  7 20  1  0
  7 21  1  0
  8 22  1  0
  8 23  1  0
  8 24  1  0
M  END
