
     RDKit          3D

 22 22  0  0  0  0  0  0  0  0999 V2000
    2.8198   -0.7471    0.1420 C   0  0  0  0  0  0  0  0  0  0  0  0
    1.6379    0.2307    0.1650 C   0  0  0  0  0  0  0  0  0  0  0  0
    0.3462   -0.5153    0.3095 C   0  0  0  0  0  0  0  0  0  0  0  0
   -0.8714    0.3133    0.3478 C   0  0  0  0  0  0  0  0  0  0  0  0
   -2.0631   -0.3986    0.4854 O   0  0  0  0  0  0  0  0  0  0  0  0
   -2.3164   -1.2939   -0.5212 C   0  0  0  0  0  0  0  0  0  0  0  0
   -0.9138    1.7107    0.8054 C   0  0  0  0  0  0  0  0  0  0  0  0
   -0.9243    1.4487   -0.6812 C   0  0  0  0  0  0  0  0  0  0  0  0
    2.5281   -1.6208    0.7620 H   0  0  0  0  0  0  0  0  0  0  0  0
    3.0474   -1.0877   -0.8744 H   0  0  0  0  0  0  0  0  0  0  0  0
    3.7107   -0.2975    0.6527 H   0  0  0  0  0  0  0  0  0  0  0  0
    1.6855    0.7434   -0.8175 H   0  0  0  0  0  0  0  0  0  0  0  0
    1.8419    0.9515    0.9462 H   0  0  0  0  0  0  0  0  0  0  0  0
    0.4328   -1.1486    1.2226 H   0  0  0  0  0  0  0  0  0  0  0  0
    0.2687   -1.2476   -0.5449 H   0  0  0  0  0  0  0  0  0  0  0  0
   -1.5704   -2.0926   -0.6589 H   0  0  0  0  0  0  0  0  0  0  0  0
   -2.5839   -0.8001   -1.4910 H   0  0  0  0  0  0  0  0  0  0  0  0
   -3.2643   -1.8294   -0.2217 H   0  0  0  0  0  0  0  0  0  0  0  0
   -1.8767    2.1152    1.1804 H   0  0  0  0  0  0  0  0  0  0  0  0
   -0.0400    2.2300    1.2438 H   0  0  0  0  0  0  0  0  0  0  0  0
   -1.8701    1.5687   -1.2526 H   0  0  0  0  0  0  0  0  0  0  0  0
   -0.0247    1.7670   -1.1995 H   0  0  0  0  0  0  0  0  0  0  0  0
  1  2  1  0
  2  3  1  0
  3  4  1  0
  4  5  1  0
  5  6  1  0
  4  7  1  0
  7  8  1  0
  8  4  1  0
  1  9  1  0
  1 10  1  0
  1 11  1  0
  2 12  1  0
  2 13  1  0
  3 14  1  0
  3 15  1  0
  6 16  1  0
  6 17  1  0
  6 18  1  0
  7 19  1  0
  7 20  1  0
  8 21  1  0
  8 22  1  0
M  END
