
     RDKit          3D

 25 24  0  0  0  0  0  0  0  0999 V2000
    2.8348    0.3254   -0.2365 C   0  0  0  0  0  0  0  0  0  0  0  0
    1.6668    0.6677    0.6778 C   0  0  0  0  0  0  0  0  0  0  0  0
    0.8351   -0.5447    0.9937 C   0  0  0  0  0  0  0  0  0  0  0  0
    0.2363   -1.1933   -0.2350 C   0  0  0  0  0  0  0  0  0  0  0  0
    1.3317   -1.5694   -1.0451 O   0  0  0  0  0  0  0  0  0  0  0  0
   -0.6602   -0.3072   -1.0048 C   0  0  0  0  0  0  0  0  0  0  0  0
   -1.8495    0.2288   -0.3277 C   0  0  0  0  0  0  0  0  0  0  0  0
   -2.8200   -0.7890    0.1904 C   0  0  0  0  0  0  0  0  0  0  0  0
   -1.5734    1.1296    0.6969 O   0  0  0  0  0  0  0  0  0  0  0  0
    3.6635    1.0790   -0.1097 H   0  0  0  0  0  0  0  0  0  0  0  0
    3.2461   -0.6674   -0.0594 H   0  0  0  0  0  0  0  0  0  0  0  0
    2.5083    0.4337   -1.2858 H   0  0  0  0  0  0  0  0  0  0  0  0
    1.1087    1.5189    0.2783 H   0  0  0  0  0  0  0  0  0  0  0  0
    2.1227    1.0024    1.6352 H   0  0  0  0  0  0  0  0  0  0  0  0
    1.4770   -1.2569    1.5563 H   0  0  0  0  0  0  0  0  0  0  0  0
    0.0245   -0.2349    1.6800 H   0  0  0  0  0  0  0  0  0  0  0  0
   -0.2163   -2.1480    0.0882 H   0  0  0  0  0  0  0  0  0  0  0  0
    1.2527   -2.4922   -1.3687 H   0  0  0  0  0  0  0  0  0  0  0  0
   -0.9405   -0.7956   -1.9650 H   0  0  0  0  0  0  0  0  0  0  0  0
   -0.0400    0.5820   -1.3280 H   0  0  0  0  0  0  0  0  0  0  0  0
   -2.4424    0.8408   -1.0754 H   0  0  0  0  0  0  0  0  0  0  0  0
   -2.5073   -1.2489    1.1430 H   0  0  0  0  0  0  0  0  0  0  0  0
   -3.7674   -0.2314    0.4270 H   0  0  0  0  0  0  0  0  0  0  0  0
   -3.1016   -1.5350   -0.5775 H   0  0  0  0  0  0  0  0  0  0  0  0
   -2.3895    1.2074    1.2518 H   0  0  0  0  0  0  0  0  0  0  0  0
  1  2  1  0
  2  3  1  0
  3  4  1  0
  4  5  1  0
  4  6  1  0
  6  7  1  0
  7  8  1  0
  7  9  1  0
  1 10  1  0
  1 11  1  0
  1 12  1  0
  2 13  1  0
  2 14  1  0
  3 15  1  0
  3 16  1  0
  4 17  1  0
  5 18  1  0
  6 19  1  0
  6 20  1  0
  7 21  1  0
  8 22  1  0
  8 23  1  0
  8 24  1  0
  9 25  1  0
M  END
