
     RDKit          3D

 25 25  0  0  0  0  0  0  0  0999 V2000
    3.6156    0.3957   -0.2913 C   0  0  0  0  0  0  0  0  0  0  0  0
    2.3657   -0.1145    0.3411 C   0  0  0  0  0  0  0  0  0  0  0  0
    1.1804   -0.0824   -0.6070 C   0  0  0  0  0  0  0  0  0  0  0  0
   -0.0686   -0.6078    0.0712 C   0  0  0  0  0  0  0  0  0  0  0  0
   -0.4022    0.2212    1.2627 C   0  0  0  0  0  0  0  0  0  0  0  0
   -1.7319    0.5781    1.1921 O   0  0  0  0  0  0  0  0  0  0  0  0
   -2.1680    0.4295   -0.0932 C   0  0  0  0  0  0  0  0  0  0  0  0
   -3.6190   -0.0283   -0.0681 C   0  0  0  0  0  0  0  0  0  0  0  0
   -1.2727   -0.5396   -0.8002 C   0  0  0  0  0  0  0  0  0  0  0  0
    4.2908    0.9126    0.4371 H   0  0  0  0  0  0  0  0  0  0  0  0
    3.3562    1.1556   -1.0534 H   0  0  0  0  0  0  0  0  0  0  0  0
    4.2176   -0.4150   -0.7467 H   0  0  0  0  0  0  0  0  0  0  0  0
    2.4800   -1.1885    0.6454 H   0  0  0  0  0  0  0  0  0  0  0  0
    2.1167    0.4801    1.2288 H   0  0  0  0  0  0  0  0  0  0  0  0
    1.0292    0.9807   -0.9001 H   0  0  0  0  0  0  0  0  0  0  0  0
    1.3923   -0.6605   -1.5336 H   0  0  0  0  0  0  0  0  0  0  0  0
    0.1295   -1.6630    0.3269 H   0  0  0  0  0  0  0  0  0  0  0  0
   -0.2236   -0.3807    2.1826 H   0  0  0  0  0  0  0  0  0  0  0  0
    0.1934    1.1584    1.2418 H   0  0  0  0  0  0  0  0  0  0  0  0
   -2.0846    1.4109   -0.6240 H   0  0  0  0  0  0  0  0  0  0  0  0
   -3.7247   -1.1148   -0.1780 H   0  0  0  0  0  0  0  0  0  0  0  0
   -4.2012    0.5598   -0.8069 H   0  0  0  0  0  0  0  0  0  0  0  0
   -4.0648    0.2323    0.9337 H   0  0  0  0  0  0  0  0  0  0  0  0
   -1.7676   -1.5259   -0.9233 H   0  0  0  0  0  0  0  0  0  0  0  0
   -1.0384   -0.1941   -1.8363 H   0  0  0  0  0  0  0  0  0  0  0  0
  1  2  1  0
  2  3  1  0
  3  4  1  0
  4  5  1  0
  5  6  1  0
  6  7  1  0
  7  8  1  0
  7  9  1  0
  9  4  1  0
  1 10  1  0
  1 11  1  0
  1 12  1  0
  2 13  1  0
  2 14  1  0
  3 15  1  0
  3 16  1  0
  4 17  1  0
  5 18  1  0
  5 19  1  0
  7 20  1  0
  8 21  1  0
  8 22  1  0
  8 23  1  0
  9 24  1  0
  9 25  1  0
M  END
