
     RDKit          3D

 23 22  0  0  0  0  0  0  0  0999 V2000
    2.9856   -0.1969    0.3039 C   0  0  0  0  0  0  0  0  0  0  0  0
    1.6250    0.2466   -0.1894 C   0  0  0  0  0  0  0  0  0  0  0  0
    0.5900   -0.6856    0.3553 C   0  0  0  0  0  0  0  0  0  0  0  0
   -0.8113   -0.3598   -0.0579 C   0  0  0  0  0  0  0  0  0  0  0  0
   -1.0431   -0.3799   -1.5250 C   0  0  0  0  0  0  0  0  0  0  0  0
   -1.6171   -1.4004    0.4672 O   0  0  0  0  0  0  0  0  0  0  0  0
   -1.2341    0.8997    0.6290 C   0  0  0  0  0  0  0  0  0  0  0  0
   -2.6140    1.3278    0.2969 C   0  0  0  0  0  0  0  0  0  0  0  0
   -3.3676    0.7662   -0.4403 O   0  0  0  0  0  0  0  0  0  0  0  0
    3.2947   -1.1551   -0.1298 H   0  0  0  0  0  0  0  0  0  0  0  0
    3.7601    0.5738    0.1230 H   0  0  0  0  0  0  0  0  0  0  0  0
    2.8900   -0.3501    1.4120 H   0  0  0  0  0  0  0  0  0  0  0  0
    1.4981    1.2903    0.0827 H   0  0  0  0  0  0  0  0  0  0  0  0
    1.6555    0.1787   -1.2974 H   0  0  0  0  0  0  0  0  0  0  0  0
    0.8976   -1.7247    0.0518 H   0  0  0  0  0  0  0  0  0  0  0  0
    0.6248   -0.6735    1.4649 H   0  0  0  0  0  0  0  0  0  0  0  0
   -2.0709   -0.6814   -1.7372 H   0  0  0  0  0  0  0  0  0  0  0  0
   -0.7319    0.5361   -2.0564 H   0  0  0  0  0  0  0  0  0  0  0  0
   -0.3908   -1.1987   -1.9524 H   0  0  0  0  0  0  0  0  0  0  0  0
   -1.2270   -1.7717    1.2962 H   0  0  0  0  0  0  0  0  0  0  0  0
   -0.5548    1.7455    0.3938 H   0  0  0  0  0  0  0  0  0  0  0  0
   -1.2030    0.7735    1.7315 H   0  0  0  0  0  0  0  0  0  0  0  0
   -2.9561    2.2395    0.7775 H   0  0  0  0  0  0  0  0  0  0  0  0
  1  2  1  0
  2  3  1  0
  3  4  1  0
  4  5  1  0
  4  6  1  0
  4  7  1  0
  7  8  1  0
  8  9  2  0
  1 10  1  0
  1 11  1  0
  1 12  1  0
  2 13  1  0
  2 14  1  0
  3 15  1  0
  3 16  1  0
  5 17  1  0
  5 18  1  0
  5 19  1  0
  6 20  1  0
  7 21  1  0
  7 22  1  0
  8 23  1  0
M  END
