
     RDKit          3D

 23 23  0  0  0  0  0  0  0  0999 V2000
    3.0765    0.5019    0.1637 C   0  0  0  0  0  0  0  0  0  0  0  0
    1.6654    0.0351    0.4575 C   0  0  0  0  0  0  0  0  0  0  0  0
    0.8015    0.4293   -0.6890 C   0  0  0  0  0  0  0  0  0  0  0  0
   -0.6414    0.0278   -0.5363 C   0  0  0  0  0  0  0  0  0  0  0  0
   -1.2035    0.6134    0.5978 O   0  0  0  0  0  0  0  0  0  0  0  0
   -2.2201    1.5143    0.2873 C   0  0  0  0  0  0  0  0  0  0  0  0
   -0.8496   -1.4535   -0.5459 C   0  0  0  0  0  0  0  0  0  0  0  0
   -1.7098   -1.9782    0.5842 C   0  0  0  0  0  0  0  0  0  0  0  0
   -0.3489   -2.2431    0.4774 O   0  0  0  0  0  0  0  0  0  0  0  0
    3.6996   -0.3363   -0.2432 H   0  0  0  0  0  0  0  0  0  0  0  0
    3.0498    1.3159   -0.5662 H   0  0  0  0  0  0  0  0  0  0  0  0
    3.5868    0.8561    1.0880 H   0  0  0  0  0  0  0  0  0  0  0  0
    1.7036   -1.0658    0.5352 H   0  0  0  0  0  0  0  0  0  0  0  0
    1.3055    0.5375    1.3717 H   0  0  0  0  0  0  0  0  0  0  0  0
    0.8145    1.5473   -0.7657 H   0  0  0  0  0  0  0  0  0  0  0  0
    1.2259    0.0611   -1.6420 H   0  0  0  0  0  0  0  0  0  0  0  0
   -1.1858    0.4631   -1.4037 H   0  0  0  0  0  0  0  0  0  0  0  0
   -1.7668    2.3154   -0.3543 H   0  0  0  0  0  0  0  0  0  0  0  0
   -2.9592    0.9895   -0.3280 H   0  0  0  0  0  0  0  0  0  0  0  0
   -2.6079    1.9085    1.2331 H   0  0  0  0  0  0  0  0  0  0  0  0
   -1.0736   -1.8927   -1.5254 H   0  0  0  0  0  0  0  0  0  0  0  0
   -1.9865   -1.2956    1.4169 H   0  0  0  0  0  0  0  0  0  0  0  0
   -2.3762   -2.8510    0.3868 H   0  0  0  0  0  0  0  0  0  0  0  0
  1  2  1  0
  2  3  1  0
  3  4  1  0
  4  5  1  0
  5  6  1  0
  4  7  1  0
  7  8  1  0
  8  9  1  0
  9  7  1  0
  1 10  1  0
  1 11  1  0
  1 12  1  0
  2 13  1  0
  2 14  1  0
  3 15  1  0
  3 16  1  0
  4 17  1  0
  6 18  1  0
  6 19  1  0
  6 20  1  0
  7 21  1  0
  8 22  1  0
  8 23  1  0
M  END
