
     RDKit          3D

 21 21  0  0  0  0  0  0  0  0999 V2000
    3.0035    0.7906   -0.5424 C   0  0  0  0  0  0  0  0  0  0  0  0
    2.0474   -0.2271    0.0025 C   0  0  0  0  0  0  0  0  0  0  0  0
    0.6006    0.1647   -0.1781 C   0  0  0  0  0  0  0  0  0  0  0  0
   -0.2509   -0.8817    0.3802 C   0  0  0  0  0  0  0  0  0  0  0  0
    0.2642   -1.8663    0.8842 O   0  0  0  0  0  0  0  0  0  0  0  0
   -1.7292   -0.8716    0.3988 C   0  0  0  0  0  0  0  0  0  0  0  0
   -2.4028    0.2357    1.1110 C   0  0  0  0  0  0  0  0  0  0  0  0
   -3.3248    0.3016    0.0374 O   0  0  0  0  0  0  0  0  0  0  0  0
   -2.2420   -0.0436   -0.7852 C   0  0  0  0  0  0  0  0  0  0  0  0
    2.6051    1.2683   -1.4670 H   0  0  0  0  0  0  0  0  0  0  0  0
    3.9465    0.2373   -0.8050 H   0  0  0  0  0  0  0  0  0  0  0  0
    3.2701    1.5485    0.2259 H   0  0  0  0  0  0  0  0  0  0  0  0
    2.1651   -1.2284   -0.4804 H   0  0  0  0  0  0  0  0  0  0  0  0
    2.2578   -0.3184    1.0993 H   0  0  0  0  0  0  0  0  0  0  0  0
    0.3942    0.2042   -1.2882 H   0  0  0  0  0  0  0  0  0  0  0  0
    0.4031    1.1780    0.2159 H   0  0  0  0  0  0  0  0  0  0  0  0
   -2.2178   -1.8426    0.4929 H   0  0  0  0  0  0  0  0  0  0  0  0
   -1.8457    1.1905    1.1262 H   0  0  0  0  0  0  0  0  0  0  0  0
   -2.8718   -0.0256    2.0819 H   0  0  0  0  0  0  0  0  0  0  0  0
   -1.6046    0.8469   -0.9316 H   0  0  0  0  0  0  0  0  0  0  0  0
   -2.4679   -0.6610   -1.6457 H   0  0  0  0  0  0  0  0  0  0  0  0
  1  2  1  0
  2  3  1  0
  3  4  1  0
  4  5  2  0
  4  6  1  0
  6  7  1  0
  7  8  1  0
  8  9  1  0
  9  6  1  0
  1 10  1  0
  1 11  1  0
  1 12  1  0
  2 13  1  0
  2 14  1  0
  3 15  1  0
  3 16  1  0
  6 17  1  0
  7 18  1  0
  7 19  1  0
  9 20  1  0
  9 21  1  0
M  END
