
     RDKit          3D

 19 18  0  0  0  0  0  0  0  0999 V2000
   -3.0332    0.9284   -1.6684 C   0  0  0  0  0  0  0  0  0  0  0  0
   -1.7673    1.0920   -0.8776 C   0  0  0  0  0  0  0  0  0  0  0  0
   -1.1859   -0.3638   -0.6090 C   0  0  0  0  0  0  0  0  0  0  0  0
   -0.0788   -0.3753    0.0654 C   0  0  0  0  0  0  0  0  0  0  0  0
    1.1150   -0.3894    0.7643 C   0  0  0  0  0  0  0  0  0  0  0  0
    2.3196   -0.3824    1.4564 C   0  0  0  0  0  0  0  0  0  0  0  0
    3.1105    0.7213    0.9798 O   0  0  0  0  0  0  0  0  0  0  0  0
    3.1367   -1.5972    1.2135 C   0  0  0  0  0  0  0  0  0  0  0  0
    4.3286   -1.3861    0.9003 O   0  0  0  0  0  0  0  0  0  0  0  0
   -2.9167    0.6157   -2.7025 H   0  0  0  0  0  0  0  0  0  0  0  0
   -3.6236    0.0951   -1.1566 H   0  0  0  0  0  0  0  0  0  0  0  0
   -3.6170    1.8747   -1.5853 H   0  0  0  0  0  0  0  0  0  0  0  0
   -1.0322    1.6871   -1.4221 H   0  0  0  0  0  0  0  0  0  0  0  0
   -1.9582    1.5249    0.1302 H   0  0  0  0  0  0  0  0  0  0  0  0
   -1.2201   -0.7667   -1.6850 H   0  0  0  0  0  0  0  0  0  0  0  0
   -2.0699   -0.8351   -0.0599 H   0  0  0  0  0  0  0  0  0  0  0  0
    2.1931   -0.3049    2.5849 H   0  0  0  0  0  0  0  0  0  0  0  0
    3.4958    0.4626    0.0977 H   0  0  0  0  0  0  0  0  0  0  0  0
    2.8033   -2.6009    1.2787 H   0  0  0  0  0  0  0  0  0  0  0  0
  1  2  1  0
  2  3  1  0
  3  4  1  0
  4  5  3  0
  5  6  1  0
  6  7  1  0
  6  8  1  0
  8  9  2  0
  1 10  1  0
  1 11  1  0
  1 12  1  0
  2 13  1  0
  2 14  1  0
  3 15  1  0
  3 16  1  0
  6 17  1  0
  7 18  1  0
  8 19  1  0
M  END
