
     RDKit          3D

 21 22  0  0  0  0  0  0  0  0999 V2000
    3.0672    0.0435   -0.1984 C   0  0  0  0  0  0  0  0  0  0  0  0
    1.6366   -0.3813    0.1243 C   0  0  0  0  0  0  0  0  0  0  0  0
    0.6548    0.6500   -0.3103 C   0  0  0  0  0  0  0  0  0  0  0  0
   -0.7296    0.3590   -0.0576 C   0  0  0  0  0  0  0  0  0  0  0  0
   -1.2167    0.1376    1.3372 C   0  0  0  0  0  0  0  0  0  0  0  0
   -2.5271   -0.0278    1.1169 C   0  0  0  0  0  0  0  0  0  0  0  0
   -2.5866    0.1439   -0.3723 C   0  0  0  0  0  0  0  0  0  0  0  0
   -1.4358   -0.7315   -0.8190 C   0  0  0  0  0  0  0  0  0  0  0  0
   -1.7143    1.2194   -0.5431 O   0  0  0  0  0  0  0  0  0  0  0  0
    3.0136    0.7396   -1.0590 H   0  0  0  0  0  0  0  0  0  0  0  0
    3.6732   -0.8383   -0.4383 H   0  0  0  0  0  0  0  0  0  0  0  0
    3.5291    0.6041    0.6349 H   0  0  0  0  0  0  0  0  0  0  0  0
    1.5997   -0.6243    1.1909 H   0  0  0  0  0  0  0  0  0  0  0  0
    1.4737   -1.3499   -0.4203 H   0  0  0  0  0  0  0  0  0  0  0  0
    0.9339    1.6100    0.2132 H   0  0  0  0  0  0  0  0  0  0  0  0
    0.8191    0.8655   -1.3858 H   0  0  0  0  0  0  0  0  0  0  0  0
   -0.6976    0.1099    2.2858 H   0  0  0  0  0  0  0  0  0  0  0  0
   -3.3489   -0.2294    1.7872 H   0  0  0  0  0  0  0  0  0  0  0  0
   -3.5133    0.1120   -0.8720 H   0  0  0  0  0  0  0  0  0  0  0  0
   -1.2392   -0.7120   -1.9029 H   0  0  0  0  0  0  0  0  0  0  0  0
   -1.3917   -1.7001   -0.3115 H   0  0  0  0  0  0  0  0  0  0  0  0
  1  2  1  0
  2  3  1  0
  3  4  1  0
  4  5  1  0
  5  6  2  0
  6  7  1  0
  7  8  1  0
  7  9  1  0
  8  4  1  0
  9  4  1  0
  1 10  1  0
  1 11  1  0
  1 12  1  0
  2 13  1  0
  2 14  1  0
  3 15  1  0
  3 16  1  0
  5 17  1  0
  6 18  1  0
  7 19  1  0
  8 20  1  0
  8 21  1  0
M  END
