
     RDKit          3D

 23 23  0  0  0  0  0  0  0  0999 V2000
    2.1323    0.7812    0.5446 C   0  0  0  0  0  0  0  0  0  0  0  0
    1.5684    0.9282   -0.8418 C   0  0  0  0  0  0  0  0  0  0  0  0
    0.9729   -0.3395   -1.3213 C   0  0  0  0  0  0  0  0  0  0  0  0
   -0.1226   -0.9667   -0.5948 C   0  0  0  0  0  0  0  0  0  0  0  0
    0.0826   -1.3525    0.7510 O   0  0  0  0  0  0  0  0  0  0  0  0
   -1.3192   -1.6004    0.7116 C   0  0  0  0  0  0  0  0  0  0  0  0
   -1.3384   -0.2900   -0.1279 C   0  0  0  0  0  0  0  0  0  0  0  0
   -1.2934    0.8352    0.8378 C   0  0  0  0  0  0  0  0  0  0  0  0
   -2.6345    1.2345    1.0707 O   0  0  0  0  0  0  0  0  0  0  0  0
    3.1962    1.1359    0.5615 H   0  0  0  0  0  0  0  0  0  0  0  0
    1.5086    1.3306    1.2667 H   0  0  0  0  0  0  0  0  0  0  0  0
    2.1456   -0.2947    0.8476 H   0  0  0  0  0  0  0  0  0  0  0  0
    0.9864    1.8384   -0.9291 H   0  0  0  0  0  0  0  0  0  0  0  0
    2.4567    1.1153   -1.5531 H   0  0  0  0  0  0  0  0  0  0  0  0
    0.7524   -0.3026   -2.4401 H   0  0  0  0  0  0  0  0  0  0  0  0
    1.8364   -1.0901   -1.3072 H   0  0  0  0  0  0  0  0  0  0  0  0
   -0.4586   -1.9541   -1.1069 H   0  0  0  0  0  0  0  0  0  0  0  0
   -1.4716   -2.5081    0.0964 H   0  0  0  0  0  0  0  0  0  0  0  0
   -1.8278   -1.5241    1.6638 H   0  0  0  0  0  0  0  0  0  0  0  0
   -2.2234   -0.3056   -0.8105 H   0  0  0  0  0  0  0  0  0  0  0  0
   -0.8060    1.7616    0.4967 H   0  0  0  0  0  0  0  0  0  0  0  0
   -0.9274    0.5411    1.8661 H   0  0  0  0  0  0  0  0  0  0  0  0
   -3.2155    1.0267    0.3179 H   0  0  0  0  0  0  0  0  0  0  0  0
  1  2  1  0
  2  3  1  0
  3  4  1  0
  4  5  1  0
  5  6  1  0
  6  7  1  0
  7  8  1  0
  8  9  1  0
  7  4  1  0
  1 10  1  0
  1 11  1  0
  1 12  1  0
  2 13  1  0
  2 14  1  0
  3 15  1  0
  3 16  1  0
  4 17  1  0
  6 18  1  0
  6 19  1  0
  7 20  1  0
  8 21  1  0
  8 22  1  0
  9 23  1  0
M  END
