
     RDKit          3D

 25 26  0  0  0  0  0  0  0  0999 V2000
    2.8724    0.3496   -0.8412 C   0  0  0  0  0  0  0  0  0  0  0  0
    2.4989   -0.4992    0.3556 C   0  0  0  0  0  0  0  0  0  0  0  0
    1.4460    0.2040    1.1664 C   0  0  0  0  0  0  0  0  0  0  0  0
    0.1909    0.4680    0.3843 C   0  0  0  0  0  0  0  0  0  0  0  0
   -0.4861   -0.7951   -0.1493 C   0  0  0  0  0  0  0  0  0  0  0  0
   -1.7739   -0.1368    0.2031 C   0  0  0  0  0  0  0  0  0  0  0  0
   -3.0724   -0.7080    0.2607 C   0  0  0  0  0  0  0  0  0  0  0  0
   -2.7218    0.3926   -0.7581 C   0  0  0  0  0  0  0  0  0  0  0  0
   -1.0602    0.6488    1.2358 C   0  0  0  0  0  0  0  0  0  0  0  0
    3.7270   -0.1887   -1.3411 H   0  0  0  0  0  0  0  0  0  0  0  0
    3.1537    1.3755   -0.5586 H   0  0  0  0  0  0  0  0  0  0  0  0
    2.0329    0.3822   -1.5463 H   0  0  0  0  0  0  0  0  0  0  0  0
    2.1779   -1.4731   -0.0202 H   0  0  0  0  0  0  0  0  0  0  0  0
    3.4082   -0.5792    0.9987 H   0  0  0  0  0  0  0  0  0  0  0  0
    1.2264   -0.3402    2.0948 H   0  0  0  0  0  0  0  0  0  0  0  0
    1.8609    1.1879    1.4603 H   0  0  0  0  0  0  0  0  0  0  0  0
    0.2609    1.2350   -0.3912 H   0  0  0  0  0  0  0  0  0  0  0  0
   -0.3590   -0.9524   -1.2406 H   0  0  0  0  0  0  0  0  0  0  0  0
   -0.2467   -1.7028    0.4532 H   0  0  0  0  0  0  0  0  0  0  0  0
   -3.3182   -1.7118   -0.1562 H   0  0  0  0  0  0  0  0  0  0  0  0
   -3.8074   -0.3625    1.0214 H   0  0  0  0  0  0  0  0  0  0  0  0
   -3.1262    1.3972   -0.5989 H   0  0  0  0  0  0  0  0  0  0  0  0
   -2.6242    0.0412   -1.8176 H   0  0  0  0  0  0  0  0  0  0  0  0
   -0.8980    0.0872    2.1947 H   0  0  0  0  0  0  0  0  0  0  0  0
   -1.3621    1.6808    1.4173 H   0  0  0  0  0  0  0  0  0  0  0  0
  1  2  1  0
  2  3  1  0
  3  4  1  0
  4  5  1  0
  5  6  1  0
  6  7  1  0
  7  8  1  0
  6  9  1  0
  9  4  1  0
  8  6  1  0
  1 10  1  0
  1 11  1  0
  1 12  1  0
  2 13  1  0
  2 14  1  0
  3 15  1  0
  3 16  1  0
  4 17  1  0
  5 18  1  0
  5 19  1  0
  7 20  1  0
  7 21  1  0
  8 22  1  0
  8 23  1  0
  9 24  1  0
  9 25  1  0
M  END
