
     RDKit          3D

 25 24  0  0  0  0  0  0  0  0999 V2000
    3.5081   -0.0641    0.1631 C   0  0  0  0  0  0  0  0  0  0  0  0
    2.0327    0.0882    0.4905 C   0  0  0  0  0  0  0  0  0  0  0  0
    1.3365    0.4431   -0.8082 C   0  0  0  0  0  0  0  0  0  0  0  0
   -0.1512    0.6223   -0.6098 C   0  0  0  0  0  0  0  0  0  0  0  0
   -0.8110   -0.6185   -0.0872 C   0  0  0  0  0  0  0  0  0  0  0  0
   -0.6624   -1.7051   -0.9366 O   0  0  0  0  0  0  0  0  0  0  0  0
   -2.2815   -0.3063    0.1398 C   0  0  0  0  0  0  0  0  0  0  0  0
   -2.3849    0.9181    1.0188 C   0  0  0  0  0  0  0  0  0  0  0  0
   -2.9352   -1.4027    0.7146 O   0  0  0  0  0  0  0  0  0  0  0  0
    4.1509    0.4695    0.8916 H   0  0  0  0  0  0  0  0  0  0  0  0
    3.8132   -1.1421    0.1872 H   0  0  0  0  0  0  0  0  0  0  0  0
    3.7540    0.3496   -0.8372 H   0  0  0  0  0  0  0  0  0  0  0  0
    1.6331   -0.8468    0.9341 H   0  0  0  0  0  0  0  0  0  0  0  0
    1.9323    0.9592    1.1583 H   0  0  0  0  0  0  0  0  0  0  0  0
    1.7800    1.4018   -1.1469 H   0  0  0  0  0  0  0  0  0  0  0  0
    1.5699   -0.3252   -1.5667 H   0  0  0  0  0  0  0  0  0  0  0  0
   -0.3212    1.4446    0.1043 H   0  0  0  0  0  0  0  0  0  0  0  0
   -0.5839    0.8818   -1.5976 H   0  0  0  0  0  0  0  0  0  0  0  0
   -0.4054   -0.9167    0.9004 H   0  0  0  0  0  0  0  0  0  0  0  0
   -1.1437   -2.4681   -0.5088 H   0  0  0  0  0  0  0  0  0  0  0  0
   -2.7632   -0.0832   -0.8164 H   0  0  0  0  0  0  0  0  0  0  0  0
   -2.3964    1.8198    0.3762 H   0  0  0  0  0  0  0  0  0  0  0  0
   -1.4955    0.9256    1.6912 H   0  0  0  0  0  0  0  0  0  0  0  0
   -3.2765    0.8388    1.6730 H   0  0  0  0  0  0  0  0  0  0  0  0
   -3.8989   -1.2836    0.5187 H   0  0  0  0  0  0  0  0  0  0  0  0
  1  2  1  0
  2  3  1  0
  3  4  1  0
  4  5  1  0
  5  6  1  0
  5  7  1  0
  7  8  1  0
  7  9  1  0
  1 10  1  0
  1 11  1  0
  1 12  1  0
  2 13  1  0
  2 14  1  0
  3 15  1  0
  3 16  1  0
  4 17  1  0
  4 18  1  0
  5 19  1  0
  6 20  1  0
  7 21  1  0
  8 22  1  0
  8 23  1  0
  8 24  1  0
  9 25  1  0
M  END
