
     RDKit          3D

 25 25  0  0  0  0  0  0  0  0999 V2000
   -3.3814    1.0756    0.2585 C   0  0  0  0  0  0  0  0  0  0  0  0
   -2.2977    0.2410   -0.3715 C   0  0  0  0  0  0  0  0  0  0  0  0
   -1.4055   -0.3815    0.6917 C   0  0  0  0  0  0  0  0  0  0  0  0
   -0.3386   -1.2058    0.0064 C   0  0  0  0  0  0  0  0  0  0  0  0
    0.5227   -0.3955   -0.9100 C   0  0  0  0  0  0  0  0  0  0  0  0
    1.2856    0.7346   -0.2707 C   0  0  0  0  0  0  0  0  0  0  0  0
    2.3152   -0.3555   -0.0514 C   0  0  0  0  0  0  0  0  0  0  0  0
    3.7245    0.0074   -0.4223 C   0  0  0  0  0  0  0  0  0  0  0  0
    1.7385   -1.0884   -1.1148 O   0  0  0  0  0  0  0  0  0  0  0  0
   -3.5675    0.6503    1.2695 H   0  0  0  0  0  0  0  0  0  0  0  0
   -3.1422    2.1504    0.2856 H   0  0  0  0  0  0  0  0  0  0  0  0
   -4.3086    0.9501   -0.3222 H   0  0  0  0  0  0  0  0  0  0  0  0
   -2.7811   -0.5977   -0.9191 H   0  0  0  0  0  0  0  0  0  0  0  0
   -1.6648    0.8755   -1.0184 H   0  0  0  0  0  0  0  0  0  0  0  0
   -2.0533   -1.0770    1.2650 H   0  0  0  0  0  0  0  0  0  0  0  0
   -0.9986    0.3525    1.3854 H   0  0  0  0  0  0  0  0  0  0  0  0
    0.2788   -1.7229    0.7507 H   0  0  0  0  0  0  0  0  0  0  0  0
   -0.8318   -1.9901   -0.6044 H   0  0  0  0  0  0  0  0  0  0  0  0
    0.0398   -0.1627   -1.8831 H   0  0  0  0  0  0  0  0  0  0  0  0
    0.8258    1.1056    0.6564 H   0  0  0  0  0  0  0  0  0  0  0  0
    1.5942    1.5038   -1.0071 H   0  0  0  0  0  0  0  0  0  0  0  0
    2.2067   -0.8175    0.9293 H   0  0  0  0  0  0  0  0  0  0  0  0
    3.7414    0.4275   -1.4494 H   0  0  0  0  0  0  0  0  0  0  0  0
    4.2030    0.6848    0.3090 H   0  0  0  0  0  0  0  0  0  0  0  0
    4.2951   -0.9647   -0.4965 H   0  0  0  0  0  0  0  0  0  0  0  0
  1  2  1  0
  2  3  1  0
  3  4  1  0
  4  5  1  0
  5  6  1  0
  6  7  1  0
  7  8  1  0
  7  9  1  0
  9  5  1  0
  1 10  1  0
  1 11  1  0
  1 12  1  0
  2 13  1  0
  2 14  1  0
  3 15  1  0
  3 16  1  0
  4 17  1  0
  4 18  1  0
  5 19  1  0
  6 20  1  0
  6 21  1  0
  7 22  1  0
  8 23  1  0
  8 24  1  0
  8 25  1  0
M  END
