
     RDKit          3D

 24 24  0  0  0  0  0  0  0  0999 V2000
    3.4377    0.2534    0.1728 C   0  0  0  0  0  0  0  0  0  0  0  0
    2.0676   -0.3077    0.4930 C   0  0  0  0  0  0  0  0  0  0  0  0
    1.0535    0.8011    0.2085 C   0  0  0  0  0  0  0  0  0  0  0  0
   -0.3412    0.2612    0.5239 C   0  0  0  0  0  0  0  0  0  0  0  0
   -0.6407   -0.9419   -0.3398 C   0  0  0  0  0  0  0  0  0  0  0  0
   -1.8993   -0.2470   -0.7898 C   0  0  0  0  0  0  0  0  0  0  0  0
   -3.1223   -0.7723   -0.1054 C   0  0  0  0  0  0  0  0  0  0  0  0
   -1.4329    1.0688   -0.1880 C   0  0  0  0  0  0  0  0  0  0  0  0
    3.8261   -0.2476   -0.7124 H   0  0  0  0  0  0  0  0  0  0  0  0
    4.0849    0.1595    1.0671 H   0  0  0  0  0  0  0  0  0  0  0  0
    3.3952    1.3465   -0.0698 H   0  0  0  0  0  0  0  0  0  0  0  0
    1.8549   -1.1887   -0.1438 H   0  0  0  0  0  0  0  0  0  0  0  0
    1.9706   -0.6254    1.5489 H   0  0  0  0  0  0  0  0  0  0  0  0
    1.1254    1.1031   -0.8549 H   0  0  0  0  0  0  0  0  0  0  0  0
    1.2831    1.7051    0.8042 H   0  0  0  0  0  0  0  0  0  0  0  0
   -0.5287    0.1364    1.6082 H   0  0  0  0  0  0  0  0  0  0  0  0
    0.0405   -1.1035   -1.1935 H   0  0  0  0  0  0  0  0  0  0  0  0
   -0.7875   -1.8928    0.2049 H   0  0  0  0  0  0  0  0  0  0  0  0
   -2.0446   -0.1335   -1.8668 H   0  0  0  0  0  0  0  0  0  0  0  0
   -3.4427   -1.7331   -0.5119 H   0  0  0  0  0  0  0  0  0  0  0  0
   -3.9294   -0.0203   -0.2337 H   0  0  0  0  0  0  0  0  0  0  0  0
   -2.8643   -0.9386    0.9636 H   0  0  0  0  0  0  0  0  0  0  0  0
   -0.9932    1.7731   -0.9069 H   0  0  0  0  0  0  0  0  0  0  0  0
   -2.1126    1.5445    0.5156 H   0  0  0  0  0  0  0  0  0  0  0  0
  1  2  1  0
  2  3  1  0
  3  4  1  0
  4  5  1  0
  5  6  1  0
  6  7  1  0
  6  8  1  0
  8  4  1  0
  1  9  1  0
  1 10  1  0
  1 11  1  0
  2 12  1  0
  2 13  1  0
  3 14  1  0
  3 15  1  0
  4 16  1  0
  5 17  1  0
  5 18  1  0
  6 19  1  0
  7 20  1  0
  7 21  1  0
  7 22  1  0
  8 23  1  0
  8 24  1  0
M  END
