
     RDKit          3D

 25 26  0  0  0  0  0  0  0  0999 V2000
    2.8771    0.3636    0.6391 C   0  0  0  0  0  0  0  0  0  0  0  0
    2.1951   -0.1019   -0.6077 C   0  0  0  0  0  0  0  0  0  0  0  0
    1.0045   -0.9806   -0.3196 C   0  0  0  0  0  0  0  0  0  0  0  0
   -0.0510   -0.2916    0.4965 C   0  0  0  0  0  0  0  0  0  0  0  0
   -1.1743   -1.2997    0.6998 C   0  0  0  0  0  0  0  0  0  0  0  0
   -2.4616   -0.5601    0.4348 C   0  0  0  0  0  0  0  0  0  0  0  0
   -2.0745    0.6383   -0.3806 C   0  0  0  0  0  0  0  0  0  0  0  0
   -1.5668    1.8016    0.4513 C   0  0  0  0  0  0  0  0  0  0  0  0
   -0.6360    0.8706   -0.2414 C   0  0  0  0  0  0  0  0  0  0  0  0
    3.9846    0.3816    0.4795 H   0  0  0  0  0  0  0  0  0  0  0  0
    2.5511    1.3789    0.9613 H   0  0  0  0  0  0  0  0  0  0  0  0
    2.6647   -0.3694    1.4484 H   0  0  0  0  0  0  0  0  0  0  0  0
    1.9363    0.7370   -1.2701 H   0  0  0  0  0  0  0  0  0  0  0  0
    2.9265   -0.7476   -1.1639 H   0  0  0  0  0  0  0  0  0  0  0  0
    1.3739   -1.8880    0.1726 H   0  0  0  0  0  0  0  0  0  0  0  0
    0.5460   -1.2715   -1.2857 H   0  0  0  0  0  0  0  0  0  0  0  0
    0.3197   -0.0163    1.5093 H   0  0  0  0  0  0  0  0  0  0  0  0
   -1.1478   -1.7718    1.6850 H   0  0  0  0  0  0  0  0  0  0  0  0
   -1.1222   -2.1152   -0.0792 H   0  0  0  0  0  0  0  0  0  0  0  0
   -3.2198   -1.1997   -0.0816 H   0  0  0  0  0  0  0  0  0  0  0  0
   -2.8791   -0.2269    1.4184 H   0  0  0  0  0  0  0  0  0  0  0  0
   -2.5394    0.8332   -1.3617 H   0  0  0  0  0  0  0  0  0  0  0  0
   -1.7073    1.7646    1.5556 H   0  0  0  0  0  0  0  0  0  0  0  0
   -1.7163    2.7878    0.0196 H   0  0  0  0  0  0  0  0  0  0  0  0
   -0.0833    1.2830   -1.1164 H   0  0  0  0  0  0  0  0  0  0  0  0
  1  2  1  0
  2  3  1  0
  3  4  1  0
  4  5  1  0
  5  6  1  0
  6  7  1  0
  7  8  1  0
  8  9  1  0
  9  4  1  0
  9  7  1  0
  1 10  1  0
  1 11  1  0
  1 12  1  0
  2 13  1  0
  2 14  1  0
  3 15  1  0
  3 16  1  0
  4 17  1  0
  5 18  1  0
  5 19  1  0
  6 20  1  0
  6 21  1  0
  7 22  1  0
  8 23  1  0
  8 24  1  0
  9 25  1  0
M  END
