
     RDKit          3D

 25 25  0  0  0  0  0  0  0  0999 V2000
    3.6082   -0.7750   -0.1416 C   0  0  0  0  0  0  0  0  0  0  0  0
    2.3938   -0.2864    0.6042 C   0  0  0  0  0  0  0  0  0  0  0  0
    1.4614    0.3260   -0.4313 C   0  0  0  0  0  0  0  0  0  0  0  0
    0.1997    0.8535    0.2084 C   0  0  0  0  0  0  0  0  0  0  0  0
   -0.7607    1.4741   -0.7892 C   0  0  0  0  0  0  0  0  0  0  0  0
   -1.0774    0.1737   -0.0660 C   0  0  0  0  0  0  0  0  0  0  0  0
   -0.9822   -1.0023   -0.8372 O   0  0  0  0  0  0  0  0  0  0  0  0
   -2.2371    0.2403    0.8657 C   0  0  0  0  0  0  0  0  0  0  0  0
   -3.3697   -0.5793    0.2475 C   0  0  0  0  0  0  0  0  0  0  0  0
    3.3639   -1.7748   -0.5452 H   0  0  0  0  0  0  0  0  0  0  0  0
    4.5061   -0.8502    0.5012 H   0  0  0  0  0  0  0  0  0  0  0  0
    3.7775   -0.0924   -1.0069 H   0  0  0  0  0  0  0  0  0  0  0  0
    1.8464   -1.1022    1.1119 H   0  0  0  0  0  0  0  0  0  0  0  0
    2.6387    0.4659    1.3806 H   0  0  0  0  0  0  0  0  0  0  0  0
    1.2101   -0.4273   -1.2069 H   0  0  0  0  0  0  0  0  0  0  0  0
    1.9807    1.1633   -0.9372 H   0  0  0  0  0  0  0  0  0  0  0  0
    0.3388    1.3080    1.1933 H   0  0  0  0  0  0  0  0  0  0  0  0
   -1.2365    2.4040   -0.4252 H   0  0  0  0  0  0  0  0  0  0  0  0
   -0.5395    1.4267   -1.8621 H   0  0  0  0  0  0  0  0  0  0  0  0
   -1.4627   -1.7298   -0.3707 H   0  0  0  0  0  0  0  0  0  0  0  0
   -2.0342   -0.2214    1.8552 H   0  0  0  0  0  0  0  0  0  0  0  0
   -2.5734    1.2883    0.9934 H   0  0  0  0  0  0  0  0  0  0  0  0
   -3.5012   -1.5405    0.7613 H   0  0  0  0  0  0  0  0  0  0  0  0
   -3.2163   -0.7113   -0.8494 H   0  0  0  0  0  0  0  0  0  0  0  0
   -4.3341   -0.0308    0.3526 H   0  0  0  0  0  0  0  0  0  0  0  0
  1  2  1  0
  2  3  1  0
  3  4  1  0
  4  5  1  0
  5  6  1  0
  6  7  1  0
  6  8  1  0
  8  9  1  0
  6  4  1  0
  1 10  1  0
  1 11  1  0
  1 12  1  0
  2 13  1  0
  2 14  1  0
  3 15  1  0
  3 16  1  0
  4 17  1  0
  5 18  1  0
  5 19  1  0
  7 20  1  0
  8 21  1  0
  8 22  1  0
  9 23  1  0
  9 24  1  0
  9 25  1  0
M  END
