
     RDKit          3D

 22 21  0  0  0  0  0  0  0  0999 V2000
    2.4197    0.5482    0.7231 C   0  0  0  0  0  0  0  0  0  0  0  0
    2.0700   -0.4673   -0.3437 C   0  0  0  0  0  0  0  0  0  0  0  0
    0.6131   -0.8661   -0.2663 C   0  0  0  0  0  0  0  0  0  0  0  0
   -0.2890    0.3244   -0.4573 C   0  0  0  0  0  0  0  0  0  0  0  0
   -0.0283    0.8708   -1.7121 O   0  0  0  0  0  0  0  0  0  0  0  0
   -1.7305    0.0238   -0.3539 C   0  0  0  0  0  0  0  0  0  0  0  0
   -2.1648   -0.6600    0.8964 C   0  0  0  0  0  0  0  0  0  0  0  0
   -2.4414    1.2157   -0.5198 O   0  0  0  0  0  0  0  0  0  0  0  0
    3.4962    0.4745    0.9612 H   0  0  0  0  0  0  0  0  0  0  0  0
    2.1827    1.5772    0.4188 H   0  0  0  0  0  0  0  0  0  0  0  0
    1.8422    0.2954    1.6363 H   0  0  0  0  0  0  0  0  0  0  0  0
    2.3377   -0.0799   -1.3651 H   0  0  0  0  0  0  0  0  0  0  0  0
    2.6596   -1.3858   -0.1381 H   0  0  0  0  0  0  0  0  0  0  0  0
    0.4611   -1.3701    0.6908 H   0  0  0  0  0  0  0  0  0  0  0  0
    0.4527   -1.6105   -1.0927 H   0  0  0  0  0  0  0  0  0  0  0  0
    0.0355    1.0919    0.2859 H   0  0  0  0  0  0  0  0  0  0  0  0
   -0.8476    1.3354   -2.0065 H   0  0  0  0  0  0  0  0  0  0  0  0
   -2.0180   -0.6415   -1.2126 H   0  0  0  0  0  0  0  0  0  0  0  0
   -1.4836   -0.5357    1.7500 H   0  0  0  0  0  0  0  0  0  0  0  0
   -3.1448   -0.2384    1.2063 H   0  0  0  0  0  0  0  0  0  0  0  0
   -2.3655   -1.7617    0.7465 H   0  0  0  0  0  0  0  0  0  0  0  0
   -2.0570    1.8596    0.1528 H   0  0  0  0  0  0  0  0  0  0  0  0
  1  2  1  0
  2  3  1  0
  3  4  1  0
  4  5  1  0
  4  6  1  0
  6  7  1  0
  6  8  1  0
  1  9  1  0
  1 10  1  0
  1 11  1  0
  2 12  1  0
  2 13  1  0
  3 14  1  0
  3 15  1  0
  4 16  1  0
  5 17  1  0
  6 18  1  0
  7 19  1  0
  7 20  1  0
  7 21  1  0
  8 22  1  0
M  END
