
     RDKit          3D

 20 19  0  0  0  0  0  0  0  0999 V2000
    3.2724   -0.0751    0.4331 C   0  0  0  0  0  0  0  0  0  0  0  0
    1.7868   -0.0547    0.5635 C   0  0  0  0  0  0  0  0  0  0  0  0
    1.2103   -0.3509   -0.8157 C   0  0  0  0  0  0  0  0  0  0  0  0
   -0.2946   -0.3600   -0.7516 C   0  0  0  0  0  0  0  0  0  0  0  0
   -0.9032   -1.4439   -0.9339 O   0  0  0  0  0  0  0  0  0  0  0  0
   -1.0384    0.7672   -0.5010 O   0  0  0  0  0  0  0  0  0  0  0  0
   -2.4407    0.8238   -0.4305 C   0  0  0  0  0  0  0  0  0  0  0  0
   -3.0621   -0.0755    0.5920 C   0  0  0  0  0  0  0  0  0  0  0  0
    3.6386   -0.4722   -0.5429 H   0  0  0  0  0  0  0  0  0  0  0  0
    3.7255    0.9144    0.5636 H   0  0  0  0  0  0  0  0  0  0  0  0
    3.6419   -0.8094    1.1955 H   0  0  0  0  0  0  0  0  0  0  0  0
    1.3635   -0.6800    1.3569 H   0  0  0  0  0  0  0  0  0  0  0  0
    1.4119    0.9911    0.7915 H   0  0  0  0  0  0  0  0  0  0  0  0
    1.5996    0.4238   -1.4997 H   0  0  0  0  0  0  0  0  0  0  0  0
    1.5388   -1.3440   -1.1863 H   0  0  0  0  0  0  0  0  0  0  0  0
   -2.9437    0.7129   -1.3923 H   0  0  0  0  0  0  0  0  0  0  0  0
   -2.6892    1.8842   -0.0916 H   0  0  0  0  0  0  0  0  0  0  0  0
   -2.7660    0.1570    1.6349 H   0  0  0  0  0  0  0  0  0  0  0  0
   -4.1727    0.1291    0.5353 H   0  0  0  0  0  0  0  0  0  0  0  0
   -2.8787   -1.1379    0.3160 H   0  0  0  0  0  0  0  0  0  0  0  0
  1  2  1  0
  2  3  1  0
  3  4  1  0
  4  5  2  0
  4  6  1  0
  6  7  1  0
  7  8  1  0
  1  9  1  0
  1 10  1  0
  1 11  1  0
  2 12  1  0
  2 13  1  0
  3 14  1  0
  3 15  1  0
  7 16  1  0
  7 17  1  0
  8 18  1  0
  8 19  1  0
  8 20  1  0
M  END
