
     RDKit          3D

 22 22  0  0  0  0  0  0  0  0999 V2000
   -2.6470    0.5627    0.0688 C   0  0  0  0  0  0  0  0  0  0  0  0
   -2.0220   -0.7637    0.4107 C   0  0  0  0  0  0  0  0  0  0  0  0
   -1.0137   -1.1061   -0.6651 C   0  0  0  0  0  0  0  0  0  0  0  0
    0.0169   -0.0149   -0.6820 C   0  0  0  0  0  0  0  0  0  0  0  0
    0.7768    0.1770    0.6148 C   0  0  0  0  0  0  0  0  0  0  0  0
    1.8131    0.5744   -0.3951 C   0  0  0  0  0  0  0  0  0  0  0  0
    3.2374    0.2760   -0.0371 C   0  0  0  0  0  0  0  0  0  0  0  0
    1.2571   -0.4002   -1.2436 O   0  0  0  0  0  0  0  0  0  0  0  0
   -1.9047    1.3728    0.0018 H   0  0  0  0  0  0  0  0  0  0  0  0
   -3.3911    0.8737    0.8301 H   0  0  0  0  0  0  0  0  0  0  0  0
   -3.1198    0.4590   -0.9362 H   0  0  0  0  0  0  0  0  0  0  0  0
   -2.8282   -1.5235    0.4682 H   0  0  0  0  0  0  0  0  0  0  0  0
   -1.4997   -0.7148    1.3914 H   0  0  0  0  0  0  0  0  0  0  0  0
   -1.5459   -1.0699   -1.6373 H   0  0  0  0  0  0  0  0  0  0  0  0
   -0.5863   -2.1120   -0.5317 H   0  0  0  0  0  0  0  0  0  0  0  0
   -0.3134    0.9023   -1.1852 H   0  0  0  0  0  0  0  0  0  0  0  0
    0.9896   -0.7968    1.0836 H   0  0  0  0  0  0  0  0  0  0  0  0
    0.4165    0.9738    1.2723 H   0  0  0  0  0  0  0  0  0  0  0  0
    1.6205    1.6105   -0.7453 H   0  0  0  0  0  0  0  0  0  0  0  0
    3.3229   -0.7633    0.2834 H   0  0  0  0  0  0  0  0  0  0  0  0
    3.8538    0.4979   -0.9462 H   0  0  0  0  0  0  0  0  0  0  0  0
    3.5670    0.9851    0.7536 H   0  0  0  0  0  0  0  0  0  0  0  0
  1  2  1  0
  2  3  1  0
  3  4  1  0
  4  5  1  0
  5  6  1  0
  6  7  1  0
  6  8  1  0
  8  4  1  0
  1  9  1  0
  1 10  1  0
  1 11  1  0
  2 12  1  0
  2 13  1  0
  3 14  1  0
  3 15  1  0
  4 16  1  0
  5 17  1  0
  5 18  1  0
  6 19  1  0
  7 20  1  0
  7 21  1  0
  7 22  1  0
M  END
