
     RDKit          3D

 23 22  0  0  0  0  0  0  0  0999 V2000
   -3.4101   -0.7260    0.2693 C   0  0  0  0  0  0  0  0  0  0  0  0
   -2.5651    0.5277    0.0214 C   0  0  0  0  0  0  0  0  0  0  0  0
   -1.1382    0.1081    0.1968 C   0  0  0  0  0  0  0  0  0  0  0  0
   -0.1435    1.2206   -0.0317 C   0  0  0  0  0  0  0  0  0  0  0  0
    1.2151    0.6553    0.1746 C   0  0  0  0  0  0  0  0  0  0  0  0
    1.9011    1.0023    1.1125 O   0  0  0  0  0  0  0  0  0  0  0  0
    1.7367   -0.3540   -0.7812 C   0  0  0  0  0  0  0  0  0  0  0  0
    3.1603   -0.7622   -0.4412 C   0  0  0  0  0  0  0  0  0  0  0  0
    4.0301    0.3336   -0.4859 O   0  0  0  0  0  0  0  0  0  0  0  0
   -4.4445   -0.5969   -0.0642 H   0  0  0  0  0  0  0  0  0  0  0  0
   -3.3244   -0.9413    1.3501 H   0  0  0  0  0  0  0  0  0  0  0  0
   -2.9365   -1.5354   -0.3639 H   0  0  0  0  0  0  0  0  0  0  0  0
   -2.8978    1.3070    0.7167 H   0  0  0  0  0  0  0  0  0  0  0  0
   -2.7597    0.8383   -1.0230 H   0  0  0  0  0  0  0  0  0  0  0  0
   -0.9389   -0.7166   -0.5488 H   0  0  0  0  0  0  0  0  0  0  0  0
   -1.0033   -0.2767    1.2139 H   0  0  0  0  0  0  0  0  0  0  0  0
   -0.1993    1.6811   -1.0188 H   0  0  0  0  0  0  0  0  0  0  0  0
   -0.3265    2.0146    0.7328 H   0  0  0  0  0  0  0  0  0  0  0  0
    1.6755   -0.0301   -1.8396 H   0  0  0  0  0  0  0  0  0  0  0  0
    1.1357   -1.3038   -0.6392 H   0  0  0  0  0  0  0  0  0  0  0  0
    3.1771   -1.2918    0.5400 H   0  0  0  0  0  0  0  0  0  0  0  0
    3.4674   -1.4990   -1.2168 H   0  0  0  0  0  0  0  0  0  0  0  0
    4.5891    0.3452   -1.3234 H   0  0  0  0  0  0  0  0  0  0  0  0
  1  2  1  0
  2  3  1  0
  3  4  1  0
  4  5  1  0
  5  6  2  0
  5  7  1  0
  7  8  1  0
  8  9  1  0
  1 10  1  0
  1 11  1  0
  1 12  1  0
  2 13  1  0
  2 14  1  0
  3 15  1  0
  3 16  1  0
  4 17  1  0
  4 18  1  0
  7 19  1  0
  7 20  1  0
  8 21  1  0
  8 22  1  0
  9 23  1  0
M  END
