
     RDKit          3D

 18 17  0  0  0  0  0  0  0  0999 V2000
   -2.4167   -0.1643   -0.4588 C   0  0  0  0  0  0  0  0  0  0  0  0
   -2.0557    0.3577    0.9096 C   0  0  0  0  0  0  0  0  0  0  0  0
   -0.8115    1.2021    0.8992 C   0  0  0  0  0  0  0  0  0  0  0  0
    0.2822    0.3650    0.4070 C   0  0  0  0  0  0  0  0  0  0  0  0
    1.2012   -0.3187    0.0103 C   0  0  0  0  0  0  0  0  0  0  0  0
    2.3328   -1.1299   -0.4644 C   0  0  0  0  0  0  0  0  0  0  0  0
    3.3607   -0.2348   -1.0869 C   0  0  0  0  0  0  0  0  0  0  0  0
    3.2204    0.9691   -1.1571 O   0  0  0  0  0  0  0  0  0  0  0  0
   -2.2719    0.5982   -1.2538 H   0  0  0  0  0  0  0  0  0  0  0  0
   -3.4839   -0.4464   -0.4322 H   0  0  0  0  0  0  0  0  0  0  0  0
   -1.8455   -1.0809   -0.6741 H   0  0  0  0  0  0  0  0  0  0  0  0
   -2.0159   -0.4898    1.6102 H   0  0  0  0  0  0  0  0  0  0  0  0
   -2.8942    1.0177    1.2487 H   0  0  0  0  0  0  0  0  0  0  0  0
   -0.9941    2.0838    0.2767 H   0  0  0  0  0  0  0  0  0  0  0  0
   -0.6174    1.5141    1.9428 H   0  0  0  0  0  0  0  0  0  0  0  0
    1.9835   -1.8467   -1.2319 H   0  0  0  0  0  0  0  0  0  0  0  0
    2.7706   -1.7385    0.3530 H   0  0  0  0  0  0  0  0  0  0  0  0
    4.2555   -0.6577   -1.4880 H   0  0  0  0  0  0  0  0  0  0  0  0
  1  2  1  0
  2  3  1  0
  3  4  1  0
  4  5  3  0
  5  6  1  0
  6  7  1  0
  7  8  2  0
  1  9  1  0
  1 10  1  0
  1 11  1  0
  2 12  1  0
  2 13  1  0
  3 14  1  0
  3 15  1  0
  6 16  1  0
  6 17  1  0
  7 18  1  0
M  END
