
     RDKit          3D

 25 26  0  0  0  0  0  0  0  0999 V2000
   -2.8802    0.3902   -0.5771 C   0  0  0  0  0  0  0  0  0  0  0  0
   -2.3518    0.1885    0.8237 C   0  0  0  0  0  0  0  0  0  0  0  0
   -1.1703   -0.7037    0.8569 C   0  0  0  0  0  0  0  0  0  0  0  0
    0.0075   -0.2491    0.0788 C   0  0  0  0  0  0  0  0  0  0  0  0
    0.7117    1.0345    0.3458 C   0  0  0  0  0  0  0  0  0  0  0  0
    2.0075    0.2505    0.4549 C   0  0  0  0  0  0  0  0  0  0  0  0
    3.0272    0.5697   -0.6050 C   0  0  0  0  0  0  0  0  0  0  0  0
    1.2927   -1.0445    0.1492 C   0  0  0  0  0  0  0  0  0  0  0  0
    0.4445   -1.0563   -1.0676 C   0  0  0  0  0  0  0  0  0  0  0  0
   -3.4857   -0.5135   -0.8532 H   0  0  0  0  0  0  0  0  0  0  0  0
   -3.5228    1.2932   -0.6213 H   0  0  0  0  0  0  0  0  0  0  0  0
   -1.9918    0.4982   -1.2611 H   0  0  0  0  0  0  0  0  0  0  0  0
   -2.2073    1.1666    1.3196 H   0  0  0  0  0  0  0  0  0  0  0  0
   -3.1744   -0.3154    1.3941 H   0  0  0  0  0  0  0  0  0  0  0  0
   -1.4753   -1.7052    0.4913 H   0  0  0  0  0  0  0  0  0  0  0  0
   -0.8448   -0.8470    1.9179 H   0  0  0  0  0  0  0  0  0  0  0  0
    0.7867    1.7487   -0.4994 H   0  0  0  0  0  0  0  0  0  0  0  0
    0.4298    1.5865    1.2592 H   0  0  0  0  0  0  0  0  0  0  0  0
    2.3813    0.2949    1.4789 H   0  0  0  0  0  0  0  0  0  0  0  0
    2.5362    0.5704   -1.5998 H   0  0  0  0  0  0  0  0  0  0  0  0
    3.7831   -0.2386   -0.6321 H   0  0  0  0  0  0  0  0  0  0  0  0
    3.5532    1.5216   -0.4054 H   0  0  0  0  0  0  0  0  0  0  0  0
    1.3805   -1.9000    0.8126 H   0  0  0  0  0  0  0  0  0  0  0  0
    0.8675   -0.5489   -1.9528 H   0  0  0  0  0  0  0  0  0  0  0  0
   -0.1050   -1.9915   -1.3083 H   0  0  0  0  0  0  0  0  0  0  0  0
  1  2  1  0
  2  3  1  0
  3  4  1  0
  4  5  1  0
  5  6  1  0
  6  7  1  0
  6  8  1  0
  8  9  1  0
  8  4  1  0
  9  4  1  0
  1 10  1  0
  1 11  1  0
  1 12  1  0
  2 13  1  0
  2 14  1  0
  3 15  1  0
  3 16  1  0
  5 17  1  0
  5 18  1  0
  6 19  1  0
  7 20  1  0
  7 21  1  0
  7 22  1  0
  8 23  1  0
  9 24  1  0
  9 25  1  0
M  END
