
     RDKit          3D

 23 23  0  0  0  0  0  0  0  0999 V2000
    2.4636    0.7624    0.7540 C   0  0  0  0  0  0  0  0  0  0  0  0
    1.8881    0.6145   -0.6490 C   0  0  0  0  0  0  0  0  0  0  0  0
    0.8330   -0.4537   -0.5943 C   0  0  0  0  0  0  0  0  0  0  0  0
   -0.2900   -0.1401    0.3494 C   0  0  0  0  0  0  0  0  0  0  0  0
   -1.0284    1.1158    0.0101 C   0  0  0  0  0  0  0  0  0  0  0  0
   -2.4184    0.7030   -0.3876 C   0  0  0  0  0  0  0  0  0  0  0  0
   -2.5562   -0.5950   -0.2822 C   0  0  0  0  0  0  0  0  0  0  0  0
   -1.3184   -1.2342    0.1879 C   0  0  0  0  0  0  0  0  0  0  0  0
   -1.4948   -1.9441    1.3744 O   0  0  0  0  0  0  0  0  0  0  0  0
    2.8499   -0.2575    1.0344 H   0  0  0  0  0  0  0  0  0  0  0  0
    1.7402    1.1595    1.4709 H   0  0  0  0  0  0  0  0  0  0  0  0
    3.3857    1.3967    0.6679 H   0  0  0  0  0  0  0  0  0  0  0  0
    1.5385    1.5525   -1.0736 H   0  0  0  0  0  0  0  0  0  0  0  0
    2.7259    0.2067   -1.2673 H   0  0  0  0  0  0  0  0  0  0  0  0
    0.3788   -0.5570   -1.6132 H   0  0  0  0  0  0  0  0  0  0  0  0
    1.2786   -1.4190   -0.2819 H   0  0  0  0  0  0  0  0  0  0  0  0
    0.0331   -0.1408    1.4144 H   0  0  0  0  0  0  0  0  0  0  0  0
   -0.5472    1.7213   -0.7798 H   0  0  0  0  0  0  0  0  0  0  0  0
   -1.1396    1.7217    0.9310 H   0  0  0  0  0  0  0  0  0  0  0  0
   -3.1502    1.4247   -0.7052 H   0  0  0  0  0  0  0  0  0  0  0  0
   -3.4644   -1.1352   -0.5109 H   0  0  0  0  0  0  0  0  0  0  0  0
   -1.0289   -1.9925   -0.5792 H   0  0  0  0  0  0  0  0  0  0  0  0
   -0.6790   -2.5097    1.4764 H   0  0  0  0  0  0  0  0  0  0  0  0
  1  2  1  0
  2  3  1  0
  3  4  1  0
  4  5  1  0
  5  6  1  0
  6  7  2  0
  7  8  1  0
  8  9  1  0
  8  4  1  0
  1 10  1  0
  1 11  1  0
  1 12  1  0
  2 13  1  0
  2 14  1  0
  3 15  1  0
  3 16  1  0
  4 17  1  0
  5 18  1  0
  5 19  1  0
  6 20  1  0
  7 21  1  0
  8 22  1  0
  9 23  1  0
M  END
