
     RDKit          3D

 23 23  0  0  0  0  0  0  0  0999 V2000
   -2.7138    0.3447   -0.8667 C   0  0  0  0  0  0  0  0  0  0  0  0
   -2.1753   -0.9278   -0.3278 C   0  0  0  0  0  0  0  0  0  0  0  0
   -1.0657   -0.8271    0.6726 C   0  0  0  0  0  0  0  0  0  0  0  0
    0.1729   -0.2154    0.2593 C   0  0  0  0  0  0  0  0  0  0  0  0
    1.2965   -0.9754    0.2914 C   0  0  0  0  0  0  0  0  0  0  0  0
    2.6038   -0.4196   -0.1174 C   0  0  0  0  0  0  0  0  0  0  0  0
    2.5052    0.9397   -0.7171 C   0  0  0  0  0  0  0  0  0  0  0  0
    1.2403    1.1269   -1.2652 O   0  0  0  0  0  0  0  0  0  0  0  0
    0.3418    1.1661   -0.1659 C   0  0  0  0  0  0  0  0  0  0  0  0
   -3.7911    0.2505   -1.1862 H   0  0  0  0  0  0  0  0  0  0  0  0
   -2.7297    1.1212   -0.0674 H   0  0  0  0  0  0  0  0  0  0  0  0
   -2.2100    0.7521   -1.7538 H   0  0  0  0  0  0  0  0  0  0  0  0
   -1.8910   -1.6437   -1.1349 H   0  0  0  0  0  0  0  0  0  0  0  0
   -3.0109   -1.4651    0.2222 H   0  0  0  0  0  0  0  0  0  0  0  0
   -1.4784   -0.1768    1.5211 H   0  0  0  0  0  0  0  0  0  0  0  0
   -0.8893   -1.8398    1.1247 H   0  0  0  0  0  0  0  0  0  0  0  0
    1.2347   -1.9955    0.6186 H   0  0  0  0  0  0  0  0  0  0  0  0
    3.0321   -1.1018   -0.8825 H   0  0  0  0  0  0  0  0  0  0  0  0
    3.2674   -0.3579    0.7863 H   0  0  0  0  0  0  0  0  0  0  0  0
    3.2559    1.1094   -1.5149 H   0  0  0  0  0  0  0  0  0  0  0  0
    2.6066    1.7092    0.0985 H   0  0  0  0  0  0  0  0  0  0  0  0
    0.9200    1.6977    0.6524 H   0  0  0  0  0  0  0  0  0  0  0  0
   -0.5219    1.7284   -0.4817 H   0  0  0  0  0  0  0  0  0  0  0  0
  1  2  1  0
  2  3  1  0
  3  4  1  0
  4  5  2  0
  5  6  1  0
  6  7  1  0
  7  8  1  0
  8  9  1  0
  9  4  1  0
  1 10  1  0
  1 11  1  0
  1 12  1  0
  2 13  1  0
  2 14  1  0
  3 15  1  0
  3 16  1  0
  5 17  1  0
  6 18  1  0
  6 19  1  0
  7 20  1  0
  7 21  1  0
  9 22  1  0
  9 23  1  0
M  END
