
     RDKit          3D

 22 22  0  0  0  0  0  0  0  0999 V2000
    2.9299    0.1313   -0.1012 C   0  0  0  0  0  0  0  0  0  0  0  0
    1.5019   -0.4226   -0.2078 C   0  0  0  0  0  0  0  0  0  0  0  0
    0.4883    0.6139    0.1317 C   0  0  0  0  0  0  0  0  0  0  0  0
   -0.9194    0.1569    0.0431 C   0  0  0  0  0  0  0  0  0  0  0  0
   -1.9462    1.2153    0.3883 C   0  0  0  0  0  0  0  0  0  0  0  0
   -1.2103   -1.1681    0.6580 C   0  0  0  0  0  0  0  0  0  0  0  0
   -2.0676   -1.4590   -0.4235 O   0  0  0  0  0  0  0  0  0  0  0  0
   -1.3471   -0.5460   -1.2213 C   0  0  0  0  0  0  0  0  0  0  0  0
    3.2476    0.1791    0.9654 H   0  0  0  0  0  0  0  0  0  0  0  0
    3.5970   -0.6208   -0.5873 H   0  0  0  0  0  0  0  0  0  0  0  0
    3.0058    1.1183   -0.6068 H   0  0  0  0  0  0  0  0  0  0  0  0
    1.4903   -1.2583    0.5463 H   0  0  0  0  0  0  0  0  0  0  0  0
    1.3640   -0.7809   -1.2429 H   0  0  0  0  0  0  0  0  0  0  0  0
    0.6541    1.5596   -0.4285 H   0  0  0  0  0  0  0  0  0  0  0  0
    0.6677    0.8935    1.2123 H   0  0  0  0  0  0  0  0  0  0  0  0
   -1.8287    2.0304   -0.3685 H   0  0  0  0  0  0  0  0  0  0  0  0
   -2.9418    0.7624    0.1741 H   0  0  0  0  0  0  0  0  0  0  0  0
   -1.8873    1.5643    1.4215 H   0  0  0  0  0  0  0  0  0  0  0  0
   -1.7306   -1.1058    1.6313 H   0  0  0  0  0  0  0  0  0  0  0  0
   -0.4073   -1.9085    0.6748 H   0  0  0  0  0  0  0  0  0  0  0  0
   -2.0895    0.0231   -1.8386 H   0  0  0  0  0  0  0  0  0  0  0  0
   -0.5708   -0.9781   -1.8469 H   0  0  0  0  0  0  0  0  0  0  0  0
  1  2  1  0
  2  3  1  0
  3  4  1  0
  4  5  1  0
  4  6  1  0
  6  7  1  0
  7  8  1  0
  8  4  1  0
  1  9  1  0
  1 10  1  0
  1 11  1  0
  2 12  1  0
  2 13  1  0
  3 14  1  0
  3 15  1  0
  5 16  1  0
  5 17  1  0
  5 18  1  0
  6 19  1  0
  6 20  1  0
  8 21  1  0
  8 22  1  0
M  END
