
     RDKit          3D

 25 25  0  0  0  0  0  0  0  0999 V2000
   -3.6081   -0.7669   -0.3409 C   0  0  0  0  0  0  0  0  0  0  0  0
   -2.0828   -0.6643   -0.2103 C   0  0  0  0  0  0  0  0  0  0  0  0
   -1.7795    0.7804    0.1032 C   0  0  0  0  0  0  0  0  0  0  0  0
   -0.3180    1.0538    0.2640 C   0  0  0  0  0  0  0  0  0  0  0  0
    0.3954    0.3062    1.3481 C   0  0  0  0  0  0  0  0  0  0  0  0
    1.5146    0.5225    0.3380 C   0  0  0  0  0  0  0  0  0  0  0  0
    2.5361   -0.5771    0.2813 C   0  0  0  0  0  0  0  0  0  0  0  0
    3.5589   -0.1918   -0.7660 C   0  0  0  0  0  0  0  0  0  0  0  0
    0.5261    0.4550   -0.6450 O   0  0  0  0  0  0  0  0  0  0  0  0
   -4.0604    0.2307   -0.4909 H   0  0  0  0  0  0  0  0  0  0  0  0
   -3.8933   -1.4395   -1.1504 H   0  0  0  0  0  0  0  0  0  0  0  0
   -4.0485   -1.1541    0.6189 H   0  0  0  0  0  0  0  0  0  0  0  0
   -1.7319   -1.3641    0.5488 H   0  0  0  0  0  0  0  0  0  0  0  0
   -1.6878   -0.9695   -1.2011 H   0  0  0  0  0  0  0  0  0  0  0  0
   -2.3404    1.1101    0.9855 H   0  0  0  0  0  0  0  0  0  0  0  0
   -2.1395    1.3767   -0.7616 H   0  0  0  0  0  0  0  0  0  0  0  0
   -0.1192    2.1404    0.3371 H   0  0  0  0  0  0  0  0  0  0  0  0
    0.4917    0.8926    2.2807 H   0  0  0  0  0  0  0  0  0  0  0  0
    0.1028   -0.7489    1.4855 H   0  0  0  0  0  0  0  0  0  0  0  0
    1.9478    1.5151    0.4642 H   0  0  0  0  0  0  0  0  0  0  0  0
    3.0470   -0.7441    1.2398 H   0  0  0  0  0  0  0  0  0  0  0  0
    2.0998   -1.5457   -0.0555 H   0  0  0  0  0  0  0  0  0  0  0  0
    3.7107   -0.9719   -1.5297 H   0  0  0  0  0  0  0  0  0  0  0  0
    4.5691   -0.0198   -0.3051 H   0  0  0  0  0  0  0  0  0  0  0  0
    3.3096    0.7742   -1.2659 H   0  0  0  0  0  0  0  0  0  0  0  0
  1  2  1  0
  2  3  1  0
  3  4  1  0
  4  5  1  0
  5  6  1  0
  6  7  1  0
  7  8  1  0
  6  9  1  0
  9  4  1  0
  1 10  1  0
  1 11  1  0
  1 12  1  0
  2 13  1  0
  2 14  1  0
  3 15  1  0
  3 16  1  0
  4 17  1  0
  5 18  1  0
  5 19  1  0
  6 20  1  0
  7 21  1  0
  7 22  1  0
  8 23  1  0
  8 24  1  0
  8 25  1  0
M  END
