
     RDKit          3D

 20 20  0  0  0  0  0  0  0  0999 V2000
    2.3216    0.5234   -0.9068 C   0  0  0  0  0  0  0  0  0  0  0  0
    1.7809   -0.3751    0.1761 C   0  0  0  0  0  0  0  0  0  0  0  0
    0.3922   -0.8900   -0.1995 C   0  0  0  0  0  0  0  0  0  0  0  0
   -0.5913    0.2099   -0.3949 C   0  0  0  0  0  0  0  0  0  0  0  0
   -1.9683   -0.1769   -0.7614 C   0  0  0  0  0  0  0  0  0  0  0  0
   -2.4232   -1.4783   -0.6111 O   0  0  0  0  0  0  0  0  0  0  0  0
   -1.6595    0.5081    0.5687 C   0  0  0  0  0  0  0  0  0  0  0  0
   -2.1877    1.7800    0.6821 O   0  0  0  0  0  0  0  0  0  0  0  0
    1.8454    0.3478   -1.8957 H   0  0  0  0  0  0  0  0  0  0  0  0
    2.1788    1.5981   -0.6530 H   0  0  0  0  0  0  0  0  0  0  0  0
    3.4200    0.3733   -1.0431 H   0  0  0  0  0  0  0  0  0  0  0  0
    1.8097    0.0821    1.1661 H   0  0  0  0  0  0  0  0  0  0  0  0
    2.4401   -1.2824    0.2182 H   0  0  0  0  0  0  0  0  0  0  0  0
    0.0598   -1.6686    0.5147 H   0  0  0  0  0  0  0  0  0  0  0  0
    0.5429   -1.4396   -1.1748 H   0  0  0  0  0  0  0  0  0  0  0  0
   -0.1744    1.0990   -0.9319 H   0  0  0  0  0  0  0  0  0  0  0  0
   -2.4785    0.3874   -1.5474 H   0  0  0  0  0  0  0  0  0  0  0  0
   -2.0602   -1.9345    0.1860 H   0  0  0  0  0  0  0  0  0  0  0  0
   -1.6727   -0.0961    1.4910 H   0  0  0  0  0  0  0  0  0  0  0  0
   -1.5758    2.4323    1.0912 H   0  0  0  0  0  0  0  0  0  0  0  0
  1  2  1  0
  2  3  1  0
  3  4  1  0
  4  5  1  0
  5  6  1  0
  5  7  1  0
  7  8  1  0
  7  4  1  0
  1  9  1  0
  1 10  1  0
  1 11  1  0
  2 12  1  0
  2 13  1  0
  3 14  1  0
  3 15  1  0
  4 16  1  0
  5 17  1  0
  6 18  1  0
  7 19  1  0
  8 20  1  0
M  END
