
     RDKit          3D

 23 23  0  0  0  0  0  0  0  0999 V2000
    3.1441   -0.1016   -0.3027 C   0  0  0  0  0  0  0  0  0  0  0  0
    1.7747    0.5204   -0.4742 C   0  0  0  0  0  0  0  0  0  0  0  0
    0.7931   -0.2481    0.3715 C   0  0  0  0  0  0  0  0  0  0  0  0
   -0.6023    0.2744    0.2857 C   0  0  0  0  0  0  0  0  0  0  0  0
   -0.7618    1.5748    0.6824 O   0  0  0  0  0  0  0  0  0  0  0  0
   -1.4370   -0.5915    1.2360 C   0  0  0  0  0  0  0  0  0  0  0  0
   -2.7718   -0.5081    0.6418 C   0  0  0  0  0  0  0  0  0  0  0  0
   -2.6843   -0.1926   -0.6454 C   0  0  0  0  0  0  0  0  0  0  0  0
   -1.2651   -0.0308   -1.0481 C   0  0  0  0  0  0  0  0  0  0  0  0
    3.8053    0.5699    0.3129 H   0  0  0  0  0  0  0  0  0  0  0  0
    3.0780   -1.0593    0.2826 H   0  0  0  0  0  0  0  0  0  0  0  0
    3.6389   -0.2945   -1.2738 H   0  0  0  0  0  0  0  0  0  0  0  0
    1.7985    1.5900   -0.2406 H   0  0  0  0  0  0  0  0  0  0  0  0
    1.5166    0.4242   -1.5502 H   0  0  0  0  0  0  0  0  0  0  0  0
    0.7778   -1.3139    0.0741 H   0  0  0  0  0  0  0  0  0  0  0  0
    1.1150   -0.1957    1.4275 H   0  0  0  0  0  0  0  0  0  0  0  0
   -0.3110    2.2480    0.1456 H   0  0  0  0  0  0  0  0  0  0  0  0
   -1.0423   -1.6416    1.2580 H   0  0  0  0  0  0  0  0  0  0  0  0
   -1.3375   -0.1417    2.2324 H   0  0  0  0  0  0  0  0  0  0  0  0
   -3.7064   -0.6769    1.1645 H   0  0  0  0  0  0  0  0  0  0  0  0
   -3.5470   -0.0725   -1.3027 H   0  0  0  0  0  0  0  0  0  0  0  0
   -1.1377    0.8001   -1.7754 H   0  0  0  0  0  0  0  0  0  0  0  0
   -0.8379   -0.9329   -1.5019 H   0  0  0  0  0  0  0  0  0  0  0  0
  1  2  1  0
  2  3  1  0
  3  4  1  0
  4  5  1  0
  4  6  1  0
  6  7  1  0
  7  8  2  0
  8  9  1  0
  9  4  1  0
  1 10  1  0
  1 11  1  0
  1 12  1  0
  2 13  1  0
  2 14  1  0
  3 15  1  0
  3 16  1  0
  5 17  1  0
  6 18  1  0
  6 19  1  0
  7 20  1  0
  8 21  1  0
  9 22  1  0
  9 23  1  0
M  END
