
     RDKit          3D

 21 21  0  0  0  0  0  0  0  0999 V2000
    2.9189    0.1603    0.8790 C   0  0  0  0  0  0  0  0  0  0  0  0
    2.3784    0.0011   -0.5005 C   0  0  0  0  0  0  0  0  0  0  0  0
    0.9481   -0.4893   -0.5335 C   0  0  0  0  0  0  0  0  0  0  0  0
    0.0859    0.3884    0.1228 O   0  0  0  0  0  0  0  0  0  0  0  0
   -1.1758   -0.1284    0.0451 C   0  0  0  0  0  0  0  0  0  0  0  0
   -2.2775    0.8061   -0.3783 C   0  0  0  0  0  0  0  0  0  0  0  0
   -3.1686    0.0270    0.5396 C   0  0  0  0  0  0  0  0  0  0  0  0
   -4.3507   -0.2640    0.5491 O   0  0  0  0  0  0  0  0  0  0  0  0
   -1.9436   -0.1885    1.3711 C   0  0  0  0  0  0  0  0  0  0  0  0
    2.5786   -0.6549    1.5387 H   0  0  0  0  0  0  0  0  0  0  0  0
    2.6972    1.1694    1.3107 H   0  0  0  0  0  0  0  0  0  0  0  0
    4.0390    0.0421    0.8151 H   0  0  0  0  0  0  0  0  0  0  0  0
    2.4032    0.9531   -1.0673 H   0  0  0  0  0  0  0  0  0  0  0  0
    2.9869   -0.7916   -1.0089 H   0  0  0  0  0  0  0  0  0  0  0  0
    0.8408   -1.5175   -0.1381 H   0  0  0  0  0  0  0  0  0  0  0  0
    0.6845   -0.5701   -1.6291 H   0  0  0  0  0  0  0  0  0  0  0  0
   -1.2652   -1.0847   -0.4904 H   0  0  0  0  0  0  0  0  0  0  0  0
   -2.5552    0.7818   -1.4377 H   0  0  0  0  0  0  0  0  0  0  0  0
   -2.2102    1.8411   -0.0193 H   0  0  0  0  0  0  0  0  0  0  0  0
   -1.7562    0.6925    1.9826 H   0  0  0  0  0  0  0  0  0  0  0  0
   -1.8587   -1.1739    1.8444 H   0  0  0  0  0  0  0  0  0  0  0  0
  1  2  1  0
  2  3  1  0
  3  4  1  0
  4  5  1  0
  5  6  1  0
  6  7  1  0
  7  8  2  0
  7  9  1  0
  9  5  1  0
  1 10  1  0
  1 11  1  0
  1 12  1  0
  2 13  1  0
  2 14  1  0
  3 15  1  0
  3 16  1  0
  5 17  1  0
  6 18  1  0
  6 19  1  0
  9 20  1  0
  9 21  1  0
M  END
