
     RDKit          3D

 19 18  0  0  0  0  0  0  0  0999 V2000
   -2.1800    1.0400   -0.0266 C   0  0  0  0  0  0  0  0  0  0  0  0
   -2.0802   -0.3761   -0.5568 C   0  0  0  0  0  0  0  0  0  0  0  0
   -1.0127   -1.1002    0.2543 C   0  0  0  0  0  0  0  0  0  0  0  0
    0.1919   -0.3711    0.0552 O   0  0  0  0  0  0  0  0  0  0  0  0
    1.3543   -0.7858    0.6678 C   0  0  0  0  0  0  0  0  0  0  0  0
    1.3853   -1.8011    1.4070 O   0  0  0  0  0  0  0  0  0  0  0  0
    2.6336   -0.0526    0.4855 C   0  0  0  0  0  0  0  0  0  0  0  0
    2.4645    1.1205   -0.4141 C   0  0  0  0  0  0  0  0  0  0  0  0
    1.9613    2.1508    0.0238 O   0  0  0  0  0  0  0  0  0  0  0  0
   -1.4531    1.2197    0.7798 H   0  0  0  0  0  0  0  0  0  0  0  0
   -3.1858    1.1250    0.4422 H   0  0  0  0  0  0  0  0  0  0  0  0
   -2.0457    1.7316   -0.8814 H   0  0  0  0  0  0  0  0  0  0  0  0
   -1.8227   -0.4122   -1.6300 H   0  0  0  0  0  0  0  0  0  0  0  0
   -3.0310   -0.9426   -0.4417 H   0  0  0  0  0  0  0  0  0  0  0  0
   -1.3363   -1.0383    1.3343 H   0  0  0  0  0  0  0  0  0  0  0  0
   -0.9570   -2.1315   -0.0967 H   0  0  0  0  0  0  0  0  0  0  0  0
    2.9714    0.2859    1.4936 H   0  0  0  0  0  0  0  0  0  0  0  0
    3.3671   -0.7440    0.0315 H   0  0  0  0  0  0  0  0  0  0  0  0
    2.7750    1.0818   -1.4410 H   0  0  0  0  0  0  0  0  0  0  0  0
  1  2  1  0
  2  3  1  0
  3  4  1  0
  4  5  1  0
  5  6  2  0
  5  7  1  0
  7  8  1  0
  8  9  2  0
  1 10  1  0
  1 11  1  0
  1 12  1  0
  2 13  1  0
  2 14  1  0
  3 15  1  0
  3 16  1  0
  7 17  1  0
  7 18  1  0
  8 19  1  0
M  END
