
     RDKit          3D

 23 23  0  0  0  0  0  0  0  0999 V2000
    3.5703    0.1361   -0.0595 C   0  0  0  0  0  0  0  0  0  0  0  0
    2.0889    0.4137    0.0948 C   0  0  0  0  0  0  0  0  0  0  0  0
    1.4192    0.1313   -1.2180 C   0  0  0  0  0  0  0  0  0  0  0  0
    0.0612    0.3438   -1.2198 O   0  0  0  0  0  0  0  0  0  0  0  0
   -0.6366   -0.4241   -0.3155 C   0  0  0  0  0  0  0  0  0  0  0  0
   -2.1077   -0.1000   -0.4153 C   0  0  0  0  0  0  0  0  0  0  0  0
   -2.8791   -0.9569    0.5927 C   0  0  0  0  0  0  0  0  0  0  0  0
   -2.4666   -0.0352    1.5615 O   0  0  0  0  0  0  0  0  0  0  0  0
   -2.5970    0.9434    0.5658 C   0  0  0  0  0  0  0  0  0  0  0  0
    3.6700   -0.8997   -0.4279 H   0  0  0  0  0  0  0  0  0  0  0  0
    3.9938    0.8061   -0.8346 H   0  0  0  0  0  0  0  0  0  0  0  0
    4.0828    0.2453    0.9114 H   0  0  0  0  0  0  0  0  0  0  0  0
    1.7193   -0.2981    0.8638 H   0  0  0  0  0  0  0  0  0  0  0  0
    1.8990    1.4531    0.3953 H   0  0  0  0  0  0  0  0  0  0  0  0
    1.8642    0.8199   -1.9709 H   0  0  0  0  0  0  0  0  0  0  0  0
    1.6547   -0.9393   -1.4757 H   0  0  0  0  0  0  0  0  0  0  0  0
   -0.3092   -0.1559    0.7179 H   0  0  0  0  0  0  0  0  0  0  0  0
   -0.4341   -1.5090   -0.4477 H   0  0  0  0  0  0  0  0  0  0  0  0
   -2.5294   -0.0622   -1.4150 H   0  0  0  0  0  0  0  0  0  0  0  0
   -2.4481   -1.9651    0.7399 H   0  0  0  0  0  0  0  0  0  0  0  0
   -3.9745   -0.9034    0.4841 H   0  0  0  0  0  0  0  0  0  0  0  0
   -1.9656    1.8275    0.6796 H   0  0  0  0  0  0  0  0  0  0  0  0
   -3.6753    1.1287    0.3973 H   0  0  0  0  0  0  0  0  0  0  0  0
  1  2  1  0
  2  3  1  0
  3  4  1  0
  4  5  1  0
  5  6  1  0
  6  7  1  0
  7  8  1  0
  8  9  1  0
  9  6  1  0
  1 10  1  0
  1 11  1  0
  1 12  1  0
  2 13  1  0
  2 14  1  0
  3 15  1  0
  3 16  1  0
  5 17  1  0
  5 18  1  0
  6 19  1  0
  7 20  1  0
  7 21  1  0
  9 22  1  0
  9 23  1  0
M  END
