
     RDKit          3D

 25 25  0  0  0  0  0  0  0  0999 V2000
    3.4660   -0.2420    0.5935 C   0  0  0  0  0  0  0  0  0  0  0  0
    2.0220   -0.4045    0.1365 C   0  0  0  0  0  0  0  0  0  0  0  0
    1.6362    0.7395   -0.7823 C   0  0  0  0  0  0  0  0  0  0  0  0
    0.3479    0.6117   -1.2016 O   0  0  0  0  0  0  0  0  0  0  0  0
   -0.6418    0.5927   -0.3083 C   0  0  0  0  0  0  0  0  0  0  0  0
   -1.9019    1.3321   -0.5019 C   0  0  0  0  0  0  0  0  0  0  0  0
   -2.4986    0.0851   -1.1543 C   0  0  0  0  0  0  0  0  0  0  0  0
   -1.4504   -0.7122   -0.3801 C   0  0  0  0  0  0  0  0  0  0  0  0
   -2.0148   -1.1468    0.9385 C   0  0  0  0  0  0  0  0  0  0  0  0
    3.5581    0.5204    1.3803 H   0  0  0  0  0  0  0  0  0  0  0  0
    4.0579    0.1020   -0.2723 H   0  0  0  0  0  0  0  0  0  0  0  0
    3.8832   -1.2060    0.9457 H   0  0  0  0  0  0  0  0  0  0  0  0
    1.9419   -1.3655   -0.4318 H   0  0  0  0  0  0  0  0  0  0  0  0
    1.3887   -0.4545    1.0427 H   0  0  0  0  0  0  0  0  0  0  0  0
    1.8760    1.6566   -0.2302 H   0  0  0  0  0  0  0  0  0  0  0  0
    2.3009    0.6495   -1.6782 H   0  0  0  0  0  0  0  0  0  0  0  0
   -0.2735    0.6897    0.7411 H   0  0  0  0  0  0  0  0  0  0  0  0
   -1.9424    2.1923   -1.1597 H   0  0  0  0  0  0  0  0  0  0  0  0
   -2.4369    1.5460    0.4455 H   0  0  0  0  0  0  0  0  0  0  0  0
   -3.5412   -0.1098   -0.8543 H   0  0  0  0  0  0  0  0  0  0  0  0
   -2.3677    0.0380   -2.2528 H   0  0  0  0  0  0  0  0  0  0  0  0
   -0.9983   -1.4821   -1.0121 H   0  0  0  0  0  0  0  0  0  0  0  0
   -1.9123   -2.2181    1.1472 H   0  0  0  0  0  0  0  0  0  0  0  0
   -1.4275   -0.6201    1.7422 H   0  0  0  0  0  0  0  0  0  0  0  0
   -3.0714   -0.7938    1.0952 H   0  0  0  0  0  0  0  0  0  0  0  0
  1  2  1  0
  2  3  1  0
  3  4  1  0
  4  5  1  0
  5  6  1  0
  6  7  1  0
  7  8  1  0
  8  9  1  0
  8  5  1  0
  1 10  1  0
  1 11  1  0
  1 12  1  0
  2 13  1  0
  2 14  1  0
  3 15  1  0
  3 16  1  0
  5 17  1  0
  6 18  1  0
  6 19  1  0
  7 20  1  0
  7 21  1  0
  8 22  1  0
  9 23  1  0
  9 24  1  0
  9 25  1  0
M  END
