
     RDKit          3D

 22 22  0  0  0  0  0  0  0  0999 V2000
    2.9746    0.7529   -0.8908 C   0  0  0  0  0  0  0  0  0  0  0  0
    2.5743   -0.3693    0.0138 C   0  0  0  0  0  0  0  0  0  0  0  0
    1.1506   -0.2395    0.5014 C   0  0  0  0  0  0  0  0  0  0  0  0
    0.2361   -0.2328   -0.5524 O   0  0  0  0  0  0  0  0  0  0  0  0
   -1.0112   -0.1115    0.0094 C   0  0  0  0  0  0  0  0  0  0  0  0
   -1.9247    0.9197   -0.6097 C   0  0  0  0  0  0  0  0  0  0  0  0
   -3.0592   -0.0349   -0.2038 C   0  0  0  0  0  0  0  0  0  0  0  0
   -2.0352   -1.1489   -0.4619 C   0  0  0  0  0  0  0  0  0  0  0  0
    2.1747    1.4640   -1.1136 H   0  0  0  0  0  0  0  0  0  0  0  0
    3.3250    0.2903   -1.8503 H   0  0  0  0  0  0  0  0  0  0  0  0
    3.8831    1.2988   -0.5033 H   0  0  0  0  0  0  0  0  0  0  0  0
    3.2232   -0.3337    0.9144 H   0  0  0  0  0  0  0  0  0  0  0  0
    2.7093   -1.3755   -0.4321 H   0  0  0  0  0  0  0  0  0  0  0  0
    1.0448    0.7140    1.0880 H   0  0  0  0  0  0  0  0  0  0  0  0
    0.9109   -1.0706    1.1916 H   0  0  0  0  0  0  0  0  0  0  0  0
   -1.0607   -0.0465    1.1056 H   0  0  0  0  0  0  0  0  0  0  0  0
   -1.9718    1.8852   -0.1113 H   0  0  0  0  0  0  0  0  0  0  0  0
   -1.9108    0.9534   -1.7244 H   0  0  0  0  0  0  0  0  0  0  0  0
   -3.9164   -0.0277   -0.8647 H   0  0  0  0  0  0  0  0  0  0  0  0
   -3.2165    0.0478    0.8767 H   0  0  0  0  0  0  0  0  0  0  0  0
   -2.1025   -1.9953    0.2147 H   0  0  0  0  0  0  0  0  0  0  0  0
   -1.9975   -1.3400   -1.5374 H   0  0  0  0  0  0  0  0  0  0  0  0
  1  2  1  0
  2  3  1  0
  3  4  1  0
  4  5  1  0
  5  6  1  0
  6  7  1  0
  7  8  1  0
  8  5  1  0
  1  9  1  0
  1 10  1  0
  1 11  1  0
  2 12  1  0
  2 13  1  0
  3 14  1  0
  3 15  1  0
  5 16  1  0
  6 17  1  0
  6 18  1  0
  7 19  1  0
  7 20  1  0
  8 21  1  0
  8 22  1  0
M  END
