
     RDKit          3D

 23 22  0  0  0  0  0  0  0  0999 V2000
    2.9248   -0.1990    1.3765 C   0  0  0  0  0  0  0  0  0  0  0  0
    2.7426   -0.1329   -0.1133 C   0  0  0  0  0  0  0  0  0  0  0  0
    1.3450    0.2988   -0.4955 C   0  0  0  0  0  0  0  0  0  0  0  0
    0.3769   -0.5782   -0.0093 O   0  0  0  0  0  0  0  0  0  0  0  0
   -0.8631   -0.0944   -0.4129 C   0  0  0  0  0  0  0  0  0  0  0  0
   -1.5830   -1.1253   -1.2175 C   0  0  0  0  0  0  0  0  0  0  0  0
   -2.6785   -0.9399   -1.6794 O   0  0  0  0  0  0  0  0  0  0  0  0
   -1.7483    0.1725    0.8103 C   0  0  0  0  0  0  0  0  0  0  0  0
   -3.0793    0.6947    0.3210 C   0  0  0  0  0  0  0  0  0  0  0  0
    2.2226   -0.9009    1.8603 H   0  0  0  0  0  0  0  0  0  0  0  0
    3.9478   -0.5974    1.5653 H   0  0  0  0  0  0  0  0  0  0  0  0
    2.8244    0.8296    1.7822 H   0  0  0  0  0  0  0  0  0  0  0  0
    3.4396    0.6350   -0.5104 H   0  0  0  0  0  0  0  0  0  0  0  0
    2.9590   -1.1085   -0.5921 H   0  0  0  0  0  0  0  0  0  0  0  0
    1.1483    1.3470   -0.2070 H   0  0  0  0  0  0  0  0  0  0  0  0
    1.2717    0.2563   -1.6047 H   0  0  0  0  0  0  0  0  0  0  0  0
   -0.7703    0.8498   -1.0089 H   0  0  0  0  0  0  0  0  0  0  0  0
   -1.1031   -2.0753   -1.3927 H   0  0  0  0  0  0  0  0  0  0  0  0
   -1.8700   -0.7773    1.3605 H   0  0  0  0  0  0  0  0  0  0  0  0
   -1.2852    0.9553    1.4588 H   0  0  0  0  0  0  0  0  0  0  0  0
   -3.7659   -0.1868    0.2476 H   0  0  0  0  0  0  0  0  0  0  0  0
   -2.9637    1.2192   -0.6511 H   0  0  0  0  0  0  0  0  0  0  0  0
   -3.4922    1.4578    1.0238 H   0  0  0  0  0  0  0  0  0  0  0  0
  1  2  1  0
  2  3  1  0
  3  4  1  0
  4  5  1  0
  5  6  1  0
  6  7  2  0
  5  8  1  0
  8  9  1  0
  1 10  1  0
  1 11  1  0
  1 12  1  0
  2 13  1  0
  2 14  1  0
  3 15  1  0
  3 16  1  0
  5 17  1  0
  6 18  1  0
  8 19  1  0
  8 20  1  0
  9 21  1  0
  9 22  1  0
  9 23  1  0
M  END
