
     RDKit          3D

 23 23  0  0  0  0  0  0  0  0999 V2000
   -2.4595    0.8751   -0.5206 C   0  0  0  0  0  0  0  0  0  0  0  0
   -2.0088   -0.5775   -0.5818 C   0  0  0  0  0  0  0  0  0  0  0  0
   -1.4066   -0.9560    0.7218 C   0  0  0  0  0  0  0  0  0  0  0  0
   -0.3175   -0.1777    1.0512 O   0  0  0  0  0  0  0  0  0  0  0  0
    0.6968   -0.3355    0.1587 C   0  0  0  0  0  0  0  0  0  0  0  0
    1.1620    0.9628   -0.4608 C   0  0  0  0  0  0  0  0  0  0  0  0
    2.6383    0.7833   -0.5328 C   0  0  0  0  0  0  0  0  0  0  0  0
    3.0196   -0.2390    0.2802 O   0  0  0  0  0  0  0  0  0  0  0  0
    1.9271   -0.7647    0.9183 C   0  0  0  0  0  0  0  0  0  0  0  0
   -1.7813    1.4113    0.1825 H   0  0  0  0  0  0  0  0  0  0  0  0
   -3.4949    0.9594   -0.1186 H   0  0  0  0  0  0  0  0  0  0  0  0
   -2.3328    1.3014   -1.5170 H   0  0  0  0  0  0  0  0  0  0  0  0
   -1.3180   -0.7872   -1.4101 H   0  0  0  0  0  0  0  0  0  0  0  0
   -2.9760   -1.1526   -0.7180 H   0  0  0  0  0  0  0  0  0  0  0  0
   -1.1158   -2.0484    0.6316 H   0  0  0  0  0  0  0  0  0  0  0  0
   -2.1628   -0.9795    1.5575 H   0  0  0  0  0  0  0  0  0  0  0  0
    0.4271   -1.0763   -0.6043 H   0  0  0  0  0  0  0  0  0  0  0  0
    0.8393    1.8481    0.1098 H   0  0  0  0  0  0  0  0  0  0  0  0
    0.7300    1.0419   -1.4764 H   0  0  0  0  0  0  0  0  0  0  0  0
    3.1688    1.7041   -0.2315 H   0  0  0  0  0  0  0  0  0  0  0  0
    2.9488    0.5412   -1.5800 H   0  0  0  0  0  0  0  0  0  0  0  0
    1.8806   -0.4521    1.9848 H   0  0  0  0  0  0  0  0  0  0  0  0
    1.9359   -1.8822    0.9151 H   0  0  0  0  0  0  0  0  0  0  0  0
  1  2  1  0
  2  3  1  0
  3  4  1  0
  4  5  1  0
  5  6  1  0
  6  7  1  0
  7  8  1  0
  8  9  1  0
  9  5  1  0
  1 10  1  0
  1 11  1  0
  1 12  1  0
  2 13  1  0
  2 14  1  0
  3 15  1  0
  3 16  1  0
  5 17  1  0
  6 18  1  0
  6 19  1  0
  7 20  1  0
  7 21  1  0
  9 22  1  0
  9 23  1  0
M  END
