
     RDKit          3D

 17 16  0  0  0  0  0  0  0  0999 V2000
   -1.9740    1.0320    0.6458 C   0  0  0  0  0  0  0  0  0  0  0  0
   -1.6838   -0.3746    0.2664 C   0  0  0  0  0  0  0  0  0  0  0  0
   -0.2737   -0.5930   -0.2346 C   0  0  0  0  0  0  0  0  0  0  0  0
    0.6768   -0.2642    0.6940 O   0  0  0  0  0  0  0  0  0  0  0  0
    1.9619   -0.4600    0.2349 C   0  0  0  0  0  0  0  0  0  0  0  0
    2.3345    0.3780   -0.9286 C   0  0  0  0  0  0  0  0  0  0  0  0
    1.6329    1.2157   -1.4577 O   0  0  0  0  0  0  0  0  0  0  0  0
   -2.4339    1.0521    1.6763 H   0  0  0  0  0  0  0  0  0  0  0  0
   -2.7623    1.5100   -0.0040 H   0  0  0  0  0  0  0  0  0  0  0  0
   -1.1210    1.7142    0.6364 H   0  0  0  0  0  0  0  0  0  0  0  0
   -1.8686   -1.0641    1.0961 H   0  0  0  0  0  0  0  0  0  0  0  0
   -2.3577   -0.6390   -0.5982 H   0  0  0  0  0  0  0  0  0  0  0  0
   -0.1995   -1.7198   -0.3493 H   0  0  0  0  0  0  0  0  0  0  0  0
   -0.1171   -0.2093   -1.2452 H   0  0  0  0  0  0  0  0  0  0  0  0
    2.1322   -1.5282   -0.0852 H   0  0  0  0  0  0  0  0  0  0  0  0
    2.7242   -0.3249    1.0525 H   0  0  0  0  0  0  0  0  0  0  0  0
    3.3290    0.2749   -1.3996 H   0  0  0  0  0  0  0  0  0  0  0  0
  1  2  1  0
  2  3  1  0
  3  4  1  0
  4  5  1  0
  5  6  1  0
  6  7  2  0
  1  8  1  0
  1  9  1  0
  1 10  1  0
  2 11  1  0
  2 12  1  0
  3 13  1  0
  3 14  1  0
  5 15  1  0
  5 16  1  0
  6 17  1  0
M  END
