
     RDKit          3D

 24 23  0  0  0  0  0  0  0  0999 V2000
   -2.8334    0.1025   -0.6242 C   0  0  0  0  0  0  0  0  0  0  0  0
   -2.0330    0.9684    0.2915 C   0  0  0  0  0  0  0  0  0  0  0  0
   -1.2918    0.2219    1.3548 C   0  0  0  0  0  0  0  0  0  0  0  0
   -0.3786   -0.6979    0.9079 O   0  0  0  0  0  0  0  0  0  0  0  0
    0.6295   -0.1654    0.1392 C   0  0  0  0  0  0  0  0  0  0  0  0
    0.5557   -0.7210   -1.2626 C   0  0  0  0  0  0  0  0  0  0  0  0
    2.0031   -0.4028    0.7222 C   0  0  0  0  0  0  0  0  0  0  0  0
    3.0852    0.1901   -0.1388 C   0  0  0  0  0  0  0  0  0  0  0  0
   -2.3020   -0.2880   -1.4916 H   0  0  0  0  0  0  0  0  0  0  0  0
   -3.6647    0.7479   -1.0355 H   0  0  0  0  0  0  0  0  0  0  0  0
   -3.3398   -0.7386   -0.1259 H   0  0  0  0  0  0  0  0  0  0  0  0
   -1.4091    1.6436   -0.3019 H   0  0  0  0  0  0  0  0  0  0  0  0
   -2.7649    1.6323    0.8322 H   0  0  0  0  0  0  0  0  0  0  0  0
   -0.6966    1.0021    1.9193 H   0  0  0  0  0  0  0  0  0  0  0  0
   -1.9988   -0.1743    2.1026 H   0  0  0  0  0  0  0  0  0  0  0  0
    0.4544    0.9272    0.0651 H   0  0  0  0  0  0  0  0  0  0  0  0
   -0.0496   -1.6335   -1.2374 H   0  0  0  0  0  0  0  0  0  0  0  0
    1.5593   -0.8983   -1.7012 H   0  0  0  0  0  0  0  0  0  0  0  0
    0.0383   -0.0079   -1.9366 H   0  0  0  0  0  0  0  0  0  0  0  0
    2.2052   -1.4495    0.9387 H   0  0  0  0  0  0  0  0  0  0  0  0
    2.0351    0.1408    1.7050 H   0  0  0  0  0  0  0  0  0  0  0  0
    3.8235   -0.5706   -0.4712 H   0  0  0  0  0  0  0  0  0  0  0  0
    2.6958    0.6765   -1.0552 H   0  0  0  0  0  0  0  0  0  0  0  0
    3.6773    0.9757    0.4036 H   0  0  0  0  0  0  0  0  0  0  0  0
  1  2  1  0
  2  3  1  0
  3  4  1  0
  4  5  1  0
  5  6  1  0
  5  7  1  0
  7  8  1  0
  1  9  1  0
  1 10  1  0
  1 11  1  0
  2 12  1  0
  2 13  1  0
  3 14  1  0
  3 15  1  0
  5 16  1  0
  6 17  1  0
  6 18  1  0
  6 19  1  0
  7 20  1  0
  7 21  1  0
  8 22  1  0
  8 23  1  0
  8 24  1  0
M  END
