
     RDKit          3D

 22 21  0  0  0  0  0  0  0  0999 V2000
   -3.4624    0.3023   -0.2023 C   0  0  0  0  0  0  0  0  0  0  0  0
   -2.1813    0.1185    0.5927 C   0  0  0  0  0  0  0  0  0  0  0  0
   -0.9676    0.1192   -0.3391 C   0  0  0  0  0  0  0  0  0  0  0  0
    0.1446   -0.0531    0.4747 O   0  0  0  0  0  0  0  0  0  0  0  0
    1.3343   -0.0717   -0.2539 C   0  0  0  0  0  0  0  0  0  0  0  0
    2.1571    1.1106    0.2509 C   0  0  0  0  0  0  0  0  0  0  0  0
    2.0170   -1.3842    0.0922 C   0  0  0  0  0  0  0  0  0  0  0  0
    3.2171   -1.5553   -0.5532 O   0  0  0  0  0  0  0  0  0  0  0  0
   -4.2931    0.2242    0.5144 H   0  0  0  0  0  0  0  0  0  0  0  0
   -3.4948   -0.4623   -0.9966 H   0  0  0  0  0  0  0  0  0  0  0  0
   -3.4131    1.2900   -0.6904 H   0  0  0  0  0  0  0  0  0  0  0  0
   -2.2648   -0.8185    1.1481 H   0  0  0  0  0  0  0  0  0  0  0  0
   -2.1200    0.9470    1.3275 H   0  0  0  0  0  0  0  0  0  0  0  0
   -0.9557    1.0564   -0.9094 H   0  0  0  0  0  0  0  0  0  0  0  0
   -1.0989   -0.7650   -1.0003 H   0  0  0  0  0  0  0  0  0  0  0  0
    1.1755    0.0528   -1.3326 H   0  0  0  0  0  0  0  0  0  0  0  0
    2.1912    1.1102    1.3621 H   0  0  0  0  0  0  0  0  0  0  0  0
    1.6217    2.0273   -0.0738 H   0  0  0  0  0  0  0  0  0  0  0  0
    3.1609    1.1401   -0.1650 H   0  0  0  0  0  0  0  0  0  0  0  0
    1.3178   -2.1934   -0.2014 H   0  0  0  0  0  0  0  0  0  0  0  0
    2.1017   -1.4044    1.1983 H   0  0  0  0  0  0  0  0  0  0  0  0
    3.8128   -0.7907   -0.5367 H   0  0  0  0  0  0  0  0  0  0  0  0
  1  2  1  0
  2  3  1  0
  3  4  1  0
  4  5  1  0
  5  6  1  0
  5  7  1  0
  7  8  1  0
  1  9  1  0
  1 10  1  0
  1 11  1  0
  2 12  1  0
  2 13  1  0
  3 14  1  0
  3 15  1  0
  5 16  1  0
  6 17  1  0
  6 18  1  0
  6 19  1  0
  7 20  1  0
  7 21  1  0
  8 22  1  0
M  END
