
     RDKit          3D

 22 22  0  0  0  0  0  0  0  0999 V2000
    3.3931    0.1279   -0.1588 C   0  0  0  0  0  0  0  0  0  0  0  0
    2.0880    0.3170   -0.8752 C   0  0  0  0  0  0  0  0  0  0  0  0
    0.8912   -0.0174    0.0221 C   0  0  0  0  0  0  0  0  0  0  0  0
   -0.2393    0.1848   -0.7160 O   0  0  0  0  0  0  0  0  0  0  0  0
   -1.4197   -0.0667   -0.0711 C   0  0  0  0  0  0  0  0  0  0  0  0
   -1.5956   -1.4893    0.4333 C   0  0  0  0  0  0  0  0  0  0  0  0
   -2.1237    1.0378    0.6225 C   0  0  0  0  0  0  0  0  0  0  0  0
   -2.6391    0.5746   -0.7323 C   0  0  0  0  0  0  0  0  0  0  0  0
    3.2406   -0.6063    0.6680 H   0  0  0  0  0  0  0  0  0  0  0  0
    3.7291    1.0905    0.2468 H   0  0  0  0  0  0  0  0  0  0  0  0
    4.1143   -0.2999   -0.9089 H   0  0  0  0  0  0  0  0  0  0  0  0
    2.0073   -0.3531   -1.7519 H   0  0  0  0  0  0  0  0  0  0  0  0
    2.0412    1.3708   -1.2211 H   0  0  0  0  0  0  0  0  0  0  0  0
    0.8954    0.7375    0.8503 H   0  0  0  0  0  0  0  0  0  0  0  0
    1.0276   -1.0102    0.4406 H   0  0  0  0  0  0  0  0  0  0  0  0
   -0.6953   -2.0862    0.2517 H   0  0  0  0  0  0  0  0  0  0  0  0
   -2.4372   -1.9620   -0.1105 H   0  0  0  0  0  0  0  0  0  0  0  0
   -1.8592   -1.5090    1.5177 H   0  0  0  0  0  0  0  0  0  0  0  0
   -2.8211    0.7862    1.4516 H   0  0  0  0  0  0  0  0  0  0  0  0
   -1.5871    2.0116    0.6373 H   0  0  0  0  0  0  0  0  0  0  0  0
   -3.5357   -0.0666   -0.7728 H   0  0  0  0  0  0  0  0  0  0  0  0
   -2.4747    1.2277   -1.6144 H   0  0  0  0  0  0  0  0  0  0  0  0
  1  2  1  0
  2  3  1  0
  3  4  1  0
  4  5  1  0
  5  6  1  0
  5  7  1  0
  7  8  1  0
  8  5  1  0
  1  9  1  0
  1 10  1  0
  1 11  1  0
  2 12  1  0
  2 13  1  0
  3 14  1  0
  3 15  1  0
  6 16  1  0
  6 17  1  0
  6 18  1  0
  7 19  1  0
  7 20  1  0
  8 21  1  0
  8 22  1  0
M  END
