
     RDKit          3D

 22 21  0  0  0  0  0  0  0  0999 V2000
   -2.9546   -0.7007   -0.0085 C   0  0  0  0  0  0  0  0  0  0  0  0
   -1.6685   -0.4461    0.7282 C   0  0  0  0  0  0  0  0  0  0  0  0
   -1.2227    0.9919    0.5927 C   0  0  0  0  0  0  0  0  0  0  0  0
   -0.0543    1.2596    1.2513 O   0  0  0  0  0  0  0  0  0  0  0  0
    1.0279    0.5303    0.8404 C   0  0  0  0  0  0  0  0  0  0  0  0
    1.3767    0.7251   -0.6135 C   0  0  0  0  0  0  0  0  0  0  0  0
    2.5882   -0.1403   -0.9230 C   0  0  0  0  0  0  0  0  0  0  0  0
    2.3017   -1.4861   -0.6817 O   0  0  0  0  0  0  0  0  0  0  0  0
   -3.1646    0.0864   -0.7683 H   0  0  0  0  0  0  0  0  0  0  0  0
   -2.9361   -1.6690   -0.5630 H   0  0  0  0  0  0  0  0  0  0  0  0
   -3.8320   -0.7201    0.6670 H   0  0  0  0  0  0  0  0  0  0  0  0
   -1.8142   -0.7142    1.7971 H   0  0  0  0  0  0  0  0  0  0  0  0
   -0.9032   -1.1355    0.2746 H   0  0  0  0  0  0  0  0  0  0  0  0
   -1.2303    1.2465   -0.4727 H   0  0  0  0  0  0  0  0  0  0  0  0
   -2.0244    1.6149    1.0708 H   0  0  0  0  0  0  0  0  0  0  0  0
    1.9086    0.8705    1.4436 H   0  0  0  0  0  0  0  0  0  0  0  0
    0.9245   -0.5520    1.0201 H   0  0  0  0  0  0  0  0  0  0  0  0
    1.6236    1.7564   -0.8795 H   0  0  0  0  0  0  0  0  0  0  0  0
    0.5417    0.3113   -1.2444 H   0  0  0  0  0  0  0  0  0  0  0  0
    3.4199    0.1327   -0.2435 H   0  0  0  0  0  0  0  0  0  0  0  0
    2.9308   -0.0165   -1.9609 H   0  0  0  0  0  0  0  0  0  0  0  0
    3.1613   -1.9452   -0.5643 H   0  0  0  0  0  0  0  0  0  0  0  0
  1  2  1  0
  2  3  1  0
  3  4  1  0
  4  5  1  0
  5  6  1  0
  6  7  1  0
  7  8  1  0
  1  9  1  0
  1 10  1  0
  1 11  1  0
  2 12  1  0
  2 13  1  0
  3 14  1  0
  3 15  1  0
  5 16  1  0
  5 17  1  0
  6 18  1  0
  6 19  1  0
  7 20  1  0
  7 21  1  0
  8 22  1  0
M  END
