
     RDKit          3D

 25 25  0  0  0  0  0  0  0  0999 V2000
    3.8705    0.5572   -0.1170 C   0  0  0  0  0  0  0  0  0  0  0  0
    2.6412    0.5881    0.7618 C   0  0  0  0  0  0  0  0  0  0  0  0
    1.4513    0.2245   -0.0925 C   0  0  0  0  0  0  0  0  0  0  0  0
    0.2750    0.2327    0.6560 O   0  0  0  0  0  0  0  0  0  0  0  0
   -0.7628   -0.1152   -0.2230 C   0  0  0  0  0  0  0  0  0  0  0  0
   -1.8504    0.9091   -0.2453 C   0  0  0  0  0  0  0  0  0  0  0  0
   -3.1053    0.0897   -0.1157 C   0  0  0  0  0  0  0  0  0  0  0  0
   -2.6453   -0.9395    0.9255 C   0  0  0  0  0  0  0  0  0  0  0  0
   -1.3485   -1.4046    0.2851 C   0  0  0  0  0  0  0  0  0  0  0  0
    4.7806    0.2682    0.4476 H   0  0  0  0  0  0  0  0  0  0  0  0
    3.6929   -0.2228   -0.8873 H   0  0  0  0  0  0  0  0  0  0  0  0
    3.9997    1.5340   -0.6280 H   0  0  0  0  0  0  0  0  0  0  0  0
    2.7724   -0.1956    1.5345 H   0  0  0  0  0  0  0  0  0  0  0  0
    2.5087    1.5506    1.2828 H   0  0  0  0  0  0  0  0  0  0  0  0
    1.3832    0.8726   -0.9909 H   0  0  0  0  0  0  0  0  0  0  0  0
    1.6512   -0.8219   -0.4657 H   0  0  0  0  0  0  0  0  0  0  0  0
   -0.3996   -0.3012   -1.2499 H   0  0  0  0  0  0  0  0  0  0  0  0
   -1.7532    1.6826    0.5419 H   0  0  0  0  0  0  0  0  0  0  0  0
   -1.8265    1.4450   -1.2352 H   0  0  0  0  0  0  0  0  0  0  0  0
   -3.2611   -0.4593   -1.0539 H   0  0  0  0  0  0  0  0  0  0  0  0
   -3.9716    0.6577    0.2398 H   0  0  0  0  0  0  0  0  0  0  0  0
   -3.3714   -1.7365    1.0706 H   0  0  0  0  0  0  0  0  0  0  0  0
   -2.3756   -0.3974    1.8462 H   0  0  0  0  0  0  0  0  0  0  0  0
   -0.6963   -1.9484    0.9704 H   0  0  0  0  0  0  0  0  0  0  0  0
   -1.6589   -2.0696   -0.5677 H   0  0  0  0  0  0  0  0  0  0  0  0
  1  2  1  0
  2  3  1  0
  3  4  1  0
  4  5  1  0
  5  6  1  0
  6  7  1  0
  7  8  1  0
  8  9  1  0
  9  5  1  0
  1 10  1  0
  1 11  1  0
  1 12  1  0
  2 13  1  0
  2 14  1  0
  3 15  1  0
  3 16  1  0
  5 17  1  0
  6 18  1  0
  6 19  1  0
  7 20  1  0
  7 21  1  0
  8 22  1  0
  8 23  1  0
  9 24  1  0
  9 25  1  0
M  END
