
     RDKit          3D

 20 20  0  0  0  0  0  0  0  0999 V2000
   -2.4486   -0.4103    0.7157 C   0  0  0  0  0  0  0  0  0  0  0  0
   -1.8406    0.8429    0.1226 C   0  0  0  0  0  0  0  0  0  0  0  0
   -1.0891    0.5236   -1.1293 C   0  0  0  0  0  0  0  0  0  0  0  0
   -0.0794   -0.3841   -0.9095 O   0  0  0  0  0  0  0  0  0  0  0  0
    0.8345    0.1029   -0.0081 C   0  0  0  0  0  0  0  0  0  0  0  0
    1.9617   -0.9053    0.1871 C   0  0  0  0  0  0  0  0  0  0  0  0
    3.3132   -0.3960    0.0189 C   0  0  0  0  0  0  0  0  0  0  0  0
    2.6504   -1.1889   -0.9955 O   0  0  0  0  0  0  0  0  0  0  0  0
   -2.2918   -0.4169    1.8262 H   0  0  0  0  0  0  0  0  0  0  0  0
   -1.9188   -1.2904    0.2541 H   0  0  0  0  0  0  0  0  0  0  0  0
   -3.5294   -0.4686    0.5460 H   0  0  0  0  0  0  0  0  0  0  0  0
   -1.2554    1.4449    0.8275 H   0  0  0  0  0  0  0  0  0  0  0  0
   -2.7220    1.5145   -0.1581 H   0  0  0  0  0  0  0  0  0  0  0  0
   -1.7810    0.1709   -1.9531 H   0  0  0  0  0  0  0  0  0  0  0  0
   -0.6939    1.4947   -1.5509 H   0  0  0  0  0  0  0  0  0  0  0  0
    0.3110    0.2708    0.9815 H   0  0  0  0  0  0  0  0  0  0  0  0
    1.1949    1.0822   -0.3664 H   0  0  0  0  0  0  0  0  0  0  0  0
    1.6989   -1.7344    0.8604 H   0  0  0  0  0  0  0  0  0  0  0  0
    3.4733    0.6641   -0.2586 H   0  0  0  0  0  0  0  0  0  0  0  0
    4.2123   -0.9165    0.3729 H   0  0  0  0  0  0  0  0  0  0  0  0
  1  2  1  0
  2  3  1  0
  3  4  1  0
  4  5  1  0
  5  6  1  0
  6  7  1  0
  7  8  1  0
  8  6  1  0
  1  9  1  0
  1 10  1  0
  1 11  1  0
  2 12  1  0
  2 13  1  0
  3 14  1  0
  3 15  1  0
  5 16  1  0
  5 17  1  0
  6 18  1  0
  7 19  1  0
  7 20  1  0
M  END
