
     RDKit          3D

 23 24  0  0  0  0  0  0  0  0999 V2000
    3.6932    0.0128   -0.1092 C   0  0  0  0  0  0  0  0  0  0  0  0
    2.4723    0.4575    0.6693 C   0  0  0  0  0  0  0  0  0  0  0  0
    1.2639   -0.0141   -0.1050 C   0  0  0  0  0  0  0  0  0  0  0  0
    0.0716    0.3235    0.4916 O   0  0  0  0  0  0  0  0  0  0  0  0
   -0.9532   -0.1521   -0.2932 C   0  0  0  0  0  0  0  0  0  0  0  0
   -2.1527    0.7481   -0.4185 C   0  0  0  0  0  0  0  0  0  0  0  0
   -2.4262    0.4027    1.0224 C   0  0  0  0  0  0  0  0  0  0  0  0
   -2.0448   -0.9090    0.4090 C   0  0  0  0  0  0  0  0  0  0  0  0
   -2.9108   -0.5015   -0.7593 C   0  0  0  0  0  0  0  0  0  0  0  0
    4.4554    0.8208   -0.1645 H   0  0  0  0  0  0  0  0  0  0  0  0
    3.4323   -0.2324   -1.1567 H   0  0  0  0  0  0  0  0  0  0  0  0
    4.1412   -0.9206    0.3274 H   0  0  0  0  0  0  0  0  0  0  0  0
    2.5038    1.5594    0.7393 H   0  0  0  0  0  0  0  0  0  0  0  0
    2.5093    0.0537    1.6845 H   0  0  0  0  0  0  0  0  0  0  0  0
    1.3057   -1.1111   -0.2273 H   0  0  0  0  0  0  0  0  0  0  0  0
    1.2984    0.4689   -1.1045 H   0  0  0  0  0  0  0  0  0  0  0  0
   -0.6534   -0.6919   -1.2141 H   0  0  0  0  0  0  0  0  0  0  0  0
   -2.2049    1.6425   -0.8522 H   0  0  0  0  0  0  0  0  0  0  0  0
   -3.5160    0.4389    1.2659 H   0  0  0  0  0  0  0  0  0  0  0  0
   -1.7528    0.8352    1.7622 H   0  0  0  0  0  0  0  0  0  0  0  0
   -1.9936   -1.8075    0.8370 H   0  0  0  0  0  0  0  0  0  0  0  0
   -2.5506   -0.9371   -1.7163 H   0  0  0  0  0  0  0  0  0  0  0  0
   -3.9882   -0.4867   -0.5925 H   0  0  0  0  0  0  0  0  0  0  0  0
  1  2  1  0
  2  3  1  0
  3  4  1  0
  4  5  1  0
  5  6  1  0
  6  7  1  0
  7  8  1  0
  8  9  1  0
  8  5  1  0
  9  6  1  0
  1 10  1  0
  1 11  1  0
  1 12  1  0
  2 13  1  0
  2 14  1  0
  3 15  1  0
  3 16  1  0
  5 17  1  0
  6 18  1  0
  7 19  1  0
  7 20  1  0
  8 21  1  0
  9 22  1  0
  9 23  1  0
M  END
