
     RDKit          3D

 23 23  0  0  0  0  0  0  0  0999 V2000
   -1.8329   -1.4584   -0.6442 C   0  0  0  0  0  0  0  0  0  0  0  0
   -2.3114   -0.1769   -0.0211 C   0  0  0  0  0  0  0  0  0  0  0  0
   -1.7122    0.0602    1.3432 C   0  0  0  0  0  0  0  0  0  0  0  0
   -0.3438    0.1398    1.3307 O   0  0  0  0  0  0  0  0  0  0  0  0
    0.1811    1.1409    0.5581 C   0  0  0  0  0  0  0  0  0  0  0  0
    1.4705    1.7908    0.9179 C   0  0  0  0  0  0  0  0  0  0  0  0
    1.4714    0.7632   -0.1734 C   0  0  0  0  0  0  0  0  0  0  0  0
    2.0883   -0.4252    0.1432 O   0  0  0  0  0  0  0  0  0  0  0  0
    2.6624   -0.9761   -1.0093 C   0  0  0  0  0  0  0  0  0  0  0  0
   -2.6500   -1.8924   -1.2772 H   0  0  0  0  0  0  0  0  0  0  0  0
   -1.4769   -2.1583    0.1310 H   0  0  0  0  0  0  0  0  0  0  0  0
   -0.9845   -1.2921   -1.3514 H   0  0  0  0  0  0  0  0  0  0  0  0
   -3.4187   -0.2209    0.0256 H   0  0  0  0  0  0  0  0  0  0  0  0
   -2.0706    0.6655   -0.7063 H   0  0  0  0  0  0  0  0  0  0  0  0
   -2.2055    0.9386    1.7928 H   0  0  0  0  0  0  0  0  0  0  0  0
   -1.9940   -0.8111    1.9736 H   0  0  0  0  0  0  0  0  0  0  0  0
   -0.5361    1.8038    0.0073 H   0  0  0  0  0  0  0  0  0  0  0  0
    1.6603    2.8257    0.5675 H   0  0  0  0  0  0  0  0  0  0  0  0
    1.9710    1.5597    1.8769 H   0  0  0  0  0  0  0  0  0  0  0  0
    1.5095    1.1003   -1.2232 H   0  0  0  0  0  0  0  0  0  0  0  0
    3.4246   -0.2760   -1.4445 H   0  0  0  0  0  0  0  0  0  0  0  0
    3.1795   -1.9316   -0.7683 H   0  0  0  0  0  0  0  0  0  0  0  0
    1.9182   -1.1695   -1.8035 H   0  0  0  0  0  0  0  0  0  0  0  0
  1  2  1  0
  2  3  1  0
  3  4  1  0
  4  5  1  0
  5  6  1  0
  6  7  1  0
  7  8  1  0
  8  9  1  0
  7  5  1  0
  1 10  1  0
  1 11  1  0
  1 12  1  0
  2 13  1  0
  2 14  1  0
  3 15  1  0
  3 16  1  0
  5 17  1  0
  6 18  1  0
  6 19  1  0
  7 20  1  0
  9 21  1  0
  9 22  1  0
  9 23  1  0
M  END
