
     RDKit          3D

 25 25  0  0  0  0  0  0  0  0999 V2000
    3.6587   -0.1108    0.7590 C   0  0  0  0  0  0  0  0  0  0  0  0
    2.7019   -0.8837   -0.1371 C   0  0  0  0  0  0  0  0  0  0  0  0
    1.4899   -0.0675   -0.4637 C   0  0  0  0  0  0  0  0  0  0  0  0
    0.7680    0.3101    0.6456 O   0  0  0  0  0  0  0  0  0  0  0  0
   -0.3549    1.0701    0.3255 C   0  0  0  0  0  0  0  0  0  0  0  0
   -1.2317    0.2211   -0.5652 C   0  0  0  0  0  0  0  0  0  0  0  0
   -1.7582   -1.0863   -0.0480 C   0  0  0  0  0  0  0  0  0  0  0  0
   -2.6810    0.1056   -0.3361 C   0  0  0  0  0  0  0  0  0  0  0  0
   -3.3562    0.6539    0.8841 C   0  0  0  0  0  0  0  0  0  0  0  0
    4.6465   -0.5942    0.7192 H   0  0  0  0  0  0  0  0  0  0  0  0
    3.2844   -0.2196    1.8081 H   0  0  0  0  0  0  0  0  0  0  0  0
    3.7477    0.9438    0.4775 H   0  0  0  0  0  0  0  0  0  0  0  0
    3.2596   -1.1243   -1.0582 H   0  0  0  0  0  0  0  0  0  0  0  0
    2.4617   -1.8269    0.3927 H   0  0  0  0  0  0  0  0  0  0  0  0
    1.8453    0.8291   -1.0328 H   0  0  0  0  0  0  0  0  0  0  0  0
    0.8555   -0.6910   -1.1493 H   0  0  0  0  0  0  0  0  0  0  0  0
   -0.0261    1.9795   -0.2185 H   0  0  0  0  0  0  0  0  0  0  0  0
   -0.8861    1.3432    1.2637 H   0  0  0  0  0  0  0  0  0  0  0  0
   -0.9113    0.2002   -1.6265 H   0  0  0  0  0  0  0  0  0  0  0  0
   -1.5971   -1.3777    1.0011 H   0  0  0  0  0  0  0  0  0  0  0  0
   -1.8819   -1.9526   -0.7336 H   0  0  0  0  0  0  0  0  0  0  0  0
   -3.3602    0.0047   -1.2141 H   0  0  0  0  0  0  0  0  0  0  0  0
   -4.2358    0.0036    1.0940 H   0  0  0  0  0  0  0  0  0  0  0  0
   -2.7123    0.5889    1.7910 H   0  0  0  0  0  0  0  0  0  0  0  0
   -3.7264    1.6808    0.7643 H   0  0  0  0  0  0  0  0  0  0  0  0
  1  2  1  0
  2  3  1  0
  3  4  1  0
  4  5  1  0
  5  6  1  0
  6  7  1  0
  7  8  1  0
  8  9  1  0
  8  6  1  0
  1 10  1  0
  1 11  1  0
  1 12  1  0
  2 13  1  0
  2 14  1  0
  3 15  1  0
  3 16  1  0
  5 17  1  0
  5 18  1  0
  6 19  1  0
  7 20  1  0
  7 21  1  0
  8 22  1  0
  9 23  1  0
  9 24  1  0
  9 25  1  0
M  END
