
     RDKit          3D

 15 14  0  0  0  0  0  0  0  0999 V2000
   -2.0065   -0.1129   -0.6517 C   0  0  0  0  0  0  0  0  0  0  0  0
   -1.0729   -0.4578    0.4522 C   0  0  0  0  0  0  0  0  0  0  0  0
    0.3808   -0.3479    0.0912 C   0  0  0  0  0  0  0  0  0  0  0  0
    0.7650    0.9154   -0.3011 O   0  0  0  0  0  0  0  0  0  0  0  0
    2.1467    0.8082   -0.5935 C   0  0  0  0  0  0  0  0  0  0  0  0
   -1.7431   -0.5606   -1.6254 H   0  0  0  0  0  0  0  0  0  0  0  0
   -3.0239   -0.5127   -0.3626 H   0  0  0  0  0  0  0  0  0  0  0  0
   -2.1308    0.9812   -0.6945 H   0  0  0  0  0  0  0  0  0  0  0  0
   -1.2419   -1.5164    0.7759 H   0  0  0  0  0  0  0  0  0  0  0  0
   -1.2787    0.2050    1.3160 H   0  0  0  0  0  0  0  0  0  0  0  0
    0.6244   -1.0390   -0.7531 H   0  0  0  0  0  0  0  0  0  0  0  0
    1.0165   -0.6365    0.9538 H   0  0  0  0  0  0  0  0  0  0  0  0
    2.7172    0.4862    0.2778 H   0  0  0  0  0  0  0  0  0  0  0  0
    2.3090    0.0345   -1.3886 H   0  0  0  0  0  0  0  0  0  0  0  0
    2.5381    1.7535   -1.0020 H   0  0  0  0  0  0  0  0  0  0  0  0
  1  2  1  0
  2  3  1  0
  3  4  1  0
  4  5  1  0
  1  6  1  0
  1  7  1  0
  1  8  1  0
  2  9  1  0
  2 10  1  0
  3 11  1  0
  3 12  1  0
  5 13  1  0
  5 14  1  0
  5 15  1  0
M  END
