
     RDKit          3D

 23 23  0  0  0  0  0  0  0  0999 V2000
    3.5530    0.7231   -0.7622 C   0  0  0  0  0  0  0  0  0  0  0  0
    2.3815    0.7322    0.1893 C   0  0  0  0  0  0  0  0  0  0  0  0
    1.3055   -0.1692   -0.3759 C   0  0  0  0  0  0  0  0  0  0  0  0
    0.1831   -0.2160    0.4475 O   0  0  0  0  0  0  0  0  0  0  0  0
   -0.7398   -1.0647   -0.1566 C   0  0  0  0  0  0  0  0  0  0  0  0
   -2.0022   -1.1822    0.6671 C   0  0  0  0  0  0  0  0  0  0  0  0
   -2.6809    0.1543    0.8546 C   0  0  0  0  0  0  0  0  0  0  0  0
   -3.0931    0.8166   -0.4455 C   0  0  0  0  0  0  0  0  0  0  0  0
   -2.0386    1.3014    0.3979 O   0  0  0  0  0  0  0  0  0  0  0  0
    4.4837    0.3168   -0.2723 H   0  0  0  0  0  0  0  0  0  0  0  0
    3.3424    0.1064   -1.6517 H   0  0  0  0  0  0  0  0  0  0  0  0
    3.7505    1.7713   -1.1101 H   0  0  0  0  0  0  0  0  0  0  0  0
    2.7260    0.2488    1.1397 H   0  0  0  0  0  0  0  0  0  0  0  0
    2.0190    1.7518    0.3581 H   0  0  0  0  0  0  0  0  0  0  0  0
    1.0278    0.1636   -1.4087 H   0  0  0  0  0  0  0  0  0  0  0  0
    1.6623   -1.2126   -0.4790 H   0  0  0  0  0  0  0  0  0  0  0  0
   -0.2881   -2.0884   -0.1799 H   0  0  0  0  0  0  0  0  0  0  0  0
   -1.0119   -0.7679   -1.1760 H   0  0  0  0  0  0  0  0  0  0  0  0
   -1.8316   -1.6359    1.6541 H   0  0  0  0  0  0  0  0  0  0  0  0
   -2.6856   -1.8569    0.1147 H   0  0  0  0  0  0  0  0  0  0  0  0
   -3.3413    0.2990    1.7139 H   0  0  0  0  0  0  0  0  0  0  0  0
   -4.0350    1.3808   -0.4313 H   0  0  0  0  0  0  0  0  0  0  0  0
   -2.6868    0.4278   -1.4001 H   0  0  0  0  0  0  0  0  0  0  0  0
  1  2  1  0
  2  3  1  0
  3  4  1  0
  4  5  1  0
  5  6  1  0
  6  7  1  0
  7  8  1  0
  8  9  1  0
  9  7  1  0
  1 10  1  0
  1 11  1  0
  1 12  1  0
  2 13  1  0
  2 14  1  0
  3 15  1  0
  3 16  1  0
  5 17  1  0
  5 18  1  0
  6 19  1  0
  6 20  1  0
  7 21  1  0
  8 22  1  0
  8 23  1  0
M  END
