
     RDKit          3D

 19 19  0  0  0  0  0  0  0  0999 V2000
   -2.8558    0.1840    0.1217 C   0  0  0  0  0  0  0  0  0  0  0  0
   -1.4005    0.5048   -0.2020 C   0  0  0  0  0  0  0  0  0  0  0  0
   -0.7373   -0.7799   -0.5580 C   0  0  0  0  0  0  0  0  0  0  0  0
    0.5869   -0.5589   -0.8654 O   0  0  0  0  0  0  0  0  0  0  0  0
    1.2561   -0.0581    0.2151 C   0  0  0  0  0  0  0  0  0  0  0  0
    2.4500    0.8157    0.0713 C   0  0  0  0  0  0  0  0  0  0  0  0
    2.6765   -0.6031    0.3377 C   0  0  0  0  0  0  0  0  0  0  0  0
   -2.8297   -0.6605    0.8385 H   0  0  0  0  0  0  0  0  0  0  0  0
   -3.3519   -0.1221   -0.8027 H   0  0  0  0  0  0  0  0  0  0  0  0
   -3.2760    1.1111    0.5651 H   0  0  0  0  0  0  0  0  0  0  0  0
   -1.4230    1.2348   -1.0644 H   0  0  0  0  0  0  0  0  0  0  0  0
   -0.9618    1.0643    0.6352 H   0  0  0  0  0  0  0  0  0  0  0  0
   -1.2769   -1.3406   -1.3599 H   0  0  0  0  0  0  0  0  0  0  0  0
   -0.8544   -1.4470    0.3462 H   0  0  0  0  0  0  0  0  0  0  0  0
    0.6758    0.0696    1.1354 H   0  0  0  0  0  0  0  0  0  0  0  0
    2.6175    1.5988    0.8631 H   0  0  0  0  0  0  0  0  0  0  0  0
    2.6989    1.1979   -0.9358 H   0  0  0  0  0  0  0  0  0  0  0  0
    2.9157   -0.9832    1.3611 H   0  0  0  0  0  0  0  0  0  0  0  0
    3.0899   -1.2277   -0.4562 H   0  0  0  0  0  0  0  0  0  0  0  0
  1  2  1  0
  2  3  1  0
  3  4  1  0
  4  5  1  0
  5  6  1  0
  6  7  1  0
  7  5  1  0
  1  8  1  0
  1  9  1  0
  1 10  1  0
  2 11  1  0
  2 12  1  0
  3 13  1  0
  3 14  1  0
  5 15  1  0
  6 16  1  0
  6 17  1  0
  7 18  1  0
  7 19  1  0
M  END
