
     RDKit          3D

 23 22  0  0  0  0  0  0  0  0999 V2000
    3.5847    0.8736   -0.0518 C   0  0  0  0  0  0  0  0  0  0  0  0
    2.7241   -0.0745   -0.8138 C   0  0  0  0  0  0  0  0  0  0  0  0
    1.3673   -0.2405   -0.1044 C   0  0  0  0  0  0  0  0  0  0  0  0
    0.5653   -1.1118   -0.7969 O   0  0  0  0  0  0  0  0  0  0  0  0
   -0.6730   -1.3727   -0.2541 C   0  0  0  0  0  0  0  0  0  0  0  0
   -1.4678   -0.1143   -0.1522 C   0  0  0  0  0  0  0  0  0  0  0  0
   -2.8295   -0.3421    0.4102 C   0  0  0  0  0  0  0  0  0  0  0  0
   -3.7377    0.8231    0.5710 C   0  0  0  0  0  0  0  0  0  0  0  0
   -3.1991   -1.4399    0.7315 O   0  0  0  0  0  0  0  0  0  0  0  0
    3.0506    1.7633    0.3154 H   0  0  0  0  0  0  0  0  0  0  0  0
    4.0720    0.3078    0.7850 H   0  0  0  0  0  0  0  0  0  0  0  0
    4.3608    1.2643   -0.7681 H   0  0  0  0  0  0  0  0  0  0  0  0
    2.5822    0.3092   -1.8268 H   0  0  0  0  0  0  0  0  0  0  0  0
    3.1867   -1.0709   -0.8505 H   0  0  0  0  0  0  0  0  0  0  0  0
    0.9271    0.7899   -0.0120 H   0  0  0  0  0  0  0  0  0  0  0  0
    1.6076   -0.6823    0.8839 H   0  0  0  0  0  0  0  0  0  0  0  0
   -1.2104   -2.1282   -0.9020 H   0  0  0  0  0  0  0  0  0  0  0  0
   -0.5632   -1.8917    0.7294 H   0  0  0  0  0  0  0  0  0  0  0  0
   -1.5277    0.3672   -1.1317 H   0  0  0  0  0  0  0  0  0  0  0  0
   -0.9393    0.5663    0.5802 H   0  0  0  0  0  0  0  0  0  0  0  0
   -3.7631    1.3878   -0.3892 H   0  0  0  0  0  0  0  0  0  0  0  0
   -3.3355    1.4991    1.3719 H   0  0  0  0  0  0  0  0  0  0  0  0
   -4.7822    0.5176    0.7699 H   0  0  0  0  0  0  0  0  0  0  0  0
  1  2  1  0
  2  3  1  0
  3  4  1  0
  4  5  1  0
  5  6  1  0
  6  7  1  0
  7  8  1  0
  7  9  2  0
  1 10  1  0
  1 11  1  0
  1 12  1  0
  2 13  1  0
  2 14  1  0
  3 15  1  0
  3 16  1  0
  5 17  1  0
  5 18  1  0
  6 19  1  0
  6 20  1  0
  8 21  1  0
  8 22  1  0
  8 23  1  0
M  END
