
     RDKit          3D

 23 23  0  0  0  0  0  0  0  0999 V2000
   -3.4924    0.4589    0.4877 C   0  0  0  0  0  0  0  0  0  0  0  0
   -2.8598   -0.6006   -0.3547 C   0  0  0  0  0  0  0  0  0  0  0  0
   -1.4532   -0.2849   -0.7636 C   0  0  0  0  0  0  0  0  0  0  0  0
   -0.5976   -0.1164    0.3112 O   0  0  0  0  0  0  0  0  0  0  0  0
    0.6732    0.1710   -0.1827 C   0  0  0  0  0  0  0  0  0  0  0  0
    1.4246    1.1970    0.6514 C   0  0  0  0  0  0  0  0  0  0  0  0
    1.8854   -0.2347    0.5634 C   0  0  0  0  0  0  0  0  0  0  0  0
    3.1602   -0.4414   -0.1908 C   0  0  0  0  0  0  0  0  0  0  0  0
    4.2087   -0.8175    0.6306 O   0  0  0  0  0  0  0  0  0  0  0  0
   -4.2647   -0.0242    1.1273 H   0  0  0  0  0  0  0  0  0  0  0  0
   -4.0178    1.2242   -0.1158 H   0  0  0  0  0  0  0  0  0  0  0  0
   -2.7888    0.9690    1.1717 H   0  0  0  0  0  0  0  0  0  0  0  0
   -3.4614   -0.6897   -1.2889 H   0  0  0  0  0  0  0  0  0  0  0  0
   -2.9226   -1.6076    0.1403 H   0  0  0  0  0  0  0  0  0  0  0  0
   -1.0736   -1.1742   -1.3315 H   0  0  0  0  0  0  0  0  0  0  0  0
   -1.4722    0.5844   -1.4478 H   0  0  0  0  0  0  0  0  0  0  0  0
    0.7980    0.2181   -1.2922 H   0  0  0  0  0  0  0  0  0  0  0  0
    1.9446    1.9772    0.0576 H   0  0  0  0  0  0  0  0  0  0  0  0
    0.9925    1.5418    1.6008 H   0  0  0  0  0  0  0  0  0  0  0  0
    1.8198   -0.8021    1.5122 H   0  0  0  0  0  0  0  0  0  0  0  0
    3.4159    0.4549   -0.7896 H   0  0  0  0  0  0  0  0  0  0  0  0
    3.0209   -1.2703   -0.9310 H   0  0  0  0  0  0  0  0  0  0  0  0
    5.0606   -0.7329    0.1142 H   0  0  0  0  0  0  0  0  0  0  0  0
  1  2  1  0
  2  3  1  0
  3  4  1  0
  4  5  1  0
  5  6  1  0
  6  7  1  0
  7  8  1  0
  8  9  1  0
  7  5  1  0
  1 10  1  0
  1 11  1  0
  1 12  1  0
  2 13  1  0
  2 14  1  0
  3 15  1  0
  3 16  1  0
  5 17  1  0
  6 18  1  0
  6 19  1  0
  7 20  1  0
  8 21  1  0
  8 22  1  0
  9 23  1  0
M  END
