
     RDKit          3D

 25 24  0  0  0  0  0  0  0  0999 V2000
   -3.9475    0.4009    0.6132 C   0  0  0  0  0  0  0  0  0  0  0  0
   -2.7638    0.0485   -0.2563 C   0  0  0  0  0  0  0  0  0  0  0  0
   -1.4594    0.1179    0.5384 C   0  0  0  0  0  0  0  0  0  0  0  0
   -0.4451   -0.2182   -0.3376 O   0  0  0  0  0  0  0  0  0  0  0  0
    0.8121   -0.1972    0.2521 C   0  0  0  0  0  0  0  0  0  0  0  0
    1.3629   -1.6171    0.1462 C   0  0  0  0  0  0  0  0  0  0  0  0
    1.6832    0.7123   -0.5793 C   0  0  0  0  0  0  0  0  0  0  0  0
    3.0805    0.8263   -0.0496 C   0  0  0  0  0  0  0  0  0  0  0  0
    3.6924   -0.4244   -0.0266 O   0  0  0  0  0  0  0  0  0  0  0  0
   -3.6837    0.1752    1.6552 H   0  0  0  0  0  0  0  0  0  0  0  0
   -4.8787   -0.1164    0.3015 H   0  0  0  0  0  0  0  0  0  0  0  0
   -4.0669    1.5160    0.5379 H   0  0  0  0  0  0  0  0  0  0  0  0
   -2.7179    0.7739   -1.1114 H   0  0  0  0  0  0  0  0  0  0  0  0
   -2.9034   -0.9454   -0.7114 H   0  0  0  0  0  0  0  0  0  0  0  0
   -1.3833    1.1560    0.9217 H   0  0  0  0  0  0  0  0  0  0  0  0
   -1.5716   -0.5620    1.3827 H   0  0  0  0  0  0  0  0  0  0  0  0
    0.7767    0.0814    1.3041 H   0  0  0  0  0  0  0  0  0  0  0  0
    2.0992   -1.8396    0.9346 H   0  0  0  0  0  0  0  0  0  0  0  0
    1.8774   -1.7039   -0.8316 H   0  0  0  0  0  0  0  0  0  0  0  0
    0.5168   -2.3502    0.1719 H   0  0  0  0  0  0  0  0  0  0  0  0
    1.2187    1.7111   -0.6638 H   0  0  0  0  0  0  0  0  0  0  0  0
    1.7472    0.3012   -1.6069 H   0  0  0  0  0  0  0  0  0  0  0  0
    3.1305    1.3256    0.9394 H   0  0  0  0  0  0  0  0  0  0  0  0
    3.6573    1.4452   -0.7677 H   0  0  0  0  0  0  0  0  0  0  0  0
    4.1663   -0.6173    0.8098 H   0  0  0  0  0  0  0  0  0  0  0  0
  1  2  1  0
  2  3  1  0
  3  4  1  0
  4  5  1  0
  5  6  1  0
  5  7  1  0
  7  8  1  0
  8  9  1  0
  1 10  1  0
  1 11  1  0
  1 12  1  0
  2 13  1  0
  2 14  1  0
  3 15  1  0
  3 16  1  0
  5 17  1  0
  6 18  1  0
  6 19  1  0
  6 20  1  0
  7 21  1  0
  7 22  1  0
  8 23  1  0
  8 24  1  0
  9 25  1  0
M  END
