
     RDKit          3D

 22 22  0  0  0  0  0  0  0  0999 V2000
    3.4153   -0.0909    0.9787 C   0  0  0  0  0  0  0  0  0  0  0  0
    2.1893   -0.1622    0.0578 C   0  0  0  0  0  0  0  0  0  0  0  0
    1.1255    0.6960    0.7043 C   0  0  0  0  0  0  0  0  0  0  0  0
   -0.0453    0.7403    0.0018 O   0  0  0  0  0  0  0  0  0  0  0  0
   -0.6652   -0.4678   -0.1869 C   0  0  0  0  0  0  0  0  0  0  0  0
   -1.9319   -0.1711   -0.9840 C   0  0  0  0  0  0  0  0  0  0  0  0
   -2.8669    0.7741   -0.2637 C   0  0  0  0  0  0  0  0  0  0  0  0
   -3.2410   -0.6479   -0.4922 C   0  0  0  0  0  0  0  0  0  0  0  0
    4.3416   -0.3543    0.4318 H   0  0  0  0  0  0  0  0  0  0  0  0
    3.2516   -0.7651    1.8458 H   0  0  0  0  0  0  0  0  0  0  0  0
    3.4398    0.9381    1.3760 H   0  0  0  0  0  0  0  0  0  0  0  0
    2.4708    0.2788   -0.9209 H   0  0  0  0  0  0  0  0  0  0  0  0
    1.8774   -1.1892   -0.1190 H   0  0  0  0  0  0  0  0  0  0  0  0
    0.9834    0.4425    1.7751 H   0  0  0  0  0  0  0  0  0  0  0  0
    1.5238    1.7537    0.7134 H   0  0  0  0  0  0  0  0  0  0  0  0
   -0.0716   -1.2077   -0.7528 H   0  0  0  0  0  0  0  0  0  0  0  0
   -0.9337   -0.9698    0.7815 H   0  0  0  0  0  0  0  0  0  0  0  0
   -1.7267    0.0245   -2.0438 H   0  0  0  0  0  0  0  0  0  0  0  0
   -2.6482    1.0787    0.7691 H   0  0  0  0  0  0  0  0  0  0  0  0
   -3.3249    1.5695   -0.8785 H   0  0  0  0  0  0  0  0  0  0  0  0
   -3.1853   -1.3451    0.3851 H   0  0  0  0  0  0  0  0  0  0  0  0
   -3.9777   -0.9251   -1.2758 H   0  0  0  0  0  0  0  0  0  0  0  0
  1  2  1  0
  2  3  1  0
  3  4  1  0
  4  5  1  0
  5  6  1  0
  6  7  1  0
  7  8  1  0
  8  6  1  0
  1  9  1  0
  1 10  1  0
  1 11  1  0
  2 12  1  0
  2 13  1  0
  3 14  1  0
  3 15  1  0
  5 16  1  0
  5 17  1  0
  6 18  1  0
  7 19  1  0
  7 20  1  0
  8 21  1  0
  8 22  1  0
M  END
