
     RDKit          3D

 25 25  0  0  0  0  0  0  0  0999 V2000
    3.0868    0.0981    0.7756 C   0  0  0  0  0  0  0  0  0  0  0  0
    2.5011   -0.6074   -0.4281 C   0  0  0  0  0  0  0  0  0  0  0  0
    1.1156   -0.0709   -0.6802 C   0  0  0  0  0  0  0  0  0  0  0  0
    0.3402   -0.3168    0.4520 O   0  0  0  0  0  0  0  0  0  0  0  0
   -0.9347    0.1953    0.1769 C   0  0  0  0  0  0  0  0  0  0  0  0
   -0.8631    1.6594   -0.0991 C   0  0  0  0  0  0  0  0  0  0  0  0
   -1.5913   -0.6488   -0.8845 C   0  0  0  0  0  0  0  0  0  0  0  0
   -2.6979   -0.9399    0.1078 C   0  0  0  0  0  0  0  0  0  0  0  0
   -1.9829   -0.1761    1.1847 C   0  0  0  0  0  0  0  0  0  0  0  0
    4.1008   -0.3541    0.9316 H   0  0  0  0  0  0  0  0  0  0  0  0
    3.1653    1.1806    0.5324 H   0  0  0  0  0  0  0  0  0  0  0  0
    2.5146   -0.0969    1.7027 H   0  0  0  0  0  0  0  0  0  0  0  0
    3.1798   -0.3683   -1.2866 H   0  0  0  0  0  0  0  0  0  0  0  0
    2.4749   -1.6929   -0.3152 H   0  0  0  0  0  0  0  0  0  0  0  0
    1.1055    0.9769   -0.9986 H   0  0  0  0  0  0  0  0  0  0  0  0
    0.7029   -0.6613   -1.5433 H   0  0  0  0  0  0  0  0  0  0  0  0
    0.0171    2.0801    0.4296 H   0  0  0  0  0  0  0  0  0  0  0  0
   -0.7122    1.8847   -1.1836 H   0  0  0  0  0  0  0  0  0  0  0  0
   -1.7706    2.1637    0.2955 H   0  0  0  0  0  0  0  0  0  0  0  0
   -1.9888   -0.0843   -1.7548 H   0  0  0  0  0  0  0  0  0  0  0  0
   -1.0665   -1.5930   -1.1403 H   0  0  0  0  0  0  0  0  0  0  0  0
   -3.6884   -0.5176   -0.1945 H   0  0  0  0  0  0  0  0  0  0  0  0
   -2.7872   -2.0220    0.3965 H   0  0  0  0  0  0  0  0  0  0  0  0
   -2.5819    0.7092    1.4874 H   0  0  0  0  0  0  0  0  0  0  0  0
   -1.6390   -0.7977    2.0362 H   0  0  0  0  0  0  0  0  0  0  0  0
  1  2  1  0
  2  3  1  0
  3  4  1  0
  4  5  1  0
  5  6  1  0
  5  7  1  0
  7  8  1  0
  8  9  1  0
  9  5  1  0
  1 10  1  0
  1 11  1  0
  1 12  1  0
  2 13  1  0
  2 14  1  0
  3 15  1  0
  3 16  1  0
  6 17  1  0
  6 18  1  0
  6 19  1  0
  7 20  1  0
  7 21  1  0
  8 22  1  0
  8 23  1  0
  9 24  1  0
  9 25  1  0
M  END
