
     RDKit          3D

 21 21  0  0  0  0  0  0  0  0999 V2000
    3.3886   -0.1173    0.3778 C   0  0  0  0  0  0  0  0  0  0  0  0
    2.0864   -0.8409    0.1090 C   0  0  0  0  0  0  0  0  0  0  0  0
    0.9742    0.1757    0.2674 C   0  0  0  0  0  0  0  0  0  0  0  0
   -0.2401   -0.4458    0.0295 O   0  0  0  0  0  0  0  0  0  0  0  0
   -1.2828    0.4495    0.1642 C   0  0  0  0  0  0  0  0  0  0  0  0
   -2.4369    0.2762   -0.7797 C   0  0  0  0  0  0  0  0  0  0  0  0
   -2.9758    1.4355   -1.2981 O   0  0  0  0  0  0  0  0  0  0  0  0
   -2.5828   -0.0672    0.6622 C   0  0  0  0  0  0  0  0  0  0  0  0
   -2.6579   -1.4103    1.0243 O   0  0  0  0  0  0  0  0  0  0  0  0
    3.7334    0.3293   -0.5885 H   0  0  0  0  0  0  0  0  0  0  0  0
    4.1776   -0.8344    0.6785 H   0  0  0  0  0  0  0  0  0  0  0  0
    3.1889    0.6613    1.1133 H   0  0  0  0  0  0  0  0  0  0  0  0
    1.9345   -1.6447    0.8562 H   0  0  0  0  0  0  0  0  0  0  0  0
    2.0649   -1.2849   -0.9087 H   0  0  0  0  0  0  0  0  0  0  0  0
    1.0917    1.0011   -0.4656 H   0  0  0  0  0  0  0  0  0  0  0  0
    1.0118    0.5473    1.3188 H   0  0  0  0  0  0  0  0  0  0  0  0
   -0.9934    1.4879    0.4321 H   0  0  0  0  0  0  0  0  0  0  0  0
   -2.4340   -0.5830   -1.4785 H   0  0  0  0  0  0  0  0  0  0  0  0
   -2.9239    2.1258   -0.5858 H   0  0  0  0  0  0  0  0  0  0  0  0
   -3.2557    0.5978    1.2470 H   0  0  0  0  0  0  0  0  0  0  0  0
   -1.8687   -1.8587    0.6277 H   0  0  0  0  0  0  0  0  0  0  0  0
  1  2  1  0
  2  3  1  0
  3  4  1  0
  4  5  1  0
  5  6  1  0
  6  7  1  0
  6  8  1  0
  8  9  1  0
  8  5  1  0
  1 10  1  0
  1 11  1  0
  1 12  1  0
  2 13  1  0
  2 14  1  0
  3 15  1  0
  3 16  1  0
  5 17  1  0
  6 18  1  0
  7 19  1  0
  8 20  1  0
  9 21  1  0
M  END
