
     RDKit          3D

 21 20  0  0  0  0  0  0  0  0999 V2000
    2.8036    1.0669    0.1346 C   0  0  0  0  0  0  0  0  0  0  0  0
    1.8963   -0.1388   -0.1336 C   0  0  0  0  0  0  0  0  0  0  0  0
    1.0391   -0.2622    1.1314 C   0  0  0  0  0  0  0  0  0  0  0  0
    0.1545   -1.2928    1.0991 O   0  0  0  0  0  0  0  0  0  0  0  0
   -0.7643   -1.2694    0.0958 C   0  0  0  0  0  0  0  0  0  0  0  0
   -1.6938   -0.1229    0.0753 C   0  0  0  0  0  0  0  0  0  0  0  0
   -1.7090    0.7629    0.8968 O   0  0  0  0  0  0  0  0  0  0  0  0
   -2.6791   -0.0525   -1.0318 C   0  0  0  0  0  0  0  0  0  0  0  0
   -3.4939    1.0546   -0.9541 O   0  0  0  0  0  0  0  0  0  0  0  0
    3.1171    0.9760    1.1952 H   0  0  0  0  0  0  0  0  0  0  0  0
    2.1996    1.9884    0.0308 H   0  0  0  0  0  0  0  0  0  0  0  0
    3.6741    1.0294   -0.5491 H   0  0  0  0  0  0  0  0  0  0  0  0
    1.2952    0.0078   -1.0402 H   0  0  0  0  0  0  0  0  0  0  0  0
    2.5004   -1.0623   -0.1851 H   0  0  0  0  0  0  0  0  0  0  0  0
    1.7805   -0.3473    1.9717 H   0  0  0  0  0  0  0  0  0  0  0  0
    0.5286    0.7061    1.2659 H   0  0  0  0  0  0  0  0  0  0  0  0
   -0.2527   -1.2806   -0.9154 H   0  0  0  0  0  0  0  0  0  0  0  0
   -1.3922   -2.2192    0.1322 H   0  0  0  0  0  0  0  0  0  0  0  0
   -3.3058   -0.9753   -0.9731 H   0  0  0  0  0  0  0  0  0  0  0  0
   -2.1845   -0.0568   -2.0384 H   0  0  0  0  0  0  0  0  0  0  0  0
   -3.5137    1.4880   -0.0854 H   0  0  0  0  0  0  0  0  0  0  0  0
  1  2  1  0
  2  3  1  0
  3  4  1  0
  4  5  1  0
  5  6  1  0
  6  7  2  0
  6  8  1  0
  8  9  1  0
  1 10  1  0
  1 11  1  0
  1 12  1  0
  2 13  1  0
  2 14  1  0
  3 15  1  0
  3 16  1  0
  5 17  1  0
  5 18  1  0
  8 19  1  0
  8 20  1  0
  9 21  1  0
M  END
