
     RDKit          3D

 23 22  0  0  0  0  0  0  0  0999 V2000
    3.1726    0.7641   -0.2945 C   0  0  0  0  0  0  0  0  0  0  0  0
    1.6782    0.5845   -0.4749 C   0  0  0  0  0  0  0  0  0  0  0  0
    1.3142   -0.8731   -0.5465 C   0  0  0  0  0  0  0  0  0  0  0  0
   -0.0289   -1.0151   -0.7097 O   0  0  0  0  0  0  0  0  0  0  0  0
   -0.8473   -0.5189    0.2598 C   0  0  0  0  0  0  0  0  0  0  0  0
   -1.8417   -1.5522    0.7800 C   0  0  0  0  0  0  0  0  0  0  0  0
   -1.6921    0.5826   -0.3948 C   0  0  0  0  0  0  0  0  0  0  0  0
   -2.6189    1.1880    0.5812 C   0  0  0  0  0  0  0  0  0  0  0  0
   -2.6135    0.7757    1.7237 O   0  0  0  0  0  0  0  0  0  0  0  0
    3.5098    0.4427    0.7089 H   0  0  0  0  0  0  0  0  0  0  0  0
    3.3705    1.8561   -0.3541 H   0  0  0  0  0  0  0  0  0  0  0  0
    3.7511    0.2662   -1.0850 H   0  0  0  0  0  0  0  0  0  0  0  0
    1.4143    1.1279   -1.4019 H   0  0  0  0  0  0  0  0  0  0  0  0
    1.1673    1.0583    0.3646 H   0  0  0  0  0  0  0  0  0  0  0  0
    1.7545   -1.4691    0.2630 H   0  0  0  0  0  0  0  0  0  0  0  0
    1.7929   -1.2623   -1.4936 H   0  0  0  0  0  0  0  0  0  0  0  0
   -0.3459   -0.0454    1.1081 H   0  0  0  0  0  0  0  0  0  0  0  0
   -1.6849   -2.4978    0.2210 H   0  0  0  0  0  0  0  0  0  0  0  0
   -2.8931   -1.2582    0.6064 H   0  0  0  0  0  0  0  0  0  0  0  0
   -1.7162   -1.6987    1.8711 H   0  0  0  0  0  0  0  0  0  0  0  0
   -1.0477    1.3784   -0.8252 H   0  0  0  0  0  0  0  0  0  0  0  0
   -2.2903    0.1841   -1.2373 H   0  0  0  0  0  0  0  0  0  0  0  0
   -3.3046    1.9824    0.3297 H   0  0  0  0  0  0  0  0  0  0  0  0
  1  2  1  0
  2  3  1  0
  3  4  1  0
  4  5  1  0
  5  6  1  0
  5  7  1  0
  7  8  1  0
  8  9  2  0
  1 10  1  0
  1 11  1  0
  1 12  1  0
  2 13  1  0
  2 14  1  0
  3 15  1  0
  3 16  1  0
  5 17  1  0
  6 18  1  0
  6 19  1  0
  6 20  1  0
  7 21  1  0
  7 22  1  0
  8 23  1  0
M  END
