
     RDKit          3D

 21 20  0  0  0  0  0  0  0  0999 V2000
    3.2865    0.2696   -0.2608 C   0  0  0  0  0  0  0  0  0  0  0  0
    2.0039    0.4136    0.5056 C   0  0  0  0  0  0  0  0  0  0  0  0
    0.8215   -0.0301   -0.3618 C   0  0  0  0  0  0  0  0  0  0  0  0
   -0.3117    0.1308    0.4071 O   0  0  0  0  0  0  0  0  0  0  0  0
   -1.4733   -0.2388   -0.2637 C   0  0  0  0  0  0  0  0  0  0  0  0
   -2.1570   -1.2995    0.5710 C   0  0  0  0  0  0  0  0  0  0  0  0
   -2.3836    0.9782   -0.2580 C   0  0  0  0  0  0  0  0  0  0  0  0
    4.0912    0.8020    0.3024 H   0  0  0  0  0  0  0  0  0  0  0  0
    3.1687    0.7359   -1.2572 H   0  0  0  0  0  0  0  0  0  0  0  0
    3.5301   -0.8093   -0.3066 H   0  0  0  0  0  0  0  0  0  0  0  0
    1.7945    1.4669    0.7832 H   0  0  0  0  0  0  0  0  0  0  0  0
    1.9733   -0.2325    1.4051 H   0  0  0  0  0  0  0  0  0  0  0  0
    0.7954    0.5282   -1.3196 H   0  0  0  0  0  0  0  0  0  0  0  0
    0.9879   -1.1293   -0.5321 H   0  0  0  0  0  0  0  0  0  0  0  0
   -1.2609   -0.5929   -1.2916 H   0  0  0  0  0  0  0  0  0  0  0  0
   -1.5360   -1.6114    1.4426 H   0  0  0  0  0  0  0  0  0  0  0  0
   -3.1197   -0.9518    1.0018 H   0  0  0  0  0  0  0  0  0  0  0  0
   -2.3485   -2.2253   -0.0094 H   0  0  0  0  0  0  0  0  0  0  0  0
   -1.8775    1.8848   -0.5887 H   0  0  0  0  0  0  0  0  0  0  0  0
   -3.3374    0.7742   -0.7989 H   0  0  0  0  0  0  0  0  0  0  0  0
   -2.6474    1.1366    0.8295 H   0  0  0  0  0  0  0  0  0  0  0  0
  1  2  1  0
  2  3  1  0
  3  4  1  0
  4  5  1  0
  5  6  1  0
  5  7  1  0
  1  8  1  0
  1  9  1  0
  1 10  1  0
  2 11  1  0
  2 12  1  0
  3 13  1  0
  3 14  1  0
  5 15  1  0
  6 16  1  0
  6 17  1  0
  6 18  1  0
  7 19  1  0
  7 20  1  0
  7 21  1  0
M  END
