
     RDKit          3D

 25 24  0  0  0  0  0  0  0  0999 V2000
   -3.4133    0.7090   -0.8435 C   0  0  0  0  0  0  0  0  0  0  0  0
   -3.2473   -0.2908    0.2540 C   0  0  0  0  0  0  0  0  0  0  0  0
   -1.7489   -0.6396    0.3454 C   0  0  0  0  0  0  0  0  0  0  0  0
   -1.0467    0.5132    0.6228 O   0  0  0  0  0  0  0  0  0  0  0  0
    0.2954    0.2765    0.7489 C   0  0  0  0  0  0  0  0  0  0  0  0
    0.9797   -0.2891   -0.4555 C   0  0  0  0  0  0  0  0  0  0  0  0
    2.4289   -0.5021   -0.1823 C   0  0  0  0  0  0  0  0  0  0  0  0
    3.1654    0.7611    0.1695 C   0  0  0  0  0  0  0  0  0  0  0  0
    4.5038    0.3744    0.3652 O   0  0  0  0  0  0  0  0  0  0  0  0
   -3.9502    1.6401   -0.5003 H   0  0  0  0  0  0  0  0  0  0  0  0
   -4.0056    0.2452   -1.6629 H   0  0  0  0  0  0  0  0  0  0  0  0
   -2.4475    1.0467   -1.2859 H   0  0  0  0  0  0  0  0  0  0  0  0
   -3.5857    0.0851    1.2317 H   0  0  0  0  0  0  0  0  0  0  0  0
   -3.7437   -1.2734    0.0108 H   0  0  0  0  0  0  0  0  0  0  0  0
   -1.4263   -1.0576   -0.6497 H   0  0  0  0  0  0  0  0  0  0  0  0
   -1.6087   -1.3659    1.1471 H   0  0  0  0  0  0  0  0  0  0  0  0
    0.5097   -0.4417    1.5935 H   0  0  0  0  0  0  0  0  0  0  0  0
    0.8543    1.2019    1.0397 H   0  0  0  0  0  0  0  0  0  0  0  0
    0.5287   -1.2817   -0.7670 H   0  0  0  0  0  0  0  0  0  0  0  0
    0.8152    0.3494   -1.3662 H   0  0  0  0  0  0  0  0  0  0  0  0
    2.8939   -1.0112   -1.0560 H   0  0  0  0  0  0  0  0  0  0  0  0
    2.5986   -1.2001    0.6854 H   0  0  0  0  0  0  0  0  0  0  0  0
    3.1435    1.4733   -0.6566 H   0  0  0  0  0  0  0  0  0  0  0  0
    2.8011    1.1813    1.1421 H   0  0  0  0  0  0  0  0  0  0  0  0
    4.7058   -0.5040   -0.0033 H   0  0  0  0  0  0  0  0  0  0  0  0
  1  2  1  0
  2  3  1  0
  3  4  1  0
  4  5  1  0
  5  6  1  0
  6  7  1  0
  7  8  1  0
  8  9  1  0
  1 10  1  0
  1 11  1  0
  1 12  1  0
  2 13  1  0
  2 14  1  0
  3 15  1  0
  3 16  1  0
  5 17  1  0
  5 18  1  0
  6 19  1  0
  6 20  1  0
  7 21  1  0
  7 22  1  0
  8 23  1  0
  8 24  1  0
  9 25  1  0
M  END
