
     RDKit          3D

 23 24  0  0  0  0  0  0  0  0999 V2000
    3.6316    0.6132    0.2772 C   0  0  0  0  0  0  0  0  0  0  0  0
    2.1620    0.5105    0.6720 C   0  0  0  0  0  0  0  0  0  0  0  0
    1.6398   -0.8718    0.5026 C   0  0  0  0  0  0  0  0  0  0  0  0
    0.3129   -0.9670    0.8629 O   0  0  0  0  0  0  0  0  0  0  0  0
   -0.5276   -0.1795    0.0829 C   0  0  0  0  0  0  0  0  0  0  0  0
   -1.6306    0.4328    0.7371 C   0  0  0  0  0  0  0  0  0  0  0  0
   -3.0168   -0.1619    1.0285 C   0  0  0  0  0  0  0  0  0  0  0  0
   -3.1152    0.0527   -0.5000 C   0  0  0  0  0  0  0  0  0  0  0  0
   -1.7840   -0.6805   -0.3893 C   0  0  0  0  0  0  0  0  0  0  0  0
    3.7489    1.0649   -0.7368 H   0  0  0  0  0  0  0  0  0  0  0  0
    4.0128   -0.4232    0.2246 H   0  0  0  0  0  0  0  0  0  0  0  0
    4.1837    1.2417    0.9849 H   0  0  0  0  0  0  0  0  0  0  0  0
    2.0507    0.8560    1.7363 H   0  0  0  0  0  0  0  0  0  0  0  0
    1.6485    1.2675    0.0612 H   0  0  0  0  0  0  0  0  0  0  0  0
    2.2767   -1.6381    0.9768 H   0  0  0  0  0  0  0  0  0  0  0  0
    1.7005   -1.1053   -0.6035 H   0  0  0  0  0  0  0  0  0  0  0  0
    0.0601    0.3707   -0.7141 H   0  0  0  0  0  0  0  0  0  0  0  0
   -1.8366    1.4871    0.3655 H   0  0  0  0  0  0  0  0  0  0  0  0
   -2.9804   -1.2112    1.3243 H   0  0  0  0  0  0  0  0  0  0  0  0
   -3.6387    0.4978    1.6203 H   0  0  0  0  0  0  0  0  0  0  0  0
   -2.9880    1.0917   -0.7841 H   0  0  0  0  0  0  0  0  0  0  0  0
   -3.8761   -0.5416   -0.9919 H   0  0  0  0  0  0  0  0  0  0  0  0
   -2.0344   -1.7065    0.0317 H   0  0  0  0  0  0  0  0  0  0  0  0
  1  2  1  0
  2  3  1  0
  3  4  1  0
  4  5  1  0
  5  6  1  0
  6  7  1  0
  7  8  1  0
  8  9  1  0
  9  5  1  0
  9  6  1  0
  1 10  1  0
  1 11  1  0
  1 12  1  0
  2 13  1  0
  2 14  1  0
  3 15  1  0
  3 16  1  0
  5 17  1  0
  6 18  1  0
  7 19  1  0
  7 20  1  0
  8 21  1  0
  8 22  1  0
  9 23  1  0
M  END
