
     RDKit          3D

 21 20  0  0  0  0  0  0  0  0999 V2000
   -2.4738    0.2340   -1.4331 C   0  0  0  0  0  0  0  0  0  0  0  0
   -2.1594   -0.9185   -0.4709 C   0  0  0  0  0  0  0  0  0  0  0  0
   -1.5560   -0.3167    0.7479 C   0  0  0  0  0  0  0  0  0  0  0  0
   -0.3867    0.3886    0.4626 O   0  0  0  0  0  0  0  0  0  0  0  0
    0.7146   -0.2247   -0.0676 C   0  0  0  0  0  0  0  0  0  0  0  0
    0.7029   -1.4481   -0.3097 O   0  0  0  0  0  0  0  0  0  0  0  0
    1.9490    0.5413   -0.3691 C   0  0  0  0  0  0  0  0  0  0  0  0
    3.1215   -0.0381    0.3967 C   0  0  0  0  0  0  0  0  0  0  0  0
    1.8101    1.8821   -0.0478 O   0  0  0  0  0  0  0  0  0  0  0  0
   -2.6003   -0.1396   -2.4697 H   0  0  0  0  0  0  0  0  0  0  0  0
   -1.5915    0.9073   -1.4145 H   0  0  0  0  0  0  0  0  0  0  0  0
   -3.3335    0.7896   -1.0449 H   0  0  0  0  0  0  0  0  0  0  0  0
   -1.4867   -1.6627   -0.9078 H   0  0  0  0  0  0  0  0  0  0  0  0
   -3.1508   -1.3917   -0.2433 H   0  0  0  0  0  0  0  0  0  0  0  0
   -1.3317   -1.1443    1.4822 H   0  0  0  0  0  0  0  0  0  0  0  0
   -2.3250    0.2961    1.2596 H   0  0  0  0  0  0  0  0  0  0  0  0
    2.1866    0.4282   -1.4419 H   0  0  0  0  0  0  0  0  0  0  0  0
    3.7704    0.7830    0.7819 H   0  0  0  0  0  0  0  0  0  0  0  0
    3.7481   -0.6923   -0.2312 H   0  0  0  0  0  0  0  0  0  0  0  0
    2.7126   -0.6580    1.2078 H   0  0  0  0  0  0  0  0  0  0  0  0
    1.6797    2.3844   -0.8803 H   0  0  0  0  0  0  0  0  0  0  0  0
  1  2  1  0
  2  3  1  0
  3  4  1  0
  4  5  1  0
  5  6  2  0
  5  7  1  0
  7  8  1  0
  7  9  1  0
  1 10  1  0
  1 11  1  0
  1 12  1  0
  2 13  1  0
  2 14  1  0
  3 15  1  0
  3 16  1  0
  7 17  1  0
  8 18  1  0
  8 19  1  0
  8 20  1  0
  9 21  1  0
M  END
