
     RDKit          3D

 23 23  0  0  0  0  0  0  0  0999 V2000
    2.9512   -0.0897   -0.9343 C   0  0  0  0  0  0  0  0  0  0  0  0
    2.5507   -0.7876    0.3429 C   0  0  0  0  0  0  0  0  0  0  0  0
    1.2662   -0.2098    0.8887 C   0  0  0  0  0  0  0  0  0  0  0  0
    0.2100   -0.3451   -0.0152 O   0  0  0  0  0  0  0  0  0  0  0  0
   -0.9170    0.2162    0.5842 C   0  0  0  0  0  0  0  0  0  0  0  0
   -1.4729    1.3622   -0.2462 C   0  0  0  0  0  0  0  0  0  0  0  0
   -2.6335    0.7596   -0.9864 C   0  0  0  0  0  0  0  0  0  0  0  0
   -2.9315   -0.4221   -0.4565 C   0  0  0  0  0  0  0  0  0  0  0  0
   -2.0511   -0.7651    0.6657 C   0  0  0  0  0  0  0  0  0  0  0  0
    3.6009    0.7935   -0.7189 H   0  0  0  0  0  0  0  0  0  0  0  0
    3.4839   -0.8402   -1.5570 H   0  0  0  0  0  0  0  0  0  0  0  0
    2.0493    0.3266   -1.4602 H   0  0  0  0  0  0  0  0  0  0  0  0
    3.3443   -0.5393    1.0958 H   0  0  0  0  0  0  0  0  0  0  0  0
    2.5272   -1.8698    0.2277 H   0  0  0  0  0  0  0  0  0  0  0  0
    0.9589   -0.7546    1.8049 H   0  0  0  0  0  0  0  0  0  0  0  0
    1.4109    0.8592    1.1063 H   0  0  0  0  0  0  0  0  0  0  0  0
   -0.6958    0.6183    1.6019 H   0  0  0  0  0  0  0  0  0  0  0  0
   -1.8234    2.2042    0.3876 H   0  0  0  0  0  0  0  0  0  0  0  0
   -0.7167    1.7701   -0.9526 H   0  0  0  0  0  0  0  0  0  0  0  0
   -3.1361    1.2333   -1.8219 H   0  0  0  0  0  0  0  0  0  0  0  0
   -3.7459   -1.0340   -0.8434 H   0  0  0  0  0  0  0  0  0  0  0  0
   -2.6121   -0.7034    1.6197 H   0  0  0  0  0  0  0  0  0  0  0  0
   -1.6174   -1.7826    0.5113 H   0  0  0  0  0  0  0  0  0  0  0  0
  1  2  1  0
  2  3  1  0
  3  4  1  0
  4  5  1  0
  5  6  1  0
  6  7  1  0
  7  8  2  0
  8  9  1  0
  9  5  1  0
  1 10  1  0
  1 11  1  0
  1 12  1  0
  2 13  1  0
  2 14  1  0
  3 15  1  0
  3 16  1  0
  5 17  1  0
  6 18  1  0
  6 19  1  0
  7 20  1  0
  8 21  1  0
  9 22  1  0
  9 23  1  0
M  END
