
     RDKit          3D

 23 23  0  0  0  0  0  0  0  0999 V2000
   -3.3079    0.8950   -0.0792 C   0  0  0  0  0  0  0  0  0  0  0  0
   -1.8676    0.3795    0.0990 C   0  0  0  0  0  0  0  0  0  0  0  0
   -1.7663   -1.0640   -0.2396 C   0  0  0  0  0  0  0  0  0  0  0  0
   -0.6009   -1.6257   -0.0761 O   0  0  0  0  0  0  0  0  0  0  0  0
    0.5867   -1.4360   -0.5704 C   0  0  0  0  0  0  0  0  0  0  0  0
    1.3701   -0.1854   -0.3468 C   0  0  0  0  0  0  0  0  0  0  0  0
    2.6912   -0.2949   -1.0131 O   0  0  0  0  0  0  0  0  0  0  0  0
    2.6425   -0.1593    0.3567 C   0  0  0  0  0  0  0  0  0  0  0  0
    3.1427    1.1849    0.8616 C   0  0  0  0  0  0  0  0  0  0  0  0
   -3.5227    1.1342   -1.1278 H   0  0  0  0  0  0  0  0  0  0  0  0
   -4.0267    0.1896    0.3788 H   0  0  0  0  0  0  0  0  0  0  0  0
   -3.3486    1.8446    0.4960 H   0  0  0  0  0  0  0  0  0  0  0  0
   -1.2904    1.0135   -0.6148 H   0  0  0  0  0  0  0  0  0  0  0  0
   -1.5764    0.5928    1.1142 H   0  0  0  0  0  0  0  0  0  0  0  0
   -2.2390   -1.2715   -1.2603 H   0  0  0  0  0  0  0  0  0  0  0  0
   -2.5103   -1.5766    0.4800 H   0  0  0  0  0  0  0  0  0  0  0  0
    0.6771   -1.6670   -1.6992 H   0  0  0  0  0  0  0  0  0  0  0  0
    1.2705   -2.2778   -0.1694 H   0  0  0  0  0  0  0  0  0  0  0  0
    0.9030    0.7632   -0.5817 H   0  0  0  0  0  0  0  0  0  0  0  0
    2.9490   -1.0069    1.0103 H   0  0  0  0  0  0  0  0  0  0  0  0
    3.7364    1.7115    0.0822 H   0  0  0  0  0  0  0  0  0  0  0  0
    3.8168    1.0754    1.7397 H   0  0  0  0  0  0  0  0  0  0  0  0
    2.2709    1.7809    1.1600 H   0  0  0  0  0  0  0  0  0  0  0  0
  1  2  1  0
  2  3  1  0
  3  4  1  0
  4  5  1  0
  5  6  1  0
  6  7  1  0
  7  8  1  0
  8  9  1  0
  8  6  1  0
  1 10  1  0
  1 11  1  0
  1 12  1  0
  2 13  1  0
  2 14  1  0
  3 15  1  0
  3 16  1  0
  5 17  1  0
  5 18  1  0
  6 19  1  0
  8 20  1  0
  9 21  1  0
  9 22  1  0
  9 23  1  0
M  END
