
     RDKit          3D

 21 21  0  0  0  0  0  0  0  0999 V2000
    3.5988    0.1852   -0.1570 C   0  0  0  0  0  0  0  0  0  0  0  0
    2.2320    0.7886   -0.1469 C   0  0  0  0  0  0  0  0  0  0  0  0
    1.1348   -0.2705    0.0226 C   0  0  0  0  0  0  0  0  0  0  0  0
   -0.0569    0.4245    0.0137 O   0  0  0  0  0  0  0  0  0  0  0  0
   -1.1754   -0.3483    0.1545 C   0  0  0  0  0  0  0  0  0  0  0  0
   -2.3470    0.0695   -0.7317 C   0  0  0  0  0  0  0  0  0  0  0  0
   -2.3772    0.2544    0.7865 C   0  0  0  0  0  0  0  0  0  0  0  0
   -3.3956   -0.5786    1.4470 C   0  0  0  0  0  0  0  0  0  0  0  0
   -3.6653   -1.7201    1.1043 O   0  0  0  0  0  0  0  0  0  0  0  0
    4.2628    0.8509    0.4410 H   0  0  0  0  0  0  0  0  0  0  0  0
    3.6164   -0.8580    0.1809 H   0  0  0  0  0  0  0  0  0  0  0  0
    4.0184    0.2293   -1.2037 H   0  0  0  0  0  0  0  0  0  0  0  0
    2.0840    1.4986    0.6896 H   0  0  0  0  0  0  0  0  0  0  0  0
    2.0121    1.2992   -1.0885 H   0  0  0  0  0  0  0  0  0  0  0  0
    1.2400   -0.9908   -0.8076 H   0  0  0  0  0  0  0  0  0  0  0  0
    1.3313   -0.7751    0.9700 H   0  0  0  0  0  0  0  0  0  0  0  0
   -1.0839   -1.4565    0.2656 H   0  0  0  0  0  0  0  0  0  0  0  0
   -2.9648   -0.7119   -1.1844 H   0  0  0  0  0  0  0  0  0  0  0  0
   -2.2830    1.0218   -1.2731 H   0  0  0  0  0  0  0  0  0  0  0  0
   -2.2389    1.2555    1.1961 H   0  0  0  0  0  0  0  0  0  0  0  0
   -3.9426   -0.1678    2.2844 H   0  0  0  0  0  0  0  0  0  0  0  0
  1  2  1  0
  2  3  1  0
  3  4  1  0
  4  5  1  0
  5  6  1  0
  6  7  1  0
  7  8  1  0
  8  9  2  0
  7  5  1  0
  1 10  1  0
  1 11  1  0
  1 12  1  0
  2 13  1  0
  2 14  1  0
  3 15  1  0
  3 16  1  0
  5 17  1  0
  6 18  1  0
  6 19  1  0
  7 20  1  0
  8 21  1  0
M  END
