
     RDKit          3D

 21 20  0  0  0  0  0  0  0  0999 V2000
    3.4826   -0.5147    0.2045 C   0  0  0  0  0  0  0  0  0  0  0  0
    2.0621   -0.0779    0.5778 C   0  0  0  0  0  0  0  0  0  0  0  0
    1.5171    0.6355   -0.6514 C   0  0  0  0  0  0  0  0  0  0  0  0
    0.2167    1.1042   -0.4813 O   0  0  0  0  0  0  0  0  0  0  0  0
   -0.8807    0.3393   -0.1989 C   0  0  0  0  0  0  0  0  0  0  0  0
   -0.7376   -0.9041   -0.0750 O   0  0  0  0  0  0  0  0  0  0  0  0
   -2.2415    0.8997   -0.0293 C   0  0  0  0  0  0  0  0  0  0  0  0
   -3.2678   -0.1405    0.2736 C   0  0  0  0  0  0  0  0  0  0  0  0
   -3.3718   -1.0999   -0.7329 O   0  0  0  0  0  0  0  0  0  0  0  0
    4.2300    0.2292    0.5019 H   0  0  0  0  0  0  0  0  0  0  0  0
    3.6800   -1.5292    0.6487 H   0  0  0  0  0  0  0  0  0  0  0  0
    3.5410   -0.6678   -0.8963 H   0  0  0  0  0  0  0  0  0  0  0  0
    1.4616   -0.9749    0.8234 H   0  0  0  0  0  0  0  0  0  0  0  0
    2.0920    0.5834    1.4669 H   0  0  0  0  0  0  0  0  0  0  0  0
    1.6016   -0.1190   -1.4863 H   0  0  0  0  0  0  0  0  0  0  0  0
    2.1765    1.4729   -0.9538 H   0  0  0  0  0  0  0  0  0  0  0  0
   -2.2878    1.6798    0.7490 H   0  0  0  0  0  0  0  0  0  0  0  0
   -2.5113    1.3862   -0.9838 H   0  0  0  0  0  0  0  0  0  0  0  0
   -3.1179   -0.6426    1.2480 H   0  0  0  0  0  0  0  0  0  0  0  0
   -4.2550    0.3634    0.3259 H   0  0  0  0  0  0  0  0  0  0  0  0
   -3.3899   -2.0229   -0.3347 H   0  0  0  0  0  0  0  0  0  0  0  0
  1  2  1  0
  2  3  1  0
  3  4  1  0
  4  5  1  0
  5  6  2  0
  5  7  1  0
  7  8  1  0
  8  9  1  0
  1 10  1  0
  1 11  1  0
  1 12  1  0
  2 13  1  0
  2 14  1  0
  3 15  1  0
  3 16  1  0
  7 17  1  0
  7 18  1  0
  8 19  1  0
  8 20  1  0
  9 21  1  0
M  END
