
     RDKit          3D

 23 22  0  0  0  0  0  0  0  0999 V2000
    3.3139   -0.8450    0.3916 C   0  0  0  0  0  0  0  0  0  0  0  0
    2.9279    0.5001   -0.1622 C   0  0  0  0  0  0  0  0  0  0  0  0
    1.5333    0.5028   -0.7382 C   0  0  0  0  0  0  0  0  0  0  0  0
    0.5667    0.1737    0.2110 O   0  0  0  0  0  0  0  0  0  0  0  0
   -0.6523    0.2190   -0.4674 C   0  0  0  0  0  0  0  0  0  0  0  0
   -1.8235   -0.1133    0.4120 C   0  0  0  0  0  0  0  0  0  0  0  0
   -1.9489    0.7608    1.4851 O   0  0  0  0  0  0  0  0  0  0  0  0
   -3.0645    0.0652   -0.4602 C   0  0  0  0  0  0  0  0  0  0  0  0
   -4.2299   -0.2208    0.2397 O   0  0  0  0  0  0  0  0  0  0  0  0
    3.6106   -1.5080   -0.4419 H   0  0  0  0  0  0  0  0  0  0  0  0
    4.2001   -0.6797    1.0614 H   0  0  0  0  0  0  0  0  0  0  0  0
    2.4808   -1.3337    0.9160 H   0  0  0  0  0  0  0  0  0  0  0  0
    3.6186    0.7127   -1.0087 H   0  0  0  0  0  0  0  0  0  0  0  0
    3.0340    1.3147    0.5623 H   0  0  0  0  0  0  0  0  0  0  0  0
    1.4280   -0.2026   -1.5770 H   0  0  0  0  0  0  0  0  0  0  0  0
    1.3200    1.5560   -1.0530 H   0  0  0  0  0  0  0  0  0  0  0  0
   -0.6470   -0.5281   -1.2959 H   0  0  0  0  0  0  0  0  0  0  0  0
   -0.8397    1.1966   -0.9382 H   0  0  0  0  0  0  0  0  0  0  0  0
   -1.7988   -1.1700    0.7283 H   0  0  0  0  0  0  0  0  0  0  0  0
   -2.5502    0.3236    2.1654 H   0  0  0  0  0  0  0  0  0  0  0  0
   -3.0361   -0.6144   -1.3423 H   0  0  0  0  0  0  0  0  0  0  0  0
   -3.1014    1.0985   -0.8869 H   0  0  0  0  0  0  0  0  0  0  0  0
   -4.3418   -1.2080    0.3156 H   0  0  0  0  0  0  0  0  0  0  0  0
  1  2  1  0
  2  3  1  0
  3  4  1  0
  4  5  1  0
  5  6  1  0
  6  7  1  0
  6  8  1  0
  8  9  1  0
  1 10  1  0
  1 11  1  0
  1 12  1  0
  2 13  1  0
  2 14  1  0
  3 15  1  0
  3 16  1  0
  5 17  1  0
  5 18  1  0
  6 19  1  0
  7 20  1  0
  8 21  1  0
  8 22  1  0
  9 23  1  0
M  END
