
     RDKit          3D

 21 22  0  0  0  0  0  0  0  0999 V2000
    2.8999    0.8025    0.3704 C   0  0  0  0  0  0  0  0  0  0  0  0
    2.4698   -0.3918   -0.4365 C   0  0  0  0  0  0  0  0  0  0  0  0
    1.0697   -0.8241   -0.1504 C   0  0  0  0  0  0  0  0  0  0  0  0
    0.1292    0.1692   -0.4199 O   0  0  0  0  0  0  0  0  0  0  0  0
   -1.1468   -0.3004   -0.1320 C   0  0  0  0  0  0  0  0  0  0  0  0
   -2.0704    0.7105    0.4680 C   0  0  0  0  0  0  0  0  0  0  0  0
   -3.2114   -0.0107   -0.1715 C   0  0  0  0  0  0  0  0  0  0  0  0
   -2.1247    0.1074   -1.1824 C   0  0  0  0  0  0  0  0  0  0  0  0
   -1.9530    1.4116   -0.7250 O   0  0  0  0  0  0  0  0  0  0  0  0
    3.7514    1.2764   -0.1806 H   0  0  0  0  0  0  0  0  0  0  0  0
    2.1074    1.5557    0.5070 H   0  0  0  0  0  0  0  0  0  0  0  0
    3.3280    0.4707    1.3393 H   0  0  0  0  0  0  0  0  0  0  0  0
    2.6527   -0.1742   -1.5110 H   0  0  0  0  0  0  0  0  0  0  0  0
    3.1445   -1.2264   -0.1734 H   0  0  0  0  0  0  0  0  0  0  0  0
    1.0128   -1.1263    0.9090 H   0  0  0  0  0  0  0  0  0  0  0  0
    0.8502   -1.7045   -0.7896 H   0  0  0  0  0  0  0  0  0  0  0  0
   -1.2134   -1.3298    0.2444 H   0  0  0  0  0  0  0  0  0  0  0  0
   -2.0328    1.0969    1.3971 H   0  0  0  0  0  0  0  0  0  0  0  0
   -3.4568   -1.0092    0.1982 H   0  0  0  0  0  0  0  0  0  0  0  0
   -4.0616    0.6790   -0.3508 H   0  0  0  0  0  0  0  0  0  0  0  0
   -2.1445   -0.1827   -2.1486 H   0  0  0  0  0  0  0  0  0  0  0  0
  1  2  1  0
  2  3  1  0
  3  4  1  0
  4  5  1  0
  5  6  1  0
  6  7  1  0
  7  8  1  0
  8  9  1  0
  8  5  1  0
  9  6  1  0
  1 10  1  0
  1 11  1  0
  1 12  1  0
  2 13  1  0
  2 14  1  0
  3 15  1  0
  3 16  1  0
  5 17  1  0
  6 18  1  0
  7 19  1  0
  7 20  1  0
  8 21  1  0
M  END
