
     RDKit          3D

 27 26  0  0  0  0  0  0  0  0999 V2000
    4.2373    0.5666   -0.3185 C   0  0  0  0  0  0  0  0  0  0  0  0
    2.9778   -0.2065   -0.5774 C   0  0  0  0  0  0  0  0  0  0  0  0
    1.9435    0.2151    0.4475 C   0  0  0  0  0  0  0  0  0  0  0  0
    0.7341   -0.4877    0.2463 O   0  0  0  0  0  0  0  0  0  0  0  0
   -0.1342   -0.0246    1.2343 C   0  0  0  0  0  0  0  0  0  0  0  0
   -1.4849   -0.6796    1.1616 C   0  0  0  0  0  0  0  0  0  0  0  0
   -2.1527   -0.4193   -0.1710 C   0  0  0  0  0  0  0  0  0  0  0  0
   -3.5048   -1.1026   -0.1827 C   0  0  0  0  0  0  0  0  0  0  0  0
   -2.3485    1.0626   -0.4114 C   0  0  0  0  0  0  0  0  0  0  0  0
    4.3816    1.4198   -1.0254 H   0  0  0  0  0  0  0  0  0  0  0  0
    4.2118    1.0430    0.7048 H   0  0  0  0  0  0  0  0  0  0  0  0
    5.1505   -0.0801   -0.2959 H   0  0  0  0  0  0  0  0  0  0  0  0
    2.5853    0.1366   -1.5674 H   0  0  0  0  0  0  0  0  0  0  0  0
    3.1097   -1.2982   -0.6085 H   0  0  0  0  0  0  0  0  0  0  0  0
    2.2626    0.0143    1.4873 H   0  0  0  0  0  0  0  0  0  0  0  0
    1.6761    1.2843    0.3413 H   0  0  0  0  0  0  0  0  0  0  0  0
   -0.1956    1.0660    1.1243 H   0  0  0  0  0  0  0  0  0  0  0  0
    0.3293   -0.2790    2.2088 H   0  0  0  0  0  0  0  0  0  0  0  0
   -2.1149   -0.2178    1.9497 H   0  0  0  0  0  0  0  0  0  0  0  0
   -1.4101   -1.7497    1.3678 H   0  0  0  0  0  0  0  0  0  0  0  0
   -1.4946   -0.7914   -0.9832 H   0  0  0  0  0  0  0  0  0  0  0  0
   -3.8317   -1.2004    0.8823 H   0  0  0  0  0  0  0  0  0  0  0  0
   -3.4599   -2.0593   -0.7060 H   0  0  0  0  0  0  0  0  0  0  0  0
   -4.2337   -0.4579   -0.7349 H   0  0  0  0  0  0  0  0  0  0  0  0
   -3.0098    1.5359    0.3272 H   0  0  0  0  0  0  0  0  0  0  0  0
   -2.8616    1.1476   -1.4024 H   0  0  0  0  0  0  0  0  0  0  0  0
   -1.3626    1.5625   -0.4968 H   0  0  0  0  0  0  0  0  0  0  0  0
  1  2  1  0
  2  3  1  0
  3  4  1  0
  4  5  1  0
  5  6  1  0
  6  7  1  0
  7  8  1  0
  7  9  1  0
  1 10  1  0
  1 11  1  0
  1 12  1  0
  2 13  1  0
  2 14  1  0
  3 15  1  0
  3 16  1  0
  5 17  1  0
  5 18  1  0
  6 19  1  0
  6 20  1  0
  7 21  1  0
  8 22  1  0
  8 23  1  0
  8 24  1  0
  9 25  1  0
  9 26  1  0
  9 27  1  0
M  END
