
     RDKit          3D

 18 17  0  0  0  0  0  0  0  0999 V2000
    2.6644   -0.4137   -0.0939 C   0  0  0  0  0  0  0  0  0  0  0  0
    1.6188    0.6327   -0.4303 C   0  0  0  0  0  0  0  0  0  0  0  0
    0.3039    0.1663    0.1400 C   0  0  0  0  0  0  0  0  0  0  0  0
   -0.7167    1.0720   -0.1240 O   0  0  0  0  0  0  0  0  0  0  0  0
   -1.9236    0.6689    0.3856 C   0  0  0  0  0  0  0  0  0  0  0  0
   -2.3865   -0.6592   -0.1786 C   0  0  0  0  0  0  0  0  0  0  0  0
    3.3502   -0.5266   -0.9584 H   0  0  0  0  0  0  0  0  0  0  0  0
    3.1683   -0.1408    0.8371 H   0  0  0  0  0  0  0  0  0  0  0  0
    2.1990   -1.4214    0.0597 H   0  0  0  0  0  0  0  0  0  0  0  0
    1.4958    0.6905   -1.5355 H   0  0  0  0  0  0  0  0  0  0  0  0
    1.8965    1.6310   -0.0057 H   0  0  0  0  0  0  0  0  0  0  0  0
    0.0468   -0.8052   -0.3292 H   0  0  0  0  0  0  0  0  0  0  0  0
    0.4589   -0.0196    1.2160 H   0  0  0  0  0  0  0  0  0  0  0  0
   -2.6750    1.4580    0.1131 H   0  0  0  0  0  0  0  0  0  0  0  0
   -1.9041    0.6578    1.4949 H   0  0  0  0  0  0  0  0  0  0  0  0
   -2.2998   -1.4777    0.5966 H   0  0  0  0  0  0  0  0  0  0  0  0
   -3.4634   -0.5812   -0.5104 H   0  0  0  0  0  0  0  0  0  0  0  0
   -1.8335   -0.9319   -1.1102 H   0  0  0  0  0  0  0  0  0  0  0  0
  1  2  1  0
  2  3  1  0
  3  4  1  0
  4  5  1  0
  5  6  1  0
  1  7  1  0
  1  8  1  0
  1  9  1  0
  2 10  1  0
  2 11  1  0
  3 12  1  0
  3 13  1  0
  5 14  1  0
  5 15  1  0
  6 16  1  0
  6 17  1  0
  6 18  1  0
M  END
