
     RDKit          3D

 25 25  0  0  0  0  0  0  0  0999 V2000
    2.8309    0.9750   -0.1942 C   0  0  0  0  0  0  0  0  0  0  0  0
    2.5623   -0.4595    0.1403 C   0  0  0  0  0  0  0  0  0  0  0  0
    1.1877   -0.9207   -0.2645 C   0  0  0  0  0  0  0  0  0  0  0  0
    0.2296   -0.1518    0.3905 O   0  0  0  0  0  0  0  0  0  0  0  0
   -1.0580   -0.5084    0.0760 C   0  0  0  0  0  0  0  0  0  0  0  0
   -1.4347   -1.9441    0.4110 C   0  0  0  0  0  0  0  0  0  0  0  0
   -1.7755    0.0778   -1.0800 C   0  0  0  0  0  0  0  0  0  0  0  0
   -2.0923    0.5724    0.3268 C   0  0  0  0  0  0  0  0  0  0  0  0
   -1.5994    1.9764    0.6086 C   0  0  0  0  0  0  0  0  0  0  0  0
    3.9495    1.1183   -0.2032 H   0  0  0  0  0  0  0  0  0  0  0  0
    2.4813    1.2728   -1.1962 H   0  0  0  0  0  0  0  0  0  0  0  0
    2.4704    1.6819    0.6033 H   0  0  0  0  0  0  0  0  0  0  0  0
    2.7679   -0.6028    1.2198 H   0  0  0  0  0  0  0  0  0  0  0  0
    3.3289   -1.0784   -0.3997 H   0  0  0  0  0  0  0  0  0  0  0  0
    1.0822   -1.9735    0.0407 H   0  0  0  0  0  0  0  0  0  0  0  0
    1.0690   -0.7394   -1.3402 H   0  0  0  0  0  0  0  0  0  0  0  0
   -1.0763   -2.6510   -0.3731 H   0  0  0  0  0  0  0  0  0  0  0  0
   -1.0883   -2.2337    1.4254 H   0  0  0  0  0  0  0  0  0  0  0  0
   -2.5471   -2.0167    0.4155 H   0  0  0  0  0  0  0  0  0  0  0  0
   -1.2732    0.7771   -1.7783 H   0  0  0  0  0  0  0  0  0  0  0  0
   -2.5943   -0.4951   -1.5338 H   0  0  0  0  0  0  0  0  0  0  0  0
   -3.0482    0.2908    0.7919 H   0  0  0  0  0  0  0  0  0  0  0  0
   -2.4345    2.6907    0.4659 H   0  0  0  0  0  0  0  0  0  0  0  0
   -1.1125    2.0680    1.5966 H   0  0  0  0  0  0  0  0  0  0  0  0
   -0.8257    2.2738   -0.1488 H   0  0  0  0  0  0  0  0  0  0  0  0
  1  2  1  0
  2  3  1  0
  3  4  1  0
  4  5  1  0
  5  6  1  0
  5  7  1  0
  7  8  1  0
  8  9  1  0
  8  5  1  0
  1 10  1  0
  1 11  1  0
  1 12  1  0
  2 13  1  0
  2 14  1  0
  3 15  1  0
  3 16  1  0
  6 17  1  0
  6 18  1  0
  6 19  1  0
  7 20  1  0
  7 21  1  0
  8 22  1  0
  9 23  1  0
  9 24  1  0
  9 25  1  0
M  END
