
     RDKit          3D

 12 11  0  0  0  0  0  0  0  0999 V2000
    1.2545    0.6441   -0.0252 C   0  0  0  0  0  0  0  0  0  0  0  0
    0.3790   -0.5368   -0.3183 C   0  0  0  0  0  0  0  0  0  0  0  0
   -0.9504   -0.3989    0.4022 C   0  0  0  0  0  0  0  0  0  0  0  0
   -1.6490    0.7266    0.0326 O   0  0  0  0  0  0  0  0  0  0  0  0
    2.0611    0.3774    0.7018 H   0  0  0  0  0  0  0  0  0  0  0  0
    0.6504    1.4630    0.4285 H   0  0  0  0  0  0  0  0  0  0  0  0
    1.6630    1.0070   -0.9844 H   0  0  0  0  0  0  0  0  0  0  0  0
    0.2472   -0.7537   -1.3837 H   0  0  0  0  0  0  0  0  0  0  0  0
    0.8585   -1.4570    0.1286 H   0  0  0  0  0  0  0  0  0  0  0  0
   -1.5160   -1.3397    0.2460 H   0  0  0  0  0  0  0  0  0  0  0  0
   -0.7344   -0.3458    1.4887 H   0  0  0  0  0  0  0  0  0  0  0  0
   -2.2638    0.6137   -0.7168 H   0  0  0  0  0  0  0  0  0  0  0  0
  1  2  1  0
  2  3  1  0
  3  4  1  0
  1  5  1  0
  1  6  1  0
  1  7  1  0
  2  8  1  0
  2  9  1  0
  3 10  1  0
  3 11  1  0
  4 12  1  0
M  END
