
     RDKit          3D

 23 22  0  0  0  0  0  0  0  0999 V2000
   -3.4496    0.3383    0.5757 C   0  0  0  0  0  0  0  0  0  0  0  0
   -1.9245    0.5141    0.4722 C   0  0  0  0  0  0  0  0  0  0  0  0
   -1.2533   -0.8057    0.2326 C   0  0  0  0  0  0  0  0  0  0  0  0
    0.0960   -0.6387    0.1530 O   0  0  0  0  0  0  0  0  0  0  0  0
    0.5743    0.1777   -0.8344 C   0  0  0  0  0  0  0  0  0  0  0  0
    2.1024    0.1854   -0.7253 C   0  0  0  0  0  0  0  0  0  0  0  0
    2.5361    0.7041    0.6274 C   0  0  0  0  0  0  0  0  0  0  0  0
    2.6048   -1.2000   -0.8595 C   0  0  0  0  0  0  0  0  0  0  0  0
    3.2758   -1.5890   -1.7958 O   0  0  0  0  0  0  0  0  0  0  0  0
   -3.6718   -0.1165    1.5586 H   0  0  0  0  0  0  0  0  0  0  0  0
   -3.8564    1.3799    0.5549 H   0  0  0  0  0  0  0  0  0  0  0  0
   -3.8327   -0.2434   -0.2792 H   0  0  0  0  0  0  0  0  0  0  0  0
   -1.5949    0.9829    1.4195 H   0  0  0  0  0  0  0  0  0  0  0  0
   -1.7835    1.2320   -0.3578 H   0  0  0  0  0  0  0  0  0  0  0  0
   -1.4564   -1.4799    1.1015 H   0  0  0  0  0  0  0  0  0  0  0  0
   -1.7003   -1.3302   -0.6422 H   0  0  0  0  0  0  0  0  0  0  0  0
    0.1914    1.2211   -0.6790 H   0  0  0  0  0  0  0  0  0  0  0  0
    0.2415   -0.1629   -1.8151 H   0  0  0  0  0  0  0  0  0  0  0  0
    2.4904    0.8139   -1.5298 H   0  0  0  0  0  0  0  0  0  0  0  0
    3.6373    0.5151    0.6920 H   0  0  0  0  0  0  0  0  0  0  0  0
    2.3525    1.7825    0.7597 H   0  0  0  0  0  0  0  0  0  0  0  0
    2.0723    0.1172    1.4344 H   0  0  0  0  0  0  0  0  0  0  0  0
    2.3485   -1.8979   -0.0633 H   0  0  0  0  0  0  0  0  0  0  0  0
  1  2  1  0
  2  3  1  0
  3  4  1  0
  4  5  1  0
  5  6  1  0
  6  7  1  0
  6  8  1  0
  8  9  2  0
  1 10  1  0
  1 11  1  0
  1 12  1  0
  2 13  1  0
  2 14  1  0
  3 15  1  0
  3 16  1  0
  5 17  1  0
  5 18  1  0
  6 19  1  0
  7 20  1  0
  7 21  1  0
  7 22  1  0
  8 23  1  0
M  END
