
     RDKit          3D

 25 24  0  0  0  0  0  0  0  0999 V2000
    3.5108    0.0826   -0.1797 C   0  0  0  0  0  0  0  0  0  0  0  0
    2.3278   -0.7274   -0.6731 C   0  0  0  0  0  0  0  0  0  0  0  0
    1.0902   -0.0546   -0.0569 C   0  0  0  0  0  0  0  0  0  0  0  0
   -0.0496   -0.7035   -0.4342 O   0  0  0  0  0  0  0  0  0  0  0  0
   -1.2340   -0.2343    0.0356 C   0  0  0  0  0  0  0  0  0  0  0  0
   -1.3151   -0.2493    1.5627 C   0  0  0  0  0  0  0  0  0  0  0  0
   -2.3215   -1.2108   -0.4378 C   0  0  0  0  0  0  0  0  0  0  0  0
   -1.6629    1.1185   -0.4154 C   0  0  0  0  0  0  0  0  0  0  0  0
   -0.8267    2.1570   -0.0985 O   0  0  0  0  0  0  0  0  0  0  0  0
    4.4623   -0.4687   -0.2985 H   0  0  0  0  0  0  0  0  0  0  0  0
    3.4981    1.0455   -0.7464 H   0  0  0  0  0  0  0  0  0  0  0  0
    3.2900    0.3517    0.8768 H   0  0  0  0  0  0  0  0  0  0  0  0
    2.4075   -1.7774   -0.3636 H   0  0  0  0  0  0  0  0  0  0  0  0
    2.2373   -0.5716   -1.7592 H   0  0  0  0  0  0  0  0  0  0  0  0
    1.1247    0.9779   -0.5174 H   0  0  0  0  0  0  0  0  0  0  0  0
    1.2705   -0.0089    1.0174 H   0  0  0  0  0  0  0  0  0  0  0  0
   -0.6708    0.5345    2.0108 H   0  0  0  0  0  0  0  0  0  0  0  0
   -1.0924   -1.2555    1.9617 H   0  0  0  0  0  0  0  0  0  0  0  0
   -2.3696    0.0238    1.8048 H   0  0  0  0  0  0  0  0  0  0  0  0
   -1.9515   -1.8143   -1.2961 H   0  0  0  0  0  0  0  0  0  0  0  0
   -3.2361   -0.6905   -0.7421 H   0  0  0  0  0  0  0  0  0  0  0  0
   -2.6055   -1.9153    0.3730 H   0  0  0  0  0  0  0  0  0  0  0  0
   -2.6452    1.3277    0.1026 H   0  0  0  0  0  0  0  0  0  0  0  0
   -1.9220    1.0635   -1.4912 H   0  0  0  0  0  0  0  0  0  0  0  0
   -1.3164    2.9996   -0.1717 H   0  0  0  0  0  0  0  0  0  0  0  0
  1  2  1  0
  2  3  1  0
  3  4  1  0
  4  5  1  0
  5  6  1  0
  5  7  1  0
  5  8  1  0
  8  9  1  0
  1 10  1  0
  1 11  1  0
  1 12  1  0
  2 13  1  0
  2 14  1  0
  3 15  1  0
  3 16  1  0
  6 17  1  0
  6 18  1  0
  6 19  1  0
  7 20  1  0
  7 21  1  0
  7 22  1  0
  8 23  1  0
  8 24  1  0
  9 25  1  0
M  END
