
     RDKit          3D

 19 19  0  0  0  0  0  0  0  0999 V2000
    3.3113    0.3374    0.0156 C   0  0  0  0  0  0  0  0  0  0  0  0
    1.8792    0.7189   -0.1459 C   0  0  0  0  0  0  0  0  0  0  0  0
    0.9341   -0.4522   -0.0037 C   0  0  0  0  0  0  0  0  0  0  0  0
   -0.4084   -0.0312   -0.1658 O   0  0  0  0  0  0  0  0  0  0  0  0
   -1.4521   -0.9357   -0.0768 C   0  0  0  0  0  0  0  0  0  0  0  0
   -1.1295   -2.1301    0.1531 O   0  0  0  0  0  0  0  0  0  0  0  0
   -2.8635   -0.6128   -0.2263 C   0  0  0  0  0  0  0  0  0  0  0  0
   -3.2894    0.6658    0.4615 C   0  0  0  0  0  0  0  0  0  0  0  0
   -3.3014    0.4727   -0.9573 O   0  0  0  0  0  0  0  0  0  0  0  0
    3.6309    0.1968    1.0546 H   0  0  0  0  0  0  0  0  0  0  0  0
    3.9277    1.1350   -0.4943 H   0  0  0  0  0  0  0  0  0  0  0  0
    3.4866   -0.5795   -0.6119 H   0  0  0  0  0  0  0  0  0  0  0  0
    1.5980    1.5291    0.5781 H   0  0  0  0  0  0  0  0  0  0  0  0
    1.7575    1.1703   -1.1514 H   0  0  0  0  0  0  0  0  0  0  0  0
    1.1751   -1.1751   -0.8244 H   0  0  0  0  0  0  0  0  0  0  0  0
    1.1006   -1.0052    0.9431 H   0  0  0  0  0  0  0  0  0  0  0  0
   -3.5773   -1.4316   -0.1304 H   0  0  0  0  0  0  0  0  0  0  0  0
   -4.2637    0.6986    0.9716 H   0  0  0  0  0  0  0  0  0  0  0  0
   -2.5158    1.4287    0.7045 H   0  0  0  0  0  0  0  0  0  0  0  0
  1  2  1  0
  2  3  1  0
  3  4  1  0
  4  5  1  0
  5  6  2  0
  5  7  1  0
  7  8  1  0
  8  9  1  0
  9  7  1  0
  1 10  1  0
  1 11  1  0
  1 12  1  0
  2 13  1  0
  2 14  1  0
  3 15  1  0
  3 16  1  0
  7 17  1  0
  8 18  1  0
  8 19  1  0
M  END
