
     RDKit          3D

 21 21  0  0  0  0  0  0  0  0999 V2000
    2.0059    0.4455   -1.0343 C   0  0  0  0  0  0  0  0  0  0  0  0
    1.9655   -0.9885   -0.5967 C   0  0  0  0  0  0  0  0  0  0  0  0
    1.1049   -1.3181    0.5633 C   0  0  0  0  0  0  0  0  0  0  0  0
   -0.2171   -1.1018    0.5060 O   0  0  0  0  0  0  0  0  0  0  0  0
   -0.7515    0.1285    0.3983 C   0  0  0  0  0  0  0  0  0  0  0  0
   -1.6973    0.2988   -0.8033 C   0  0  0  0  0  0  0  0  0  0  0  0
   -2.4974    1.1972    0.1175 C   0  0  0  0  0  0  0  0  0  0  0  0
   -1.9934    0.3631    1.2393 C   0  0  0  0  0  0  0  0  0  0  0  0
   -2.4390    0.0534    2.3209 O   0  0  0  0  0  0  0  0  0  0  0  0
    1.1054    0.7766   -1.5942 H   0  0  0  0  0  0  0  0  0  0  0  0
    2.9257    0.6102   -1.6983 H   0  0  0  0  0  0  0  0  0  0  0  0
    2.1670    1.1076   -0.1736 H   0  0  0  0  0  0  0  0  0  0  0  0
    3.0375   -1.2353   -0.3116 H   0  0  0  0  0  0  0  0  0  0  0  0
    1.7637   -1.6505   -1.4822 H   0  0  0  0  0  0  0  0  0  0  0  0
    1.2402   -2.4397    0.7383 H   0  0  0  0  0  0  0  0  0  0  0  0
    1.5918   -0.8937    1.4880 H   0  0  0  0  0  0  0  0  0  0  0  0
   -0.0742    0.9759    0.3966 H   0  0  0  0  0  0  0  0  0  0  0  0
   -1.2870    0.8833   -1.6340 H   0  0  0  0  0  0  0  0  0  0  0  0
   -2.2214   -0.6331   -1.0483 H   0  0  0  0  0  0  0  0  0  0  0  0
   -3.5903    1.1694   -0.0404 H   0  0  0  0  0  0  0  0  0  0  0  0
   -2.1390    2.2513    0.1320 H   0  0  0  0  0  0  0  0  0  0  0  0
  1  2  1  0
  2  3  1  0
  3  4  1  0
  4  5  1  0
  5  6  1  0
  6  7  1  0
  7  8  1  0
  8  9  2  0
  8  5  1  0
  1 10  1  0
  1 11  1  0
  1 12  1  0
  2 13  1  0
  2 14  1  0
  3 15  1  0
  3 16  1  0
  5 17  1  0
  6 18  1  0
  6 19  1  0
  7 20  1  0
  7 21  1  0
M  END
