
     RDKit          3D

 21 22  0  0  0  0  0  0  0  0999 V2000
    2.7898    0.3735   -0.2658 C   0  0  0  0  0  0  0  0  0  0  0  0
    2.1231   -0.9948   -0.2057 C   0  0  0  0  0  0  0  0  0  0  0  0
    0.7521   -0.8605    0.4766 C   0  0  0  0  0  0  0  0  0  0  0  0
    0.0205    0.0019   -0.2759 O   0  0  0  0  0  0  0  0  0  0  0  0
   -1.2341    0.2780    0.1322 C   0  0  0  0  0  0  0  0  0  0  0  0
   -2.3001   -0.7651    0.2843 C   0  0  0  0  0  0  0  0  0  0  0  0
   -2.8536   -0.2941   -0.9054 O   0  0  0  0  0  0  0  0  0  0  0  0
   -2.1359    0.8722   -0.9789 C   0  0  0  0  0  0  0  0  0  0  0  0
   -1.7575    1.6666    0.2046 C   0  0  0  0  0  0  0  0  0  0  0  0
    3.8104    0.2425    0.1893 H   0  0  0  0  0  0  0  0  0  0  0  0
    2.8552    0.7625   -1.2978 H   0  0  0  0  0  0  0  0  0  0  0  0
    2.2405    1.1065    0.3925 H   0  0  0  0  0  0  0  0  0  0  0  0
    1.9757   -1.3151   -1.2608 H   0  0  0  0  0  0  0  0  0  0  0  0
    2.7433   -1.7393    0.3266 H   0  0  0  0  0  0  0  0  0  0  0  0
    0.3010   -1.8949    0.4367 H   0  0  0  0  0  0  0  0  0  0  0  0
    0.8851   -0.6151    1.5250 H   0  0  0  0  0  0  0  0  0  0  0  0
   -1.9867   -1.8040    0.2962 H   0  0  0  0  0  0  0  0  0  0  0  0
   -2.9970   -0.4764    1.1236 H   0  0  0  0  0  0  0  0  0  0  0  0
   -1.6818    1.1069   -1.9388 H   0  0  0  0  0  0  0  0  0  0  0  0
   -1.0834    2.5126    0.0299 H   0  0  0  0  0  0  0  0  0  0  0  0
   -2.4666    1.8361    1.0504 H   0  0  0  0  0  0  0  0  0  0  0  0
  1  2  1  0
  2  3  1  0
  3  4  1  0
  4  5  1  0
  5  6  1  0
  6  7  1  0
  7  8  1  0
  8  9  1  0
  8  5  1  0
  9  5  1  0
  1 10  1  0
  1 11  1  0
  1 12  1  0
  2 13  1  0
  2 14  1  0
  3 15  1  0
  3 16  1  0
  6 17  1  0
  6 18  1  0
  8 19  1  0
  9 20  1  0
  9 21  1  0
M  END
