
     RDKit          3D

 25 24  0  0  0  0  0  0  0  0999 V2000
   -2.9192    0.0394    1.4505 C   0  0  0  0  0  0  0  0  0  0  0  0
   -2.8968   -0.7645    0.1666 C   0  0  0  0  0  0  0  0  0  0  0  0
   -1.8832   -0.1057   -0.7461 C   0  0  0  0  0  0  0  0  0  0  0  0
   -0.6542   -0.1419   -0.0920 O   0  0  0  0  0  0  0  0  0  0  0  0
    0.3035    0.4639   -0.9192 C   0  0  0  0  0  0  0  0  0  0  0  0
    1.6603    0.4560   -0.2646 C   0  0  0  0  0  0  0  0  0  0  0  0
    2.6453    1.0113   -1.3013 C   0  0  0  0  0  0  0  0  0  0  0  0
    2.0482   -0.8399   -0.0186 O   0  0  0  0  0  0  0  0  0  0  0  0
    2.4277   -1.0575    1.3035 C   0  0  0  0  0  0  0  0  0  0  0  0
   -3.1673    1.0990    1.1679 H   0  0  0  0  0  0  0  0  0  0  0  0
   -1.8958    0.0410    1.8508 H   0  0  0  0  0  0  0  0  0  0  0  0
   -3.6670   -0.3684    2.1673 H   0  0  0  0  0  0  0  0  0  0  0  0
   -2.5395   -1.7830    0.3626 H   0  0  0  0  0  0  0  0  0  0  0  0
   -3.9015   -0.7398   -0.3119 H   0  0  0  0  0  0  0  0  0  0  0  0
   -2.1378    0.9593   -0.9382 H   0  0  0  0  0  0  0  0  0  0  0  0
   -1.7569   -0.6635   -1.6966 H   0  0  0  0  0  0  0  0  0  0  0  0
   -0.0406    1.4875   -1.1658 H   0  0  0  0  0  0  0  0  0  0  0  0
    0.3552   -0.0971   -1.8728 H   0  0  0  0  0  0  0  0  0  0  0  0
    1.7044    1.1250    0.6037 H   0  0  0  0  0  0  0  0  0  0  0  0
    2.4842    2.0743   -1.4931 H   0  0  0  0  0  0  0  0  0  0  0  0
    3.6624    0.7626   -0.9612 H   0  0  0  0  0  0  0  0  0  0  0  0
    2.4065    0.4559   -2.2437 H   0  0  0  0  0  0  0  0  0  0  0  0
    3.2962   -0.4023    1.5930 H   0  0  0  0  0  0  0  0  0  0  0  0
    1.6174   -0.9147    2.0261 H   0  0  0  0  0  0  0  0  0  0  0  0
    2.8485   -2.0970    1.3333 H   0  0  0  0  0  0  0  0  0  0  0  0
  1  2  1  0
  2  3  1  0
  3  4  1  0
  4  5  1  0
  5  6  1  0
  6  7  1  0
  6  8  1  0
  8  9  1  0
  1 10  1  0
  1 11  1  0
  1 12  1  0
  2 13  1  0
  2 14  1  0
  3 15  1  0
  3 16  1  0
  5 17  1  0
  5 18  1  0
  6 19  1  0
  7 20  1  0
  7 21  1  0
  7 22  1  0
  9 23  1  0
  9 24  1  0
  9 25  1  0
M  END
