
     RDKit          3D

 25 24  0  0  0  0  0  0  0  0999 V2000
    2.6147    0.9672   -0.3747 C   0  0  0  0  0  0  0  0  0  0  0  0
    2.0522   -0.2855   -0.9717 C   0  0  0  0  0  0  0  0  0  0  0  0
    1.5363   -1.2649    0.0189 C   0  0  0  0  0  0  0  0  0  0  0  0
    0.5204   -0.8359    0.8308 O   0  0  0  0  0  0  0  0  0  0  0  0
   -0.6263   -0.4556    0.1776 C   0  0  0  0  0  0  0  0  0  0  0  0
   -0.9637    1.0166    0.4204 C   0  0  0  0  0  0  0  0  0  0  0  0
   -2.2275    1.3966   -0.3112 C   0  0  0  0  0  0  0  0  0  0  0  0
   -1.8202   -1.3156    0.5432 C   0  0  0  0  0  0  0  0  0  0  0  0
   -2.1223   -1.2783    1.8832 O   0  0  0  0  0  0  0  0  0  0  0  0
    2.4660    1.8292   -1.0862 H   0  0  0  0  0  0  0  0  0  0  0  0
    3.7156    0.8804   -0.2556 H   0  0  0  0  0  0  0  0  0  0  0  0
    2.1929    1.2538    0.5870 H   0  0  0  0  0  0  0  0  0  0  0  0
    1.2880   -0.0214   -1.7269 H   0  0  0  0  0  0  0  0  0  0  0  0
    2.8655   -0.7955   -1.5452 H   0  0  0  0  0  0  0  0  0  0  0  0
    2.3444   -1.7054    0.6353 H   0  0  0  0  0  0  0  0  0  0  0  0
    1.1244   -2.1337   -0.5771 H   0  0  0  0  0  0  0  0  0  0  0  0
   -0.4870   -0.5765   -0.9096 H   0  0  0  0  0  0  0  0  0  0  0  0
   -1.0464    1.2146    1.5074 H   0  0  0  0  0  0  0  0  0  0  0  0
   -0.1618    1.6653    0.0380 H   0  0  0  0  0  0  0  0  0  0  0  0
   -2.3010    2.5146   -0.2494 H   0  0  0  0  0  0  0  0  0  0  0  0
   -3.1370    0.9484    0.1222 H   0  0  0  0  0  0  0  0  0  0  0  0
   -2.1044    1.1054   -1.3782 H   0  0  0  0  0  0  0  0  0  0  0  0
   -2.6763   -1.0335   -0.0719 H   0  0  0  0  0  0  0  0  0  0  0  0
   -1.5435   -2.3671    0.2890 H   0  0  0  0  0  0  0  0  0  0  0  0
   -1.5030   -0.7231    2.4048 H   0  0  0  0  0  0  0  0  0  0  0  0
  1  2  1  0
  2  3  1  0
  3  4  1  0
  4  5  1  0
  5  6  1  0
  6  7  1  0
  5  8  1  0
  8  9  1  0
  1 10  1  0
  1 11  1  0
  1 12  1  0
  2 13  1  0
  2 14  1  0
  3 15  1  0
  3 16  1  0
  5 17  1  0
  6 18  1  0
  6 19  1  0
  7 20  1  0
  7 21  1  0
  7 22  1  0
  8 23  1  0
  8 24  1  0
  9 25  1  0
M  END
