
     RDKit          3D

 25 25  0  0  0  0  0  0  0  0999 V2000
    3.3762    0.0436    0.3989 C   0  0  0  0  0  0  0  0  0  0  0  0
    2.5987    1.1007   -0.3459 C   0  0  0  0  0  0  0  0  0  0  0  0
    1.2043    0.5842   -0.6748 C   0  0  0  0  0  0  0  0  0  0  0  0
    0.5423    0.2712    0.5094 O   0  0  0  0  0  0  0  0  0  0  0  0
   -0.7364   -0.2103    0.2890 C   0  0  0  0  0  0  0  0  0  0  0  0
   -1.6698    0.7229   -0.4254 C   0  0  0  0  0  0  0  0  0  0  0  0
   -3.0423    0.1369   -0.6305 C   0  0  0  0  0  0  0  0  0  0  0  0
   -1.3972   -1.0513    1.3604 C   0  0  0  0  0  0  0  0  0  0  0  0
   -0.8539   -1.6776    0.1109 C   0  0  0  0  0  0  0  0  0  0  0  0
    3.1287   -0.9356   -0.1022 H   0  0  0  0  0  0  0  0  0  0  0  0
    4.4605    0.2188    0.3695 H   0  0  0  0  0  0  0  0  0  0  0  0
    2.9593   -0.0301    1.4202 H   0  0  0  0  0  0  0  0  0  0  0  0
    2.4589    1.9569    0.3409 H   0  0  0  0  0  0  0  0  0  0  0  0
    3.1419    1.3924   -1.2438 H   0  0  0  0  0  0  0  0  0  0  0  0
    0.7073    1.4429   -1.2057 H   0  0  0  0  0  0  0  0  0  0  0  0
    1.2264   -0.2555   -1.3923 H   0  0  0  0  0  0  0  0  0  0  0  0
   -1.2805    1.0741   -1.4102 H   0  0  0  0  0  0  0  0  0  0  0  0
   -1.7989    1.6397    0.1940 H   0  0  0  0  0  0  0  0  0  0  0  0
   -3.5952    0.2018    0.3361 H   0  0  0  0  0  0  0  0  0  0  0  0
   -3.5850    0.8593   -1.3085 H   0  0  0  0  0  0  0  0  0  0  0  0
   -3.0523   -0.8530   -1.0870 H   0  0  0  0  0  0  0  0  0  0  0  0
   -2.4792   -1.0624    1.4813 H   0  0  0  0  0  0  0  0  0  0  0  0
   -0.8320   -1.1415    2.3107 H   0  0  0  0  0  0  0  0  0  0  0  0
    0.0512   -2.2954    0.2831 H   0  0  0  0  0  0  0  0  0  0  0  0
   -1.5330   -2.1328   -0.6373 H   0  0  0  0  0  0  0  0  0  0  0  0
  1  2  1  0
  2  3  1  0
  3  4  1  0
  4  5  1  0
  5  6  1  0
  6  7  1  0
  5  8  1  0
  8  9  1  0
  9  5  1  0
  1 10  1  0
  1 11  1  0
  1 12  1  0
  2 13  1  0
  2 14  1  0
  3 15  1  0
  3 16  1  0
  6 17  1  0
  6 18  1  0
  7 19  1  0
  7 20  1  0
  7 21  1  0
  8 22  1  0
  8 23  1  0
  9 24  1  0
  9 25  1  0
M  END
