
     RDKit          3D

 23 24  0  0  0  0  0  0  0  0999 V2000
    3.1030    0.1631   -0.6505 C   0  0  0  0  0  0  0  0  0  0  0  0
    2.6558   -0.6375    0.5588 C   0  0  0  0  0  0  0  0  0  0  0  0
    1.2915   -0.1678    1.0216 C   0  0  0  0  0  0  0  0  0  0  0  0
    0.3943   -0.3430    0.0019 O   0  0  0  0  0  0  0  0  0  0  0  0
   -0.8866    0.0355    0.2658 C   0  0  0  0  0  0  0  0  0  0  0  0
   -1.8316   -1.1048   -0.1956 C   0  0  0  0  0  0  0  0  0  0  0  0
   -2.8111    0.0488   -0.0828 C   0  0  0  0  0  0  0  0  0  0  0  0
   -2.9559    1.1715   -0.9386 C   0  0  0  0  0  0  0  0  0  0  0  0
   -1.6178    0.7209   -0.8923 C   0  0  0  0  0  0  0  0  0  0  0  0
    2.5619   -0.1082   -1.5673 H   0  0  0  0  0  0  0  0  0  0  0  0
    2.9611    1.2289   -0.3990 H   0  0  0  0  0  0  0  0  0  0  0  0
    4.1861   -0.0430   -0.8034 H   0  0  0  0  0  0  0  0  0  0  0  0
    3.3834   -0.4028    1.3715 H   0  0  0  0  0  0  0  0  0  0  0  0
    2.6855   -1.6965    0.3063 H   0  0  0  0  0  0  0  0  0  0  0  0
    1.0401   -0.6542    1.9655 H   0  0  0  0  0  0  0  0  0  0  0  0
    1.3853    0.9318    1.2151 H   0  0  0  0  0  0  0  0  0  0  0  0
   -1.1352    0.4470    1.2415 H   0  0  0  0  0  0  0  0  0  0  0  0
   -1.5612   -1.4141   -1.2065 H   0  0  0  0  0  0  0  0  0  0  0  0
   -1.9528   -1.8697    0.5614 H   0  0  0  0  0  0  0  0  0  0  0  0
   -2.8193    0.3299    1.0226 H   0  0  0  0  0  0  0  0  0  0  0  0
   -3.6051    1.0265   -1.8556 H   0  0  0  0  0  0  0  0  0  0  0  0
   -3.1626    2.2097   -0.5365 H   0  0  0  0  0  0  0  0  0  0  0  0
   -1.3088    0.1278   -1.8144 H   0  0  0  0  0  0  0  0  0  0  0  0
  1  2  1  0
  2  3  1  0
  3  4  1  0
  4  5  1  0
  5  6  1  0
  6  7  1  0
  7  8  1  0
  8  9  1  0
  9  5  1  0
  9  7  1  0
  1 10  1  0
  1 11  1  0
  1 12  1  0
  2 13  1  0
  2 14  1  0
  3 15  1  0
  3 16  1  0
  5 17  1  0
  6 18  1  0
  6 19  1  0
  7 20  1  0
  8 21  1  0
  8 22  1  0
  9 23  1  0
M  END
