
     RDKit          3D

 20 19  0  0  0  0  0  0  0  0999 V2000
    2.3769    0.8256    0.3976 C   0  0  0  0  0  0  0  0  0  0  0  0
    1.8887   -0.5825    0.5653 C   0  0  0  0  0  0  0  0  0  0  0  0
    1.1272   -1.0836   -0.6287 C   0  0  0  0  0  0  0  0  0  0  0  0
    0.0052   -0.3485   -0.9317 O   0  0  0  0  0  0  0  0  0  0  0  0
   -0.9375   -0.2961    0.0561 C   0  0  0  0  0  0  0  0  0  0  0  0
   -2.0945    0.5528   -0.4618 C   0  0  0  0  0  0  0  0  0  0  0  0
   -3.1720    0.6693    0.5423 C   0  0  0  0  0  0  0  0  0  0  0  0
   -4.1752    1.3069    0.3106 O   0  0  0  0  0  0  0  0  0  0  0  0
    3.1916    1.0407    1.1172 H   0  0  0  0  0  0  0  0  0  0  0  0
    1.5612    1.5636    0.6347 H   0  0  0  0  0  0  0  0  0  0  0  0
    2.7487    0.9722   -0.6338 H   0  0  0  0  0  0  0  0  0  0  0  0
    1.2793   -0.6332    1.4840 H   0  0  0  0  0  0  0  0  0  0  0  0
    2.7785   -1.2225    0.7201 H   0  0  0  0  0  0  0  0  0  0  0  0
    1.8450   -1.1408   -1.4729 H   0  0  0  0  0  0  0  0  0  0  0  0
    0.8717   -2.1607   -0.4037 H   0  0  0  0  0  0  0  0  0  0  0  0
   -1.3653   -1.3329    0.1697 H   0  0  0  0  0  0  0  0  0  0  0  0
   -0.5959    0.0181    1.0386 H   0  0  0  0  0  0  0  0  0  0  0  0
   -2.5069    0.0785   -1.3707 H   0  0  0  0  0  0  0  0  0  0  0  0
   -1.7409    1.5850   -0.6835 H   0  0  0  0  0  0  0  0  0  0  0  0
   -3.0856    0.1882    1.5017 H   0  0  0  0  0  0  0  0  0  0  0  0
  1  2  1  0
  2  3  1  0
  3  4  1  0
  4  5  1  0
  5  6  1  0
  6  7  1  0
  7  8  2  0
  1  9  1  0
  1 10  1  0
  1 11  1  0
  2 12  1  0
  2 13  1  0
  3 14  1  0
  3 15  1  0
  5 16  1  0
  5 17  1  0
  6 18  1  0
  6 19  1  0
  7 20  1  0
M  END
