
     RDKit          3D

 20 19  0  0  0  0  0  0  0  0999 V2000
    2.3707    0.7602    0.9223 C   0  0  0  0  0  0  0  0  0  0  0  0
    2.2336    0.1045   -0.4128 C   0  0  0  0  0  0  0  0  0  0  0  0
    1.0272   -0.8105   -0.4859 C   0  0  0  0  0  0  0  0  0  0  0  0
   -0.1530   -0.1350   -0.2585 O   0  0  0  0  0  0  0  0  0  0  0  0
   -1.2026   -1.0186   -0.3387 C   0  0  0  0  0  0  0  0  0  0  0  0
   -2.5152   -0.3675   -0.1050 C   0  0  0  0  0  0  0  0  0  0  0  0
   -2.6229    1.0827    0.1795 C   0  0  0  0  0  0  0  0  0  0  0  0
   -3.5209   -1.0545   -0.1513 O   0  0  0  0  0  0  0  0  0  0  0  0
    2.0281    0.1398    1.7648 H   0  0  0  0  0  0  0  0  0  0  0  0
    3.4441    0.9825    1.0904 H   0  0  0  0  0  0  0  0  0  0  0  0
    1.8588    1.7619    0.9534 H   0  0  0  0  0  0  0  0  0  0  0  0
    2.1190    0.8828   -1.1785 H   0  0  0  0  0  0  0  0  0  0  0  0
    3.1728   -0.4366   -0.6403 H   0  0  0  0  0  0  0  0  0  0  0  0
    1.0323   -1.3579   -1.4421 H   0  0  0  0  0  0  0  0  0  0  0  0
    1.1743   -1.5771    0.3161 H   0  0  0  0  0  0  0  0  0  0  0  0
   -1.1012   -1.8852    0.3649 H   0  0  0  0  0  0  0  0  0  0  0  0
   -1.2386   -1.4732   -1.3696 H   0  0  0  0  0  0  0  0  0  0  0  0
   -3.6217    1.4489   -0.1816 H   0  0  0  0  0  0  0  0  0  0  0  0
   -1.8543    1.6811   -0.3189 H   0  0  0  0  0  0  0  0  0  0  0  0
   -2.6305    1.2717    1.2917 H   0  0  0  0  0  0  0  0  0  0  0  0
  1  2  1  0
  2  3  1  0
  3  4  1  0
  4  5  1  0
  5  6  1  0
  6  7  1  0
  6  8  2  0
  1  9  1  0
  1 10  1  0
  1 11  1  0
  2 12  1  0
  2 13  1  0
  3 14  1  0
  3 15  1  0
  5 16  1  0
  5 17  1  0
  7 18  1  0
  7 19  1  0
  7 20  1  0
M  END
