
     RDKit          3D

 27 26  0  0  0  0  0  0  0  0999 V2000
    3.0874    0.7525    0.3783 C   0  0  0  0  0  0  0  0  0  0  0  0
    2.8813   -0.7486    0.5079 C   0  0  0  0  0  0  0  0  0  0  0  0
    1.5294   -1.0928   -0.0816 C   0  0  0  0  0  0  0  0  0  0  0  0
    0.5671   -0.3919    0.6400 O   0  0  0  0  0  0  0  0  0  0  0  0
   -0.7207   -0.6470    0.1663 C   0  0  0  0  0  0  0  0  0  0  0  0
   -1.6054   -1.2613    1.2027 C   0  0  0  0  0  0  0  0  0  0  0  0
   -1.2696    0.6389   -0.3975 C   0  0  0  0  0  0  0  0  0  0  0  0
   -1.3442    1.7395    0.6196 C   0  0  0  0  0  0  0  0  0  0  0  0
   -2.5587    0.4054   -1.1245 C   0  0  0  0  0  0  0  0  0  0  0  0
    2.5687    1.1477   -0.5291 H   0  0  0  0  0  0  0  0  0  0  0  0
    4.1939    0.8960    0.2283 H   0  0  0  0  0  0  0  0  0  0  0  0
    2.7556    1.2967    1.2936 H   0  0  0  0  0  0  0  0  0  0  0  0
    3.6960   -1.3288    0.0597 H   0  0  0  0  0  0  0  0  0  0  0  0
    2.8792   -0.9489    1.6176 H   0  0  0  0  0  0  0  0  0  0  0  0
    1.3442   -2.1676   -0.1286 H   0  0  0  0  0  0  0  0  0  0  0  0
    1.5268   -0.7185   -1.1345 H   0  0  0  0  0  0  0  0  0  0  0  0
   -0.6193   -1.3585   -0.6791 H   0  0  0  0  0  0  0  0  0  0  0  0
   -2.0091   -2.2484    0.8658 H   0  0  0  0  0  0  0  0  0  0  0  0
   -2.5003   -0.6450    1.4483 H   0  0  0  0  0  0  0  0  0  0  0  0
   -1.0750   -1.4815    2.1633 H   0  0  0  0  0  0  0  0  0  0  0  0
   -0.5226    0.9767   -1.1739 H   0  0  0  0  0  0  0  0  0  0  0  0
   -2.3149    2.2673    0.4563 H   0  0  0  0  0  0  0  0  0  0  0  0
   -0.5549    2.5102    0.4894 H   0  0  0  0  0  0  0  0  0  0  0  0
   -1.3865    1.3511    1.6559 H   0  0  0  0  0  0  0  0  0  0  0  0
   -3.3958    0.2726   -0.4176 H   0  0  0  0  0  0  0  0  0  0  0  0
   -2.7388    1.2628   -1.8256 H   0  0  0  0  0  0  0  0  0  0  0  0
   -2.4139   -0.4786   -1.7811 H   0  0  0  0  0  0  0  0  0  0  0  0
  1  2  1  0
  2  3  1  0
  3  4  1  0
  4  5  1  0
  5  6  1  0
  5  7  1  0
  7  8  1  0
  7  9  1  0
  1 10  1  0
  1 11  1  0
  1 12  1  0
  2 13  1  0
  2 14  1  0
  3 15  1  0
  3 16  1  0
  5 17  1  0
  6 18  1  0
  6 19  1  0
  6 20  1  0
  7 21  1  0
  8 22  1  0
  8 23  1  0
  8 24  1  0
  9 25  1  0
  9 26  1  0
  9 27  1  0
M  END
