
     RDKit          3D

 25 25  0  0  0  0  0  0  0  0999 V2000
    3.8568   -0.1007   -0.8541 C   0  0  0  0  0  0  0  0  0  0  0  0
    2.7055   -0.7072   -0.0471 C   0  0  0  0  0  0  0  0  0  0  0  0
    1.5167    0.2164   -0.2506 C   0  0  0  0  0  0  0  0  0  0  0  0
    0.4117   -0.2401    0.4396 O   0  0  0  0  0  0  0  0  0  0  0  0
   -0.6441    0.6382    0.2201 C   0  0  0  0  0  0  0  0  0  0  0  0
   -1.6022    0.7740    1.3507 C   0  0  0  0  0  0  0  0  0  0  0  0
   -2.0444    0.0548    0.1139 C   0  0  0  0  0  0  0  0  0  0  0  0
   -3.0433    0.7678   -0.7708 C   0  0  0  0  0  0  0  0  0  0  0  0
   -2.0815   -1.4516    0.1320 C   0  0  0  0  0  0  0  0  0  0  0  0
    3.4435    0.1744   -1.8458 H   0  0  0  0  0  0  0  0  0  0  0  0
    4.1745    0.8211   -0.3319 H   0  0  0  0  0  0  0  0  0  0  0  0
    4.6712   -0.8310   -0.9826 H   0  0  0  0  0  0  0  0  0  0  0  0
    2.4932   -1.7473   -0.3563 H   0  0  0  0  0  0  0  0  0  0  0  0
    3.0144   -0.6997    1.0179 H   0  0  0  0  0  0  0  0  0  0  0  0
    1.2457    0.3163   -1.3090 H   0  0  0  0  0  0  0  0  0  0  0  0
    1.8184    1.1982    0.2062 H   0  0  0  0  0  0  0  0  0  0  0  0
   -0.4508    1.4998   -0.4233 H   0  0  0  0  0  0  0  0  0  0  0  0
   -1.4766    0.1225    2.2398 H   0  0  0  0  0  0  0  0  0  0  0  0
   -1.9311    1.7909    1.5738 H   0  0  0  0  0  0  0  0  0  0  0  0
   -2.7492    1.8390   -0.8015 H   0  0  0  0  0  0  0  0  0  0  0  0
   -4.0559    0.7347   -0.3198 H   0  0  0  0  0  0  0  0  0  0  0  0
   -3.0887    0.3460   -1.7905 H   0  0  0  0  0  0  0  0  0  0  0  0
   -1.3698   -1.8759   -0.6105 H   0  0  0  0  0  0  0  0  0  0  0  0
   -3.0794   -1.8564   -0.1314 H   0  0  0  0  0  0  0  0  0  0  0  0
   -1.7346   -1.7842    1.1275 H   0  0  0  0  0  0  0  0  0  0  0  0
  1  2  1  0
  2  3  1  0
  3  4  1  0
  4  5  1  0
  5  6  1  0
  6  7  1  0
  7  8  1  0
  7  9  1  0
  7  5  1  0
  1 10  1  0
  1 11  1  0
  1 12  1  0
  2 13  1  0
  2 14  1  0
  3 15  1  0
  3 16  1  0
  5 17  1  0
  6 18  1  0
  6 19  1  0
  8 20  1  0
  8 21  1  0
  8 22  1  0
  9 23  1  0
  9 24  1  0
  9 25  1  0
M  END
