
     RDKit          3D

 20 19  0  0  0  0  0  0  0  0999 V2000
   -3.6359    0.0047   -0.0112 C   0  0  0  0  0  0  0  0  0  0  0  0
   -2.2792   -0.0328    0.6180 C   0  0  0  0  0  0  0  0  0  0  0  0
   -1.1613    0.0235   -0.4118 C   0  0  0  0  0  0  0  0  0  0  0  0
    0.0460   -0.0193    0.3150 O   0  0  0  0  0  0  0  0  0  0  0  0
    1.2615    0.0161   -0.3497 C   0  0  0  0  0  0  0  0  0  0  0  0
    1.2122    0.0867   -1.6048 O   0  0  0  0  0  0  0  0  0  0  0  0
    2.5336   -0.0292    0.4188 C   0  0  0  0  0  0  0  0  0  0  0  0
    3.6870    0.0239   -0.5579 C   0  0  0  0  0  0  0  0  0  0  0  0
   -4.3660    0.2683    0.7977 H   0  0  0  0  0  0  0  0  0  0  0  0
   -3.7089    0.7597   -0.8226 H   0  0  0  0  0  0  0  0  0  0  0  0
   -3.8952   -1.0169   -0.3559 H   0  0  0  0  0  0  0  0  0  0  0  0
   -2.1498    0.8477    1.2785 H   0  0  0  0  0  0  0  0  0  0  0  0
   -2.1711   -0.9703    1.1994 H   0  0  0  0  0  0  0  0  0  0  0  0
   -1.2660    0.9451   -1.0194 H   0  0  0  0  0  0  0  0  0  0  0  0
   -1.2237   -0.8464   -1.1059 H   0  0  0  0  0  0  0  0  0  0  0  0
    2.6478    0.8322    1.1079 H   0  0  0  0  0  0  0  0  0  0  0  0
    2.6364   -1.0055    0.9709 H   0  0  0  0  0  0  0  0  0  0  0  0
    3.3715   -0.5460   -1.4565 H   0  0  0  0  0  0  0  0  0  0  0  0
    3.8592    1.1011   -0.7880 H   0  0  0  0  0  0  0  0  0  0  0  0
    4.6020   -0.4426   -0.1045 H   0  0  0  0  0  0  0  0  0  0  0  0
  1  2  1  0
  2  3  1  0
  3  4  1  0
  4  5  1  0
  5  6  2  0
  5  7  1  0
  7  8  1  0
  1  9  1  0
  1 10  1  0
  1 11  1  0
  2 12  1  0
  2 13  1  0
  3 14  1  0
  3 15  1  0
  7 16  1  0
  7 17  1  0
  8 18  1  0
  8 19  1  0
  8 20  1  0
M  END
