
     RDKit          3D

 23 22  0  0  0  0  0  0  0  0999 V2000
    3.4834   -0.5843   -0.6256 C   0  0  0  0  0  0  0  0  0  0  0  0
    2.4638    0.3375    0.0448 C   0  0  0  0  0  0  0  0  0  0  0  0
    1.0987   -0.2113   -0.3045 C   0  0  0  0  0  0  0  0  0  0  0  0
    0.0591    0.5115    0.2272 O   0  0  0  0  0  0  0  0  0  0  0  0
   -1.1260   -0.0914   -0.1646 C   0  0  0  0  0  0  0  0  0  0  0  0
   -1.9359   -0.5876    1.0079 C   0  0  0  0  0  0  0  0  0  0  0  0
   -2.3000    0.3981    1.8894 O   0  0  0  0  0  0  0  0  0  0  0  0
   -1.9637    0.8745   -0.9859 C   0  0  0  0  0  0  0  0  0  0  0  0
   -3.1319    0.2444   -1.3580 O   0  0  0  0  0  0  0  0  0  0  0  0
    4.4230   -0.0730   -0.8506 H   0  0  0  0  0  0  0  0  0  0  0  0
    3.0774   -0.9717   -1.5831 H   0  0  0  0  0  0  0  0  0  0  0  0
    3.6308   -1.4658    0.0273 H   0  0  0  0  0  0  0  0  0  0  0  0
    2.6209    0.3248    1.1554 H   0  0  0  0  0  0  0  0  0  0  0  0
    2.5795    1.3733   -0.3611 H   0  0  0  0  0  0  0  0  0  0  0  0
    1.0720   -0.2692   -1.4162 H   0  0  0  0  0  0  0  0  0  0  0  0
    1.0463   -1.2424    0.1445 H   0  0  0  0  0  0  0  0  0  0  0  0
   -0.8852   -0.9719   -0.7865 H   0  0  0  0  0  0  0  0  0  0  0  0
   -1.3324   -1.3500    1.5595 H   0  0  0  0  0  0  0  0  0  0  0  0
   -2.8059   -1.1472    0.5966 H   0  0  0  0  0  0  0  0  0  0  0  0
   -2.5634    1.2493    1.4916 H   0  0  0  0  0  0  0  0  0  0  0  0
   -2.2039    1.7874   -0.4430 H   0  0  0  0  0  0  0  0  0  0  0  0
   -1.3827    1.1246   -1.9055 H   0  0  0  0  0  0  0  0  0  0  0  0
   -3.9238    0.7401   -1.0299 H   0  0  0  0  0  0  0  0  0  0  0  0
  1  2  1  0
  2  3  1  0
  3  4  1  0
  4  5  1  0
  5  6  1  0
  6  7  1  0
  5  8  1  0
  8  9  1  0
  1 10  1  0
  1 11  1  0
  1 12  1  0
  2 13  1  0
  2 14  1  0
  3 15  1  0
  3 16  1  0
  5 17  1  0
  6 18  1  0
  6 19  1  0
  7 20  1  0
  8 21  1  0
  8 22  1  0
  9 23  1  0
M  END
