
     RDKit          3D

 25 25  0  0  0  0  0  0  0  0999 V2000
   -4.2781   -0.1594    0.2088 C   0  0  0  0  0  0  0  0  0  0  0  0
   -3.0184   -0.9718   -0.1115 C   0  0  0  0  0  0  0  0  0  0  0  0
   -1.8738    0.0192   -0.1180 C   0  0  0  0  0  0  0  0  0  0  0  0
   -0.6817   -0.6160   -0.3992 O   0  0  0  0  0  0  0  0  0  0  0  0
    0.3531    0.3170   -0.3989 C   0  0  0  0  0  0  0  0  0  0  0  0
    1.3714    0.1017   -1.4798 C   0  0  0  0  0  0  0  0  0  0  0  0
    1.6903   -0.1777    0.0055 C   0  0  0  0  0  0  0  0  0  0  0  0
    2.7218    0.7580    0.5785 C   0  0  0  0  0  0  0  0  0  0  0  0
    3.9832   -0.0101    0.9003 C   0  0  0  0  0  0  0  0  0  0  0  0
   -5.1244   -0.7895    0.4797 H   0  0  0  0  0  0  0  0  0  0  0  0
   -3.9846    0.4927    1.0810 H   0  0  0  0  0  0  0  0  0  0  0  0
   -4.4452    0.5170   -0.6428 H   0  0  0  0  0  0  0  0  0  0  0  0
   -3.1113   -1.4607   -1.1094 H   0  0  0  0  0  0  0  0  0  0  0  0
   -2.8429   -1.7489    0.6791 H   0  0  0  0  0  0  0  0  0  0  0  0
   -2.0913    0.7650   -0.9081 H   0  0  0  0  0  0  0  0  0  0  0  0
   -1.8415    0.4788    0.8881 H   0  0  0  0  0  0  0  0  0  0  0  0
    0.0585    1.3832   -0.1799 H   0  0  0  0  0  0  0  0  0  0  0  0
    1.3166   -0.8086   -2.1151 H   0  0  0  0  0  0  0  0  0  0  0  0
    1.8066    0.9983   -1.9382 H   0  0  0  0  0  0  0  0  0  0  0  0
    1.7785   -1.2414    0.3054 H   0  0  0  0  0  0  0  0  0  0  0  0
    2.3091    1.2846    1.4757 H   0  0  0  0  0  0  0  0  0  0  0  0
    3.0041    1.5745   -0.1427 H   0  0  0  0  0  0  0  0  0  0  0  0
    4.8423    0.2953    0.2632 H   0  0  0  0  0  0  0  0  0  0  0  0
    4.2210    0.1047    1.9806 H   0  0  0  0  0  0  0  0  0  0  0  0
    3.8369   -1.1059    0.6977 H   0  0  0  0  0  0  0  0  0  0  0  0
  1  2  1  0
  2  3  1  0
  3  4  1  0
  4  5  1  0
  5  6  1  0
  6  7  1  0
  7  8  1  0
  8  9  1  0
  7  5  1  0
  1 10  1  0
  1 11  1  0
  1 12  1  0
  2 13  1  0
  2 14  1  0
  3 15  1  0
  3 16  1  0
  5 17  1  0
  6 18  1  0
  6 19  1  0
  7 20  1  0
  8 21  1  0
  8 22  1  0
  9 23  1  0
  9 24  1  0
  9 25  1  0
M  END
