
     RDKit          3D

 27 26  0  0  0  0  0  0  0  0999 V2000
    4.1412    0.1832    0.2795 C   0  0  0  0  0  0  0  0  0  0  0  0
    2.7189    0.2538    0.7230 C   0  0  0  0  0  0  0  0  0  0  0  0
    1.7365   -0.0676   -0.4040 C   0  0  0  0  0  0  0  0  0  0  0  0
    0.4736    0.0297    0.1234 O   0  0  0  0  0  0  0  0  0  0  0  0
   -0.5456   -0.2316   -0.7668 C   0  0  0  0  0  0  0  0  0  0  0  0
   -1.8551   -0.0777   -0.0151 C   0  0  0  0  0  0  0  0  0  0  0  0
   -1.8301   -1.0807    1.1183 C   0  0  0  0  0  0  0  0  0  0  0  0
   -1.8847    1.3490    0.5084 C   0  0  0  0  0  0  0  0  0  0  0  0
   -3.0462   -0.3068   -0.8961 C   0  0  0  0  0  0  0  0  0  0  0  0
    4.7157   -0.3683    1.0528 H   0  0  0  0  0  0  0  0  0  0  0  0
    4.1769   -0.3269   -0.6967 H   0  0  0  0  0  0  0  0  0  0  0  0
    4.5411    1.2264    0.2218 H   0  0  0  0  0  0  0  0  0  0  0  0
    2.4351    1.2902    1.0590 H   0  0  0  0  0  0  0  0  0  0  0  0
    2.4675   -0.4578    1.5429 H   0  0  0  0  0  0  0  0  0  0  0  0
    1.8976    0.5523   -1.2845 H   0  0  0  0  0  0  0  0  0  0  0  0
    1.8930   -1.1371   -0.7247 H   0  0  0  0  0  0  0  0  0  0  0  0
   -0.4834    0.5281   -1.5758 H   0  0  0  0  0  0  0  0  0  0  0  0
   -0.4610   -1.2728   -1.1929 H   0  0  0  0  0  0  0  0  0  0  0  0
   -2.8318   -1.2696    1.5062 H   0  0  0  0  0  0  0  0  0  0  0  0
   -1.1411   -0.7467    1.9289 H   0  0  0  0  0  0  0  0  0  0  0  0
   -1.4298   -2.0496    0.7450 H   0  0  0  0  0  0  0  0  0  0  0  0
   -0.8675    1.6531    0.8790 H   0  0  0  0  0  0  0  0  0  0  0  0
   -2.0983    2.0064   -0.3622 H   0  0  0  0  0  0  0  0  0  0  0  0
   -2.6373    1.4426    1.3105 H   0  0  0  0  0  0  0  0  0  0  0  0
   -3.1437   -1.3909   -1.1424 H   0  0  0  0  0  0  0  0  0  0  0  0
   -3.9484   -0.0270   -0.3128 H   0  0  0  0  0  0  0  0  0  0  0  0
   -2.9935    0.2966   -1.8101 H   0  0  0  0  0  0  0  0  0  0  0  0
  1  2  1  0
  2  3  1  0
  3  4  1  0
  4  5  1  0
  5  6  1  0
  6  7  1  0
  6  8  1  0
  6  9  1  0
  1 10  1  0
  1 11  1  0
  1 12  1  0
  2 13  1  0
  2 14  1  0
  3 15  1  0
  3 16  1  0
  5 17  1  0
  5 18  1  0
  7 19  1  0
  7 20  1  0
  7 21  1  0
  8 22  1  0
  8 23  1  0
  8 24  1  0
  9 25  1  0
  9 26  1  0
  9 27  1  0
M  END
