
     RDKit          3D

 14 13  0  0  0  0  0  0  0  0999 V2000
   -1.5140    0.3170    0.5970 C   0  0  0  0  0  0  0  0  0  0  0  0
   -0.5641   -0.7694    0.1171 C   0  0  0  0  0  0  0  0  0  0  0  0
    0.2207   -0.3231   -1.0859 C   0  0  0  0  0  0  0  0  0  0  0  0
    1.0015    0.8249   -0.8035 O   0  0  0  0  0  0  0  0  0  0  0  0
    1.9819    0.8286    0.1795 C   0  0  0  0  0  0  0  0  0  0  0  0
    2.2112   -0.2053    0.8614 O   0  0  0  0  0  0  0  0  0  0  0  0
   -1.0109    1.2816    0.7477 H   0  0  0  0  0  0  0  0  0  0  0  0
   -1.8880   -0.0276    1.5911 H   0  0  0  0  0  0  0  0  0  0  0  0
   -2.3717    0.3945   -0.1262 H   0  0  0  0  0  0  0  0  0  0  0  0
   -1.1961   -1.6304   -0.1956 H   0  0  0  0  0  0  0  0  0  0  0  0
    0.0585   -1.1114    0.9440 H   0  0  0  0  0  0  0  0  0  0  0  0
    0.9314   -1.1435   -1.3307 H   0  0  0  0  0  0  0  0  0  0  0  0
   -0.4548   -0.1239   -1.9150 H   0  0  0  0  0  0  0  0  0  0  0  0
    2.5945    1.6880    0.4191 H   0  0  0  0  0  0  0  0  0  0  0  0
  1  2  1  0
  2  3  1  0
  3  4  1  0
  4  5  1  0
  5  6  2  0
  1  7  1  0
  1  8  1  0
  1  9  1  0
  2 10  1  0
  2 11  1  0
  3 12  1  0
  3 13  1  0
  5 14  1  0
M  END
