
     RDKit          3D

 23 22  0  0  0  0  0  0  0  0999 V2000
    3.7964   -0.6458    0.4729 C   0  0  0  0  0  0  0  0  0  0  0  0
    2.3633   -0.6816    0.9567 C   0  0  0  0  0  0  0  0  0  0  0  0
    1.5308    0.0992   -0.0057 C   0  0  0  0  0  0  0  0  0  0  0  0
    0.1816    0.1329    0.3453 O   0  0  0  0  0  0  0  0  0  0  0  0
   -0.5089    0.8804   -0.6079 C   0  0  0  0  0  0  0  0  0  0  0  0
   -1.9722    0.9745   -0.3168 C   0  0  0  0  0  0  0  0  0  0  0  0
   -2.6378   -0.3905   -0.2786 C   0  0  0  0  0  0  0  0  0  0  0  0
   -4.0858   -0.2788    0.0108 C   0  0  0  0  0  0  0  0  0  0  0  0
   -4.7657   -1.2787    0.0762 O   0  0  0  0  0  0  0  0  0  0  0  0
    4.3880   -1.5221    0.8456 H   0  0  0  0  0  0  0  0  0  0  0  0
    4.2884    0.3116    0.8073 H   0  0  0  0  0  0  0  0  0  0  0  0
    3.7742   -0.6034   -0.6283 H   0  0  0  0  0  0  0  0  0  0  0  0
    2.3525   -0.2663    1.9749 H   0  0  0  0  0  0  0  0  0  0  0  0
    2.0684   -1.7459    1.0030 H   0  0  0  0  0  0  0  0  0  0  0  0
    1.6834   -0.3391   -1.0166 H   0  0  0  0  0  0  0  0  0  0  0  0
    1.9109    1.1390   -0.0508 H   0  0  0  0  0  0  0  0  0  0  0  0
   -0.0711    1.8992   -0.6272 H   0  0  0  0  0  0  0  0  0  0  0  0
   -0.3934    0.4297   -1.6160 H   0  0  0  0  0  0  0  0  0  0  0  0
   -2.1980    1.5530    0.6066 H   0  0  0  0  0  0  0  0  0  0  0  0
   -2.4467    1.5249   -1.1551 H   0  0  0  0  0  0  0  0  0  0  0  0
   -2.2007   -1.0373    0.5200 H   0  0  0  0  0  0  0  0  0  0  0  0
   -2.5139   -0.8387   -1.2926 H   0  0  0  0  0  0  0  0  0  0  0  0
   -4.5436    0.6839    0.1643 H   0  0  0  0  0  0  0  0  0  0  0  0
  1  2  1  0
  2  3  1  0
  3  4  1  0
  4  5  1  0
  5  6  1  0
  6  7  1  0
  7  8  1  0
  8  9  2  0
  1 10  1  0
  1 11  1  0
  1 12  1  0
  2 13  1  0
  2 14  1  0
  3 15  1  0
  3 16  1  0
  5 17  1  0
  5 18  1  0
  6 19  1  0
  6 20  1  0
  7 21  1  0
  7 22  1  0
  8 23  1  0
M  END
