
     RDKit          3D

 27 26  0  0  0  0  0  0  0  0999 V2000
    3.6895   -0.0027    0.5182 C   0  0  0  0  0  0  0  0  0  0  0  0
    2.4171    0.6648    0.0616 C   0  0  0  0  0  0  0  0  0  0  0  0
    1.2272   -0.3018    0.1465 C   0  0  0  0  0  0  0  0  0  0  0  0
    0.1291    0.3992   -0.2878 O   0  0  0  0  0  0  0  0  0  0  0  0
   -1.0475   -0.3210   -0.2796 C   0  0  0  0  0  0  0  0  0  0  0  0
   -1.4270   -0.8220    1.0906 C   0  0  0  0  0  0  0  0  0  0  0  0
   -0.9000   -1.4943   -1.2207 C   0  0  0  0  0  0  0  0  0  0  0  0
   -2.1386    0.6060   -0.7786 C   0  0  0  0  0  0  0  0  0  0  0  0
   -2.2393    1.7934    0.1286 C   0  0  0  0  0  0  0  0  0  0  0  0
    4.3593   -0.0546   -0.3886 H   0  0  0  0  0  0  0  0  0  0  0  0
    3.4300   -1.0202    0.8489 H   0  0  0  0  0  0  0  0  0  0  0  0
    4.1360    0.6233    1.2992 H   0  0  0  0  0  0  0  0  0  0  0  0
    2.1253    1.5218    0.7323 H   0  0  0  0  0  0  0  0  0  0  0  0
    2.4793    1.0451   -0.9841 H   0  0  0  0  0  0  0  0  0  0  0  0
    1.1585   -0.6913    1.1680 H   0  0  0  0  0  0  0  0  0  0  0  0
    1.4909   -1.1363   -0.5489 H   0  0  0  0  0  0  0  0  0  0  0  0
   -1.2593   -1.8953    1.2327 H   0  0  0  0  0  0  0  0  0  0  0  0
   -2.5018   -0.6314    1.2881 H   0  0  0  0  0  0  0  0  0  0  0  0
   -0.8472   -0.2605    1.8611 H   0  0  0  0  0  0  0  0  0  0  0  0
   -0.4378   -1.1492   -2.1475 H   0  0  0  0  0  0  0  0  0  0  0  0
   -1.8817   -1.9951   -1.4088 H   0  0  0  0  0  0  0  0  0  0  0  0
   -0.2135   -2.2426   -0.7339 H   0  0  0  0  0  0  0  0  0  0  0  0
   -3.0997    0.0770   -0.9238 H   0  0  0  0  0  0  0  0  0  0  0  0
   -1.8291    0.9595   -1.7880 H   0  0  0  0  0  0  0  0  0  0  0  0
   -2.1009    2.7656   -0.4118 H   0  0  0  0  0  0  0  0  0  0  0  0
   -3.2378    1.7935    0.5860 H   0  0  0  0  0  0  0  0  0  0  0  0
   -1.4809    1.7691    0.9405 H   0  0  0  0  0  0  0  0  0  0  0  0
  1  2  1  0
  2  3  1  0
  3  4  1  0
  4  5  1  0
  5  6  1  0
  5  7  1  0
  5  8  1  0
  8  9  1  0
  1 10  1  0
  1 11  1  0
  1 12  1  0
  2 13  1  0
  2 14  1  0
  3 15  1  0
  3 16  1  0
  6 17  1  0
  6 18  1  0
  6 19  1  0
  7 20  1  0
  7 21  1  0
  7 22  1  0
  8 23  1  0
  8 24  1  0
  9 25  1  0
  9 26  1  0
  9 27  1  0
M  END
