
     RDKit          3D

 21 21  0  0  0  0  0  0  0  0999 V2000
    3.4825    0.0406    0.5704 C   0  0  0  0  0  0  0  0  0  0  0  0
    2.0173    0.4742    0.4872 C   0  0  0  0  0  0  0  0  0  0  0  0
    1.1876   -0.7350    0.7562 C   0  0  0  0  0  0  0  0  0  0  0  0
   -0.1940   -0.5467    0.7274 O   0  0  0  0  0  0  0  0  0  0  0  0
   -0.8010   -0.1028   -0.4368 C   0  0  0  0  0  0  0  0  0  0  0  0
   -0.0606    0.1113   -1.4298 O   0  0  0  0  0  0  0  0  0  0  0  0
   -2.2498    0.1238   -0.5554 C   0  0  0  0  0  0  0  0  0  0  0  0
   -2.8580    0.8026    0.6775 C   0  0  0  0  0  0  0  0  0  0  0  0
   -3.2196   -0.5823    0.3150 C   0  0  0  0  0  0  0  0  0  0  0  0
    3.7292   -0.6405   -0.2469 H   0  0  0  0  0  0  0  0  0  0  0  0
    3.7348   -0.3981    1.5376 H   0  0  0  0  0  0  0  0  0  0  0  0
    4.1050    0.9663    0.4094 H   0  0  0  0  0  0  0  0  0  0  0  0
    1.8599    1.2882    1.2323 H   0  0  0  0  0  0  0  0  0  0  0  0
    1.9022    0.9298   -0.5021 H   0  0  0  0  0  0  0  0  0  0  0  0
    1.4838   -1.1229    1.7579 H   0  0  0  0  0  0  0  0  0  0  0  0
    1.4534   -1.5040    0.0045 H   0  0  0  0  0  0  0  0  0  0  0  0
   -2.6057    0.4763   -1.5326 H   0  0  0  0  0  0  0  0  0  0  0  0
   -2.2318    0.9218    1.5753 H   0  0  0  0  0  0  0  0  0  0  0  0
   -3.5804    1.6344    0.4403 H   0  0  0  0  0  0  0  0  0  0  0  0
   -2.9122   -1.4190    0.9699 H   0  0  0  0  0  0  0  0  0  0  0  0
   -4.2427   -0.7182   -0.0932 H   0  0  0  0  0  0  0  0  0  0  0  0
  1  2  1  0
  2  3  1  0
  3  4  1  0
  4  5  1  0
  5  6  2  0
  5  7  1  0
  7  8  1  0
  8  9  1  0
  9  7  1  0
  1 10  1  0
  1 11  1  0
  1 12  1  0
  2 13  1  0
  2 14  1  0
  3 15  1  0
  3 16  1  0
  7 17  1  0
  8 18  1  0
  8 19  1  0
  9 20  1  0
  9 21  1  0
M  END
