
     RDKit          3D

 21 22  0  0  0  0  0  0  0  0999 V2000
   -3.6775    0.3298   -0.2537 C   0  0  0  0  0  0  0  0  0  0  0  0
   -2.4162   -0.4814   -0.0580 C   0  0  0  0  0  0  0  0  0  0  0  0
   -1.1759    0.4074   -0.1151 C   0  0  0  0  0  0  0  0  0  0  0  0
   -0.0968   -0.4084    0.0704 O   0  0  0  0  0  0  0  0  0  0  0  0
    1.1378    0.2763    0.0432 C   0  0  0  0  0  0  0  0  0  0  0  0
    2.2216   -0.0151    0.9532 C   0  0  0  0  0  0  0  0  0  0  0  0
    3.6702   -0.3155    0.5363 C   0  0  0  0  0  0  0  0  0  0  0  0
    3.0268   -1.4128   -0.1016 O   0  0  0  0  0  0  0  0  0  0  0  0
    2.2223   -0.3825   -0.5855 C   0  0  0  0  0  0  0  0  0  0  0  0
   -4.5242   -0.3127    0.0517 H   0  0  0  0  0  0  0  0  0  0  0  0
   -3.6395    1.1605    0.4874 H   0  0  0  0  0  0  0  0  0  0  0  0
   -3.7661    0.6847   -1.2818 H   0  0  0  0  0  0  0  0  0  0  0  0
   -2.3174   -1.2969   -0.7854 H   0  0  0  0  0  0  0  0  0  0  0  0
   -2.4953   -0.9422    0.9565 H   0  0  0  0  0  0  0  0  0  0  0  0
   -1.2446    1.2582    0.5632 H   0  0  0  0  0  0  0  0  0  0  0  0
   -1.1508    0.8434   -1.1564 H   0  0  0  0  0  0  0  0  0  0  0  0
    0.9613    1.3790   -0.1312 H   0  0  0  0  0  0  0  0  0  0  0  0
    1.9349   -0.8766    1.6360 H   0  0  0  0  0  0  0  0  0  0  0  0
    4.1368    0.4089   -0.1191 H   0  0  0  0  0  0  0  0  0  0  0  0
    4.3038   -0.5927    1.3817 H   0  0  0  0  0  0  0  0  0  0  0  0
    2.8888    0.2885   -1.2131 H   0  0  0  0  0  0  0  0  0  0  0  0
  1  2  1  0
  2  3  1  0
  3  4  1  0
  4  5  1  0
  5  6  1  0
  6  7  1  0
  7  8  1  0
  8  9  1  0
  9  5  1  0
  9  6  1  0
  1 10  1  0
  1 11  1  0
  1 12  1  0
  2 13  1  0
  2 14  1  0
  3 15  1  0
  3 16  1  0
  5 17  1  0
  6 18  1  0
  7 19  1  0
  7 20  1  0
  9 21  1  0
M  END
