
     RDKit          3D

 25 25  0  0  0  0  0  0  0  0999 V2000
    3.9124   -0.0073    0.4626 C   0  0  0  0  0  0  0  0  0  0  0  0
    2.6942    0.7521   -0.0722 C   0  0  0  0  0  0  0  0  0  0  0  0
    1.4859   -0.0883    0.3078 C   0  0  0  0  0  0  0  0  0  0  0  0
    0.3044    0.5028   -0.1278 O   0  0  0  0  0  0  0  0  0  0  0  0
   -0.7512   -0.2889    0.2371 C   0  0  0  0  0  0  0  0  0  0  0  0
   -1.8152   -0.4112   -0.8646 C   0  0  0  0  0  0  0  0  0  0  0  0
   -2.3695   -1.7957   -1.1167 C   0  0  0  0  0  0  0  0  0  0  0  0
   -2.1152    0.2455    0.4359 C   0  0  0  0  0  0  0  0  0  0  0  0
   -2.3762    1.7369    0.4114 C   0  0  0  0  0  0  0  0  0  0  0  0
    4.1323   -0.8720   -0.2018 H   0  0  0  0  0  0  0  0  0  0  0  0
    3.7152   -0.4035    1.4760 H   0  0  0  0  0  0  0  0  0  0  0  0
    4.7323    0.7220    0.5257 H   0  0  0  0  0  0  0  0  0  0  0  0
    2.7334    0.8434   -1.1589 H   0  0  0  0  0  0  0  0  0  0  0  0
    2.6166    1.6976    0.4790 H   0  0  0  0  0  0  0  0  0  0  0  0
    1.6425   -1.0937   -0.1299 H   0  0  0  0  0  0  0  0  0  0  0  0
    1.4987   -0.2062    1.4144 H   0  0  0  0  0  0  0  0  0  0  0  0
   -0.5040   -1.2188    0.7887 H   0  0  0  0  0  0  0  0  0  0  0  0
   -1.7182    0.1961   -1.7675 H   0  0  0  0  0  0  0  0  0  0  0  0
   -3.1790   -1.7091   -1.8509 H   0  0  0  0  0  0  0  0  0  0  0  0
   -2.8242   -2.1462   -0.1682 H   0  0  0  0  0  0  0  0  0  0  0  0
   -1.5688   -2.4931   -1.4837 H   0  0  0  0  0  0  0  0  0  0  0  0
   -2.7879   -0.3024    1.1222 H   0  0  0  0  0  0  0  0  0  0  0  0
   -1.6987    2.2804   -0.2554 H   0  0  0  0  0  0  0  0  0  0  0  0
   -3.4137    1.8828    0.0518 H   0  0  0  0  0  0  0  0  0  0  0  0
   -2.3464    2.1767    1.4352 H   0  0  0  0  0  0  0  0  0  0  0  0
  1  2  1  0
  2  3  1  0
  3  4  1  0
  4  5  1  0
  5  6  1  0
  6  7  1  0
  6  8  1  0
  8  9  1  0
  8  5  1  0
  1 10  1  0
  1 11  1  0
  1 12  1  0
  2 13  1  0
  2 14  1  0
  3 15  1  0
  3 16  1  0
  5 17  1  0
  6 18  1  0
  7 19  1  0
  7 20  1  0
  7 21  1  0
  8 22  1  0
  9 23  1  0
  9 24  1  0
  9 25  1  0
M  END
