
     RDKit          3D

 18 17  0  0  0  0  0  0  0  0999 V2000
   -2.9083   -0.5605   -0.0293 C   0  0  0  0  0  0  0  0  0  0  0  0
   -1.5489    0.0385   -0.3858 C   0  0  0  0  0  0  0  0  0  0  0  0
   -0.7679    0.1068    0.9132 C   0  0  0  0  0  0  0  0  0  0  0  0
    0.5132    0.6379    0.7588 O   0  0  0  0  0  0  0  0  0  0  0  0
    1.5025    0.1268   -0.0332 C   0  0  0  0  0  0  0  0  0  0  0  0
    1.2469   -0.9165   -0.6869 O   0  0  0  0  0  0  0  0  0  0  0  0
    2.8548    0.7217   -0.1713 C   0  0  0  0  0  0  0  0  0  0  0  0
    3.6398   -0.0235   -1.0478 O   0  0  0  0  0  0  0  0  0  0  0  0
   -3.4795   -0.8423   -0.9186 H   0  0  0  0  0  0  0  0  0  0  0  0
   -3.4910    0.2270    0.4961 H   0  0  0  0  0  0  0  0  0  0  0  0
   -2.7515   -1.4284    0.6365 H   0  0  0  0  0  0  0  0  0  0  0  0
   -1.6690    1.0403   -0.8429 H   0  0  0  0  0  0  0  0  0  0  0  0
   -1.0231   -0.5868   -1.1360 H   0  0  0  0  0  0  0  0  0  0  0  0
   -0.7543   -0.9464    1.3088 H   0  0  0  0  0  0  0  0  0  0  0  0
   -1.3429    0.7471    1.6164 H   0  0  0  0  0  0  0  0  0  0  0  0
    2.7951    1.7574   -0.6157 H   0  0  0  0  0  0  0  0  0  0  0  0
    3.3770    0.8370    0.7879 H   0  0  0  0  0  0  0  0  0  0  0  0
    3.8070   -0.9359   -0.6502 H   0  0  0  0  0  0  0  0  0  0  0  0
  1  2  1  0
  2  3  1  0
  3  4  1  0
  4  5  1  0
  5  6  2  0
  5  7  1  0
  7  8  1  0
  1  9  1  0
  1 10  1  0
  1 11  1  0
  2 12  1  0
  2 13  1  0
  3 14  1  0
  3 15  1  0
  7 16  1  0
  7 17  1  0
  8 18  1  0
M  END
