
     RDKit          3D

 21 20  0  0  0  0  0  0  0  0999 V2000
   -3.3149    0.0866    0.0356 C   0  0  0  0  0  0  0  0  0  0  0  0
   -1.8569   -0.1473   -0.3761 C   0  0  0  0  0  0  0  0  0  0  0  0
   -1.1333   -0.5497    0.8843 C   0  0  0  0  0  0  0  0  0  0  0  0
    0.1998   -0.8028    0.7086 O   0  0  0  0  0  0  0  0  0  0  0  0
    0.9193    0.2726    0.2276 C   0  0  0  0  0  0  0  0  0  0  0  0
    2.3684   -0.1888    0.0959 C   0  0  0  0  0  0  0  0  0  0  0  0
    2.8792   -0.5916    1.3221 O   0  0  0  0  0  0  0  0  0  0  0  0
    3.1988    0.9470   -0.3865 C   0  0  0  0  0  0  0  0  0  0  0  0
    4.1552    1.3823    0.2651 O   0  0  0  0  0  0  0  0  0  0  0  0
   -3.5984   -0.7936    0.6436 H   0  0  0  0  0  0  0  0  0  0  0  0
   -3.3443    0.9653    0.6961 H   0  0  0  0  0  0  0  0  0  0  0  0
   -3.9608    0.2760   -0.8228 H   0  0  0  0  0  0  0  0  0  0  0  0
   -1.7817   -0.9927   -1.0839 H   0  0  0  0  0  0  0  0  0  0  0  0
   -1.4817    0.7983   -0.7667 H   0  0  0  0  0  0  0  0  0  0  0  0
   -1.6146   -1.4770    1.2562 H   0  0  0  0  0  0  0  0  0  0  0  0
   -1.3463    0.2298    1.6500 H   0  0  0  0  0  0  0  0  0  0  0  0
    0.8479    1.1801    0.8556 H   0  0  0  0  0  0  0  0  0  0  0  0
    0.5448    0.5509   -0.7765 H   0  0  0  0  0  0  0  0  0  0  0  0
    2.4297   -1.0503   -0.5938 H   0  0  0  0  0  0  0  0  0  0  0  0
    2.8685   -1.5544    1.4656 H   0  0  0  0  0  0  0  0  0  0  0  0
    3.0214    1.4592   -1.3273 H   0  0  0  0  0  0  0  0  0  0  0  0
  1  2  1  0
  2  3  1  0
  3  4  1  0
  4  5  1  0
  5  6  1  0
  6  7  1  0
  6  8  1  0
  8  9  2  0
  1 10  1  0
  1 11  1  0
  1 12  1  0
  2 13  1  0
  2 14  1  0
  3 15  1  0
  3 16  1  0
  5 17  1  0
  5 18  1  0
  6 19  1  0
  7 20  1  0
  8 21  1  0
M  END
