
     RDKit          3D

 25 24  0  0  0  0  0  0  0  0999 V2000
    2.9861   -0.5539    0.2477 C   0  0  0  0  0  0  0  0  0  0  0  0
    2.6941    0.8841    0.5460 C   0  0  0  0  0  0  0  0  0  0  0  0
    1.6854    1.5491   -0.3145 C   0  0  0  0  0  0  0  0  0  0  0  0
    0.4094    1.1127   -0.3240 O   0  0  0  0  0  0  0  0  0  0  0  0
    0.0943   -0.1404   -0.6893 C   0  0  0  0  0  0  0  0  0  0  0  0
   -1.4121   -0.4005   -0.6945 C   0  0  0  0  0  0  0  0  0  0  0  0
   -1.6695   -1.7100   -1.0798 O   0  0  0  0  0  0  0  0  0  0  0  0
   -2.0300   -0.1294    0.6369 C   0  0  0  0  0  0  0  0  0  0  0  0
   -3.5123   -0.4153    0.5259 C   0  0  0  0  0  0  0  0  0  0  0  0
    4.1012   -0.7491    0.3015 H   0  0  0  0  0  0  0  0  0  0  0  0
    2.6681   -0.9115   -0.7302 H   0  0  0  0  0  0  0  0  0  0  0  0
    2.5639   -1.2232    1.0406 H   0  0  0  0  0  0  0  0  0  0  0  0
    3.6858    1.4304    0.4586 H   0  0  0  0  0  0  0  0  0  0  0  0
    2.4632    0.9903    1.6433 H   0  0  0  0  0  0  0  0  0  0  0  0
    1.6375    2.6408    0.0261 H   0  0  0  0  0  0  0  0  0  0  0  0
    2.0975    1.6792   -1.3668 H   0  0  0  0  0  0  0  0  0  0  0  0
    0.4847   -0.8827    0.0713 H   0  0  0  0  0  0  0  0  0  0  0  0
    0.5302   -0.4004   -1.6572 H   0  0  0  0  0  0  0  0  0  0  0  0
   -1.8838    0.2692   -1.4427 H   0  0  0  0  0  0  0  0  0  0  0  0
   -2.3608   -1.7417   -1.8082 H   0  0  0  0  0  0  0  0  0  0  0  0
   -1.5478   -0.7371    1.4380 H   0  0  0  0  0  0  0  0  0  0  0  0
   -1.9276    0.9637    0.8625 H   0  0  0  0  0  0  0  0  0  0  0  0
   -3.7180   -1.2378   -0.1995 H   0  0  0  0  0  0  0  0  0  0  0  0
   -4.0869    0.4635    0.1852 H   0  0  0  0  0  0  0  0  0  0  0  0
   -3.9525   -0.7498    1.4889 H   0  0  0  0  0  0  0  0  0  0  0  0
  1  2  1  0
  2  3  1  0
  3  4  1  0
  4  5  1  0
  5  6  1  0
  6  7  1  0
  6  8  1  0
  8  9  1  0
  1 10  1  0
  1 11  1  0
  1 12  1  0
  2 13  1  0
  2 14  1  0
  3 15  1  0
  3 16  1  0
  5 17  1  0
  5 18  1  0
  6 19  1  0
  7 20  1  0
  8 21  1  0
  8 22  1  0
  9 23  1  0
  9 24  1  0
  9 25  1  0
M  END
