
     RDKit          3D

 23 23  0  0  0  0  0  0  0  0999 V2000
    3.5870    0.4323    0.0484 C   0  0  0  0  0  0  0  0  0  0  0  0
    2.1382    0.1504    0.4273 C   0  0  0  0  0  0  0  0  0  0  0  0
    1.4292   -0.4497   -0.7703 C   0  0  0  0  0  0  0  0  0  0  0  0
    0.1194   -0.7245   -0.4868 O   0  0  0  0  0  0  0  0  0  0  0  0
   -0.6433    0.3572   -0.1172 C   0  0  0  0  0  0  0  0  0  0  0  0
   -2.0500   -0.1431    0.1525 C   0  0  0  0  0  0  0  0  0  0  0  0
   -3.1523    0.8851    0.3084 C   0  0  0  0  0  0  0  0  0  0  0  0
   -2.3538   -1.5390   -0.1422 C   0  0  0  0  0  0  0  0  0  0  0  0
   -2.1050   -1.1162    1.1905 O   0  0  0  0  0  0  0  0  0  0  0  0
    4.1855    0.4025    0.9577 H   0  0  0  0  0  0  0  0  0  0  0  0
    3.9401   -0.3813   -0.6165 H   0  0  0  0  0  0  0  0  0  0  0  0
    3.6096    1.4220   -0.4524 H   0  0  0  0  0  0  0  0  0  0  0  0
    2.0900   -0.5233    1.3039 H   0  0  0  0  0  0  0  0  0  0  0  0
    1.7110    1.1271    0.7318 H   0  0  0  0  0  0  0  0  0  0  0  0
    1.5950    0.1279   -1.6779 H   0  0  0  0  0  0  0  0  0  0  0  0
    1.9346   -1.4458   -0.9410 H   0  0  0  0  0  0  0  0  0  0  0  0
   -0.3022    0.8251    0.8289 H   0  0  0  0  0  0  0  0  0  0  0  0
   -0.6321    1.1594   -0.8808 H   0  0  0  0  0  0  0  0  0  0  0  0
   -3.4084    1.3232   -0.6963 H   0  0  0  0  0  0  0  0  0  0  0  0
   -2.7612    1.7086    0.9434 H   0  0  0  0  0  0  0  0  0  0  0  0
   -4.0198    0.4507    0.8044 H   0  0  0  0  0  0  0  0  0  0  0  0
   -3.3769   -1.8999   -0.3104 H   0  0  0  0  0  0  0  0  0  0  0  0
   -1.5350   -2.1488   -0.6054 H   0  0  0  0  0  0  0  0  0  0  0  0
  1  2  1  0
  2  3  1  0
  3  4  1  0
  4  5  1  0
  5  6  1  0
  6  7  1  0
  6  8  1  0
  8  9  1  0
  9  6  1  0
  1 10  1  0
  1 11  1  0
  1 12  1  0
  2 13  1  0
  2 14  1  0
  3 15  1  0
  3 16  1  0
  5 17  1  0
  5 18  1  0
  7 19  1  0
  7 20  1  0
  7 21  1  0
  8 22  1  0
  8 23  1  0
M  END
