
     RDKit          3D

 27 26  0  0  0  0  0  0  0  0999 V2000
    3.5269   -0.0848   -0.6566 C   0  0  0  0  0  0  0  0  0  0  0  0
    3.0688   -0.7358    0.6069 C   0  0  0  0  0  0  0  0  0  0  0  0
    1.8561   -0.1004    1.2080 C   0  0  0  0  0  0  0  0  0  0  0  0
    0.7516   -0.1205    0.3746 O   0  0  0  0  0  0  0  0  0  0  0  0
   -0.2968    0.4838    1.0208 C   0  0  0  0  0  0  0  0  0  0  0  0
   -1.5696    0.5318    0.2246 C   0  0  0  0  0  0  0  0  0  0  0  0
   -1.4209    1.2855   -1.0694 C   0  0  0  0  0  0  0  0  0  0  0  0
   -2.1318   -0.8292   -0.0785 C   0  0  0  0  0  0  0  0  0  0  0  0
   -3.4017   -0.6221   -0.8784 C   0  0  0  0  0  0  0  0  0  0  0  0
    4.3962   -0.6790   -1.0378 H   0  0  0  0  0  0  0  0  0  0  0  0
    2.7813   -0.0821   -1.4609 H   0  0  0  0  0  0  0  0  0  0  0  0
    3.9405    0.9305   -0.4501 H   0  0  0  0  0  0  0  0  0  0  0  0
    2.8847   -1.8099    0.4076 H   0  0  0  0  0  0  0  0  0  0  0  0
    3.8910   -0.6590    1.3469 H   0  0  0  0  0  0  0  0  0  0  0  0
    2.0918    0.9203    1.5805 H   0  0  0  0  0  0  0  0  0  0  0  0
    1.5827   -0.7045    2.1114 H   0  0  0  0  0  0  0  0  0  0  0  0
   -0.0124    1.5132    1.2668 H   0  0  0  0  0  0  0  0  0  0  0  0
   -0.5322   -0.0371    1.9779 H   0  0  0  0  0  0  0  0  0  0  0  0
   -2.3228    1.0668    0.8471 H   0  0  0  0  0  0  0  0  0  0  0  0
   -0.6451    2.0760   -1.0144 H   0  0  0  0  0  0  0  0  0  0  0  0
   -2.3869    1.7813   -1.3240 H   0  0  0  0  0  0  0  0  0  0  0  0
   -1.1922    0.5971   -1.9068 H   0  0  0  0  0  0  0  0  0  0  0  0
   -1.4146   -1.3416   -0.7835 H   0  0  0  0  0  0  0  0  0  0  0  0
   -2.3174   -1.4347    0.8217 H   0  0  0  0  0  0  0  0  0  0  0  0
   -3.1206   -0.0634   -1.7945 H   0  0  0  0  0  0  0  0  0  0  0  0
   -4.0779    0.0304   -0.2510 H   0  0  0  0  0  0  0  0  0  0  0  0
   -3.9289   -1.5720   -1.0888 H   0  0  0  0  0  0  0  0  0  0  0  0
  1  2  1  0
  2  3  1  0
  3  4  1  0
  4  5  1  0
  5  6  1  0
  6  7  1  0
  6  8  1  0
  8  9  1  0
  1 10  1  0
  1 11  1  0
  1 12  1  0
  2 13  1  0
  2 14  1  0
  3 15  1  0
  3 16  1  0
  5 17  1  0
  5 18  1  0
  6 19  1  0
  7 20  1  0
  7 21  1  0
  7 22  1  0
  8 23  1  0
  8 24  1  0
  9 25  1  0
  9 26  1  0
  9 27  1  0
M  END
