
     RDKit          3D

 25 25  0  0  0  0  0  0  0  0999 V2000
    4.4727   -0.2752    0.2827 C   0  0  0  0  0  0  0  0  0  0  0  0
    3.1142    0.2697    0.7099 C   0  0  0  0  0  0  0  0  0  0  0  0
    2.0050   -0.2812   -0.1751 C   0  0  0  0  0  0  0  0  0  0  0  0
    0.8192    0.2573    0.2756 O   0  0  0  0  0  0  0  0  0  0  0  0
   -0.2873   -0.1644   -0.4490 C   0  0  0  0  0  0  0  0  0  0  0  0
   -1.4989    0.5097    0.1650 C   0  0  0  0  0  0  0  0  0  0  0  0
   -2.7743    0.1494   -0.5144 C   0  0  0  0  0  0  0  0  0  0  0  0
   -4.0093    0.7763    0.0371 C   0  0  0  0  0  0  0  0  0  0  0  0
   -3.7489   -0.6596    0.3128 C   0  0  0  0  0  0  0  0  0  0  0  0
    5.2179    0.2088    0.9424 H   0  0  0  0  0  0  0  0  0  0  0  0
    4.5494   -1.3542    0.4240 H   0  0  0  0  0  0  0  0  0  0  0  0
    4.6679    0.0664   -0.7583 H   0  0  0  0  0  0  0  0  0  0  0  0
    3.1299    1.3618    0.5927 H   0  0  0  0  0  0  0  0  0  0  0  0
    2.8978   -0.0673    1.7428 H   0  0  0  0  0  0  0  0  0  0  0  0
    2.1969   -0.0885   -1.2446 H   0  0  0  0  0  0  0  0  0  0  0  0
    1.9722   -1.3794    0.0199 H   0  0  0  0  0  0  0  0  0  0  0  0
   -0.3372   -1.2685   -0.3812 H   0  0  0  0  0  0  0  0  0  0  0  0
   -0.1760    0.0861   -1.5238 H   0  0  0  0  0  0  0  0  0  0  0  0
   -1.5175    0.2109    1.2310 H   0  0  0  0  0  0  0  0  0  0  0  0
   -1.3124    1.6152    0.0567 H   0  0  0  0  0  0  0  0  0  0  0  0
   -2.7469   -0.1532   -1.5781 H   0  0  0  0  0  0  0  0  0  0  0  0
   -4.8522    1.0659   -0.6163 H   0  0  0  0  0  0  0  0  0  0  0  0
   -3.8981    1.4621    0.9172 H   0  0  0  0  0  0  0  0  0  0  0  0
   -3.4512   -0.9804    1.3285 H   0  0  0  0  0  0  0  0  0  0  0  0
   -4.4330   -1.3678   -0.1893 H   0  0  0  0  0  0  0  0  0  0  0  0
  1  2  1  0
  2  3  1  0
  3  4  1  0
  4  5  1  0
  5  6  1  0
  6  7  1  0
  7  8  1  0
  8  9  1  0
  9  7  1  0
  1 10  1  0
  1 11  1  0
  1 12  1  0
  2 13  1  0
  2 14  1  0
  3 15  1  0
  3 16  1  0
  5 17  1  0
  5 18  1  0
  6 19  1  0
  6 20  1  0
  7 21  1  0
  8 22  1  0
  8 23  1  0
  9 24  1  0
  9 25  1  0
M  END
