
     RDKit          3D

 16 15  0  0  0  0  0  0  0  0999 V2000
   -2.5402    0.1676    0.1474 C   0  0  0  0  0  0  0  0  0  0  0  0
   -1.0708    0.4770    0.2568 C   0  0  0  0  0  0  0  0  0  0  0  0
   -0.3022   -0.2946   -0.7976 C   0  0  0  0  0  0  0  0  0  0  0  0
    1.0709   -0.0631   -0.7653 O   0  0  0  0  0  0  0  0  0  0  0  0
    1.9160   -0.3168    0.3048 C   0  0  0  0  0  0  0  0  0  0  0  0
    1.4069   -0.7961    1.3348 O   0  0  0  0  0  0  0  0  0  0  0  0
    3.3212   -0.0092    0.1513 C   0  0  0  0  0  0  0  0  0  0  0  0
    3.7973    0.4719   -0.8995 O   0  0  0  0  0  0  0  0  0  0  0  0
   -2.8077   -0.6788    0.8102 H   0  0  0  0  0  0  0  0  0  0  0  0
   -3.1095    1.0484    0.5155 H   0  0  0  0  0  0  0  0  0  0  0  0
   -2.8476   -0.0364   -0.9077 H   0  0  0  0  0  0  0  0  0  0  0  0
   -0.8808    1.5601    0.1148 H   0  0  0  0  0  0  0  0  0  0  0  0
   -0.7402    0.1124    1.2507 H   0  0  0  0  0  0  0  0  0  0  0  0
   -0.5407   -1.3904   -0.6667 H   0  0  0  0  0  0  0  0  0  0  0  0
   -0.6598   -0.0519   -1.8206 H   0  0  0  0  0  0  0  0  0  0  0  0
    3.9872   -0.2002    0.9710 H   0  0  0  0  0  0  0  0  0  0  0  0
  1  2  1  0
  2  3  1  0
  3  4  1  0
  4  5  1  0
  5  6  2  0
  5  7  1  0
  7  8  2  0
  1  9  1  0
  1 10  1  0
  1 11  1  0
  2 12  1  0
  2 13  1  0
  3 14  1  0
  3 15  1  0
  7 16  1  0
M  END
