
     RDKit          3D

 23 23  0  0  0  0  0  0  0  0999 V2000
    2.8856    0.9724    0.6851 C   0  0  0  0  0  0  0  0  0  0  0  0
    2.7523   -0.3396   -0.0174 C   0  0  0  0  0  0  0  0  0  0  0  0
    1.3115   -0.8192   -0.1025 C   0  0  0  0  0  0  0  0  0  0  0  0
    0.5840    0.1256   -0.7979 O   0  0  0  0  0  0  0  0  0  0  0  0
   -0.7564   -0.2520   -0.9145 C   0  0  0  0  0  0  0  0  0  0  0  0
   -1.4103   -0.4194    0.4461 C   0  0  0  0  0  0  0  0  0  0  0  0
   -2.9168   -0.3778    0.2968 C   0  0  0  0  0  0  0  0  0  0  0  0
   -2.6329    1.0610    0.6662 C   0  0  0  0  0  0  0  0  0  0  0  0
   -1.4171    0.7166    1.2391 O   0  0  0  0  0  0  0  0  0  0  0  0
    3.7506    1.5137    0.2455 H   0  0  0  0  0  0  0  0  0  0  0  0
    1.9419    1.5476    0.5243 H   0  0  0  0  0  0  0  0  0  0  0  0
    3.0326    0.8774    1.7863 H   0  0  0  0  0  0  0  0  0  0  0  0
    3.4055   -1.0883    0.4708 H   0  0  0  0  0  0  0  0  0  0  0  0
    3.1075   -0.2193   -1.0574 H   0  0  0  0  0  0  0  0  0  0  0  0
    0.9096   -1.0103    0.9178 H   0  0  0  0  0  0  0  0  0  0  0  0
    1.3394   -1.7655   -0.6829 H   0  0  0  0  0  0  0  0  0  0  0  0
   -0.7678   -1.2792   -1.3763 H   0  0  0  0  0  0  0  0  0  0  0  0
   -1.3219    0.4383   -1.5376 H   0  0  0  0  0  0  0  0  0  0  0  0
   -1.1242   -1.3512    0.9738 H   0  0  0  0  0  0  0  0  0  0  0  0
   -3.4865   -0.9471    1.0537 H   0  0  0  0  0  0  0  0  0  0  0  0
   -3.3005   -0.5443   -0.7216 H   0  0  0  0  0  0  0  0  0  0  0  0
   -3.3740    1.4427    1.3936 H   0  0  0  0  0  0  0  0  0  0  0  0
   -2.5122    1.7179   -0.2272 H   0  0  0  0  0  0  0  0  0  0  0  0
  1  2  1  0
  2  3  1  0
  3  4  1  0
  4  5  1  0
  5  6  1  0
  6  7  1  0
  7  8  1  0
  8  9  1  0
  9  6  1  0
  1 10  1  0
  1 11  1  0
  1 12  1  0
  2 13  1  0
  2 14  1  0
  3 15  1  0
  3 16  1  0
  5 17  1  0
  5 18  1  0
  6 19  1  0
  7 20  1  0
  7 21  1  0
  8 22  1  0
  8 23  1  0
M  END
