
     RDKit          3D

 23 23  0  0  0  0  0  0  0  0999 V2000
    3.3917    0.1235    0.4132 C   0  0  0  0  0  0  0  0  0  0  0  0
    2.0075   -0.4083    0.0547 C   0  0  0  0  0  0  0  0  0  0  0  0
    1.3385    0.6798   -0.7471 C   0  0  0  0  0  0  0  0  0  0  0  0
    0.0673    0.3766   -1.1721 O   0  0  0  0  0  0  0  0  0  0  0  0
   -0.7807    0.1875   -0.1325 C   0  0  0  0  0  0  0  0  0  0  0  0
   -1.9080    1.1796   -0.2758 C   0  0  0  0  0  0  0  0  0  0  0  0
   -3.0379    0.5937    0.0624 C   0  0  0  0  0  0  0  0  0  0  0  0
   -2.7935   -0.8075    0.4557 C   0  0  0  0  0  0  0  0  0  0  0  0
   -1.4782   -1.1630   -0.1608 C   0  0  0  0  0  0  0  0  0  0  0  0
    3.3178    1.0749    0.9556 H   0  0  0  0  0  0  0  0  0  0  0  0
    3.9329    0.2929   -0.5527 H   0  0  0  0  0  0  0  0  0  0  0  0
    3.9058   -0.6553    0.9925 H   0  0  0  0  0  0  0  0  0  0  0  0
    1.4566   -0.5369    0.9998 H   0  0  0  0  0  0  0  0  0  0  0  0
    2.0779   -1.3528   -0.5095 H   0  0  0  0  0  0  0  0  0  0  0  0
    1.9765    1.0029   -1.6095 H   0  0  0  0  0  0  0  0  0  0  0  0
    1.3496    1.5850   -0.0675 H   0  0  0  0  0  0  0  0  0  0  0  0
   -0.2801    0.3451    0.8322 H   0  0  0  0  0  0  0  0  0  0  0  0
   -1.7955    2.1875   -0.5990 H   0  0  0  0  0  0  0  0  0  0  0  0
   -4.0512    1.0409    0.0688 H   0  0  0  0  0  0  0  0  0  0  0  0
   -2.6649   -0.8293    1.5585 H   0  0  0  0  0  0  0  0  0  0  0  0
   -3.5889   -1.4961    0.1063 H   0  0  0  0  0  0  0  0  0  0  0  0
   -0.9042   -1.8240    0.5524 H   0  0  0  0  0  0  0  0  0  0  0  0
   -1.5391   -1.5966   -1.1572 H   0  0  0  0  0  0  0  0  0  0  0  0
  1  2  1  0
  2  3  1  0
  3  4  1  0
  4  5  1  0
  5  6  1  0
  6  7  2  0
  7  8  1  0
  8  9  1  0
  9  5  1  0
  1 10  1  0
  1 11  1  0
  1 12  1  0
  2 13  1  0
  2 14  1  0
  3 15  1  0
  3 16  1  0
  5 17  1  0
  6 18  1  0
  7 19  1  0
  8 20  1  0
  8 21  1  0
  9 22  1  0
  9 23  1  0
M  END
