
     RDKit          3D

 21 22  0  0  0  0  0  0  0  0999 V2000
    3.2391   -0.0375   -0.1963 C   0  0  0  0  0  0  0  0  0  0  0  0
    1.7840    0.3851   -0.3060 C   0  0  0  0  0  0  0  0  0  0  0  0
    1.0420   -0.0101    0.9392 C   0  0  0  0  0  0  0  0  0  0  0  0
   -0.2887    0.3303    0.9394 O   0  0  0  0  0  0  0  0  0  0  0  0
   -1.0286   -0.2412   -0.0797 C   0  0  0  0  0  0  0  0  0  0  0  0
   -2.3333   -0.8709    0.3702 C   0  0  0  0  0  0  0  0  0  0  0  0
   -3.1080    0.3545    0.0025 C   0  0  0  0  0  0  0  0  0  0  0  0
   -2.5859    1.6102    0.1062 O   0  0  0  0  0  0  0  0  0  0  0  0
   -1.8610    0.8257   -0.7584 C   0  0  0  0  0  0  0  0  0  0  0  0
    3.4681   -0.8968   -0.8783 H   0  0  0  0  0  0  0  0  0  0  0  0
    3.8763    0.8364   -0.4124 H   0  0  0  0  0  0  0  0  0  0  0  0
    3.4546   -0.3493    0.8631 H   0  0  0  0  0  0  0  0  0  0  0  0
    1.7196    1.4872   -0.4776 H   0  0  0  0  0  0  0  0  0  0  0  0
    1.3729   -0.1187   -1.1954 H   0  0  0  0  0  0  0  0  0  0  0  0
    1.1974   -1.1075    1.0951 H   0  0  0  0  0  0  0  0  0  0  0  0
    1.5186    0.4911    1.8049 H   0  0  0  0  0  0  0  0  0  0  0  0
   -0.4498   -0.8849   -0.7384 H   0  0  0  0  0  0  0  0  0  0  0  0
   -2.3664   -1.1734    1.4354 H   0  0  0  0  0  0  0  0  0  0  0  0
   -2.5989   -1.7064   -0.3086 H   0  0  0  0  0  0  0  0  0  0  0  0
   -4.0504    0.2437   -0.5510 H   0  0  0  0  0  0  0  0  0  0  0  0
   -2.0014    0.8325   -1.8315 H   0  0  0  0  0  0  0  0  0  0  0  0
  1  2  1  0
  2  3  1  0
  3  4  1  0
  4  5  1  0
  5  6  1  0
  6  7  1  0
  7  8  1  0
  8  9  1  0
  9  5  1  0
  9  7  1  0
  1 10  1  0
  1 11  1  0
  1 12  1  0
  2 13  1  0
  2 14  1  0
  3 15  1  0
  3 16  1  0
  5 17  1  0
  6 18  1  0
  6 19  1  0
  7 20  1  0
  9 21  1  0
M  END
