
     RDKit          3D

 20 20  0  0  0  0  0  0  0  0999 V2000
    2.0252    0.9351    0.7758 C   0  0  0  0  0  0  0  0  0  0  0  0
    1.5970   -0.4813    0.8599 C   0  0  0  0  0  0  0  0  0  0  0  0
    1.0996   -1.0414   -0.4614 C   0  0  0  0  0  0  0  0  0  0  0  0
    0.0354   -0.2945   -0.8590 O   0  0  0  0  0  0  0  0  0  0  0  0
   -1.0489   -0.2392   -0.0757 C   0  0  0  0  0  0  0  0  0  0  0  0
   -1.6481    1.0976    0.2525 C   0  0  0  0  0  0  0  0  0  0  0  0
   -2.6667    0.9237   -0.7124 O   0  0  0  0  0  0  0  0  0  0  0  0
   -2.4074   -0.4577   -0.6725 C   0  0  0  0  0  0  0  0  0  0  0  0
    1.6416    1.4910   -0.0872 H   0  0  0  0  0  0  0  0  0  0  0  0
    1.7516    1.5450    1.6868 H   0  0  0  0  0  0  0  0  0  0  0  0
    3.1491    1.0330    0.7248 H   0  0  0  0  0  0  0  0  0  0  0  0
    2.5058   -1.0917    1.1235 H   0  0  0  0  0  0  0  0  0  0  0  0
    0.8807   -0.6098    1.6886 H   0  0  0  0  0  0  0  0  0  0  0  0
    1.9386   -1.0631   -1.1858 H   0  0  0  0  0  0  0  0  0  0  0  0
    0.8049   -2.1145   -0.3300 H   0  0  0  0  0  0  0  0  0  0  0  0
   -0.9424   -0.8429    0.8430 H   0  0  0  0  0  0  0  0  0  0  0  0
   -1.0154    1.9440   -0.0223 H   0  0  0  0  0  0  0  0  0  0  0  0
   -2.1094    1.1456    1.2709 H   0  0  0  0  0  0  0  0  0  0  0  0
   -3.1389   -0.9516    0.0079 H   0  0  0  0  0  0  0  0  0  0  0  0
   -2.4522   -0.9271   -1.6568 H   0  0  0  0  0  0  0  0  0  0  0  0
  1  2  1  0
  2  3  1  0
  3  4  1  0
  4  5  1  0
  5  6  1  0
  6  7  1  0
  7  8  1  0
  8  5  1  0
  1  9  1  0
  1 10  1  0
  1 11  1  0
  2 12  1  0
  2 13  1  0
  3 14  1  0
  3 15  1  0
  5 16  1  0
  6 17  1  0
  6 18  1  0
  8 19  1  0
  8 20  1  0
M  END
