
     RDKit          3D

  9  8  0  0  0  0  0  0  0  0999 V2000
   -0.9664    0.2418    0.0611 C   0  0  0  0  0  0  0  0  0  0  0  0
    0.4069   -0.3671   -0.0931 C   0  0  0  0  0  0  0  0  0  0  0  0
    1.3980    0.6031   -0.2560 O   0  0  0  0  0  0  0  0  0  0  0  0
   -0.9181    1.3455    0.1536 H   0  0  0  0  0  0  0  0  0  0  0  0
   -1.5029   -0.2143    0.9378 H   0  0  0  0  0  0  0  0  0  0  0  0
   -1.6302    0.0127   -0.8163 H   0  0  0  0  0  0  0  0  0  0  0  0
    0.4045   -0.9480   -1.0558 H   0  0  0  0  0  0  0  0  0  0  0  0
    0.6218   -1.0323    0.7627 H   0  0  0  0  0  0  0  0  0  0  0  0
    2.1864    0.3587    0.3060 H   0  0  0  0  0  0  0  0  0  0  0  0
  1  2  1  0
  2  3  1  0
  1  4  1  0
  1  5  1  0
  1  6  1  0
  2  7  1  0
  2  8  1  0
  3  9  1  0
M  END
