
     RDKit          3D

 21 22  0  0  0  0  0  0  0  0999 V2000
    2.9040    0.1845    0.2777 C   0  0  0  0  0  0  0  0  0  0  0  0
    2.1089   -0.9731   -0.2325 C   0  0  0  0  0  0  0  0  0  0  0  0
    0.7760   -0.9485    0.0701 O   0  0  0  0  0  0  0  0  0  0  0  0
    0.0595    0.1074   -0.3872 C   0  0  0  0  0  0  0  0  0  0  0  0
   -0.6656    0.7630    0.8098 C   0  0  0  0  0  0  0  0  0  0  0  0
   -2.0170    0.8462    0.2134 C   0  0  0  0  0  0  0  0  0  0  0  0
   -3.1188   -0.0139    0.1484 C   0  0  0  0  0  0  0  0  0  0  0  0
   -1.9482   -0.6549   -0.2885 C   0  0  0  0  0  0  0  0  0  0  0  0
   -0.9896   -0.3920   -1.2098 O   0  0  0  0  0  0  0  0  0  0  0  0
    2.9243    1.0555   -0.4156 H   0  0  0  0  0  0  0  0  0  0  0  0
    3.9595   -0.1514    0.3663 H   0  0  0  0  0  0  0  0  0  0  0  0
    2.5868    0.4693    1.3057 H   0  0  0  0  0  0  0  0  0  0  0  0
    2.2240   -1.0293   -1.3251 H   0  0  0  0  0  0  0  0  0  0  0  0
    2.5431   -1.8981    0.2046 H   0  0  0  0  0  0  0  0  0  0  0  0
    0.6086    0.8571   -0.9639 H   0  0  0  0  0  0  0  0  0  0  0  0
   -0.2099    1.7019    1.0914 H   0  0  0  0  0  0  0  0  0  0  0  0
   -0.7025    0.0127    1.6458 H   0  0  0  0  0  0  0  0  0  0  0  0
   -1.9722    1.6246   -0.6149 H   0  0  0  0  0  0  0  0  0  0  0  0
   -3.9348    0.1633   -0.6128 H   0  0  0  0  0  0  0  0  0  0  0  0
   -3.6158   -0.3235    1.1084 H   0  0  0  0  0  0  0  0  0  0  0  0
   -1.5202   -1.4007    0.4530 H   0  0  0  0  0  0  0  0  0  0  0  0
  1  2  1  0
  2  3  1  0
  3  4  1  0
  4  5  1  0
  5  6  1  0
  6  7  1  0
  7  8  1  0
  8  9  1  0
  9  4  1  0
  8  6  1  0
  1 10  1  0
  1 11  1  0
  1 12  1  0
  2 13  1  0
  2 14  1  0
  4 15  1  0
  5 16  1  0
  5 17  1  0
  6 18  1  0
  7 19  1  0
  7 20  1  0
  8 21  1  0
M  END
