
     RDKit          3D

 21 20  0  0  0  0  0  0  0  0999 V2000
    2.1492    0.7842   -0.6039 C   0  0  0  0  0  0  0  0  0  0  0  0
    1.7001   -0.5380   -0.0587 C   0  0  0  0  0  0  0  0  0  0  0  0
    0.6051   -0.3938    0.7296 O   0  0  0  0  0  0  0  0  0  0  0  0
   -0.5055    0.0834    0.1106 C   0  0  0  0  0  0  0  0  0  0  0  0
   -1.1263    1.2949    0.7406 C   0  0  0  0  0  0  0  0  0  0  0  0
   -0.3294    2.4043    0.8205 O   0  0  0  0  0  0  0  0  0  0  0  0
   -1.5718   -1.0250    0.2375 C   0  0  0  0  0  0  0  0  0  0  0  0
   -1.0910   -2.2601   -0.4213 C   0  0  0  0  0  0  0  0  0  0  0  0
   -1.4619   -2.5527   -1.5593 O   0  0  0  0  0  0  0  0  0  0  0  0
    3.0130    0.6295   -1.2916 H   0  0  0  0  0  0  0  0  0  0  0  0
    1.3345    1.3526   -1.0764 H   0  0  0  0  0  0  0  0  0  0  0  0
    2.4831    1.4007    0.2856 H   0  0  0  0  0  0  0  0  0  0  0  0
    1.4866   -1.2683   -0.8702 H   0  0  0  0  0  0  0  0  0  0  0  0
    2.5858   -0.9738    0.4844 H   0  0  0  0  0  0  0  0  0  0  0  0
   -0.3058    0.2808   -0.9465 H   0  0  0  0  0  0  0  0  0  0  0  0
   -2.0910    1.4707    0.1741 H   0  0  0  0  0  0  0  0  0  0  0  0
   -1.4945    1.0199    1.7724 H   0  0  0  0  0  0  0  0  0  0  0  0
   -0.6338    3.0856    0.1774 H   0  0  0  0  0  0  0  0  0  0  0  0
   -1.8103   -1.1747    1.3113 H   0  0  0  0  0  0  0  0  0  0  0  0
   -2.5269   -0.6953   -0.2413 H   0  0  0  0  0  0  0  0  0  0  0  0
   -0.4092   -2.9251    0.0730 H   0  0  0  0  0  0  0  0  0  0  0  0
  1  2  1  0
  2  3  1  0
  3  4  1  0
  4  5  1  0
  5  6  1  0
  4  7  1  0
  7  8  1  0
  8  9  2  0
  1 10  1  0
  1 11  1  0
  1 12  1  0
  2 13  1  0
  2 14  1  0
  4 15  1  0
  5 16  1  0
  5 17  1  0
  6 18  1  0
  7 19  1  0
  7 20  1  0
  8 21  1  0
M  END
