
     RDKit          3D

 21 22  0  0  0  0  0  0  0  0999 V2000
    3.0896   -0.0198    0.1573 C   0  0  0  0  0  0  0  0  0  0  0  0
    1.6613    0.4165   -0.1874 C   0  0  0  0  0  0  0  0  0  0  0  0
    0.8065   -0.4629    0.3718 O   0  0  0  0  0  0  0  0  0  0  0  0
   -0.4851   -0.3170    0.2270 C   0  0  0  0  0  0  0  0  0  0  0  0
   -1.4230   -1.2887    0.8451 C   0  0  0  0  0  0  0  0  0  0  0  0
   -2.6687   -0.7261    0.4606 O   0  0  0  0  0  0  0  0  0  0  0  0
   -2.2809    0.3240   -0.3372 C   0  0  0  0  0  0  0  0  0  0  0  0
   -1.0955   -0.1864   -1.1762 C   0  0  0  0  0  0  0  0  0  0  0  0
   -1.1741    1.0020    0.4889 C   0  0  0  0  0  0  0  0  0  0  0  0
    3.1165   -1.1258    0.3518 H   0  0  0  0  0  0  0  0  0  0  0  0
    3.4669    0.4824    1.0592 H   0  0  0  0  0  0  0  0  0  0  0  0
    3.7560    0.1308   -0.7332 H   0  0  0  0  0  0  0  0  0  0  0  0
    1.5382    0.5854   -1.2690 H   0  0  0  0  0  0  0  0  0  0  0  0
    1.5471    1.4195    0.3186 H   0  0  0  0  0  0  0  0  0  0  0  0
   -1.3178   -2.2664    0.2986 H   0  0  0  0  0  0  0  0  0  0  0  0
   -1.3437   -1.4093    1.9254 H   0  0  0  0  0  0  0  0  0  0  0  0
   -2.9852    0.9512   -0.8177 H   0  0  0  0  0  0  0  0  0  0  0  0
   -0.6873    0.6149   -1.7846 H   0  0  0  0  0  0  0  0  0  0  0  0
   -1.3193   -1.1499   -1.6500 H   0  0  0  0  0  0  0  0  0  0  0  0
   -0.7207    1.8215   -0.0792 H   0  0  0  0  0  0  0  0  0  0  0  0
   -1.4808    1.2041    1.5119 H   0  0  0  0  0  0  0  0  0  0  0  0
  1  2  1  0
  2  3  1  0
  3  4  1  0
  4  5  1  0
  5  6  1  0
  6  7  1  0
  7  8  1  0
  7  9  1  0
  8  4  1  0
  9  4  1  0
  1 10  1  0
  1 11  1  0
  1 12  1  0
  2 13  1  0
  2 14  1  0
  5 15  1  0
  5 16  1  0
  7 17  1  0
  8 18  1  0
  8 19  1  0
  9 20  1  0
  9 21  1  0
M  END
