
     RDKit          3D

 23 23  0  0  0  0  0  0  0  0999 V2000
    2.8578   -0.4911   -0.1851 C   0  0  0  0  0  0  0  0  0  0  0  0
    2.2486    0.5878    0.6734 C   0  0  0  0  0  0  0  0  0  0  0  0
    0.9002    0.3766    0.9152 O   0  0  0  0  0  0  0  0  0  0  0  0
    0.1465    0.3389   -0.2515 C   0  0  0  0  0  0  0  0  0  0  0  0
   -0.9185    1.4084   -0.2795 C   0  0  0  0  0  0  0  0  0  0  0  0
   -2.1738    0.6504   -0.7044 C   0  0  0  0  0  0  0  0  0  0  0  0
   -1.9896   -0.6248    0.0895 C   0  0  0  0  0  0  0  0  0  0  0  0
   -2.9042   -1.5969   -0.2002 O   0  0  0  0  0  0  0  0  0  0  0  0
   -0.5669   -0.9922   -0.2952 C   0  0  0  0  0  0  0  0  0  0  0  0
    2.1221   -1.0153   -0.8168 H   0  0  0  0  0  0  0  0  0  0  0  0
    3.6515   -0.0577   -0.8316 H   0  0  0  0  0  0  0  0  0  0  0  0
    3.3659   -1.2421    0.4721 H   0  0  0  0  0  0  0  0  0  0  0  0
    2.7495    0.6412    1.6642 H   0  0  0  0  0  0  0  0  0  0  0  0
    2.4113    1.5668    0.1650 H   0  0  0  0  0  0  0  0  0  0  0  0
    0.7705    0.4858   -1.1595 H   0  0  0  0  0  0  0  0  0  0  0  0
   -1.1241    1.7689    0.7575 H   0  0  0  0  0  0  0  0  0  0  0  0
   -0.6952    2.2267   -0.9761 H   0  0  0  0  0  0  0  0  0  0  0  0
   -2.0403    0.4006   -1.7697 H   0  0  0  0  0  0  0  0  0  0  0  0
   -3.0941    1.1851   -0.4669 H   0  0  0  0  0  0  0  0  0  0  0  0
   -1.9567   -0.3278    1.1586 H   0  0  0  0  0  0  0  0  0  0  0  0
   -3.0115   -2.1615    0.6230 H   0  0  0  0  0  0  0  0  0  0  0  0
   -0.1549   -1.7186    0.4197 H   0  0  0  0  0  0  0  0  0  0  0  0
   -0.5939   -1.4089   -1.3332 H   0  0  0  0  0  0  0  0  0  0  0  0
  1  2  1  0
  2  3  1  0
  3  4  1  0
  4  5  1  0
  5  6  1  0
  6  7  1  0
  7  8  1  0
  7  9  1  0
  9  4  1  0
  1 10  1  0
  1 11  1  0
  1 12  1  0
  2 13  1  0
  2 14  1  0
  4 15  1  0
  5 16  1  0
  5 17  1  0
  6 18  1  0
  6 19  1  0
  7 20  1  0
  8 21  1  0
  9 22  1  0
  9 23  1  0
M  END
