
     RDKit          3D

 20 21  0  0  0  0  0  0  0  0999 V2000
    2.3662   -0.0838    1.2493 C   0  0  0  0  0  0  0  0  0  0  0  0
    2.3652    0.4086   -0.1920 C   0  0  0  0  0  0  0  0  0  0  0  0
    1.1667    0.8966   -0.5956 O   0  0  0  0  0  0  0  0  0  0  0  0
    0.1011    0.0566   -0.5651 C   0  0  0  0  0  0  0  0  0  0  0  0
   -1.1180    0.6839    0.1205 C   0  0  0  0  0  0  0  0  0  0  0  0
   -2.1892   -0.2540    0.5449 C   0  0  0  0  0  0  0  0  0  0  0  0
   -2.2883   -0.7216   -0.8908 C   0  0  0  0  0  0  0  0  0  0  0  0
   -1.1467    0.1913   -1.2867 C   0  0  0  0  0  0  0  0  0  0  0  0
    1.4456   -0.6474    1.4938 H   0  0  0  0  0  0  0  0  0  0  0  0
    2.5160    0.7556    1.9703 H   0  0  0  0  0  0  0  0  0  0  0  0
    3.2545   -0.7474    1.3550 H   0  0  0  0  0  0  0  0  0  0  0  0
    2.7776   -0.4070   -0.8223 H   0  0  0  0  0  0  0  0  0  0  0  0
    3.1133    1.2286   -0.2295 H   0  0  0  0  0  0  0  0  0  0  0  0
    0.3499   -0.9821   -0.1942 H   0  0  0  0  0  0  0  0  0  0  0  0
   -1.1393    1.7489    0.3197 H   0  0  0  0  0  0  0  0  0  0  0  0
   -3.1040    0.2620    0.8874 H   0  0  0  0  0  0  0  0  0  0  0  0
   -1.8438   -0.9858    1.2725 H   0  0  0  0  0  0  0  0  0  0  0  0
   -2.0556   -1.8044   -0.9653 H   0  0  0  0  0  0  0  0  0  0  0  0
   -3.2630   -0.4861   -1.3408 H   0  0  0  0  0  0  0  0  0  0  0  0
   -1.3082    0.8877   -2.1310 H   0  0  0  0  0  0  0  0  0  0  0  0
  1  2  1  0
  2  3  1  0
  3  4  1  0
  4  5  1  0
  5  6  1  0
  6  7  1  0
  7  8  1  0
  8  4  1  0
  8  5  1  0
  1  9  1  0
  1 10  1  0
  1 11  1  0
  2 12  1  0
  2 13  1  0
  4 14  1  0
  5 15  1  0
  6 16  1  0
  6 17  1  0
  7 18  1  0
  7 19  1  0
  8 20  1  0
M  END
