
     RDKit          3D

 23 23  0  0  0  0  0  0  0  0999 V2000
    3.6150   -0.0992    0.5786 C   0  0  0  0  0  0  0  0  0  0  0  0
    2.4783   -0.4322   -0.3499 C   0  0  0  0  0  0  0  0  0  0  0  0
    1.2431   -0.0253    0.1409 O   0  0  0  0  0  0  0  0  0  0  0  0
    0.2895   -0.3939   -0.8120 C   0  0  0  0  0  0  0  0  0  0  0  0
   -1.0750    0.0545   -0.2718 C   0  0  0  0  0  0  0  0  0  0  0  0
   -1.1493    1.4023   -0.0627 O   0  0  0  0  0  0  0  0  0  0  0  0
   -2.3385    1.8721    0.4173 C   0  0  0  0  0  0  0  0  0  0  0  0
   -2.2846   -0.7575   -0.5951 C   0  0  0  0  0  0  0  0  0  0  0  0
   -1.6638   -0.9233    0.7384 C   0  0  0  0  0  0  0  0  0  0  0  0
    4.4243   -0.8337    0.5812 H   0  0  0  0  0  0  0  0  0  0  0  0
    3.9621    0.9357    0.3261 H   0  0  0  0  0  0  0  0  0  0  0  0
    3.1862   -0.0673    1.6188 H   0  0  0  0  0  0  0  0  0  0  0  0
    2.4306   -1.5413   -0.4383 H   0  0  0  0  0  0  0  0  0  0  0  0
    2.6581    0.0627   -1.3059 H   0  0  0  0  0  0  0  0  0  0  0  0
    0.5028    0.1016   -1.7914 H   0  0  0  0  0  0  0  0  0  0  0  0
    0.3264   -1.4790   -0.9440 H   0  0  0  0  0  0  0  0  0  0  0  0
   -2.6544    1.4652    1.3925 H   0  0  0  0  0  0  0  0  0  0  0  0
   -2.2007    2.9796    0.5941 H   0  0  0  0  0  0  0  0  0  0  0  0
   -3.1744    1.8173   -0.3221 H   0  0  0  0  0  0  0  0  0  0  0  0
   -3.2323   -0.2020   -0.7288 H   0  0  0  0  0  0  0  0  0  0  0  0
   -2.1460   -1.5744   -1.3313 H   0  0  0  0  0  0  0  0  0  0  0  0
   -2.0747   -0.4699    1.6528 H   0  0  0  0  0  0  0  0  0  0  0  0
   -1.1227   -1.8920    0.9127 H   0  0  0  0  0  0  0  0  0  0  0  0
  1  2  1  0
  2  3  1  0
  3  4  1  0
  4  5  1  0
  5  6  1  0
  6  7  1  0
  5  8  1  0
  8  9  1  0
  9  5  1  0
  1 10  1  0
  1 11  1  0
  1 12  1  0
  2 13  1  0
  2 14  1  0
  4 15  1  0
  4 16  1  0
  7 17  1  0
  7 18  1  0
  7 19  1  0
  8 20  1  0
  8 21  1  0
  9 22  1  0
  9 23  1  0
M  END
