
     RDKit          3D

 23 23  0  0  0  0  0  0  0  0999 V2000
    2.2588   -0.5274    0.3119 C   0  0  0  0  0  0  0  0  0  0  0  0
    1.7921    0.6547    1.0982 C   0  0  0  0  0  0  0  0  0  0  0  0
    0.4577    0.6115    1.4450 O   0  0  0  0  0  0  0  0  0  0  0  0
   -0.3845    0.5536    0.3356 C   0  0  0  0  0  0  0  0  0  0  0  0
   -0.2943    1.7079   -0.6323 C   0  0  0  0  0  0  0  0  0  0  0  0
   -1.8298    0.1926    0.6991 C   0  0  0  0  0  0  0  0  0  0  0  0
   -0.9109   -0.7553   -0.0485 C   0  0  0  0  0  0  0  0  0  0  0  0
   -1.2408   -1.1113   -1.4773 C   0  0  0  0  0  0  0  0  0  0  0  0
   -0.5376   -1.8593    0.7186 O   0  0  0  0  0  0  0  0  0  0  0  0
    2.3661   -1.4138    0.9401 H   0  0  0  0  0  0  0  0  0  0  0  0
    3.2811   -0.2666   -0.0874 H   0  0  0  0  0  0  0  0  0  0  0  0
    1.6362   -0.7687   -0.5650 H   0  0  0  0  0  0  0  0  0  0  0  0
    1.9739    1.6141    0.5753 H   0  0  0  0  0  0  0  0  0  0  0  0
    2.3780    0.6930    2.0356 H   0  0  0  0  0  0  0  0  0  0  0  0
   -0.5265    2.6464   -0.0561 H   0  0  0  0  0  0  0  0  0  0  0  0
    0.6686    1.7900   -1.1375 H   0  0  0  0  0  0  0  0  0  0  0  0
   -1.0809    1.6044   -1.3845 H   0  0  0  0  0  0  0  0  0  0  0  0
   -2.0748   -0.0020    1.7537 H   0  0  0  0  0  0  0  0  0  0  0  0
   -2.6486    0.6605    0.1344 H   0  0  0  0  0  0  0  0  0  0  0  0
   -1.0935   -0.2746   -2.1784 H   0  0  0  0  0  0  0  0  0  0  0  0
   -0.5311   -1.9084   -1.7861 H   0  0  0  0  0  0  0  0  0  0  0  0
   -2.2594   -1.5355   -1.5948 H   0  0  0  0  0  0  0  0  0  0  0  0
   -1.3998   -2.3055    0.9752 H   0  0  0  0  0  0  0  0  0  0  0  0
  1  2  1  0
  2  3  1  0
  3  4  1  0
  4  5  1  0
  4  6  1  0
  6  7  1  0
  7  8  1  0
  7  9  1  0
  7  4  1  0
  1 10  1  0
  1 11  1  0
  1 12  1  0
  2 13  1  0
  2 14  1  0
  5 15  1  0
  5 16  1  0
  5 17  1  0
  6 18  1  0
  6 19  1  0
  8 20  1  0
  8 21  1  0
  8 22  1  0
  9 23  1  0
M  END
