
     RDKit          3D

 18 18  0  0  0  0  0  0  0  0999 V2000
    3.2270   -0.1561   -0.4054 C   0  0  0  0  0  0  0  0  0  0  0  0
    2.0730   -0.5967    0.4834 C   0  0  0  0  0  0  0  0  0  0  0  0
    0.8963   -0.0847   -0.0876 O   0  0  0  0  0  0  0  0  0  0  0  0
   -0.3652   -0.2492    0.3967 C   0  0  0  0  0  0  0  0  0  0  0  0
   -0.5226   -0.9143    1.4478 O   0  0  0  0  0  0  0  0  0  0  0  0
   -1.4948    0.3671   -0.3433 C   0  0  0  0  0  0  0  0  0  0  0  0
   -2.8687   -0.1707   -0.2026 C   0  0  0  0  0  0  0  0  0  0  0  0
   -2.5203    1.0082    0.5974 C   0  0  0  0  0  0  0  0  0  0  0  0
    2.9209   -0.2755   -1.4788 H   0  0  0  0  0  0  0  0  0  0  0  0
    4.1387   -0.7359   -0.2463 H   0  0  0  0  0  0  0  0  0  0  0  0
    3.3505    0.9346   -0.2513 H   0  0  0  0  0  0  0  0  0  0  0  0
    2.1935   -0.1116    1.4764 H   0  0  0  0  0  0  0  0  0  0  0  0
    2.0671   -1.6937    0.5905 H   0  0  0  0  0  0  0  0  0  0  0  0
   -1.2353    0.9297   -1.2558 H   0  0  0  0  0  0  0  0  0  0  0  0
   -3.0733   -1.1309    0.3105 H   0  0  0  0  0  0  0  0  0  0  0  0
   -3.5283   -0.0189   -1.0851 H   0  0  0  0  0  0  0  0  0  0  0  0
   -2.8349    2.0396    0.3212 H   0  0  0  0  0  0  0  0  0  0  0  0
   -2.4235    0.8591    1.6835 H   0  0  0  0  0  0  0  0  0  0  0  0
  1  2  1  0
  2  3  1  0
  3  4  1  0
  4  5  2  0
  4  6  1  0
  6  7  1  0
  7  8  1  0
  8  6  1  0
  1  9  1  0
  1 10  1  0
  1 11  1  0
  2 12  1  0
  2 13  1  0
  6 14  1  0
  7 15  1  0
  7 16  1  0
  8 17  1  0
  8 18  1  0
M  END
