
     RDKit          3D

 17 17  0  0  0  0  0  0  0  0999 V2000
    2.8389    0.0570    0.0884 C   0  0  0  0  0  0  0  0  0  0  0  0
    1.4287    0.4469    0.4286 C   0  0  0  0  0  0  0  0  0  0  0  0
    0.5386   -0.3138   -0.3422 O   0  0  0  0  0  0  0  0  0  0  0  0
   -0.7321    0.0758    0.0018 C   0  0  0  0  0  0  0  0  0  0  0  0
   -1.6279   -1.0946    0.3665 C   0  0  0  0  0  0  0  0  0  0  0  0
   -2.8659   -0.7224   -0.1967 O   0  0  0  0  0  0  0  0  0  0  0  0
   -2.7505    0.4504   -0.9308 C   0  0  0  0  0  0  0  0  0  0  0  0
   -3.7009    1.2161   -1.3098 O   0  0  0  0  0  0  0  0  0  0  0  0
   -1.3906    0.6029   -1.1577 O   0  0  0  0  0  0  0  0  0  0  0  0
    2.8564   -0.2207   -0.9835 H   0  0  0  0  0  0  0  0  0  0  0  0
    3.1303   -0.7988    0.7203 H   0  0  0  0  0  0  0  0  0  0  0  0
    3.5233    0.8915    0.3349 H   0  0  0  0  0  0  0  0  0  0  0  0
    1.2430    1.5329    0.2974 H   0  0  0  0  0  0  0  0  0  0  0  0
    1.2591    0.1968    1.4887 H   0  0  0  0  0  0  0  0  0  0  0  0
   -0.7488    0.8689    0.7776 H   0  0  0  0  0  0  0  0  0  0  0  0
   -1.2408   -2.0483   -0.0255 H   0  0  0  0  0  0  0  0  0  0  0  0
   -1.7608   -1.1404    1.4711 H   0  0  0  0  0  0  0  0  0  0  0  0
  1  2  1  0
  2  3  1  0
  3  4  1  0
  4  5  1  0
  5  6  1  0
  6  7  1  0
  7  8  2  0
  7  9  1  0
  9  4  1  0
  1 10  1  0
  1 11  1  0
  1 12  1  0
  2 13  1  0
  2 14  1  0
  4 15  1  0
  5 16  1  0
  5 17  1  0
M  END
