
     RDKit          3D

 18 17  0  0  0  0  0  0  0  0999 V2000
    2.6527   -0.0681   -0.1597 C   0  0  0  0  0  0  0  0  0  0  0  0
    1.8551    0.9685    0.5472 C   0  0  0  0  0  0  0  0  0  0  0  0
    0.4921    0.9924    0.1971 O   0  0  0  0  0  0  0  0  0  0  0  0
   -0.3817   -0.0578    0.3567 C   0  0  0  0  0  0  0  0  0  0  0  0
    0.0544   -1.1281    0.8519 O   0  0  0  0  0  0  0  0  0  0  0  0
   -1.8214   -0.0196   -0.0177 C   0  0  0  0  0  0  0  0  0  0  0  0
   -2.1721   -1.1746   -0.9064 C   0  0  0  0  0  0  0  0  0  0  0  0
   -2.1867    1.2052   -0.5506 O   0  0  0  0  0  0  0  0  0  0  0  0
    3.3206   -0.6019    0.5788 H   0  0  0  0  0  0  0  0  0  0  0  0
    2.0722   -0.8250   -0.6996 H   0  0  0  0  0  0  0  0  0  0  0  0
    3.3726    0.4090   -0.8758 H   0  0  0  0  0  0  0  0  0  0  0  0
    2.2571    1.9897    0.2812 H   0  0  0  0  0  0  0  0  0  0  0  0
    2.0042    0.8971    1.6529 H   0  0  0  0  0  0  0  0  0  0  0  0
   -2.3961   -0.1295    0.9450 H   0  0  0  0  0  0  0  0  0  0  0  0
   -1.8065   -2.0953   -0.4145 H   0  0  0  0  0  0  0  0  0  0  0  0
   -1.7514   -1.0272   -1.9241 H   0  0  0  0  0  0  0  0  0  0  0  0
   -3.2995   -1.2229   -0.9354 H   0  0  0  0  0  0  0  0  0  0  0  0
   -2.2656    1.8880    0.1644 H   0  0  0  0  0  0  0  0  0  0  0  0
  1  2  1  0
  2  3  1  0
  3  4  1  0
  4  5  2  0
  4  6  1  0
  6  7  1  0
  6  8  1  0
  1  9  1  0
  1 10  1  0
  1 11  1  0
  2 12  1  0
  2 13  1  0
  6 14  1  0
  7 15  1  0
  7 16  1  0
  7 17  1  0
  8 18  1  0
M  END
