
     RDKit          3D

 16 16  0  0  0  0  0  0  0  0999 V2000
    2.5790   -0.5047   -0.4924 C   0  0  0  0  0  0  0  0  0  0  0  0
    1.3180    0.1217    0.0907 C   0  0  0  0  0  0  0  0  0  0  0  0
    0.2207   -0.2088   -0.6962 O   0  0  0  0  0  0  0  0  0  0  0  0
   -0.8915    0.3869   -0.1185 C   0  0  0  0  0  0  0  0  0  0  0  0
   -2.0981    0.7165   -0.9000 C   0  0  0  0  0  0  0  0  0  0  0  0
   -2.0997   -0.5321   -0.1120 C   0  0  0  0  0  0  0  0  0  0  0  0
    2.5036   -1.6039   -0.2469 H   0  0  0  0  0  0  0  0  0  0  0  0
    2.5989   -0.4232   -1.5852 H   0  0  0  0  0  0  0  0  0  0  0  0
    3.4700   -0.1006    0.0149 H   0  0  0  0  0  0  0  0  0  0  0  0
    1.1507   -0.2128    1.1223 H   0  0  0  0  0  0  0  0  0  0  0  0
    1.4325    1.2322    0.0539 H   0  0  0  0  0  0  0  0  0  0  0  0
   -0.7061    0.9710    0.7950 H   0  0  0  0  0  0  0  0  0  0  0  0
   -2.0918    0.6517   -2.0218 H   0  0  0  0  0  0  0  0  0  0  0  0
   -2.6875    1.5894   -0.5541 H   0  0  0  0  0  0  0  0  0  0  0  0
   -2.6197   -0.6144    0.8561 H   0  0  0  0  0  0  0  0  0  0  0  0
   -2.0790   -1.4688   -0.6956 H   0  0  0  0  0  0  0  0  0  0  0  0
  1  2  1  0
  2  3  1  0
  3  4  1  0
  4  5  1  0
  5  6  1  0
  6  4  1  0
  1  7  1  0
  1  8  1  0
  1  9  1  0
  2 10  1  0
  2 11  1  0
  4 12  1  0
  5 13  1  0
  5 14  1  0
  6 15  1  0
  6 16  1  0
M  END
