
     RDKit          3D

 14 13  0  0  0  0  0  0  0  0999 V2000
   -1.7330    0.2359    0.3824 C   0  0  0  0  0  0  0  0  0  0  0  0
   -0.9422   -0.9024   -0.2305 C   0  0  0  0  0  0  0  0  0  0  0  0
    0.3786   -0.9121    0.1452 O   0  0  0  0  0  0  0  0  0  0  0  0
    1.0014    0.2640   -0.2392 C   0  0  0  0  0  0  0  0  0  0  0  0
    2.4277    0.3165    0.1366 C   0  0  0  0  0  0  0  0  0  0  0  0
    3.0149   -0.5693    0.7229 O   0  0  0  0  0  0  0  0  0  0  0  0
   -2.8181   -0.0051    0.1812 H   0  0  0  0  0  0  0  0  0  0  0  0
   -1.5405    1.2009   -0.1002 H   0  0  0  0  0  0  0  0  0  0  0  0
   -1.5918    0.2658    1.4974 H   0  0  0  0  0  0  0  0  0  0  0  0
   -1.4542   -1.8398    0.0611 H   0  0  0  0  0  0  0  0  0  0  0  0
   -1.0787   -0.8075   -1.3386 H   0  0  0  0  0  0  0  0  0  0  0  0
    0.4679    1.1229    0.2482 H   0  0  0  0  0  0  0  0  0  0  0  0
    0.8899    0.4187   -1.3321 H   0  0  0  0  0  0  0  0  0  0  0  0
    2.9781    1.2113   -0.1344 H   0  0  0  0  0  0  0  0  0  0  0  0
  1  2  1  0
  2  3  1  0
  3  4  1  0
  4  5  1  0
  5  6  2  0
  1  7  1  0
  1  8  1  0
  1  9  1  0
  2 10  1  0
  2 11  1  0
  4 12  1  0
  4 13  1  0
  5 14  1  0
M  END
