
     RDKit          3D

 20 20  0  0  0  0  0  0  0  0999 V2000
    2.8327    0.2645    0.4053 C   0  0  0  0  0  0  0  0  0  0  0  0
    1.4455    0.3807   -0.2095 C   0  0  0  0  0  0  0  0  0  0  0  0
    0.5277   -0.4055    0.4262 O   0  0  0  0  0  0  0  0  0  0  0  0
   -0.7560   -0.3703   -0.0977 C   0  0  0  0  0  0  0  0  0  0  0  0
   -1.4691    0.9365   -0.1165 C   0  0  0  0  0  0  0  0  0  0  0  0
   -0.9065    1.9443   -0.8375 O   0  0  0  0  0  0  0  0  0  0  0  0
   -1.1434   -1.4519   -1.0669 C   0  0  0  0  0  0  0  0  0  0  0  0
   -1.6630   -1.5334    0.3260 C   0  0  0  0  0  0  0  0  0  0  0  0
    3.4711    0.9886   -0.1464 H   0  0  0  0  0  0  0  0  0  0  0  0
    2.8423    0.5399    1.4659 H   0  0  0  0  0  0  0  0  0  0  0  0
    3.2713   -0.7367    0.2240 H   0  0  0  0  0  0  0  0  0  0  0  0
    1.2093    1.4759   -0.1408 H   0  0  0  0  0  0  0  0  0  0  0  0
    1.5528    0.0523   -1.2641 H   0  0  0  0  0  0  0  0  0  0  0  0
   -1.5341    1.2885    0.9543 H   0  0  0  0  0  0  0  0  0  0  0  0
   -2.5329    0.7937   -0.4587 H   0  0  0  0  0  0  0  0  0  0  0  0
   -1.0157    2.8427   -0.4813 H   0  0  0  0  0  0  0  0  0  0  0  0
   -1.8228   -1.2415   -1.9021 H   0  0  0  0  0  0  0  0  0  0  0  0
   -0.3368   -2.1609   -1.3119 H   0  0  0  0  0  0  0  0  0  0  0  0
   -1.2269   -2.2478    1.0451 H   0  0  0  0  0  0  0  0  0  0  0  0
   -2.7456   -1.3594    0.4277 H   0  0  0  0  0  0  0  0  0  0  0  0
  1  2  1  0
  2  3  1  0
  3  4  1  0
  4  5  1  0
  5  6  1  0
  4  7  1  0
  7  8  1  0
  8  4  1  0
  1  9  1  0
  1 10  1  0
  1 11  1  0
  2 12  1  0
  2 13  1  0
  5 14  1  0
  5 15  1  0
  6 16  1  0
  7 17  1  0
  7 18  1  0
  8 19  1  0
  8 20  1  0
M  END
