
     RDKit          3D

 19 19  0  0  0  0  0  0  0  0999 V2000
    3.0263    0.7962    0.4355 C   0  0  0  0  0  0  0  0  0  0  0  0
    2.1494   -0.3107   -0.0877 C   0  0  0  0  0  0  0  0  0  0  0  0
    0.7918    0.0602    0.0074 O   0  0  0  0  0  0  0  0  0  0  0  0
   -0.2575   -0.7201   -0.3823 C   0  0  0  0  0  0  0  0  0  0  0  0
   -0.0324   -1.8528   -0.8632 O   0  0  0  0  0  0  0  0  0  0  0  0
   -1.6421   -0.2310   -0.2371 C   0  0  0  0  0  0  0  0  0  0  0  0
   -1.7831    1.1487    0.3552 C   0  0  0  0  0  0  0  0  0  0  0  0
   -2.6973   -1.1939   -0.2019 C   0  0  0  0  0  0  0  0  0  0  0  0
   -2.3930   -0.4539   -1.4552 O   0  0  0  0  0  0  0  0  0  0  0  0
    3.1453    0.7267    1.5399 H   0  0  0  0  0  0  0  0  0  0  0  0
    4.0560    0.7269    0.0013 H   0  0  0  0  0  0  0  0  0  0  0  0
    2.5303    1.7554    0.1878 H   0  0  0  0  0  0  0  0  0  0  0  0
    2.3611   -1.2890    0.3800 H   0  0  0  0  0  0  0  0  0  0  0  0
    2.3763   -0.4259   -1.1739 H   0  0  0  0  0  0  0  0  0  0  0  0
   -2.1969    1.8898   -0.3500 H   0  0  0  0  0  0  0  0  0  0  0  0
   -2.4431    1.0319    1.2591 H   0  0  0  0  0  0  0  0  0  0  0  0
   -0.8035    1.4979    0.7686 H   0  0  0  0  0  0  0  0  0  0  0  0
   -3.7260   -0.8873    0.0984 H   0  0  0  0  0  0  0  0  0  0  0  0
   -2.4615   -2.2691   -0.2817 H   0  0  0  0  0  0  0  0  0  0  0  0
  1  2  1  0
  2  3  1  0
  3  4  1  0
  4  5  2  0
  4  6  1  0
  6  7  1  0
  6  8  1  0
  8  9  1  0
  9  6  1  0
  1 10  1  0
  1 11  1  0
  1 12  1  0
  2 13  1  0
  2 14  1  0
  7 15  1  0
  7 16  1  0
  7 17  1  0
  8 18  1  0
  8 19  1  0
M  END
