
     RDKit          3D

 19 20  0  0  0  0  0  0  0  0999 V2000
   -3.2058    0.7007   -0.1100 C   0  0  0  0  0  0  0  0  0  0  0  0
   -2.1171   -0.3158   -0.3903 C   0  0  0  0  0  0  0  0  0  0  0  0
   -0.9157    0.2799   -0.0752 O   0  0  0  0  0  0  0  0  0  0  0  0
    0.1940   -0.5479   -0.2851 C   0  0  0  0  0  0  0  0  0  0  0  0
    1.2601   -0.5774    0.6465 C   0  0  0  0  0  0  0  0  0  0  0  0
    2.5583   -0.9561    0.6247 O   0  0  0  0  0  0  0  0  0  0  0  0
    3.1777    0.2821    0.3101 C   0  0  0  0  0  0  0  0  0  0  0  0
    2.2004    1.0315   -0.3965 O   0  0  0  0  0  0  0  0  0  0  0  0
    1.3562    0.0442   -0.8080 C   0  0  0  0  0  0  0  0  0  0  0  0
   -2.7859    1.7002   -0.3524 H   0  0  0  0  0  0  0  0  0  0  0  0
   -3.4503    0.6347    0.9755 H   0  0  0  0  0  0  0  0  0  0  0  0
   -4.1333    0.4798   -0.6752 H   0  0  0  0  0  0  0  0  0  0  0  0
   -2.2076   -0.5683   -1.4767 H   0  0  0  0  0  0  0  0  0  0  0  0
   -2.3319   -1.2139    0.2467 H   0  0  0  0  0  0  0  0  0  0  0  0
   -0.1436   -1.5521   -0.6783 H   0  0  0  0  0  0  0  0  0  0  0  0
    1.1416    0.1795    1.4850 H   0  0  0  0  0  0  0  0  0  0  0  0
    4.0820    0.1333   -0.3045 H   0  0  0  0  0  0  0  0  0  0  0  0
    3.4021    0.8527    1.2372 H   0  0  0  0  0  0  0  0  0  0  0  0
    1.9189   -0.5872   -1.5657 H   0  0  0  0  0  0  0  0  0  0  0  0
  1  2  1  0
  2  3  1  0
  3  4  1  0
  4  5  1  0
  5  6  1  0
  6  7  1  0
  7  8  1  0
  8  9  1  0
  9  4  1  0
  9  5  1  0
  1 10  1  0
  1 11  1  0
  1 12  1  0
  2 13  1  0
  2 14  1  0
  4 15  1  0
  5 16  1  0
  7 17  1  0
  7 18  1  0
  9 19  1  0
M  END
