
     RDKit          3D

 25 25  0  0  0  0  0  0  0  0999 V2000
    2.2367    1.0555   -0.4587 C   0  0  0  0  0  0  0  0  0  0  0  0
    1.6400   -0.2680   -0.8073 C   0  0  0  0  0  0  0  0  0  0  0  0
    0.3255   -0.3792   -1.0055 O   0  0  0  0  0  0  0  0  0  0  0  0
   -0.4993   -0.1184    0.0355 C   0  0  0  0  0  0  0  0  0  0  0  0
   -0.6056    1.2815    0.6111 C   0  0  0  0  0  0  0  0  0  0  0  0
   -1.0974    2.1853   -0.5236 C   0  0  0  0  0  0  0  0  0  0  0  0
   -1.8767   -0.8082    0.0589 C   0  0  0  0  0  0  0  0  0  0  0  0
   -0.7707   -1.2029    1.0300 C   0  0  0  0  0  0  0  0  0  0  0  0
   -0.2327   -2.5951    0.7865 C   0  0  0  0  0  0  0  0  0  0  0  0
    1.6932    1.9203   -0.8440 H   0  0  0  0  0  0  0  0  0  0  0  0
    2.4812    1.1064    0.6406 H   0  0  0  0  0  0  0  0  0  0  0  0
    3.2888    1.0382   -0.9243 H   0  0  0  0  0  0  0  0  0  0  0  0
    2.0186   -1.0011   -0.0021 H   0  0  0  0  0  0  0  0  0  0  0  0
    2.1700   -0.6346   -1.7633 H   0  0  0  0  0  0  0  0  0  0  0  0
   -1.3732    1.2904    1.4402 H   0  0  0  0  0  0  0  0  0  0  0  0
    0.2992    1.6863    1.0401 H   0  0  0  0  0  0  0  0  0  0  0  0
   -0.6356    1.7873   -1.4511 H   0  0  0  0  0  0  0  0  0  0  0  0
   -2.1913    2.0725   -0.6174 H   0  0  0  0  0  0  0  0  0  0  0  0
   -0.7677    3.2263   -0.3749 H   0  0  0  0  0  0  0  0  0  0  0  0
   -2.0450   -1.4394   -0.8279 H   0  0  0  0  0  0  0  0  0  0  0  0
   -2.7274   -0.3157    0.5255 H   0  0  0  0  0  0  0  0  0  0  0  0
   -0.8298   -0.9246    2.0777 H   0  0  0  0  0  0  0  0  0  0  0  0
   -0.9744   -3.2938    1.2756 H   0  0  0  0  0  0  0  0  0  0  0  0
    0.7244   -2.7903    1.2711 H   0  0  0  0  0  0  0  0  0  0  0  0
   -0.2507   -2.8788   -0.2874 H   0  0  0  0  0  0  0  0  0  0  0  0
  1  2  1  0
  2  3  1  0
  3  4  1  0
  4  5  1  0
  5  6  1  0
  4  7  1  0
  7  8  1  0
  8  9  1  0
  8  4  1  0
  1 10  1  0
  1 11  1  0
  1 12  1  0
  2 13  1  0
  2 14  1  0
  5 15  1  0
  5 16  1  0
  6 17  1  0
  6 18  1  0
  6 19  1  0
  7 20  1  0
  7 21  1  0
  8 22  1  0
  9 23  1  0
  9 24  1  0
  9 25  1  0
M  END
