
     RDKit          3D

 25 25  0  0  0  0  0  0  0  0999 V2000
   -3.2270   -1.1284   -0.0534 C   0  0  0  0  0  0  0  0  0  0  0  0
   -2.1339   -0.1961    0.4515 C   0  0  0  0  0  0  0  0  0  0  0  0
   -1.1103   -0.2238   -0.4506 O   0  0  0  0  0  0  0  0  0  0  0  0
   -0.0313    0.5646   -0.1537 C   0  0  0  0  0  0  0  0  0  0  0  0
   -0.2510    2.0307   -0.0165 C   0  0  0  0  0  0  0  0  0  0  0  0
    0.8887    0.0284    0.9349 C   0  0  0  0  0  0  0  0  0  0  0  0
    1.5631   -0.7983   -0.1303 C   0  0  0  0  0  0  0  0  0  0  0  0
    3.0563   -0.8557   -0.0635 C   0  0  0  0  0  0  0  0  0  0  0  0
    1.1070    0.2630   -1.1398 C   0  0  0  0  0  0  0  0  0  0  0  0
   -2.7943   -1.8597   -0.7915 H   0  0  0  0  0  0  0  0  0  0  0  0
   -4.0177   -0.5815   -0.6069 H   0  0  0  0  0  0  0  0  0  0  0  0
   -3.6777   -1.7175    0.7518 H   0  0  0  0  0  0  0  0  0  0  0  0
   -2.5861    0.8387    0.4244 H   0  0  0  0  0  0  0  0  0  0  0  0
   -1.8624   -0.4183    1.4827 H   0  0  0  0  0  0  0  0  0  0  0  0
   -0.4954    2.5285   -0.9759 H   0  0  0  0  0  0  0  0  0  0  0  0
    0.6933    2.4893    0.3502 H   0  0  0  0  0  0  0  0  0  0  0  0
   -1.0221    2.2199    0.7690 H   0  0  0  0  0  0  0  0  0  0  0  0
    0.4043   -0.5118    1.7454 H   0  0  0  0  0  0  0  0  0  0  0  0
    1.5600    0.8262    1.2795 H   0  0  0  0  0  0  0  0  0  0  0  0
    1.0363   -1.7380   -0.2901 H   0  0  0  0  0  0  0  0  0  0  0  0
    3.3765   -1.1389    0.9608 H   0  0  0  0  0  0  0  0  0  0  0  0
    3.5281    0.1001   -0.3507 H   0  0  0  0  0  0  0  0  0  0  0  0
    3.3937   -1.6038   -0.8179 H   0  0  0  0  0  0  0  0  0  0  0  0
    1.8301    1.0888   -1.2331 H   0  0  0  0  0  0  0  0  0  0  0  0
    0.7715   -0.2065   -2.0762 H   0  0  0  0  0  0  0  0  0  0  0  0
  1  2  1  0
  2  3  1  0
  3  4  1  0
  4  5  1  0
  4  6  1  0
  6  7  1  0
  7  8  1  0
  7  9  1  0
  9  4  1  0
  1 10  1  0
  1 11  1  0
  1 12  1  0
  2 13  1  0
  2 14  1  0
  5 15  1  0
  5 16  1  0
  5 17  1  0
  6 18  1  0
  6 19  1  0
  7 20  1  0
  8 21  1  0
  8 22  1  0
  8 23  1  0
  9 24  1  0
  9 25  1  0
M  END
