
     RDKit          3D

 23 23  0  0  0  0  0  0  0  0999 V2000
    2.8952   -0.0325   -0.6773 C   0  0  0  0  0  0  0  0  0  0  0  0
    2.6233    0.5805    0.6839 C   0  0  0  0  0  0  0  0  0  0  0  0
    1.5397   -0.0814    1.2374 O   0  0  0  0  0  0  0  0  0  0  0  0
    0.3904   -0.0084    0.5199 C   0  0  0  0  0  0  0  0  0  0  0  0
   -0.4099   -1.3143    0.4609 C   0  0  0  0  0  0  0  0  0  0  0  0
   -0.9658   -0.1169    1.0840 C   0  0  0  0  0  0  0  0  0  0  0  0
   -2.0883    0.6958    0.5341 C   0  0  0  0  0  0  0  0  0  0  0  0
   -2.3790    0.4474   -0.9167 C   0  0  0  0  0  0  0  0  0  0  0  0
   -2.7272   -0.8832   -1.1448 O   0  0  0  0  0  0  0  0  0  0  0  0
    3.1984    0.7475   -1.4168 H   0  0  0  0  0  0  0  0  0  0  0  0
    2.0173   -0.5781   -1.0787 H   0  0  0  0  0  0  0  0  0  0  0  0
    3.7532   -0.7461   -0.6389 H   0  0  0  0  0  0  0  0  0  0  0  0
    3.5323    0.4045    1.2915 H   0  0  0  0  0  0  0  0  0  0  0  0
    2.4520    1.6542    0.5226 H   0  0  0  0  0  0  0  0  0  0  0  0
    0.4663    0.5788   -0.4294 H   0  0  0  0  0  0  0  0  0  0  0  0
   -0.0527   -2.1605    1.1117 H   0  0  0  0  0  0  0  0  0  0  0  0
   -0.6104   -1.6604   -0.5628 H   0  0  0  0  0  0  0  0  0  0  0  0
   -0.9833   -0.1411    2.2167 H   0  0  0  0  0  0  0  0  0  0  0  0
   -1.8440    1.7684    0.6531 H   0  0  0  0  0  0  0  0  0  0  0  0
   -3.0032    0.4661    1.1153 H   0  0  0  0  0  0  0  0  0  0  0  0
   -3.2323    1.0578   -1.2751 H   0  0  0  0  0  0  0  0  0  0  0  0
   -1.5311    0.6722   -1.5817 H   0  0  0  0  0  0  0  0  0  0  0  0
   -3.0408   -1.3506   -0.3464 H   0  0  0  0  0  0  0  0  0  0  0  0
  1  2  1  0
  2  3  1  0
  3  4  1  0
  4  5  1  0
  5  6  1  0
  6  7  1  0
  7  8  1  0
  8  9  1  0
  6  4  1  0
  1 10  1  0
  1 11  1  0
  1 12  1  0
  2 13  1  0
  2 14  1  0
  4 15  1  0
  5 16  1  0
  5 17  1  0
  6 18  1  0
  7 19  1  0
  7 20  1  0
  8 21  1  0
  8 22  1  0
  9 23  1  0
M  END
