
     RDKit          3D

 25 25  0  0  0  0  0  0  0  0999 V2000
    3.7877    0.8989    1.1938 C   0  0  0  0  0  0  0  0  0  0  0  0
    2.7400    0.3264    0.2567 C   0  0  0  0  0  0  0  0  0  0  0  0
    1.9290   -0.5669    0.9245 O   0  0  0  0  0  0  0  0  0  0  0  0
    0.9750   -1.1324    0.1429 C   0  0  0  0  0  0  0  0  0  0  0  0
   -0.0307   -0.1952   -0.4819 C   0  0  0  0  0  0  0  0  0  0  0  0
   -1.0444   -0.9474   -1.3288 C   0  0  0  0  0  0  0  0  0  0  0  0
   -1.4125   -0.2945    0.0160 C   0  0  0  0  0  0  0  0  0  0  0  0
   -2.4201    0.7960   -0.1240 C   0  0  0  0  0  0  0  0  0  0  0  0
   -3.6989    0.2917    0.5120 C   0  0  0  0  0  0  0  0  0  0  0  0
    3.4953    0.7388    2.2422 H   0  0  0  0  0  0  0  0  0  0  0  0
    3.9348    1.9467    0.9384 H   0  0  0  0  0  0  0  0  0  0  0  0
    4.7297    0.3311    1.0008 H   0  0  0  0  0  0  0  0  0  0  0  0
    3.2358   -0.2233   -0.5941 H   0  0  0  0  0  0  0  0  0  0  0  0
    2.1753    1.1482   -0.2220 H   0  0  0  0  0  0  0  0  0  0  0  0
    1.5074   -1.6255   -0.7284 H   0  0  0  0  0  0  0  0  0  0  0  0
    0.4609   -2.0035    0.6337 H   0  0  0  0  0  0  0  0  0  0  0  0
    0.3409    0.7647   -0.8561 H   0  0  0  0  0  0  0  0  0  0  0  0
   -1.0730   -2.0497   -1.3222 H   0  0  0  0  0  0  0  0  0  0  0  0
   -1.3237   -0.4295   -2.2481 H   0  0  0  0  0  0  0  0  0  0  0  0
   -1.5788   -0.9718    0.8850 H   0  0  0  0  0  0  0  0  0  0  0  0
   -2.1391    1.7267    0.4143 H   0  0  0  0  0  0  0  0  0  0  0  0
   -2.6702    1.0261   -1.1815 H   0  0  0  0  0  0  0  0  0  0  0  0
   -3.3863   -0.1924    1.4776 H   0  0  0  0  0  0  0  0  0  0  0  0
   -4.3977    1.1093    0.7635 H   0  0  0  0  0  0  0  0  0  0  0  0
   -4.1363   -0.4721   -0.1400 H   0  0  0  0  0  0  0  0  0  0  0  0
  1  2  1  0
  2  3  1  0
  3  4  1  0
  4  5  1  0
  5  6  1  0
  6  7  1  0
  7  8  1  0
  8  9  1  0
  7  5  1  0
  1 10  1  0
  1 11  1  0
  1 12  1  0
  2 13  1  0
  2 14  1  0
  4 15  1  0
  4 16  1  0
  5 17  1  0
  6 18  1  0
  6 19  1  0
  7 20  1  0
  8 21  1  0
  8 22  1  0
  9 23  1  0
  9 24  1  0
  9 25  1  0
M  END
