
     RDKit          3D

 19 20  0  0  0  0  0  0  0  0999 V2000
    2.1621   -0.3530    0.1738 C   0  0  0  0  0  0  0  0  0  0  0  0
    1.4057   -0.2218   -1.1077 C   0  0  0  0  0  0  0  0  0  0  0  0
    0.3268    0.5786   -1.0789 O   0  0  0  0  0  0  0  0  0  0  0  0
   -0.7307    0.3766   -0.3125 C   0  0  0  0  0  0  0  0  0  0  0  0
   -1.8267    1.4504   -0.5103 C   0  0  0  0  0  0  0  0  0  0  0  0
   -2.2053    1.3851    0.8154 O   0  0  0  0  0  0  0  0  0  0  0  0
   -1.0453    0.6657    1.0556 C   0  0  0  0  0  0  0  0  0  0  0  0
   -1.1273   -0.7608    0.4846 C   0  0  0  0  0  0  0  0  0  0  0  0
   -0.3556   -1.6461    1.1698 O   0  0  0  0  0  0  0  0  0  0  0  0
    1.6649    0.2094    0.9872 H   0  0  0  0  0  0  0  0  0  0  0  0
    3.1914    0.0580    0.0583 H   0  0  0  0  0  0  0  0  0  0  0  0
    2.2678   -1.4332    0.4398 H   0  0  0  0  0  0  0  0  0  0  0  0
    1.2297   -1.2441   -1.5165 H   0  0  0  0  0  0  0  0  0  0  0  0
    2.1151    0.2532   -1.8595 H   0  0  0  0  0  0  0  0  0  0  0  0
   -1.4105    2.4543   -0.7313 H   0  0  0  0  0  0  0  0  0  0  0  0
   -2.5719    1.1114   -1.2493 H   0  0  0  0  0  0  0  0  0  0  0  0
   -0.4003    0.8767    1.8889 H   0  0  0  0  0  0  0  0  0  0  0  0
   -2.1628   -1.1668    0.2768 H   0  0  0  0  0  0  0  0  0  0  0  0
   -0.5271   -2.5936    1.0157 H   0  0  0  0  0  0  0  0  0  0  0  0
  1  2  1  0
  2  3  1  0
  3  4  1  0
  4  5  1  0
  5  6  1  0
  6  7  1  0
  7  8  1  0
  8  9  1  0
  7  4  1  0
  8  4  1  0
  1 10  1  0
  1 11  1  0
  1 12  1  0
  2 13  1  0
  2 14  1  0
  5 15  1  0
  5 16  1  0
  7 17  1  0
  8 18  1  0
  9 19  1  0
M  END
