
     RDKit          3D

 21 20  0  0  0  0  0  0  0  0999 V2000
   -2.8824    0.4552   -0.9509 C   0  0  0  0  0  0  0  0  0  0  0  0
   -1.5225   -0.1830   -0.9756 C   0  0  0  0  0  0  0  0  0  0  0  0
   -0.7896    0.0947    0.1791 O   0  0  0  0  0  0  0  0  0  0  0  0
    0.4607   -0.4869    0.1661 C   0  0  0  0  0  0  0  0  0  0  0  0
    0.7014   -1.4246    1.3191 C   0  0  0  0  0  0  0  0  0  0  0  0
    1.5644    0.5772    0.2360 C   0  0  0  0  0  0  0  0  0  0  0  0
    2.8086   -0.0070    0.2229 O   0  0  0  0  0  0  0  0  0  0  0  0
    1.4264    1.5076   -0.9113 C   0  0  0  0  0  0  0  0  0  0  0  0
    2.3548    1.6536   -1.6933 O   0  0  0  0  0  0  0  0  0  0  0  0
   -2.9617    1.2666   -0.1949 H   0  0  0  0  0  0  0  0  0  0  0  0
   -3.1809    0.8021   -1.9621 H   0  0  0  0  0  0  0  0  0  0  0  0
   -3.6130   -0.3201   -0.6395 H   0  0  0  0  0  0  0  0  0  0  0  0
   -0.9620    0.3303   -1.8105 H   0  0  0  0  0  0  0  0  0  0  0  0
   -1.6264   -1.2577   -1.1471 H   0  0  0  0  0  0  0  0  0  0  0  0
    0.6338   -1.0634   -0.7674 H   0  0  0  0  0  0  0  0  0  0  0  0
    1.7891   -1.6483    1.3548 H   0  0  0  0  0  0  0  0  0  0  0  0
    0.4424   -0.9837    2.2950 H   0  0  0  0  0  0  0  0  0  0  0  0
    0.1990   -2.4144    1.1443 H   0  0  0  0  0  0  0  0  0  0  0  0
    1.4732    1.1327    1.2124 H   0  0  0  0  0  0  0  0  0  0  0  0
    3.1613   -0.1106    1.1369 H   0  0  0  0  0  0  0  0  0  0  0  0
    0.5234    2.0796   -1.0982 H   0  0  0  0  0  0  0  0  0  0  0  0
  1  2  1  0
  2  3  1  0
  3  4  1  0
  4  5  1  0
  4  6  1  0
  6  7  1  0
  6  8  1  0
  8  9  2  0
  1 10  1  0
  1 11  1  0
  1 12  1  0
  2 13  1  0
  2 14  1  0
  4 15  1  0
  5 16  1  0
  5 17  1  0
  5 18  1  0
  6 19  1  0
  7 20  1  0
  8 21  1  0
M  END
