
     RDKit          3D

 18 17  0  0  0  0  0  0  0  0999 V2000
   -2.5731    0.1490    0.5725 C   0  0  0  0  0  0  0  0  0  0  0  0
   -1.8913   -1.1396    0.1513 C   0  0  0  0  0  0  0  0  0  0  0  0
   -0.5455   -1.1509    0.4598 O   0  0  0  0  0  0  0  0  0  0  0  0
    0.1032   -0.1118   -0.1785 C   0  0  0  0  0  0  0  0  0  0  0  0
    1.5547   -0.0763    0.1182 C   0  0  0  0  0  0  0  0  0  0  0  0
    2.0474   -0.9054    0.8526 O   0  0  0  0  0  0  0  0  0  0  0  0
    2.4210    0.9662   -0.4743 C   0  0  0  0  0  0  0  0  0  0  0  0
    3.7339    0.8004   -0.0569 O   0  0  0  0  0  0  0  0  0  0  0  0
   -3.6761   -0.0456    0.6404 H   0  0  0  0  0  0  0  0  0  0  0  0
   -2.2710    0.4591    1.6004 H   0  0  0  0  0  0  0  0  0  0  0  0
   -2.4437    0.9416   -0.1785 H   0  0  0  0  0  0  0  0  0  0  0  0
   -1.9702   -1.1881   -0.9702 H   0  0  0  0  0  0  0  0  0  0  0  0
   -2.4216   -2.0176    0.5591 H   0  0  0  0  0  0  0  0  0  0  0  0
   -0.3537    0.8552    0.1402 H   0  0  0  0  0  0  0  0  0  0  0  0
    0.0061   -0.2672   -1.2812 H   0  0  0  0  0  0  0  0  0  0  0  0
    2.3445    0.8624   -1.5777 H   0  0  0  0  0  0  0  0  0  0  0  0
    2.0771    1.9748   -0.1463 H   0  0  0  0  0  0  0  0  0  0  0  0
    3.8584   -0.1063    0.3245 H   0  0  0  0  0  0  0  0  0  0  0  0
  1  2  1  0
  2  3  1  0
  3  4  1  0
  4  5  1  0
  5  6  2  0
  5  7  1  0
  7  8  1  0
  1  9  1  0
  1 10  1  0
  1 11  1  0
  2 12  1  0
  2 13  1  0
  4 14  1  0
  4 15  1  0
  7 16  1  0
  7 17  1  0
  8 18  1  0
M  END
