
     RDKit          3D

 25 25  0  0  0  0  0  0  0  0999 V2000
    3.7976   -1.0069    0.3853 C   0  0  0  0  0  0  0  0  0  0  0  0
    2.7916   -0.3036   -0.5000 C   0  0  0  0  0  0  0  0  0  0  0  0
    1.6534   -0.0673    0.2287 O   0  0  0  0  0  0  0  0  0  0  0  0
    0.6593    0.5794   -0.4968 C   0  0  0  0  0  0  0  0  0  0  0  0
   -0.5505    0.8011    0.3690 C   0  0  0  0  0  0  0  0  0  0  0  0
   -1.7003    1.5187   -0.3761 C   0  0  0  0  0  0  0  0  0  0  0  0
   -1.8309    0.1334    0.1560 C   0  0  0  0  0  0  0  0  0  0  0  0
   -2.0409   -0.9858   -0.8144 C   0  0  0  0  0  0  0  0  0  0  0  0
   -2.7539    0.0402    1.3798 C   0  0  0  0  0  0  0  0  0  0  0  0
    3.4119   -1.9731    0.7376 H   0  0  0  0  0  0  0  0  0  0  0  0
    4.7600   -1.1853   -0.1661 H   0  0  0  0  0  0  0  0  0  0  0  0
    4.0075   -0.3474    1.2638 H   0  0  0  0  0  0  0  0  0  0  0  0
    3.2833    0.6443   -0.8508 H   0  0  0  0  0  0  0  0  0  0  0  0
    2.6073   -0.8980   -1.4160 H   0  0  0  0  0  0  0  0  0  0  0  0
    1.0918    1.5762   -0.7931 H   0  0  0  0  0  0  0  0  0  0  0  0
    0.4165    0.0765   -1.4519 H   0  0  0  0  0  0  0  0  0  0  0  0
   -0.3285    1.1971    1.3833 H   0  0  0  0  0  0  0  0  0  0  0  0
   -1.6164    1.6378   -1.4598 H   0  0  0  0  0  0  0  0  0  0  0  0
   -2.1395    2.3835    0.1607 H   0  0  0  0  0  0  0  0  0  0  0  0
   -2.9712   -0.7874   -1.4238 H   0  0  0  0  0  0  0  0  0  0  0  0
   -2.3047   -1.9121   -0.2249 H   0  0  0  0  0  0  0  0  0  0  0  0
   -1.1828   -1.1863   -1.4777 H   0  0  0  0  0  0  0  0  0  0  0  0
   -3.7970   -0.1104    1.0101 H   0  0  0  0  0  0  0  0  0  0  0  0
   -2.5127   -0.8256    2.0089 H   0  0  0  0  0  0  0  0  0  0  0  0
   -2.7508    1.0011    1.9339 H   0  0  0  0  0  0  0  0  0  0  0  0
  1  2  1  0
  2  3  1  0
  3  4  1  0
  4  5  1  0
  5  6  1  0
  6  7  1  0
  7  8  1  0
  7  9  1  0
  7  5  1  0
  1 10  1  0
  1 11  1  0
  1 12  1  0
  2 13  1  0
  2 14  1  0
  4 15  1  0
  4 16  1  0
  5 17  1  0
  6 18  1  0
  6 19  1  0
  8 20  1  0
  8 21  1  0
  8 22  1  0
  9 23  1  0
  9 24  1  0
  9 25  1  0
M  END
