
     RDKit          3D

 21 20  0  0  0  0  0  0  0  0999 V2000
   -1.6962   -0.3607    2.5396 C   0  0  0  0  0  0  0  0  0  0  0  0
   -1.7623   -1.6237    1.7676 C   0  0  0  0  0  0  0  0  0  0  0  0
   -1.7676   -1.6045    0.4274 O   0  0  0  0  0  0  0  0  0  0  0  0
   -0.7366   -1.2139   -0.3280 C   0  0  0  0  0  0  0  0  0  0  0  0
   -0.3032    0.1795   -0.0879 C   0  0  0  0  0  0  0  0  0  0  0  0
    0.8069    0.4999   -0.9607 C   0  0  0  0  0  0  0  0  0  0  0  0
    1.7954    0.8081   -1.7362 C   0  0  0  0  0  0  0  0  0  0  0  0
    2.8327    1.1434   -2.5708 C   0  0  0  0  0  0  0  0  0  0  0  0
    2.9594    2.5712   -2.7582 O   0  0  0  0  0  0  0  0  0  0  0  0
   -2.1069    0.4780    1.9333 H   0  0  0  0  0  0  0  0  0  0  0  0
   -2.3733   -0.4322    3.4401 H   0  0  0  0  0  0  0  0  0  0  0  0
   -0.7084   -0.1483    2.9789 H   0  0  0  0  0  0  0  0  0  0  0  0
   -2.7221   -2.1432    2.0859 H   0  0  0  0  0  0  0  0  0  0  0  0
   -0.9685   -2.3510    2.1788 H   0  0  0  0  0  0  0  0  0  0  0  0
   -0.9700   -1.3912   -1.4290 H   0  0  0  0  0  0  0  0  0  0  0  0
    0.1376   -1.9001   -0.0625 H   0  0  0  0  0  0  0  0  0  0  0  0
   -1.1169    0.9487   -0.1537 H   0  0  0  0  0  0  0  0  0  0  0  0
    0.0902    0.2759    0.9645 H   0  0  0  0  0  0  0  0  0  0  0  0
    3.8542    0.8045   -2.2096 H   0  0  0  0  0  0  0  0  0  0  0  0
    2.6724    0.7900   -3.6242 H   0  0  0  0  0  0  0  0  0  0  0  0
    2.0832    2.9321   -2.3950 H   0  0  0  0  0  0  0  0  0  0  0  0
  1  2  1  0
  2  3  1  0
  3  4  1  0
  4  5  1  0
  5  6  1  0
  6  7  3  0
  7  8  1  0
  8  9  1  0
  1 10  1  0
  1 11  1  0
  1 12  1  0
  2 13  1  0
  2 14  1  0
  4 15  1  0
  4 16  1  0
  5 17  1  0
  5 18  1  0
  8 19  1  0
  8 20  1  0
  9 21  1  0
M  END
