
     RDKit          3D

 25 24  0  0  0  0  0  0  0  0999 V2000
    3.6998   -0.4255    0.2237 C   0  0  0  0  0  0  0  0  0  0  0  0
    2.3512   -0.9335   -0.2207 C   0  0  0  0  0  0  0  0  0  0  0  0
    1.3358   -0.0908    0.2469 O   0  0  0  0  0  0  0  0  0  0  0  0
    0.0840   -0.5421   -0.1524 C   0  0  0  0  0  0  0  0  0  0  0  0
   -0.9430    0.4051    0.3827 C   0  0  0  0  0  0  0  0  0  0  0  0
   -0.6138    1.8099   -0.0669 C   0  0  0  0  0  0  0  0  0  0  0  0
   -0.8214    0.3995    1.7840 O   0  0  0  0  0  0  0  0  0  0  0  0
   -2.3513    0.0114    0.0726 C   0  0  0  0  0  0  0  0  0  0  0  0
   -2.6601   -0.0844   -1.3858 C   0  0  0  0  0  0  0  0  0  0  0  0
    4.4202   -1.2554    0.4029 H   0  0  0  0  0  0  0  0  0  0  0  0
    3.6178    0.1281    1.1828 H   0  0  0  0  0  0  0  0  0  0  0  0
    4.1115    0.2993   -0.5310 H   0  0  0  0  0  0  0  0  0  0  0  0
    2.3065   -1.0572   -1.3165 H   0  0  0  0  0  0  0  0  0  0  0  0
    2.1479   -1.9356    0.2476 H   0  0  0  0  0  0  0  0  0  0  0  0
    0.0147   -0.6184   -1.2662 H   0  0  0  0  0  0  0  0  0  0  0  0
   -0.0462   -1.5594    0.3198 H   0  0  0  0  0  0  0  0  0  0  0  0
    0.3578    2.0994    0.3412 H   0  0  0  0  0  0  0  0  0  0  0  0
   -1.3715    2.4880    0.3725 H   0  0  0  0  0  0  0  0  0  0  0  0
   -0.6427    1.8173   -1.1691 H   0  0  0  0  0  0  0  0  0  0  0  0
   -0.9814   -0.5296    2.0951 H   0  0  0  0  0  0  0  0  0  0  0  0
   -2.5704   -0.9309    0.6218 H   0  0  0  0  0  0  0  0  0  0  0  0
   -3.0206    0.7794    0.5113 H   0  0  0  0  0  0  0  0  0  0  0  0
   -1.8973   -0.5593   -1.9973 H   0  0  0  0  0  0  0  0  0  0  0  0
   -3.6327   -0.6466   -1.4776 H   0  0  0  0  0  0  0  0  0  0  0  0
   -2.8946    0.9313   -1.8037 H   0  0  0  0  0  0  0  0  0  0  0  0
  1  2  1  0
  2  3  1  0
  3  4  1  0
  4  5  1  0
  5  6  1  0
  5  7  1  0
  5  8  1  0
  8  9  1  0
  1 10  1  0
  1 11  1  0
  1 12  1  0
  2 13  1  0
  2 14  1  0
  4 15  1  0
  4 16  1  0
  6 17  1  0
  6 18  1  0
  6 19  1  0
  7 20  1  0
  8 21  1  0
  8 22  1  0
  9 23  1  0
  9 24  1  0
  9 25  1  0
M  END
