
     RDKit          3D

 17 18  0  0  0  0  0  0  0  0999 V2000
    2.8370    0.2136    0.1483 C   0  0  0  0  0  0  0  0  0  0  0  0
    1.4414    0.2329   -0.4036 C   0  0  0  0  0  0  0  0  0  0  0  0
    0.4730   -0.0494    0.5674 O   0  0  0  0  0  0  0  0  0  0  0  0
   -0.7588    0.0016   -0.0756 C   0  0  0  0  0  0  0  0  0  0  0  0
   -1.7272   -1.0861    0.2654 C   0  0  0  0  0  0  0  0  0  0  0  0
   -1.7608   -0.5273    1.5362 O   0  0  0  0  0  0  0  0  0  0  0  0
   -1.8758    0.5985    0.7322 C   0  0  0  0  0  0  0  0  0  0  0  0
   -2.7905   -0.1684   -0.0781 C   0  0  0  0  0  0  0  0  0  0  0  0
   -3.8217   -0.0853   -0.6781 O   0  0  0  0  0  0  0  0  0  0  0  0
    3.2280    1.2410    0.3538 H   0  0  0  0  0  0  0  0  0  0  0  0
    3.5239   -0.1861   -0.6539 H   0  0  0  0  0  0  0  0  0  0  0  0
    2.9525   -0.4592    1.0129 H   0  0  0  0  0  0  0  0  0  0  0  0
    1.2216    1.1647   -0.9421 H   0  0  0  0  0  0  0  0  0  0  0  0
    1.3642   -0.6108   -1.1461 H   0  0  0  0  0  0  0  0  0  0  0  0
   -0.7413    0.2361   -1.1438 H   0  0  0  0  0  0  0  0  0  0  0  0
   -1.6341   -2.0678    0.0533 H   0  0  0  0  0  0  0  0  0  0  0  0
   -1.9314    1.5520    1.0510 H   0  0  0  0  0  0  0  0  0  0  0  0
  1  2  1  0
  2  3  1  0
  3  4  1  0
  4  5  1  0
  5  6  1  0
  6  7  1  0
  7  8  1  0
  8  9  2  0
  7  4  1  0
  8  5  1  0
  1 10  1  0
  1 11  1  0
  1 12  1  0
  2 13  1  0
  2 14  1  0
  4 15  1  0
  5 16  1  0
  7 17  1  0
M  END
