
     RDKit          3D

 23 23  0  0  0  0  0  0  0  0999 V2000
    3.3611    0.2283    0.7401 C   0  0  0  0  0  0  0  0  0  0  0  0
    1.9682    0.4301    0.1389 C   0  0  0  0  0  0  0  0  0  0  0  0
    1.0104   -0.2516    0.8654 O   0  0  0  0  0  0  0  0  0  0  0  0
   -0.2270   -0.0881    0.2919 C   0  0  0  0  0  0  0  0  0  0  0  0
   -0.7567    1.3063    0.1923 C   0  0  0  0  0  0  0  0  0  0  0  0
   -2.0344    1.2668   -0.3922 O   0  0  0  0  0  0  0  0  0  0  0  0
   -0.3653   -0.8853   -1.0198 C   0  0  0  0  0  0  0  0  0  0  0  0
   -1.1334   -1.2618    0.2507 C   0  0  0  0  0  0  0  0  0  0  0  0
   -2.6253   -1.0814    0.1645 C   0  0  0  0  0  0  0  0  0  0  0  0
    4.1261    0.1448   -0.0524 H   0  0  0  0  0  0  0  0  0  0  0  0
    3.3389   -0.7647    1.2624 H   0  0  0  0  0  0  0  0  0  0  0  0
    3.5232    1.0710    1.4230 H   0  0  0  0  0  0  0  0  0  0  0  0
    2.0432    0.1149   -0.9209 H   0  0  0  0  0  0  0  0  0  0  0  0
    1.7362    1.5296    0.1210 H   0  0  0  0  0  0  0  0  0  0  0  0
   -0.8626    1.8260    1.1632 H   0  0  0  0  0  0  0  0  0  0  0  0
   -0.0936    1.9472   -0.4367 H   0  0  0  0  0  0  0  0  0  0  0  0
   -2.6444    1.8969    0.0585 H   0  0  0  0  0  0  0  0  0  0  0  0
   -0.9432   -0.4338   -1.8445 H   0  0  0  0  0  0  0  0  0  0  0  0
    0.4482   -1.5324   -1.3460 H   0  0  0  0  0  0  0  0  0  0  0  0
   -0.7758   -2.1687    0.7581 H   0  0  0  0  0  0  0  0  0  0  0  0
   -3.1128   -2.0746    0.3690 H   0  0  0  0  0  0  0  0  0  0  0  0
   -2.9544   -0.8264   -0.8783 H   0  0  0  0  0  0  0  0  0  0  0  0
   -3.0266   -0.3931    0.9208 H   0  0  0  0  0  0  0  0  0  0  0  0
  1  2  1  0
  2  3  1  0
  3  4  1  0
  4  5  1  0
  5  6  1  0
  4  7  1  0
  7  8  1  0
  8  9  1  0
  8  4  1  0
  1 10  1  0
  1 11  1  0
  1 12  1  0
  2 13  1  0
  2 14  1  0
  5 15  1  0
  5 16  1  0
  6 17  1  0
  7 18  1  0
  7 19  1  0
  8 20  1  0
  9 21  1  0
  9 22  1  0
  9 23  1  0
M  END
