
     RDKit          3D

 12 11  0  0  0  0  0  0  0  0999 V2000
    1.7454    0.2117    0.1537 C   0  0  0  0  0  0  0  0  0  0  0  0
    0.3830   -0.4391   -0.1162 C   0  0  0  0  0  0  0  0  0  0  0  0
   -0.5033    0.5975   -0.2985 O   0  0  0  0  0  0  0  0  0  0  0  0
   -1.8037    0.1880   -0.5571 C   0  0  0  0  0  0  0  0  0  0  0  0
    2.3267   -0.3664    0.8722 H   0  0  0  0  0  0  0  0  0  0  0  0
    1.5892    1.2241    0.6083 H   0  0  0  0  0  0  0  0  0  0  0  0
    2.2698    0.3487   -0.8349 H   0  0  0  0  0  0  0  0  0  0  0  0
    0.4489   -1.1138   -1.0182 H   0  0  0  0  0  0  0  0  0  0  0  0
    0.1167   -1.1016    0.7452 H   0  0  0  0  0  0  0  0  0  0  0  0
   -2.2324   -0.4267    0.2696 H   0  0  0  0  0  0  0  0  0  0  0  0
   -1.9165   -0.2535   -1.5462 H   0  0  0  0  0  0  0  0  0  0  0  0
   -2.4239    1.1311   -0.5567 H   0  0  0  0  0  0  0  0  0  0  0  0
  1  2  1  0
  2  3  1  0
  3  4  1  0
  1  5  1  0
  1  6  1  0
  1  7  1  0
  2  8  1  0
  2  9  1  0
  4 10  1  0
  4 11  1  0
  4 12  1  0
M  END
