
     RDKit          3D

 19 18  0  0  0  0  0  0  0  0999 V2000
   -2.8095    1.4959    1.2352 C   0  0  0  0  0  0  0  0  0  0  0  0
   -2.6204    0.9269   -0.2016 C   0  0  0  0  0  0  0  0  0  0  0  0
   -1.3019    0.5318   -0.3358 O   0  0  0  0  0  0  0  0  0  0  0  0
   -1.0510   -0.3458    0.7532 C   0  0  0  0  0  0  0  0  0  0  0  0
    0.6119   -0.6251    0.2148 C   0  0  0  0  0  0  0  0  0  0  0  0
    1.7850   -0.8438   -0.1619 C   0  0  0  0  0  0  0  0  0  0  0  0
    2.9402   -1.0610   -0.5320 C   0  0  0  0  0  0  0  0  0  0  0  0
    4.1778   -0.9785    0.4292 C   0  0  0  0  0  0  0  0  0  0  0  0
    4.0729    0.1485    1.0447 O   0  0  0  0  0  0  0  0  0  0  0  0
   -3.8383    1.8679    1.3151 H   0  0  0  0  0  0  0  0  0  0  0  0
   -2.7805    0.5956    1.9240 H   0  0  0  0  0  0  0  0  0  0  0  0
   -1.9552    2.1256    1.4293 H   0  0  0  0  0  0  0  0  0  0  0  0
   -2.9943    1.7011   -0.8639 H   0  0  0  0  0  0  0  0  0  0  0  0
   -3.2917    0.0190   -0.2722 H   0  0  0  0  0  0  0  0  0  0  0  0
   -0.8315    0.1276    1.6419 H   0  0  0  0  0  0  0  0  0  0  0  0
   -1.4127   -1.2610    0.6243 H   0  0  0  0  0  0  0  0  0  0  0  0
    3.1051   -2.2237   -0.8663 H   0  0  0  0  0  0  0  0  0  0  0  0
    3.3667   -0.5222   -1.4678 H   0  0  0  0  0  0  0  0  0  0  0  0
    4.8275   -1.6790    0.4658 H   0  0  0  0  0  0  0  0  0  0  0  0
  1  2  1  0
  2  3  1  0
  3  4  1  0
  4  5  1  0
  5  6  3  0
  6  7  1  0
  7  8  1  0
  8  9  2  0
  1 10  1  0
  1 11  1  0
  1 12  1  0
  2 13  1  0
  2 14  1  0
  4 15  1  0
  4 16  1  0
  7 17  1  0
  7 18  1  0
  8 19  1  0
M  END
