
     RDKit          3D

 23 23  0  0  0  0  0  0  0  0999 V2000
   -3.0520    0.4565    0.0512 C   0  0  0  0  0  0  0  0  0  0  0  0
   -2.3365   -0.6589    0.7423 C   0  0  0  0  0  0  0  0  0  0  0  0
   -0.9718   -0.5188    0.7994 O   0  0  0  0  0  0  0  0  0  0  0  0
   -0.3444   -0.4409   -0.4199 C   0  0  0  0  0  0  0  0  0  0  0  0
    0.4385    0.8341   -0.4400 C   0  0  0  0  0  0  0  0  0  0  0  0
    1.6898    0.6054   -0.0544 C   0  0  0  0  0  0  0  0  0  0  0  0
    2.7803    1.5892    0.0636 C   0  0  0  0  0  0  0  0  0  0  0  0
    1.8647   -0.8580    0.2632 C   0  0  0  0  0  0  0  0  0  0  0  0
    0.7572   -1.4658   -0.5821 C   0  0  0  0  0  0  0  0  0  0  0  0
   -4.0989    0.0879   -0.1584 H   0  0  0  0  0  0  0  0  0  0  0  0
   -3.2034    1.3538    0.7017 H   0  0  0  0  0  0  0  0  0  0  0  0
   -2.6340    0.7310   -0.9315 H   0  0  0  0  0  0  0  0  0  0  0  0
   -2.7361   -0.7553    1.7552 H   0  0  0  0  0  0  0  0  0  0  0  0
   -2.5883   -1.6008    0.2056 H   0  0  0  0  0  0  0  0  0  0  0  0
   -1.0471   -0.5043   -1.2714 H   0  0  0  0  0  0  0  0  0  0  0  0
    0.0262    1.7944   -0.7300 H   0  0  0  0  0  0  0  0  0  0  0  0
    3.0014    1.8732    1.1123 H   0  0  0  0  0  0  0  0  0  0  0  0
    3.7291    1.1303   -0.3341 H   0  0  0  0  0  0  0  0  0  0  0  0
    2.6085    2.5024   -0.5448 H   0  0  0  0  0  0  0  0  0  0  0  0
    1.7029   -1.0494    1.3402 H   0  0  0  0  0  0  0  0  0  0  0  0
    2.8359   -1.2393   -0.0844 H   0  0  0  0  0  0  0  0  0  0  0  0
    0.4767   -2.4713   -0.2728 H   0  0  0  0  0  0  0  0  0  0  0  0
    1.1013   -1.3953   -1.6403 H   0  0  0  0  0  0  0  0  0  0  0  0
  1  2  1  0
  2  3  1  0
  3  4  1  0
  4  5  1  0
  5  6  2  0
  6  7  1  0
  6  8  1  0
  8  9  1  0
  9  4  1  0
  1 10  1  0
  1 11  1  0
  1 12  1  0
  2 13  1  0
  2 14  1  0
  4 15  1  0
  5 16  1  0
  7 17  1  0
  7 18  1  0
  7 19  1  0
  8 20  1  0
  8 21  1  0
  9 22  1  0
  9 23  1  0
M  END
