
     RDKit          3D

 20 20  0  0  0  0  0  0  0  0999 V2000
    3.0632   -0.6974   -0.2915 C   0  0  0  0  0  0  0  0  0  0  0  0
    1.7837    0.0758   -0.3426 C   0  0  0  0  0  0  0  0  0  0  0  0
    0.6945   -0.6125    0.1773 O   0  0  0  0  0  0  0  0  0  0  0  0
   -0.4153    0.2361    0.0586 C   0  0  0  0  0  0  0  0  0  0  0  0
   -1.2102    0.3891    1.3275 C   0  0  0  0  0  0  0  0  0  0  0  0
   -2.3459   -0.3872    0.7358 C   0  0  0  0  0  0  0  0  0  0  0  0
   -1.6250   -0.3811   -0.5828 C   0  0  0  0  0  0  0  0  0  0  0  0
   -2.2559    0.4588   -1.5283 O   0  0  0  0  0  0  0  0  0  0  0  0
    2.9727   -1.7347   -0.6270 H   0  0  0  0  0  0  0  0  0  0  0  0
    3.7734   -0.1962   -1.0137 H   0  0  0  0  0  0  0  0  0  0  0  0
    3.5571   -0.5982    0.7012 H   0  0  0  0  0  0  0  0  0  0  0  0
    1.5275    0.3879   -1.3841 H   0  0  0  0  0  0  0  0  0  0  0  0
    1.9010    1.0075    0.2530 H   0  0  0  0  0  0  0  0  0  0  0  0
   -0.2006    1.2220   -0.3995 H   0  0  0  0  0  0  0  0  0  0  0  0
   -1.5348    1.4242    1.5729 H   0  0  0  0  0  0  0  0  0  0  0  0
   -0.7389   -0.1129    2.2191 H   0  0  0  0  0  0  0  0  0  0  0  0
   -3.3255    0.1465    0.6969 H   0  0  0  0  0  0  0  0  0  0  0  0
   -2.4581   -1.3670    1.2274 H   0  0  0  0  0  0  0  0  0  0  0  0
   -1.5229   -1.3996   -0.9690 H   0  0  0  0  0  0  0  0  0  0  0  0
   -1.6399    1.1733   -1.8312 H   0  0  0  0  0  0  0  0  0  0  0  0
  1  2  1  0
  2  3  1  0
  3  4  1  0
  4  5  1  0
  5  6  1  0
  6  7  1  0
  7  8  1  0
  7  4  1  0
  1  9  1  0
  1 10  1  0
  1 11  1  0
  2 12  1  0
  2 13  1  0
  4 14  1  0
  5 15  1  0
  5 16  1  0
  6 17  1  0
  6 18  1  0
  7 19  1  0
  8 20  1  0
M  END
