
     RDKit          3D

 22 22  0  0  0  0  0  0  0  0999 V2000
    3.2284   -0.2830    0.1656 C   0  0  0  0  0  0  0  0  0  0  0  0
    1.7395   -0.3277    0.4400 C   0  0  0  0  0  0  0  0  0  0  0  0
    1.0765    0.3533   -0.5566 O   0  0  0  0  0  0  0  0  0  0  0  0
   -0.2820    0.3616   -0.3656 C   0  0  0  0  0  0  0  0  0  0  0  0
   -0.9768   -0.9594   -0.3214 C   0  0  0  0  0  0  0  0  0  0  0  0
   -2.4685   -0.8676   -0.1116 C   0  0  0  0  0  0  0  0  0  0  0  0
   -0.9812    1.5909   -0.8348 C   0  0  0  0  0  0  0  0  0  0  0  0
   -0.8755    1.3851    0.6098 C   0  0  0  0  0  0  0  0  0  0  0  0
    3.7535   -0.5036    1.0931 H   0  0  0  0  0  0  0  0  0  0  0  0
    3.4418   -1.1133   -0.5591 H   0  0  0  0  0  0  0  0  0  0  0  0
    3.4651    0.6911   -0.2887 H   0  0  0  0  0  0  0  0  0  0  0  0
    1.5260    0.0783    1.4420 H   0  0  0  0  0  0  0  0  0  0  0  0
    1.4398   -1.4156    0.4870 H   0  0  0  0  0  0  0  0  0  0  0  0
   -0.8036   -1.5677   -1.2298 H   0  0  0  0  0  0  0  0  0  0  0  0
   -0.5720   -1.5412    0.5523 H   0  0  0  0  0  0  0  0  0  0  0  0
   -2.8597   -1.9140   -0.2858 H   0  0  0  0  0  0  0  0  0  0  0  0
   -2.7666   -0.6195    0.9094 H   0  0  0  0  0  0  0  0  0  0  0  0
   -2.9560   -0.2222   -0.8546 H   0  0  0  0  0  0  0  0  0  0  0  0
   -0.3562    2.4041   -1.3001 H   0  0  0  0  0  0  0  0  0  0  0  0
   -1.9108    1.4374   -1.3812 H   0  0  0  0  0  0  0  0  0  0  0  0
   -0.0971    1.9054    1.2001 H   0  0  0  0  0  0  0  0  0  0  0  0
   -1.7647    1.1278    1.1901 H   0  0  0  0  0  0  0  0  0  0  0  0
  1  2  1  0
  2  3  1  0
  3  4  1  0
  4  5  1  0
  5  6  1  0
  4  7  1  0
  7  8  1  0
  8  4  1  0
  1  9  1  0
  1 10  1  0
  1 11  1  0
  2 12  1  0
  2 13  1  0
  5 14  1  0
  5 15  1  0
  6 16  1  0
  6 17  1  0
  6 18  1  0
  7 19  1  0
  7 20  1  0
  8 21  1  0
  8 22  1  0
M  END
