
     RDKit          3D

 25 24  0  0  0  0  0  0  0  0999 V2000
    3.7552    0.3310    0.6656 C   0  0  0  0  0  0  0  0  0  0  0  0
    2.2890   -0.0746    0.5804 C   0  0  0  0  0  0  0  0  0  0  0  0
    1.8872   -0.2807   -0.7166 O   0  0  0  0  0  0  0  0  0  0  0  0
    0.5625   -0.6600   -0.8577 C   0  0  0  0  0  0  0  0  0  0  0  0
   -0.4263    0.3329   -0.3325 C   0  0  0  0  0  0  0  0  0  0  0  0
   -0.2224    1.5307   -1.0468 O   0  0  0  0  0  0  0  0  0  0  0  0
   -1.8546   -0.0705   -0.6156 C   0  0  0  0  0  0  0  0  0  0  0  0
   -2.2083   -1.4022    0.0125 C   0  0  0  0  0  0  0  0  0  0  0  0
   -2.7453    0.9725    0.0282 C   0  0  0  0  0  0  0  0  0  0  0  0
    4.3321   -0.6172    0.7902 H   0  0  0  0  0  0  0  0  0  0  0  0
    3.9570    0.9617    1.5453 H   0  0  0  0  0  0  0  0  0  0  0  0
    4.1193    0.8093   -0.2489 H   0  0  0  0  0  0  0  0  0  0  0  0
    2.1052   -1.0082    1.1519 H   0  0  0  0  0  0  0  0  0  0  0  0
    1.6804    0.7232    1.0939 H   0  0  0  0  0  0  0  0  0  0  0  0
    0.4629   -1.6292   -0.2835 H   0  0  0  0  0  0  0  0  0  0  0  0
    0.3675   -0.9443   -1.9090 H   0  0  0  0  0  0  0  0  0  0  0  0
   -0.2955    0.5316    0.7211 H   0  0  0  0  0  0  0  0  0  0  0  0
    0.3453    2.1563   -0.5412 H   0  0  0  0  0  0  0  0  0  0  0  0
   -2.0897   -0.0958   -1.6953 H   0  0  0  0  0  0  0  0  0  0  0  0
   -1.4946   -2.1969   -0.2059 H   0  0  0  0  0  0  0  0  0  0  0  0
   -2.3862   -1.2551    1.1121 H   0  0  0  0  0  0  0  0  0  0  0  0
   -3.2282   -1.6623   -0.3957 H   0  0  0  0  0  0  0  0  0  0  0  0
   -2.7573    0.7452    1.1298 H   0  0  0  0  0  0  0  0  0  0  0  0
   -3.7747    0.7996   -0.3641 H   0  0  0  0  0  0  0  0  0  0  0  0
   -2.3806    2.0027   -0.1682 H   0  0  0  0  0  0  0  0  0  0  0  0
  1  2  1  0
  2  3  1  0
  3  4  1  0
  4  5  1  0
  5  6  1  0
  5  7  1  0
  7  8  1  0
  7  9  1  0
  1 10  1  0
  1 11  1  0
  1 12  1  0
  2 13  1  0
  2 14  1  0
  4 15  1  0
  4 16  1  0
  5 17  1  0
  6 18  1  0
  7 19  1  0
  8 20  1  0
  8 21  1  0
  8 22  1  0
  9 23  1  0
  9 24  1  0
  9 25  1  0
M  END
