
     RDKit          3D

 20 20  0  0  0  0  0  0  0  0999 V2000
    2.4550    0.4136    0.6058 C   0  0  0  0  0  0  0  0  0  0  0  0
    2.1369   -0.6630   -0.4126 C   0  0  0  0  0  0  0  0  0  0  0  0
    0.8067   -1.1047   -0.2817 O   0  0  0  0  0  0  0  0  0  0  0  0
   -0.0879   -0.0646   -0.4723 C   0  0  0  0  0  0  0  0  0  0  0  0
   -0.9278    0.1002    0.7707 C   0  0  0  0  0  0  0  0  0  0  0  0
   -2.2484    0.5189    0.1589 C   0  0  0  0  0  0  0  0  0  0  0  0
   -2.2190   -0.3608   -1.0992 C   0  0  0  0  0  0  0  0  0  0  0  0
   -0.9226   -0.3089   -1.5285 O   0  0  0  0  0  0  0  0  0  0  0  0
    1.8509    0.2312    1.5285 H   0  0  0  0  0  0  0  0  0  0  0  0
    3.5403    0.3627    0.9063 H   0  0  0  0  0  0  0  0  0  0  0  0
    2.2848    1.4165    0.1731 H   0  0  0  0  0  0  0  0  0  0  0  0
    2.8258   -1.5036   -0.2073 H   0  0  0  0  0  0  0  0  0  0  0  0
    2.3591   -0.2736   -1.4075 H   0  0  0  0  0  0  0  0  0  0  0  0
    0.5137    0.8640   -0.6832 H   0  0  0  0  0  0  0  0  0  0  0  0
   -0.5235    0.8620    1.4596 H   0  0  0  0  0  0  0  0  0  0  0  0
   -1.0399   -0.9004    1.2196 H   0  0  0  0  0  0  0  0  0  0  0  0
   -3.1128    0.2627    0.7924 H   0  0  0  0  0  0  0  0  0  0  0  0
   -2.2548    1.5558   -0.1757 H   0  0  0  0  0  0  0  0  0  0  0  0
   -2.4873   -1.4008   -0.7500 H   0  0  0  0  0  0  0  0  0  0  0  0
   -2.9492   -0.0069   -1.8538 H   0  0  0  0  0  0  0  0  0  0  0  0
  1  2  1  0
  2  3  1  0
  3  4  1  0
  4  5  1  0
  5  6  1  0
  6  7  1  0
  7  8  1  0
  8  4  1  0
  1  9  1  0
  1 10  1  0
  1 11  1  0
  2 12  1  0
  2 13  1  0
  4 14  1  0
  5 15  1  0
  5 16  1  0
  6 17  1  0
  6 18  1  0
  7 19  1  0
  7 20  1  0
M  END
