
     RDKit          3D

 20 21  0  0  0  0  0  0  0  0999 V2000
    3.1271   -0.3524    0.6119 C   0  0  0  0  0  0  0  0  0  0  0  0
    1.9477    0.4728    0.1823 C   0  0  0  0  0  0  0  0  0  0  0  0
    0.7970   -0.2189    0.5235 O   0  0  0  0  0  0  0  0  0  0  0  0
   -0.3642    0.4882    0.1540 C   0  0  0  0  0  0  0  0  0  0  0  0
   -1.2594    0.6056    1.3952 C   0  0  0  0  0  0  0  0  0  0  0  0
   -2.0081   -0.5922    0.8783 C   0  0  0  0  0  0  0  0  0  0  0  0
   -2.7729   -0.3440   -0.3754 C   0  0  0  0  0  0  0  0  0  0  0  0
   -1.3225   -0.4452   -0.5156 C   0  0  0  0  0  0  0  0  0  0  0  0
    4.0080    0.3097    0.6692 H   0  0  0  0  0  0  0  0  0  0  0  0
    3.3112   -1.1819   -0.1144 H   0  0  0  0  0  0  0  0  0  0  0  0
    2.8744   -0.7721    1.6243 H   0  0  0  0  0  0  0  0  0  0  0  0
    1.9859    0.5854   -0.9111 H   0  0  0  0  0  0  0  0  0  0  0  0
    2.0315    1.4557    0.6832 H   0  0  0  0  0  0  0  0  0  0  0  0
   -0.1927    1.4493   -0.3328 H   0  0  0  0  0  0  0  0  0  0  0  0
   -0.7416    0.5035    2.3440 H   0  0  0  0  0  0  0  0  0  0  0  0
   -1.9374    1.5061    1.3218 H   0  0  0  0  0  0  0  0  0  0  0  0
   -1.8965   -1.5759    1.3250 H   0  0  0  0  0  0  0  0  0  0  0  0
   -3.3878   -1.1654   -0.7304 H   0  0  0  0  0  0  0  0  0  0  0  0
   -3.2784    0.6566   -0.4495 H   0  0  0  0  0  0  0  0  0  0  0  0
   -0.9213   -1.3852   -0.9565 H   0  0  0  0  0  0  0  0  0  0  0  0
  1  2  1  0
  2  3  1  0
  3  4  1  0
  4  5  1  0
  5  6  1  0
  6  7  1  0
  7  8  1  0
  8  4  1  0
  8  6  1  0
  1  9  1  0
  1 10  1  0
  1 11  1  0
  2 12  1  0
  2 13  1  0
  4 14  1  0
  5 15  1  0
  5 16  1  0
  6 17  1  0
  7 18  1  0
  7 19  1  0
  8 20  1  0
M  END
