
     RDKit          3D

 25 25  0  0  0  0  0  0  0  0999 V2000
    3.6049    0.3297   -0.1431 C   0  0  0  0  0  0  0  0  0  0  0  0
    2.4012   -0.0532    0.6959 C   0  0  0  0  0  0  0  0  0  0  0  0
    1.3138   -0.0802   -0.1152 O   0  0  0  0  0  0  0  0  0  0  0  0
    0.1168   -0.4097    0.4667 C   0  0  0  0  0  0  0  0  0  0  0  0
   -0.3173   -1.7142   -0.1785 C   0  0  0  0  0  0  0  0  0  0  0  0
   -0.9304    0.6269    0.1805 C   0  0  0  0  0  0  0  0  0  0  0  0
   -2.2808    0.3886    0.7571 C   0  0  0  0  0  0  0  0  0  0  0  0
   -2.8522    0.9839   -0.5380 C   0  0  0  0  0  0  0  0  0  0  0  0
   -1.5568    0.4994   -1.2026 C   0  0  0  0  0  0  0  0  0  0  0  0
    3.2779    0.7934   -1.1006 H   0  0  0  0  0  0  0  0  0  0  0  0
    4.1750   -0.5841   -0.4147 H   0  0  0  0  0  0  0  0  0  0  0  0
    4.2606    1.0634    0.3895 H   0  0  0  0  0  0  0  0  0  0  0  0
    2.6396   -1.0404    1.1716 H   0  0  0  0  0  0  0  0  0  0  0  0
    2.3543    0.6716    1.5284 H   0  0  0  0  0  0  0  0  0  0  0  0
    0.2170   -0.6129    1.5532 H   0  0  0  0  0  0  0  0  0  0  0  0
   -1.3759   -1.9256   -0.0768 H   0  0  0  0  0  0  0  0  0  0  0  0
    0.2533   -2.5690    0.2732 H   0  0  0  0  0  0  0  0  0  0  0  0
   -0.0388   -1.6552   -1.2610 H   0  0  0  0  0  0  0  0  0  0  0  0
   -0.6345    1.6803    0.3353 H   0  0  0  0  0  0  0  0  0  0  0  0
   -2.6360   -0.6300    0.8681 H   0  0  0  0  0  0  0  0  0  0  0  0
   -2.5420    0.9832    1.6602 H   0  0  0  0  0  0  0  0  0  0  0  0
   -2.8278    2.0739   -0.4554 H   0  0  0  0  0  0  0  0  0  0  0  0
   -3.7620    0.5068   -0.8980 H   0  0  0  0  0  0  0  0  0  0  0  0
   -1.1445    1.2030   -1.9455 H   0  0  0  0  0  0  0  0  0  0  0  0
   -1.7154   -0.5297   -1.5505 H   0  0  0  0  0  0  0  0  0  0  0  0
  1  2  1  0
  2  3  1  0
  3  4  1  0
  4  5  1  0
  4  6  1  0
  6  7  1  0
  7  8  1  0
  8  9  1  0
  9  6  1  0
  1 10  1  0
  1 11  1  0
  1 12  1  0
  2 13  1  0
  2 14  1  0
  4 15  1  0
  5 16  1  0
  5 17  1  0
  5 18  1  0
  6 19  1  0
  7 20  1  0
  7 21  1  0
  8 22  1  0
  8 23  1  0
  9 24  1  0
  9 25  1  0
M  END
