
     RDKit          3D

 21 20  0  0  0  0  0  0  0  0999 V2000
   -3.1445    1.3071    0.3889 C   0  0  0  0  0  0  0  0  0  0  0  0
   -2.1767    0.2696   -0.0933 C   0  0  0  0  0  0  0  0  0  0  0  0
   -0.8635    0.5185    0.3376 O   0  0  0  0  0  0  0  0  0  0  0  0
   -0.0801   -0.5071   -0.1744 C   0  0  0  0  0  0  0  0  0  0  0  0
    1.3734   -0.3592    0.2190 C   0  0  0  0  0  0  0  0  0  0  0  0
    2.1156   -1.4867   -0.3681 C   0  0  0  0  0  0  0  0  0  0  0  0
    2.2821   -2.4970    0.2595 O   0  0  0  0  0  0  0  0  0  0  0  0
    1.9419    0.9697   -0.2342 C   0  0  0  0  0  0  0  0  0  0  0  0
    3.2761    1.0141    0.1705 O   0  0  0  0  0  0  0  0  0  0  0  0
   -4.1722    0.8739    0.3415 H   0  0  0  0  0  0  0  0  0  0  0  0
   -2.9356    1.6744    1.4087 H   0  0  0  0  0  0  0  0  0  0  0  0
   -3.1415    2.2017   -0.2754 H   0  0  0  0  0  0  0  0  0  0  0  0
   -2.5062   -0.7566    0.1946 H   0  0  0  0  0  0  0  0  0  0  0  0
   -2.1357    0.3492   -1.2108 H   0  0  0  0  0  0  0  0  0  0  0  0
   -0.4288   -1.4636    0.2986 H   0  0  0  0  0  0  0  0  0  0  0  0
   -0.1652   -0.6399   -1.2554 H   0  0  0  0  0  0  0  0  0  0  0  0
    1.4950   -0.4072    1.3179 H   0  0  0  0  0  0  0  0  0  0  0  0
    2.5010   -1.3899   -1.3573 H   0  0  0  0  0  0  0  0  0  0  0  0
    1.4243    1.8015    0.2452 H   0  0  0  0  0  0  0  0  0  0  0  0
    1.9573    1.0383   -1.3547 H   0  0  0  0  0  0  0  0  0  0  0  0
    3.3835    0.9491    1.1416 H   0  0  0  0  0  0  0  0  0  0  0  0
  1  2  1  0
  2  3  1  0
  3  4  1  0
  4  5  1  0
  5  6  1  0
  6  7  2  0
  5  8  1  0
  8  9  1  0
  1 10  1  0
  1 11  1  0
  1 12  1  0
  2 13  1  0
  2 14  1  0
  4 15  1  0
  4 16  1  0
  5 17  1  0
  6 18  1  0
  8 19  1  0
  8 20  1  0
  9 21  1  0
M  END
