
     RDKit          3D

 27 26  0  0  0  0  0  0  0  0999 V2000
    3.3391    1.3168    0.0206 C   0  0  0  0  0  0  0  0  0  0  0  0
    2.4681    0.1157   -0.3674 C   0  0  0  0  0  0  0  0  0  0  0  0
    1.3452    0.1674    0.4179 O   0  0  0  0  0  0  0  0  0  0  0  0
    0.4385   -0.8408    0.2086 C   0  0  0  0  0  0  0  0  0  0  0  0
    0.1745   -1.6730    1.4413 C   0  0  0  0  0  0  0  0  0  0  0  0
   -0.8354   -0.1887   -0.3083 C   0  0  0  0  0  0  0  0  0  0  0  0
   -1.9216   -1.1725   -0.5831 C   0  0  0  0  0  0  0  0  0  0  0  0
   -1.3381    0.8617    0.6617 C   0  0  0  0  0  0  0  0  0  0  0  0
   -2.5996    1.4573    0.0757 C   0  0  0  0  0  0  0  0  0  0  0  0
    3.6988    1.2020    1.0783 H   0  0  0  0  0  0  0  0  0  0  0  0
    4.1850    1.4167   -0.6780 H   0  0  0  0  0  0  0  0  0  0  0  0
    2.7624    2.2635   -0.0381 H   0  0  0  0  0  0  0  0  0  0  0  0
    2.2706    0.1863   -1.4468 H   0  0  0  0  0  0  0  0  0  0  0  0
    3.1093   -0.7793   -0.1166 H   0  0  0  0  0  0  0  0  0  0  0  0
    0.7791   -1.5440   -0.5820 H   0  0  0  0  0  0  0  0  0  0  0  0
    0.5751   -2.7055    1.3557 H   0  0  0  0  0  0  0  0  0  0  0  0
    0.6738   -1.2220    2.3267 H   0  0  0  0  0  0  0  0  0  0  0  0
   -0.8956   -1.7526    1.6942 H   0  0  0  0  0  0  0  0  0  0  0  0
   -0.5597    0.3248   -1.2528 H   0  0  0  0  0  0  0  0  0  0  0  0
   -2.7221   -1.0738    0.1828 H   0  0  0  0  0  0  0  0  0  0  0  0
   -2.4069   -0.9841   -1.5600 H   0  0  0  0  0  0  0  0  0  0  0  0
   -1.5073   -2.1975   -0.4992 H   0  0  0  0  0  0  0  0  0  0  0  0
   -1.6519    0.2937    1.5862 H   0  0  0  0  0  0  0  0  0  0  0  0
   -0.5747    1.6254    0.8887 H   0  0  0  0  0  0  0  0  0  0  0  0
   -3.4909    1.2525    0.7015 H   0  0  0  0  0  0  0  0  0  0  0  0
   -2.7929    1.0848   -0.9433 H   0  0  0  0  0  0  0  0  0  0  0  0
   -2.5228    2.5651   -0.0075 H   0  0  0  0  0  0  0  0  0  0  0  0
  1  2  1  0
  2  3  1  0
  3  4  1  0
  4  5  1  0
  4  6  1  0
  6  7  1  0
  6  8  1  0
  8  9  1  0
  1 10  1  0
  1 11  1  0
  1 12  1  0
  2 13  1  0
  2 14  1  0
  4 15  1  0
  5 16  1  0
  5 17  1  0
  5 18  1  0
  6 19  1  0
  7 20  1  0
  7 21  1  0
  7 22  1  0
  8 23  1  0
  8 24  1  0
  9 25  1  0
  9 26  1  0
  9 27  1  0
M  END
