
     RDKit          3D

 25 25  0  0  0  0  0  0  0  0999 V2000
    3.5165    0.0719    0.5344 C   0  0  0  0  0  0  0  0  0  0  0  0
    2.3935    0.1911   -0.4367 C   0  0  0  0  0  0  0  0  0  0  0  0
    1.1382    0.1314    0.1585 O   0  0  0  0  0  0  0  0  0  0  0  0
    0.1981    0.2532   -0.8462 C   0  0  0  0  0  0  0  0  0  0  0  0
   -0.7448    1.4074   -0.4704 C   0  0  0  0  0  0  0  0  0  0  0  0
   -1.6078    0.3474    0.2240 C   0  0  0  0  0  0  0  0  0  0  0  0
   -3.0641    0.6183    0.0178 C   0  0  0  0  0  0  0  0  0  0  0  0
   -0.9971   -0.6508   -0.7532 C   0  0  0  0  0  0  0  0  0  0  0  0
   -0.7976   -1.9712   -0.0939 C   0  0  0  0  0  0  0  0  0  0  0  0
    4.1851    0.9540    0.4234 H   0  0  0  0  0  0  0  0  0  0  0  0
    4.1367   -0.8126    0.2981 H   0  0  0  0  0  0  0  0  0  0  0  0
    3.1707    0.0654    1.5927 H   0  0  0  0  0  0  0  0  0  0  0  0
    2.4609    1.1569   -1.0137 H   0  0  0  0  0  0  0  0  0  0  0  0
    2.4269   -0.6648   -1.1623 H   0  0  0  0  0  0  0  0  0  0  0  0
    0.6549    0.3628   -1.8295 H   0  0  0  0  0  0  0  0  0  0  0  0
   -1.2612    1.8371   -1.3286 H   0  0  0  0  0  0  0  0  0  0  0  0
   -0.3490    2.0949    0.2791 H   0  0  0  0  0  0  0  0  0  0  0  0
   -1.2769    0.1233    1.2378 H   0  0  0  0  0  0  0  0  0  0  0  0
   -3.2711    1.6500    0.3831 H   0  0  0  0  0  0  0  0  0  0  0  0
   -3.6779   -0.0934    0.6024 H   0  0  0  0  0  0  0  0  0  0  0  0
   -3.2880    0.5336   -1.0669 H   0  0  0  0  0  0  0  0  0  0  0  0
   -1.5188   -0.6900   -1.7375 H   0  0  0  0  0  0  0  0  0  0  0  0
   -0.3497   -1.8043    0.9016 H   0  0  0  0  0  0  0  0  0  0  0  0
   -1.8162   -2.4029    0.1022 H   0  0  0  0  0  0  0  0  0  0  0  0
   -0.2611   -2.7087   -0.6980 H   0  0  0  0  0  0  0  0  0  0  0  0
  1  2  1  0
  2  3  1  0
  3  4  1  0
  4  5  1  0
  5  6  1  0
  6  7  1  0
  6  8  1  0
  8  9  1  0
  8  4  1  0
  1 10  1  0
  1 11  1  0
  1 12  1  0
  2 13  1  0
  2 14  1  0
  4 15  1  0
  5 16  1  0
  5 17  1  0
  6 18  1  0
  7 19  1  0
  7 20  1  0
  7 21  1  0
  8 22  1  0
  9 23  1  0
  9 24  1  0
  9 25  1  0
M  END
