
     RDKit          3D

 27 26  0  0  0  0  0  0  0  0999 V2000
    2.9205    1.3182   -0.4678 C   0  0  0  0  0  0  0  0  0  0  0  0
    2.0101    0.1685   -0.0516 C   0  0  0  0  0  0  0  0  0  0  0  0
    0.7057    0.5417   -0.2293 O   0  0  0  0  0  0  0  0  0  0  0  0
   -0.1699   -0.4702    0.1351 C   0  0  0  0  0  0  0  0  0  0  0  0
    0.0526   -1.7077   -0.6765 C   0  0  0  0  0  0  0  0  0  0  0  0
    0.1258   -0.8023    1.6032 C   0  0  0  0  0  0  0  0  0  0  0  0
   -1.6051   -0.0331    0.0813 C   0  0  0  0  0  0  0  0  0  0  0  0
   -1.8612    1.1250    1.0107 C   0  0  0  0  0  0  0  0  0  0  0  0
   -2.0686    0.2647   -1.3245 C   0  0  0  0  0  0  0  0  0  0  0  0
    3.0805    2.0341    0.3674 H   0  0  0  0  0  0  0  0  0  0  0  0
    2.5031    1.8561   -1.3622 H   0  0  0  0  0  0  0  0  0  0  0  0
    3.9252    0.9664   -0.7695 H   0  0  0  0  0  0  0  0  0  0  0  0
    2.3290   -0.7049   -0.6566 H   0  0  0  0  0  0  0  0  0  0  0  0
    2.2770   -0.0548    1.0130 H   0  0  0  0  0  0  0  0  0  0  0  0
    0.4598   -2.5434   -0.0440 H   0  0  0  0  0  0  0  0  0  0  0  0
   -0.9081   -2.1187   -1.1033 H   0  0  0  0  0  0  0  0  0  0  0  0
    0.7055   -1.5469   -1.5602 H   0  0  0  0  0  0  0  0  0  0  0  0
   -0.7714   -1.3643    1.9606 H   0  0  0  0  0  0  0  0  0  0  0  0
    0.9788   -1.4685    1.7035 H   0  0  0  0  0  0  0  0  0  0  0  0
    0.1754    0.1329    2.1702 H   0  0  0  0  0  0  0  0  0  0  0  0
   -2.2273   -0.8829    0.4502 H   0  0  0  0  0  0  0  0  0  0  0  0
   -1.0490    1.8576    1.0257 H   0  0  0  0  0  0  0  0  0  0  0  0
   -2.8169    1.5967    0.6811 H   0  0  0  0  0  0  0  0  0  0  0  0
   -2.0679    0.7399    2.0509 H   0  0  0  0  0  0  0  0  0  0  0  0
   -2.8633    1.0606   -1.2526 H   0  0  0  0  0  0  0  0  0  0  0  0
   -2.5879   -0.6123   -1.7732 H   0  0  0  0  0  0  0  0  0  0  0  0
   -1.2524    0.6478   -1.9617 H   0  0  0  0  0  0  0  0  0  0  0  0
  1  2  1  0
  2  3  1  0
  3  4  1  0
  4  5  1  0
  4  6  1  0
  4  7  1  0
  7  8  1  0
  7  9  1  0
  1 10  1  0
  1 11  1  0
  1 12  1  0
  2 13  1  0
  2 14  1  0
  5 15  1  0
  5 16  1  0
  5 17  1  0
  6 18  1  0
  6 19  1  0
  6 20  1  0
  7 21  1  0
  8 22  1  0
  8 23  1  0
  8 24  1  0
  9 25  1  0
  9 26  1  0
  9 27  1  0
M  END
