
     RDKit          3D

 22 21  0  0  0  0  0  0  0  0999 V2000
    3.6093   -0.4646    0.2182 C   0  0  0  0  0  0  0  0  0  0  0  0
    2.3210   -0.2120   -0.5333 C   0  0  0  0  0  0  0  0  0  0  0  0
    1.2405   -0.0679    0.3260 O   0  0  0  0  0  0  0  0  0  0  0  0
    0.0506    0.1641   -0.3388 C   0  0  0  0  0  0  0  0  0  0  0  0
   -1.0271    0.2975    0.7462 C   0  0  0  0  0  0  0  0  0  0  0  0
   -0.6514    1.3695    1.5483 O   0  0  0  0  0  0  0  0  0  0  0  0
   -2.3860    0.5318    0.1242 C   0  0  0  0  0  0  0  0  0  0  0  0
   -2.7615   -0.6220   -0.7796 C   0  0  0  0  0  0  0  0  0  0  0  0
    3.7387    0.2479    1.0639 H   0  0  0  0  0  0  0  0  0  0  0  0
    4.4369   -0.3141   -0.4868 H   0  0  0  0  0  0  0  0  0  0  0  0
    3.5827   -1.4969    0.6390 H   0  0  0  0  0  0  0  0  0  0  0  0
    2.1309   -1.0486   -1.2094 H   0  0  0  0  0  0  0  0  0  0  0  0
    2.4511    0.7687   -1.0619 H   0  0  0  0  0  0  0  0  0  0  0  0
    0.1594    1.1317   -0.8704 H   0  0  0  0  0  0  0  0  0  0  0  0
   -0.2095   -0.6178   -1.0705 H   0  0  0  0  0  0  0  0  0  0  0  0
   -1.0752   -0.6111    1.3637 H   0  0  0  0  0  0  0  0  0  0  0  0
   -1.4775    1.7399    1.9551 H   0  0  0  0  0  0  0  0  0  0  0  0
   -3.1165    0.5274    0.9598 H   0  0  0  0  0  0  0  0  0  0  0  0
   -2.4741    1.5130   -0.3652 H   0  0  0  0  0  0  0  0  0  0  0  0
   -2.2777   -1.5340   -0.3315 H   0  0  0  0  0  0  0  0  0  0  0  0
   -3.8542   -0.8423   -0.7557 H   0  0  0  0  0  0  0  0  0  0  0  0
   -2.4104   -0.4603   -1.8074 H   0  0  0  0  0  0  0  0  0  0  0  0
  1  2  1  0
  2  3  1  0
  3  4  1  0
  4  5  1  0
  5  6  1  0
  5  7  1  0
  7  8  1  0
  1  9  1  0
  1 10  1  0
  1 11  1  0
  2 12  1  0
  2 13  1  0
  4 14  1  0
  4 15  1  0
  5 16  1  0
  6 17  1  0
  7 18  1  0
  7 19  1  0
  8 20  1  0
  8 21  1  0
  8 22  1  0
M  END
