
     RDKit          3D

 21 22  0  0  0  0  0  0  0  0999 V2000
    2.5384   -1.1093    0.8578 C   0  0  0  0  0  0  0  0  0  0  0  0
    1.7854    0.0378    0.1728 C   0  0  0  0  0  0  0  0  0  0  0  0
    0.4599   -0.2230    0.2432 O   0  0  0  0  0  0  0  0  0  0  0  0
   -0.4015    0.7202   -0.3123 C   0  0  0  0  0  0  0  0  0  0  0  0
   -0.1206    0.8779   -1.7895 C   0  0  0  0  0  0  0  0  0  0  0  0
   -0.5986   -0.4625   -1.7841 O   0  0  0  0  0  0  0  0  0  0  0  0
   -1.6533    0.1298   -1.0825 C   0  0  0  0  0  0  0  0  0  0  0  0
   -1.7393    0.5902    0.2576 C   0  0  0  0  0  0  0  0  0  0  0  0
   -2.0758   -0.4448    1.3357 C   0  0  0  0  0  0  0  0  0  0  0  0
    3.5051   -1.3143    0.3525 H   0  0  0  0  0  0  0  0  0  0  0  0
    2.8063   -0.8193    1.9069 H   0  0  0  0  0  0  0  0  0  0  0  0
    1.9524   -2.0304    0.8529 H   0  0  0  0  0  0  0  0  0  0  0  0
    2.0264    0.9531    0.7231 H   0  0  0  0  0  0  0  0  0  0  0  0
    2.1563    0.0193   -0.8662 H   0  0  0  0  0  0  0  0  0  0  0  0
    0.9116    1.0233   -2.0510 H   0  0  0  0  0  0  0  0  0  0  0  0
   -0.7606    1.5943   -2.3310 H   0  0  0  0  0  0  0  0  0  0  0  0
   -2.1373    0.8468   -1.8177 H   0  0  0  0  0  0  0  0  0  0  0  0
   -2.2127    1.5802    0.5291 H   0  0  0  0  0  0  0  0  0  0  0  0
   -1.4581   -1.3530    1.2373 H   0  0  0  0  0  0  0  0  0  0  0  0
   -1.8186    0.0203    2.3172 H   0  0  0  0  0  0  0  0  0  0  0  0
   -3.1654   -0.6364    1.2483 H   0  0  0  0  0  0  0  0  0  0  0  0
  1  2  1  0
  2  3  1  0
  3  4  1  0
  4  5  1  0
  5  6  1  0
  6  7  1  0
  7  8  1  0
  8  9  1  0
  7  4  1  0
  8  4  1  0
  1 10  1  0
  1 11  1  0
  1 12  1  0
  2 13  1  0
  2 14  1  0
  5 15  1  0
  5 16  1  0
  7 17  1  0
  8 18  1  0
  9 19  1  0
  9 20  1  0
  9 21  1  0
M  END
