
     RDKit          3D

 21 21  0  0  0  0  0  0  0  0999 V2000
    3.2513   -0.1039    0.1675 C   0  0  0  0  0  0  0  0  0  0  0  0
    1.8247    0.2589    0.4593 C   0  0  0  0  0  0  0  0  0  0  0  0
    0.9296   -0.4705   -0.3430 O   0  0  0  0  0  0  0  0  0  0  0  0
   -0.3637   -0.0940   -0.0296 C   0  0  0  0  0  0  0  0  0  0  0  0
   -1.2016   -1.2384    0.4847 C   0  0  0  0  0  0  0  0  0  0  0  0
   -2.4532   -0.7531    0.8078 O   0  0  0  0  0  0  0  0  0  0  0  0
   -2.7168    0.5064    0.3248 C   0  0  0  0  0  0  0  0  0  0  0  0
   -2.3851    0.6948   -0.9995 O   0  0  0  0  0  0  0  0  0  0  0  0
   -1.0708    0.4276   -1.2831 C   0  0  0  0  0  0  0  0  0  0  0  0
    3.5545    0.2763   -0.8380 H   0  0  0  0  0  0  0  0  0  0  0  0
    3.3391   -1.1993    0.2287 H   0  0  0  0  0  0  0  0  0  0  0  0
    3.8725    0.3630    0.9752 H   0  0  0  0  0  0  0  0  0  0  0  0
    1.6447    0.0652    1.5423 H   0  0  0  0  0  0  0  0  0  0  0  0
    1.6877    1.3550    0.3147 H   0  0  0  0  0  0  0  0  0  0  0  0
   -0.3581    0.6829    0.7709 H   0  0  0  0  0  0  0  0  0  0  0  0
   -0.7317   -1.5901    1.4463 H   0  0  0  0  0  0  0  0  0  0  0  0
   -1.2557   -2.0843   -0.2207 H   0  0  0  0  0  0  0  0  0  0  0  0
   -3.8341    0.6522    0.4053 H   0  0  0  0  0  0  0  0  0  0  0  0
   -2.2872    1.3227    0.9524 H   0  0  0  0  0  0  0  0  0  0  0  0
   -0.4886    1.2975   -1.6395 H   0  0  0  0  0  0  0  0  0  0  0  0
   -0.9576   -0.3688   -2.0521 H   0  0  0  0  0  0  0  0  0  0  0  0
  1  2  1  0
  2  3  1  0
  3  4  1  0
  4  5  1  0
  5  6  1  0
  6  7  1  0
  7  8  1  0
  8  9  1  0
  9  4  1  0
  1 10  1  0
  1 11  1  0
  1 12  1  0
  2 13  1  0
  2 14  1  0
  4 15  1  0
  5 16  1  0
  5 17  1  0
  7 18  1  0
  7 19  1  0
  9 20  1  0
  9 21  1  0
M  END
