
     RDKit          3D

 21 21  0  0  0  0  0  0  0  0999 V2000
   -3.5981   -0.0137    0.7983 C   0  0  0  0  0  0  0  0  0  0  0  0
   -2.5879   -0.3786   -0.2800 C   0  0  0  0  0  0  0  0  0  0  0  0
   -1.3245    0.1221    0.1259 O   0  0  0  0  0  0  0  0  0  0  0  0
   -0.1710   -0.0231   -0.6078 C   0  0  0  0  0  0  0  0  0  0  0  0
   -0.2051   -0.6279   -1.7028 O   0  0  0  0  0  0  0  0  0  0  0  0
    1.0859    0.5241   -0.1143 C   0  0  0  0  0  0  0  0  0  0  0  0
    2.2964    0.3088   -1.0003 C   0  0  0  0  0  0  0  0  0  0  0  0
    3.0998    0.2385    0.3039 C   0  0  0  0  0  0  0  0  0  0  0  0
    1.8141   -0.3305    0.9181 C   0  0  0  0  0  0  0  0  0  0  0  0
   -3.0907    0.2194    1.7646 H   0  0  0  0  0  0  0  0  0  0  0  0
   -4.2043   -0.9326    1.0086 H   0  0  0  0  0  0  0  0  0  0  0  0
   -4.2470    0.8337    0.4784 H   0  0  0  0  0  0  0  0  0  0  0  0
   -2.8665    0.1865   -1.1968 H   0  0  0  0  0  0  0  0  0  0  0  0
   -2.5723   -1.4621   -0.4916 H   0  0  0  0  0  0  0  0  0  0  0  0
    1.0693    1.5723    0.2463 H   0  0  0  0  0  0  0  0  0  0  0  0
    2.2438   -0.7019   -1.4432 H   0  0  0  0  0  0  0  0  0  0  0  0
    2.5628    1.1277   -1.6631 H   0  0  0  0  0  0  0  0  0  0  0  0
    3.9443   -0.4472    0.2822 H   0  0  0  0  0  0  0  0  0  0  0  0
    3.3213    1.2783    0.6353 H   0  0  0  0  0  0  0  0  0  0  0  0
    1.7853   -1.4260    0.6670 H   0  0  0  0  0  0  0  0  0  0  0  0
    1.6445   -0.0677    1.9581 H   0  0  0  0  0  0  0  0  0  0  0  0
  1  2  1  0
  2  3  1  0
  3  4  1  0
  4  5  2  0
  4  6  1  0
  6  7  1  0
  7  8  1  0
  8  9  1  0
  9  6  1  0
  1 10  1  0
  1 11  1  0
  1 12  1  0
  2 13  1  0
  2 14  1  0
  6 15  1  0
  7 16  1  0
  7 17  1  0
  8 18  1  0
  8 19  1  0
  9 20  1  0
  9 21  1  0
M  END
