
     RDKit          3D

 24 23  0  0  0  0  0  0  0  0999 V2000
    2.7424    0.9158   -0.2125 C   0  0  0  0  0  0  0  0  0  0  0  0
    1.5133    0.4901    0.5892 C   0  0  0  0  0  0  0  0  0  0  0  0
    0.5348    0.1731   -0.3186 O   0  0  0  0  0  0  0  0  0  0  0  0
   -0.6580   -0.2369    0.2502 C   0  0  0  0  0  0  0  0  0  0  0  0
   -1.0437   -1.6344   -0.2570 C   0  0  0  0  0  0  0  0  0  0  0  0
    0.0196   -2.6466    0.0950 C   0  0  0  0  0  0  0  0  0  0  0  0
   -1.7416    0.6860   -0.2746 C   0  0  0  0  0  0  0  0  0  0  0  0
   -1.5060    2.1228    0.0719 C   0  0  0  0  0  0  0  0  0  0  0  0
    2.4487    1.8401   -0.7467 H   0  0  0  0  0  0  0  0  0  0  0  0
    3.6060    1.1311    0.4439 H   0  0  0  0  0  0  0  0  0  0  0  0
    2.9279    0.1274   -0.9550 H   0  0  0  0  0  0  0  0  0  0  0  0
    1.8302   -0.3566    1.2247 H   0  0  0  0  0  0  0  0  0  0  0  0
    1.2575    1.3236    1.2715 H   0  0  0  0  0  0  0  0  0  0  0  0
   -0.6118   -0.2366    1.3648 H   0  0  0  0  0  0  0  0  0  0  0  0
   -1.9903   -1.8795    0.2690 H   0  0  0  0  0  0  0  0  0  0  0  0
   -1.1930   -1.5306   -1.3354 H   0  0  0  0  0  0  0  0  0  0  0  0
    0.2286   -2.6012    1.1706 H   0  0  0  0  0  0  0  0  0  0  0  0
    0.9027   -2.4403   -0.5416 H   0  0  0  0  0  0  0  0  0  0  0  0
   -0.3904   -3.6435   -0.1381 H   0  0  0  0  0  0  0  0  0  0  0  0
   -2.7270    0.3307    0.1055 H   0  0  0  0  0  0  0  0  0  0  0  0
   -1.7031    0.6023   -1.3856 H   0  0  0  0  0  0  0  0  0  0  0  0
   -0.4560    2.4036   -0.0155 H   0  0  0  0  0  0  0  0  0  0  0  0
   -2.0603    2.7527   -0.6834 H   0  0  0  0  0  0  0  0  0  0  0  0
   -1.9305    2.3071    1.0929 H   0  0  0  0  0  0  0  0  0  0  0  0
  1  2  1  0
  2  3  1  0
  3  4  1  0
  4  5  1  0
  5  6  1  0
  4  7  1  0
  7  8  1  0
  1  9  1  0
  1 10  1  0
  1 11  1  0
  2 12  1  0
  2 13  1  0
  4 14  1  0
  5 15  1  0
  5 16  1  0
  6 17  1  0
  6 18  1  0
  6 19  1  0
  7 20  1  0
  7 21  1  0
  8 22  1  0
  8 23  1  0
  8 24  1  0
M  END
