
     RDKit          3D

 19 19  0  0  0  0  0  0  0  0999 V2000
    3.0774    0.3555   -0.0036 C   0  0  0  0  0  0  0  0  0  0  0  0
    1.7896   -0.3790    0.3084 C   0  0  0  0  0  0  0  0  0  0  0  0
    0.7312    0.3168   -0.1929 O   0  0  0  0  0  0  0  0  0  0  0  0
   -0.5019   -0.1967   -0.0050 C   0  0  0  0  0  0  0  0  0  0  0  0
   -1.3042   -0.4586   -1.2554 C   0  0  0  0  0  0  0  0  0  0  0  0
   -2.5651   -0.7099   -0.7142 O   0  0  0  0  0  0  0  0  0  0  0  0
   -2.7973    0.2234    0.2651 C   0  0  0  0  0  0  0  0  0  0  0  0
   -1.4474    0.7106    0.7121 C   0  0  0  0  0  0  0  0  0  0  0  0
   -1.2563    1.6177    1.4669 O   0  0  0  0  0  0  0  0  0  0  0  0
    2.8854    1.0537   -0.8291 H   0  0  0  0  0  0  0  0  0  0  0  0
    3.4400    0.9371    0.8702 H   0  0  0  0  0  0  0  0  0  0  0  0
    3.8710   -0.3553   -0.3681 H   0  0  0  0  0  0  0  0  0  0  0  0
    1.7077   -0.4053    1.4168 H   0  0  0  0  0  0  0  0  0  0  0  0
    1.8928   -1.4077   -0.1183 H   0  0  0  0  0  0  0  0  0  0  0  0
   -0.5008   -1.1738    0.5648 H   0  0  0  0  0  0  0  0  0  0  0  0
   -0.9108   -1.3639   -1.7397 H   0  0  0  0  0  0  0  0  0  0  0  0
   -1.3981    0.4101   -1.9146 H   0  0  0  0  0  0  0  0  0  0  0  0
   -3.2595   -0.2217    1.1950 H   0  0  0  0  0  0  0  0  0  0  0  0
   -3.4538    1.0469   -0.0267 H   0  0  0  0  0  0  0  0  0  0  0  0
  1  2  1  0
  2  3  1  0
  3  4  1  0
  4  5  1  0
  5  6  1  0
  6  7  1  0
  7  8  1  0
  8  9  2  0
  8  4  1  0
  1 10  1  0
  1 11  1  0
  1 12  1  0
  2 13  1  0
  2 14  1  0
  4 15  1  0
  5 16  1  0
  5 17  1  0
  7 18  1  0
  7 19  1  0
M  END
