
     RDKit          3D

 21 23  0  0  0  0  0  0  0  0999 V2000
    2.5336    0.4392    0.5321 C   0  0  0  0  0  0  0  0  0  0  0  0
    1.9297   -0.1446   -0.6880 C   0  0  0  0  0  0  0  0  0  0  0  0
    0.7187    0.2529   -1.0908 O   0  0  0  0  0  0  0  0  0  0  0  0
   -0.3970    0.1307   -0.4219 C   0  0  0  0  0  0  0  0  0  0  0  0
   -1.6780    0.6753   -1.0946 C   0  0  0  0  0  0  0  0  0  0  0  0
   -2.4209   -0.3376   -0.2342 C   0  0  0  0  0  0  0  0  0  0  0  0
   -1.6834   -0.5918    1.0238 C   0  0  0  0  0  0  0  0  0  0  0  0
   -0.4746    0.3689    1.0730 C   0  0  0  0  0  0  0  0  0  0  0  0
   -1.1280   -1.1125   -0.2029 C   0  0  0  0  0  0  0  0  0  0  0  0
    2.6698   -0.2592    1.3801 H   0  0  0  0  0  0  0  0  0  0  0  0
    3.5965    0.7355    0.2773 H   0  0  0  0  0  0  0  0  0  0  0  0
    2.0667    1.4062    0.8302 H   0  0  0  0  0  0  0  0  0  0  0  0
    2.6312    0.0881   -1.5516 H   0  0  0  0  0  0  0  0  0  0  0  0
    2.0387   -1.2739   -0.6117 H   0  0  0  0  0  0  0  0  0  0  0  0
   -1.8979    1.7081   -0.7641 H   0  0  0  0  0  0  0  0  0  0  0  0
   -1.7367    0.4704   -2.1637 H   0  0  0  0  0  0  0  0  0  0  0  0
   -3.3237   -0.8117   -0.5508 H   0  0  0  0  0  0  0  0  0  0  0  0
   -2.0323   -1.0978    1.8917 H   0  0  0  0  0  0  0  0  0  0  0  0
    0.3405    0.0155    1.6865 H   0  0  0  0  0  0  0  0  0  0  0  0
   -0.7647    1.4186    1.2492 H   0  0  0  0  0  0  0  0  0  0  0  0
   -0.9883   -2.0804   -0.5698 H   0  0  0  0  0  0  0  0  0  0  0  0
  1  2  1  0
  2  3  1  0
  3  4  1  0
  4  5  1  0
  5  6  1  0
  6  7  1  0
  7  8  1  0
  7  9  1  0
  8  4  1  0
  9  4  1  0
  9  6  1  0
  1 10  1  0
  1 11  1  0
  1 12  1  0
  2 13  1  0
  2 14  1  0
  5 15  1  0
  5 16  1  0
  6 17  1  0
  7 18  1  0
  8 19  1  0
  8 20  1  0
  9 21  1  0
M  END
