
     RDKit          3D

 25 24  0  0  0  0  0  0  0  0999 V2000
   -2.5916   -0.1217    1.3683 C   0  0  0  0  0  0  0  0  0  0  0  0
   -2.3972   -1.2301    0.3521 C   0  0  0  0  0  0  0  0  0  0  0  0
   -1.2221   -1.0598   -0.3836 O   0  0  0  0  0  0  0  0  0  0  0  0
   -1.3165    0.1479   -1.0381 C   0  0  0  0  0  0  0  0  0  0  0  0
   -0.1024    0.4621   -1.8791 C   0  0  0  0  0  0  0  0  0  0  0  0
    1.1600    0.5354   -1.0940 C   0  0  0  0  0  0  0  0  0  0  0  0
    1.4692   -0.6505   -0.4333 O   0  0  0  0  0  0  0  0  0  0  0  0
    2.6392   -0.5626    0.2865 C   0  0  0  0  0  0  0  0  0  0  0  0
    2.6224    0.4963    1.3510 C   0  0  0  0  0  0  0  0  0  0  0  0
   -3.1737   -0.5226    2.2392 H   0  0  0  0  0  0  0  0  0  0  0  0
   -1.6167    0.3011    1.6866 H   0  0  0  0  0  0  0  0  0  0  0  0
   -3.1530    0.7355    0.9181 H   0  0  0  0  0  0  0  0  0  0  0  0
   -2.3134   -2.2112    0.8736 H   0  0  0  0  0  0  0  0  0  0  0  0
   -3.2931   -1.2408   -0.3321 H   0  0  0  0  0  0  0  0  0  0  0  0
   -2.1998    0.1299   -1.7087 H   0  0  0  0  0  0  0  0  0  0  0  0
   -1.5100    0.9332   -0.2783 H   0  0  0  0  0  0  0  0  0  0  0  0
   -0.0510   -0.2290   -2.7288 H   0  0  0  0  0  0  0  0  0  0  0  0
   -0.2805    1.4774   -2.3145 H   0  0  0  0  0  0  0  0  0  0  0  0
    1.0763    1.3810   -0.3823 H   0  0  0  0  0  0  0  0  0  0  0  0
    1.9853    0.7682   -1.7981 H   0  0  0  0  0  0  0  0  0  0  0  0
    3.5129   -0.3258   -0.3836 H   0  0  0  0  0  0  0  0  0  0  0  0
    2.7965   -1.5455    0.7850 H   0  0  0  0  0  0  0  0  0  0  0  0
    3.5608    0.3922    1.9347 H   0  0  0  0  0  0  0  0  0  0  0  0
    2.6348    1.5181    0.9268 H   0  0  0  0  0  0  0  0  0  0  0  0
    1.7635    0.4211    2.0324 H   0  0  0  0  0  0  0  0  0  0  0  0
  1  2  1  0
  2  3  1  0
  3  4  1  0
  4  5  1  0
  5  6  1  0
  6  7  1  0
  7  8  1  0
  8  9  1  0
  1 10  1  0
  1 11  1  0
  1 12  1  0
  2 13  1  0
  2 14  1  0
  4 15  1  0
  4 16  1  0
  5 17  1  0
  5 18  1  0
  6 19  1  0
  6 20  1  0
  8 21  1  0
  8 22  1  0
  9 23  1  0
  9 24  1  0
  9 25  1  0
M  END
