
     RDKit          3D

 17 16  0  0  0  0  0  0  0  0999 V2000
   -2.8708    0.5828    0.2319 C   0  0  0  0  0  0  0  0  0  0  0  0
   -2.2639    0.2050   -1.0958 C   0  0  0  0  0  0  0  0  0  0  0  0
   -0.8814    0.4208   -1.0661 O   0  0  0  0  0  0  0  0  0  0  0  0
   -0.0815   -0.2440   -0.1491 C   0  0  0  0  0  0  0  0  0  0  0  0
   -0.6576   -1.0362    0.6385 O   0  0  0  0  0  0  0  0  0  0  0  0
    1.3791   -0.0234   -0.1091 C   0  0  0  0  0  0  0  0  0  0  0  0
    1.8955    0.7752   -0.9159 O   0  0  0  0  0  0  0  0  0  0  0  0
    2.1898   -0.6683    0.7875 O   0  0  0  0  0  0  0  0  0  0  0  0
    3.5973   -0.4741    0.8470 C   0  0  0  0  0  0  0  0  0  0  0  0
   -2.0667    0.8027    0.9392 H   0  0  0  0  0  0  0  0  0  0  0  0
   -3.4798    1.5080    0.0675 H   0  0  0  0  0  0  0  0  0  0  0  0
   -3.5230   -0.2228    0.6455 H   0  0  0  0  0  0  0  0  0  0  0  0
   -2.4046   -0.9113   -1.1872 H   0  0  0  0  0  0  0  0  0  0  0  0
   -2.7807    0.7025   -1.9186 H   0  0  0  0  0  0  0  0  0  0  0  0
    4.0435   -1.4760    1.0508 H   0  0  0  0  0  0  0  0  0  0  0  0
    4.0123   -0.1311   -0.1282 H   0  0  0  0  0  0  0  0  0  0  0  0
    3.8927    0.1901    1.6840 H   0  0  0  0  0  0  0  0  0  0  0  0
  1  2  1  0
  2  3  1  0
  3  4  1  0
  4  5  2  0
  4  6  1  0
  6  7  2  0
  6  8  1  0
  8  9  1  0
  1 10  1  0
  1 11  1  0
  1 12  1  0
  2 13  1  0
  2 14  1  0
  9 15  1  0
  9 16  1  0
  9 17  1  0
M  END
