
     RDKit          3D

 21 22  0  0  0  0  0  0  0  0999 V2000
    2.5440    0.2417    0.1284 C   0  0  0  0  0  0  0  0  0  0  0  0
    1.6672    0.3306   -1.1223 C   0  0  0  0  0  0  0  0  0  0  0  0
    0.3781    0.7215   -0.7976 O   0  0  0  0  0  0  0  0  0  0  0  0
   -0.1992   -0.1663    0.0565 C   0  0  0  0  0  0  0  0  0  0  0  0
   -0.3806   -1.6253   -0.3544 C   0  0  0  0  0  0  0  0  0  0  0  0
   -1.7496   -1.4189   -0.1785 O   0  0  0  0  0  0  0  0  0  0  0  0
   -1.6355   -0.1813    0.3942 C   0  0  0  0  0  0  0  0  0  0  0  0
   -2.5868    0.8799   -0.0335 C   0  0  0  0  0  0  0  0  0  0  0  0
   -0.6282    0.1469    1.4234 C   0  0  0  0  0  0  0  0  0  0  0  0
    2.8593    1.2953    0.3452 H   0  0  0  0  0  0  0  0  0  0  0  0
    1.9852   -0.1836    0.9731 H   0  0  0  0  0  0  0  0  0  0  0  0
    3.4577   -0.3153   -0.0938 H   0  0  0  0  0  0  0  0  0  0  0  0
    1.7356   -0.6359   -1.6216 H   0  0  0  0  0  0  0  0  0  0  0  0
    2.0748    1.0982   -1.8200 H   0  0  0  0  0  0  0  0  0  0  0  0
   -0.0145   -2.2846    0.4643 H   0  0  0  0  0  0  0  0  0  0  0  0
   -0.0487   -1.8642   -1.3649 H   0  0  0  0  0  0  0  0  0  0  0  0
   -3.6157    0.5763    0.2880 H   0  0  0  0  0  0  0  0  0  0  0  0
   -2.5681    0.9735   -1.1252 H   0  0  0  0  0  0  0  0  0  0  0  0
   -2.2897    1.8411    0.4253 H   0  0  0  0  0  0  0  0  0  0  0  0
   -0.6502    1.1774    1.8073 H   0  0  0  0  0  0  0  0  0  0  0  0
   -0.3349   -0.6070    2.2063 H   0  0  0  0  0  0  0  0  0  0  0  0
  1  2  1  0
  2  3  1  0
  3  4  1  0
  4  5  1  0
  5  6  1  0
  6  7  1  0
  7  8  1  0
  7  9  1  0
  7  4  1  0
  9  4  1  0
  1 10  1  0
  1 11  1  0
  1 12  1  0
  2 13  1  0
  2 14  1  0
  5 15  1  0
  5 16  1  0
  8 17  1  0
  8 18  1  0
  8 19  1  0
  9 20  1  0
  9 21  1  0
M  END
