
     RDKit          3D

 21 22  0  0  0  0  0  0  0  0999 V2000
    2.8984   -0.5070    0.0005 C   0  0  0  0  0  0  0  0  0  0  0  0
    1.5661    0.1593    0.1454 C   0  0  0  0  0  0  0  0  0  0  0  0
    0.5711   -0.4351   -0.6220 O   0  0  0  0  0  0  0  0  0  0  0  0
   -0.6251    0.2085   -0.4556 C   0  0  0  0  0  0  0  0  0  0  0  0
   -0.7039    1.6504   -0.8160 C   0  0  0  0  0  0  0  0  0  0  0  0
   -1.8492   -0.5380   -0.8803 C   0  0  0  0  0  0  0  0  0  0  0  0
   -1.6215   -1.4857    0.2428 C   0  0  0  0  0  0  0  0  0  0  0  0
   -1.4134   -0.1074    0.7680 C   0  0  0  0  0  0  0  0  0  0  0  0
   -2.5421    0.2508    0.0298 O   0  0  0  0  0  0  0  0  0  0  0  0
    3.0476   -0.9520   -1.0241 H   0  0  0  0  0  0  0  0  0  0  0  0
    3.6970    0.2501    0.1896 H   0  0  0  0  0  0  0  0  0  0  0  0
    3.0625   -1.2924    0.7958 H   0  0  0  0  0  0  0  0  0  0  0  0
    1.2497    0.0196    1.2207 H   0  0  0  0  0  0  0  0  0  0  0  0
    1.6891    1.2348   -0.0946 H   0  0  0  0  0  0  0  0  0  0  0  0
    0.2079    2.0992   -1.1989 H   0  0  0  0  0  0  0  0  0  0  0  0
   -1.5057    1.8091   -1.5949 H   0  0  0  0  0  0  0  0  0  0  0  0
   -1.0409    2.2806    0.0580 H   0  0  0  0  0  0  0  0  0  0  0  0
   -2.1350   -0.7503   -1.8244 H   0  0  0  0  0  0  0  0  0  0  0  0
   -2.5746   -1.9139    0.6029 H   0  0  0  0  0  0  0  0  0  0  0  0
   -0.7582   -2.1502    0.1960 H   0  0  0  0  0  0  0  0  0  0  0  0
   -1.2196    0.1697    1.7176 H   0  0  0  0  0  0  0  0  0  0  0  0
  1  2  1  0
  2  3  1  0
  3  4  1  0
  4  5  1  0
  4  6  1  0
  6  7  1  0
  7  8  1  0
  8  9  1  0
  8  4  1  0
  9  6  1  0
  1 10  1  0
  1 11  1  0
  1 12  1  0
  2 13  1  0
  2 14  1  0
  5 15  1  0
  5 16  1  0
  5 17  1  0
  6 18  1  0
  7 19  1  0
  7 20  1  0
  8 21  1  0
M  END
