
     RDKit          3D

 21 20  0  0  0  0  0  0  0  0999 V2000
    2.7763   -0.6743    0.0486 C   0  0  0  0  0  0  0  0  0  0  0  0
    1.5085    0.1519   -0.0559 C   0  0  0  0  0  0  0  0  0  0  0  0
    0.3774   -0.6316   -0.0710 O   0  0  0  0  0  0  0  0  0  0  0  0
   -0.7679    0.1204   -0.1637 C   0  0  0  0  0  0  0  0  0  0  0  0
   -0.8177    1.0530    1.0355 C   0  0  0  0  0  0  0  0  0  0  0  0
   -0.8272    0.9723   -1.3809 C   0  0  0  0  0  0  0  0  0  0  0  0
   -1.7965    1.7050   -1.5896 O   0  0  0  0  0  0  0  0  0  0  0  0
   -1.9435   -0.8387   -0.1525 C   0  0  0  0  0  0  0  0  0  0  0  0
   -1.9180   -1.5629    1.0442 O   0  0  0  0  0  0  0  0  0  0  0  0
    2.8299   -1.3386   -0.8432 H   0  0  0  0  0  0  0  0  0  0  0  0
    2.7890   -1.2915    0.9662 H   0  0  0  0  0  0  0  0  0  0  0  0
    3.6428    0.0121   -0.0236 H   0  0  0  0  0  0  0  0  0  0  0  0
    1.4427    0.8207    0.8473 H   0  0  0  0  0  0  0  0  0  0  0  0
    1.5673    0.7665   -0.9749 H   0  0  0  0  0  0  0  0  0  0  0  0
   -0.3224    0.6389    1.9166 H   0  0  0  0  0  0  0  0  0  0  0  0
   -0.2441    1.9660    0.7359 H   0  0  0  0  0  0  0  0  0  0  0  0
   -1.8544    1.4027    1.2158 H   0  0  0  0  0  0  0  0  0  0  0  0
   -0.0650    1.0188   -2.1465 H   0  0  0  0  0  0  0  0  0  0  0  0
   -2.8862   -0.2773   -0.2747 H   0  0  0  0  0  0  0  0  0  0  0  0
   -1.8181   -1.5053   -1.0301 H   0  0  0  0  0  0  0  0  0  0  0  0
   -1.6730   -2.5081    0.8963 H   0  0  0  0  0  0  0  0  0  0  0  0
  1  2  1  0
  2  3  1  0
  3  4  1  0
  4  5  1  0
  4  6  1  0
  6  7  2  0
  4  8  1  0
  8  9  1  0
  1 10  1  0
  1 11  1  0
  1 12  1  0
  2 13  1  0
  2 14  1  0
  5 15  1  0
  5 16  1  0
  5 17  1  0
  6 18  1  0
  8 19  1  0
  8 20  1  0
  9 21  1  0
M  END
