
     RDKit          3D

 27 26  0  0  0  0  0  0  0  0999 V2000
    3.5844   -0.1883    0.4881 C   0  0  0  0  0  0  0  0  0  0  0  0
    2.5497    0.8442    0.1004 C   0  0  0  0  0  0  0  0  0  0  0  0
    1.3581    0.2759   -0.2800 O   0  0  0  0  0  0  0  0  0  0  0  0
    0.8232   -0.4722    0.7449 C   0  0  0  0  0  0  0  0  0  0  0  0
   -0.4894   -1.1068    0.3463 C   0  0  0  0  0  0  0  0  0  0  0  0
   -1.5330   -0.1000   -0.0359 C   0  0  0  0  0  0  0  0  0  0  0  0
   -1.7913    0.8167    1.1611 C   0  0  0  0  0  0  0  0  0  0  0  0
   -1.1533    0.7665   -1.1860 C   0  0  0  0  0  0  0  0  0  0  0  0
   -2.8213   -0.8497   -0.3024 C   0  0  0  0  0  0  0  0  0  0  0  0
    3.3524   -1.1925    0.0774 H   0  0  0  0  0  0  0  0  0  0  0  0
    3.6208   -0.2176    1.6048 H   0  0  0  0  0  0  0  0  0  0  0  0
    4.5917    0.1647    0.1651 H   0  0  0  0  0  0  0  0  0  0  0  0
    2.3427    1.5584    0.9497 H   0  0  0  0  0  0  0  0  0  0  0  0
    2.9758    1.4592   -0.7301 H   0  0  0  0  0  0  0  0  0  0  0  0
    1.5246   -1.3009    0.9769 H   0  0  0  0  0  0  0  0  0  0  0  0
    0.6914    0.1312    1.6719 H   0  0  0  0  0  0  0  0  0  0  0  0
   -0.3172   -1.8371   -0.4465 H   0  0  0  0  0  0  0  0  0  0  0  0
   -0.8713   -1.6391    1.2535 H   0  0  0  0  0  0  0  0  0  0  0  0
   -0.9239    1.4535    1.3904 H   0  0  0  0  0  0  0  0  0  0  0  0
   -2.0410    0.1228    2.0058 H   0  0  0  0  0  0  0  0  0  0  0  0
   -2.7107    1.3687    0.9289 H   0  0  0  0  0  0  0  0  0  0  0  0
   -0.6717    0.2193   -2.0014 H   0  0  0  0  0  0  0  0  0  0  0  0
   -2.1097    1.1935   -1.6081 H   0  0  0  0  0  0  0  0  0  0  0  0
   -0.5738    1.6346   -0.8211 H   0  0  0  0  0  0  0  0  0  0  0  0
   -3.1522   -1.2646    0.6751 H   0  0  0  0  0  0  0  0  0  0  0  0
   -3.5684   -0.1278   -0.6861 H   0  0  0  0  0  0  0  0  0  0  0  0
   -2.6867   -1.7124   -0.9768 H   0  0  0  0  0  0  0  0  0  0  0  0
  1  2  1  0
  2  3  1  0
  3  4  1  0
  4  5  1  0
  5  6  1  0
  6  7  1  0
  6  8  1  0
  6  9  1  0
  1 10  1  0
  1 11  1  0
  1 12  1  0
  2 13  1  0
  2 14  1  0
  4 15  1  0
  4 16  1  0
  5 17  1  0
  5 18  1  0
  7 19  1  0
  7 20  1  0
  7 21  1  0
  8 22  1  0
  8 23  1  0
  8 24  1  0
  9 25  1  0
  9 26  1  0
  9 27  1  0
M  END
