
     RDKit          3D

 23 23  0  0  0  0  0  0  0  0999 V2000
    3.6431    0.2851    0.4454 C   0  0  0  0  0  0  0  0  0  0  0  0
    2.1174    0.1525    0.5364 C   0  0  0  0  0  0  0  0  0  0  0  0
    1.7519   -0.7925   -0.3827 O   0  0  0  0  0  0  0  0  0  0  0  0
    0.4064   -1.0896   -0.4569 C   0  0  0  0  0  0  0  0  0  0  0  0
   -0.3733    0.1244   -0.8167 C   0  0  0  0  0  0  0  0  0  0  0  0
   -1.8563   -0.1374   -0.9285 C   0  0  0  0  0  0  0  0  0  0  0  0
   -2.5257   -0.6440    0.3044 C   0  0  0  0  0  0  0  0  0  0  0  0
   -2.5633    0.6661    0.7838 O   0  0  0  0  0  0  0  0  0  0  0  0
   -2.6401    1.0983   -0.5425 C   0  0  0  0  0  0  0  0  0  0  0  0
    3.9681    0.9596    1.2628 H   0  0  0  0  0  0  0  0  0  0  0  0
    3.8395    0.7197   -0.5671 H   0  0  0  0  0  0  0  0  0  0  0  0
    4.0840   -0.7211    0.5144 H   0  0  0  0  0  0  0  0  0  0  0  0
    1.7374    1.1523    0.2185 H   0  0  0  0  0  0  0  0  0  0  0  0
    1.7902   -0.0526    1.5723 H   0  0  0  0  0  0  0  0  0  0  0  0
    0.1010   -1.4796    0.5592 H   0  0  0  0  0  0  0  0  0  0  0  0
    0.3120   -1.9116   -1.2109 H   0  0  0  0  0  0  0  0  0  0  0  0
   -0.0387    0.5482   -1.7820 H   0  0  0  0  0  0  0  0  0  0  0  0
   -0.2228    0.9037   -0.0396 H   0  0  0  0  0  0  0  0  0  0  0  0
   -2.2067   -0.5286   -1.8896 H   0  0  0  0  0  0  0  0  0  0  0  0
   -1.9403   -1.3532    0.9231 H   0  0  0  0  0  0  0  0  0  0  0  0
   -3.5601   -0.9716    0.0755 H   0  0  0  0  0  0  0  0  0  0  0  0
   -2.1355    2.0592   -0.7561 H   0  0  0  0  0  0  0  0  0  0  0  0
   -3.6884    1.0126   -0.9097 H   0  0  0  0  0  0  0  0  0  0  0  0
  1  2  1  0
  2  3  1  0
  3  4  1  0
  4  5  1  0
  5  6  1  0
  6  7  1  0
  7  8  1  0
  8  9  1  0
  9  6  1  0
  1 10  1  0
  1 11  1  0
  1 12  1  0
  2 13  1  0
  2 14  1  0
  4 15  1  0
  4 16  1  0
  5 17  1  0
  5 18  1  0
  6 19  1  0
  7 20  1  0
  7 21  1  0
  9 22  1  0
  9 23  1  0
M  END
