
     RDKit          3D

 21 20  0  0  0  0  0  0  0  0999 V2000
   -3.5957    0.3678   -0.3282 C   0  0  0  0  0  0  0  0  0  0  0  0
   -2.0648    0.3812   -0.4483 C   0  0  0  0  0  0  0  0  0  0  0  0
   -1.5202    0.0895    0.7784 O   0  0  0  0  0  0  0  0  0  0  0  0
   -0.1529    0.0706    0.8344 C   0  0  0  0  0  0  0  0  0  0  0  0
    0.4792   -0.9497   -0.0857 C   0  0  0  0  0  0  0  0  0  0  0  0
    1.9846   -0.8229    0.1203 C   0  0  0  0  0  0  0  0  0  0  0  0
    2.3989    0.5109   -0.2164 O   0  0  0  0  0  0  0  0  0  0  0  0
    3.7262    0.8627   -0.1075 C   0  0  0  0  0  0  0  0  0  0  0  0
    4.5334   -0.0279    0.2933 O   0  0  0  0  0  0  0  0  0  0  0  0
   -3.9674   -0.5757   -0.7730 H   0  0  0  0  0  0  0  0  0  0  0  0
   -3.8674    0.4077    0.7636 H   0  0  0  0  0  0  0  0  0  0  0  0
   -4.0443    1.2533   -0.8192 H   0  0  0  0  0  0  0  0  0  0  0  0
   -1.7637    1.3786   -0.8132 H   0  0  0  0  0  0  0  0  0  0  0  0
   -1.7672   -0.3707   -1.2149 H   0  0  0  0  0  0  0  0  0  0  0  0
    0.2824    1.0970    0.6499 H   0  0  0  0  0  0  0  0  0  0  0  0
    0.1195   -0.2095    1.8887 H   0  0  0  0  0  0  0  0  0  0  0  0
    0.2005   -1.9538    0.2902 H   0  0  0  0  0  0  0  0  0  0  0  0
    0.1993   -0.8294   -1.1383 H   0  0  0  0  0  0  0  0  0  0  0  0
    2.1584   -0.9489    1.2093 H   0  0  0  0  0  0  0  0  0  0  0  0
    2.5542   -1.5818   -0.4188 H   0  0  0  0  0  0  0  0  0  0  0  0
    4.1072    1.8512   -0.3450 H   0  0  0  0  0  0  0  0  0  0  0  0
  1  2  1  0
  2  3  1  0
  3  4  1  0
  4  5  1  0
  5  6  1  0
  6  7  1  0
  7  8  1  0
  8  9  2  0
  1 10  1  0
  1 11  1  0
  1 12  1  0
  2 13  1  0
  2 14  1  0
  4 15  1  0
  4 16  1  0
  5 17  1  0
  5 18  1  0
  6 19  1  0
  6 20  1  0
  8 21  1  0
M  END
