
     RDKit          3D

 21 21  0  0  0  0  0  0  0  0999 V2000
   -2.9968    0.1073    0.9540 C   0  0  0  0  0  0  0  0  0  0  0  0
   -1.7236   -0.3221    0.2193 C   0  0  0  0  0  0  0  0  0  0  0  0
   -1.4091    0.6341   -0.7445 O   0  0  0  0  0  0  0  0  0  0  0  0
   -0.2729    0.2698   -1.4140 C   0  0  0  0  0  0  0  0  0  0  0  0
    0.9149    0.1377   -0.4872 C   0  0  0  0  0  0  0  0  0  0  0  0
    1.6324   -0.9569   -0.2860 C   0  0  0  0  0  0  0  0  0  0  0  0
    2.6965   -0.6318    0.6998 C   0  0  0  0  0  0  0  0  0  0  0  0
    2.7502    0.7586    0.6598 O   0  0  0  0  0  0  0  0  0  0  0  0
    1.4895    1.1998    0.3680 C   0  0  0  0  0  0  0  0  0  0  0  0
   -3.8474    0.0027    0.2550 H   0  0  0  0  0  0  0  0  0  0  0  0
   -3.1491   -0.6020    1.7798 H   0  0  0  0  0  0  0  0  0  0  0  0
   -2.8683    1.1569    1.2766 H   0  0  0  0  0  0  0  0  0  0  0  0
   -0.9006   -0.3252    0.9633 H   0  0  0  0  0  0  0  0  0  0  0  0
   -1.8497   -1.3262   -0.2310 H   0  0  0  0  0  0  0  0  0  0  0  0
   -0.4256   -0.6335   -2.0013 H   0  0  0  0  0  0  0  0  0  0  0  0
   -0.0053    1.0829   -2.1335 H   0  0  0  0  0  0  0  0  0  0  0  0
    1.4427   -1.9129   -0.7786 H   0  0  0  0  0  0  0  0  0  0  0  0
    2.4976   -1.0083    1.7042 H   0  0  0  0  0  0  0  0  0  0  0  0
    3.6514   -1.0450    0.2757 H   0  0  0  0  0  0  0  0  0  0  0  0
    0.9098    1.2203    1.3365 H   0  0  0  0  0  0  0  0  0  0  0  0
    1.4635    2.1937   -0.1164 H   0  0  0  0  0  0  0  0  0  0  0  0
  1  2  1  0
  2  3  1  0
  3  4  1  0
  4  5  1  0
  5  6  2  0
  6  7  1  0
  7  8  1  0
  8  9  1  0
  9  5  1  0
  1 10  1  0
  1 11  1  0
  1 12  1  0
  2 13  1  0
  2 14  1  0
  4 15  1  0
  4 16  1  0
  6 17  1  0
  7 18  1  0
  7 19  1  0
  9 20  1  0
  9 21  1  0
M  END
