
     RDKit          3D

 21 22  0  0  0  0  0  0  0  0999 V2000
   -3.6162   -0.2441   -0.1606 C   0  0  0  0  0  0  0  0  0  0  0  0
   -2.2095   -0.6296   -0.5728 C   0  0  0  0  0  0  0  0  0  0  0  0
   -1.3212    0.0679    0.2058 O   0  0  0  0  0  0  0  0  0  0  0  0
   -0.0059   -0.1625   -0.0361 C   0  0  0  0  0  0  0  0  0  0  0  0
    0.9273   -0.3006    1.1114 C   0  0  0  0  0  0  0  0  0  0  0  0
    0.8225    1.0682    1.2903 O   0  0  0  0  0  0  0  0  0  0  0  0
    0.9344    0.9838   -0.0893 C   0  0  0  0  0  0  0  0  0  0  0  0
    2.0495    0.0096    0.1584 C   0  0  0  0  0  0  0  0  0  0  0  0
    3.2992    0.5650    0.7521 C   0  0  0  0  0  0  0  0  0  0  0  0
   -3.8868    0.7032   -0.6927 H   0  0  0  0  0  0  0  0  0  0  0  0
   -4.3456   -1.0514   -0.3737 H   0  0  0  0  0  0  0  0  0  0  0  0
   -3.5762    0.0136    0.9176 H   0  0  0  0  0  0  0  0  0  0  0  0
   -2.0715   -1.7146   -0.3980 H   0  0  0  0  0  0  0  0  0  0  0  0
   -2.1365   -0.3762   -1.6639 H   0  0  0  0  0  0  0  0  0  0  0  0
    0.1778   -0.8906   -0.8384 H   0  0  0  0  0  0  0  0  0  0  0  0
    0.9355   -1.0071    1.8293 H   0  0  0  0  0  0  0  0  0  0  0  0
    0.9465    1.7552   -0.7402 H   0  0  0  0  0  0  0  0  0  0  0  0
    2.2128   -0.7564   -0.6004 H   0  0  0  0  0  0  0  0  0  0  0  0
    3.5264    1.5969    0.4653 H   0  0  0  0  0  0  0  0  0  0  0  0
    4.1383   -0.1419    0.5022 H   0  0  0  0  0  0  0  0  0  0  0  0
    3.1993    0.5114    1.8649 H   0  0  0  0  0  0  0  0  0  0  0  0
  1  2  1  0
  2  3  1  0
  3  4  1  0
  4  5  1  0
  5  6  1  0
  6  7  1  0
  7  8  1  0
  8  9  1  0
  7  4  1  0
  8  5  1  0
  1 10  1  0
  1 11  1  0
  1 12  1  0
  2 13  1  0
  2 14  1  0
  4 15  1  0
  5 16  1  0
  7 17  1  0
  8 18  1  0
  9 19  1  0
  9 20  1  0
  9 21  1  0
M  END
