
     RDKit          3D

 21 21  0  0  0  0  0  0  0  0999 V2000
    3.8922    0.0410   -0.9533 C   0  0  0  0  0  0  0  0  0  0  0  0
    3.0254   -0.7225    0.0147 C   0  0  0  0  0  0  0  0  0  0  0  0
    1.6986   -0.4020   -0.1951 O   0  0  0  0  0  0  0  0  0  0  0  0
    0.8442   -1.0785    0.6724 C   0  0  0  0  0  0  0  0  0  0  0  0
   -0.5524   -0.7162    0.4234 C   0  0  0  0  0  0  0  0  0  0  0  0
   -1.7115   -0.3958    0.2248 C   0  0  0  0  0  0  0  0  0  0  0  0
   -3.0990    0.0119   -0.0105 C   0  0  0  0  0  0  0  0  0  0  0  0
   -3.5625    1.1616    0.8211 C   0  0  0  0  0  0  0  0  0  0  0  0
   -3.3191    1.2945   -0.6822 C   0  0  0  0  0  0  0  0  0  0  0  0
    3.9547    1.0956   -0.6327 H   0  0  0  0  0  0  0  0  0  0  0  0
    3.4274    0.0556   -1.9683 H   0  0  0  0  0  0  0  0  0  0  0  0
    4.9201   -0.4155   -1.0280 H   0  0  0  0  0  0  0  0  0  0  0  0
    3.3231   -0.4843    1.0532 H   0  0  0  0  0  0  0  0  0  0  0  0
    3.1192   -1.8270   -0.2001 H   0  0  0  0  0  0  0  0  0  0  0  0
    1.0697   -0.7773    1.7094 H   0  0  0  0  0  0  0  0  0  0  0  0
    1.0204   -2.1671    0.5580 H   0  0  0  0  0  0  0  0  0  0  0  0
   -3.8383   -0.8146   -0.2158 H   0  0  0  0  0  0  0  0  0  0  0  0
   -4.6055    1.0966    1.1840 H   0  0  0  0  0  0  0  0  0  0  0  0
   -2.8265    1.6831    1.4711 H   0  0  0  0  0  0  0  0  0  0  0  0
   -2.4998    1.9636   -0.9979 H   0  0  0  0  0  0  0  0  0  0  0  0
   -4.2802    1.3969   -1.2630 H   0  0  0  0  0  0  0  0  0  0  0  0
  1  2  1  0
  2  3  1  0
  3  4  1  0
  4  5  1  0
  5  6  3  0
  6  7  1  0
  7  8  1  0
  8  9  1  0
  9  7  1  0
  1 10  1  0
  1 11  1  0
  1 12  1  0
  2 13  1  0
  2 14  1  0
  4 15  1  0
  4 16  1  0
  7 17  1  0
  8 18  1  0
  8 19  1  0
  9 20  1  0
  9 21  1  0
M  END
