
     RDKit          3D

 23 24  0  0  0  0  0  0  0  0999 V2000
    3.1927    0.6892    0.4666 C   0  0  0  0  0  0  0  0  0  0  0  0
    2.0091   -0.1947    0.0632 C   0  0  0  0  0  0  0  0  0  0  0  0
    0.8550    0.4769    0.4161 O   0  0  0  0  0  0  0  0  0  0  0  0
   -0.2216   -0.0964    0.1615 C   0  0  0  0  0  0  0  0  0  0  0  0
   -0.6752   -1.4551    0.6950 C   0  0  0  0  0  0  0  0  0  0  0  0
   -1.8089   -0.9990   -0.1912 C   0  0  0  0  0  0  0  0  0  0  0  0
   -0.7236   -0.6118   -1.1617 C   0  0  0  0  0  0  0  0  0  0  0  0
   -1.6192    0.3466    0.4292 C   0  0  0  0  0  0  0  0  0  0  0  0
   -2.1070    1.5271   -0.3544 C   0  0  0  0  0  0  0  0  0  0  0  0
    2.8618    1.7443    0.4583 H   0  0  0  0  0  0  0  0  0  0  0  0
    3.9966    0.4813   -0.2545 H   0  0  0  0  0  0  0  0  0  0  0  0
    3.5264    0.3282    1.4481 H   0  0  0  0  0  0  0  0  0  0  0  0
    2.0691   -1.1703    0.5988 H   0  0  0  0  0  0  0  0  0  0  0  0
    2.0711   -0.4139   -1.0253 H   0  0  0  0  0  0  0  0  0  0  0  0
   -0.0976   -2.3081    0.3138 H   0  0  0  0  0  0  0  0  0  0  0  0
   -0.9574   -1.4570    1.7489 H   0  0  0  0  0  0  0  0  0  0  0  0
   -2.6567   -1.4900   -0.3882 H   0  0  0  0  0  0  0  0  0  0  0  0
   -0.9815    0.1220   -1.9186 H   0  0  0  0  0  0  0  0  0  0  0  0
   -0.1599   -1.5053   -1.4685 H   0  0  0  0  0  0  0  0  0  0  0  0
   -1.8138    0.3856    1.5279 H   0  0  0  0  0  0  0  0  0  0  0  0
   -1.2876    2.0844   -0.8461 H   0  0  0  0  0  0  0  0  0  0  0  0
   -2.8902    1.2853   -1.0948 H   0  0  0  0  0  0  0  0  0  0  0  0
   -2.5816    2.2306    0.3759 H   0  0  0  0  0  0  0  0  0  0  0  0
  1  2  1  0
  2  3  1  0
  3  4  1  0
  4  5  1  0
  5  6  1  0
  6  7  1  0
  6  8  1  0
  8  9  1  0
  7  4  1  0
  8  4  1  0
  1 10  1  0
  1 11  1  0
  1 12  1  0
  2 13  1  0
  2 14  1  0
  5 15  1  0
  5 16  1  0
  6 17  1  0
  7 18  1  0
  7 19  1  0
  8 20  1  0
  9 21  1  0
  9 22  1  0
  9 23  1  0
M  END
