
     RDKit          3D

 21 22  0  0  0  0  0  0  0  0999 V2000
    2.2396   -0.8405    0.1195 C   0  0  0  0  0  0  0  0  0  0  0  0
    1.7451    0.3960    0.7642 C   0  0  0  0  0  0  0  0  0  0  0  0
    0.4478    0.5378    0.9387 O   0  0  0  0  0  0  0  0  0  0  0  0
   -0.4044    0.6919   -0.0907 C   0  0  0  0  0  0  0  0  0  0  0  0
   -0.5686   -0.4635   -0.9780 C   0  0  0  0  0  0  0  0  0  0  0  0
   -1.3578   -1.3348    0.0324 C   0  0  0  0  0  0  0  0  0  0  0  0
   -1.8182   -0.4106    1.0178 O   0  0  0  0  0  0  0  0  0  0  0  0
   -1.9565    0.7203    0.2566 C   0  0  0  0  0  0  0  0  0  0  0  0
   -1.2205    1.8844   -0.0003 C   0  0  0  0  0  0  0  0  0  0  0  0
    3.2564   -1.0717    0.6075 H   0  0  0  0  0  0  0  0  0  0  0  0
    1.6345   -1.7427    0.2476 H   0  0  0  0  0  0  0  0  0  0  0  0
    2.4506   -0.6752   -0.9454 H   0  0  0  0  0  0  0  0  0  0  0  0
    2.1736    1.2637    0.1095 H   0  0  0  0  0  0  0  0  0  0  0  0
    2.3010    0.5758    1.7591 H   0  0  0  0  0  0  0  0  0  0  0  0
    0.2877   -0.9634   -1.3600 H   0  0  0  0  0  0  0  0  0  0  0  0
   -1.3051   -0.2052   -1.8116 H   0  0  0  0  0  0  0  0  0  0  0  0
   -0.6879   -2.0281    0.5645 H   0  0  0  0  0  0  0  0  0  0  0  0
   -2.2057   -1.8201   -0.4762 H   0  0  0  0  0  0  0  0  0  0  0  0
   -2.6604    0.4385   -0.5911 H   0  0  0  0  0  0  0  0  0  0  0  0
   -1.0141    2.6082    0.8065 H   0  0  0  0  0  0  0  0  0  0  0  0
   -1.3372    2.4393   -0.9706 H   0  0  0  0  0  0  0  0  0  0  0  0
  1  2  1  0
  2  3  1  0
  3  4  1  0
  4  5  1  0
  5  6  1  0
  6  7  1  0
  7  8  1  0
  8  9  1  0
  8  4  1  0
  9  4  1  0
  1 10  1  0
  1 11  1  0
  1 12  1  0
  2 13  1  0
  2 14  1  0
  5 15  1  0
  5 16  1  0
  6 17  1  0
  6 18  1  0
  8 19  1  0
  9 20  1  0
  9 21  1  0
M  END
