
     RDKit          3D

 22 21  0  0  0  0  0  0  0  0999 V2000
    3.0128    0.3676   -0.0030 C   0  0  0  0  0  0  0  0  0  0  0  0
    2.3176   -0.9166   -0.2063 C   0  0  0  0  0  0  0  0  0  0  0  0
    0.9544   -0.9055   -0.1221 O   0  0  0  0  0  0  0  0  0  0  0  0
    0.4270   -0.4968    1.0715 C   0  0  0  0  0  0  0  0  0  0  0  0
   -1.0826   -0.5542    0.9645 C   0  0  0  0  0  0  0  0  0  0  0  0
   -1.5742    0.3646   -0.1579 C   0  0  0  0  0  0  0  0  0  0  0  0
   -3.0584    0.3307   -0.2894 C   0  0  0  0  0  0  0  0  0  0  0  0
   -1.1515    1.6698    0.0638 O   0  0  0  0  0  0  0  0  0  0  0  0
    3.5614    0.6972   -0.9328 H   0  0  0  0  0  0  0  0  0  0  0  0
    2.3742    1.2226    0.2774 H   0  0  0  0  0  0  0  0  0  0  0  0
    3.8124    0.3105    0.7804 H   0  0  0  0  0  0  0  0  0  0  0  0
    2.6935   -1.6513    0.5584 H   0  0  0  0  0  0  0  0  0  0  0  0
    2.5985   -1.3516   -1.1877 H   0  0  0  0  0  0  0  0  0  0  0  0
    0.6862    0.5743    1.2307 H   0  0  0  0  0  0  0  0  0  0  0  0
    0.7241   -1.1350    1.9158 H   0  0  0  0  0  0  0  0  0  0  0  0
   -1.4489   -1.5593    0.7116 H   0  0  0  0  0  0  0  0  0  0  0  0
   -1.5895   -0.2453    1.8937 H   0  0  0  0  0  0  0  0  0  0  0  0
   -1.0659    0.0212   -1.0994 H   0  0  0  0  0  0  0  0  0  0  0  0
   -3.4789   -0.6707   -0.0386 H   0  0  0  0  0  0  0  0  0  0  0  0
   -3.3133    0.5778   -1.3439 H   0  0  0  0  0  0  0  0  0  0  0  0
   -3.5504    1.0821    0.3688 H   0  0  0  0  0  0  0  0  0  0  0  0
   -1.8485    2.2682   -0.2846 H   0  0  0  0  0  0  0  0  0  0  0  0
  1  2  1  0
  2  3  1  0
  3  4  1  0
  4  5  1  0
  5  6  1  0
  6  7  1  0
  6  8  1  0
  1  9  1  0
  1 10  1  0
  1 11  1  0
  2 12  1  0
  2 13  1  0
  4 14  1  0
  4 15  1  0
  5 16  1  0
  5 17  1  0
  6 18  1  0
  7 19  1  0
  7 20  1  0
  7 21  1  0
  8 22  1  0
M  END
