
     RDKit          3D

 23 22  0  0  0  0  0  0  0  0999 V2000
    4.0164    1.1224    1.4250 C   0  0  0  0  0  0  0  0  0  0  0  0
    2.7434    0.4664    1.9352 C   0  0  0  0  0  0  0  0  0  0  0  0
    1.7425    0.5140    0.9654 O   0  0  0  0  0  0  0  0  0  0  0  0
    0.6128   -0.1123    1.5270 C   0  0  0  0  0  0  0  0  0  0  0  0
   -0.4351   -0.0619    0.5054 C   0  0  0  0  0  0  0  0  0  0  0  0
   -1.3071   -0.0410   -0.3398 C   0  0  0  0  0  0  0  0  0  0  0  0
   -2.3509    0.0094   -1.3554 C   0  0  0  0  0  0  0  0  0  0  0  0
   -3.5339   -0.8669   -0.9999 C   0  0  0  0  0  0  0  0  0  0  0  0
   -1.7608   -0.4830   -2.6573 C   0  0  0  0  0  0  0  0  0  0  0  0
    3.9336    1.3170    0.3154 H   0  0  0  0  0  0  0  0  0  0  0  0
    4.8432    0.3982    1.5891 H   0  0  0  0  0  0  0  0  0  0  0  0
    4.1786    2.0315    2.0009 H   0  0  0  0  0  0  0  0  0  0  0  0
    2.3638    0.9897    2.8332 H   0  0  0  0  0  0  0  0  0  0  0  0
    2.9120   -0.6253    2.1525 H   0  0  0  0  0  0  0  0  0  0  0  0
    0.8278   -1.1366    1.8762 H   0  0  0  0  0  0  0  0  0  0  0  0
    0.2998    0.4503    2.4507 H   0  0  0  0  0  0  0  0  0  0  0  0
   -2.7193    1.0306   -1.5417 H   0  0  0  0  0  0  0  0  0  0  0  0
   -3.1351   -1.6628   -0.3224 H   0  0  0  0  0  0  0  0  0  0  0  0
   -3.9861   -1.2927   -1.9212 H   0  0  0  0  0  0  0  0  0  0  0  0
   -4.2513   -0.2133   -0.4429 H   0  0  0  0  0  0  0  0  0  0  0  0
   -1.2442   -1.4597   -2.5417 H   0  0  0  0  0  0  0  0  0  0  0  0
   -2.6111   -0.6739   -3.3453 H   0  0  0  0  0  0  0  0  0  0  0  0
   -1.1391    0.2998   -3.1212 H   0  0  0  0  0  0  0  0  0  0  0  0
  1  2  1  0
  2  3  1  0
  3  4  1  0
  4  5  1  0
  5  6  3  0
  6  7  1  0
  7  8  1  0
  7  9  1  0
  1 10  1  0
  1 11  1  0
  1 12  1  0
  2 13  1  0
  2 14  1  0
  4 15  1  0
  4 16  1  0
  7 17  1  0
  8 18  1  0
  8 19  1  0
  8 20  1  0
  9 21  1  0
  9 22  1  0
  9 23  1  0
M  END
