
     RDKit          3D

 21 22  0  0  0  0  0  0  0  0999 V2000
   -3.2240   -0.0640   -0.3116 C   0  0  0  0  0  0  0  0  0  0  0  0
   -1.7681   -0.4081   -0.2064 C   0  0  0  0  0  0  0  0  0  0  0  0
   -0.9548    0.7040   -0.3094 O   0  0  0  0  0  0  0  0  0  0  0  0
    0.2707    0.4768   -0.2288 C   0  0  0  0  0  0  0  0  0  0  0  0
    1.0207   -0.1475    0.9272 C   0  0  0  0  0  0  0  0  0  0  0  0
    2.0815    0.0628   -0.1201 C   0  0  0  0  0  0  0  0  0  0  0  0
    3.3033   -0.2032   -0.0533 O   0  0  0  0  0  0  0  0  0  0  0  0
    1.0700   -0.4820   -1.1040 C   0  0  0  0  0  0  0  0  0  0  0  0
    1.4289    1.3986   -0.3596 C   0  0  0  0  0  0  0  0  0  0  0  0
   -3.5905   -0.2612   -1.3386 H   0  0  0  0  0  0  0  0  0  0  0  0
   -3.4042    0.9985   -0.0515 H   0  0  0  0  0  0  0  0  0  0  0  0
   -3.7751   -0.6668    0.4300 H   0  0  0  0  0  0  0  0  0  0  0  0
   -1.5072   -1.0900   -1.0301 H   0  0  0  0  0  0  0  0  0  0  0  0
   -1.5608   -0.9650    0.7420 H   0  0  0  0  0  0  0  0  0  0  0  0
    1.0904    0.4691    1.8302 H   0  0  0  0  0  0  0  0  0  0  0  0
    0.6950   -1.2047    1.0725 H   0  0  0  0  0  0  0  0  0  0  0  0
    3.5737   -0.8840    0.5898 H   0  0  0  0  0  0  0  0  0  0  0  0
    1.2591   -0.1003   -2.1198 H   0  0  0  0  0  0  0  0  0  0  0  0
    0.8176   -1.5366   -0.9983 H   0  0  0  0  0  0  0  0  0  0  0  0
    1.6113    1.7528   -1.3962 H   0  0  0  0  0  0  0  0  0  0  0  0
    1.5627    2.1511    0.4363 H   0  0  0  0  0  0  0  0  0  0  0  0
  1  2  1  0
  2  3  1  0
  3  4  1  0
  4  5  1  0
  5  6  1  0
  6  7  1  0
  6  8  1  0
  6  9  1  0
  8  4  1  0
  9  4  1  0
  1 10  1  0
  1 11  1  0
  1 12  1  0
  2 13  1  0
  2 14  1  0
  5 15  1  0
  5 16  1  0
  7 17  1  0
  8 18  1  0
  8 19  1  0
  9 20  1  0
  9 21  1  0
M  END
