
     RDKit          3D

 17 17  0  0  0  0  0  0  0  0999 V2000
    2.7549   -0.4097    0.2489 C   0  0  0  0  0  0  0  0  0  0  0  0
    1.4542   -0.4787   -0.5277 C   0  0  0  0  0  0  0  0  0  0  0  0
    0.4305   -0.2393    0.3357 O   0  0  0  0  0  0  0  0  0  0  0  0
   -0.8323   -0.2646   -0.2091 C   0  0  0  0  0  0  0  0  0  0  0  0
   -2.0509   -0.5395    0.5554 C   0  0  0  0  0  0  0  0  0  0  0  0
   -1.7231    0.8929    0.2859 C   0  0  0  0  0  0  0  0  0  0  0  0
   -2.3807    1.5992   -0.7047 O   0  0  0  0  0  0  0  0  0  0  0  0
    3.5206   -1.0784   -0.1901 H   0  0  0  0  0  0  0  0  0  0  0  0
    2.5506   -0.6374    1.3050 H   0  0  0  0  0  0  0  0  0  0  0  0
    3.1233    0.6561    0.2092 H   0  0  0  0  0  0  0  0  0  0  0  0
    1.4392   -1.4613   -1.0273 H   0  0  0  0  0  0  0  0  0  0  0  0
    1.5188    0.2837   -1.3316 H   0  0  0  0  0  0  0  0  0  0  0  0
   -0.8458   -0.4812   -1.3011 H   0  0  0  0  0  0  0  0  0  0  0  0
   -2.0473   -0.8997    1.5995 H   0  0  0  0  0  0  0  0  0  0  0  0
   -2.9289   -0.9205   -0.0165 H   0  0  0  0  0  0  0  0  0  0  0  0
   -1.3845    1.4693    1.1549 H   0  0  0  0  0  0  0  0  0  0  0  0
   -2.5984    2.5092   -0.3865 H   0  0  0  0  0  0  0  0  0  0  0  0
  1  2  1  0
  2  3  1  0
  3  4  1  0
  4  5  1  0
  5  6  1  0
  6  7  1  0
  6  4  1  0
  1  8  1  0
  1  9  1  0
  1 10  1  0
  2 11  1  0
  2 12  1  0
  4 13  1  0
  5 14  1  0
  5 15  1  0
  6 16  1  0
  7 17  1  0
M  END
