
     RDKit          3D

 18 19  0  0  0  0  0  0  0  0999 V2000
    2.7597   -0.4431   -0.3414 C   0  0  0  0  0  0  0  0  0  0  0  0
    1.6767    0.4062    0.2849 C   0  0  0  0  0  0  0  0  0  0  0  0
    0.4711   -0.1920    0.0240 O   0  0  0  0  0  0  0  0  0  0  0  0
   -0.6260    0.4658    0.5327 C   0  0  0  0  0  0  0  0  0  0  0  0
   -1.8021    0.5960   -0.4457 C   0  0  0  0  0  0  0  0  0  0  0  0
   -2.5258   -0.4127    0.4595 C   0  0  0  0  0  0  0  0  0  0  0  0
   -1.8644   -1.6527    0.4656 O   0  0  0  0  0  0  0  0  0  0  0  0
   -1.4949   -0.4937    1.3068 C   0  0  0  0  0  0  0  0  0  0  0  0
    2.9042   -1.3372    0.3195 H   0  0  0  0  0  0  0  0  0  0  0  0
    2.3374   -0.8406   -1.2891 H   0  0  0  0  0  0  0  0  0  0  0  0
    3.6971    0.1192   -0.5041 H   0  0  0  0  0  0  0  0  0  0  0  0
    1.6854    1.3872   -0.2507 H   0  0  0  0  0  0  0  0  0  0  0  0
    1.8782    0.5703    1.3607 H   0  0  0  0  0  0  0  0  0  0  0  0
   -0.4480    1.3875    1.0885 H   0  0  0  0  0  0  0  0  0  0  0  0
   -1.5306    0.1162   -1.3857 H   0  0  0  0  0  0  0  0  0  0  0  0
   -2.2630    1.5784   -0.4792 H   0  0  0  0  0  0  0  0  0  0  0  0
   -3.6101   -0.4181    0.4735 H   0  0  0  0  0  0  0  0  0  0  0  0
   -1.2449   -0.8368    2.2934 H   0  0  0  0  0  0  0  0  0  0  0  0
  1  2  1  0
  2  3  1  0
  3  4  1  0
  4  5  1  0
  5  6  1  0
  6  7  1  0
  7  8  1  0
  8  4  1  0
  8  6  1  0
  1  9  1  0
  1 10  1  0
  1 11  1  0
  2 12  1  0
  2 13  1  0
  4 14  1  0
  5 15  1  0
  5 16  1  0
  6 17  1  0
  8 18  1  0
M  END
