
     RDKit          3D

 22 22  0  0  0  0  0  0  0  0999 V2000
    2.6647    0.0521   -0.5153 C   0  0  0  0  0  0  0  0  0  0  0  0
    1.8064    0.9073    0.3901 C   0  0  0  0  0  0  0  0  0  0  0  0
    1.0445    0.2116    1.2783 O   0  0  0  0  0  0  0  0  0  0  0  0
    0.1512   -0.6573    0.7895 C   0  0  0  0  0  0  0  0  0  0  0  0
   -0.9871   -0.1780   -0.0534 C   0  0  0  0  0  0  0  0  0  0  0  0
   -0.7603    0.5346   -1.3648 C   0  0  0  0  0  0  0  0  0  0  0  0
   -2.2863    0.2054    0.6226 C   0  0  0  0  0  0  0  0  0  0  0  0
   -2.2167   -1.1147   -0.0067 C   0  0  0  0  0  0  0  0  0  0  0  0
    2.5582   -1.0314   -0.3385 H   0  0  0  0  0  0  0  0  0  0  0  0
    3.7321    0.2959   -0.3116 H   0  0  0  0  0  0  0  0  0  0  0  0
    2.5352    0.3251   -1.6030 H   0  0  0  0  0  0  0  0  0  0  0  0
    1.1711    1.5575   -0.2267 H   0  0  0  0  0  0  0  0  0  0  0  0
    2.4928    1.6191    0.9626 H   0  0  0  0  0  0  0  0  0  0  0  0
   -0.3338   -1.2679    1.6194 H   0  0  0  0  0  0  0  0  0  0  0  0
    0.6467   -1.4631    0.1657 H   0  0  0  0  0  0  0  0  0  0  0  0
   -0.9231    1.6037   -1.2145 H   0  0  0  0  0  0  0  0  0  0  0  0
   -1.5743    0.1974   -2.1017 H   0  0  0  0  0  0  0  0  0  0  0  0
    0.1628    0.2538   -1.8896 H   0  0  0  0  0  0  0  0  0  0  0  0
   -2.2068    0.2278    1.7293 H   0  0  0  0  0  0  0  0  0  0  0  0
   -2.8501    1.0613    0.2140 H   0  0  0  0  0  0  0  0  0  0  0  0
   -2.6726   -1.3199   -1.0058 H   0  0  0  0  0  0  0  0  0  0  0  0
   -2.1547   -2.0204    0.6164 H   0  0  0  0  0  0  0  0  0  0  0  0
  1  2  1  0
  2  3  1  0
  3  4  1  0
  4  5  1  0
  5  6  1  0
  5  7  1  0
  7  8  1  0
  8  5  1  0
  1  9  1  0
  1 10  1  0
  1 11  1  0
  2 12  1  0
  2 13  1  0
  4 14  1  0
  4 15  1  0
  6 16  1  0
  6 17  1  0
  6 18  1  0
  7 19  1  0
  7 20  1  0
  8 21  1  0
  8 22  1  0
M  END
