
     RDKit          3D

 23 24  0  0  0  0  0  0  0  0999 V2000
    3.7022   -0.7854    0.6966 C   0  0  0  0  0  0  0  0  0  0  0  0
    2.4988    0.1059    0.5538 C   0  0  0  0  0  0  0  0  0  0  0  0
    1.4163   -0.5667   -0.0224 O   0  0  0  0  0  0  0  0  0  0  0  0
    0.3454    0.3599   -0.1090 C   0  0  0  0  0  0  0  0  0  0  0  0
   -0.8315   -0.3088   -0.7164 C   0  0  0  0  0  0  0  0  0  0  0  0
   -2.0891    0.4322   -0.9296 C   0  0  0  0  0  0  0  0  0  0  0  0
   -2.7212   -0.9576   -1.0124 C   0  0  0  0  0  0  0  0  0  0  0  0
   -1.7914   -1.0206    0.1807 C   0  0  0  0  0  0  0  0  0  0  0  0
   -2.3572    0.3111    0.5273 C   0  0  0  0  0  0  0  0  0  0  0  0
    4.6606   -0.2034    0.5678 H   0  0  0  0  0  0  0  0  0  0  0  0
    3.6826   -1.6241   -0.0486 H   0  0  0  0  0  0  0  0  0  0  0  0
    3.6999   -1.2032    1.7251 H   0  0  0  0  0  0  0  0  0  0  0  0
    2.2053    0.4764    1.5570 H   0  0  0  0  0  0  0  0  0  0  0  0
    2.7545    0.9310   -0.1482 H   0  0  0  0  0  0  0  0  0  0  0  0
    0.6687    1.2801   -0.6534 H   0  0  0  0  0  0  0  0  0  0  0  0
    0.0954    0.6639    0.9249 H   0  0  0  0  0  0  0  0  0  0  0  0
   -0.5576   -0.9358   -1.6099 H   0  0  0  0  0  0  0  0  0  0  0  0
   -2.3004    1.1839   -1.5533 H   0  0  0  0  0  0  0  0  0  0  0  0
   -2.3923   -1.4607   -1.9179 H   0  0  0  0  0  0  0  0  0  0  0  0
   -3.7630   -1.0199   -0.7093 H   0  0  0  0  0  0  0  0  0  0  0  0
   -1.6307   -1.8131    0.7628 H   0  0  0  0  0  0  0  0  0  0  0  0
   -3.4606    0.2336    0.6971 H   0  0  0  0  0  0  0  0  0  0  0  0
   -1.8346    0.9400    1.2376 H   0  0  0  0  0  0  0  0  0  0  0  0
  1  2  1  0
  2  3  1  0
  3  4  1  0
  4  5  1  0
  5  6  1  0
  6  7  1  0
  7  8  1  0
  8  9  1  0
  8  5  1  0
  9  6  1  0
  1 10  1  0
  1 11  1  0
  1 12  1  0
  2 13  1  0
  2 14  1  0
  4 15  1  0
  4 16  1  0
  5 17  1  0
  6 18  1  0
  7 19  1  0
  7 20  1  0
  8 21  1  0
  9 22  1  0
  9 23  1  0
M  END
