
     RDKit          3D

 16 15  0  0  0  0  0  0  0  0999 V2000
   -1.9002    1.3270   -1.2159 C   0  0  0  0  0  0  0  0  0  0  0  0
   -1.0089    1.7842   -0.0757 C   0  0  0  0  0  0  0  0  0  0  0  0
    0.1233    1.0209    0.0551 O   0  0  0  0  0  0  0  0  0  0  0  0
   -0.2541   -0.2997    0.3003 C   0  0  0  0  0  0  0  0  0  0  0  0
    0.9642   -1.0890    0.4349 C   0  0  0  0  0  0  0  0  0  0  0  0
    1.9773   -1.7369    0.5665 C   0  0  0  0  0  0  0  0  0  0  0  0
    3.1859   -2.4933    0.7109 C   0  0  0  0  0  0  0  0  0  0  0  0
    3.5157   -3.0974    1.7607 O   0  0  0  0  0  0  0  0  0  0  0  0
   -1.3085    0.9682   -2.0802 H   0  0  0  0  0  0  0  0  0  0  0  0
   -2.5420    2.1433   -1.5905 H   0  0  0  0  0  0  0  0  0  0  0  0
   -2.5389    0.5066   -0.8298 H   0  0  0  0  0  0  0  0  0  0  0  0
   -0.8149    2.8544   -0.2273 H   0  0  0  0  0  0  0  0  0  0  0  0
   -1.5952    1.6720    0.8781 H   0  0  0  0  0  0  0  0  0  0  0  0
   -0.8508   -0.6210   -0.5798 H   0  0  0  0  0  0  0  0  0  0  0  0
   -0.8221   -0.3786    1.2456 H   0  0  0  0  0  0  0  0  0  0  0  0
    3.8692   -2.5608   -0.1221 H   0  0  0  0  0  0  0  0  0  0  0  0
  1  2  1  0
  2  3  1  0
  3  4  1  0
  4  5  1  0
  5  6  3  0
  6  7  1  0
  7  8  2  0
  1  9  1  0
  1 10  1  0
  1 11  1  0
  2 12  1  0
  2 13  1  0
  4 14  1  0
  4 15  1  0
  7 16  1  0
M  END
