
     RDKit          3D

 23 23  0  0  0  0  0  0  0  0999 V2000
    2.4572    0.4010    0.7276 C   0  0  0  0  0  0  0  0  0  0  0  0
    1.6832    0.4912   -0.5578 C   0  0  0  0  0  0  0  0  0  0  0  0
    0.3704    0.7059   -0.5209 O   0  0  0  0  0  0  0  0  0  0  0  0
   -0.4789   -0.1819    0.0363 C   0  0  0  0  0  0  0  0  0  0  0  0
   -0.2959   -0.4077    1.4868 C   0  0  0  0  0  0  0  0  0  0  0  0
   -0.2327   -1.5353   -0.6753 C   0  0  0  0  0  0  0  0  0  0  0  0
   -1.9320    0.1868   -0.2998 C   0  0  0  0  0  0  0  0  0  0  0  0
   -2.3107    1.4434   -0.8314 C   0  0  0  0  0  0  0  0  0  0  0  0
   -2.2600    0.2173   -1.6671 O   0  0  0  0  0  0  0  0  0  0  0  0
    2.3057    1.2784    1.3969 H   0  0  0  0  0  0  0  0  0  0  0  0
    2.2791   -0.5183    1.3091 H   0  0  0  0  0  0  0  0  0  0  0  0
    3.5776    0.4828    0.4880 H   0  0  0  0  0  0  0  0  0  0  0  0
    2.1514    1.3484   -1.1534 H   0  0  0  0  0  0  0  0  0  0  0  0
    1.9610   -0.4241   -1.1738 H   0  0  0  0  0  0  0  0  0  0  0  0
    0.1645   -1.3926    1.6887 H   0  0  0  0  0  0  0  0  0  0  0  0
   -1.3407   -0.5232    1.9261 H   0  0  0  0  0  0  0  0  0  0  0  0
    0.2098    0.4494    1.9645 H   0  0  0  0  0  0  0  0  0  0  0  0
    0.0449   -1.3649   -1.7331 H   0  0  0  0  0  0  0  0  0  0  0  0
   -1.2073   -2.1013   -0.6457 H   0  0  0  0  0  0  0  0  0  0  0  0
    0.4869   -2.1471   -0.1153 H   0  0  0  0  0  0  0  0  0  0  0  0
   -2.6582   -0.4109    0.2852 H   0  0  0  0  0  0  0  0  0  0  0  0
   -1.6299    2.1888   -1.2595 H   0  0  0  0  0  0  0  0  0  0  0  0
   -3.3453    1.8139   -0.6760 H   0  0  0  0  0  0  0  0  0  0  0  0
  1  2  1  0
  2  3  1  0
  3  4  1  0
  4  5  1  0
  4  6  1  0
  4  7  1  0
  7  8  1  0
  8  9  1  0
  9  7  1  0
  1 10  1  0
  1 11  1  0
  1 12  1  0
  2 13  1  0
  2 14  1  0
  5 15  1  0
  5 16  1  0
  5 17  1  0
  6 18  1  0
  6 19  1  0
  6 20  1  0
  7 21  1  0
  8 22  1  0
  8 23  1  0
M  END
