
     RDKit          3D

 21 22  0  0  0  0  0  0  0  0999 V2000
    2.4544   -0.4789    0.7762 C   0  0  0  0  0  0  0  0  0  0  0  0
    2.1702    0.3890   -0.4315 C   0  0  0  0  0  0  0  0  0  0  0  0
    0.8704    0.8841   -0.4234 O   0  0  0  0  0  0  0  0  0  0  0  0
   -0.0358   -0.1562   -0.4292 C   0  0  0  0  0  0  0  0  0  0  0  0
   -1.1605    0.0754   -1.3970 C   0  0  0  0  0  0  0  0  0  0  0  0
   -1.9602   -0.8796   -0.5607 C   0  0  0  0  0  0  0  0  0  0  0  0
   -1.2283   -0.0085    0.4547 C   0  0  0  0  0  0  0  0  0  0  0  0
   -1.3150   -0.0881    1.6999 O   0  0  0  0  0  0  0  0  0  0  0  0
   -1.6163    1.1436   -0.4350 C   0  0  0  0  0  0  0  0  0  0  0  0
    3.1379   -1.3077    0.4974 H   0  0  0  0  0  0  0  0  0  0  0  0
    3.0098    0.1443    1.5153 H   0  0  0  0  0  0  0  0  0  0  0  0
    1.5221   -0.8752    1.2314 H   0  0  0  0  0  0  0  0  0  0  0  0
    2.3337   -0.2639   -1.3318 H   0  0  0  0  0  0  0  0  0  0  0  0
    2.9031    1.2064   -0.4990 H   0  0  0  0  0  0  0  0  0  0  0  0
    0.3921   -1.1814   -0.4391 H   0  0  0  0  0  0  0  0  0  0  0  0
   -1.1141    0.1370   -2.3919 H   0  0  0  0  0  0  0  0  0  0  0  0
   -3.0382   -0.6713   -0.6601 H   0  0  0  0  0  0  0  0  0  0  0  0
   -1.6729   -1.9297   -0.5781 H   0  0  0  0  0  0  0  0  0  0  0  0
   -1.9828    0.5237    2.1125 H   0  0  0  0  0  0  0  0  0  0  0  0
   -0.9767    2.0359   -0.3663 H   0  0  0  0  0  0  0  0  0  0  0  0
   -2.6930    1.3012   -0.4534 H   0  0  0  0  0  0  0  0  0  0  0  0
  1  2  1  0
  2  3  1  0
  3  4  1  0
  4  5  1  0
  5  6  1  0
  6  7  1  0
  7  8  1  0
  7  9  1  0
  7  4  1  0
  9  5  1  0
  1 10  1  0
  1 11  1  0
  1 12  1  0
  2 13  1  0
  2 14  1  0
  4 15  1  0
  5 16  1  0
  6 17  1  0
  6 18  1  0
  8 19  1  0
  9 20  1  0
  9 21  1  0
M  END
