
     RDKit          3D

 21 22  0  0  0  0  0  0  0  0999 V2000
    2.1463   -0.2652    0.8025 C   0  0  0  0  0  0  0  0  0  0  0  0
    2.0812   -0.2989   -0.6999 C   0  0  0  0  0  0  0  0  0  0  0  0
    0.9977    0.4454   -1.1530 O   0  0  0  0  0  0  0  0  0  0  0  0
   -0.1448   -0.1048   -0.6254 C   0  0  0  0  0  0  0  0  0  0  0  0
   -1.1020    0.8270    0.0467 C   0  0  0  0  0  0  0  0  0  0  0  0
   -1.1964    0.6595    1.5235 C   0  0  0  0  0  0  0  0  0  0  0  0
   -2.1929    0.1641   -0.7666 C   0  0  0  0  0  0  0  0  0  0  0  0
   -2.1165    0.4021   -2.1049 O   0  0  0  0  0  0  0  0  0  0  0  0
   -1.1560   -0.4744   -1.6728 C   0  0  0  0  0  0  0  0  0  0  0  0
    3.1995   -0.2681    1.1645 H   0  0  0  0  0  0  0  0  0  0  0  0
    1.6876    0.6544    1.2211 H   0  0  0  0  0  0  0  0  0  0  0  0
    1.6605   -1.1594    1.2528 H   0  0  0  0  0  0  0  0  0  0  0  0
    3.0012    0.1455   -1.1768 H   0  0  0  0  0  0  0  0  0  0  0  0
    2.0246   -1.3642   -1.0190 H   0  0  0  0  0  0  0  0  0  0  0  0
    0.0287   -1.0051    0.0359 H   0  0  0  0  0  0  0  0  0  0  0  0
   -1.0325    1.9046   -0.2858 H   0  0  0  0  0  0  0  0  0  0  0  0
   -2.2384    0.3549    1.7998 H   0  0  0  0  0  0  0  0  0  0  0  0
   -0.9838    1.6246    2.0488 H   0  0  0  0  0  0  0  0  0  0  0  0
   -0.5449   -0.1667    1.8777 H   0  0  0  0  0  0  0  0  0  0  0  0
   -2.8682   -0.5550   -0.3121 H   0  0  0  0  0  0  0  0  0  0  0  0
   -1.2509   -1.5204   -1.9570 H   0  0  0  0  0  0  0  0  0  0  0  0
  1  2  1  0
  2  3  1  0
  3  4  1  0
  4  5  1  0
  5  6  1  0
  5  7  1  0
  7  8  1  0
  8  9  1  0
  9  4  1  0
  9  7  1  0
  1 10  1  0
  1 11  1  0
  1 12  1  0
  2 13  1  0
  2 14  1  0
  4 15  1  0
  5 16  1  0
  6 17  1  0
  6 18  1  0
  6 19  1  0
  7 20  1  0
  9 21  1  0
M  END
