
     RDKit          3D

 21 21  0  0  0  0  0  0  0  0999 V2000
    3.1016    0.8987   -0.2565 C   0  0  0  0  0  0  0  0  0  0  0  0
    1.9397   -0.0466   -0.2809 C   0  0  0  0  0  0  0  0  0  0  0  0
    0.8668    0.4176    0.4684 O   0  0  0  0  0  0  0  0  0  0  0  0
   -0.1615   -0.5383    0.3779 C   0  0  0  0  0  0  0  0  0  0  0  0
   -0.4866   -1.0425    1.6076 O   0  0  0  0  0  0  0  0  0  0  0  0
   -1.8468   -1.3306    1.5891 C   0  0  0  0  0  0  0  0  0  0  0  0
   -2.4166   -0.4080    0.5750 C   0  0  0  0  0  0  0  0  0  0  0  0
   -1.4092    0.0602   -0.1422 C   0  0  0  0  0  0  0  0  0  0  0  0
   -1.5006    1.0219   -1.2773 C   0  0  0  0  0  0  0  0  0  0  0  0
    4.0284    0.3331   -0.0170 H   0  0  0  0  0  0  0  0  0  0  0  0
    2.9652    1.6758    0.5217 H   0  0  0  0  0  0  0  0  0  0  0  0
    3.2849    1.3864   -1.2383 H   0  0  0  0  0  0  0  0  0  0  0  0
    2.2531   -1.0661    0.0477 H   0  0  0  0  0  0  0  0  0  0  0  0
    1.6428   -0.1731   -1.3636 H   0  0  0  0  0  0  0  0  0  0  0  0
    0.1597   -1.4047   -0.2662 H   0  0  0  0  0  0  0  0  0  0  0  0
   -2.2294   -1.0481    2.6101 H   0  0  0  0  0  0  0  0  0  0  0  0
   -2.0607   -2.3715    1.3290 H   0  0  0  0  0  0  0  0  0  0  0  0
   -3.4707   -0.1624    0.4459 H   0  0  0  0  0  0  0  0  0  0  0  0
   -0.7172    1.7869   -1.2467 H   0  0  0  0  0  0  0  0  0  0  0  0
   -2.4800    1.5359   -1.2356 H   0  0  0  0  0  0  0  0  0  0  0  0
   -1.4629    0.4755   -2.2481 H   0  0  0  0  0  0  0  0  0  0  0  0
  1  2  1  0
  2  3  1  0
  3  4  1  0
  4  5  1  0
  5  6  1  0
  6  7  1  0
  7  8  2  0
  8  9  1  0
  8  4  1  0
  1 10  1  0
  1 11  1  0
  1 12  1  0
  2 13  1  0
  2 14  1  0
  4 15  1  0
  6 16  1  0
  6 17  1  0
  7 18  1  0
  9 19  1  0
  9 20  1  0
  9 21  1  0
M  END
