
     RDKit          3D

 19 18  0  0  0  0  0  0  0  0999 V2000
   -2.9104    0.6290   -0.5607 C   0  0  0  0  0  0  0  0  0  0  0  0
   -2.3398   -0.1999    0.5325 C   0  0  0  0  0  0  0  0  0  0  0  0
   -1.1420   -0.8495    0.2179 O   0  0  0  0  0  0  0  0  0  0  0  0
    0.0355   -0.1545   -0.1382 C   0  0  0  0  0  0  0  0  0  0  0  0
   -0.1098    1.0882   -0.1391 O   0  0  0  0  0  0  0  0  0  0  0  0
    1.2710   -0.8749   -0.4607 C   0  0  0  0  0  0  0  0  0  0  0  0
    2.4574   -0.5458    0.3682 C   0  0  0  0  0  0  0  0  0  0  0  0
    2.9212    0.8485    0.3324 C   0  0  0  0  0  0  0  0  0  0  0  0
    2.3898    1.6845   -0.3597 O   0  0  0  0  0  0  0  0  0  0  0  0
   -2.8204    0.0706   -1.5312 H   0  0  0  0  0  0  0  0  0  0  0  0
   -4.0240    0.6937   -0.3884 H   0  0  0  0  0  0  0  0  0  0  0  0
   -2.5049    1.6311   -0.5889 H   0  0  0  0  0  0  0  0  0  0  0  0
   -3.0867   -0.9232    0.8975 H   0  0  0  0  0  0  0  0  0  0  0  0
   -2.1000    0.4922    1.3968 H   0  0  0  0  0  0  0  0  0  0  0  0
    1.1242   -1.9850   -0.4267 H   0  0  0  0  0  0  0  0  0  0  0  0
    1.5007   -0.6728   -1.5522 H   0  0  0  0  0  0  0  0  0  0  0  0
    2.2488   -0.8706    1.4301 H   0  0  0  0  0  0  0  0  0  0  0  0
    3.3230   -1.1879    0.0188 H   0  0  0  0  0  0  0  0  0  0  0  0
    3.7668    1.1262    0.9515 H   0  0  0  0  0  0  0  0  0  0  0  0
  1  2  1  0
  2  3  1  0
  3  4  1  0
  4  5  2  0
  4  6  1  0
  6  7  1  0
  7  8  1  0
  8  9  2  0
  1 10  1  0
  1 11  1  0
  1 12  1  0
  2 13  1  0
  2 14  1  0
  6 15  1  0
  6 16  1  0
  7 17  1  0
  7 18  1  0
  8 19  1  0
M  END
