
     RDKit          3D

 23 22  0  0  0  0  0  0  0  0999 V2000
    2.4065    0.0211   -1.1484 C   0  0  0  0  0  0  0  0  0  0  0  0
    2.2124   -0.8137    0.0997 C   0  0  0  0  0  0  0  0  0  0  0  0
    0.9389   -1.1041    0.4248 O   0  0  0  0  0  0  0  0  0  0  0  0
    0.0646   -0.1011    0.6767 C   0  0  0  0  0  0  0  0  0  0  0  0
   -0.6092   -0.1728    2.0276 C   0  0  0  0  0  0  0  0  0  0  0  0
   -1.0468   -0.1382   -0.3524 C   0  0  0  0  0  0  0  0  0  0  0  0
   -0.5667    0.0177   -1.6498 O   0  0  0  0  0  0  0  0  0  0  0  0
   -2.1374    0.8649   -0.0398 C   0  0  0  0  0  0  0  0  0  0  0  0
   -3.1652    0.6245   -0.9728 O   0  0  0  0  0  0  0  0  0  0  0  0
    2.0936   -0.4996   -2.0708 H   0  0  0  0  0  0  0  0  0  0  0  0
    1.9093    1.0004   -0.9985 H   0  0  0  0  0  0  0  0  0  0  0  0
    3.5094    0.2305   -1.2786 H   0  0  0  0  0  0  0  0  0  0  0  0
    2.8240   -0.3423    0.8897 H   0  0  0  0  0  0  0  0  0  0  0  0
    2.7339   -1.7932   -0.1184 H   0  0  0  0  0  0  0  0  0  0  0  0
    0.5874    0.8753    0.5489 H   0  0  0  0  0  0  0  0  0  0  0  0
    0.0215   -0.6194    2.8082 H   0  0  0  0  0  0  0  0  0  0  0  0
   -1.5460   -0.7718    2.0027 H   0  0  0  0  0  0  0  0  0  0  0  0
   -0.9080    0.8697    2.2855 H   0  0  0  0  0  0  0  0  0  0  0  0
   -1.5621   -1.1435   -0.3477 H   0  0  0  0  0  0  0  0  0  0  0  0
   -0.2768   -0.8618   -1.9799 H   0  0  0  0  0  0  0  0  0  0  0  0
   -1.7898    1.9071   -0.0564 H   0  0  0  0  0  0  0  0  0  0  0  0
   -2.5926    0.6776    0.9527 H   0  0  0  0  0  0  0  0  0  0  0  0
   -3.1008    1.2729   -1.7029 H   0  0  0  0  0  0  0  0  0  0  0  0
  1  2  1  0
  2  3  1  0
  3  4  1  0
  4  5  1  0
  4  6  1  0
  6  7  1  0
  6  8  1  0
  8  9  1  0
  1 10  1  0
  1 11  1  0
  1 12  1  0
  2 13  1  0
  2 14  1  0
  4 15  1  0
  5 16  1  0
  5 17  1  0
  5 18  1  0
  6 19  1  0
  7 20  1  0
  8 21  1  0
  8 22  1  0
  9 23  1  0
M  END
