
     RDKit          3D

 23 23  0  0  0  0  0  0  0  0999 V2000
   -2.7817    0.4766    0.6132 C   0  0  0  0  0  0  0  0  0  0  0  0
   -2.3391   -0.0390   -0.7158 C   0  0  0  0  0  0  0  0  0  0  0  0
   -1.0536    0.3426   -1.0603 O   0  0  0  0  0  0  0  0  0  0  0  0
   -0.0969   -0.1043   -0.1501 C   0  0  0  0  0  0  0  0  0  0  0  0
    0.7607   -1.1118   -0.8722 C   0  0  0  0  0  0  0  0  0  0  0  0
    1.9907   -1.4643   -0.1294 C   0  0  0  0  0  0  0  0  0  0  0  0
    2.6207   -0.5094    0.4986 C   0  0  0  0  0  0  0  0  0  0  0  0
    2.1470    0.8670    0.4835 C   0  0  0  0  0  0  0  0  0  0  0  0
    0.6690    1.0433    0.4127 C   0  0  0  0  0  0  0  0  0  0  0  0
   -3.8627    0.7921    0.5676 H   0  0  0  0  0  0  0  0  0  0  0  0
   -2.7682   -0.3698    1.3380 H   0  0  0  0  0  0  0  0  0  0  0  0
   -2.2326    1.3606    0.9691 H   0  0  0  0  0  0  0  0  0  0  0  0
   -3.0154    0.3815   -1.4879 H   0  0  0  0  0  0  0  0  0  0  0  0
   -2.4866   -1.1456   -0.7607 H   0  0  0  0  0  0  0  0  0  0  0  0
   -0.6513   -0.6656    0.6314 H   0  0  0  0  0  0  0  0  0  0  0  0
    0.1772   -1.9889   -1.1498 H   0  0  0  0  0  0  0  0  0  0  0  0
    1.0751   -0.6237   -1.8354 H   0  0  0  0  0  0  0  0  0  0  0  0
    2.3607   -2.4795   -0.1041 H   0  0  0  0  0  0  0  0  0  0  0  0
    3.5426   -0.7255    1.0631 H   0  0  0  0  0  0  0  0  0  0  0  0
    2.5748    1.3919    1.3637 H   0  0  0  0  0  0  0  0  0  0  0  0
    2.6222    1.3774   -0.4072 H   0  0  0  0  0  0  0  0  0  0  0  0
    0.3067    1.2332    1.4444 H   0  0  0  0  0  0  0  0  0  0  0  0
    0.4409    1.9611   -0.1669 H   0  0  0  0  0  0  0  0  0  0  0  0
  1  2  1  0
  2  3  1  0
  3  4  1  0
  4  5  1  0
  5  6  1  0
  6  7  2  0
  7  8  1  0
  8  9  1  0
  9  4  1  0
  1 10  1  0
  1 11  1  0
  1 12  1  0
  2 13  1  0
  2 14  1  0
  4 15  1  0
  5 16  1  0
  5 17  1  0
  6 18  1  0
  7 19  1  0
  8 20  1  0
  8 21  1  0
  9 22  1  0
  9 23  1  0
M  END
