
     RDKit          3D

 20 19  0  0  0  0  0  0  0  0999 V2000
    2.7064   -0.3603    0.3427 C   0  0  0  0  0  0  0  0  0  0  0  0
    1.9027    0.7928    0.9311 C   0  0  0  0  0  0  0  0  0  0  0  0
    0.6084    0.3568    1.0890 O   0  0  0  0  0  0  0  0  0  0  0  0
    0.0205   -0.0338   -0.1048 C   0  0  0  0  0  0  0  0  0  0  0  0
   -1.3993   -0.5014    0.1388 C   0  0  0  0  0  0  0  0  0  0  0  0
   -2.1804    0.6637    0.7462 C   0  0  0  0  0  0  0  0  0  0  0  0
   -2.0923   -0.8827   -1.1028 C   0  0  0  0  0  0  0  0  0  0  0  0
   -2.9602   -1.7369   -1.0976 O   0  0  0  0  0  0  0  0  0  0  0  0
    2.2773   -1.2836    0.7421 H   0  0  0  0  0  0  0  0  0  0  0  0
    3.7701   -0.2898    0.6871 H   0  0  0  0  0  0  0  0  0  0  0  0
    2.6504   -0.2807   -0.7697 H   0  0  0  0  0  0  0  0  0  0  0  0
    2.3429    1.0557    1.9045 H   0  0  0  0  0  0  0  0  0  0  0  0
    1.9994    1.6377    0.2206 H   0  0  0  0  0  0  0  0  0  0  0  0
    0.0781    0.7223   -0.9026 H   0  0  0  0  0  0  0  0  0  0  0  0
    0.5907   -0.9442   -0.4548 H   0  0  0  0  0  0  0  0  0  0  0  0
   -1.4315   -1.3176    0.8885 H   0  0  0  0  0  0  0  0  0  0  0  0
   -3.2502    0.3694    0.8700 H   0  0  0  0  0  0  0  0  0  0  0  0
   -1.6819    0.8852    1.7095 H   0  0  0  0  0  0  0  0  0  0  0  0
   -2.0947    1.5688    0.1120 H   0  0  0  0  0  0  0  0  0  0  0  0
   -1.8563   -0.4213   -2.0526 H   0  0  0  0  0  0  0  0  0  0  0  0
  1  2  1  0
  2  3  1  0
  3  4  1  0
  4  5  1  0
  5  6  1  0
  5  7  1  0
  7  8  2  0
  1  9  1  0
  1 10  1  0
  1 11  1  0
  2 12  1  0
  2 13  1  0
  4 14  1  0
  4 15  1  0
  5 16  1  0
  6 17  1  0
  6 18  1  0
  6 19  1  0
  7 20  1  0
M  END
