
     RDKit          3D

 15 14  0  0  0  0  0  0  0  0999 V2000
    2.0095    0.3932    0.5943 C   0  0  0  0  0  0  0  0  0  0  0  0
    1.5117   -0.6312   -0.3863 C   0  0  0  0  0  0  0  0  0  0  0  0
    0.1676   -0.9852   -0.1978 O   0  0  0  0  0  0  0  0  0  0  0  0
   -0.8539   -0.0534   -0.2791 C   0  0  0  0  0  0  0  0  0  0  0  0
   -0.5532    1.1259   -0.5271 O   0  0  0  0  0  0  0  0  0  0  0  0
   -2.2802   -0.4008   -0.0844 C   0  0  0  0  0  0  0  0  0  0  0  0
   -3.0196    0.7669   -0.2357 O   0  0  0  0  0  0  0  0  0  0  0  0
    1.8165    1.4428    0.2336 H   0  0  0  0  0  0  0  0  0  0  0  0
    1.6644    0.2504    1.6174 H   0  0  0  0  0  0  0  0  0  0  0  0
    3.1201    0.3081    0.5987 H   0  0  0  0  0  0  0  0  0  0  0  0
    2.1582   -1.5273   -0.2911 H   0  0  0  0  0  0  0  0  0  0  0  0
    1.7007   -0.2283   -1.4083 H   0  0  0  0  0  0  0  0  0  0  0  0
   -2.3710   -0.7561    0.9726 H   0  0  0  0  0  0  0  0  0  0  0  0
   -2.6129   -1.2045   -0.7706 H   0  0  0  0  0  0  0  0  0  0  0  0
   -2.4579    1.4994    0.1636 H   0  0  0  0  0  0  0  0  0  0  0  0
  1  2  1  0
  2  3  1  0
  3  4  1  0
  4  5  2  0
  4  6  1  0
  6  7  1  0
  1  8  1  0
  1  9  1  0
  1 10  1  0
  2 11  1  0
  2 12  1  0
  6 13  1  0
  6 14  1  0
  7 15  1  0
M  END
