
     RDKit          3D

 21 22  0  0  0  0  0  0  0  0999 V2000
    2.7001   -0.2213   -0.2216 C   0  0  0  0  0  0  0  0  0  0  0  0
    1.9229    1.0088   -0.6079 C   0  0  0  0  0  0  0  0  0  0  0  0
    0.6102    0.7268   -0.9649 O   0  0  0  0  0  0  0  0  0  0  0  0
   -0.0683    0.1396    0.0631 C   0  0  0  0  0  0  0  0  0  0  0  0
   -1.0053   -1.0024   -0.3321 C   0  0  0  0  0  0  0  0  0  0  0  0
   -1.6383   -1.3198    0.9752 C   0  0  0  0  0  0  0  0  0  0  0  0
   -1.8614   -0.0960    1.4974 C   0  0  0  0  0  0  0  0  0  0  0  0
   -1.4077    0.8043    0.4189 C   0  0  0  0  0  0  0  0  0  0  0  0
   -1.9303    0.1048   -0.8229 C   0  0  0  0  0  0  0  0  0  0  0  0
    2.4319   -0.5961    0.7801 H   0  0  0  0  0  0  0  0  0  0  0  0
    2.5094   -0.9827   -1.0289 H   0  0  0  0  0  0  0  0  0  0  0  0
    3.7858   -0.0068   -0.2819 H   0  0  0  0  0  0  0  0  0  0  0  0
    1.9922    1.7420    0.2285 H   0  0  0  0  0  0  0  0  0  0  0  0
    2.4099    1.4176   -1.5389 H   0  0  0  0  0  0  0  0  0  0  0  0
    0.4851   -0.0277    0.9993 H   0  0  0  0  0  0  0  0  0  0  0  0
   -0.6769   -1.7465   -0.9842 H   0  0  0  0  0  0  0  0  0  0  0  0
   -1.8472   -2.2925    1.3665 H   0  0  0  0  0  0  0  0  0  0  0  0
   -2.2757    0.0949    2.4772 H   0  0  0  0  0  0  0  0  0  0  0  0
   -1.4491    1.8443    0.5014 H   0  0  0  0  0  0  0  0  0  0  0  0
   -3.0143   -0.1471   -0.7488 H   0  0  0  0  0  0  0  0  0  0  0  0
   -1.6730    0.5558   -1.7755 H   0  0  0  0  0  0  0  0  0  0  0  0
  1  2  1  0
  2  3  1  0
  3  4  1  0
  4  5  1  0
  5  6  1  0
  6  7  2  0
  7  8  1  0
  8  9  1  0
  8  4  1  0
  9  5  1  0
  1 10  1  0
  1 11  1  0
  1 12  1  0
  2 13  1  0
  2 14  1  0
  4 15  1  0
  5 16  1  0
  6 17  1  0
  7 18  1  0
  8 19  1  0
  9 20  1  0
  9 21  1  0
M  END
