
     RDKit          3D

 21 22  0  0  0  0  0  0  0  0999 V2000
    2.8485    0.7864    0.3928 C   0  0  0  0  0  0  0  0  0  0  0  0
    2.5683   -0.6907    0.5623 C   0  0  0  0  0  0  0  0  0  0  0  0
    1.4517   -1.0654   -0.1768 O   0  0  0  0  0  0  0  0  0  0  0  0
    0.2910   -0.3710    0.2132 C   0  0  0  0  0  0  0  0  0  0  0  0
   -0.6224   -0.0440   -0.8331 C   0  0  0  0  0  0  0  0  0  0  0  0
   -1.6504   -0.7630   -1.4135 O   0  0  0  0  0  0  0  0  0  0  0  0
   -2.3191   -0.5242   -0.1877 C   0  0  0  0  0  0  0  0  0  0  0  0
   -2.8009    0.8245    0.1144 C   0  0  0  0  0  0  0  0  0  0  0  0
   -1.0046   -0.9967    0.3666 C   0  0  0  0  0  0  0  0  0  0  0  0
    2.2656    1.4262    1.0593 H   0  0  0  0  0  0  0  0  0  0  0  0
    2.7207    1.0237   -0.6900 H   0  0  0  0  0  0  0  0  0  0  0  0
    3.9467    0.9258    0.6005 H   0  0  0  0  0  0  0  0  0  0  0  0
    2.3068   -0.9131    1.6369 H   0  0  0  0  0  0  0  0  0  0  0  0
    3.4436   -1.2396    0.2241 H   0  0  0  0  0  0  0  0  0  0  0  0
    0.5333    0.3490    1.0547 H   0  0  0  0  0  0  0  0  0  0  0  0
   -0.9924    1.0206   -0.7506 H   0  0  0  0  0  0  0  0  0  0  0  0
   -3.1344   -1.2696   -0.0999 H   0  0  0  0  0  0  0  0  0  0  0  0
   -2.9699    1.4948   -0.7678 H   0  0  0  0  0  0  0  0  0  0  0  0
   -3.8154    0.8010    0.6183 H   0  0  0  0  0  0  0  0  0  0  0  0
   -2.1528    1.3284    0.8908 H   0  0  0  0  0  0  0  0  0  0  0  0
   -0.9139   -2.1030    0.1136 H   0  0  0  0  0  0  0  0  0  0  0  0
  1  2  1  0
  2  3  1  0
  3  4  1  0
  4  5  1  0
  5  6  1  0
  6  7  1  0
  7  8  1  0
  7  9  1  0
  9  4  1  0
  9  5  1  0
  1 10  1  0
  1 11  1  0
  1 12  1  0
  2 13  1  0
  2 14  1  0
  4 15  1  0
  5 16  1  0
  7 17  1  0
  8 18  1  0
  8 19  1  0
  8 20  1  0
  9 21  1  0
M  END
