
     RDKit          3D

 21 21  0  0  0  0  0  0  0  0999 V2000
    2.7076    0.1150    0.5136 C   0  0  0  0  0  0  0  0  0  0  0  0
    1.8552   -1.1175    0.2314 C   0  0  0  0  0  0  0  0  0  0  0  0
    0.6587   -0.7852   -0.3965 O   0  0  0  0  0  0  0  0  0  0  0  0
   -0.1232    0.0572    0.3373 C   0  0  0  0  0  0  0  0  0  0  0  0
   -0.5921    1.2395   -0.5145 C   0  0  0  0  0  0  0  0  0  0  0  0
   -1.8986    1.1694    0.2875 C   0  0  0  0  0  0  0  0  0  0  0  0
   -1.5940   -0.3260    0.4558 C   0  0  0  0  0  0  0  0  0  0  0  0
   -2.1344   -1.1198   -0.6474 C   0  0  0  0  0  0  0  0  0  0  0  0
   -3.1410   -0.7580   -1.2120 O   0  0  0  0  0  0  0  0  0  0  0  0
    3.6785   -0.2384    0.8880 H   0  0  0  0  0  0  0  0  0  0  0  0
    2.8491    0.6158   -0.4817 H   0  0  0  0  0  0  0  0  0  0  0  0
    2.2512    0.7812    1.2569 H   0  0  0  0  0  0  0  0  0  0  0  0
    2.4574   -1.7424   -0.4629 H   0  0  0  0  0  0  0  0  0  0  0  0
    1.6586   -1.6888    1.1515 H   0  0  0  0  0  0  0  0  0  0  0  0
    0.2511    0.3855    1.3248 H   0  0  0  0  0  0  0  0  0  0  0  0
   -0.7738    0.9016   -1.5566 H   0  0  0  0  0  0  0  0  0  0  0  0
   -0.0250    2.1586   -0.3918 H   0  0  0  0  0  0  0  0  0  0  0  0
   -1.7576    1.7193    1.2373 H   0  0  0  0  0  0  0  0  0  0  0  0
   -2.7936    1.3910   -0.2947 H   0  0  0  0  0  0  0  0  0  0  0  0
   -1.8811   -0.7337    1.4430 H   0  0  0  0  0  0  0  0  0  0  0  0
   -1.6531   -2.0244   -0.9700 H   0  0  0  0  0  0  0  0  0  0  0  0
  1  2  1  0
  2  3  1  0
  3  4  1  0
  4  5  1  0
  5  6  1  0
  6  7  1  0
  7  8  1  0
  8  9  2  0
  7  4  1  0
  1 10  1  0
  1 11  1  0
  1 12  1  0
  2 13  1  0
  2 14  1  0
  4 15  1  0
  5 16  1  0
  5 17  1  0
  6 18  1  0
  6 19  1  0
  7 20  1  0
  8 21  1  0
M  END
