
     RDKit          3D

 21 22  0  0  0  0  0  0  0  0999 V2000
    3.6608   -0.2476    0.1845 C   0  0  0  0  0  0  0  0  0  0  0  0
    2.3476   -0.4448   -0.4914 C   0  0  0  0  0  0  0  0  0  0  0  0
    1.3232    0.2563    0.1472 O   0  0  0  0  0  0  0  0  0  0  0  0
    0.1032    0.0623   -0.4955 C   0  0  0  0  0  0  0  0  0  0  0  0
   -0.9361    0.8572    0.2666 C   0  0  0  0  0  0  0  0  0  0  0  0
   -2.3478    0.8601   -0.1670 C   0  0  0  0  0  0  0  0  0  0  0  0
   -3.1664   -0.3751   -0.2949 C   0  0  0  0  0  0  0  0  0  0  0  0
   -2.3005   -1.1335    0.4859 O   0  0  0  0  0  0  0  0  0  0  0  0
   -1.8802    0.0683    1.0759 C   0  0  0  0  0  0  0  0  0  0  0  0
    4.1242   -1.2624    0.3442 H   0  0  0  0  0  0  0  0  0  0  0  0
    3.6024    0.2411    1.1669 H   0  0  0  0  0  0  0  0  0  0  0  0
    4.3576    0.2862   -0.5141 H   0  0  0  0  0  0  0  0  0  0  0  0
    2.3746   -0.0622   -1.5386 H   0  0  0  0  0  0  0  0  0  0  0  0
    2.0498   -1.5137   -0.5667 H   0  0  0  0  0  0  0  0  0  0  0  0
    0.1254    0.5044   -1.5332 H   0  0  0  0  0  0  0  0  0  0  0  0
   -0.1616   -1.0242   -0.5511 H   0  0  0  0  0  0  0  0  0  0  0  0
   -0.5426    1.7943    0.7175 H   0  0  0  0  0  0  0  0  0  0  0  0
   -2.9259    1.7852    0.0113 H   0  0  0  0  0  0  0  0  0  0  0  0
   -4.1486   -0.2967    0.2579 H   0  0  0  0  0  0  0  0  0  0  0  0
   -3.3359   -0.7595   -1.3275 H   0  0  0  0  0  0  0  0  0  0  0  0
   -2.3234    0.4042    2.0082 H   0  0  0  0  0  0  0  0  0  0  0  0
  1  2  1  0
  2  3  1  0
  3  4  1  0
  4  5  1  0
  5  6  1  0
  6  7  1  0
  7  8  1  0
  8  9  1  0
  9  5  1  0
  9  6  1  0
  1 10  1  0
  1 11  1  0
  1 12  1  0
  2 13  1  0
  2 14  1  0
  4 15  1  0
  4 16  1  0
  5 17  1  0
  6 18  1  0
  7 19  1  0
  7 20  1  0
  9 21  1  0
M  END
