
     RDKit          3D

 25 25  0  0  0  0  0  0  0  0999 V2000
   -2.8305   -0.1049    0.2509 C   0  0  0  0  0  0  0  0  0  0  0  0
   -2.0941   -0.0492   -1.0415 C   0  0  0  0  0  0  0  0  0  0  0  0
   -0.7581   -0.3856   -0.9589 O   0  0  0  0  0  0  0  0  0  0  0  0
   -0.0213    0.4138   -0.1262 C   0  0  0  0  0  0  0  0  0  0  0  0
    1.2868    0.8351   -0.8125 C   0  0  0  0  0  0  0  0  0  0  0  0
    2.1091    1.8098   -0.0174 C   0  0  0  0  0  0  0  0  0  0  0  0
    1.7529   -0.5778   -0.5016 C   0  0  0  0  0  0  0  0  0  0  0  0
    0.8641   -0.4640    0.7406 C   0  0  0  0  0  0  0  0  0  0  0  0
    0.2150   -1.7692    1.1345 C   0  0  0  0  0  0  0  0  0  0  0  0
   -2.5575   -0.9547    0.8899 H   0  0  0  0  0  0  0  0  0  0  0  0
   -3.9221   -0.2534    0.0018 H   0  0  0  0  0  0  0  0  0  0  0  0
   -2.8062    0.8713    0.7967 H   0  0  0  0  0  0  0  0  0  0  0  0
   -2.1809    0.9858   -1.4464 H   0  0  0  0  0  0  0  0  0  0  0  0
   -2.5795   -0.7349   -1.7655 H   0  0  0  0  0  0  0  0  0  0  0  0
   -0.5389    1.2288    0.3891 H   0  0  0  0  0  0  0  0  0  0  0  0
    1.1757    1.0590   -1.8847 H   0  0  0  0  0  0  0  0  0  0  0  0
    3.1545    1.4341    0.1542 H   0  0  0  0  0  0  0  0  0  0  0  0
    1.6830    2.0051    1.0003 H   0  0  0  0  0  0  0  0  0  0  0  0
    2.2207    2.7938   -0.5024 H   0  0  0  0  0  0  0  0  0  0  0  0
    1.3122   -1.2943   -1.2115 H   0  0  0  0  0  0  0  0  0  0  0  0
    2.8213   -0.6900   -0.2861 H   0  0  0  0  0  0  0  0  0  0  0  0
    1.4132    0.0478    1.5343 H   0  0  0  0  0  0  0  0  0  0  0  0
   -0.4551   -1.5741    1.9730 H   0  0  0  0  0  0  0  0  0  0  0  0
    1.0299   -2.4564    1.4481 H   0  0  0  0  0  0  0  0  0  0  0  0
   -0.2941   -2.1760    0.2413 H   0  0  0  0  0  0  0  0  0  0  0  0
  1  2  1  0
  2  3  1  0
  3  4  1  0
  4  5  1  0
  5  6  1  0
  5  7  1  0
  7  8  1  0
  8  9  1  0
  8  4  1  0
  1 10  1  0
  1 11  1  0
  1 12  1  0
  2 13  1  0
  2 14  1  0
  4 15  1  0
  5 16  1  0
  6 17  1  0
  6 18  1  0
  6 19  1  0
  7 20  1  0
  7 21  1  0
  8 22  1  0
  9 23  1  0
  9 24  1  0
  9 25  1  0
M  END
