
     RDKit          3D

 21 22  0  0  0  0  0  0  0  0999 V2000
    3.3213   -0.0432   -0.0343 C   0  0  0  0  0  0  0  0  0  0  0  0
    1.9559    0.2614    0.5822 C   0  0  0  0  0  0  0  0  0  0  0  0
    0.9999   -0.1426   -0.3264 O   0  0  0  0  0  0  0  0  0  0  0  0
   -0.2874    0.0494    0.0479 C   0  0  0  0  0  0  0  0  0  0  0  0
   -1.1031   -1.2395    0.0991 C   0  0  0  0  0  0  0  0  0  0  0  0
   -2.5102   -0.6769    0.1996 C   0  0  0  0  0  0  0  0  0  0  0  0
   -2.5473    0.4667    1.0965 O   0  0  0  0  0  0  0  0  0  0  0  0
   -2.5073    0.6936   -0.2726 C   0  0  0  0  0  0  0  0  0  0  0  0
   -1.1178    0.8778   -0.8946 C   0  0  0  0  0  0  0  0  0  0  0  0
    4.1201    0.5366    0.4550 H   0  0  0  0  0  0  0  0  0  0  0  0
    3.5120   -1.1360    0.0650 H   0  0  0  0  0  0  0  0  0  0  0  0
    3.3165    0.1583   -1.1370 H   0  0  0  0  0  0  0  0  0  0  0  0
    1.9088   -0.2736    1.5340 H   0  0  0  0  0  0  0  0  0  0  0  0
    1.8922    1.3551    0.6760 H   0  0  0  0  0  0  0  0  0  0  0  0
   -0.3420    0.5087    1.0433 H   0  0  0  0  0  0  0  0  0  0  0  0
   -0.8543   -1.7785    1.0102 H   0  0  0  0  0  0  0  0  0  0  0  0
   -0.9819   -1.8284   -0.8365 H   0  0  0  0  0  0  0  0  0  0  0  0
   -3.3720   -1.3394    0.2369 H   0  0  0  0  0  0  0  0  0  0  0  0
   -3.3657    1.1841   -0.7215 H   0  0  0  0  0  0  0  0  0  0  0  0
   -0.8460    1.9411   -0.9155 H   0  0  0  0  0  0  0  0  0  0  0  0
   -1.1916    0.4253   -1.9072 H   0  0  0  0  0  0  0  0  0  0  0  0
  1  2  1  0
  2  3  1  0
  3  4  1  0
  4  5  1  0
  5  6  1  0
  6  7  1  0
  7  8  1  0
  8  9  1  0
  9  4  1  0
  8  6  1  0
  1 10  1  0
  1 11  1  0
  1 12  1  0
  2 13  1  0
  2 14  1  0
  4 15  1  0
  5 16  1  0
  5 17  1  0
  6 18  1  0
  8 19  1  0
  9 20  1  0
  9 21  1  0
M  END
