
     RDKit          3D

 17 16  0  0  0  0  0  0  0  0999 V2000
   -3.1293   -1.5196   -0.8737 C   0  0  0  0  0  0  0  0  0  0  0  0
   -2.5612   -0.4615    0.0467 C   0  0  0  0  0  0  0  0  0  0  0  0
   -1.1646   -0.3266   -0.1153 O   0  0  0  0  0  0  0  0  0  0  0  0
   -0.4377    0.5994    0.6339 C   0  0  0  0  0  0  0  0  0  0  0  0
   -1.0725    1.2992    1.4499 O   0  0  0  0  0  0  0  0  0  0  0  0
    1.0001    0.7262    0.4551 C   0  0  0  0  0  0  0  0  0  0  0  0
    2.1903    0.8207    0.3157 C   0  0  0  0  0  0  0  0  0  0  0  0
    3.6463    0.9511    0.1658 C   0  0  0  0  0  0  0  0  0  0  0  0
    4.1916    1.2495    1.4083 O   0  0  0  0  0  0  0  0  0  0  0  0
   -3.5014   -1.1269   -1.8253 H   0  0  0  0  0  0  0  0  0  0  0  0
   -3.8728   -2.1224   -0.3263 H   0  0  0  0  0  0  0  0  0  0  0  0
   -2.2588   -2.1939   -1.1270 H   0  0  0  0  0  0  0  0  0  0  0  0
   -3.0433    0.5010   -0.2223 H   0  0  0  0  0  0  0  0  0  0  0  0
   -2.7604   -0.7339    1.0811 H   0  0  0  0  0  0  0  0  0  0  0  0
    4.0623    0.0205   -0.2266 H   0  0  0  0  0  0  0  0  0  0  0  0
    3.9087    1.7970   -0.5089 H   0  0  0  0  0  0  0  0  0  0  0  0
    4.8028    0.5202    1.6477 H   0  0  0  0  0  0  0  0  0  0  0  0
  1  2  1  0
  2  3  1  0
  3  4  1  0
  4  5  2  0
  4  6  1  0
  6  7  3  0
  7  8  1  0
  8  9  1  0
  1 10  1  0
  1 11  1  0
  1 12  1  0
  2 13  1  0
  2 14  1  0
  8 15  1  0
  8 16  1  0
  9 17  1  0
M  END
