
     RDKit          3D

 19 19  0  0  0  0  0  0  0  0999 V2000
   -2.4114   -0.3692   -0.5865 C   0  0  0  0  0  0  0  0  0  0  0  0
   -1.8863   -0.3671    0.8141 C   0  0  0  0  0  0  0  0  0  0  0  0
   -0.5678   -0.7487    0.8852 O   0  0  0  0  0  0  0  0  0  0  0  0
    0.2832    0.0747    0.1640 C   0  0  0  0  0  0  0  0  0  0  0  0
    1.3659    0.6907    0.9746 C   0  0  0  0  0  0  0  0  0  0  0  0
    2.4688    0.8698    0.0083 C   0  0  0  0  0  0  0  0  0  0  0  0
    2.2851    0.0379   -1.0050 C   0  0  0  0  0  0  0  0  0  0  0  0
    1.0704   -0.7388   -0.7913 C   0  0  0  0  0  0  0  0  0  0  0  0
    0.8310   -1.8343   -1.3337 O   0  0  0  0  0  0  0  0  0  0  0  0
   -3.1596   -1.2010   -0.7406 H   0  0  0  0  0  0  0  0  0  0  0  0
   -2.9230    0.6135   -0.8047 H   0  0  0  0  0  0  0  0  0  0  0  0
   -1.5816   -0.5151   -1.3072 H   0  0  0  0  0  0  0  0  0  0  0  0
   -2.4773   -1.0981    1.4079 H   0  0  0  0  0  0  0  0  0  0  0  0
   -2.0791    0.6279    1.2861 H   0  0  0  0  0  0  0  0  0  0  0  0
   -0.2766    0.9032   -0.3445 H   0  0  0  0  0  0  0  0  0  0  0  0
    1.7155   -0.0781    1.7093 H   0  0  0  0  0  0  0  0  0  0  0  0
    1.0768    1.6337    1.4770 H   0  0  0  0  0  0  0  0  0  0  0  0
    3.3277    1.5555    0.0552 H   0  0  0  0  0  0  0  0  0  0  0  0
    2.9385   -0.0564   -1.8681 H   0  0  0  0  0  0  0  0  0  0  0  0
  1  2  1  0
  2  3  1  0
  3  4  1  0
  4  5  1  0
  5  6  1  0
  6  7  2  0
  7  8  1  0
  8  9  2  0
  8  4  1  0
  1 10  1  0
  1 11  1  0
  1 12  1  0
  2 13  1  0
  2 14  1  0
  4 15  1  0
  5 16  1  0
  5 17  1  0
  6 18  1  0
  7 19  1  0
M  END
