
     RDKit          3D

 15 14  0  0  0  0  0  0  0  0999 V2000
   -2.7034   -0.2997   -0.0690 C   0  0  0  0  0  0  0  0  0  0  0  0
   -1.9534    0.9569    0.2688 C   0  0  0  0  0  0  0  0  0  0  0  0
   -0.5604    0.8390    0.0094 O   0  0  0  0  0  0  0  0  0  0  0  0
    0.2499   -0.0864    0.6040 C   0  0  0  0  0  0  0  0  0  0  0  0
   -0.2396   -0.8916    1.4319 O   0  0  0  0  0  0  0  0  0  0  0  0
    1.6695   -0.1882    0.3236 C   0  0  0  0  0  0  0  0  0  0  0  0
    2.8517   -0.2643    0.0792 C   0  0  0  0  0  0  0  0  0  0  0  0
    4.2619   -0.3653   -0.1890 C   0  0  0  0  0  0  0  0  0  0  0  0
    4.7009    0.0242   -1.3014 O   0  0  0  0  0  0  0  0  0  0  0  0
   -2.1059   -1.2209    0.0636 H   0  0  0  0  0  0  0  0  0  0  0  0
   -3.0330   -0.2936   -1.1302 H   0  0  0  0  0  0  0  0  0  0  0  0
   -3.6121   -0.4267    0.5627 H   0  0  0  0  0  0  0  0  0  0  0  0
   -2.3510    1.8249   -0.2863 H   0  0  0  0  0  0  0  0  0  0  0  0
   -2.1388    1.1568    1.3569 H   0  0  0  0  0  0  0  0  0  0  0  0
    4.9636   -0.7653    0.5326 H   0  0  0  0  0  0  0  0  0  0  0  0
  1  2  1  0
  2  3  1  0
  3  4  1  0
  4  5  2  0
  4  6  1  0
  6  7  3  0
  7  8  1  0
  8  9  2  0
  1 10  1  0
  1 11  1  0
  1 12  1  0
  2 13  1  0
  2 14  1  0
  8 15  1  0
M  END
