
     RDKit          3D

 22 21  0  0  0  0  0  0  0  0999 V2000
   -3.1588   -0.5274    0.2869 C   0  0  0  0  0  0  0  0  0  0  0  0
   -1.9057   -0.1361    1.0380 C   0  0  0  0  0  0  0  0  0  0  0  0
   -0.7496   -0.5196    0.4121 O   0  0  0  0  0  0  0  0  0  0  0  0
   -0.5994    0.0297   -0.8567 C   0  0  0  0  0  0  0  0  0  0  0  0
    0.6599   -0.3907   -1.5339 C   0  0  0  0  0  0  0  0  0  0  0  0
    1.9030    0.0072   -0.7672 C   0  0  0  0  0  0  0  0  0  0  0  0
    1.8224   -0.6155    0.4790 O   0  0  0  0  0  0  0  0  0  0  0  0
    2.9304   -0.3123    1.2737 C   0  0  0  0  0  0  0  0  0  0  0  0
   -3.2555   -1.6005    0.1167 H   0  0  0  0  0  0  0  0  0  0  0  0
   -4.0220   -0.2014    0.9378 H   0  0  0  0  0  0  0  0  0  0  0  0
   -3.2784    0.0528   -0.6507 H   0  0  0  0  0  0  0  0  0  0  0  0
   -1.9145    0.9800    1.0976 H   0  0  0  0  0  0  0  0  0  0  0  0
   -1.9536   -0.5923    2.0281 H   0  0  0  0  0  0  0  0  0  0  0  0
   -1.4500   -0.3482   -1.4643 H   0  0  0  0  0  0  0  0  0  0  0  0
   -0.6471    1.1541   -0.7763 H   0  0  0  0  0  0  0  0  0  0  0  0
    0.6688    0.0509   -2.5478 H   0  0  0  0  0  0  0  0  0  0  0  0
    0.6343   -1.4917   -1.6530 H   0  0  0  0  0  0  0  0  0  0  0  0
    2.8216   -0.2661   -1.3244 H   0  0  0  0  0  0  0  0  0  0  0  0
    1.9483    1.0937   -0.5996 H   0  0  0  0  0  0  0  0  0  0  0  0
    3.8771   -0.6301    0.8257 H   0  0  0  0  0  0  0  0  0  0  0  0
    2.8875    0.8010    1.4401 H   0  0  0  0  0  0  0  0  0  0  0  0
    2.7813   -0.8408    2.2382 H   0  0  0  0  0  0  0  0  0  0  0  0
  1  2  1  0
  2  3  1  0
  3  4  1  0
  4  5  1  0
  5  6  1  0
  6  7  1  0
  7  8  1  0
  1  9  1  0
  1 10  1  0
  1 11  1  0
  2 12  1  0
  2 13  1  0
  4 14  1  0
  4 15  1  0
  5 16  1  0
  5 17  1  0
  6 18  1  0
  6 19  1  0
  8 20  1  0
  8 21  1  0
  8 22  1  0
M  END
