
     RDKit          3D

 23 23  0  0  0  0  0  0  0  0999 V2000
    3.3521    0.4714    0.2880 C   0  0  0  0  0  0  0  0  0  0  0  0
    2.5771   -0.3605   -0.6836 C   0  0  0  0  0  0  0  0  0  0  0  0
    1.3541   -0.7891   -0.1901 O   0  0  0  0  0  0  0  0  0  0  0  0
    0.5314    0.2583    0.1472 C   0  0  0  0  0  0  0  0  0  0  0  0
   -0.7827   -0.2255    0.6771 C   0  0  0  0  0  0  0  0  0  0  0  0
   -1.6518    0.9278    1.0335 C   0  0  0  0  0  0  0  0  0  0  0  0
   -2.9136    0.6444    0.7412 C   0  0  0  0  0  0  0  0  0  0  0  0
   -3.0047   -0.7381    0.1564 C   0  0  0  0  0  0  0  0  0  0  0  0
   -1.6085   -0.8869   -0.4048 C   0  0  0  0  0  0  0  0  0  0  0  0
    3.4386    0.0181    1.2869 H   0  0  0  0  0  0  0  0  0  0  0  0
    2.9691    1.5280    0.3492 H   0  0  0  0  0  0  0  0  0  0  0  0
    4.3897    0.5795   -0.1206 H   0  0  0  0  0  0  0  0  0  0  0  0
    3.2070   -1.2300   -0.9622 H   0  0  0  0  0  0  0  0  0  0  0  0
    2.4714    0.2434   -1.6238 H   0  0  0  0  0  0  0  0  0  0  0  0
    0.3005    0.8603   -0.7700 H   0  0  0  0  0  0  0  0  0  0  0  0
    1.0362    0.8628    0.9197 H   0  0  0  0  0  0  0  0  0  0  0  0
   -0.6824   -0.8631    1.5763 H   0  0  0  0  0  0  0  0  0  0  0  0
   -1.3330    1.8735    1.4689 H   0  0  0  0  0  0  0  0  0  0  0  0
   -3.7906    1.2646    0.8763 H   0  0  0  0  0  0  0  0  0  0  0  0
   -3.7763   -0.7887   -0.6394 H   0  0  0  0  0  0  0  0  0  0  0  0
   -3.2311   -1.4765    0.9355 H   0  0  0  0  0  0  0  0  0  0  0  0
   -1.3151   -1.9292   -0.5822 H   0  0  0  0  0  0  0  0  0  0  0  0
   -1.5373   -0.2447   -1.2986 H   0  0  0  0  0  0  0  0  0  0  0  0
  1  2  1  0
  2  3  1  0
  3  4  1  0
  4  5  1  0
  5  6  1  0
  6  7  2  0
  7  8  1  0
  8  9  1  0
  9  5  1  0
  1 10  1  0
  1 11  1  0
  1 12  1  0
  2 13  1  0
  2 14  1  0
  4 15  1  0
  4 16  1  0
  5 17  1  0
  6 18  1  0
  7 19  1  0
  8 20  1  0
  8 21  1  0
  9 22  1  0
  9 23  1  0
M  END
