
     RDKit          3D

 22 22  0  0  0  0  0  0  0  0999 V2000
   -2.9724    0.7538   -0.7857 C   0  0  0  0  0  0  0  0  0  0  0  0
   -1.6869    0.3562   -0.1023 C   0  0  0  0  0  0  0  0  0  0  0  0
   -0.8200   -0.1015   -1.0895 O   0  0  0  0  0  0  0  0  0  0  0  0
    0.3674   -0.4677   -0.4498 C   0  0  0  0  0  0  0  0  0  0  0  0
    0.2003   -1.5512    0.5805 C   0  0  0  0  0  0  0  0  0  0  0  0
    1.6152   -0.5311   -1.2486 C   0  0  0  0  0  0  0  0  0  0  0  0
    1.3759    0.5999   -0.2845 C   0  0  0  0  0  0  0  0  0  0  0  0
    2.2181    0.7197    0.9526 C   0  0  0  0  0  0  0  0  0  0  0  0
   -3.1378    1.8500   -0.6986 H   0  0  0  0  0  0  0  0  0  0  0  0
   -3.0004    0.4696   -1.8537 H   0  0  0  0  0  0  0  0  0  0  0  0
   -3.8233    0.2592   -0.2422 H   0  0  0  0  0  0  0  0  0  0  0  0
   -1.2523    1.2234    0.4316 H   0  0  0  0  0  0  0  0  0  0  0  0
   -1.8653   -0.4197    0.6928 H   0  0  0  0  0  0  0  0  0  0  0  0
   -0.1691   -1.1528    1.5571 H   0  0  0  0  0  0  0  0  0  0  0  0
   -0.5836   -2.2434    0.2100 H   0  0  0  0  0  0  0  0  0  0  0  0
    1.1242   -2.1598    0.7109 H   0  0  0  0  0  0  0  0  0  0  0  0
    1.4961   -0.3510   -2.3458 H   0  0  0  0  0  0  0  0  0  0  0  0
    2.4058   -1.2296   -0.9637 H   0  0  0  0  0  0  0  0  0  0  0  0
    1.1832    1.5710   -0.7917 H   0  0  0  0  0  0  0  0  0  0  0  0
    2.5638   -0.2544    1.3357 H   0  0  0  0  0  0  0  0  0  0  0  0
    1.6554    1.3118    1.7087 H   0  0  0  0  0  0  0  0  0  0  0  0
    3.1059    1.3477    0.6781 H   0  0  0  0  0  0  0  0  0  0  0  0
  1  2  1  0
  2  3  1  0
  3  4  1  0
  4  5  1  0
  4  6  1  0
  6  7  1  0
  7  8  1  0
  7  4  1  0
  1  9  1  0
  1 10  1  0
  1 11  1  0
  2 12  1  0
  2 13  1  0
  5 14  1  0
  5 15  1  0
  5 16  1  0
  6 17  1  0
  6 18  1  0
  7 19  1  0
  8 20  1  0
  8 21  1  0
  8 22  1  0
M  END
