
     RDKit          3D

 25 24  0  0  0  0  0  0  0  0999 V2000
   -2.6056   -2.0347   -0.1348 C   0  0  0  0  0  0  0  0  0  0  0  0
   -1.7432   -0.9405    0.4587 C   0  0  0  0  0  0  0  0  0  0  0  0
   -0.8621   -0.5065   -0.5176 O   0  0  0  0  0  0  0  0  0  0  0  0
   -0.0229    0.5057   -0.0608 C   0  0  0  0  0  0  0  0  0  0  0  0
   -0.1849    1.7614   -0.9182 C   0  0  0  0  0  0  0  0  0  0  0  0
    0.7574    2.8011   -0.3533 C   0  0  0  0  0  0  0  0  0  0  0  0
    1.4292    0.1141   -0.1108 C   0  0  0  0  0  0  0  0  0  0  0  0
    1.6011   -1.1062    0.7694 C   0  0  0  0  0  0  0  0  0  0  0  0
    2.9252   -1.5165    0.7642 O   0  0  0  0  0  0  0  0  0  0  0  0
   -1.8854   -2.7994   -0.5478 H   0  0  0  0  0  0  0  0  0  0  0  0
   -3.2058   -2.5513    0.6580 H   0  0  0  0  0  0  0  0  0  0  0  0
   -3.2444   -1.6661   -0.9528 H   0  0  0  0  0  0  0  0  0  0  0  0
   -1.1713   -1.3656    1.2853 H   0  0  0  0  0  0  0  0  0  0  0  0
   -2.3628   -0.1112    0.8673 H   0  0  0  0  0  0  0  0  0  0  0  0
   -0.2824    0.7073    0.9912 H   0  0  0  0  0  0  0  0  0  0  0  0
   -1.2522    2.1167   -0.8922 H   0  0  0  0  0  0  0  0  0  0  0  0
    0.1237    1.5666   -1.9633 H   0  0  0  0  0  0  0  0  0  0  0  0
    0.9098    2.6226    0.7497 H   0  0  0  0  0  0  0  0  0  0  0  0
    0.3946    3.8333   -0.5396 H   0  0  0  0  0  0  0  0  0  0  0  0
    1.7406    2.6515   -0.8435 H   0  0  0  0  0  0  0  0  0  0  0  0
    2.0142    0.9741    0.2793 H   0  0  0  0  0  0  0  0  0  0  0  0
    1.7094   -0.0644   -1.1580 H   0  0  0  0  0  0  0  0  0  0  0  0
    0.9649   -1.9009    0.3328 H   0  0  0  0  0  0  0  0  0  0  0  0
    1.2244   -0.8655    1.7681 H   0  0  0  0  0  0  0  0  0  0  0  0
    3.0286   -2.2254    0.0688 H   0  0  0  0  0  0  0  0  0  0  0  0
  1  2  1  0
  2  3  1  0
  3  4  1  0
  4  5  1  0
  5  6  1  0
  4  7  1  0
  7  8  1  0
  8  9  1  0
  1 10  1  0
  1 11  1  0
  1 12  1  0
  2 13  1  0
  2 14  1  0
  4 15  1  0
  5 16  1  0
  5 17  1  0
  6 18  1  0
  6 19  1  0
  6 20  1  0
  7 21  1  0
  7 22  1  0
  8 23  1  0
  8 24  1  0
  9 25  1  0
M  END
