
     RDKit          3D

 21 20  0  0  0  0  0  0  0  0999 V2000
    2.3861   -0.0033    1.4932 C   0  0  0  0  0  0  0  0  0  0  0  0
    1.6667    0.2885    0.2156 C   0  0  0  0  0  0  0  0  0  0  0  0
    0.2680    0.2313    0.4181 O   0  0  0  0  0  0  0  0  0  0  0  0
   -0.4224    0.4980   -0.7513 C   0  0  0  0  0  0  0  0  0  0  0  0
   -1.1527    1.8308   -0.5671 C   0  0  0  0  0  0  0  0  0  0  0  0
   -1.3525   -0.5853   -1.1309 C   0  0  0  0  0  0  0  0  0  0  0  0
   -2.0112   -0.4499   -2.1478 O   0  0  0  0  0  0  0  0  0  0  0  0
   -1.5271   -1.8160   -0.3507 C   0  0  0  0  0  0  0  0  0  0  0  0
   -0.7262   -1.8601    0.7868 O   0  0  0  0  0  0  0  0  0  0  0  0
    2.8414    0.9355    1.8660 H   0  0  0  0  0  0  0  0  0  0  0  0
    1.6588   -0.3359    2.2674 H   0  0  0  0  0  0  0  0  0  0  0  0
    3.1516   -0.7728    1.2849 H   0  0  0  0  0  0  0  0  0  0  0  0
    1.8809    1.2949   -0.2027 H   0  0  0  0  0  0  0  0  0  0  0  0
    1.8842   -0.4563   -0.5868 H   0  0  0  0  0  0  0  0  0  0  0  0
    0.3339    0.6874   -1.5423 H   0  0  0  0  0  0  0  0  0  0  0  0
   -1.7056    2.0825   -1.4759 H   0  0  0  0  0  0  0  0  0  0  0  0
   -0.3242    2.5931   -0.4754 H   0  0  0  0  0  0  0  0  0  0  0  0
   -1.7206    1.8717    0.3631 H   0  0  0  0  0  0  0  0  0  0  0  0
   -2.5833   -1.9286    0.0189 H   0  0  0  0  0  0  0  0  0  0  0  0
   -1.3592   -2.7422   -0.9700 H   0  0  0  0  0  0  0  0  0  0  0  0
   -1.1865   -1.3632    1.4871 H   0  0  0  0  0  0  0  0  0  0  0  0
  1  2  1  0
  2  3  1  0
  3  4  1  0
  4  5  1  0
  4  6  1  0
  6  7  2  0
  6  8  1  0
  8  9  1  0
  1 10  1  0
  1 11  1  0
  1 12  1  0
  2 13  1  0
  2 14  1  0
  4 15  1  0
  5 16  1  0
  5 17  1  0
  5 18  1  0
  8 19  1  0
  8 20  1  0
  9 21  1  0
M  END
