
     RDKit          3D

 13 12  0  0  0  0  0  0  0  0999 V2000
   -1.6874   -0.4673    0.5264 C   0  0  0  0  0  0  0  0  0  0  0  0
   -0.9874    0.8062    0.1970 C   0  0  0  0  0  0  0  0  0  0  0  0
    0.4059    0.7429    0.2837 O   0  0  0  0  0  0  0  0  0  0  0  0
    1.1634   -0.1303   -0.4836 C   0  0  0  0  0  0  0  0  0  0  0  0
    0.5031   -0.8688   -1.2710 O   0  0  0  0  0  0  0  0  0  0  0  0
    2.6148   -0.1973   -0.3943 C   0  0  0  0  0  0  0  0  0  0  0  0
    3.1812    0.5681    0.4092 O   0  0  0  0  0  0  0  0  0  0  0  0
   -1.8956   -1.0433   -0.4163 H   0  0  0  0  0  0  0  0  0  0  0  0
   -1.1256   -1.0563    1.2680 H   0  0  0  0  0  0  0  0  0  0  0  0
   -2.6759   -0.2186    0.9551 H   0  0  0  0  0  0  0  0  0  0  0  0
   -1.3234    1.5856    0.9333 H   0  0  0  0  0  0  0  0  0  0  0  0
   -1.2969    1.1852   -0.7926 H   0  0  0  0  0  0  0  0  0  0  0  0
    3.1238   -0.9063   -1.0287 H   0  0  0  0  0  0  0  0  0  0  0  0
  1  2  1  0
  2  3  1  0
  3  4  1  0
  4  5  2  0
  4  6  1  0
  6  7  2  0
  1  8  1  0
  1  9  1  0
  1 10  1  0
  2 11  1  0
  2 12  1  0
  6 13  1  0
M  END
