
     RDKit          3D

 23 22  0  0  0  0  0  0  0  0999 V2000
    2.4933    0.8831    0.0291 C   0  0  0  0  0  0  0  0  0  0  0  0
    2.2653   -0.5306   -0.4251 C   0  0  0  0  0  0  0  0  0  0  0  0
    0.9197   -0.8319   -0.6149 O   0  0  0  0  0  0  0  0  0  0  0  0
    0.2641   -0.6512    0.5823 C   0  0  0  0  0  0  0  0  0  0  0  0
   -1.2101   -0.9501    0.4978 C   0  0  0  0  0  0  0  0  0  0  0  0
   -1.4614   -2.2680    0.1136 O   0  0  0  0  0  0  0  0  0  0  0  0
   -1.9391    0.0109   -0.4074 C   0  0  0  0  0  0  0  0  0  0  0  0
   -1.7903    1.4074    0.1099 C   0  0  0  0  0  0  0  0  0  0  0  0
   -1.5525   -0.1175   -1.7346 O   0  0  0  0  0  0  0  0  0  0  0  0
    3.3735    1.3296   -0.4830 H   0  0  0  0  0  0  0  0  0  0  0  0
    1.5947    1.5189   -0.1315 H   0  0  0  0  0  0  0  0  0  0  0  0
    2.7159    0.9505    1.1314 H   0  0  0  0  0  0  0  0  0  0  0  0
    2.8537   -0.7056   -1.3736 H   0  0  0  0  0  0  0  0  0  0  0  0
    2.7439   -1.1994    0.3311 H   0  0  0  0  0  0  0  0  0  0  0  0
    0.6984   -1.3664    1.3108 H   0  0  0  0  0  0  0  0  0  0  0  0
    0.3703    0.3574    1.0146 H   0  0  0  0  0  0  0  0  0  0  0  0
   -1.6267   -0.8216    1.5182 H   0  0  0  0  0  0  0  0  0  0  0  0
   -0.6106   -2.7656    0.2956 H   0  0  0  0  0  0  0  0  0  0  0  0
   -3.0254   -0.2521   -0.3352 H   0  0  0  0  0  0  0  0  0  0  0  0
   -0.9618    1.9026   -0.3951 H   0  0  0  0  0  0  0  0  0  0  0  0
   -2.7460    1.9874   -0.0412 H   0  0  0  0  0  0  0  0  0  0  0  0
   -1.6697    1.3610    1.2193 H   0  0  0  0  0  0  0  0  0  0  0  0
   -1.6992    0.7512   -2.2121 H   0  0  0  0  0  0  0  0  0  0  0  0
  1  2  1  0
  2  3  1  0
  3  4  1  0
  4  5  1  0
  5  6  1  0
  5  7  1  0
  7  8  1  0
  7  9  1  0
  1 10  1  0
  1 11  1  0
  1 12  1  0
  2 13  1  0
  2 14  1  0
  4 15  1  0
  4 16  1  0
  5 17  1  0
  6 18  1  0
  7 19  1  0
  8 20  1  0
  8 21  1  0
  8 22  1  0
  9 23  1  0
M  END
