
     RDKit          3D

 23 23  0  0  0  0  0  0  0  0999 V2000
   -3.3777    0.0934   -0.2439 C   0  0  0  0  0  0  0  0  0  0  0  0
   -2.1558   -0.2109   -1.0603 C   0  0  0  0  0  0  0  0  0  0  0  0
   -1.0894   -0.6608   -0.2929 O   0  0  0  0  0  0  0  0  0  0  0  0
   -0.6849    0.2544    0.6592 C   0  0  0  0  0  0  0  0  0  0  0  0
    0.4738   -0.3547    1.4199 C   0  0  0  0  0  0  0  0  0  0  0  0
    1.6360   -0.6736    0.5131 C   0  0  0  0  0  0  0  0  0  0  0  0
    2.1713    0.5498   -0.1839 C   0  0  0  0  0  0  0  0  0  0  0  0
    3.3426    0.2684   -1.1059 C   0  0  0  0  0  0  0  0  0  0  0  0
    3.4473    0.9853    0.1170 O   0  0  0  0  0  0  0  0  0  0  0  0
   -4.2612   -0.2780   -0.8054 H   0  0  0  0  0  0  0  0  0  0  0  0
   -3.5345    1.1898   -0.0844 H   0  0  0  0  0  0  0  0  0  0  0  0
   -3.3877   -0.4476    0.7291 H   0  0  0  0  0  0  0  0  0  0  0  0
   -2.3750   -1.0051   -1.8044 H   0  0  0  0  0  0  0  0  0  0  0  0
   -1.9036    0.7115   -1.6292 H   0  0  0  0  0  0  0  0  0  0  0  0
   -1.5218    0.3441    1.4050 H   0  0  0  0  0  0  0  0  0  0  0  0
   -0.3796    1.2253    0.2661 H   0  0  0  0  0  0  0  0  0  0  0  0
    0.8488    0.3788    2.1791 H   0  0  0  0  0  0  0  0  0  0  0  0
    0.1621   -1.3025    1.8995 H   0  0  0  0  0  0  0  0  0  0  0  0
    2.4591   -1.0778    1.1381 H   0  0  0  0  0  0  0  0  0  0  0  0
    1.3542   -1.4125   -0.2464 H   0  0  0  0  0  0  0  0  0  0  0  0
    1.4439    1.2662   -0.6455 H   0  0  0  0  0  0  0  0  0  0  0  0
    3.5067    0.8948   -1.9906 H   0  0  0  0  0  0  0  0  0  0  0  0
    3.8255   -0.7384   -1.0528 H   0  0  0  0  0  0  0  0  0  0  0  0
  1  2  1  0
  2  3  1  0
  3  4  1  0
  4  5  1  0
  5  6  1  0
  6  7  1  0
  7  8  1  0
  8  9  1  0
  9  7  1  0
  1 10  1  0
  1 11  1  0
  1 12  1  0
  2 13  1  0
  2 14  1  0
  4 15  1  0
  4 16  1  0
  5 17  1  0
  5 18  1  0
  6 19  1  0
  6 20  1  0
  7 21  1  0
  8 22  1  0
  8 23  1  0
M  END
