
     RDKit          3D

 23 22  0  0  0  0  0  0  0  0999 V2000
    2.9469   -0.2280    0.6232 C   0  0  0  0  0  0  0  0  0  0  0  0
    2.2909   -0.8170   -0.5982 C   0  0  0  0  0  0  0  0  0  0  0  0
    0.9262   -0.8827   -0.5200 O   0  0  0  0  0  0  0  0  0  0  0  0
    0.3184    0.3564   -0.3521 C   0  0  0  0  0  0  0  0  0  0  0  0
   -1.1864    0.1944   -0.2753 C   0  0  0  0  0  0  0  0  0  0  0  0
   -1.7711    1.5709   -0.0508 C   0  0  0  0  0  0  0  0  0  0  0  0
   -1.4419    2.3898   -1.1058 O   0  0  0  0  0  0  0  0  0  0  0  0
   -1.5287   -0.6214    0.8009 O   0  0  0  0  0  0  0  0  0  0  0  0
   -2.2196   -1.7602    0.3513 C   0  0  0  0  0  0  0  0  0  0  0  0
    3.0924    0.8831    0.5119 H   0  0  0  0  0  0  0  0  0  0  0  0
    3.9729   -0.6465    0.6895 H   0  0  0  0  0  0  0  0  0  0  0  0
    2.4270   -0.4737    1.5566 H   0  0  0  0  0  0  0  0  0  0  0  0
    2.6637   -0.2534   -1.4811 H   0  0  0  0  0  0  0  0  0  0  0  0
    2.6757   -1.8520   -0.7057 H   0  0  0  0  0  0  0  0  0  0  0  0
    0.6740    0.7661    0.6172 H   0  0  0  0  0  0  0  0  0  0  0  0
    0.5587    1.0576   -1.1509 H   0  0  0  0  0  0  0  0  0  0  0  0
   -1.5522   -0.2762   -1.1941 H   0  0  0  0  0  0  0  0  0  0  0  0
   -2.8831    1.5186    0.0176 H   0  0  0  0  0  0  0  0  0  0  0  0
   -1.4042    1.9980    0.9039 H   0  0  0  0  0  0  0  0  0  0  0  0
   -1.2999    3.3163   -0.7943 H   0  0  0  0  0  0  0  0  0  0  0  0
   -2.4932   -2.4109    1.2035 H   0  0  0  0  0  0  0  0  0  0  0  0
   -3.1808   -1.4694   -0.1462 H   0  0  0  0  0  0  0  0  0  0  0  0
   -1.5857   -2.3599   -0.3183 H   0  0  0  0  0  0  0  0  0  0  0  0
  1  2  1  0
  2  3  1  0
  3  4  1  0
  4  5  1  0
  5  6  1  0
  6  7  1  0
  5  8  1  0
  8  9  1  0
  1 10  1  0
  1 11  1  0
  1 12  1  0
  2 13  1  0
  2 14  1  0
  4 15  1  0
  4 16  1  0
  5 17  1  0
  6 18  1  0
  6 19  1  0
  7 20  1  0
  9 21  1  0
  9 22  1  0
  9 23  1  0
M  END
