
     RDKit          3D

 20 19  0  0  0  0  0  0  0  0999 V2000
   -3.2840    0.2207    0.1799 C   0  0  0  0  0  0  0  0  0  0  0  0
   -1.8236   -0.1312    0.4884 C   0  0  0  0  0  0  0  0  0  0  0  0
   -1.2779   -0.6148   -0.6697 O   0  0  0  0  0  0  0  0  0  0  0  0
    0.0357   -0.9920   -0.6057 C   0  0  0  0  0  0  0  0  0  0  0  0
    0.9003    0.1834   -0.2111 C   0  0  0  0  0  0  0  0  0  0  0  0
    2.3690   -0.2264   -0.1373 C   0  0  0  0  0  0  0  0  0  0  0  0
    3.1597    0.9701    0.2538 C   0  0  0  0  0  0  0  0  0  0  0  0
    2.6599    2.0627    0.4651 O   0  0  0  0  0  0  0  0  0  0  0  0
   -3.4030    0.6171   -0.8399 H   0  0  0  0  0  0  0  0  0  0  0  0
   -3.6687    0.9716    0.9124 H   0  0  0  0  0  0  0  0  0  0  0  0
   -3.9401   -0.6685    0.2817 H   0  0  0  0  0  0  0  0  0  0  0  0
   -1.8482   -0.8732    1.3205 H   0  0  0  0  0  0  0  0  0  0  0  0
   -1.3749    0.7872    0.8814 H   0  0  0  0  0  0  0  0  0  0  0  0
    0.3451   -1.2503   -1.6612 H   0  0  0  0  0  0  0  0  0  0  0  0
    0.2356   -1.8850   -0.0120 H   0  0  0  0  0  0  0  0  0  0  0  0
    0.6491    0.5997    0.7696 H   0  0  0  0  0  0  0  0  0  0  0  0
    0.8025    0.9961   -0.9596 H   0  0  0  0  0  0  0  0  0  0  0  0
    2.5107   -0.9761    0.6689 H   0  0  0  0  0  0  0  0  0  0  0  0
    2.7171   -0.6879   -1.0772 H   0  0  0  0  0  0  0  0  0  0  0  0
    4.2356    0.8966    0.3641 H   0  0  0  0  0  0  0  0  0  0  0  0
  1  2  1  0
  2  3  1  0
  3  4  1  0
  4  5  1  0
  5  6  1  0
  6  7  1  0
  7  8  2  0
  1  9  1  0
  1 10  1  0
  1 11  1  0
  2 12  1  0
  2 13  1  0
  4 14  1  0
  4 15  1  0
  5 16  1  0
  5 17  1  0
  6 18  1  0
  6 19  1  0
  7 20  1  0
M  END
