
     RDKit          3D

 25 25  0  0  0  0  0  0  0  0999 V2000
    3.3124   -0.2981   -0.1749 C   0  0  0  0  0  0  0  0  0  0  0  0
    2.5605   -0.1338    1.1537 C   0  0  0  0  0  0  0  0  0  0  0  0
    1.7457    0.9642    1.0000 O   0  0  0  0  0  0  0  0  0  0  0  0
    0.8407    0.8870   -0.0301 C   0  0  0  0  0  0  0  0  0  0  0  0
   -0.0988   -0.2493    0.1709 C   0  0  0  0  0  0  0  0  0  0  0  0
   -1.1472   -0.4101   -0.9212 C   0  0  0  0  0  0  0  0  0  0  0  0
   -2.1851   -0.5438    0.1439 C   0  0  0  0  0  0  0  0  0  0  0  0
   -3.4005    0.3452   -0.0135 C   0  0  0  0  0  0  0  0  0  0  0  0
   -1.2228    0.0880    1.1281 C   0  0  0  0  0  0  0  0  0  0  0  0
    2.6537   -0.9131   -0.8173 H   0  0  0  0  0  0  0  0  0  0  0  0
    3.5010    0.7037   -0.5718 H   0  0  0  0  0  0  0  0  0  0  0  0
    4.2217   -0.8941    0.0262 H   0  0  0  0  0  0  0  0  0  0  0  0
    3.3433    0.0629    1.9451 H   0  0  0  0  0  0  0  0  0  0  0  0
    2.0502   -1.0378    1.4618 H   0  0  0  0  0  0  0  0  0  0  0  0
    0.3059    1.8546   -0.1480 H   0  0  0  0  0  0  0  0  0  0  0  0
    1.4100    0.7443   -0.9805 H   0  0  0  0  0  0  0  0  0  0  0  0
    0.3760   -1.1797    0.4620 H   0  0  0  0  0  0  0  0  0  0  0  0
   -1.2355    0.4419   -1.6103 H   0  0  0  0  0  0  0  0  0  0  0  0
   -0.9454   -1.3512   -1.4770 H   0  0  0  0  0  0  0  0  0  0  0  0
   -2.4012   -1.5754    0.4170 H   0  0  0  0  0  0  0  0  0  0  0  0
   -4.2230   -0.0664    0.6302 H   0  0  0  0  0  0  0  0  0  0  0  0
   -3.2111    1.3690    0.3874 H   0  0  0  0  0  0  0  0  0  0  0  0
   -3.7246    0.4665   -1.0486 H   0  0  0  0  0  0  0  0  0  0  0  0
   -1.3389    1.1708    1.2117 H   0  0  0  0  0  0  0  0  0  0  0  0
   -1.1869   -0.4452    2.0921 H   0  0  0  0  0  0  0  0  0  0  0  0
  1  2  1  0
  2  3  1  0
  3  4  1  0
  4  5  1  0
  5  6  1  0
  6  7  1  0
  7  8  1  0
  7  9  1  0
  9  5  1  0
  1 10  1  0
  1 11  1  0
  1 12  1  0
  2 13  1  0
  2 14  1  0
  4 15  1  0
  4 16  1  0
  5 17  1  0
  6 18  1  0
  6 19  1  0
  7 20  1  0
  8 21  1  0
  8 22  1  0
  8 23  1  0
  9 24  1  0
  9 25  1  0
M  END
