
     RDKit          3D

 23 23  0  0  0  0  0  0  0  0999 V2000
    3.3884    0.6540    0.4034 C   0  0  0  0  0  0  0  0  0  0  0  0
    2.1608   -0.1910    0.1524 C   0  0  0  0  0  0  0  0  0  0  0  0
    1.6101    0.0393   -1.0925 O   0  0  0  0  0  0  0  0  0  0  0  0
    0.4897   -0.7739   -1.2472 C   0  0  0  0  0  0  0  0  0  0  0  0
   -0.4958   -0.4347   -0.1769 C   0  0  0  0  0  0  0  0  0  0  0  0
   -0.9688    1.0125   -0.2038 C   0  0  0  0  0  0  0  0  0  0  0  0
   -1.9153   -0.1280   -0.5016 C   0  0  0  0  0  0  0  0  0  0  0  0
   -2.9738   -0.3264    0.5382 C   0  0  0  0  0  0  0  0  0  0  0  0
   -2.3198   -0.3436   -1.8053 O   0  0  0  0  0  0  0  0  0  0  0  0
    3.1444    1.6601    0.7939 H   0  0  0  0  0  0  0  0  0  0  0  0
    4.0398    0.0954    1.0910 H   0  0  0  0  0  0  0  0  0  0  0  0
    3.9751    0.8137   -0.5342 H   0  0  0  0  0  0  0  0  0  0  0  0
    2.4774   -1.2547    0.1856 H   0  0  0  0  0  0  0  0  0  0  0  0
    1.4266    0.0643    0.9509 H   0  0  0  0  0  0  0  0  0  0  0  0
    0.7919   -1.8437   -1.2168 H   0  0  0  0  0  0  0  0  0  0  0  0
    0.0248   -0.5571   -2.2248 H   0  0  0  0  0  0  0  0  0  0  0  0
   -0.3473   -0.9271    0.8034 H   0  0  0  0  0  0  0  0  0  0  0  0
   -0.7217    1.6344   -1.0617 H   0  0  0  0  0  0  0  0  0  0  0  0
   -0.9921    1.4794    0.8027 H   0  0  0  0  0  0  0  0  0  0  0  0
   -3.2026   -1.3785    0.7592 H   0  0  0  0  0  0  0  0  0  0  0  0
   -2.6878    0.1559    1.5066 H   0  0  0  0  0  0  0  0  0  0  0  0
   -3.8882    0.2330    0.1918 H   0  0  0  0  0  0  0  0  0  0  0  0
   -3.0160    0.3166   -2.0153 H   0  0  0  0  0  0  0  0  0  0  0  0
  1  2  1  0
  2  3  1  0
  3  4  1  0
  4  5  1  0
  5  6  1  0
  6  7  1  0
  7  8  1  0
  7  9  1  0
  7  5  1  0
  1 10  1  0
  1 11  1  0
  1 12  1  0
  2 13  1  0
  2 14  1  0
  4 15  1  0
  4 16  1  0
  5 17  1  0
  6 18  1  0
  6 19  1  0
  8 20  1  0
  8 21  1  0
  8 22  1  0
  9 23  1  0
M  END
