
     RDKit          3D

 21 20  0  0  0  0  0  0  0  0999 V2000
   -3.5275   -0.8854    0.0161 C   0  0  0  0  0  0  0  0  0  0  0  0
   -2.2889   -0.0458    0.3533 C   0  0  0  0  0  0  0  0  0  0  0  0
   -1.7662    0.4924   -0.8031 O   0  0  0  0  0  0  0  0  0  0  0  0
   -0.6539    1.2611   -0.6092 C   0  0  0  0  0  0  0  0  0  0  0  0
    0.5007    0.4934   -0.1020 C   0  0  0  0  0  0  0  0  0  0  0  0
    0.4801   -0.7514    0.0508 O   0  0  0  0  0  0  0  0  0  0  0  0
    1.7062    1.1003    0.2467 O   0  0  0  0  0  0  0  0  0  0  0  0
    2.8087    0.3394    0.7346 C   0  0  0  0  0  0  0  0  0  0  0  0
    3.2735   -0.6926   -0.2561 C   0  0  0  0  0  0  0  0  0  0  0  0
   -4.4493   -0.2670    0.1196 H   0  0  0  0  0  0  0  0  0  0  0  0
   -3.4859   -1.2487   -1.0340 H   0  0  0  0  0  0  0  0  0  0  0  0
   -3.5919   -1.7313    0.7335 H   0  0  0  0  0  0  0  0  0  0  0  0
   -1.5533   -0.6162    0.9113 H   0  0  0  0  0  0  0  0  0  0  0  0
   -2.6131    0.7981    1.0408 H   0  0  0  0  0  0  0  0  0  0  0  0
   -0.3900    1.8302   -1.5320 H   0  0  0  0  0  0  0  0  0  0  0  0
   -0.8723    2.0705    0.1508 H   0  0  0  0  0  0  0  0  0  0  0  0
    2.5129   -0.2229    1.6656 H   0  0  0  0  0  0  0  0  0  0  0  0
    3.6363    0.9882    1.0235 H   0  0  0  0  0  0  0  0  0  0  0  0
    3.3145   -0.3080   -1.2983 H   0  0  0  0  0  0  0  0  0  0  0  0
    2.6506   -1.6067   -0.1963 H   0  0  0  0  0  0  0  0  0  0  0  0
    4.3087   -0.9978    0.0719 H   0  0  0  0  0  0  0  0  0  0  0  0
  1  2  1  0
  2  3  1  0
  3  4  1  0
  4  5  1  0
  5  6  2  0
  5  7  1  0
  7  8  1  0
  8  9  1  0
  1 10  1  0
  1 11  1  0
  1 12  1  0
  2 13  1  0
  2 14  1  0
  4 15  1  0
  4 16  1  0
  8 17  1  0
  8 18  1  0
  9 19  1  0
  9 20  1  0
  9 21  1  0
M  END
