
     RDKit          3D

 21 21  0  0  0  0  0  0  0  0999 V2000
    2.6783    1.2957    0.0134 C   0  0  0  0  0  0  0  0  0  0  0  0
    1.6021    0.5252   -0.6978 C   0  0  0  0  0  0  0  0  0  0  0  0
    0.6569   -0.0041    0.2022 O   0  0  0  0  0  0  0  0  0  0  0  0
   -0.2994   -0.6961   -0.5077 C   0  0  0  0  0  0  0  0  0  0  0  0
   -0.5436   -2.0494    0.1751 C   0  0  0  0  0  0  0  0  0  0  0  0
   -1.4665   -1.3385    1.0863 C   0  0  0  0  0  0  0  0  0  0  0  0
   -1.8487   -1.4759    2.2191 O   0  0  0  0  0  0  0  0  0  0  0  0
   -1.7168   -0.3782   -0.0091 C   0  0  0  0  0  0  0  0  0  0  0  0
   -1.8864    1.0606    0.4189 C   0  0  0  0  0  0  0  0  0  0  0  0
    3.1156    2.0711   -0.6466 H   0  0  0  0  0  0  0  0  0  0  0  0
    2.2964    1.8218    0.9189 H   0  0  0  0  0  0  0  0  0  0  0  0
    3.5291    0.6519    0.3351 H   0  0  0  0  0  0  0  0  0  0  0  0
    1.0410    1.2046   -1.3859 H   0  0  0  0  0  0  0  0  0  0  0  0
    2.0703   -0.2471   -1.3135 H   0  0  0  0  0  0  0  0  0  0  0  0
   -0.2053   -0.7396   -1.5906 H   0  0  0  0  0  0  0  0  0  0  0  0
   -1.1193   -2.7374   -0.5114 H   0  0  0  0  0  0  0  0  0  0  0  0
    0.3457   -2.5002    0.6181 H   0  0  0  0  0  0  0  0  0  0  0  0
   -2.4854   -0.7681   -0.6940 H   0  0  0  0  0  0  0  0  0  0  0  0
   -2.5626    1.5334   -0.3367 H   0  0  0  0  0  0  0  0  0  0  0  0
   -0.9047    1.5906    0.2883 H   0  0  0  0  0  0  0  0  0  0  0  0
   -2.2967    1.1799    1.4181 H   0  0  0  0  0  0  0  0  0  0  0  0
  1  2  1  0
  2  3  1  0
  3  4  1  0
  4  5  1  0
  5  6  1  0
  6  7  2  0
  6  8  1  0
  8  9  1  0
  8  4  1  0
  1 10  1  0
  1 11  1  0
  1 12  1  0
  2 13  1  0
  2 14  1  0
  4 15  1  0
  5 16  1  0
  5 17  1  0
  8 18  1  0
  9 19  1  0
  9 20  1  0
  9 21  1  0
M  END
