
     RDKit          3D

 18 18  0  0  0  0  0  0  0  0999 V2000
    2.6779   -0.3016    0.4283 C   0  0  0  0  0  0  0  0  0  0  0  0
    1.2575    0.2901    0.4503 C   0  0  0  0  0  0  0  0  0  0  0  0
    0.4833   -0.5154   -0.2992 O   0  0  0  0  0  0  0  0  0  0  0  0
   -0.8300   -0.2414   -0.4694 C   0  0  0  0  0  0  0  0  0  0  0  0
   -1.5444   -1.2275   -1.3341 C   0  0  0  0  0  0  0  0  0  0  0  0
   -2.7203   -1.0505   -1.5295 O   0  0  0  0  0  0  0  0  0  0  0  0
   -1.4284    1.0995   -0.3824 C   0  0  0  0  0  0  0  0  0  0  0  0
   -1.5702    0.2095    0.7923 C   0  0  0  0  0  0  0  0  0  0  0  0
    3.4120    0.4926    0.2785 H   0  0  0  0  0  0  0  0  0  0  0  0
    2.8221   -0.8619    1.3814 H   0  0  0  0  0  0  0  0  0  0  0  0
    2.7886   -1.0331   -0.4001 H   0  0  0  0  0  0  0  0  0  0  0  0
    1.3320    1.2893   -0.0680 H   0  0  0  0  0  0  0  0  0  0  0  0
    0.9963    0.4769    1.4857 H   0  0  0  0  0  0  0  0  0  0  0  0
   -1.0340   -2.0523   -1.7597 H   0  0  0  0  0  0  0  0  0  0  0  0
   -0.7834    2.0042   -0.2678 H   0  0  0  0  0  0  0  0  0  0  0  0
   -2.3312    1.3067   -0.9970 H   0  0  0  0  0  0  0  0  0  0  0  0
   -1.0108    0.4445    1.7012 H   0  0  0  0  0  0  0  0  0  0  0  0
   -2.5170   -0.3295    0.9896 H   0  0  0  0  0  0  0  0  0  0  0  0
  1  2  1  0
  2  3  1  0
  3  4  1  0
  4  5  1  0
  5  6  2  0
  4  7  1  0
  7  8  1  0
  8  4  1  0
  1  9  1  0
  1 10  1  0
  1 11  1  0
  2 12  1  0
  2 13  1  0
  5 14  1  0
  7 15  1  0
  7 16  1  0
  8 17  1  0
  8 18  1  0
M  END
