
     RDKit          3D

 21 21  0  0  0  0  0  0  0  0999 V2000
    2.3458   -0.0318    0.4186 C   0  0  0  0  0  0  0  0  0  0  0  0
    1.5198   -0.8751   -0.5185 C   0  0  0  0  0  0  0  0  0  0  0  0
    0.2681   -1.0171   -0.0967 O   0  0  0  0  0  0  0  0  0  0  0  0
   -0.6420   -0.0789    0.0330 C   0  0  0  0  0  0  0  0  0  0  0  0
   -1.9841   -0.5570    0.6007 C   0  0  0  0  0  0  0  0  0  0  0  0
   -1.7137   -1.0841    1.8584 O   0  0  0  0  0  0  0  0  0  0  0  0
   -0.9573    0.8208   -1.1532 C   0  0  0  0  0  0  0  0  0  0  0  0
   -1.4598    1.7236   -0.1706 O   0  0  0  0  0  0  0  0  0  0  0  0
   -0.3188    1.2762    0.5795 C   0  0  0  0  0  0  0  0  0  0  0  0
    2.6868    0.8685   -0.1195 H   0  0  0  0  0  0  0  0  0  0  0  0
    1.8192    0.2588    1.3413 H   0  0  0  0  0  0  0  0  0  0  0  0
    3.2418   -0.6091    0.7952 H   0  0  0  0  0  0  0  0  0  0  0  0
    1.6508   -0.5495   -1.5808 H   0  0  0  0  0  0  0  0  0  0  0  0
    1.9907   -1.9113   -0.5324 H   0  0  0  0  0  0  0  0  0  0  0  0
   -2.3723   -1.3559   -0.0281 H   0  0  0  0  0  0  0  0  0  0  0  0
   -2.6846    0.2751    0.6463 H   0  0  0  0  0  0  0  0  0  0  0  0
   -1.5801   -2.0816    1.7752 H   0  0  0  0  0  0  0  0  0  0  0  0
   -0.1123    1.2896   -1.6544 H   0  0  0  0  0  0  0  0  0  0  0  0
   -1.8080    0.5072   -1.7829 H   0  0  0  0  0  0  0  0  0  0  0  0
    0.5504    1.7762    0.1102 H   0  0  0  0  0  0  0  0  0  0  0  0
   -0.4406    1.3552    1.6561 H   0  0  0  0  0  0  0  0  0  0  0  0
  1  2  1  0
  2  3  1  0
  3  4  1  0
  4  5  1  0
  5  6  1  0
  4  7  1  0
  7  8  1  0
  8  9  1  0
  9  4  1  0
  1 10  1  0
  1 11  1  0
  1 12  1  0
  2 13  1  0
  2 14  1  0
  5 15  1  0
  5 16  1  0
  6 17  1  0
  7 18  1  0
  7 19  1  0
  9 20  1  0
  9 21  1  0
M  END
