
     RDKit          3D

 19 18  0  0  0  0  0  0  0  0999 V2000
    2.3043   -0.3913    0.3628 C   0  0  0  0  0  0  0  0  0  0  0  0
    1.6454    0.2015   -0.8292 C   0  0  0  0  0  0  0  0  0  0  0  0
    0.2885    0.0353   -0.8977 O   0  0  0  0  0  0  0  0  0  0  0  0
   -0.4227    0.5715    0.1400 C   0  0  0  0  0  0  0  0  0  0  0  0
   -1.4610    1.5344   -0.3787 C   0  0  0  0  0  0  0  0  0  0  0  0
   -2.1977    2.1160    0.4004 O   0  0  0  0  0  0  0  0  0  0  0  0
   -1.1739   -0.5820    0.8025 C   0  0  0  0  0  0  0  0  0  0  0  0
   -2.0898   -1.2304   -0.1730 C   0  0  0  0  0  0  0  0  0  0  0  0
   -2.2160   -0.8879   -1.3233 O   0  0  0  0  0  0  0  0  0  0  0  0
    3.3729   -0.6183    0.0755 H   0  0  0  0  0  0  0  0  0  0  0  0
    2.4034    0.3269    1.2203 H   0  0  0  0  0  0  0  0  0  0  0  0
    1.8845   -1.3316    0.7224 H   0  0  0  0  0  0  0  0  0  0  0  0
    2.0800   -0.2826   -1.7431 H   0  0  0  0  0  0  0  0  0  0  0  0
    1.9161    1.2726   -0.8924 H   0  0  0  0  0  0  0  0  0  0  0  0
    0.1774    1.0753    0.9114 H   0  0  0  0  0  0  0  0  0  0  0  0
   -1.5667    1.7216   -1.4396 H   0  0  0  0  0  0  0  0  0  0  0  0
   -0.4603   -1.3046    1.2362 H   0  0  0  0  0  0  0  0  0  0  0  0
   -1.8083   -0.1606    1.6141 H   0  0  0  0  0  0  0  0  0  0  0  0
   -2.6760   -2.0657    0.1914 H   0  0  0  0  0  0  0  0  0  0  0  0
  1  2  1  0
  2  3  1  0
  3  4  1  0
  4  5  1  0
  5  6  2  0
  4  7  1  0
  7  8  1  0
  8  9  2  0
  1 10  1  0
  1 11  1  0
  1 12  1  0
  2 13  1  0
  2 14  1  0
  4 15  1  0
  5 16  1  0
  7 17  1  0
  7 18  1  0
  8 19  1  0
M  END
