
     RDKit          3D

 23 24  0  0  0  0  0  0  0  0999 V2000
    3.3478   -0.1734   -0.0175 C   0  0  0  0  0  0  0  0  0  0  0  0
    1.9212    0.0087    0.4749 C   0  0  0  0  0  0  0  0  0  0  0  0
    1.0845   -0.2121   -0.5880 O   0  0  0  0  0  0  0  0  0  0  0  0
   -0.2063   -0.0923   -0.3280 C   0  0  0  0  0  0  0  0  0  0  0  0
   -0.8873   -0.9546    0.6939 C   0  0  0  0  0  0  0  0  0  0  0  0
   -2.3041   -0.3473    0.6324 C   0  0  0  0  0  0  0  0  0  0  0  0
   -2.0897    0.6392   -0.4610 C   0  0  0  0  0  0  0  0  0  0  0  0
   -0.7732    1.2936   -0.0142 C   0  0  0  0  0  0  0  0  0  0  0  0
   -1.2050   -0.1114   -1.4651 C   0  0  0  0  0  0  0  0  0  0  0  0
    3.9548   -0.7818    0.6997 H   0  0  0  0  0  0  0  0  0  0  0  0
    3.3932   -0.7040   -0.9884 H   0  0  0  0  0  0  0  0  0  0  0  0
    3.8239    0.8434   -0.1129 H   0  0  0  0  0  0  0  0  0  0  0  0
    1.7662   -0.8042    1.2411 H   0  0  0  0  0  0  0  0  0  0  0  0
    1.7744    0.9731    0.9859 H   0  0  0  0  0  0  0  0  0  0  0  0
   -0.4653   -0.8984    1.6934 H   0  0  0  0  0  0  0  0  0  0  0  0
   -0.9601   -1.9809    0.2844 H   0  0  0  0  0  0  0  0  0  0  0  0
   -3.0640   -1.1033    0.4518 H   0  0  0  0  0  0  0  0  0  0  0  0
   -2.4860    0.1956    1.6005 H   0  0  0  0  0  0  0  0  0  0  0  0
   -2.8556    1.2591   -0.8300 H   0  0  0  0  0  0  0  0  0  0  0  0
   -0.8179    1.5407    1.0464 H   0  0  0  0  0  0  0  0  0  0  0  0
   -0.5063    2.0770   -0.7233 H   0  0  0  0  0  0  0  0  0  0  0  0
   -0.9211    0.4823   -2.3361 H   0  0  0  0  0  0  0  0  0  0  0  0
   -1.5242   -1.1491   -1.6528 H   0  0  0  0  0  0  0  0  0  0  0  0
  1  2  1  0
  2  3  1  0
  3  4  1  0
  4  5  1  0
  5  6  1  0
  6  7  1  0
  7  8  1  0
  7  9  1  0
  8  4  1  0
  9  4  1  0
  1 10  1  0
  1 11  1  0
  1 12  1  0
  2 13  1  0
  2 14  1  0
  5 15  1  0
  5 16  1  0
  6 17  1  0
  6 18  1  0
  7 19  1  0
  8 20  1  0
  8 21  1  0
  9 22  1  0
  9 23  1  0
M  END
