
     RDKit          3D

 23 23  0  0  0  0  0  0  0  0999 V2000
    3.3135    0.0269    0.0847 C   0  0  0  0  0  0  0  0  0  0  0  0
    1.9426   -0.0933    0.7552 C   0  0  0  0  0  0  0  0  0  0  0  0
    1.0202   -0.3426   -0.1611 O   0  0  0  0  0  0  0  0  0  0  0  0
   -0.2673   -0.5030    0.0823 C   0  0  0  0  0  0  0  0  0  0  0  0
   -0.9915   -1.7025   -0.3833 C   0  0  0  0  0  0  0  0  0  0  0  0
   -2.3818   -1.2342   -0.6222 C   0  0  0  0  0  0  0  0  0  0  0  0
   -2.4379    0.0802   -0.7283 C   0  0  0  0  0  0  0  0  0  0  0  0
   -1.0685    0.6053   -0.5674 C   0  0  0  0  0  0  0  0  0  0  0  0
   -1.1326    1.8266    0.3234 C   0  0  0  0  0  0  0  0  0  0  0  0
    4.0132    0.6223    0.7223 H   0  0  0  0  0  0  0  0  0  0  0  0
    3.2392    0.5480   -0.8833 H   0  0  0  0  0  0  0  0  0  0  0  0
    3.7520   -0.9831   -0.0868 H   0  0  0  0  0  0  0  0  0  0  0  0
    2.0704   -0.7724    1.6000 H   0  0  0  0  0  0  0  0  0  0  0  0
    1.7642    0.9212    1.2069 H   0  0  0  0  0  0  0  0  0  0  0  0
   -0.4518   -0.3942    1.1868 H   0  0  0  0  0  0  0  0  0  0  0  0
   -0.6258   -2.1764   -1.2976 H   0  0  0  0  0  0  0  0  0  0  0  0
   -1.0526   -2.4943    0.3939 H   0  0  0  0  0  0  0  0  0  0  0  0
   -3.2866   -1.8610   -0.7082 H   0  0  0  0  0  0  0  0  0  0  0  0
   -3.3407    0.6984   -0.9059 H   0  0  0  0  0  0  0  0  0  0  0  0
   -0.6410    0.8399   -1.5653 H   0  0  0  0  0  0  0  0  0  0  0  0
   -2.1817    2.0928    0.5665 H   0  0  0  0  0  0  0  0  0  0  0  0
   -0.7184    2.6903   -0.2466 H   0  0  0  0  0  0  0  0  0  0  0  0
   -0.5374    1.6051    1.2341 H   0  0  0  0  0  0  0  0  0  0  0  0
  1  2  1  0
  2  3  1  0
  3  4  1  0
  4  5  1  0
  5  6  1  0
  6  7  2  0
  7  8  1  0
  8  9  1  0
  8  4  1  0
  1 10  1  0
  1 11  1  0
  1 12  1  0
  2 13  1  0
  2 14  1  0
  4 15  1  0
  5 16  1  0
  5 17  1  0
  6 18  1  0
  7 19  1  0
  8 20  1  0
  9 21  1  0
  9 22  1  0
  9 23  1  0
M  END
