
     RDKit          3D

 23 22  0  0  0  0  0  0  0  0999 V2000
    3.5203    0.2603   -0.2145 C   0  0  0  0  0  0  0  0  0  0  0  0
    2.1318   -0.3736   -0.1707 C   0  0  0  0  0  0  0  0  0  0  0  0
    1.2551    0.4561   -0.7741 O   0  0  0  0  0  0  0  0  0  0  0  0
   -0.0417    0.0838   -0.8461 C   0  0  0  0  0  0  0  0  0  0  0  0
   -0.7347   -0.1461    0.4648 C   0  0  0  0  0  0  0  0  0  0  0  0
   -0.7346    1.1093    1.3211 C   0  0  0  0  0  0  0  0  0  0  0  0
   -2.1470   -0.5185    0.1610 C   0  0  0  0  0  0  0  0  0  0  0  0
   -3.0569    0.3997   -0.5858 C   0  0  0  0  0  0  0  0  0  0  0  0
   -2.6357   -1.5920    0.5053 O   0  0  0  0  0  0  0  0  0  0  0  0
    3.4904    1.3075    0.1461 H   0  0  0  0  0  0  0  0  0  0  0  0
    3.9132    0.2838   -1.2571 H   0  0  0  0  0  0  0  0  0  0  0  0
    4.2364   -0.2857    0.4341 H   0  0  0  0  0  0  0  0  0  0  0  0
    2.2283   -1.3786   -0.5659 H   0  0  0  0  0  0  0  0  0  0  0  0
    1.8767   -0.4360    0.9276 H   0  0  0  0  0  0  0  0  0  0  0  0
   -0.6149    0.8721   -1.3790 H   0  0  0  0  0  0  0  0  0  0  0  0
   -0.1807   -0.8460   -1.4528 H   0  0  0  0  0  0  0  0  0  0  0  0
   -0.3101   -0.9668    1.0570 H   0  0  0  0  0  0  0  0  0  0  0  0
    0.1608    1.0748    1.9789 H   0  0  0  0  0  0  0  0  0  0  0  0
   -1.6553    1.0318    1.9614 H   0  0  0  0  0  0  0  0  0  0  0  0
   -0.7715    2.0296    0.7014 H   0  0  0  0  0  0  0  0  0  0  0  0
   -2.5590    1.3098   -0.9340 H   0  0  0  0  0  0  0  0  0  0  0  0
   -3.4278   -0.1638   -1.4903 H   0  0  0  0  0  0  0  0  0  0  0  0
   -3.9430    0.6655    0.0117 H   0  0  0  0  0  0  0  0  0  0  0  0
  1  2  1  0
  2  3  1  0
  3  4  1  0
  4  5  1  0
  5  6  1  0
  5  7  1  0
  7  8  1  0
  7  9  2  0
  1 10  1  0
  1 11  1  0
  1 12  1  0
  2 13  1  0
  2 14  1  0
  4 15  1  0
  4 16  1  0
  5 17  1  0
  6 18  1  0
  6 19  1  0
  6 20  1  0
  8 21  1  0
  8 22  1  0
  8 23  1  0
M  END
