
     RDKit          3D

 24 23  0  0  0  0  0  0  0  0999 V2000
    2.9914   -0.4267   -0.4892 C   0  0  0  0  0  0  0  0  0  0  0  0
    2.3186    0.2571    0.6657 C   0  0  0  0  0  0  0  0  0  0  0  0
    0.9974    0.5724    0.4363 O   0  0  0  0  0  0  0  0  0  0  0  0
    0.2001   -0.5130    0.1658 C   0  0  0  0  0  0  0  0  0  0  0  0
   -1.2186    0.0265   -0.0596 C   0  0  0  0  0  0  0  0  0  0  0  0
   -2.1887   -1.0702   -0.3655 C   0  0  0  0  0  0  0  0  0  0  0  0
   -1.1308    0.9333   -1.2710 C   0  0  0  0  0  0  0  0  0  0  0  0
   -1.6348    0.8290    1.1708 C   0  0  0  0  0  0  0  0  0  0  0  0
    4.0724   -0.4929   -0.2494 H   0  0  0  0  0  0  0  0  0  0  0  0
    2.5213   -1.4145   -0.6605 H   0  0  0  0  0  0  0  0  0  0  0  0
    2.8696    0.2291   -1.3848 H   0  0  0  0  0  0  0  0  0  0  0  0
    2.4675   -0.3153    1.6151 H   0  0  0  0  0  0  0  0  0  0  0  0
    2.8521    1.2344    0.8397 H   0  0  0  0  0  0  0  0  0  0  0  0
    0.2157   -1.2999    0.9375 H   0  0  0  0  0  0  0  0  0  0  0  0
    0.5406   -0.9503   -0.8120 H   0  0  0  0  0  0  0  0  0  0  0  0
   -1.8193   -2.0469    0.0206 H   0  0  0  0  0  0  0  0  0  0  0  0
   -3.1602   -0.8285    0.1457 H   0  0  0  0  0  0  0  0  0  0  0  0
   -2.3563   -1.1454   -1.4513 H   0  0  0  0  0  0  0  0  0  0  0  0
   -2.0104    1.6293   -1.3219 H   0  0  0  0  0  0  0  0  0  0  0  0
   -1.1089    0.2544   -2.1702 H   0  0  0  0  0  0  0  0  0  0  0  0
   -0.1730    1.4844   -1.1800 H   0  0  0  0  0  0  0  0  0  0  0  0
   -1.4506    1.8902    0.9338 H   0  0  0  0  0  0  0  0  0  0  0  0
   -2.7125    0.6726    1.3973 H   0  0  0  0  0  0  0  0  0  0  0  0
   -1.0826    0.4907    2.0689 H   0  0  0  0  0  0  0  0  0  0  0  0
  1  2  1  0
  2  3  1  0
  3  4  1  0
  4  5  1  0
  5  6  1  0
  5  7  1  0
  5  8  1  0
  1  9  1  0
  1 10  1  0
  1 11  1  0
  2 12  1  0
  2 13  1  0
  4 14  1  0
  4 15  1  0
  6 16  1  0
  6 17  1  0
  6 18  1  0
  7 19  1  0
  7 20  1  0
  7 21  1  0
  8 22  1  0
  8 23  1  0
  8 24  1  0
M  END
