
     RDKit          3D

 23 23  0  0  0  0  0  0  0  0999 V2000
    3.3502   -0.1317    0.3257 C   0  0  0  0  0  0  0  0  0  0  0  0
    2.0244   -0.7192   -0.0429 C   0  0  0  0  0  0  0  0  0  0  0  0
    1.0113    0.2237   -0.1077 O   0  0  0  0  0  0  0  0  0  0  0  0
   -0.2155   -0.2837   -0.4431 C   0  0  0  0  0  0  0  0  0  0  0  0
   -0.8948    0.4841   -1.5546 C   0  0  0  0  0  0  0  0  0  0  0  0
   -1.5332    1.5604   -0.9996 O   0  0  0  0  0  0  0  0  0  0  0  0
   -1.3803    1.5372    0.3598 C   0  0  0  0  0  0  0  0  0  0  0  0
   -1.1496    0.0710    0.7198 C   0  0  0  0  0  0  0  0  0  0  0  0
   -2.4568   -0.6668    0.6213 C   0  0  0  0  0  0  0  0  0  0  0  0
    4.1164   -0.9310    0.2187 H   0  0  0  0  0  0  0  0  0  0  0  0
    3.3802    0.2364    1.3668 H   0  0  0  0  0  0  0  0  0  0  0  0
    3.6658    0.7015   -0.3222 H   0  0  0  0  0  0  0  0  0  0  0  0
    2.1009   -1.3528   -0.9347 H   0  0  0  0  0  0  0  0  0  0  0  0
    1.7386   -1.4149    0.8021 H   0  0  0  0  0  0  0  0  0  0  0  0
   -0.2260   -1.3733   -0.6151 H   0  0  0  0  0  0  0  0  0  0  0  0
   -0.1947    0.7633   -2.3617 H   0  0  0  0  0  0  0  0  0  0  0  0
   -1.6289   -0.2208   -2.0468 H   0  0  0  0  0  0  0  0  0  0  0  0
   -2.2118    1.9815    0.9227 H   0  0  0  0  0  0  0  0  0  0  0  0
   -0.3984    2.0462    0.5897 H   0  0  0  0  0  0  0  0  0  0  0  0
   -0.6791   -0.0620    1.6904 H   0  0  0  0  0  0  0  0  0  0  0  0
   -3.1640   -0.1789    1.3239 H   0  0  0  0  0  0  0  0  0  0  0  0
   -2.3625   -1.7179    0.8763 H   0  0  0  0  0  0  0  0  0  0  0  0
   -2.8923   -0.5522   -0.3889 H   0  0  0  0  0  0  0  0  0  0  0  0
  1  2  1  0
  2  3  1  0
  3  4  1  0
  4  5  1  0
  5  6  1  0
  6  7  1  0
  7  8  1  0
  8  9  1  0
  8  4  1  0
  1 10  1  0
  1 11  1  0
  1 12  1  0
  2 13  1  0
  2 14  1  0
  4 15  1  0
  5 16  1  0
  5 17  1  0
  7 18  1  0
  7 19  1  0
  8 20  1  0
  9 21  1  0
  9 22  1  0
  9 23  1  0
M  END
