
     RDKit          3D

 23 24  0  0  0  0  0  0  0  0999 V2000
    2.9925   -0.2921    0.2976 C   0  0  0  0  0  0  0  0  0  0  0  0
    2.1017    0.5864    1.1370 C   0  0  0  0  0  0  0  0  0  0  0  0
    0.9143   -0.0161    1.4087 O   0  0  0  0  0  0  0  0  0  0  0  0
    0.1231   -0.3499    0.3533 C   0  0  0  0  0  0  0  0  0  0  0  0
   -1.2164   -1.0461    0.6481 C   0  0  0  0  0  0  0  0  0  0  0  0
   -1.8334    0.2568    0.2733 C   0  0  0  0  0  0  0  0  0  0  0  0
   -3.1139    0.1918   -0.5089 C   0  0  0  0  0  0  0  0  0  0  0  0
   -0.6188    0.7035   -0.4273 C   0  0  0  0  0  0  0  0  0  0  0  0
    0.3782   -0.1632   -1.0595 C   0  0  0  0  0  0  0  0  0  0  0  0
    2.4206   -1.1709   -0.0700 H   0  0  0  0  0  0  0  0  0  0  0  0
    3.8247   -0.7517    0.9068 H   0  0  0  0  0  0  0  0  0  0  0  0
    3.4169    0.3352   -0.5091 H   0  0  0  0  0  0  0  0  0  0  0  0
    2.6345    0.7137    2.1271 H   0  0  0  0  0  0  0  0  0  0  0  0
    2.0229    1.6183    0.7380 H   0  0  0  0  0  0  0  0  0  0  0  0
   -1.3891   -1.8922   -0.0806 H   0  0  0  0  0  0  0  0  0  0  0  0
   -1.3245   -1.3821    1.6887 H   0  0  0  0  0  0  0  0  0  0  0  0
   -2.0076    0.8668    1.2010 H   0  0  0  0  0  0  0  0  0  0  0  0
   -3.1621    1.1427   -1.1169 H   0  0  0  0  0  0  0  0  0  0  0  0
   -3.9543    0.1383    0.1900 H   0  0  0  0  0  0  0  0  0  0  0  0
   -3.0418   -0.6506   -1.2117 H   0  0  0  0  0  0  0  0  0  0  0  0
   -0.3692    1.7710   -0.3183 H   0  0  0  0  0  0  0  0  0  0  0  0
   -0.0448   -0.9405   -1.7641 H   0  0  0  0  0  0  0  0  0  0  0  0
    1.2465    0.3309   -1.5106 H   0  0  0  0  0  0  0  0  0  0  0  0
  1  2  1  0
  2  3  1  0
  3  4  1  0
  4  5  1  0
  5  6  1  0
  6  7  1  0
  6  8  1  0
  8  9  1  0
  8  4  1  0
  9  4  1  0
  1 10  1  0
  1 11  1  0
  1 12  1  0
  2 13  1  0
  2 14  1  0
  5 15  1  0
  5 16  1  0
  6 17  1  0
  7 18  1  0
  7 19  1  0
  7 20  1  0
  8 21  1  0
  9 22  1  0
  9 23  1  0
M  END
