
     RDKit          3D

 23 23  0  0  0  0  0  0  0  0999 V2000
    2.7097   -0.2071   -0.9054 C   0  0  0  0  0  0  0  0  0  0  0  0
    2.3077   -1.0503    0.2667 C   0  0  0  0  0  0  0  0  0  0  0  0
    0.9434   -1.1318    0.4587 O   0  0  0  0  0  0  0  0  0  0  0  0
    0.3484    0.1052    0.6822 C   0  0  0  0  0  0  0  0  0  0  0  0
   -0.6580    0.1563    1.7707 C   0  0  0  0  0  0  0  0  0  0  0  0
   -1.0581    0.2979    0.3063 C   0  0  0  0  0  0  0  0  0  0  0  0
   -1.6117    1.6609   -0.0310 C   0  0  0  0  0  0  0  0  0  0  0  0
   -1.7478   -0.8617   -0.3620 C   0  0  0  0  0  0  0  0  0  0  0  0
   -3.0706   -0.5931   -0.6817 O   0  0  0  0  0  0  0  0  0  0  0  0
    1.8104    0.0712   -1.4870 H   0  0  0  0  0  0  0  0  0  0  0  0
    3.2105    0.7435   -0.5708 H   0  0  0  0  0  0  0  0  0  0  0  0
    3.4848   -0.7156   -1.5477 H   0  0  0  0  0  0  0  0  0  0  0  0
    2.8442   -0.6488    1.1707 H   0  0  0  0  0  0  0  0  0  0  0  0
    2.6868   -2.0782    0.1301 H   0  0  0  0  0  0  0  0  0  0  0  0
    1.0883    0.9470    0.6656 H   0  0  0  0  0  0  0  0  0  0  0  0
   -0.6978    1.0416    2.4206 H   0  0  0  0  0  0  0  0  0  0  0  0
   -1.0621   -0.7567    2.2381 H   0  0  0  0  0  0  0  0  0  0  0  0
   -2.1871    1.6942   -0.9567 H   0  0  0  0  0  0  0  0  0  0  0  0
   -2.1601    2.0282    0.8580 H   0  0  0  0  0  0  0  0  0  0  0  0
   -0.7490    2.3705   -0.1663 H   0  0  0  0  0  0  0  0  0  0  0  0
   -1.6400   -1.7358    0.3016 H   0  0  0  0  0  0  0  0  0  0  0  0
   -1.2155   -1.0874   -1.3129 H   0  0  0  0  0  0  0  0  0  0  0  0
   -3.5764   -0.2498    0.0943 H   0  0  0  0  0  0  0  0  0  0  0  0
  1  2  1  0
  2  3  1  0
  3  4  1  0
  4  5  1  0
  5  6  1  0
  6  7  1  0
  6  8  1  0
  8  9  1  0
  6  4  1  0
  1 10  1  0
  1 11  1  0
  1 12  1  0
  2 13  1  0
  2 14  1  0
  4 15  1  0
  5 16  1  0
  5 17  1  0
  7 18  1  0
  7 19  1  0
  7 20  1  0
  8 21  1  0
  8 22  1  0
  9 23  1  0
M  END
