
     RDKit          3D

 23 23  0  0  0  0  0  0  0  0999 V2000
   -3.3581    0.8843   -0.8128 C   0  0  0  0  0  0  0  0  0  0  0  0
   -2.6472    0.0137    0.1752 C   0  0  0  0  0  0  0  0  0  0  0  0
   -1.2598    0.0582    0.0532 O   0  0  0  0  0  0  0  0  0  0  0  0
   -0.7041   -0.7690    0.9979 C   0  0  0  0  0  0  0  0  0  0  0  0
    0.8032   -0.7942    0.9518 C   0  0  0  0  0  0  0  0  0  0  0  0
    1.4668    0.5405    0.7198 C   0  0  0  0  0  0  0  0  0  0  0  0
    2.4510   -0.3974    0.0267 C   0  0  0  0  0  0  0  0  0  0  0  0
    3.1296    0.1816   -1.1808 C   0  0  0  0  0  0  0  0  0  0  0  0
    1.3561   -1.2272   -0.2525 O   0  0  0  0  0  0  0  0  0  0  0  0
   -2.6145    1.5564   -1.2835 H   0  0  0  0  0  0  0  0  0  0  0  0
   -4.1577    1.4967   -0.3384 H   0  0  0  0  0  0  0  0  0  0  0  0
   -3.8730    0.2960   -1.6141 H   0  0  0  0  0  0  0  0  0  0  0  0
   -2.9998   -1.0517    0.1530 H   0  0  0  0  0  0  0  0  0  0  0  0
   -2.9018    0.4121    1.2008 H   0  0  0  0  0  0  0  0  0  0  0  0
   -0.9862   -0.3884    2.0010 H   0  0  0  0  0  0  0  0  0  0  0  0
   -1.0431   -1.8274    0.8373 H   0  0  0  0  0  0  0  0  0  0  0  0
    1.2716   -1.3011    1.8150 H   0  0  0  0  0  0  0  0  0  0  0  0
    1.9567    0.9879    1.5960 H   0  0  0  0  0  0  0  0  0  0  0  0
    0.9743    1.2173    0.0210 H   0  0  0  0  0  0  0  0  0  0  0  0
    3.1167   -0.8744    0.7666 H   0  0  0  0  0  0  0  0  0  0  0  0
    4.1087    0.6041   -0.8232 H   0  0  0  0  0  0  0  0  0  0  0  0
    2.5744    1.0136   -1.6273 H   0  0  0  0  0  0  0  0  0  0  0  0
    3.3362   -0.6315   -1.9281 H   0  0  0  0  0  0  0  0  0  0  0  0
  1  2  1  0
  2  3  1  0
  3  4  1  0
  4  5  1  0
  5  6  1  0
  6  7  1  0
  7  8  1  0
  7  9  1  0
  9  5  1  0
  1 10  1  0
  1 11  1  0
  1 12  1  0
  2 13  1  0
  2 14  1  0
  4 15  1  0
  4 16  1  0
  5 17  1  0
  6 18  1  0
  6 19  1  0
  7 20  1  0
  8 21  1  0
  8 22  1  0
  8 23  1  0
M  END
