
     RDKit          3D

 23 23  0  0  0  0  0  0  0  0999 V2000
    3.2241    0.1606    0.8533 C   0  0  0  0  0  0  0  0  0  0  0  0
    2.0454    0.4783   -0.0025 C   0  0  0  0  0  0  0  0  0  0  0  0
    0.8325    0.0903    0.6049 O   0  0  0  0  0  0  0  0  0  0  0  0
   -0.2511    0.3979   -0.2146 C   0  0  0  0  0  0  0  0  0  0  0  0
   -1.0629    1.4495    0.4994 C   0  0  0  0  0  0  0  0  0  0  0  0
   -1.0488   -0.8364   -0.5399 C   0  0  0  0  0  0  0  0  0  0  0  0
   -0.3097   -1.8147   -1.2056 O   0  0  0  0  0  0  0  0  0  0  0  0
   -2.0784   -1.2710    0.4676 C   0  0  0  0  0  0  0  0  0  0  0  0
   -2.4819   -0.7884   -0.8641 C   0  0  0  0  0  0  0  0  0  0  0  0
    3.4588    1.0370    1.5200 H   0  0  0  0  0  0  0  0  0  0  0  0
    4.1357    0.0083    0.2232 H   0  0  0  0  0  0  0  0  0  0  0  0
    3.0805   -0.6994    1.5325 H   0  0  0  0  0  0  0  0  0  0  0  0
    2.1066   -0.1103   -0.9451 H   0  0  0  0  0  0  0  0  0  0  0  0
    2.0609    1.5341   -0.2772 H   0  0  0  0  0  0  0  0  0  0  0  0
    0.1489    0.8732   -1.1379 H   0  0  0  0  0  0  0  0  0  0  0  0
   -0.4287    2.3625    0.5472 H   0  0  0  0  0  0  0  0  0  0  0  0
   -2.0108    1.6925    0.0091 H   0  0  0  0  0  0  0  0  0  0  0  0
   -1.3151    1.1449    1.5530 H   0  0  0  0  0  0  0  0  0  0  0  0
    0.1253   -1.3530   -1.9769 H   0  0  0  0  0  0  0  0  0  0  0  0
   -2.0951   -2.3786    0.6323 H   0  0  0  0  0  0  0  0  0  0  0  0
   -2.3140   -0.6193    1.3317 H   0  0  0  0  0  0  0  0  0  0  0  0
   -2.8938   -1.5586   -1.5751 H   0  0  0  0  0  0  0  0  0  0  0  0
   -2.9286    0.2009   -1.0352 H   0  0  0  0  0  0  0  0  0  0  0  0
  1  2  1  0
  2  3  1  0
  3  4  1  0
  4  5  1  0
  4  6  1  0
  6  7  1  0
  6  8  1  0
  8  9  1  0
  9  6  1  0
  1 10  1  0
  1 11  1  0
  1 12  1  0
  2 13  1  0
  2 14  1  0
  4 15  1  0
  5 16  1  0
  5 17  1  0
  5 18  1  0
  7 19  1  0
  8 20  1  0
  8 21  1  0
  9 22  1  0
  9 23  1  0
M  END
