
     RDKit          3D

 21 21  0  0  0  0  0  0  0  0999 V2000
    3.0593    1.0070    0.3710 C   0  0  0  0  0  0  0  0  0  0  0  0
    1.9476   -0.0205    0.4604 C   0  0  0  0  0  0  0  0  0  0  0  0
    0.8251    0.5513   -0.1387 O   0  0  0  0  0  0  0  0  0  0  0  0
   -0.2425   -0.3686   -0.1299 C   0  0  0  0  0  0  0  0  0  0  0  0
   -0.7134   -0.8546    1.2164 C   0  0  0  0  0  0  0  0  0  0  0  0
   -0.6297   -2.0954    1.4088 O   0  0  0  0  0  0  0  0  0  0  0  0
   -0.8331   -0.9827   -1.3162 C   0  0  0  0  0  0  0  0  0  0  0  0
   -1.4126    0.2973   -0.9294 C   0  0  0  0  0  0  0  0  0  0  0  0
   -2.7198    0.4133   -0.2171 C   0  0  0  0  0  0  0  0  0  0  0  0
    3.9636    0.7086    0.9228 H   0  0  0  0  0  0  0  0  0  0  0  0
    3.2555    1.0905   -0.7392 H   0  0  0  0  0  0  0  0  0  0  0  0
    2.6168    1.9612    0.6813 H   0  0  0  0  0  0  0  0  0  0  0  0
    2.3180   -0.9321    0.0047 H   0  0  0  0  0  0  0  0  0  0  0  0
    1.7701   -0.2190    1.5465 H   0  0  0  0  0  0  0  0  0  0  0  0
   -1.1083   -0.2588    1.9884 H   0  0  0  0  0  0  0  0  0  0  0  0
   -1.4814   -1.8834   -1.1469 H   0  0  0  0  0  0  0  0  0  0  0  0
   -0.2499   -1.0578   -2.2444 H   0  0  0  0  0  0  0  0  0  0  0  0
   -1.1944    1.1509   -1.5780 H   0  0  0  0  0  0  0  0  0  0  0  0
   -2.9672   -0.4586    0.3860 H   0  0  0  0  0  0  0  0  0  0  0  0
   -3.5062    0.6206   -1.0037 H   0  0  0  0  0  0  0  0  0  0  0  0
   -2.6977    1.3306    0.4573 H   0  0  0  0  0  0  0  0  0  0  0  0
  1  2  1  0
  2  3  1  0
  3  4  1  0
  4  5  1  0
  5  6  2  0
  4  7  1  0
  7  8  1  0
  8  9  1  0
  8  4  1  0
  1 10  1  0
  1 11  1  0
  1 12  1  0
  2 13  1  0
  2 14  1  0
  5 15  1  0
  7 16  1  0
  7 17  1  0
  8 18  1  0
  9 19  1  0
  9 20  1  0
  9 21  1  0
M  END
