
     RDKit          3D

 21 21  0  0  0  0  0  0  0  0999 V2000
   -3.3653    0.3445   -0.0232 C   0  0  0  0  0  0  0  0  0  0  0  0
   -2.0344   -0.3327    0.1188 C   0  0  0  0  0  0  0  0  0  0  0  0
   -0.9879    0.5431    0.3284 O   0  0  0  0  0  0  0  0  0  0  0  0
    0.1706   -0.1794    0.4428 C   0  0  0  0  0  0  0  0  0  0  0  0
    1.0503    0.1866    1.6445 C   0  0  0  0  0  0  0  0  0  0  0  0
    2.2334   -0.1682    0.7320 C   0  0  0  0  0  0  0  0  0  0  0  0
    3.3498    0.6088    0.9078 O   0  0  0  0  0  0  0  0  0  0  0  0
    1.3265    0.2628   -0.4305 C   0  0  0  0  0  0  0  0  0  0  0  0
    1.5281   -0.5210   -1.5694 O   0  0  0  0  0  0  0  0  0  0  0  0
   -3.6704    0.7549    0.9640 H   0  0  0  0  0  0  0  0  0  0  0  0
   -4.1109   -0.4585   -0.2498 H   0  0  0  0  0  0  0  0  0  0  0  0
   -3.4174    1.0736   -0.8348 H   0  0  0  0  0  0  0  0  0  0  0  0
   -2.0907   -0.9924    1.0167 H   0  0  0  0  0  0  0  0  0  0  0  0
   -1.7974   -0.9403   -0.7785 H   0  0  0  0  0  0  0  0  0  0  0  0
    0.0579   -1.2933    0.3493 H   0  0  0  0  0  0  0  0  0  0  0  0
    0.8855   -0.5137    2.4620 H   0  0  0  0  0  0  0  0  0  0  0  0
    0.9820    1.2563    1.8427 H   0  0  0  0  0  0  0  0  0  0  0  0
    2.3761   -1.2593    0.7604 H   0  0  0  0  0  0  0  0  0  0  0  0
    3.6219    1.0854    0.0918 H   0  0  0  0  0  0  0  0  0  0  0  0
    1.4088    1.3442   -0.5897 H   0  0  0  0  0  0  0  0  0  0  0  0
    2.4834   -0.8013   -1.6484 H   0  0  0  0  0  0  0  0  0  0  0  0
  1  2  1  0
  2  3  1  0
  3  4  1  0
  4  5  1  0
  5  6  1  0
  6  7  1  0
  6  8  1  0
  8  9  1  0
  8  4  1  0
  1 10  1  0
  1 11  1  0
  1 12  1  0
  2 13  1  0
  2 14  1  0
  4 15  1  0
  5 16  1  0
  5 17  1  0
  6 18  1  0
  7 19  1  0
  8 20  1  0
  9 21  1  0
M  END
