
     RDKit          3D

 23 22  0  0  0  0  0  0  0  0999 V2000
    4.2578    0.3520   -0.0806 C   0  0  0  0  0  0  0  0  0  0  0  0
    2.8181    0.6859    0.1658 C   0  0  0  0  0  0  0  0  0  0  0  0
    1.9786   -0.4336    0.1027 O   0  0  0  0  0  0  0  0  0  0  0  0
    0.6813    0.0362    0.3571 C   0  0  0  0  0  0  0  0  0  0  0  0
   -0.3565   -1.0570    0.2879 C   0  0  0  0  0  0  0  0  0  0  0  0
   -1.6690   -0.4236    0.5757 C   0  0  0  0  0  0  0  0  0  0  0  0
   -1.7751    0.1744    1.6275 O   0  0  0  0  0  0  0  0  0  0  0  0
   -2.8312   -0.4919   -0.3521 C   0  0  0  0  0  0  0  0  0  0  0  0
   -4.0277    0.2068    0.2424 C   0  0  0  0  0  0  0  0  0  0  0  0
    4.6732    1.1852   -0.7211 H   0  0  0  0  0  0  0  0  0  0  0  0
    4.8046    0.3395    0.8777 H   0  0  0  0  0  0  0  0  0  0  0  0
    4.4231   -0.5860   -0.6250 H   0  0  0  0  0  0  0  0  0  0  0  0
    2.6872    1.1911    1.1261 H   0  0  0  0  0  0  0  0  0  0  0  0
    2.4311    1.3849   -0.6321 H   0  0  0  0  0  0  0  0  0  0  0  0
    0.4478    0.7156   -0.5162 H   0  0  0  0  0  0  0  0  0  0  0  0
    0.6374    0.5985    1.2847 H   0  0  0  0  0  0  0  0  0  0  0  0
   -0.3382   -1.5703   -0.6826 H   0  0  0  0  0  0  0  0  0  0  0  0
   -0.1487   -1.8597    1.0573 H   0  0  0  0  0  0  0  0  0  0  0  0
   -2.6112    0.0071   -1.3230 H   0  0  0  0  0  0  0  0  0  0  0  0
   -3.1123   -1.5480   -0.5017 H   0  0  0  0  0  0  0  0  0  0  0  0
   -4.9094    0.0601   -0.4111 H   0  0  0  0  0  0  0  0  0  0  0  0
   -3.8432    1.3019    0.3491 H   0  0  0  0  0  0  0  0  0  0  0  0
   -4.2176   -0.2688    1.2341 H   0  0  0  0  0  0  0  0  0  0  0  0
  1  2  1  0
  2  3  1  0
  3  4  1  0
  4  5  1  0
  5  6  1  0
  6  7  2  0
  6  8  1  0
  8  9  1  0
  1 10  1  0
  1 11  1  0
  1 12  1  0
  2 13  1  0
  2 14  1  0
  4 15  1  0
  4 16  1  0
  5 17  1  0
  5 18  1  0
  8 19  1  0
  8 20  1  0
  9 21  1  0
  9 22  1  0
  9 23  1  0
M  END
