
     RDKit          3D

 27 26  0  0  0  0  0  0  0  0999 V2000
    4.0205    0.1735   -0.0390 C   0  0  0  0  0  0  0  0  0  0  0  0
    2.5223    0.1700   -0.3764 C   0  0  0  0  0  0  0  0  0  0  0  0
    1.7808    0.7668    0.5625 O   0  0  0  0  0  0  0  0  0  0  0  0
    0.4532    0.9271    0.4176 C   0  0  0  0  0  0  0  0  0  0  0  0
   -0.4318   -0.2448    0.2590 C   0  0  0  0  0  0  0  0  0  0  0  0
   -0.1609   -1.0649   -0.9634 C   0  0  0  0  0  0  0  0  0  0  0  0
   -1.9074    0.1204    0.3495 C   0  0  0  0  0  0  0  0  0  0  0  0
   -2.3008    1.1061   -0.7149 C   0  0  0  0  0  0  0  0  0  0  0  0
   -2.7840   -1.1003    0.1765 C   0  0  0  0  0  0  0  0  0  0  0  0
    4.5006   -0.4150   -0.8471 H   0  0  0  0  0  0  0  0  0  0  0  0
    4.2131   -0.2796    0.9329 H   0  0  0  0  0  0  0  0  0  0  0  0
    4.3822    1.2111   -0.0957 H   0  0  0  0  0  0  0  0  0  0  0  0
    2.2421   -0.9144   -0.4246 H   0  0  0  0  0  0  0  0  0  0  0  0
    2.4422    0.6077   -1.3824 H   0  0  0  0  0  0  0  0  0  0  0  0
    0.2288    1.6154   -0.4797 H   0  0  0  0  0  0  0  0  0  0  0  0
    0.1224    1.5823    1.2922 H   0  0  0  0  0  0  0  0  0  0  0  0
   -0.2388   -0.9177    1.1570 H   0  0  0  0  0  0  0  0  0  0  0  0
   -1.1675   -1.3488   -1.4352 H   0  0  0  0  0  0  0  0  0  0  0  0
    0.2547   -2.0413   -0.6682 H   0  0  0  0  0  0  0  0  0  0  0  0
    0.3938   -0.5418   -1.7600 H   0  0  0  0  0  0  0  0  0  0  0  0
   -2.1167    0.5794    1.3376 H   0  0  0  0  0  0  0  0  0  0  0  0
   -2.1659    0.7236   -1.7339 H   0  0  0  0  0  0  0  0  0  0  0  0
   -1.7739    2.0861   -0.5508 H   0  0  0  0  0  0  0  0  0  0  0  0
   -3.3813    1.3279   -0.5947 H   0  0  0  0  0  0  0  0  0  0  0  0
   -3.7003   -0.9354    0.8083 H   0  0  0  0  0  0  0  0  0  0  0  0
   -3.1246   -1.1693   -0.8881 H   0  0  0  0  0  0  0  0  0  0  0  0
   -2.3029   -2.0242    0.5188 H   0  0  0  0  0  0  0  0  0  0  0  0
  1  2  1  0
  2  3  1  0
  3  4  1  0
  4  5  1  0
  5  6  1  0
  5  7  1  0
  7  8  1  0
  7  9  1  0
  1 10  1  0
  1 11  1  0
  1 12  1  0
  2 13  1  0
  2 14  1  0
  4 15  1  0
  4 16  1  0
  5 17  1  0
  6 18  1  0
  6 19  1  0
  6 20  1  0
  7 21  1  0
  8 22  1  0
  8 23  1  0
  8 24  1  0
  9 25  1  0
  9 26  1  0
  9 27  1  0
M  END
