
     RDKit          3D

 21 22  0  0  0  0  0  0  0  0999 V2000
    2.9283    0.1561   -0.1733 C   0  0  0  0  0  0  0  0  0  0  0  0
    2.0057   -0.8615    0.4582 C   0  0  0  0  0  0  0  0  0  0  0  0
    0.7536   -0.3648    0.7073 O   0  0  0  0  0  0  0  0  0  0  0  0
    0.0841    0.0814   -0.4476 C   0  0  0  0  0  0  0  0  0  0  0  0
   -0.7496    1.2387   -0.2266 C   0  0  0  0  0  0  0  0  0  0  0  0
   -2.2396    1.2794    0.0325 C   0  0  0  0  0  0  0  0  0  0  0  0
   -2.2716    0.6414   -1.2341 O   0  0  0  0  0  0  0  0  0  0  0  0
   -1.3009   -0.1655   -0.6865 C   0  0  0  0  0  0  0  0  0  0  0  0
   -1.8993   -1.0649    0.3736 C   0  0  0  0  0  0  0  0  0  0  0  0
    3.6139    0.6012    0.5795 H   0  0  0  0  0  0  0  0  0  0  0  0
    2.3345    0.9766   -0.6068 H   0  0  0  0  0  0  0  0  0  0  0  0
    3.4827   -0.3548   -0.9930 H   0  0  0  0  0  0  0  0  0  0  0  0
    1.9372   -1.7869   -0.1467 H   0  0  0  0  0  0  0  0  0  0  0  0
    2.4381   -1.1632    1.4345 H   0  0  0  0  0  0  0  0  0  0  0  0
    0.7525   -0.0746   -1.3507 H   0  0  0  0  0  0  0  0  0  0  0  0
   -0.5739    1.9764   -1.0753 H   0  0  0  0  0  0  0  0  0  0  0  0
   -2.6355    0.7451    0.8748 H   0  0  0  0  0  0  0  0  0  0  0  0
   -2.7043    2.2664   -0.0469 H   0  0  0  0  0  0  0  0  0  0  0  0
   -2.9787   -1.1803    0.3247 H   0  0  0  0  0  0  0  0  0  0  0  0
   -1.4827   -2.0933    0.1420 H   0  0  0  0  0  0  0  0  0  0  0  0
   -1.4945   -0.8529    1.3945 H   0  0  0  0  0  0  0  0  0  0  0  0
  1  2  1  0
  2  3  1  0
  3  4  1  0
  4  5  1  0
  5  6  1  0
  6  7  1  0
  7  8  1  0
  8  9  1  0
  8  4  1  0
  8  5  1  0
  1 10  1  0
  1 11  1  0
  1 12  1  0
  2 13  1  0
  2 14  1  0
  4 15  1  0
  5 16  1  0
  6 17  1  0
  6 18  1  0
  9 19  1  0
  9 20  1  0
  9 21  1  0
M  END
