
     RDKit          3D

 16 15  0  0  0  0  0  0  0  0999 V2000
   -2.1325    0.2921    0.6098 C   0  0  0  0  0  0  0  0  0  0  0  0
   -1.3189    0.3085   -0.6441 C   0  0  0  0  0  0  0  0  0  0  0  0
    0.0474    0.4678   -0.4161 O   0  0  0  0  0  0  0  0  0  0  0  0
    0.4707   -0.5984    0.3698 C   0  0  0  0  0  0  0  0  0  0  0  0
    1.8957   -0.5594    0.6891 C   0  0  0  0  0  0  0  0  0  0  0  0
    2.3677   -1.4837    1.3959 O   0  0  0  0  0  0  0  0  0  0  0  0
    2.7971    0.4892    0.2343 C   0  0  0  0  0  0  0  0  0  0  0  0
    2.3451    1.4419   -0.4859 O   0  0  0  0  0  0  0  0  0  0  0  0
   -1.8076    1.0310    1.3704 H   0  0  0  0  0  0  0  0  0  0  0  0
   -2.1974   -0.7196    1.0839 H   0  0  0  0  0  0  0  0  0  0  0  0
   -3.1966    0.5255    0.3108 H   0  0  0  0  0  0  0  0  0  0  0  0
   -1.4964   -0.6766   -1.1609 H   0  0  0  0  0  0  0  0  0  0  0  0
   -1.6892    1.0759   -1.3459 H   0  0  0  0  0  0  0  0  0  0  0  0
    0.2483   -1.5409   -0.1852 H   0  0  0  0  0  0  0  0  0  0  0  0
   -0.1733   -0.5749    1.2932 H   0  0  0  0  0  0  0  0  0  0  0  0
    3.8400    0.5215    0.4655 H   0  0  0  0  0  0  0  0  0  0  0  0
  1  2  1  0
  2  3  1  0
  3  4  1  0
  4  5  1  0
  5  6  2  0
  5  7  1  0
  7  8  2  0
  1  9  1  0
  1 10  1  0
  1 11  1  0
  2 12  1  0
  2 13  1  0
  4 14  1  0
  4 15  1  0
  7 16  1  0
M  END
