
     RDKit          3D

 19 19  0  0  0  0  0  0  0  0999 V2000
   -2.6568    0.3451   -0.1939 C   0  0  0  0  0  0  0  0  0  0  0  0
   -1.9195   -0.8744    0.2545 C   0  0  0  0  0  0  0  0  0  0  0  0
   -0.6268   -0.6507    0.6561 O   0  0  0  0  0  0  0  0  0  0  0  0
    0.1956   -0.1173   -0.2931 C   0  0  0  0  0  0  0  0  0  0  0  0
    1.5522   -0.7672   -0.4527 C   0  0  0  0  0  0  0  0  0  0  0  0
    2.1621    0.6242   -0.3545 C   0  0  0  0  0  0  0  0  0  0  0  0
    3.2711    0.6824    0.5069 O   0  0  0  0  0  0  0  0  0  0  0  0
    0.8960    1.0853    0.2618 C   0  0  0  0  0  0  0  0  0  0  0  0
    0.5934    2.0677    0.9452 O   0  0  0  0  0  0  0  0  0  0  0  0
   -2.0434    1.2452   -0.2904 H   0  0  0  0  0  0  0  0  0  0  0  0
   -3.5227    0.5993    0.4659 H   0  0  0  0  0  0  0  0  0  0  0  0
   -3.1130    0.1428   -1.2028 H   0  0  0  0  0  0  0  0  0  0  0  0
   -2.4722   -1.2766    1.1498 H   0  0  0  0  0  0  0  0  0  0  0  0
   -1.9641   -1.6903   -0.5157 H   0  0  0  0  0  0  0  0  0  0  0  0
   -0.2331    0.0891   -1.2905 H   0  0  0  0  0  0  0  0  0  0  0  0
    1.7589   -1.1892   -1.4451 H   0  0  0  0  0  0  0  0  0  0  0  0
    1.8771   -1.4148    0.3700 H   0  0  0  0  0  0  0  0  0  0  0  0
    2.3301    1.0947   -1.3237 H   0  0  0  0  0  0  0  0  0  0  0  0
    3.9150    0.0048    0.2076 H   0  0  0  0  0  0  0  0  0  0  0  0
  1  2  1  0
  2  3  1  0
  3  4  1  0
  4  5  1  0
  5  6  1  0
  6  7  1  0
  6  8  1  0
  8  9  2  0
  8  4  1  0
  1 10  1  0
  1 11  1  0
  1 12  1  0
  2 13  1  0
  2 14  1  0
  4 15  1  0
  5 16  1  0
  5 17  1  0
  6 18  1  0
  7 19  1  0
M  END
