
     RDKit          3D

 25 24  0  0  0  0  0  0  0  0999 V2000
    2.9236    0.5025    1.3843 C   0  0  0  0  0  0  0  0  0  0  0  0
    2.2900    0.2054    0.0401 C   0  0  0  0  0  0  0  0  0  0  0  0
    0.9716   -0.1416    0.2094 O   0  0  0  0  0  0  0  0  0  0  0  0
    0.4283   -0.4054   -1.0411 C   0  0  0  0  0  0  0  0  0  0  0  0
   -1.0317   -0.8005   -0.9735 C   0  0  0  0  0  0  0  0  0  0  0  0
   -1.2102   -2.0224   -0.1550 C   0  0  0  0  0  0  0  0  0  0  0  0
   -1.8838    0.3639   -0.6153 C   0  0  0  0  0  0  0  0  0  0  0  0
   -1.6065    1.0125    0.6833 C   0  0  0  0  0  0  0  0  0  0  0  0
   -2.5244    2.0825    0.8175 O   0  0  0  0  0  0  0  0  0  0  0  0
    3.9820    0.8039    1.2645 H   0  0  0  0  0  0  0  0  0  0  0  0
    2.4151    1.3839    1.8608 H   0  0  0  0  0  0  0  0  0  0  0  0
    2.8148   -0.3754    2.0447 H   0  0  0  0  0  0  0  0  0  0  0  0
    2.8391   -0.6434   -0.4001 H   0  0  0  0  0  0  0  0  0  0  0  0
    2.4041    1.0840   -0.6277 H   0  0  0  0  0  0  0  0  0  0  0  0
    0.4679    0.5012   -1.7108 H   0  0  0  0  0  0  0  0  0  0  0  0
    1.0193   -1.1797   -1.6006 H   0  0  0  0  0  0  0  0  0  0  0  0
   -1.3045   -1.0784   -2.0368 H   0  0  0  0  0  0  0  0  0  0  0  0
   -2.1255   -2.6146   -0.4212 H   0  0  0  0  0  0  0  0  0  0  0  0
   -0.3550   -2.7056   -0.3624 H   0  0  0  0  0  0  0  0  0  0  0  0
   -1.2143   -1.8595    0.9367 H   0  0  0  0  0  0  0  0  0  0  0  0
   -1.7309    1.1381   -1.4238 H   0  0  0  0  0  0  0  0  0  0  0  0
   -2.9652    0.1199   -0.6661 H   0  0  0  0  0  0  0  0  0  0  0  0
   -0.6172    1.4609    0.8036 H   0  0  0  0  0  0  0  0  0  0  0  0
   -1.8727    0.3072    1.5099 H   0  0  0  0  0  0  0  0  0  0  0  0
   -2.1137    2.8607    0.3501 H   0  0  0  0  0  0  0  0  0  0  0  0
  1  2  1  0
  2  3  1  0
  3  4  1  0
  4  5  1  0
  5  6  1  0
  5  7  1  0
  7  8  1  0
  8  9  1  0
  1 10  1  0
  1 11  1  0
  1 12  1  0
  2 13  1  0
  2 14  1  0
  4 15  1  0
  4 16  1  0
  5 17  1  0
  6 18  1  0
  6 19  1  0
  6 20  1  0
  7 21  1  0
  7 22  1  0
  8 23  1  0
  8 24  1  0
  9 25  1  0
M  END
