
     RDKit          3D

 23 23  0  0  0  0  0  0  0  0999 V2000
    2.8342    0.9082    0.7718 C   0  0  0  0  0  0  0  0  0  0  0  0
    2.2294   -0.3416    0.1252 C   0  0  0  0  0  0  0  0  0  0  0  0
    0.9238   -0.0478   -0.1710 O   0  0  0  0  0  0  0  0  0  0  0  0
    0.2451   -1.1003   -0.7682 C   0  0  0  0  0  0  0  0  0  0  0  0
   -1.1768   -0.7782   -1.0900 C   0  0  0  0  0  0  0  0  0  0  0  0
   -2.1481   -0.3958   -0.0623 C   0  0  0  0  0  0  0  0  0  0  0  0
   -1.7646   -0.1374    1.3646 C   0  0  0  0  0  0  0  0  0  0  0  0
   -1.6800    0.6201   -1.0805 C   0  0  0  0  0  0  0  0  0  0  0  0
   -0.8398    1.6548   -0.6381 O   0  0  0  0  0  0  0  0  0  0  0  0
    2.7311    1.7286    0.0216 H   0  0  0  0  0  0  0  0  0  0  0  0
    3.8839    0.7493    1.0141 H   0  0  0  0  0  0  0  0  0  0  0  0
    2.1930    1.1945    1.6235 H   0  0  0  0  0  0  0  0  0  0  0  0
    2.3226   -1.1870    0.8690 H   0  0  0  0  0  0  0  0  0  0  0  0
    2.8139   -0.6607   -0.7500 H   0  0  0  0  0  0  0  0  0  0  0  0
    0.7951   -1.3381   -1.7083 H   0  0  0  0  0  0  0  0  0  0  0  0
    0.2576   -2.0296   -0.1579 H   0  0  0  0  0  0  0  0  0  0  0  0
   -1.5837   -1.3955   -1.9449 H   0  0  0  0  0  0  0  0  0  0  0  0
   -3.2064   -0.7743   -0.1663 H   0  0  0  0  0  0  0  0  0  0  0  0
   -2.4246   -0.6648    2.0907 H   0  0  0  0  0  0  0  0  0  0  0  0
   -1.9029    0.9550    1.5580 H   0  0  0  0  0  0  0  0  0  0  0  0
   -0.7311   -0.3957    1.6140 H   0  0  0  0  0  0  0  0  0  0  0  0
   -2.4505    0.9315   -1.8176 H   0  0  0  0  0  0  0  0  0  0  0  0
   -1.3212    2.5047   -0.6974 H   0  0  0  0  0  0  0  0  0  0  0  0
  1  2  1  0
  2  3  1  0
  3  4  1  0
  4  5  1  0
  5  6  1  0
  6  7  1  0
  6  8  1  0
  8  9  1  0
  8  5  1  0
  1 10  1  0
  1 11  1  0
  1 12  1  0
  2 13  1  0
  2 14  1  0
  4 15  1  0
  4 16  1  0
  5 17  1  0
  6 18  1  0
  7 19  1  0
  7 20  1  0
  7 21  1  0
  8 22  1  0
  9 23  1  0
M  END
