
     RDKit          3D

 21 22  0  0  0  0  0  0  0  0999 V2000
    3.1214    0.4562   -0.7223 C   0  0  0  0  0  0  0  0  0  0  0  0
    2.0041   -0.4179   -0.1649 C   0  0  0  0  0  0  0  0  0  0  0  0
    0.8859    0.3962   -0.0443 O   0  0  0  0  0  0  0  0  0  0  0  0
   -0.2210   -0.2793    0.4587 C   0  0  0  0  0  0  0  0  0  0  0  0
   -0.8763    0.4686    1.6321 C   0  0  0  0  0  0  0  0  0  0  0  0
   -1.7905    1.1129    0.5769 C   0  0  0  0  0  0  0  0  0  0  0  0
   -1.4745   -0.0297   -0.2687 C   0  0  0  0  0  0  0  0  0  0  0  0
   -2.4525   -1.1343   -0.4698 C   0  0  0  0  0  0  0  0  0  0  0  0
   -1.8335   -0.3491   -1.4838 O   0  0  0  0  0  0  0  0  0  0  0  0
    3.3037    1.2660    0.0195 H   0  0  0  0  0  0  0  0  0  0  0  0
    4.0272   -0.1546   -0.9076 H   0  0  0  0  0  0  0  0  0  0  0  0
    2.7335    0.9243   -1.6495 H   0  0  0  0  0  0  0  0  0  0  0  0
    1.7899   -1.2382   -0.8978 H   0  0  0  0  0  0  0  0  0  0  0  0
    2.3289   -0.8640    0.7920 H   0  0  0  0  0  0  0  0  0  0  0  0
   -0.0051   -1.3290    0.6666 H   0  0  0  0  0  0  0  0  0  0  0  0
   -0.2242    1.1564    2.1550 H   0  0  0  0  0  0  0  0  0  0  0  0
   -1.4816   -0.2399    2.2131 H   0  0  0  0  0  0  0  0  0  0  0  0
   -1.4434    2.1217    0.2979 H   0  0  0  0  0  0  0  0  0  0  0  0
   -2.8525    1.1562    0.8733 H   0  0  0  0  0  0  0  0  0  0  0  0
   -2.0461   -2.1411   -0.2818 H   0  0  0  0  0  0  0  0  0  0  0  0
   -3.4937   -0.8814   -0.1942 H   0  0  0  0  0  0  0  0  0  0  0  0
  1  2  1  0
  2  3  1  0
  3  4  1  0
  4  5  1  0
  5  6  1  0
  6  7  1  0
  7  8  1  0
  8  9  1  0
  7  4  1  0
  9  7  1  0
  1 10  1  0
  1 11  1  0
  1 12  1  0
  2 13  1  0
  2 14  1  0
  4 15  1  0
  5 16  1  0
  5 17  1  0
  6 18  1  0
  6 19  1  0
  8 20  1  0
  8 21  1  0
M  END
