
     RDKit          3D

 20 20  0  0  0  0  0  0  0  0999 V2000
    3.3547   -0.0815   -0.4737 C   0  0  0  0  0  0  0  0  0  0  0  0
    2.0409    0.6012   -0.1514 C   0  0  0  0  0  0  0  0  0  0  0  0
    1.0603   -0.3829   -0.1225 O   0  0  0  0  0  0  0  0  0  0  0  0
   -0.1979    0.1004    0.1620 C   0  0  0  0  0  0  0  0  0  0  0  0
   -1.0053   -0.8477    1.0641 C   0  0  0  0  0  0  0  0  0  0  0  0
   -1.3665   -0.6159   -0.3963 C   0  0  0  0  0  0  0  0  0  0  0  0
   -2.6911    0.0528   -0.5883 C   0  0  0  0  0  0  0  0  0  0  0  0
   -2.6183    1.1427   -1.4484 O   0  0  0  0  0  0  0  0  0  0  0  0
    4.0558    0.1702    0.3482 H   0  0  0  0  0  0  0  0  0  0  0  0
    3.2563   -1.1929   -0.4805 H   0  0  0  0  0  0  0  0  0  0  0  0
    3.7615    0.2238   -1.4599 H   0  0  0  0  0  0  0  0  0  0  0  0
    2.0783    1.2026    0.7645 H   0  0  0  0  0  0  0  0  0  0  0  0
    1.8236    1.2890   -1.0158 H   0  0  0  0  0  0  0  0  0  0  0  0
   -0.3403    1.1868    0.3404 H   0  0  0  0  0  0  0  0  0  0  0  0
   -1.6070   -0.3753    1.8449 H   0  0  0  0  0  0  0  0  0  0  0  0
   -0.6179   -1.8432    1.2681 H   0  0  0  0  0  0  0  0  0  0  0  0
   -1.1290   -1.4053   -1.1348 H   0  0  0  0  0  0  0  0  0  0  0  0
   -3.1823    0.3286    0.3841 H   0  0  0  0  0  0  0  0  0  0  0  0
   -3.3767   -0.6858   -1.0533 H   0  0  0  0  0  0  0  0  0  0  0  0
   -3.2991    1.1324   -2.1576 H   0  0  0  0  0  0  0  0  0  0  0  0
  1  2  1  0
  2  3  1  0
  3  4  1  0
  4  5  1  0
  5  6  1  0
  6  7  1  0
  7  8  1  0
  6  4  1  0
  1  9  1  0
  1 10  1  0
  1 11  1  0
  2 12  1  0
  2 13  1  0
  4 14  1  0
  5 15  1  0
  5 16  1  0
  6 17  1  0
  7 18  1  0
  7 19  1  0
  8 20  1  0
M  END
