
     RDKit          3D

 20 20  0  0  0  0  0  0  0  0999 V2000
    2.1590   -0.6554    1.0380 C   0  0  0  0  0  0  0  0  0  0  0  0
    1.9385    0.7590    0.5340 C   0  0  0  0  0  0  0  0  0  0  0  0
    0.5824    1.0411    0.4132 O   0  0  0  0  0  0  0  0  0  0  0  0
    0.0096    0.1534   -0.4837 C   0  0  0  0  0  0  0  0  0  0  0  0
   -1.0505    0.8006   -1.3543 C   0  0  0  0  0  0  0  0  0  0  0  0
   -1.4148   -0.2368   -0.3680 C   0  0  0  0  0  0  0  0  0  0  0  0
   -2.1463    0.1261    0.9051 C   0  0  0  0  0  0  0  0  0  0  0  0
   -1.7709   -1.4718   -0.9025 O   0  0  0  0  0  0  0  0  0  0  0  0
    3.0962   -0.6755    1.6634 H   0  0  0  0  0  0  0  0  0  0  0  0
    2.2438   -1.3914    0.2287 H   0  0  0  0  0  0  0  0  0  0  0  0
    1.3004   -0.8970    1.7017 H   0  0  0  0  0  0  0  0  0  0  0  0
    2.4514    0.7994   -0.4689 H   0  0  0  0  0  0  0  0  0  0  0  0
    2.4638    1.5154    1.1523 H   0  0  0  0  0  0  0  0  0  0  0  0
    0.6916   -0.5795   -0.9197 H   0  0  0  0  0  0  0  0  0  0  0  0
   -0.9548    0.5590   -2.4191 H   0  0  0  0  0  0  0  0  0  0  0  0
   -1.3746    1.8258   -1.1494 H   0  0  0  0  0  0  0  0  0  0  0  0
   -2.3138   -0.8243    1.4543 H   0  0  0  0  0  0  0  0  0  0  0  0
   -1.5200    0.7966    1.5624 H   0  0  0  0  0  0  0  0  0  0  0  0
   -3.1383    0.5741    0.7226 H   0  0  0  0  0  0  0  0  0  0  0  0
   -1.2526   -2.2190   -0.5693 H   0  0  0  0  0  0  0  0  0  0  0  0
  1  2  1  0
  2  3  1  0
  3  4  1  0
  4  5  1  0
  5  6  1  0
  6  7  1  0
  6  8  1  0
  6  4  1  0
  1  9  1  0
  1 10  1  0
  1 11  1  0
  2 12  1  0
  2 13  1  0
  4 14  1  0
  5 15  1  0
  5 16  1  0
  7 17  1  0
  7 18  1  0
  7 19  1  0
  8 20  1  0
M  END
