
     RDKit          3D

 22 22  0  0  0  0  0  0  0  0999 V2000
    2.9298    0.2386    0.1764 C   0  0  0  0  0  0  0  0  0  0  0  0
    1.9592   -0.4564    1.1083 C   0  0  0  0  0  0  0  0  0  0  0  0
    1.2382   -1.4181    0.4479 O   0  0  0  0  0  0  0  0  0  0  0  0
    0.4806   -0.9716   -0.6013 C   0  0  0  0  0  0  0  0  0  0  0  0
   -0.5436    0.0392   -0.1772 C   0  0  0  0  0  0  0  0  0  0  0  0
   -1.3978    0.5398   -1.3666 C   0  0  0  0  0  0  0  0  0  0  0  0
   -1.9990   -0.2610   -0.2562 C   0  0  0  0  0  0  0  0  0  0  0  0
   -2.8735    0.5549    0.6912 C   0  0  0  0  0  0  0  0  0  0  0  0
    2.5787    1.2160   -0.1678 H   0  0  0  0  0  0  0  0  0  0  0  0
    3.1599   -0.3667   -0.7222 H   0  0  0  0  0  0  0  0  0  0  0  0
    3.9156    0.4205    0.6801 H   0  0  0  0  0  0  0  0  0  0  0  0
    2.6196   -1.0169    1.8377 H   0  0  0  0  0  0  0  0  0  0  0  0
    1.3760    0.2707    1.6746 H   0  0  0  0  0  0  0  0  0  0  0  0
    1.1908   -0.4150   -1.2850 H   0  0  0  0  0  0  0  0  0  0  0  0
    0.0564   -1.7631   -1.2259 H   0  0  0  0  0  0  0  0  0  0  0  0
   -0.2010    0.8260    0.5265 H   0  0  0  0  0  0  0  0  0  0  0  0
   -1.5668    1.6452   -1.3944 H   0  0  0  0  0  0  0  0  0  0  0  0
   -1.3220    0.0203   -2.3241 H   0  0  0  0  0  0  0  0  0  0  0  0
   -2.3810   -1.2705   -0.4372 H   0  0  0  0  0  0  0  0  0  0  0  0
   -3.9056    0.5781    0.3238 H   0  0  0  0  0  0  0  0  0  0  0  0
   -2.4574    1.5780    0.8337 H   0  0  0  0  0  0  0  0  0  0  0  0
   -2.8573    0.0118    1.6577 H   0  0  0  0  0  0  0  0  0  0  0  0
  1  2  1  0
  2  3  1  0
  3  4  1  0
  4  5  1  0
  5  6  1  0
  6  7  1  0
  7  8  1  0
  7  5  1  0
  1  9  1  0
  1 10  1  0
  1 11  1  0
  2 12  1  0
  2 13  1  0
  4 14  1  0
  4 15  1  0
  5 16  1  0
  6 17  1  0
  6 18  1  0
  7 19  1  0
  8 20  1  0
  8 21  1  0
  8 22  1  0
M  END
