
     RDKit          3D

 23 24  0  0  0  0  0  0  0  0999 V2000
    3.2195   -0.1089   -0.4426 C   0  0  0  0  0  0  0  0  0  0  0  0
    2.4617    1.2000   -0.4089 C   0  0  0  0  0  0  0  0  0  0  0  0
    1.1275    0.9610   -0.6576 O   0  0  0  0  0  0  0  0  0  0  0  0
    0.5647    0.1000    0.2966 C   0  0  0  0  0  0  0  0  0  0  0  0
   -0.3619   -0.9077   -0.2435 C   0  0  0  0  0  0  0  0  0  0  0  0
   -1.2539   -0.3944   -1.3571 C   0  0  0  0  0  0  0  0  0  0  0  0
   -1.9669    0.4057   -0.2804 C   0  0  0  0  0  0  0  0  0  0  0  0
   -3.1859   -0.3792    0.1693 C   0  0  0  0  0  0  0  0  0  0  0  0
   -0.8474    0.2276    0.6847 C   0  0  0  0  0  0  0  0  0  0  0  0
    4.2469    0.0252   -0.8869 H   0  0  0  0  0  0  0  0  0  0  0  0
    3.2897   -0.5915    0.5423 H   0  0  0  0  0  0  0  0  0  0  0  0
    2.6976   -0.8163   -1.1213 H   0  0  0  0  0  0  0  0  0  0  0  0
    2.8471    1.8245   -1.2396 H   0  0  0  0  0  0  0  0  0  0  0  0
    2.6448    1.7664    0.5211 H   0  0  0  0  0  0  0  0  0  0  0  0
    1.2694   -0.2252    1.0567 H   0  0  0  0  0  0  0  0  0  0  0  0
   -0.5258   -1.8942    0.1914 H   0  0  0  0  0  0  0  0  0  0  0  0
   -0.6959    0.2752   -2.0587 H   0  0  0  0  0  0  0  0  0  0  0  0
   -1.8721   -1.1748   -1.8402 H   0  0  0  0  0  0  0  0  0  0  0  0
   -2.1944    1.4559   -0.5690 H   0  0  0  0  0  0  0  0  0  0  0  0
   -2.8864   -1.4500    0.1799 H   0  0  0  0  0  0  0  0  0  0  0  0
   -3.4646   -0.1248    1.2096 H   0  0  0  0  0  0  0  0  0  0  0  0
   -3.9922   -0.1614   -0.5574 H   0  0  0  0  0  0  0  0  0  0  0  0
   -1.1214   -0.0132    1.7063 H   0  0  0  0  0  0  0  0  0  0  0  0
  1  2  1  0
  2  3  1  0
  3  4  1  0
  4  5  1  0
  5  6  1  0
  6  7  1  0
  7  8  1  0
  7  9  1  0
  9  4  1  0
  9  5  1  0
  1 10  1  0
  1 11  1  0
  1 12  1  0
  2 13  1  0
  2 14  1  0
  4 15  1  0
  5 16  1  0
  6 17  1  0
  6 18  1  0
  7 19  1  0
  8 20  1  0
  8 21  1  0
  8 22  1  0
  9 23  1  0
M  END
