
     RDKit          3D

 18 17  0  0  0  0  0  0  0  0999 V2000
   -2.9285   -0.2764    0.3919 C   0  0  0  0  0  0  0  0  0  0  0  0
   -1.7663   -0.1583   -0.5850 C   0  0  0  0  0  0  0  0  0  0  0  0
   -0.6109   -0.1270    0.1569 O   0  0  0  0  0  0  0  0  0  0  0  0
    0.5463   -0.0213   -0.5824 C   0  0  0  0  0  0  0  0  0  0  0  0
    1.6875   -0.0051    0.4441 C   0  0  0  0  0  0  0  0  0  0  0  0
    1.4392    1.1176    1.2513 O   0  0  0  0  0  0  0  0  0  0  0  0
    2.9813    0.1142   -0.2309 C   0  0  0  0  0  0  0  0  0  0  0  0
    3.3732   -0.7560   -0.9716 O   0  0  0  0  0  0  0  0  0  0  0  0
   -2.6396    0.1195    1.4097 H   0  0  0  0  0  0  0  0  0  0  0  0
   -3.7600    0.3604    0.0376 H   0  0  0  0  0  0  0  0  0  0  0  0
   -3.2187   -1.3306    0.5641 H   0  0  0  0  0  0  0  0  0  0  0  0
   -1.8894    0.7217   -1.2541 H   0  0  0  0  0  0  0  0  0  0  0  0
   -1.7214   -1.0747   -1.2300 H   0  0  0  0  0  0  0  0  0  0  0  0
    0.6798   -0.8403   -1.3137 H   0  0  0  0  0  0  0  0  0  0  0  0
    0.6130    0.9352   -1.1464 H   0  0  0  0  0  0  0  0  0  0  0  0
    1.5977   -0.9111    1.0836 H   0  0  0  0  0  0  0  0  0  0  0  0
    2.0271    1.1469    2.0408 H   0  0  0  0  0  0  0  0  0  0  0  0
    3.5896    0.9856   -0.0659 H   0  0  0  0  0  0  0  0  0  0  0  0
  1  2  1  0
  2  3  1  0
  3  4  1  0
  4  5  1  0
  5  6  1  0
  5  7  1  0
  7  8  2  0
  1  9  1  0
  1 10  1  0
  1 11  1  0
  2 12  1  0
  2 13  1  0
  4 14  1  0
  4 15  1  0
  5 16  1  0
  6 17  1  0
  7 18  1  0
M  END
