
     RDKit          3D

 21 21  0  0  0  0  0  0  0  0999 V2000
    2.7378   -0.0109    0.4501 C   0  0  0  0  0  0  0  0  0  0  0  0
    2.1113    0.3543   -0.8700 C   0  0  0  0  0  0  0  0  0  0  0  0
    0.8359    0.8554   -0.6083 O   0  0  0  0  0  0  0  0  0  0  0  0
    0.1209   -0.1338    0.0256 C   0  0  0  0  0  0  0  0  0  0  0  0
   -1.2901    0.2828    0.3681 C   0  0  0  0  0  0  0  0  0  0  0  0
   -1.3894    1.3698    1.2042 O   0  0  0  0  0  0  0  0  0  0  0  0
   -2.1173   -0.9151    0.7364 C   0  0  0  0  0  0  0  0  0  0  0  0
   -2.9448   -0.7677   -0.3754 O   0  0  0  0  0  0  0  0  0  0  0  0
   -2.2437    0.3674   -0.7882 C   0  0  0  0  0  0  0  0  0  0  0  0
    3.8509    0.1412    0.4296 H   0  0  0  0  0  0  0  0  0  0  0  0
    2.5653   -1.0517    0.7281 H   0  0  0  0  0  0  0  0  0  0  0  0
    2.3664    0.6472    1.2791 H   0  0  0  0  0  0  0  0  0  0  0  0
    2.0082   -0.6073   -1.4491 H   0  0  0  0  0  0  0  0  0  0  0  0
    2.7263    1.0214   -1.4796 H   0  0  0  0  0  0  0  0  0  0  0  0
    0.1453   -1.0523   -0.5764 H   0  0  0  0  0  0  0  0  0  0  0  0
    0.6230   -0.3777    1.0012 H   0  0  0  0  0  0  0  0  0  0  0  0
   -1.1965    1.1230    2.1260 H   0  0  0  0  0  0  0  0  0  0  0  0
   -1.5796   -1.9022    0.6340 H   0  0  0  0  0  0  0  0  0  0  0  0
   -2.6155   -0.8899    1.7084 H   0  0  0  0  0  0  0  0  0  0  0  0
   -2.9233    1.2502   -0.7428 H   0  0  0  0  0  0  0  0  0  0  0  0
   -1.7909    0.2959   -1.7891 H   0  0  0  0  0  0  0  0  0  0  0  0
  1  2  1  0
  2  3  1  0
  3  4  1  0
  4  5  1  0
  5  6  1  0
  5  7  1  0
  7  8  1  0
  8  9  1  0
  9  5  1  0
  1 10  1  0
  1 11  1  0
  1 12  1  0
  2 13  1  0
  2 14  1  0
  4 15  1  0
  4 16  1  0
  6 17  1  0
  7 18  1  0
  7 19  1  0
  9 20  1  0
  9 21  1  0
M  END
