
     RDKit          3D

 18 17  0  0  0  0  0  0  0  0999 V2000
   -2.2328    0.3677    0.7264 C   0  0  0  0  0  0  0  0  0  0  0  0
   -1.0919    1.2470    0.2746 C   0  0  0  0  0  0  0  0  0  0  0  0
   -0.1731    0.5972   -0.5148 O   0  0  0  0  0  0  0  0  0  0  0  0
    0.4402   -0.4749    0.0802 C   0  0  0  0  0  0  0  0  0  0  0  0
    0.3256   -1.7223   -0.7513 C   0  0  0  0  0  0  0  0  0  0  0  0
    0.8115   -2.7492   -0.3679 O   0  0  0  0  0  0  0  0  0  0  0  0
    1.9304   -0.1803    0.1759 C   0  0  0  0  0  0  0  0  0  0  0  0
    2.1000    0.9598    0.9361 O   0  0  0  0  0  0  0  0  0  0  0  0
   -2.6785   -0.0809   -0.1719 H   0  0  0  0  0  0  0  0  0  0  0  0
   -1.9330   -0.3586    1.4997 H   0  0  0  0  0  0  0  0  0  0  0  0
   -2.9774    1.0477    1.2121 H   0  0  0  0  0  0  0  0  0  0  0  0
   -0.6652    1.7329    1.1705 H   0  0  0  0  0  0  0  0  0  0  0  0
   -1.5477    2.0551   -0.3507 H   0  0  0  0  0  0  0  0  0  0  0  0
    0.1031   -0.6659    1.1247 H   0  0  0  0  0  0  0  0  0  0  0  0
   -0.2043   -1.6393   -1.6852 H   0  0  0  0  0  0  0  0  0  0  0  0
    2.3942   -1.0764    0.6609 H   0  0  0  0  0  0  0  0  0  0  0  0
    2.3839   -0.0325   -0.8292 H   0  0  0  0  0  0  0  0  0  0  0  0
    3.0150    0.9729    1.2812 H   0  0  0  0  0  0  0  0  0  0  0  0
  1  2  1  0
  2  3  1  0
  3  4  1  0
  4  5  1  0
  5  6  2  0
  4  7  1  0
  7  8  1  0
  1  9  1  0
  1 10  1  0
  1 11  1  0
  2 12  1  0
  2 13  1  0
  4 14  1  0
  5 15  1  0
  7 16  1  0
  7 17  1  0
  8 18  1  0
M  END
