
     RDKit          3D

 23 23  0  0  0  0  0  0  0  0999 V2000
   -2.6298   -0.5419    0.0156 C   0  0  0  0  0  0  0  0  0  0  0  0
   -1.4191   -1.3923   -0.1884 C   0  0  0  0  0  0  0  0  0  0  0  0
   -0.2456   -0.9737    0.3191 O   0  0  0  0  0  0  0  0  0  0  0  0
    0.3313    0.1797   -0.0595 C   0  0  0  0  0  0  0  0  0  0  0  0
   -0.4376    1.4384    0.2072 C   0  0  0  0  0  0  0  0  0  0  0  0
    1.6348    0.3198    0.7501 C   0  0  0  0  0  0  0  0  0  0  0  0
    2.6566   -0.0904   -0.2901 C   0  0  0  0  0  0  0  0  0  0  0  0
    2.1880    0.6741   -1.3869 O   0  0  0  0  0  0  0  0  0  0  0  0
    0.8866    0.1767   -1.4686 C   0  0  0  0  0  0  0  0  0  0  0  0
   -2.9467   -0.0280   -0.9409 H   0  0  0  0  0  0  0  0  0  0  0  0
   -2.6208    0.1154    0.8836 H   0  0  0  0  0  0  0  0  0  0  0  0
   -3.5129   -1.2347    0.1996 H   0  0  0  0  0  0  0  0  0  0  0  0
   -1.6222   -2.4092    0.2797 H   0  0  0  0  0  0  0  0  0  0  0  0
   -1.3971   -1.6424   -1.2756 H   0  0  0  0  0  0  0  0  0  0  0  0
    0.2660    2.2873   -0.0387 H   0  0  0  0  0  0  0  0  0  0  0  0
   -1.3021    1.6016   -0.4437 H   0  0  0  0  0  0  0  0  0  0  0  0
   -0.7149    1.4691    1.2838 H   0  0  0  0  0  0  0  0  0  0  0  0
    1.6252   -0.3247    1.6312 H   0  0  0  0  0  0  0  0  0  0  0  0
    1.8443    1.3737    1.0002 H   0  0  0  0  0  0  0  0  0  0  0  0
    2.5069   -1.1630   -0.5117 H   0  0  0  0  0  0  0  0  0  0  0  0
    3.6775    0.1775   -0.0240 H   0  0  0  0  0  0  0  0  0  0  0  0
    0.9909   -0.8460   -1.8811 H   0  0  0  0  0  0  0  0  0  0  0  0
    0.2407    0.8331   -2.0867 H   0  0  0  0  0  0  0  0  0  0  0  0
  1  2  1  0
  2  3  1  0
  3  4  1  0
  4  5  1  0
  4  6  1  0
  6  7  1  0
  7  8  1  0
  8  9  1  0
  9  4  1  0
  1 10  1  0
  1 11  1  0
  1 12  1  0
  2 13  1  0
  2 14  1  0
  5 15  1  0
  5 16  1  0
  5 17  1  0
  6 18  1  0
  6 19  1  0
  7 20  1  0
  7 21  1  0
  9 22  1  0
  9 23  1  0
M  END
