
     RDKit          3D

 21 20  0  0  0  0  0  0  0  0999 V2000
   -2.7830    1.0778    1.0469 C   0  0  0  0  0  0  0  0  0  0  0  0
   -1.9616    0.3519   -0.0276 C   0  0  0  0  0  0  0  0  0  0  0  0
   -1.5051   -0.8441    0.4664 O   0  0  0  0  0  0  0  0  0  0  0  0
   -0.7559   -1.5695   -0.4414 C   0  0  0  0  0  0  0  0  0  0  0  0
    0.4735   -0.8188   -0.8979 C   0  0  0  0  0  0  0  0  0  0  0  0
    1.3292   -0.5020    0.1529 O   0  0  0  0  0  0  0  0  0  0  0  0
    2.4106    0.1815   -0.4012 C   0  0  0  0  0  0  0  0  0  0  0  0
    3.4059    0.5825    0.6050 C   0  0  0  0  0  0  0  0  0  0  0  0
    4.3953    1.1818    0.2704 O   0  0  0  0  0  0  0  0  0  0  0  0
   -2.0808    1.3948    1.8199 H   0  0  0  0  0  0  0  0  0  0  0  0
   -3.2596    1.9781    0.5939 H   0  0  0  0  0  0  0  0  0  0  0  0
   -3.5334    0.3424    1.3979 H   0  0  0  0  0  0  0  0  0  0  0  0
   -2.6011    0.2730   -0.9164 H   0  0  0  0  0  0  0  0  0  0  0  0
   -1.0784    1.0284   -0.1855 H   0  0  0  0  0  0  0  0  0  0  0  0
   -0.4886   -2.5615   -0.0362 H   0  0  0  0  0  0  0  0  0  0  0  0
   -1.3930   -1.7010   -1.3489 H   0  0  0  0  0  0  0  0  0  0  0  0
    0.2317    0.1053   -1.4310 H   0  0  0  0  0  0  0  0  0  0  0  0
    1.0814   -1.4328   -1.6052 H   0  0  0  0  0  0  0  0  0  0  0  0
    1.9675    1.0647   -0.9400 H   0  0  0  0  0  0  0  0  0  0  0  0
    2.8894   -0.4765   -1.1829 H   0  0  0  0  0  0  0  0  0  0  0  0
    3.2557    0.3441    1.6364 H   0  0  0  0  0  0  0  0  0  0  0  0
  1  2  1  0
  2  3  1  0
  3  4  1  0
  4  5  1  0
  5  6  1  0
  6  7  1  0
  7  8  1  0
  8  9  2  0
  1 10  1  0
  1 11  1  0
  1 12  1  0
  2 13  1  0
  2 14  1  0
  4 15  1  0
  4 16  1  0
  5 17  1  0
  5 18  1  0
  7 19  1  0
  7 20  1  0
  8 21  1  0
M  END
