
     RDKit          3D

 23 23  0  0  0  0  0  0  0  0999 V2000
    2.9566   -0.2445   -0.0371 C   0  0  0  0  0  0  0  0  0  0  0  0
    1.7791    0.1160   -0.9306 C   0  0  0  0  0  0  0  0  0  0  0  0
    0.8393   -0.8991   -0.8306 O   0  0  0  0  0  0  0  0  0  0  0  0
    0.3680   -1.0939    0.4586 C   0  0  0  0  0  0  0  0  0  0  0  0
   -0.2876    0.1238    0.9951 C   0  0  0  0  0  0  0  0  0  0  0  0
   -1.4665    0.6160    0.2238 C   0  0  0  0  0  0  0  0  0  0  0  0
   -2.0342    1.7796    0.7999 O   0  0  0  0  0  0  0  0  0  0  0  0
   -2.5124   -0.3680   -0.2152 C   0  0  0  0  0  0  0  0  0  0  0  0
   -1.6999    0.4341   -1.1992 C   0  0  0  0  0  0  0  0  0  0  0  0
    3.8517    0.2271   -0.4925 H   0  0  0  0  0  0  0  0  0  0  0  0
    2.7555    0.1806    0.9867 H   0  0  0  0  0  0  0  0  0  0  0  0
    3.0855   -1.3457    0.0231 H   0  0  0  0  0  0  0  0  0  0  0  0
    1.3868    1.1200   -0.6833 H   0  0  0  0  0  0  0  0  0  0  0  0
    2.1139    0.1633   -1.9960 H   0  0  0  0  0  0  0  0  0  0  0  0
    1.2699   -1.2874    1.1096 H   0  0  0  0  0  0  0  0  0  0  0  0
   -0.2454   -2.0043    0.4986 H   0  0  0  0  0  0  0  0  0  0  0  0
    0.4759    0.9205    1.1144 H   0  0  0  0  0  0  0  0  0  0  0  0
   -0.6201   -0.0784    2.0547 H   0  0  0  0  0  0  0  0  0  0  0  0
   -2.7510    2.1177    0.2041 H   0  0  0  0  0  0  0  0  0  0  0  0
   -2.3305   -1.4532   -0.1096 H   0  0  0  0  0  0  0  0  0  0  0  0
   -3.5877   -0.1016   -0.1734 H   0  0  0  0  0  0  0  0  0  0  0  0
   -2.2388    1.2564   -1.7576 H   0  0  0  0  0  0  0  0  0  0  0  0
   -1.1081   -0.1792   -1.8846 H   0  0  0  0  0  0  0  0  0  0  0  0
  1  2  1  0
  2  3  1  0
  3  4  1  0
  4  5  1  0
  5  6  1  0
  6  7  1  0
  6  8  1  0
  8  9  1  0
  9  6  1  0
  1 10  1  0
  1 11  1  0
  1 12  1  0
  2 13  1  0
  2 14  1  0
  4 15  1  0
  4 16  1  0
  5 17  1  0
  5 18  1  0
  7 19  1  0
  8 20  1  0
  8 21  1  0
  9 22  1  0
  9 23  1  0
M  END
