
     RDKit          3D

 21 21  0  0  0  0  0  0  0  0999 V2000
   -2.9161    0.3594   -0.3427 C   0  0  0  0  0  0  0  0  0  0  0  0
   -2.0742   -0.8537   -0.5619 C   0  0  0  0  0  0  0  0  0  0  0  0
   -0.7363   -0.6075   -0.7090 O   0  0  0  0  0  0  0  0  0  0  0  0
   -0.1282    0.0037    0.3489 C   0  0  0  0  0  0  0  0  0  0  0  0
    0.8721    1.1006   -0.0548 C   0  0  0  0  0  0  0  0  0  0  0  0
    0.8300    2.2978    0.6730 O   0  0  0  0  0  0  0  0  0  0  0  0
    1.3136   -0.1558    0.6473 C   0  0  0  0  0  0  0  0  0  0  0  0
    2.1724   -1.0894   -0.1709 C   0  0  0  0  0  0  0  0  0  0  0  0
    3.4744   -1.0427    0.3251 O   0  0  0  0  0  0  0  0  0  0  0  0
   -3.3784    0.2558    0.6801 H   0  0  0  0  0  0  0  0  0  0  0  0
   -3.8086    0.3830   -1.0356 H   0  0  0  0  0  0  0  0  0  0  0  0
   -2.3955    1.3070   -0.4854 H   0  0  0  0  0  0  0  0  0  0  0  0
   -2.4311   -1.3402   -1.5041 H   0  0  0  0  0  0  0  0  0  0  0  0
   -2.1978   -1.6166    0.2351 H   0  0  0  0  0  0  0  0  0  0  0  0
   -0.7726    0.2446    1.2292 H   0  0  0  0  0  0  0  0  0  0  0  0
    1.0814    1.2432   -1.1170 H   0  0  0  0  0  0  0  0  0  0  0  0
    1.7477    2.6316    0.8387 H   0  0  0  0  0  0  0  0  0  0  0  0
    1.6617    0.0041    1.6752 H   0  0  0  0  0  0  0  0  0  0  0  0
    1.8087   -2.1380    0.0285 H   0  0  0  0  0  0  0  0  0  0  0  0
    2.1984   -0.8467   -1.2344 H   0  0  0  0  0  0  0  0  0  0  0  0
    3.6786   -0.1402    0.7304 H   0  0  0  0  0  0  0  0  0  0  0  0
  1  2  1  0
  2  3  1  0
  3  4  1  0
  4  5  1  0
  5  6  1  0
  5  7  1  0
  7  8  1  0
  8  9  1  0
  7  4  1  0
  1 10  1  0
  1 11  1  0
  1 12  1  0
  2 13  1  0
  2 14  1  0
  4 15  1  0
  5 16  1  0
  6 17  1  0
  7 18  1  0
  8 19  1  0
  8 20  1  0
  9 21  1  0
M  END
