
     RDKit          3D

 23 23  0  0  0  0  0  0  0  0999 V2000
    3.4326   -0.4740   -0.0991 C   0  0  0  0  0  0  0  0  0  0  0  0
    2.1834    0.2267    0.3984 C   0  0  0  0  0  0  0  0  0  0  0  0
    1.0468   -0.2205   -0.2750 O   0  0  0  0  0  0  0  0  0  0  0  0
   -0.0350    0.4578    0.2301 C   0  0  0  0  0  0  0  0  0  0  0  0
   -0.9282    1.1240   -0.8232 C   0  0  0  0  0  0  0  0  0  0  0  0
   -2.0972    0.7932    0.1166 C   0  0  0  0  0  0  0  0  0  0  0  0
   -3.2662    0.4541   -0.5146 O   0  0  0  0  0  0  0  0  0  0  0  0
   -1.2431   -0.3887    0.5826 C   0  0  0  0  0  0  0  0  0  0  0  0
   -1.4079   -1.6239   -0.2679 C   0  0  0  0  0  0  0  0  0  0  0  0
    4.3040   -0.0057    0.4013 H   0  0  0  0  0  0  0  0  0  0  0  0
    3.5297   -0.3715   -1.2014 H   0  0  0  0  0  0  0  0  0  0  0  0
    3.3766   -1.5637    0.1034 H   0  0  0  0  0  0  0  0  0  0  0  0
    2.0960    0.0396    1.4882 H   0  0  0  0  0  0  0  0  0  0  0  0
    2.3399    1.3276    0.2257 H   0  0  0  0  0  0  0  0  0  0  0  0
    0.1946    1.1864    1.0286 H   0  0  0  0  0  0  0  0  0  0  0  0
   -0.7514    2.1920   -0.9587 H   0  0  0  0  0  0  0  0  0  0  0  0
   -0.9759    0.5476   -1.7670 H   0  0  0  0  0  0  0  0  0  0  0  0
   -2.1498    1.5326    0.9313 H   0  0  0  0  0  0  0  0  0  0  0  0
   -3.9232    1.1964   -0.3258 H   0  0  0  0  0  0  0  0  0  0  0  0
   -1.3723   -0.6179    1.6347 H   0  0  0  0  0  0  0  0  0  0  0  0
   -2.4807   -1.9112   -0.2899 H   0  0  0  0  0  0  0  0  0  0  0  0
   -0.7988   -2.4189    0.2073 H   0  0  0  0  0  0  0  0  0  0  0  0
   -1.0739   -1.4819   -1.3135 H   0  0  0  0  0  0  0  0  0  0  0  0
  1  2  1  0
  2  3  1  0
  3  4  1  0
  4  5  1  0
  5  6  1  0
  6  7  1  0
  6  8  1  0
  8  9  1  0
  8  4  1  0
  1 10  1  0
  1 11  1  0
  1 12  1  0
  2 13  1  0
  2 14  1  0
  4 15  1  0
  5 16  1  0
  5 17  1  0
  6 18  1  0
  7 19  1  0
  8 20  1  0
  9 21  1  0
  9 22  1  0
  9 23  1  0
M  END
