
     RDKit          3D

 25 24  0  0  0  0  0  0  0  0999 V2000
    3.5611   -0.0301   -0.8689 C   0  0  0  0  0  0  0  0  0  0  0  0
    2.3914    0.8140   -0.3970 C   0  0  0  0  0  0  0  0  0  0  0  0
    1.3554   -0.0577   -0.0973 O   0  0  0  0  0  0  0  0  0  0  0  0
    0.2351    0.6427    0.3468 C   0  0  0  0  0  0  0  0  0  0  0  0
   -0.8706   -0.3428    0.6626 C   0  0  0  0  0  0  0  0  0  0  0  0
   -2.0816    0.4714    1.0643 C   0  0  0  0  0  0  0  0  0  0  0  0
   -2.4284    1.3523   -0.1159 C   0  0  0  0  0  0  0  0  0  0  0  0
   -1.2257   -1.0830   -0.4525 O   0  0  0  0  0  0  0  0  0  0  0  0
   -1.1435   -2.4514   -0.2425 C   0  0  0  0  0  0  0  0  0  0  0  0
    3.8024   -0.7214   -0.0428 H   0  0  0  0  0  0  0  0  0  0  0  0
    4.4419    0.5875   -1.1315 H   0  0  0  0  0  0  0  0  0  0  0  0
    3.2113   -0.6633   -1.7224 H   0  0  0  0  0  0  0  0  0  0  0  0
    2.1171    1.5928   -1.1128 H   0  0  0  0  0  0  0  0  0  0  0  0
    2.6846    1.3367    0.5508 H   0  0  0  0  0  0  0  0  0  0  0  0
    0.4804    1.1904    1.2801 H   0  0  0  0  0  0  0  0  0  0  0  0
   -0.1572    1.3341   -0.4385 H   0  0  0  0  0  0  0  0  0  0  0  0
   -0.5844   -0.9844    1.5224 H   0  0  0  0  0  0  0  0  0  0  0  0
   -2.9651   -0.1859    1.2377 H   0  0  0  0  0  0  0  0  0  0  0  0
   -1.8181    1.0588    1.9602 H   0  0  0  0  0  0  0  0  0  0  0  0
   -1.9049    2.3238   -0.1021 H   0  0  0  0  0  0  0  0  0  0  0  0
   -3.5132    1.5744   -0.1619 H   0  0  0  0  0  0  0  0  0  0  0  0
   -2.1572    0.7901   -1.0318 H   0  0  0  0  0  0  0  0  0  0  0  0
   -0.1362   -2.7915    0.0264 H   0  0  0  0  0  0  0  0  0  0  0  0
   -1.3951   -2.9361   -1.2162 H   0  0  0  0  0  0  0  0  0  0  0  0
   -1.8995   -2.8214    0.4829 H   0  0  0  0  0  0  0  0  0  0  0  0
  1  2  1  0
  2  3  1  0
  3  4  1  0
  4  5  1  0
  5  6  1  0
  6  7  1  0
  5  8  1  0
  8  9  1  0
  1 10  1  0
  1 11  1  0
  1 12  1  0
  2 13  1  0
  2 14  1  0
  4 15  1  0
  4 16  1  0
  5 17  1  0
  6 18  1  0
  6 19  1  0
  7 20  1  0
  7 21  1  0
  7 22  1  0
  9 23  1  0
  9 24  1  0
  9 25  1  0
M  END
