
     RDKit          3D

 23 22  0  0  0  0  0  0  0  0999 V2000
    3.0200    1.1005   -0.3907 C   0  0  0  0  0  0  0  0  0  0  0  0
    2.1391    0.0064    0.1874 C   0  0  0  0  0  0  0  0  0  0  0  0
    1.5949   -0.6658   -0.8749 O   0  0  0  0  0  0  0  0  0  0  0  0
    0.7619   -1.7247   -0.5615 C   0  0  0  0  0  0  0  0  0  0  0  0
   -0.3967   -1.2032    0.2422 C   0  0  0  0  0  0  0  0  0  0  0  0
   -1.1886   -0.1578   -0.5189 C   0  0  0  0  0  0  0  0  0  0  0  0
   -2.3003    0.2865    0.3594 C   0  0  0  0  0  0  0  0  0  0  0  0
   -3.2222    1.3352   -0.2059 C   0  0  0  0  0  0  0  0  0  0  0  0
   -2.4417   -0.1755    1.4571 O   0  0  0  0  0  0  0  0  0  0  0  0
    4.0572    0.7829   -0.2526 H   0  0  0  0  0  0  0  0  0  0  0  0
    2.8490    1.2464   -1.4789 H   0  0  0  0  0  0  0  0  0  0  0  0
    2.8145    2.0731    0.0915 H   0  0  0  0  0  0  0  0  0  0  0  0
    2.7237   -0.7005    0.8266 H   0  0  0  0  0  0  0  0  0  0  0  0
    1.4110    0.4890    0.8713 H   0  0  0  0  0  0  0  0  0  0  0  0
    1.2858   -2.4824    0.0622 H   0  0  0  0  0  0  0  0  0  0  0  0
    0.4440   -2.2211   -1.4919 H   0  0  0  0  0  0  0  0  0  0  0  0
   -0.1047   -0.7644    1.2102 H   0  0  0  0  0  0  0  0  0  0  0  0
   -1.0527   -2.0719    0.4894 H   0  0  0  0  0  0  0  0  0  0  0  0
   -0.5505    0.6804   -0.8268 H   0  0  0  0  0  0  0  0  0  0  0  0
   -1.5894   -0.6079   -1.4702 H   0  0  0  0  0  0  0  0  0  0  0  0
   -3.9731    1.6179    0.5384 H   0  0  0  0  0  0  0  0  0  0  0  0
   -3.6442    0.9165   -1.1433 H   0  0  0  0  0  0  0  0  0  0  0  0
   -2.6369    2.2404   -0.5301 H   0  0  0  0  0  0  0  0  0  0  0  0
  1  2  1  0
  2  3  1  0
  3  4  1  0
  4  5  1  0
  5  6  1  0
  6  7  1  0
  7  8  1  0
  7  9  2  0
  1 10  1  0
  1 11  1  0
  1 12  1  0
  2 13  1  0
  2 14  1  0
  4 15  1  0
  4 16  1  0
  5 17  1  0
  5 18  1  0
  6 19  1  0
  6 20  1  0
  8 21  1  0
  8 22  1  0
  8 23  1  0
M  END
