
     RDKit          3D

 23 22  0  0  0  0  0  0  0  0999 V2000
    1.7940   -1.4809    0.4421 C   0  0  0  0  0  0  0  0  0  0  0  0
    1.6959   -0.1134    1.0337 C   0  0  0  0  0  0  0  0  0  0  0  0
    0.4343    0.4138    1.0868 O   0  0  0  0  0  0  0  0  0  0  0  0
   -0.2072    0.5652   -0.1083 C   0  0  0  0  0  0  0  0  0  0  0  0
   -0.4566    2.0431   -0.4434 C   0  0  0  0  0  0  0  0  0  0  0  0
    0.7558    2.7327   -0.5190 O   0  0  0  0  0  0  0  0  0  0  0  0
   -1.5162   -0.1234   -0.1833 C   0  0  0  0  0  0  0  0  0  0  0  0
   -1.4580   -1.5970    0.1137 C   0  0  0  0  0  0  0  0  0  0  0  0
   -2.0883    0.0899   -1.4355 O   0  0  0  0  0  0  0  0  0  0  0  0
    1.3517   -2.2714    1.0889 H   0  0  0  0  0  0  0  0  0  0  0  0
    1.4233   -1.5571   -0.5849 H   0  0  0  0  0  0  0  0  0  0  0  0
    2.8894   -1.7327    0.3930 H   0  0  0  0  0  0  0  0  0  0  0  0
    2.4321    0.5336    0.5118 H   0  0  0  0  0  0  0  0  0  0  0  0
    2.0631   -0.1877    2.0932 H   0  0  0  0  0  0  0  0  0  0  0  0
    0.4664    0.2074   -0.9309 H   0  0  0  0  0  0  0  0  0  0  0  0
   -1.1494    2.4865    0.2792 H   0  0  0  0  0  0  0  0  0  0  0  0
   -0.9213    2.1272   -1.4474 H   0  0  0  0  0  0  0  0  0  0  0  0
    0.6056    3.6745   -0.2214 H   0  0  0  0  0  0  0  0  0  0  0  0
   -2.2225    0.3287    0.5564 H   0  0  0  0  0  0  0  0  0  0  0  0
   -2.4764   -2.0364    0.0971 H   0  0  0  0  0  0  0  0  0  0  0  0
   -0.9094   -2.1028   -0.7267 H   0  0  0  0  0  0  0  0  0  0  0  0
   -1.0118   -1.8435    1.0739 H   0  0  0  0  0  0  0  0  0  0  0  0
   -1.4946   -0.1563   -2.1690 H   0  0  0  0  0  0  0  0  0  0  0  0
  1  2  1  0
  2  3  1  0
  3  4  1  0
  4  5  1  0
  5  6  1  0
  4  7  1  0
  7  8  1  0
  7  9  1  0
  1 10  1  0
  1 11  1  0
  1 12  1  0
  2 13  1  0
  2 14  1  0
  4 15  1  0
  5 16  1  0
  5 17  1  0
  6 18  1  0
  7 19  1  0
  8 20  1  0
  8 21  1  0
  8 22  1  0
  9 23  1  0
M  END
