
     RDKit          3D

 25 25  0  0  0  0  0  0  0  0999 V2000
    2.7033   -1.1611   -0.3161 C   0  0  0  0  0  0  0  0  0  0  0  0
    2.3460    0.0618   -1.1007 C   0  0  0  0  0  0  0  0  0  0  0  0
    1.0221    0.4274   -1.0133 O   0  0  0  0  0  0  0  0  0  0  0  0
    0.5944    0.7105    0.2613 C   0  0  0  0  0  0  0  0  0  0  0  0
   -0.2645    1.9231    0.4417 C   0  0  0  0  0  0  0  0  0  0  0  0
   -1.1175    1.0859    1.3724 C   0  0  0  0  0  0  0  0  0  0  0  0
   -0.6212   -0.1256    0.6093 C   0  0  0  0  0  0  0  0  0  0  0  0
   -1.5365   -0.3575   -0.5973 C   0  0  0  0  0  0  0  0  0  0  0  0
   -2.7254   -1.1883   -0.2102 C   0  0  0  0  0  0  0  0  0  0  0  0
    2.1099   -1.3225    0.5841 H   0  0  0  0  0  0  0  0  0  0  0  0
    3.7805   -1.0694   -0.0005 H   0  0  0  0  0  0  0  0  0  0  0  0
    2.6764   -2.1006   -0.9277 H   0  0  0  0  0  0  0  0  0  0  0  0
    2.9558    0.9494   -0.8107 H   0  0  0  0  0  0  0  0  0  0  0  0
    2.5601   -0.1545   -2.1709 H   0  0  0  0  0  0  0  0  0  0  0  0
    1.3381    0.6190    1.0718 H   0  0  0  0  0  0  0  0  0  0  0  0
    0.1964    2.7498    1.0424 H   0  0  0  0  0  0  0  0  0  0  0  0
   -0.8306    2.2741   -0.4340 H   0  0  0  0  0  0  0  0  0  0  0  0
   -0.7209    1.0603    2.4051 H   0  0  0  0  0  0  0  0  0  0  0  0
   -2.2034    1.2744    1.3070 H   0  0  0  0  0  0  0  0  0  0  0  0
   -0.4326   -1.0170    1.2035 H   0  0  0  0  0  0  0  0  0  0  0  0
   -1.8325    0.6098   -1.0521 H   0  0  0  0  0  0  0  0  0  0  0  0
   -0.9816   -0.9212   -1.3818 H   0  0  0  0  0  0  0  0  0  0  0  0
   -3.5181   -0.6151    0.2901 H   0  0  0  0  0  0  0  0  0  0  0  0
   -2.3298   -2.0184    0.4433 H   0  0  0  0  0  0  0  0  0  0  0  0
   -3.1682   -1.6942   -1.0858 H   0  0  0  0  0  0  0  0  0  0  0  0
  1  2  1  0
  2  3  1  0
  3  4  1  0
  4  5  1  0
  5  6  1  0
  6  7  1  0
  7  8  1  0
  8  9  1  0
  7  4  1  0
  1 10  1  0
  1 11  1  0
  1 12  1  0
  2 13  1  0
  2 14  1  0
  4 15  1  0
  5 16  1  0
  5 17  1  0
  6 18  1  0
  6 19  1  0
  7 20  1  0
  8 21  1  0
  8 22  1  0
  9 23  1  0
  9 24  1  0
  9 25  1  0
M  END
