
     RDKit          3D

 21 21  0  0  0  0  0  0  0  0999 V2000
   -3.8360    0.6686   -0.2114 C   0  0  0  0  0  0  0  0  0  0  0  0
   -2.7538   -0.3753   -0.1960 C   0  0  0  0  0  0  0  0  0  0  0  0
   -1.4659    0.2125   -0.2312 O   0  0  0  0  0  0  0  0  0  0  0  0
   -0.2988   -0.5212   -0.2261 C   0  0  0  0  0  0  0  0  0  0  0  0
   -0.3668   -1.7713   -0.1886 O   0  0  0  0  0  0  0  0  0  0  0  0
    0.9892    0.1904   -0.2649 C   0  0  0  0  0  0  0  0  0  0  0  0
    2.0048   -0.4799   -1.1932 C   0  0  0  0  0  0  0  0  0  0  0  0
    2.2228   -0.3865    0.3038 C   0  0  0  0  0  0  0  0  0  0  0  0
    3.3142    0.5702    0.6957 C   0  0  0  0  0  0  0  0  0  0  0  0
   -3.4908    1.5910   -0.7438 H   0  0  0  0  0  0  0  0  0  0  0  0
   -4.7545    0.2460   -0.7011 H   0  0  0  0  0  0  0  0  0  0  0  0
   -4.1152    0.9634    0.8132 H   0  0  0  0  0  0  0  0  0  0  0  0
   -2.9370   -1.0824   -1.0104 H   0  0  0  0  0  0  0  0  0  0  0  0
   -2.7921   -0.9546    0.7710 H   0  0  0  0  0  0  0  0  0  0  0  0
    0.9285    1.2870   -0.2960 H   0  0  0  0  0  0  0  0  0  0  0  0
    1.7893   -1.5055   -1.5650 H   0  0  0  0  0  0  0  0  0  0  0  0
    2.5230    0.2120   -1.8641 H   0  0  0  0  0  0  0  0  0  0  0  0
    2.1887   -1.3076    0.9131 H   0  0  0  0  0  0  0  0  0  0  0  0
    3.3044    1.5008    0.0998 H   0  0  0  0  0  0  0  0  0  0  0  0
    3.2568    0.8785    1.7645 H   0  0  0  0  0  0  0  0  0  0  0  0
    4.2892    0.0639    0.4788 H   0  0  0  0  0  0  0  0  0  0  0  0
  1  2  1  0
  2  3  1  0
  3  4  1  0
  4  5  2  0
  4  6  1  0
  6  7  1  0
  7  8  1  0
  8  9  1  0
  8  6  1  0
  1 10  1  0
  1 11  1  0
  1 12  1  0
  2 13  1  0
  2 14  1  0
  6 15  1  0
  7 16  1  0
  7 17  1  0
  8 18  1  0
  9 19  1  0
  9 20  1  0
  9 21  1  0
M  END
