
     RDKit          3D

 25 25  0  0  0  0  0  0  0  0999 V2000
    3.3759   -0.6065    1.1494 C   0  0  0  0  0  0  0  0  0  0  0  0
    2.3460   -0.2098    0.1265 C   0  0  0  0  0  0  0  0  0  0  0  0
    1.0853   -0.1153    0.6983 O   0  0  0  0  0  0  0  0  0  0  0  0
    0.1393    0.2464   -0.2293 C   0  0  0  0  0  0  0  0  0  0  0  0
   -1.0145    1.1148    0.1177 C   0  0  0  0  0  0  0  0  0  0  0  0
   -1.4557    2.1672   -0.8638 C   0  0  0  0  0  0  0  0  0  0  0  0
   -1.2672   -0.3073   -0.0677 C   0  0  0  0  0  0  0  0  0  0  0  0
   -1.5374   -1.1602    1.1719 C   0  0  0  0  0  0  0  0  0  0  0  0
   -1.8163   -0.9053   -1.3268 C   0  0  0  0  0  0  0  0  0  0  0  0
    2.9994   -1.4886    1.7037 H   0  0  0  0  0  0  0  0  0  0  0  0
    3.5091    0.2340    1.8600 H   0  0  0  0  0  0  0  0  0  0  0  0
    4.3249   -0.8012    0.6139 H   0  0  0  0  0  0  0  0  0  0  0  0
    2.6496    0.8076   -0.2453 H   0  0  0  0  0  0  0  0  0  0  0  0
    2.3718   -0.8705   -0.7415 H   0  0  0  0  0  0  0  0  0  0  0  0
    0.5326    0.4008   -1.2653 H   0  0  0  0  0  0  0  0  0  0  0  0
   -1.0141    1.4862    1.1759 H   0  0  0  0  0  0  0  0  0  0  0  0
   -2.4309    2.5975   -0.6079 H   0  0  0  0  0  0  0  0  0  0  0  0
   -1.4239    1.7896   -1.9115 H   0  0  0  0  0  0  0  0  0  0  0  0
   -0.6859    2.9907   -0.8054 H   0  0  0  0  0  0  0  0  0  0  0  0
   -2.6311   -1.3236    1.1959 H   0  0  0  0  0  0  0  0  0  0  0  0
   -1.2780   -0.5947    2.0996 H   0  0  0  0  0  0  0  0  0  0  0  0
   -1.0342   -2.1329    1.1271 H   0  0  0  0  0  0  0  0  0  0  0  0
   -1.8316   -0.1952   -2.1722 H   0  0  0  0  0  0  0  0  0  0  0  0
   -2.7986   -1.3794   -1.1955 H   0  0  0  0  0  0  0  0  0  0  0  0
   -1.1143   -1.7442   -1.6077 H   0  0  0  0  0  0  0  0  0  0  0  0
  1  2  1  0
  2  3  1  0
  3  4  1  0
  4  5  1  0
  5  6  1  0
  5  7  1  0
  7  8  1  0
  7  9  1  0
  7  4  1  0
  1 10  1  0
  1 11  1  0
  1 12  1  0
  2 13  1  0
  2 14  1  0
  4 15  1  0
  5 16  1  0
  6 17  1  0
  6 18  1  0
  6 19  1  0
  8 20  1  0
  8 21  1  0
  8 22  1  0
  9 23  1  0
  9 24  1  0
  9 25  1  0
M  END
