
     RDKit          3D

 23 24  0  0  0  0  0  0  0  0999 V2000
    2.6872   -0.2143    0.7790 C   0  0  0  0  0  0  0  0  0  0  0  0
    2.2998   -0.3032   -0.6706 C   0  0  0  0  0  0  0  0  0  0  0  0
    0.9823   -0.7462   -0.7443 O   0  0  0  0  0  0  0  0  0  0  0  0
    0.1596    0.1367   -0.0964 C   0  0  0  0  0  0  0  0  0  0  0  0
   -0.6802   -0.5491    0.9993 C   0  0  0  0  0  0  0  0  0  0  0  0
   -2.0484   -0.2152    0.5061 C   0  0  0  0  0  0  0  0  0  0  0  0
   -1.9021    1.2335    0.0437 C   0  0  0  0  0  0  0  0  0  0  0  0
   -0.9631    0.6256   -0.9740 C   0  0  0  0  0  0  0  0  0  0  0  0
   -1.9165   -0.5612   -0.9825 C   0  0  0  0  0  0  0  0  0  0  0  0
    3.1878    0.7853    0.9317 H   0  0  0  0  0  0  0  0  0  0  0  0
    1.7936   -0.3045    1.4259 H   0  0  0  0  0  0  0  0  0  0  0  0
    3.3915   -1.0337    1.0309 H   0  0  0  0  0  0  0  0  0  0  0  0
    2.4454    0.6664   -1.1940 H   0  0  0  0  0  0  0  0  0  0  0  0
    2.9450   -1.0474   -1.2203 H   0  0  0  0  0  0  0  0  0  0  0  0
    0.6567    1.0050    0.3522 H   0  0  0  0  0  0  0  0  0  0  0  0
   -0.5563   -1.6315    0.9913 H   0  0  0  0  0  0  0  0  0  0  0  0
   -0.5267   -0.0652    1.9808 H   0  0  0  0  0  0  0  0  0  0  0  0
   -2.9201   -0.5058    1.0152 H   0  0  0  0  0  0  0  0  0  0  0  0
   -1.3167    1.8375    0.7628 H   0  0  0  0  0  0  0  0  0  0  0  0
   -2.8165    1.6862   -0.3505 H   0  0  0  0  0  0  0  0  0  0  0  0
   -0.7619    1.1315   -1.8762 H   0  0  0  0  0  0  0  0  0  0  0  0
   -1.3176   -1.4859   -1.1417 H   0  0  0  0  0  0  0  0  0  0  0  0
   -2.8229   -0.4446   -1.5684 H   0  0  0  0  0  0  0  0  0  0  0  0
  1  2  1  0
  2  3  1  0
  3  4  1  0
  4  5  1  0
  5  6  1  0
  6  7  1  0
  7  8  1  0
  8  9  1  0
  8  4  1  0
  9  6  1  0
  1 10  1  0
  1 11  1  0
  1 12  1  0
  2 13  1  0
  2 14  1  0
  4 15  1  0
  5 16  1  0
  5 17  1  0
  6 18  1  0
  7 19  1  0
  7 20  1  0
  8 21  1  0
  9 22  1  0
  9 23  1  0
M  END
