
     RDKit          3D

 23 24  0  0  0  0  0  0  0  0999 V2000
    3.3735   -0.5463   -0.1159 C   0  0  0  0  0  0  0  0  0  0  0  0
    2.0374   -0.1960    0.5223 C   0  0  0  0  0  0  0  0  0  0  0  0
    1.1232    0.0341   -0.4972 O   0  0  0  0  0  0  0  0  0  0  0  0
   -0.1296    0.3615   -0.0517 C   0  0  0  0  0  0  0  0  0  0  0  0
   -0.8192   -0.6630    0.8114 C   0  0  0  0  0  0  0  0  0  0  0  0
   -2.1019   -1.0299    0.1106 C   0  0  0  0  0  0  0  0  0  0  0  0
   -2.4417    0.1708   -0.7393 C   0  0  0  0  0  0  0  0  0  0  0  0
   -1.1203    0.7979   -1.0445 C   0  0  0  0  0  0  0  0  0  0  0  0
   -0.6043    1.7506    0.0128 C   0  0  0  0  0  0  0  0  0  0  0  0
    3.4431   -1.6504   -0.2307 H   0  0  0  0  0  0  0  0  0  0  0  0
    4.2080   -0.1226    0.4495 H   0  0  0  0  0  0  0  0  0  0  0  0
    3.4001   -0.0982   -1.1306 H   0  0  0  0  0  0  0  0  0  0  0  0
    1.7658   -1.0128    1.1932 H   0  0  0  0  0  0  0  0  0  0  0  0
    2.1992    0.7534    1.0894 H   0  0  0  0  0  0  0  0  0  0  0  0
   -0.2366   -1.5740    0.9463 H   0  0  0  0  0  0  0  0  0  0  0  0
   -1.0185   -0.2194    1.7920 H   0  0  0  0  0  0  0  0  0  0  0  0
   -2.0187   -1.9271   -0.5199 H   0  0  0  0  0  0  0  0  0  0  0  0
   -2.9082   -1.1629    0.8611 H   0  0  0  0  0  0  0  0  0  0  0  0
   -3.0602    0.8948   -0.1632 H   0  0  0  0  0  0  0  0  0  0  0  0
   -2.9529   -0.1231   -1.6946 H   0  0  0  0  0  0  0  0  0  0  0  0
   -0.8382    0.9586   -2.1001 H   0  0  0  0  0  0  0  0  0  0  0  0
   -0.0369    2.5969   -0.3787 H   0  0  0  0  0  0  0  0  0  0  0  0
   -1.2631    2.0068    0.8778 H   0  0  0  0  0  0  0  0  0  0  0  0
  1  2  1  0
  2  3  1  0
  3  4  1  0
  4  5  1  0
  5  6  1  0
  6  7  1  0
  7  8  1  0
  8  9  1  0
  8  4  1  0
  9  4  1  0
  1 10  1  0
  1 11  1  0
  1 12  1  0
  2 13  1  0
  2 14  1  0
  5 15  1  0
  5 16  1  0
  6 17  1  0
  6 18  1  0
  7 19  1  0
  7 20  1  0
  8 21  1  0
  9 22  1  0
  9 23  1  0
M  END
