
     RDKit          3D

 19 18  0  0  0  0  0  0  0  0999 V2000
   -2.4983    0.3342    0.6488 C   0  0  0  0  0  0  0  0  0  0  0  0
   -1.6821    0.8275   -0.5061 C   0  0  0  0  0  0  0  0  0  0  0  0
   -0.3201    0.6488   -0.3406 O   0  0  0  0  0  0  0  0  0  0  0  0
    0.0620   -0.6588   -0.1805 C   0  0  0  0  0  0  0  0  0  0  0  0
    1.5716   -0.6667   -0.0141 C   0  0  0  0  0  0  0  0  0  0  0  0
    2.0104    0.1185    1.1610 C   0  0  0  0  0  0  0  0  0  0  0  0
    1.8665   -0.2755    2.3052 O   0  0  0  0  0  0  0  0  0  0  0  0
    2.2774   -0.2494   -1.2470 C   0  0  0  0  0  0  0  0  0  0  0  0
    2.6403    0.9053   -1.3260 O   0  0  0  0  0  0  0  0  0  0  0  0
   -3.5424    0.7230    0.4949 H   0  0  0  0  0  0  0  0  0  0  0  0
   -2.1455    0.7347    1.6078 H   0  0  0  0  0  0  0  0  0  0  0  0
   -2.6105   -0.7794    0.6544 H   0  0  0  0  0  0  0  0  0  0  0  0
   -1.8450    1.9418   -0.5546 H   0  0  0  0  0  0  0  0  0  0  0  0
   -2.0864    0.4000   -1.4286 H   0  0  0  0  0  0  0  0  0  0  0  0
   -0.1473   -1.2638   -1.0939 H   0  0  0  0  0  0  0  0  0  0  0  0
   -0.3550   -1.1358    0.7281 H   0  0  0  0  0  0  0  0  0  0  0  0
    1.8523   -1.7328    0.1681 H   0  0  0  0  0  0  0  0  0  0  0  0
    2.4782    1.0821    0.9977 H   0  0  0  0  0  0  0  0  0  0  0  0
    2.4738   -0.9539   -2.0745 H   0  0  0  0  0  0  0  0  0  0  0  0
  1  2  1  0
  2  3  1  0
  3  4  1  0
  4  5  1  0
  5  6  1  0
  6  7  2  0
  5  8  1  0
  8  9  2  0
  1 10  1  0
  1 11  1  0
  1 12  1  0
  2 13  1  0
  2 14  1  0
  4 15  1  0
  4 16  1  0
  5 17  1  0
  6 18  1  0
  8 19  1  0
M  END
