
     RDKit          3D

 19 20  0  0  0  0  0  0  0  0999 V2000
    2.5631   -0.3993    0.5116 C   0  0  0  0  0  0  0  0  0  0  0  0
    2.0657   -0.1543   -0.8924 C   0  0  0  0  0  0  0  0  0  0  0  0
    0.7342   -0.3822   -1.0623 O   0  0  0  0  0  0  0  0  0  0  0  0
   -0.0925    0.4204   -0.2520 C   0  0  0  0  0  0  0  0  0  0  0  0
   -1.3064    0.9921   -0.7295 C   0  0  0  0  0  0  0  0  0  0  0  0
   -2.5406    1.1162   -0.1054 O   0  0  0  0  0  0  0  0  0  0  0  0
   -2.6388   -0.2569   -0.4677 C   0  0  0  0  0  0  0  0  0  0  0  0
   -1.2747   -0.2574    0.2414 C   0  0  0  0  0  0  0  0  0  0  0  0
   -1.5073    0.0645    1.6035 O   0  0  0  0  0  0  0  0  0  0  0  0
    3.4283    0.3010    0.6735 H   0  0  0  0  0  0  0  0  0  0  0  0
    3.0080   -1.4217    0.6243 H   0  0  0  0  0  0  0  0  0  0  0  0
    1.8312   -0.2079    1.2896 H   0  0  0  0  0  0  0  0  0  0  0  0
    2.3894    0.8678   -1.2459 H   0  0  0  0  0  0  0  0  0  0  0  0
    2.6126   -0.8606   -1.5516 H   0  0  0  0  0  0  0  0  0  0  0  0
    0.5512    1.1004    0.3846 H   0  0  0  0  0  0  0  0  0  0  0  0
   -1.5028    0.7313   -1.8155 H   0  0  0  0  0  0  0  0  0  0  0  0
   -3.3714   -0.8247    0.1238 H   0  0  0  0  0  0  0  0  0  0  0  0
   -2.6219   -0.4710   -1.5295 H   0  0  0  0  0  0  0  0  0  0  0  0
   -2.3272   -0.3579    1.9413 H   0  0  0  0  0  0  0  0  0  0  0  0
  1  2  1  0
  2  3  1  0
  3  4  1  0
  4  5  1  0
  5  6  1  0
  6  7  1  0
  7  8  1  0
  8  9  1  0
  8  4  1  0
  8  5  1  0
  1 10  1  0
  1 11  1  0
  1 12  1  0
  2 13  1  0
  2 14  1  0
  4 15  1  0
  5 16  1  0
  7 17  1  0
  7 18  1  0
  9 19  1  0
M  END
