
     RDKit          3D

 18 19  0  0  0  0  0  0  0  0999 V2000
    3.0085    0.0331    0.0486 C   0  0  0  0  0  0  0  0  0  0  0  0
    1.6037   -0.4954   -0.0303 C   0  0  0  0  0  0  0  0  0  0  0  0
    0.6470    0.5416    0.0224 O   0  0  0  0  0  0  0  0  0  0  0  0
   -0.5882   -0.0510   -0.0567 C   0  0  0  0  0  0  0  0  0  0  0  0
   -1.5831    0.5860   -0.9788 C   0  0  0  0  0  0  0  0  0  0  0  0
   -2.6524   -0.0892   -0.1827 C   0  0  0  0  0  0  0  0  0  0  0  0
   -1.6848    0.5261    0.7766 C   0  0  0  0  0  0  0  0  0  0  0  0
   -1.6639    1.6256   -0.0690 O   0  0  0  0  0  0  0  0  0  0  0  0
    3.0605    1.0897    0.3338 H   0  0  0  0  0  0  0  0  0  0  0  0
    3.5089   -0.0698   -0.9548 H   0  0  0  0  0  0  0  0  0  0  0  0
    3.5858   -0.6320    0.7263 H   0  0  0  0  0  0  0  0  0  0  0  0
    1.3849   -1.2275    0.7764 H   0  0  0  0  0  0  0  0  0  0  0  0
    1.4520   -1.0150   -0.9894 H   0  0  0  0  0  0  0  0  0  0  0  0
   -0.6182   -1.1494   -0.1411 H   0  0  0  0  0  0  0  0  0  0  0  0
   -1.5197    0.6576   -1.9813 H   0  0  0  0  0  0  0  0  0  0  0  0
   -3.6601    0.3147   -0.2266 H   0  0  0  0  0  0  0  0  0  0  0  0
   -2.5327   -1.1853   -0.2241 H   0  0  0  0  0  0  0  0  0  0  0  0
   -1.7483    0.5400    1.7819 H   0  0  0  0  0  0  0  0  0  0  0  0
  1  2  1  0
  2  3  1  0
  3  4  1  0
  4  5  1  0
  5  6  1  0
  6  7  1  0
  7  8  1  0
  7  4  1  0
  8  5  1  0
  1  9  1  0
  1 10  1  0
  1 11  1  0
  2 12  1  0
  2 13  1  0
  4 14  1  0
  5 15  1  0
  6 16  1  0
  6 17  1  0
  7 18  1  0
M  END
