
     RDKit          3D

 21 22  0  0  0  0  0  0  0  0999 V2000
    2.9305    0.4589   -0.5288 C   0  0  0  0  0  0  0  0  0  0  0  0
    1.6594   -0.0595    0.1015 C   0  0  0  0  0  0  0  0  0  0  0  0
    0.5666    0.1089   -0.7745 O   0  0  0  0  0  0  0  0  0  0  0  0
   -0.5465   -0.4067   -0.0801 C   0  0  0  0  0  0  0  0  0  0  0  0
   -0.3900   -1.8604    0.2768 C   0  0  0  0  0  0  0  0  0  0  0  0
   -1.8939    0.1314   -0.3215 C   0  0  0  0  0  0  0  0  0  0  0  0
   -2.2189    1.5865   -0.2124 C   0  0  0  0  0  0  0  0  0  0  0  0
   -1.1254    1.8538    0.5966 O   0  0  0  0  0  0  0  0  0  0  0  0
   -1.1051    0.4982    0.9471 C   0  0  0  0  0  0  0  0  0  0  0  0
    3.7213   -0.3159   -0.5475 H   0  0  0  0  0  0  0  0  0  0  0  0
    3.2452    1.3668    0.0232 H   0  0  0  0  0  0  0  0  0  0  0  0
    2.7067    0.6870   -1.6024 H   0  0  0  0  0  0  0  0  0  0  0  0
    1.4490    0.4795    1.0577 H   0  0  0  0  0  0  0  0  0  0  0  0
    1.8001   -1.1499    0.2856 H   0  0  0  0  0  0  0  0  0  0  0  0
    0.3256   -2.3975   -0.3879 H   0  0  0  0  0  0  0  0  0  0  0  0
   -1.3554   -2.4212    0.1736 H   0  0  0  0  0  0  0  0  0  0  0  0
   -0.0944   -1.9865    1.3510 H   0  0  0  0  0  0  0  0  0  0  0  0
   -2.7412   -0.5809   -0.2040 H   0  0  0  0  0  0  0  0  0  0  0  0
   -3.1562    1.7232    0.3966 H   0  0  0  0  0  0  0  0  0  0  0  0
   -2.2368    2.1240   -1.1815 H   0  0  0  0  0  0  0  0  0  0  0  0
   -1.5405    0.1602    1.8851 H   0  0  0  0  0  0  0  0  0  0  0  0
  1  2  1  0
  2  3  1  0
  3  4  1  0
  4  5  1  0
  4  6  1  0
  6  7  1  0
  7  8  1  0
  8  9  1  0
  9  4  1  0
  9  6  1  0
  1 10  1  0
  1 11  1  0
  1 12  1  0
  2 13  1  0
  2 14  1  0
  5 15  1  0
  5 16  1  0
  5 17  1  0
  6 18  1  0
  7 19  1  0
  7 20  1  0
  9 21  1  0
M  END
