
     RDKit          3D

 25 25  0  0  0  0  0  0  0  0999 V2000
    2.8605   -0.0540    0.1770 C   0  0  0  0  0  0  0  0  0  0  0  0
    1.8693   -0.0835   -0.9656 C   0  0  0  0  0  0  0  0  0  0  0  0
    0.6796    0.5096   -0.7395 O   0  0  0  0  0  0  0  0  0  0  0  0
   -0.1428    0.0917    0.2397 C   0  0  0  0  0  0  0  0  0  0  0  0
    0.2914    0.1100    1.6694 C   0  0  0  0  0  0  0  0  0  0  0  0
   -0.8593   -1.2430   -0.0322 C   0  0  0  0  0  0  0  0  0  0  0  0
   -2.1354   -0.5812    0.4288 C   0  0  0  0  0  0  0  0  0  0  0  0
   -1.5263    0.7376    0.0452 C   0  0  0  0  0  0  0  0  0  0  0  0
   -1.7824    1.0323   -1.4117 C   0  0  0  0  0  0  0  0  0  0  0  0
    3.0060    0.9830    0.5121 H   0  0  0  0  0  0  0  0  0  0  0  0
    2.6422   -0.7293    0.9955 H   0  0  0  0  0  0  0  0  0  0  0  0
    3.8468   -0.3528   -0.2752 H   0  0  0  0  0  0  0  0  0  0  0  0
    1.8158   -1.1040   -1.4113 H   0  0  0  0  0  0  0  0  0  0  0  0
    2.3714    0.5223   -1.7853 H   0  0  0  0  0  0  0  0  0  0  0  0
    0.4909   -0.9235    2.0158 H   0  0  0  0  0  0  0  0  0  0  0  0
    1.0759    0.8346    1.9139 H   0  0  0  0  0  0  0  0  0  0  0  0
   -0.5872    0.4320    2.3113 H   0  0  0  0  0  0  0  0  0  0  0  0
   -0.5490   -2.0404    0.6488 H   0  0  0  0  0  0  0  0  0  0  0  0
   -0.8881   -1.5183   -1.0957 H   0  0  0  0  0  0  0  0  0  0  0  0
   -2.3114   -0.6059    1.5259 H   0  0  0  0  0  0  0  0  0  0  0  0
   -3.0240   -0.8927   -0.1554 H   0  0  0  0  0  0  0  0  0  0  0  0
   -1.7266    1.5731    0.7253 H   0  0  0  0  0  0  0  0  0  0  0  0
   -0.7948    1.3256   -1.8524 H   0  0  0  0  0  0  0  0  0  0  0  0
   -2.1136    0.1169   -1.9481 H   0  0  0  0  0  0  0  0  0  0  0  0
   -2.5091    1.8600   -1.5361 H   0  0  0  0  0  0  0  0  0  0  0  0
  1  2  1  0
  2  3  1  0
  3  4  1  0
  4  5  1  0
  4  6  1  0
  6  7  1  0
  7  8  1  0
  8  9  1  0
  8  4  1  0
  1 10  1  0
  1 11  1  0
  1 12  1  0
  2 13  1  0
  2 14  1  0
  5 15  1  0
  5 16  1  0
  5 17  1  0
  6 18  1  0
  6 19  1  0
  7 20  1  0
  7 21  1  0
  8 22  1  0
  9 23  1  0
  9 24  1  0
  9 25  1  0
M  END
