
     RDKit          3D

 21 20  0  0  0  0  0  0  0  0999 V2000
    3.5047    0.0368   -0.8414 C   0  0  0  0  0  0  0  0  0  0  0  0
    2.4590   -0.4323    0.1419 C   0  0  0  0  0  0  0  0  0  0  0  0
    1.1915   -0.0164   -0.3068 O   0  0  0  0  0  0  0  0  0  0  0  0
    0.0062   -0.2621    0.3312 C   0  0  0  0  0  0  0  0  0  0  0  0
    0.0336   -0.9101    1.4057 O   0  0  0  0  0  0  0  0  0  0  0  0
   -1.3178    0.1935   -0.1727 C   0  0  0  0  0  0  0  0  0  0  0  0
   -1.2251    1.6922   -0.3629 C   0  0  0  0  0  0  0  0  0  0  0  0
   -2.3369   -0.1898    0.6623 O   0  0  0  0  0  0  0  0  0  0  0  0
   -3.2529   -1.0518    0.0644 C   0  0  0  0  0  0  0  0  0  0  0  0
    3.0128    0.2834   -1.8002 H   0  0  0  0  0  0  0  0  0  0  0  0
    4.2396   -0.7880   -0.9424 H   0  0  0  0  0  0  0  0  0  0  0  0
    4.0571    0.9283   -0.4624 H   0  0  0  0  0  0  0  0  0  0  0  0
    2.5145   -1.5242    0.3306 H   0  0  0  0  0  0  0  0  0  0  0  0
    2.7183    0.0514    1.1265 H   0  0  0  0  0  0  0  0  0  0  0  0
   -1.4832   -0.3044   -1.1728 H   0  0  0  0  0  0  0  0  0  0  0  0
   -0.4885    1.8808   -1.1685 H   0  0  0  0  0  0  0  0  0  0  0  0
   -0.8322    2.1253    0.5583 H   0  0  0  0  0  0  0  0  0  0  0  0
   -2.1692    2.1552   -0.6657 H   0  0  0  0  0  0  0  0  0  0  0  0
   -2.7996   -1.9860   -0.2867 H   0  0  0  0  0  0  0  0  0  0  0  0
   -3.8496   -0.5434   -0.7126 H   0  0  0  0  0  0  0  0  0  0  0  0
   -3.9824   -1.3385    0.8659 H   0  0  0  0  0  0  0  0  0  0  0  0
  1  2  1  0
  2  3  1  0
  3  4  1  0
  4  5  2  0
  4  6  1  0
  6  7  1  0
  6  8  1  0
  8  9  1  0
  1 10  1  0
  1 11  1  0
  1 12  1  0
  2 13  1  0
  2 14  1  0
  6 15  1  0
  7 16  1  0
  7 17  1  0
  7 18  1  0
  9 19  1  0
  9 20  1  0
  9 21  1  0
M  END
