
     RDKit          3D

 21 22  0  0  0  0  0  0  0  0999 V2000
   -2.5161    0.9303    0.0238 C   0  0  0  0  0  0  0  0  0  0  0  0
   -2.3065   -0.5101    0.3923 C   0  0  0  0  0  0  0  0  0  0  0  0
   -0.9524   -0.7602    0.5883 O   0  0  0  0  0  0  0  0  0  0  0  0
   -0.2294   -0.4877   -0.5768 C   0  0  0  0  0  0  0  0  0  0  0  0
    0.8966   -1.4919   -0.8287 C   0  0  0  0  0  0  0  0  0  0  0  0
    1.1619   -0.1253   -0.4507 C   0  0  0  0  0  0  0  0  0  0  0  0
    1.6883    0.3422    0.8596 C   0  0  0  0  0  0  0  0  0  0  0  0
    2.7694    0.8681   -0.0944 C   0  0  0  0  0  0  0  0  0  0  0  0
    1.8452    0.8001   -1.1655 O   0  0  0  0  0  0  0  0  0  0  0  0
   -2.6744    1.0593   -1.0729 H   0  0  0  0  0  0  0  0  0  0  0  0
   -1.6677    1.5571    0.3126 H   0  0  0  0  0  0  0  0  0  0  0  0
   -3.4764    1.2872    0.4913 H   0  0  0  0  0  0  0  0  0  0  0  0
   -2.6754   -1.2107   -0.3972 H   0  0  0  0  0  0  0  0  0  0  0  0
   -2.8556   -0.7619    1.3117 H   0  0  0  0  0  0  0  0  0  0  0  0
   -0.8189   -0.1334   -1.4297 H   0  0  0  0  0  0  0  0  0  0  0  0
    0.9936   -1.7689   -1.9026 H   0  0  0  0  0  0  0  0  0  0  0  0
    1.0078   -2.3462   -0.1366 H   0  0  0  0  0  0  0  0  0  0  0  0
    1.0686    1.1602    1.3128 H   0  0  0  0  0  0  0  0  0  0  0  0
    2.0546   -0.3958    1.5679 H   0  0  0  0  0  0  0  0  0  0  0  0
    3.5697    0.1185   -0.2172 H   0  0  0  0  0  0  0  0  0  0  0  0
    3.1172    1.8692    0.1525 H   0  0  0  0  0  0  0  0  0  0  0  0
  1  2  1  0
  2  3  1  0
  3  4  1  0
  4  5  1  0
  5  6  1  0
  6  7  1  0
  7  8  1  0
  8  9  1  0
  6  4  1  0
  9  6  1  0
  1 10  1  0
  1 11  1  0
  1 12  1  0
  2 13  1  0
  2 14  1  0
  4 15  1  0
  5 16  1  0
  5 17  1  0
  7 18  1  0
  7 19  1  0
  8 20  1  0
  8 21  1  0
M  END
