
     RDKit          3D

 23 22  0  0  0  0  0  0  0  0999 V2000
    2.6115    1.1463   -0.1687 C   0  0  0  0  0  0  0  0  0  0  0  0
    2.3677   -0.2279   -0.6851 C   0  0  0  0  0  0  0  0  0  0  0  0
    1.0761   -0.6746   -0.6577 O   0  0  0  0  0  0  0  0  0  0  0  0
    0.4848   -0.7277    0.5906 C   0  0  0  0  0  0  0  0  0  0  0  0
   -0.9069   -1.2543    0.5263 C   0  0  0  0  0  0  0  0  0  0  0  0
   -1.8643   -0.4686   -0.3212 C   0  0  0  0  0  0  0  0  0  0  0  0
   -3.1053   -1.1645   -0.2338 O   0  0  0  0  0  0  0  0  0  0  0  0
   -2.1278    0.9213    0.2148 C   0  0  0  0  0  0  0  0  0  0  0  0
   -1.0094    1.7382    0.1818 O   0  0  0  0  0  0  0  0  0  0  0  0
    1.7161    1.6820    0.1366 H   0  0  0  0  0  0  0  0  0  0  0  0
    3.2684    1.1054    0.7510 H   0  0  0  0  0  0  0  0  0  0  0  0
    3.2017    1.7808   -0.8826 H   0  0  0  0  0  0  0  0  0  0  0  0
    2.6705   -0.2206   -1.7740 H   0  0  0  0  0  0  0  0  0  0  0  0
    3.0931   -0.9227   -0.2102 H   0  0  0  0  0  0  0  0  0  0  0  0
    0.5530    0.2779    1.0455 H   0  0  0  0  0  0  0  0  0  0  0  0
    1.0620   -1.4059    1.2866 H   0  0  0  0  0  0  0  0  0  0  0  0
   -0.8579   -2.2760    0.0855 H   0  0  0  0  0  0  0  0  0  0  0  0
   -1.3505   -1.3180    1.5428 H   0  0  0  0  0  0  0  0  0  0  0  0
   -1.5578   -0.4121   -1.3710 H   0  0  0  0  0  0  0  0  0  0  0  0
   -2.9018   -2.1373   -0.3361 H   0  0  0  0  0  0  0  0  0  0  0  0
   -2.4644    0.8612    1.2776 H   0  0  0  0  0  0  0  0  0  0  0  0
   -2.9424    1.3482   -0.4242 H   0  0  0  0  0  0  0  0  0  0  0  0
   -1.0162    2.3489   -0.5744 H   0  0  0  0  0  0  0  0  0  0  0  0
  1  2  1  0
  2  3  1  0
  3  4  1  0
  4  5  1  0
  5  6  1  0
  6  7  1  0
  6  8  1  0
  8  9  1  0
  1 10  1  0
  1 11  1  0
  1 12  1  0
  2 13  1  0
  2 14  1  0
  4 15  1  0
  4 16  1  0
  5 17  1  0
  5 18  1  0
  6 19  1  0
  7 20  1  0
  8 21  1  0
  8 22  1  0
  9 23  1  0
M  END
