
     RDKit          3D

 21 21  0  0  0  0  0  0  0  0999 V2000
    2.5200    0.0854    0.3514 C   0  0  0  0  0  0  0  0  0  0  0  0
    1.8892    0.7103   -0.8781 C   0  0  0  0  0  0  0  0  0  0  0  0
    0.5282    0.6059   -0.7697 O   0  0  0  0  0  0  0  0  0  0  0  0
    0.0265   -0.6688   -0.6742 C   0  0  0  0  0  0  0  0  0  0  0  0
   -1.3125   -1.0754   -1.0835 C   0  0  0  0  0  0  0  0  0  0  0  0
   -1.0346   -0.9539    0.3971 C   0  0  0  0  0  0  0  0  0  0  0  0
   -1.5170    0.1930    1.2100 C   0  0  0  0  0  0  0  0  0  0  0  0
   -2.1487    1.2965    0.4519 C   0  0  0  0  0  0  0  0  0  0  0  0
   -2.5701    2.2366    1.1040 O   0  0  0  0  0  0  0  0  0  0  0  0
    2.9364   -0.9378    0.1128 H   0  0  0  0  0  0  0  0  0  0  0  0
    1.7623    0.0079    1.1560 H   0  0  0  0  0  0  0  0  0  0  0  0
    3.3557    0.7158    0.7087 H   0  0  0  0  0  0  0  0  0  0  0  0
    2.3271    0.1905   -1.7459 H   0  0  0  0  0  0  0  0  0  0  0  0
    2.1427    1.7912   -0.8507 H   0  0  0  0  0  0  0  0  0  0  0  0
    0.8216   -1.4432   -0.6999 H   0  0  0  0  0  0  0  0  0  0  0  0
   -2.0703   -0.4503   -1.5416 H   0  0  0  0  0  0  0  0  0  0  0  0
   -1.4321   -2.1480   -1.4331 H   0  0  0  0  0  0  0  0  0  0  0  0
   -0.9299   -1.9179    0.9806 H   0  0  0  0  0  0  0  0  0  0  0  0
   -2.3109   -0.1668    1.9253 H   0  0  0  0  0  0  0  0  0  0  0  0
   -0.7318    0.6164    1.8835 H   0  0  0  0  0  0  0  0  0  0  0  0
   -2.2517    1.3127   -0.6048 H   0  0  0  0  0  0  0  0  0  0  0  0
  1  2  1  0
  2  3  1  0
  3  4  1  0
  4  5  1  0
  5  6  1  0
  6  7  1  0
  7  8  1  0
  8  9  2  0
  6  4  1  0
  1 10  1  0
  1 11  1  0
  1 12  1  0
  2 13  1  0
  2 14  1  0
  4 15  1  0
  5 16  1  0
  5 17  1  0
  6 18  1  0
  7 19  1  0
  7 20  1  0
  8 21  1  0
M  END
