
     RDKit          3D

 23 23  0  0  0  0  0  0  0  0999 V2000
    3.0657    0.7217    0.0369 C   0  0  0  0  0  0  0  0  0  0  0  0
    1.8865   -0.2553   -0.1104 C   0  0  0  0  0  0  0  0  0  0  0  0
    0.7270    0.4559   -0.0548 O   0  0  0  0  0  0  0  0  0  0  0  0
   -0.4473   -0.2342   -0.1780 C   0  0  0  0  0  0  0  0  0  0  0  0
   -1.7593    0.5280   -0.1154 C   0  0  0  0  0  0  0  0  0  0  0  0
   -1.9263    1.2815    1.1729 C   0  0  0  0  0  0  0  0  0  0  0  0
   -1.7521    1.4485   -1.1504 O   0  0  0  0  0  0  0  0  0  0  0  0
   -0.4335   -1.6682    0.2701 C   0  0  0  0  0  0  0  0  0  0  0  0
   -0.5280   -1.4007   -1.1857 C   0  0  0  0  0  0  0  0  0  0  0  0
    2.8987    1.6511   -0.5084 H   0  0  0  0  0  0  0  0  0  0  0  0
    3.2810    0.9034    1.1246 H   0  0  0  0  0  0  0  0  0  0  0  0
    3.9444    0.1823   -0.3707 H   0  0  0  0  0  0  0  0  0  0  0  0
    2.0057   -0.7182   -1.0860 H   0  0  0  0  0  0  0  0  0  0  0  0
    2.0556   -0.9523    0.7520 H   0  0  0  0  0  0  0  0  0  0  0  0
   -2.5756   -0.1870   -0.2328 H   0  0  0  0  0  0  0  0  0  0  0  0
   -1.5848    0.7226    2.0487 H   0  0  0  0  0  0  0  0  0  0  0  0
   -3.0283    1.4381    1.3112 H   0  0  0  0  0  0  0  0  0  0  0  0
   -1.4986    2.3134    1.1298 H   0  0  0  0  0  0  0  0  0  0  0  0
   -2.2186    1.0827   -1.9621 H   0  0  0  0  0  0  0  0  0  0  0  0
    0.4496   -2.1532    0.6901 H   0  0  0  0  0  0  0  0  0  0  0  0
   -1.3742   -2.0346    0.7790 H   0  0  0  0  0  0  0  0  0  0  0  0
    0.3108   -1.4965   -1.8741 H   0  0  0  0  0  0  0  0  0  0  0  0
   -1.4986   -1.6290   -1.6633 H   0  0  0  0  0  0  0  0  0  0  0  0
  1  2  1  0
  2  3  1  0
  3  4  1  0
  4  5  1  0
  5  6  1  0
  5  7  1  0
  4  8  1  0
  8  9  1  0
  9  4  1  0
  1 10  1  0
  1 11  1  0
  1 12  1  0
  2 13  1  0
  2 14  1  0
  5 15  1  0
  6 16  1  0
  6 17  1  0
  6 18  1  0
  7 19  1  0
  8 20  1  0
  8 21  1  0
  9 22  1  0
  9 23  1  0
M  END
