
     RDKit          3D

 21 21  0  0  0  0  0  0  0  0999 V2000
    2.6792    0.6742   -0.7425 C   0  0  0  0  0  0  0  0  0  0  0  0
    1.6187   -0.1485   -0.0502 C   0  0  0  0  0  0  0  0  0  0  0  0
    0.4335    0.5450   -0.0664 O   0  0  0  0  0  0  0  0  0  0  0  0
   -0.6260   -0.0841    0.5308 C   0  0  0  0  0  0  0  0  0  0  0  0
   -0.5541   -0.1812    2.0197 C   0  0  0  0  0  0  0  0  0  0  0  0
   -1.8573    0.6920    0.1894 C   0  0  0  0  0  0  0  0  0  0  0  0
   -2.2865    0.2014   -0.9615 C   0  0  0  0  0  0  0  0  0  0  0  0
   -1.3535   -0.8719   -1.3606 C   0  0  0  0  0  0  0  0  0  0  0  0
   -0.8950   -1.2980   -0.0913 O   0  0  0  0  0  0  0  0  0  0  0  0
    3.1710    0.0823   -1.5618 H   0  0  0  0  0  0  0  0  0  0  0  0
    3.4751    0.9222   -0.0120 H   0  0  0  0  0  0  0  0  0  0  0  0
    2.2282    1.6165   -1.1658 H   0  0  0  0  0  0  0  0  0  0  0  0
    1.5744   -1.1289   -0.5580 H   0  0  0  0  0  0  0  0  0  0  0  0
    1.9019   -0.2977    1.0119 H   0  0  0  0  0  0  0  0  0  0  0  0
   -1.1008    0.6553    2.5237 H   0  0  0  0  0  0  0  0  0  0  0  0
    0.4462   -0.2503    2.4396 H   0  0  0  0  0  0  0  0  0  0  0  0
   -1.1159   -1.1056    2.3136 H   0  0  0  0  0  0  0  0  0  0  0  0
   -2.3013    1.5053    0.7898 H   0  0  0  0  0  0  0  0  0  0  0  0
   -3.1561    0.5341   -1.4948 H   0  0  0  0  0  0  0  0  0  0  0  0
   -1.8245   -1.7201   -1.8596 H   0  0  0  0  0  0  0  0  0  0  0  0
   -0.4574   -0.4982   -1.8941 H   0  0  0  0  0  0  0  0  0  0  0  0
  1  2  1  0
  2  3  1  0
  3  4  1  0
  4  5  1  0
  4  6  1  0
  6  7  2  0
  7  8  1  0
  8  9  1  0
  9  4  1  0
  1 10  1  0
  1 11  1  0
  1 12  1  0
  2 13  1  0
  2 14  1  0
  5 15  1  0
  5 16  1  0
  5 17  1  0
  6 18  1  0
  7 19  1  0
  8 20  1  0
  8 21  1  0
M  END
