
     RDKit          3D

 19 19  0  0  0  0  0  0  0  0999 V2000
   -2.9069   -0.6224    0.0988 C   0  0  0  0  0  0  0  0  0  0  0  0
   -1.7328    0.1050   -0.5611 C   0  0  0  0  0  0  0  0  0  0  0  0
   -0.6464   -0.0657    0.2817 O   0  0  0  0  0  0  0  0  0  0  0  0
    0.5080    0.5459   -0.1887 C   0  0  0  0  0  0  0  0  0  0  0  0
    0.9934    1.5176    0.7953 C   0  0  0  0  0  0  0  0  0  0  0  0
    0.4023    1.6937    1.8452 O   0  0  0  0  0  0  0  0  0  0  0  0
    1.5140   -0.5452   -0.4774 C   0  0  0  0  0  0  0  0  0  0  0  0
    2.6864   -0.7122    0.3937 C   0  0  0  0  0  0  0  0  0  0  0  0
    2.7665   -0.1863   -0.9648 O   0  0  0  0  0  0  0  0  0  0  0  0
   -2.9359   -0.2797    1.1650 H   0  0  0  0  0  0  0  0  0  0  0  0
   -3.8486   -0.4630   -0.4310 H   0  0  0  0  0  0  0  0  0  0  0  0
   -2.6579   -1.7056    0.1134 H   0  0  0  0  0  0  0  0  0  0  0  0
   -1.9840    1.1479   -0.7711 H   0  0  0  0  0  0  0  0  0  0  0  0
   -1.5319   -0.4343   -1.5177 H   0  0  0  0  0  0  0  0  0  0  0  0
    0.2918    1.0529   -1.1711 H   0  0  0  0  0  0  0  0  0  0  0  0
    1.8862    2.1042    0.6197 H   0  0  0  0  0  0  0  0  0  0  0  0
    1.0472   -1.4864   -0.8535 H   0  0  0  0  0  0  0  0  0  0  0  0
    3.0006    0.0671    1.1192 H   0  0  0  0  0  0  0  0  0  0  0  0
    3.1480   -1.7333    0.5043 H   0  0  0  0  0  0  0  0  0  0  0  0
  1  2  1  0
  2  3  1  0
  3  4  1  0
  4  5  1  0
  5  6  2  0
  4  7  1  0
  7  8  1  0
  8  9  1  0
  9  7  1  0
  1 10  1  0
  1 11  1  0
  1 12  1  0
  2 13  1  0
  2 14  1  0
  4 15  1  0
  5 16  1  0
  7 17  1  0
  8 18  1  0
  8 19  1  0
M  END
