
     RDKit          3D

 21 21  0  0  0  0  0  0  0  0999 V2000
    2.7283    0.1523   -0.6274 C   0  0  0  0  0  0  0  0  0  0  0  0
    2.1202   -0.2267    0.6836 C   0  0  0  0  0  0  0  0  0  0  0  0
    0.9153   -0.8903    0.5779 O   0  0  0  0  0  0  0  0  0  0  0  0
   -0.0751   -0.1909   -0.0535 C   0  0  0  0  0  0  0  0  0  0  0  0
   -0.6671   -1.0044   -1.1567 C   0  0  0  0  0  0  0  0  0  0  0  0
   -0.2497   -1.6690   -2.0906 O   0  0  0  0  0  0  0  0  0  0  0  0
   -2.0616   -0.6971   -0.6809 C   0  0  0  0  0  0  0  0  0  0  0  0
   -1.4297   -0.1889    0.6023 C   0  0  0  0  0  0  0  0  0  0  0  0
   -1.9650    1.1928    0.9393 C   0  0  0  0  0  0  0  0  0  0  0  0
    2.0036    0.4484   -1.4018 H   0  0  0  0  0  0  0  0  0  0  0  0
    3.3161   -0.6918   -1.0561 H   0  0  0  0  0  0  0  0  0  0  0  0
    3.4109    1.0362   -0.4761 H   0  0  0  0  0  0  0  0  0  0  0  0
    2.0705    0.6848    1.3141 H   0  0  0  0  0  0  0  0  0  0  0  0
    2.8298   -0.9193    1.1933 H   0  0  0  0  0  0  0  0  0  0  0  0
    0.1668    0.8210   -0.4168 H   0  0  0  0  0  0  0  0  0  0  0  0
   -2.5352    0.0645   -1.3122 H   0  0  0  0  0  0  0  0  0  0  0  0
   -2.7075   -1.5816   -0.5671 H   0  0  0  0  0  0  0  0  0  0  0  0
   -1.5480   -0.9305    1.4301 H   0  0  0  0  0  0  0  0  0  0  0  0
   -2.1255    1.2253    2.0342 H   0  0  0  0  0  0  0  0  0  0  0  0
   -1.2515    1.9742    0.5921 H   0  0  0  0  0  0  0  0  0  0  0  0
   -2.9457    1.3909    0.4724 H   0  0  0  0  0  0  0  0  0  0  0  0
  1  2  1  0
  2  3  1  0
  3  4  1  0
  4  5  1  0
  5  6  2  0
  5  7  1  0
  7  8  1  0
  8  9  1  0
  8  4  1  0
  1 10  1  0
  1 11  1  0
  1 12  1  0
  2 13  1  0
  2 14  1  0
  4 15  1  0
  7 16  1  0
  7 17  1  0
  8 18  1  0
  9 19  1  0
  9 20  1  0
  9 21  1  0
M  END
