
     RDKit          3D

 19 19  0  0  0  0  0  0  0  0999 V2000
    3.1045    0.0009    0.3825 C   0  0  0  0  0  0  0  0  0  0  0  0
    1.8291   -0.5472   -0.2227 C   0  0  0  0  0  0  0  0  0  0  0  0
    0.8286    0.3670   -0.0202 O   0  0  0  0  0  0  0  0  0  0  0  0
   -0.3999    0.0131   -0.5153 C   0  0  0  0  0  0  0  0  0  0  0  0
   -1.1120    1.1493   -1.1383 C   0  0  0  0  0  0  0  0  0  0  0  0
   -1.4232    1.5977   -2.2625 O   0  0  0  0  0  0  0  0  0  0  0  0
   -1.3622    1.6326    0.1348 O   0  0  0  0  0  0  0  0  0  0  0  0
   -1.4725    0.2626    0.5517 C   0  0  0  0  0  0  0  0  0  0  0  0
   -2.8112   -0.3270    0.2188 C   0  0  0  0  0  0  0  0  0  0  0  0
    3.8494    0.2774   -0.3824 H   0  0  0  0  0  0  0  0  0  0  0  0
    2.9107    0.9307    0.9774 H   0  0  0  0  0  0  0  0  0  0  0  0
    3.5548   -0.7216    1.1127 H   0  0  0  0  0  0  0  0  0  0  0  0
    1.5698   -1.4739    0.3527 H   0  0  0  0  0  0  0  0  0  0  0  0
    1.9587   -0.8460   -1.2816 H   0  0  0  0  0  0  0  0  0  0  0  0
   -0.4868   -0.9511   -1.0236 H   0  0  0  0  0  0  0  0  0  0  0  0
   -1.0579    0.0477    1.5353 H   0  0  0  0  0  0  0  0  0  0  0  0
   -3.4668    0.4738   -0.2240 H   0  0  0  0  0  0  0  0  0  0  0  0
   -3.2431   -0.7559    1.1407 H   0  0  0  0  0  0  0  0  0  0  0  0
   -2.7700   -1.1302   -0.5383 H   0  0  0  0  0  0  0  0  0  0  0  0
  1  2  1  0
  2  3  1  0
  3  4  1  0
  4  5  1  0
  5  6  2  0
  5  7  1  0
  7  8  1  0
  8  9  1  0
  8  4  1  0
  1 10  1  0
  1 11  1  0
  1 12  1  0
  2 13  1  0
  2 14  1  0
  4 15  1  0
  8 16  1  0
  9 17  1  0
  9 18  1  0
  9 19  1  0
M  END
