
     RDKit          3D

 21 21  0  0  0  0  0  0  0  0999 V2000
    3.4034   -0.0992   -0.1042 C   0  0  0  0  0  0  0  0  0  0  0  0
    2.0242   -0.1954    0.5044 C   0  0  0  0  0  0  0  0  0  0  0  0
    1.0269    0.1646   -0.3864 O   0  0  0  0  0  0  0  0  0  0  0  0
   -0.1883    0.0469    0.2519 C   0  0  0  0  0  0  0  0  0  0  0  0
   -0.9256    1.3596    0.1252 C   0  0  0  0  0  0  0  0  0  0  0  0
   -2.2183    1.1530   -0.0661 C   0  0  0  0  0  0  0  0  0  0  0  0
   -2.4559   -0.2991   -0.0827 C   0  0  0  0  0  0  0  0  0  0  0  0
   -2.6923   -0.7603    1.2347 O   0  0  0  0  0  0  0  0  0  0  0  0
   -1.1357   -0.8869   -0.4950 C   0  0  0  0  0  0  0  0  0  0  0  0
    3.3904   -0.5646   -1.1258 H   0  0  0  0  0  0  0  0  0  0  0  0
    3.7411    0.9492   -0.1291 H   0  0  0  0  0  0  0  0  0  0  0  0
    4.0863   -0.7346    0.4975 H   0  0  0  0  0  0  0  0  0  0  0  0
    1.7969   -1.2136    0.8697 H   0  0  0  0  0  0  0  0  0  0  0  0
    1.9675    0.4743    1.3929 H   0  0  0  0  0  0  0  0  0  0  0  0
   -0.1082   -0.2911    1.2811 H   0  0  0  0  0  0  0  0  0  0  0  0
   -0.3795    2.3020    0.1958 H   0  0  0  0  0  0  0  0  0  0  0  0
   -2.9428    1.9720   -0.1857 H   0  0  0  0  0  0  0  0  0  0  0  0
   -3.2899   -0.6048   -0.7405 H   0  0  0  0  0  0  0  0  0  0  0  0
   -3.0983    0.0266    1.7157 H   0  0  0  0  0  0  0  0  0  0  0  0
   -1.0402   -1.8965   -0.0553 H   0  0  0  0  0  0  0  0  0  0  0  0
   -0.9616   -0.9022   -1.5702 H   0  0  0  0  0  0  0  0  0  0  0  0
  1  2  1  0
  2  3  1  0
  3  4  1  0
  4  5  1  0
  5  6  2  0
  6  7  1  0
  7  8  1  0
  7  9  1  0
  9  4  1  0
  1 10  1  0
  1 11  1  0
  1 12  1  0
  2 13  1  0
  2 14  1  0
  4 15  1  0
  5 16  1  0
  6 17  1  0
  7 18  1  0
  8 19  1  0
  9 20  1  0
  9 21  1  0
M  END
