
     RDKit          3D

 20 19  0  0  0  0  0  0  0  0999 V2000
    2.8905   -0.0542    0.0030 C   0  0  0  0  0  0  0  0  0  0  0  0
    1.5278    0.0598    0.6566 C   0  0  0  0  0  0  0  0  0  0  0  0
    0.5824   -0.1345   -0.3482 O   0  0  0  0  0  0  0  0  0  0  0  0
   -0.7249   -0.0453    0.1711 C   0  0  0  0  0  0  0  0  0  0  0  0
   -1.4350    1.0261   -0.6179 C   0  0  0  0  0  0  0  0  0  0  0  0
   -0.8015    2.2643   -0.5065 O   0  0  0  0  0  0  0  0  0  0  0  0
   -1.3909   -1.3707   -0.1544 C   0  0  0  0  0  0  0  0  0  0  0  0
   -2.6904   -1.4356    0.2957 O   0  0  0  0  0  0  0  0  0  0  0  0
    2.8260   -0.3637   -1.0609 H   0  0  0  0  0  0  0  0  0  0  0  0
    3.4200    0.9185    0.0467 H   0  0  0  0  0  0  0  0  0  0  0  0
    3.4508   -0.8526    0.5615 H   0  0  0  0  0  0  0  0  0  0  0  0
    1.3830   -0.6572    1.4678 H   0  0  0  0  0  0  0  0  0  0  0  0
    1.4327    1.0816    1.1037 H   0  0  0  0  0  0  0  0  0  0  0  0
   -0.7023    0.1564    1.2457 H   0  0  0  0  0  0  0  0  0  0  0  0
   -2.4738    1.1281   -0.2641 H   0  0  0  0  0  0  0  0  0  0  0  0
   -1.3996    0.7496   -1.6906 H   0  0  0  0  0  0  0  0  0  0  0  0
   -1.1749    2.8632   -1.2013 H   0  0  0  0  0  0  0  0  0  0  0  0
   -1.2953   -1.4973   -1.2599 H   0  0  0  0  0  0  0  0  0  0  0  0
   -0.7336   -2.1598    0.2992 H   0  0  0  0  0  0  0  0  0  0  0  0
   -2.6910   -1.6767    1.2528 H   0  0  0  0  0  0  0  0  0  0  0  0
  1  2  1  0
  2  3  1  0
  3  4  1  0
  4  5  1  0
  5  6  1  0
  4  7  1  0
  7  8  1  0
  1  9  1  0
  1 10  1  0
  1 11  1  0
  2 12  1  0
  2 13  1  0
  4 14  1  0
  5 15  1  0
  5 16  1  0
  6 17  1  0
  7 18  1  0
  7 19  1  0
  8 20  1  0
M  END
