
     RDKit          3D

 21 22  0  0  0  0  0  0  0  0999 V2000
    2.4868    0.3758    0.0329 C   0  0  0  0  0  0  0  0  0  0  0  0
    1.8114   -0.9341    0.3795 C   0  0  0  0  0  0  0  0  0  0  0  0
    0.6729   -1.0620   -0.2669 O   0  0  0  0  0  0  0  0  0  0  0  0
   -0.4131   -0.3548   -0.2310 C   0  0  0  0  0  0  0  0  0  0  0  0
   -0.5393    1.0770   -0.5727 C   0  0  0  0  0  0  0  0  0  0  0  0
   -1.7897    1.1114    0.3261 C   0  0  0  0  0  0  0  0  0  0  0  0
   -1.2895   -0.1885    0.9462 C   0  0  0  0  0  0  0  0  0  0  0  0
   -2.0909   -1.2360    0.5675 O   0  0  0  0  0  0  0  0  0  0  0  0
   -1.6212   -1.1583   -0.7380 C   0  0  0  0  0  0  0  0  0  0  0  0
    2.1512    0.6637   -0.9786 H   0  0  0  0  0  0  0  0  0  0  0  0
    2.1966    1.1014    0.8044 H   0  0  0  0  0  0  0  0  0  0  0  0
    3.6007    0.2667    0.0431 H   0  0  0  0  0  0  0  0  0  0  0  0
    1.8049   -1.0938    1.4798 H   0  0  0  0  0  0  0  0  0  0  0  0
    2.5370   -1.7163   -0.0144 H   0  0  0  0  0  0  0  0  0  0  0  0
    0.2198    1.7943   -0.2597 H   0  0  0  0  0  0  0  0  0  0  0  0
   -0.8277    1.1940   -1.6552 H   0  0  0  0  0  0  0  0  0  0  0  0
   -1.7835    1.9431    1.0513 H   0  0  0  0  0  0  0  0  0  0  0  0
   -2.7226    1.0295   -0.2457 H   0  0  0  0  0  0  0  0  0  0  0  0
   -0.8846   -0.1414    1.9433 H   0  0  0  0  0  0  0  0  0  0  0  0
   -2.1940   -0.5303   -1.4394 H   0  0  0  0  0  0  0  0  0  0  0  0
   -1.3252   -2.1413   -1.1725 H   0  0  0  0  0  0  0  0  0  0  0  0
  1  2  1  0
  2  3  1  0
  3  4  1  0
  4  5  1  0
  5  6  1  0
  6  7  1  0
  7  8  1  0
  8  9  1  0
  7  4  1  0
  9  4  1  0
  1 10  1  0
  1 11  1  0
  1 12  1  0
  2 13  1  0
  2 14  1  0
  5 15  1  0
  5 16  1  0
  6 17  1  0
  6 18  1  0
  7 19  1  0
  9 20  1  0
  9 21  1  0
M  END
