
     RDKit          3D

 23 23  0  0  0  0  0  0  0  0999 V2000
    3.6706    0.9308   -0.0719 C   0  0  0  0  0  0  0  0  0  0  0  0
    2.3249    0.4582   -0.5792 C   0  0  0  0  0  0  0  0  0  0  0  0
    1.4178    0.3815    0.4761 O   0  0  0  0  0  0  0  0  0  0  0  0
    0.1800   -0.0536    0.0070 C   0  0  0  0  0  0  0  0  0  0  0  0
   -0.8298   -0.1472    1.1331 C   0  0  0  0  0  0  0  0  0  0  0  0
   -0.3965   -1.0466    2.1054 O   0  0  0  0  0  0  0  0  0  0  0  0
   -2.1872   -0.5397    0.6563 C   0  0  0  0  0  0  0  0  0  0  0  0
   -2.7965    0.4342   -0.3556 C   0  0  0  0  0  0  0  0  0  0  0  0
   -2.4439   -0.9487   -0.7344 C   0  0  0  0  0  0  0  0  0  0  0  0
    4.0172    1.7726   -0.6951 H   0  0  0  0  0  0  0  0  0  0  0  0
    3.6257    1.1979    1.0045 H   0  0  0  0  0  0  0  0  0  0  0  0
    4.4007    0.1060   -0.2318 H   0  0  0  0  0  0  0  0  0  0  0  0
    2.4093   -0.5454   -1.0653 H   0  0  0  0  0  0  0  0  0  0  0  0
    1.9183    1.2053   -1.2885 H   0  0  0  0  0  0  0  0  0  0  0  0
    0.2651   -1.0759   -0.4199 H   0  0  0  0  0  0  0  0  0  0  0  0
   -0.1372    0.6079   -0.7968 H   0  0  0  0  0  0  0  0  0  0  0  0
   -0.8223    0.8658    1.6275 H   0  0  0  0  0  0  0  0  0  0  0  0
   -0.8577   -1.9249    2.0076 H   0  0  0  0  0  0  0  0  0  0  0  0
   -2.8714   -0.9773    1.4185 H   0  0  0  0  0  0  0  0  0  0  0  0
   -3.8072    0.7564   -0.1001 H   0  0  0  0  0  0  0  0  0  0  0  0
   -2.1531    1.2456   -0.7486 H   0  0  0  0  0  0  0  0  0  0  0  0
   -3.3055   -1.6248   -0.9491 H   0  0  0  0  0  0  0  0  0  0  0  0
   -1.6214   -1.0783   -1.4665 H   0  0  0  0  0  0  0  0  0  0  0  0
  1  2  1  0
  2  3  1  0
  3  4  1  0
  4  5  1  0
  5  6  1  0
  5  7  1  0
  7  8  1  0
  8  9  1  0
  9  7  1  0
  1 10  1  0
  1 11  1  0
  1 12  1  0
  2 13  1  0
  2 14  1  0
  4 15  1  0
  4 16  1  0
  5 17  1  0
  6 18  1  0
  7 19  1  0
  8 20  1  0
  8 21  1  0
  9 22  1  0
  9 23  1  0
M  END
