
     RDKit          3D

 25 24  0  0  0  0  0  0  0  0999 V2000
    2.9999   -1.1985   -0.4004 C   0  0  0  0  0  0  0  0  0  0  0  0
    1.8846   -0.7209    0.4655 C   0  0  0  0  0  0  0  0  0  0  0  0
    0.9383    0.0361   -0.2371 O   0  0  0  0  0  0  0  0  0  0  0  0
   -0.0558    0.4335    0.6499 C   0  0  0  0  0  0  0  0  0  0  0  0
   -0.1157    1.9410    0.7649 C   0  0  0  0  0  0  0  0  0  0  0  0
   -0.4085    2.6049   -0.5504 C   0  0  0  0  0  0  0  0  0  0  0  0
   -1.3929   -0.1480    0.2448 C   0  0  0  0  0  0  0  0  0  0  0  0
   -1.2406   -1.5474    0.2693 O   0  0  0  0  0  0  0  0  0  0  0  0
   -2.4606   -2.1137   -0.1009 C   0  0  0  0  0  0  0  0  0  0  0  0
    3.9489   -1.1660    0.1694 H   0  0  0  0  0  0  0  0  0  0  0  0
    3.0769   -0.6819   -1.3668 H   0  0  0  0  0  0  0  0  0  0  0  0
    2.8311   -2.2844   -0.6495 H   0  0  0  0  0  0  0  0  0  0  0  0
    1.3369   -1.5928    0.9232 H   0  0  0  0  0  0  0  0  0  0  0  0
    2.2235   -0.1009    1.3280 H   0  0  0  0  0  0  0  0  0  0  0  0
    0.1522    0.0529    1.6792 H   0  0  0  0  0  0  0  0  0  0  0  0
    0.8435    2.3324    1.1358 H   0  0  0  0  0  0  0  0  0  0  0  0
   -0.8924    2.2645    1.4795 H   0  0  0  0  0  0  0  0  0  0  0  0
    0.0916    2.0961   -1.4056 H   0  0  0  0  0  0  0  0  0  0  0  0
   -1.5099    2.7032   -0.7253 H   0  0  0  0  0  0  0  0  0  0  0  0
   -0.0015    3.6402   -0.5030 H   0  0  0  0  0  0  0  0  0  0  0  0
   -1.7214    0.2110   -0.7487 H   0  0  0  0  0  0  0  0  0  0  0  0
   -2.1366    0.0781    1.0425 H   0  0  0  0  0  0  0  0  0  0  0  0
   -2.7206   -1.7609   -1.1314 H   0  0  0  0  0  0  0  0  0  0  0  0
   -2.3871   -3.2113   -0.1626 H   0  0  0  0  0  0  0  0  0  0  0  0
   -3.2837   -1.8674    0.5731 H   0  0  0  0  0  0  0  0  0  0  0  0
  1  2  1  0
  2  3  1  0
  3  4  1  0
  4  5  1  0
  5  6  1  0
  4  7  1  0
  7  8  1  0
  8  9  1  0
  1 10  1  0
  1 11  1  0
  1 12  1  0
  2 13  1  0
  2 14  1  0
  4 15  1  0
  5 16  1  0
  5 17  1  0
  6 18  1  0
  6 19  1  0
  6 20  1  0
  7 21  1  0
  7 22  1  0
  9 23  1  0
  9 24  1  0
  9 25  1  0
M  END
