
     RDKit          3D

 25 24  0  0  0  0  0  0  0  0999 V2000
    2.4839   -0.0169    1.0661 C   0  0  0  0  0  0  0  0  0  0  0  0
    1.5502    1.1074    0.6788 C   0  0  0  0  0  0  0  0  0  0  0  0
    0.7932    0.8730   -0.4002 O   0  0  0  0  0  0  0  0  0  0  0  0
   -0.1073   -0.1039   -0.4866 C   0  0  0  0  0  0  0  0  0  0  0  0
   -0.7426   -0.0069   -1.8910 C   0  0  0  0  0  0  0  0  0  0  0  0
   -1.2804    0.0661    0.5011 C   0  0  0  0  0  0  0  0  0  0  0  0
   -1.9985    1.3700    0.2288 C   0  0  0  0  0  0  0  0  0  0  0  0
    0.3072   -1.5288   -0.3580 C   0  0  0  0  0  0  0  0  0  0  0  0
   -0.8883   -2.2780   -0.5269 O   0  0  0  0  0  0  0  0  0  0  0  0
    2.7044   -0.7064    0.2447 H   0  0  0  0  0  0  0  0  0  0  0  0
    2.1471   -0.5742    1.9651 H   0  0  0  0  0  0  0  0  0  0  0  0
    3.4900    0.3991    1.3873 H   0  0  0  0  0  0  0  0  0  0  0  0
    2.2351    1.9732    0.4082 H   0  0  0  0  0  0  0  0  0  0  0  0
    1.0084    1.4984    1.5722 H   0  0  0  0  0  0  0  0  0  0  0  0
   -0.7863    1.0251   -2.2376 H   0  0  0  0  0  0  0  0  0  0  0  0
   -0.0974   -0.6113   -2.5812 H   0  0  0  0  0  0  0  0  0  0  0  0
   -1.7375   -0.4712   -1.8182 H   0  0  0  0  0  0  0  0  0  0  0  0
   -1.9689   -0.7667    0.3353 H   0  0  0  0  0  0  0  0  0  0  0  0
   -0.9210    0.0755    1.5385 H   0  0  0  0  0  0  0  0  0  0  0  0
   -2.3905    1.4202   -0.8037 H   0  0  0  0  0  0  0  0  0  0  0  0
   -2.8770    1.3932    0.9002 H   0  0  0  0  0  0  0  0  0  0  0  0
   -1.3591    2.2253    0.5045 H   0  0  0  0  0  0  0  0  0  0  0  0
    0.9688   -1.8714   -1.1882 H   0  0  0  0  0  0  0  0  0  0  0  0
    0.6661   -1.8418    0.6292 H   0  0  0  0  0  0  0  0  0  0  0  0
   -1.1995   -2.6491    0.3317 H   0  0  0  0  0  0  0  0  0  0  0  0
  1  2  1  0
  2  3  1  0
  3  4  1  0
  4  5  1  0
  4  6  1  0
  6  7  1  0
  4  8  1  0
  8  9  1  0
  1 10  1  0
  1 11  1  0
  1 12  1  0
  2 13  1  0
  2 14  1  0
  5 15  1  0
  5 16  1  0
  5 17  1  0
  6 18  1  0
  6 19  1  0
  7 20  1  0
  7 21  1  0
  7 22  1  0
  8 23  1  0
  8 24  1  0
  9 25  1  0
M  END
