
     RDKit          3D

 20 20  0  0  0  0  0  0  0  0999 V2000
   -2.2743    1.1181    0.4026 C   0  0  0  0  0  0  0  0  0  0  0  0
   -2.3962   -0.3889    0.2747 C   0  0  0  0  0  0  0  0  0  0  0  0
   -1.1600   -1.0147    0.4436 O   0  0  0  0  0  0  0  0  0  0  0  0
   -0.2375   -0.5842   -0.5133 C   0  0  0  0  0  0  0  0  0  0  0  0
    1.0637   -1.3012   -0.2650 C   0  0  0  0  0  0  0  0  0  0  0  0
    1.5659   -0.9900    1.0913 O   0  0  0  0  0  0  0  0  0  0  0  0
    2.3201   -0.6281   -0.1514 C   0  0  0  0  0  0  0  0  0  0  0  0
    2.4946    0.8548   -0.2854 C   0  0  0  0  0  0  0  0  0  0  0  0
   -3.2852    1.5312    0.5858 H   0  0  0  0  0  0  0  0  0  0  0  0
   -1.9107    1.5769   -0.5432 H   0  0  0  0  0  0  0  0  0  0  0  0
   -1.6051    1.3229    1.2657 H   0  0  0  0  0  0  0  0  0  0  0  0
   -2.8108   -0.5858   -0.7526 H   0  0  0  0  0  0  0  0  0  0  0  0
   -3.0808   -0.7697    1.0303 H   0  0  0  0  0  0  0  0  0  0  0  0
   -0.1511    0.5127   -0.3867 H   0  0  0  0  0  0  0  0  0  0  0  0
   -0.6198   -0.7477   -1.5394 H   0  0  0  0  0  0  0  0  0  0  0  0
    1.0394   -2.3927   -0.4223 H   0  0  0  0  0  0  0  0  0  0  0  0
    3.2489   -1.2094   -0.1365 H   0  0  0  0  0  0  0  0  0  0  0  0
    3.4344    1.0503   -0.8726 H   0  0  0  0  0  0  0  0  0  0  0  0
    2.7044    1.2669    0.7419 H   0  0  0  0  0  0  0  0  0  0  0  0
    1.6600    1.3786   -0.7488 H   0  0  0  0  0  0  0  0  0  0  0  0
  1  2  1  0
  2  3  1  0
  3  4  1  0
  4  5  1  0
  5  6  1  0
  6  7  1  0
  7  8  1  0
  7  5  1  0
  1  9  1  0
  1 10  1  0
  1 11  1  0
  2 12  1  0
  2 13  1  0
  4 14  1  0
  4 15  1  0
  5 16  1  0
  7 17  1  0
  8 18  1  0
  8 19  1  0
  8 20  1  0
M  END
