
     RDKit          3D

 20 20  0  0  0  0  0  0  0  0999 V2000
   -3.3062   -0.2544    0.3391 C   0  0  0  0  0  0  0  0  0  0  0  0
   -1.8809   -0.6094    0.0895 C   0  0  0  0  0  0  0  0  0  0  0  0
   -1.0159    0.4746    0.1592 O   0  0  0  0  0  0  0  0  0  0  0  0
    0.2638    0.0038   -0.0908 C   0  0  0  0  0  0  0  0  0  0  0  0
    1.4519    0.7561    0.3665 C   0  0  0  0  0  0  0  0  0  0  0  0
    2.7718    0.0839    0.5156 C   0  0  0  0  0  0  0  0  0  0  0  0
    1.0152    0.9154   -1.0849 C   0  0  0  0  0  0  0  0  0  0  0  0
    1.6862    0.2406   -2.0693 O   0  0  0  0  0  0  0  0  0  0  0  0
   -3.5450    0.7692   -0.0136 H   0  0  0  0  0  0  0  0  0  0  0  0
   -3.5307   -0.3763    1.4248 H   0  0  0  0  0  0  0  0  0  0  0  0
   -3.9409   -1.0024   -0.1833 H   0  0  0  0  0  0  0  0  0  0  0  0
   -1.8036   -1.1398   -0.8937 H   0  0  0  0  0  0  0  0  0  0  0  0
   -1.5482   -1.3187    0.9017 H   0  0  0  0  0  0  0  0  0  0  0  0
    0.3183   -1.0877   -0.2838 H   0  0  0  0  0  0  0  0  0  0  0  0
    1.2625    1.5751    1.0753 H   0  0  0  0  0  0  0  0  0  0  0  0
    2.9133   -0.4614    1.4569 H   0  0  0  0  0  0  0  0  0  0  0  0
    3.0072   -0.6256   -0.3071 H   0  0  0  0  0  0  0  0  0  0  0  0
    3.5661    0.8737    0.4564 H   0  0  0  0  0  0  0  0  0  0  0  0
    0.6061    1.9164   -1.2987 H   0  0  0  0  0  0  0  0  0  0  0  0
    1.7089   -0.7330   -1.9006 H   0  0  0  0  0  0  0  0  0  0  0  0
  1  2  1  0
  2  3  1  0
  3  4  1  0
  4  5  1  0
  5  6  1  0
  5  7  1  0
  7  8  1  0
  7  4  1  0
  1  9  1  0
  1 10  1  0
  1 11  1  0
  2 12  1  0
  2 13  1  0
  4 14  1  0
  5 15  1  0
  6 16  1  0
  6 17  1  0
  6 18  1  0
  7 19  1  0
  8 20  1  0
M  END
