
     RDKit          3D

 21 22  0  0  0  0  0  0  0  0999 V2000
    3.6137    0.4853    0.1126 C   0  0  0  0  0  0  0  0  0  0  0  0
    2.3737   -0.3380    0.2516 C   0  0  0  0  0  0  0  0  0  0  0  0
    1.2350    0.3244   -0.1965 O   0  0  0  0  0  0  0  0  0  0  0  0
    0.0933   -0.4669   -0.0550 C   0  0  0  0  0  0  0  0  0  0  0  0
   -0.9091   -0.3315   -1.0537 C   0  0  0  0  0  0  0  0  0  0  0  0
   -2.0605    0.6827   -1.1208 C   0  0  0  0  0  0  0  0  0  0  0  0
   -2.5508   -0.2180    0.0375 C   0  0  0  0  0  0  0  0  0  0  0  0
   -3.5006    0.3425    0.8342 O   0  0  0  0  0  0  0  0  0  0  0  0
   -1.1246    0.0792    0.4679 C   0  0  0  0  0  0  0  0  0  0  0  0
    4.1945    0.3805    1.0540 H   0  0  0  0  0  0  0  0  0  0  0  0
    3.3389    1.5552    0.0292 H   0  0  0  0  0  0  0  0  0  0  0  0
    4.2280    0.2121   -0.7680 H   0  0  0  0  0  0  0  0  0  0  0  0
    2.1683   -0.6027    1.3295 H   0  0  0  0  0  0  0  0  0  0  0  0
    2.4714   -1.3417   -0.2524 H   0  0  0  0  0  0  0  0  0  0  0  0
    0.3626   -1.4735    0.3954 H   0  0  0  0  0  0  0  0  0  0  0  0
   -1.3822   -1.3275   -1.3287 H   0  0  0  0  0  0  0  0  0  0  0  0
   -2.6386    0.6018   -2.0345 H   0  0  0  0  0  0  0  0  0  0  0  0
   -1.8012    1.6928   -0.7971 H   0  0  0  0  0  0  0  0  0  0  0  0
   -2.7454   -1.2107   -0.3606 H   0  0  0  0  0  0  0  0  0  0  0  0
   -4.2962   -0.2497    0.8406 H   0  0  0  0  0  0  0  0  0  0  0  0
   -1.0703    1.2035    0.6339 H   0  0  0  0  0  0  0  0  0  0  0  0
  1  2  1  0
  2  3  1  0
  3  4  1  0
  4  5  1  0
  5  6  1  0
  6  7  1  0
  7  8  1  0
  7  9  1  0
  9  4  1  0
  9  5  1  0
  1 10  1  0
  1 11  1  0
  1 12  1  0
  2 13  1  0
  2 14  1  0
  4 15  1  0
  5 16  1  0
  6 17  1  0
  6 18  1  0
  7 19  1  0
  8 20  1  0
  9 21  1  0
M  END
