
     RDKit          3D

 19 21  0  0  0  0  0  0  0  0999 V2000
    2.8618    0.3725    0.6101 C   0  0  0  0  0  0  0  0  0  0  0  0
    1.9167   -0.2450   -0.3861 C   0  0  0  0  0  0  0  0  0  0  0  0
    0.6253    0.0001    0.0156 O   0  0  0  0  0  0  0  0  0  0  0  0
   -0.3426   -0.5169   -0.8178 C   0  0  0  0  0  0  0  0  0  0  0  0
   -1.5872   -0.9863   -0.1365 C   0  0  0  0  0  0  0  0  0  0  0  0
   -2.0610   -0.1815    1.0572 C   0  0  0  0  0  0  0  0  0  0  0  0
   -3.2984    0.4546    0.9109 O   0  0  0  0  0  0  0  0  0  0  0  0
   -2.1121    0.9977    0.3264 C   0  0  0  0  0  0  0  0  0  0  0  0
   -1.5798    0.3690   -0.9123 C   0  0  0  0  0  0  0  0  0  0  0  0
    3.4830    1.1727    0.1837 H   0  0  0  0  0  0  0  0  0  0  0  0
    2.3149    0.8062    1.4818 H   0  0  0  0  0  0  0  0  0  0  0  0
    3.5354   -0.4018    1.0281 H   0  0  0  0  0  0  0  0  0  0  0  0
    2.0644    0.3040   -1.3555 H   0  0  0  0  0  0  0  0  0  0  0  0
    2.1522   -1.3185   -0.5258 H   0  0  0  0  0  0  0  0  0  0  0  0
   -0.0757   -1.0763   -1.7250 H   0  0  0  0  0  0  0  0  0  0  0  0
   -2.2264   -1.7666   -0.5608 H   0  0  0  0  0  0  0  0  0  0  0  0
   -1.6750   -0.4139    2.0560 H   0  0  0  0  0  0  0  0  0  0  0  0
   -1.8539    2.0379    0.6083 H   0  0  0  0  0  0  0  0  0  0  0  0
   -2.1415    0.3922   -1.8584 H   0  0  0  0  0  0  0  0  0  0  0  0
  1  2  1  0
  2  3  1  0
  3  4  1  0
  4  5  1  0
  5  6  1  0
  6  7  1  0
  7  8  1  0
  8  9  1  0
  9  4  1  0
  9  5  1  0
  8  6  1  0
  1 10  1  0
  1 11  1  0
  1 12  1  0
  2 13  1  0
  2 14  1  0
  4 15  1  0
  5 16  1  0
  6 17  1  0
  8 18  1  0
  9 19  1  0
M  END
