
     RDKit          3D

 18 18  0  0  0  0  0  0  0  0999 V2000
    2.7003    0.7223   -0.2935 C   0  0  0  0  0  0  0  0  0  0  0  0
    1.5819   -0.2647   -0.3334 C   0  0  0  0  0  0  0  0  0  0  0  0
    0.3514    0.3188    0.0187 O   0  0  0  0  0  0  0  0  0  0  0  0
   -0.6763   -0.5924   -0.0190 C   0  0  0  0  0  0  0  0  0  0  0  0
   -1.8811    0.0241   -0.7276 C   0  0  0  0  0  0  0  0  0  0  0  0
   -2.2051    0.6889    0.5597 C   0  0  0  0  0  0  0  0  0  0  0  0
   -2.7574    1.7098    0.8984 O   0  0  0  0  0  0  0  0  0  0  0  0
   -1.5491   -0.4585    1.2357 C   0  0  0  0  0  0  0  0  0  0  0  0
    2.4367    1.6978   -0.7490 H   0  0  0  0  0  0  0  0  0  0  0  0
    3.0418    0.9194    0.7432 H   0  0  0  0  0  0  0  0  0  0  0  0
    3.5767    0.2506   -0.8093 H   0  0  0  0  0  0  0  0  0  0  0  0
    1.4837   -0.7245   -1.3370 H   0  0  0  0  0  0  0  0  0  0  0  0
    1.8269   -1.1033    0.3606 H   0  0  0  0  0  0  0  0  0  0  0  0
   -0.4361   -1.6133   -0.3030 H   0  0  0  0  0  0  0  0  0  0  0  0
   -2.6824   -0.7162   -0.9723 H   0  0  0  0  0  0  0  0  0  0  0  0
   -1.6160    0.7051   -1.5522 H   0  0  0  0  0  0  0  0  0  0  0  0
   -2.2169   -1.3399    1.3242 H   0  0  0  0  0  0  0  0  0  0  0  0
   -0.9793   -0.2240    2.1394 H   0  0  0  0  0  0  0  0  0  0  0  0
  1  2  1  0
  2  3  1  0
  3  4  1  0
  4  5  1  0
  5  6  1  0
  6  7  2  0
  6  8  1  0
  8  4  1  0
  1  9  1  0
  1 10  1  0
  1 11  1  0
  2 12  1  0
  2 13  1  0
  4 14  1  0
  5 15  1  0
  5 16  1  0
  8 17  1  0
  8 18  1  0
M  END
