
     RDKit          3D

 21 22  0  0  0  0  0  0  0  0999 V2000
    3.0351    0.7836   -0.2876 C   0  0  0  0  0  0  0  0  0  0  0  0
    1.8384   -0.0643    0.0077 C   0  0  0  0  0  0  0  0  0  0  0  0
    0.7625    0.6673    0.4332 O   0  0  0  0  0  0  0  0  0  0  0  0
   -0.3382   -0.1128    0.7057 C   0  0  0  0  0  0  0  0  0  0  0  0
   -1.6177    0.5370    1.1874 C   0  0  0  0  0  0  0  0  0  0  0  0
   -2.0399    0.4291   -0.2713 C   0  0  0  0  0  0  0  0  0  0  0  0
   -3.3758    0.1357   -0.4640 O   0  0  0  0  0  0  0  0  0  0  0  0
   -1.0465   -0.6187   -0.5743 C   0  0  0  0  0  0  0  0  0  0  0  0
   -0.4392   -1.5358    0.3999 C   0  0  0  0  0  0  0  0  0  0  0  0
    3.9584    0.2799    0.0528 H   0  0  0  0  0  0  0  0  0  0  0  0
    3.1128    0.9334   -1.3766 H   0  0  0  0  0  0  0  0  0  0  0  0
    2.9315    1.7604    0.2345 H   0  0  0  0  0  0  0  0  0  0  0  0
    1.5145   -0.6125   -0.9218 H   0  0  0  0  0  0  0  0  0  0  0  0
    2.1074   -0.7834    0.8057 H   0  0  0  0  0  0  0  0  0  0  0  0
   -2.2325   -0.1429    1.8112 H   0  0  0  0  0  0  0  0  0  0  0  0
   -1.4850    1.5636    1.5622 H   0  0  0  0  0  0  0  0  0  0  0  0
   -1.7991    1.4005   -0.7564 H   0  0  0  0  0  0  0  0  0  0  0  0
   -3.8254    0.0796    0.4119 H   0  0  0  0  0  0  0  0  0  0  0  0
   -0.5122   -0.5107   -1.5320 H   0  0  0  0  0  0  0  0  0  0  0  0
   -1.0601   -2.1538    1.1033 H   0  0  0  0  0  0  0  0  0  0  0  0
    0.5108   -2.0352    0.1385 H   0  0  0  0  0  0  0  0  0  0  0  0
  1  2  1  0
  2  3  1  0
  3  4  1  0
  4  5  1  0
  5  6  1  0
  6  7  1  0
  6  8  1  0
  8  9  1  0
  8  4  1  0
  9  4  1  0
  1 10  1  0
  1 11  1  0
  1 12  1  0
  2 13  1  0
  2 14  1  0
  5 15  1  0
  5 16  1  0
  6 17  1  0
  7 18  1  0
  8 19  1  0
  9 20  1  0
  9 21  1  0
M  END
