
     RDKit          3D

 23 23  0  0  0  0  0  0  0  0999 V2000
   -2.5067   -1.4510    0.4951 C   0  0  0  0  0  0  0  0  0  0  0  0
   -2.1876   -1.0314   -0.9024 C   0  0  0  0  0  0  0  0  0  0  0  0
   -0.8746   -0.6819   -1.1112 O   0  0  0  0  0  0  0  0  0  0  0  0
   -0.4367    0.3666   -0.3444 C   0  0  0  0  0  0  0  0  0  0  0  0
    0.5999    1.2668   -0.8929 C   0  0  0  0  0  0  0  0  0  0  0  0
    0.7597    2.6784   -0.4152 C   0  0  0  0  0  0  0  0  0  0  0  0
    1.0010    0.2245    0.1433 C   0  0  0  0  0  0  0  0  0  0  0  0
    1.7723   -0.7951   -0.3781 O   0  0  0  0  0  0  0  0  0  0  0  0
    2.6918   -1.1895    0.5876 C   0  0  0  0  0  0  0  0  0  0  0  0
   -1.6836   -2.0659    0.9169 H   0  0  0  0  0  0  0  0  0  0  0  0
   -3.4080   -2.1285    0.4423 H   0  0  0  0  0  0  0  0  0  0  0  0
   -2.8027   -0.6193    1.1633 H   0  0  0  0  0  0  0  0  0  0  0  0
   -2.9122   -0.2537   -1.2100 H   0  0  0  0  0  0  0  0  0  0  0  0
   -2.3947   -1.9161   -1.5671 H   0  0  0  0  0  0  0  0  0  0  0  0
   -1.1924    0.7931    0.3391 H   0  0  0  0  0  0  0  0  0  0  0  0
    0.8705    1.1073   -1.9447 H   0  0  0  0  0  0  0  0  0  0  0  0
    0.8393    2.7269    0.7009 H   0  0  0  0  0  0  0  0  0  0  0  0
    0.0356    3.3863   -0.8253 H   0  0  0  0  0  0  0  0  0  0  0  0
    1.7715    3.0261   -0.7768 H   0  0  0  0  0  0  0  0  0  0  0  0
    1.2081    0.5579    1.1766 H   0  0  0  0  0  0  0  0  0  0  0  0
    3.3482   -0.3326    0.8716 H   0  0  0  0  0  0  0  0  0  0  0  0
    3.2907   -2.0208    0.1142 H   0  0  0  0  0  0  0  0  0  0  0  0
    2.2107   -1.6483    1.4762 H   0  0  0  0  0  0  0  0  0  0  0  0
  1  2  1  0
  2  3  1  0
  3  4  1  0
  4  5  1  0
  5  6  1  0
  5  7  1  0
  7  8  1  0
  8  9  1  0
  7  4  1  0
  1 10  1  0
  1 11  1  0
  1 12  1  0
  2 13  1  0
  2 14  1  0
  4 15  1  0
  5 16  1  0
  6 17  1  0
  6 18  1  0
  6 19  1  0
  7 20  1  0
  9 21  1  0
  9 22  1  0
  9 23  1  0
M  END
