
     RDKit          3D

 23 23  0  0  0  0  0  0  0  0999 V2000
    2.9449    0.2906   -0.1235 C   0  0  0  0  0  0  0  0  0  0  0  0
    2.0772   -0.4283    0.8596 C   0  0  0  0  0  0  0  0  0  0  0  0
    0.7460   -0.0698    0.8103 O   0  0  0  0  0  0  0  0  0  0  0  0
    0.1562   -0.3059   -0.4145 C   0  0  0  0  0  0  0  0  0  0  0  0
   -0.7981    0.6817   -0.9764 C   0  0  0  0  0  0  0  0  0  0  0  0
   -1.3499    1.8028   -0.1420 C   0  0  0  0  0  0  0  0  0  0  0  0
   -1.2554   -0.7032   -0.5564 C   0  0  0  0  0  0  0  0  0  0  0  0
   -2.1796   -0.8049    0.6233 C   0  0  0  0  0  0  0  0  0  0  0  0
   -1.5849   -1.5857   -1.5943 O   0  0  0  0  0  0  0  0  0  0  0  0
    3.9902    0.3520    0.3010 H   0  0  0  0  0  0  0  0  0  0  0  0
    3.0782   -0.2884   -1.0802 H   0  0  0  0  0  0  0  0  0  0  0  0
    2.6385    1.3336   -0.3033 H   0  0  0  0  0  0  0  0  0  0  0  0
    2.2538   -1.5179    0.7591 H   0  0  0  0  0  0  0  0  0  0  0  0
    2.4438   -0.1465    1.8842 H   0  0  0  0  0  0  0  0  0  0  0  0
    0.8641   -0.7501   -1.1605 H   0  0  0  0  0  0  0  0  0  0  0  0
   -0.8371    0.8865   -2.0708 H   0  0  0  0  0  0  0  0  0  0  0  0
   -1.0586    2.7941   -0.5370 H   0  0  0  0  0  0  0  0  0  0  0  0
   -1.0984    1.7445    0.9180 H   0  0  0  0  0  0  0  0  0  0  0  0
   -2.4727    1.7553   -0.2441 H   0  0  0  0  0  0  0  0  0  0  0  0
   -3.2277   -0.7769    0.2040 H   0  0  0  0  0  0  0  0  0  0  0  0
   -2.0935    0.0101    1.3406 H   0  0  0  0  0  0  0  0  0  0  0  0
   -2.0811   -1.8215    1.0678 H   0  0  0  0  0  0  0  0  0  0  0  0
   -1.1557   -2.4519   -1.3696 H   0  0  0  0  0  0  0  0  0  0  0  0
  1  2  1  0
  2  3  1  0
  3  4  1  0
  4  5  1  0
  5  6  1  0
  5  7  1  0
  7  8  1  0
  7  9  1  0
  7  4  1  0
  1 10  1  0
  1 11  1  0
  1 12  1  0
  2 13  1  0
  2 14  1  0
  4 15  1  0
  5 16  1  0
  6 17  1  0
  6 18  1  0
  6 19  1  0
  8 20  1  0
  8 21  1  0
  8 22  1  0
  9 23  1  0
M  END
