
     RDKit          3D

 23 23  0  0  0  0  0  0  0  0999 V2000
    2.9771   -0.4321   -0.6917 C   0  0  0  0  0  0  0  0  0  0  0  0
    2.3575   -0.4551    0.6840 C   0  0  0  0  0  0  0  0  0  0  0  0
    1.0164   -0.7093    0.6917 O   0  0  0  0  0  0  0  0  0  0  0  0
    0.2616    0.2184   -0.0111 C   0  0  0  0  0  0  0  0  0  0  0  0
   -1.2059   -0.0820    0.0123 C   0  0  0  0  0  0  0  0  0  0  0  0
   -1.7017   -1.3881   -0.5556 C   0  0  0  0  0  0  0  0  0  0  0  0
   -2.0859    0.5105    1.0657 C   0  0  0  0  0  0  0  0  0  0  0  0
   -2.0801    1.1576   -0.2536 C   0  0  0  0  0  0  0  0  0  0  0  0
   -1.4623    2.3872   -0.3426 O   0  0  0  0  0  0  0  0  0  0  0  0
    2.5894    0.3996   -1.2771 H   0  0  0  0  0  0  0  0  0  0  0  0
    4.0872   -0.3565   -0.5289 H   0  0  0  0  0  0  0  0  0  0  0  0
    2.8240   -1.4309   -1.1692 H   0  0  0  0  0  0  0  0  0  0  0  0
    2.8643   -1.2625    1.2513 H   0  0  0  0  0  0  0  0  0  0  0  0
    2.6314    0.5097    1.1729 H   0  0  0  0  0  0  0  0  0  0  0  0
    0.4893    1.2399    0.2833 H   0  0  0  0  0  0  0  0  0  0  0  0
    0.5785    0.1110   -1.0910 H   0  0  0  0  0  0  0  0  0  0  0  0
   -0.8464   -2.0483   -0.7290 H   0  0  0  0  0  0  0  0  0  0  0  0
   -2.2671   -1.1524   -1.4885 H   0  0  0  0  0  0  0  0  0  0  0  0
   -2.4534   -1.8747    0.1293 H   0  0  0  0  0  0  0  0  0  0  0  0
   -1.5784    1.0272    1.9037 H   0  0  0  0  0  0  0  0  0  0  0  0
   -2.9830   -0.0509    1.3955 H   0  0  0  0  0  0  0  0  0  0  0  0
   -2.8746    0.9888   -1.0082 H   0  0  0  0  0  0  0  0  0  0  0  0
   -1.1377    2.6930    0.5569 H   0  0  0  0  0  0  0  0  0  0  0  0
  1  2  1  0
  2  3  1  0
  3  4  1  0
  4  5  1  0
  5  6  1  0
  5  7  1  0
  7  8  1  0
  8  9  1  0
  8  5  1  0
  1 10  1  0
  1 11  1  0
  1 12  1  0
  2 13  1  0
  2 14  1  0
  4 15  1  0
  4 16  1  0
  6 17  1  0
  6 18  1  0
  6 19  1  0
  7 20  1  0
  7 21  1  0
  8 22  1  0
  9 23  1  0
M  END
