
     RDKit          3D

 20 20  0  0  0  0  0  0  0  0999 V2000
    2.9403   -0.7337    0.2830 C   0  0  0  0  0  0  0  0  0  0  0  0
    1.8745    0.2187   -0.2844 C   0  0  0  0  0  0  0  0  0  0  0  0
    0.6952   -0.1677    0.2474 O   0  0  0  0  0  0  0  0  0  0  0  0
   -0.4299    0.5032   -0.0822 C   0  0  0  0  0  0  0  0  0  0  0  0
   -1.3204   -0.4463   -0.8874 C   0  0  0  0  0  0  0  0  0  0  0  0
   -2.5803   -0.4429   -0.0563 C   0  0  0  0  0  0  0  0  0  0  0  0
   -2.5957    0.7577    0.6374 O   0  0  0  0  0  0  0  0  0  0  0  0
   -1.2795    1.0491    0.9713 C   0  0  0  0  0  0  0  0  0  0  0  0
    2.4543   -1.7497    0.2770 H   0  0  0  0  0  0  0  0  0  0  0  0
    3.2339   -0.4196    1.2890 H   0  0  0  0  0  0  0  0  0  0  0  0
    3.8279   -0.7408   -0.3519 H   0  0  0  0  0  0  0  0  0  0  0  0
    1.8559    0.1348   -1.3972 H   0  0  0  0  0  0  0  0  0  0  0  0
    2.2324    1.2271    0.0186 H   0  0  0  0  0  0  0  0  0  0  0  0
   -0.1504    1.3268   -0.7974 H   0  0  0  0  0  0  0  0  0  0  0  0
   -1.5195   -0.0875   -1.8954 H   0  0  0  0  0  0  0  0  0  0  0  0
   -0.8826   -1.4650   -0.9439 H   0  0  0  0  0  0  0  0  0  0  0  0
   -2.5331   -1.2925    0.6384 H   0  0  0  0  0  0  0  0  0  0  0  0
   -3.4934   -0.5207   -0.6624 H   0  0  0  0  0  0  0  0  0  0  0  0
   -1.2135    2.1717    1.0010 H   0  0  0  0  0  0  0  0  0  0  0  0
   -1.1159    0.6772    1.9954 H   0  0  0  0  0  0  0  0  0  0  0  0
  1  2  1  0
  2  3  1  0
  3  4  1  0
  4  5  1  0
  5  6  1  0
  6  7  1  0
  7  8  1  0
  8  4  1  0
  1  9  1  0
  1 10  1  0
  1 11  1  0
  2 12  1  0
  2 13  1  0
  4 14  1  0
  5 15  1  0
  5 16  1  0
  6 17  1  0
  6 18  1  0
  8 19  1  0
  8 20  1  0
M  END
