
     RDKit          3D

 20 19  0  0  0  0  0  0  0  0999 V2000
    2.5779    0.3399    0.3277 C   0  0  0  0  0  0  0  0  0  0  0  0
    2.0177   -1.0203    0.0309 C   0  0  0  0  0  0  0  0  0  0  0  0
    0.8506   -0.9620   -0.7289 O   0  0  0  0  0  0  0  0  0  0  0  0
   -0.0786   -0.2436   -0.0124 C   0  0  0  0  0  0  0  0  0  0  0  0
   -1.4006   -0.1100   -0.7404 C   0  0  0  0  0  0  0  0  0  0  0  0
   -1.2452    0.5398   -1.9631 O   0  0  0  0  0  0  0  0  0  0  0  0
   -2.3232    0.6840    0.1702 C   0  0  0  0  0  0  0  0  0  0  0  0
   -2.4423   -0.0107    1.3756 O   0  0  0  0  0  0  0  0  0  0  0  0
    2.4184    0.9778   -0.5520 H   0  0  0  0  0  0  0  0  0  0  0  0
    2.0498    0.7832    1.1854 H   0  0  0  0  0  0  0  0  0  0  0  0
    3.6449    0.2271    0.6067 H   0  0  0  0  0  0  0  0  0  0  0  0
    1.8415   -1.5237    1.0216 H   0  0  0  0  0  0  0  0  0  0  0  0
    2.7604   -1.6747   -0.4860 H   0  0  0  0  0  0  0  0  0  0  0  0
    0.3013    0.8038    0.1302 H   0  0  0  0  0  0  0  0  0  0  0  0
   -0.2812   -0.7489    0.9376 H   0  0  0  0  0  0  0  0  0  0  0  0
   -1.8550   -1.1296   -0.9022 H   0  0  0  0  0  0  0  0  0  0  0  0
   -1.2367    1.5242   -1.7686 H   0  0  0  0  0  0  0  0  0  0  0  0
   -3.2969    0.9020   -0.2955 H   0  0  0  0  0  0  0  0  0  0  0  0
   -1.7600    1.6256    0.4158 H   0  0  0  0  0  0  0  0  0  0  0  0
   -2.5428   -0.9839    1.2475 H   0  0  0  0  0  0  0  0  0  0  0  0
  1  2  1  0
  2  3  1  0
  3  4  1  0
  4  5  1  0
  5  6  1  0
  5  7  1  0
  7  8  1  0
  1  9  1  0
  1 10  1  0
  1 11  1  0
  2 12  1  0
  2 13  1  0
  4 14  1  0
  4 15  1  0
  5 16  1  0
  6 17  1  0
  7 18  1  0
  7 19  1  0
  8 20  1  0
M  END
