
     RDKit          3D

 21 22  0  0  0  0  0  0  0  0999 V2000
    3.4107    0.6208    0.5760 C   0  0  0  0  0  0  0  0  0  0  0  0
    2.2174   -0.2206    0.2648 C   0  0  0  0  0  0  0  0  0  0  0  0
    1.0170    0.4608    0.3805 O   0  0  0  0  0  0  0  0  0  0  0  0
   -0.0257   -0.4096    0.0707 C   0  0  0  0  0  0  0  0  0  0  0  0
   -1.2553   -0.4659    0.8197 C   0  0  0  0  0  0  0  0  0  0  0  0
   -2.6806   -0.5480    0.3445 C   0  0  0  0  0  0  0  0  0  0  0  0
   -2.3398    0.9028   -0.0686 C   0  0  0  0  0  0  0  0  0  0  0  0
   -1.1259    0.1880   -0.6222 C   0  0  0  0  0  0  0  0  0  0  0  0
   -1.5808   -0.6390   -1.6843 O   0  0  0  0  0  0  0  0  0  0  0  0
    3.1171    1.6924    0.3760 H   0  0  0  0  0  0  0  0  0  0  0  0
    3.7535    0.5544    1.6263 H   0  0  0  0  0  0  0  0  0  0  0  0
    4.2440    0.3142   -0.0882 H   0  0  0  0  0  0  0  0  0  0  0  0
    2.1510   -1.0973    0.9542 H   0  0  0  0  0  0  0  0  0  0  0  0
    2.2819   -0.5653   -0.7985 H   0  0  0  0  0  0  0  0  0  0  0  0
    0.3699   -1.4337   -0.1918 H   0  0  0  0  0  0  0  0  0  0  0  0
   -1.2368    0.3077    1.6547 H   0  0  0  0  0  0  0  0  0  0  0  0
   -3.3905   -0.6270    1.1666 H   0  0  0  0  0  0  0  0  0  0  0  0
   -2.9248   -1.2227   -0.4616 H   0  0  0  0  0  0  0  0  0  0  0  0
   -2.9753    1.3158   -0.8467 H   0  0  0  0  0  0  0  0  0  0  0  0
   -2.1759    1.4876    0.8432 H   0  0  0  0  0  0  0  0  0  0  0  0
   -0.8510   -0.6154   -2.3487 H   0  0  0  0  0  0  0  0  0  0  0  0
  1  2  1  0
  2  3  1  0
  3  4  1  0
  4  5  1  0
  5  6  1  0
  6  7  1  0
  7  8  1  0
  8  9  1  0
  8  4  1  0
  8  5  1  0
  1 10  1  0
  1 11  1  0
  1 12  1  0
  2 13  1  0
  2 14  1  0
  4 15  1  0
  5 16  1  0
  6 17  1  0
  6 18  1  0
  7 19  1  0
  7 20  1  0
  9 21  1  0
M  END
