
     RDKit          3D

 25 24  0  0  0  0  0  0  0  0999 V2000
   -3.6554    0.3397    1.1265 C   0  0  0  0  0  0  0  0  0  0  0  0
   -2.4983    0.4300    0.1905 C   0  0  0  0  0  0  0  0  0  0  0  0
   -1.4303   -0.3808    0.5440 O   0  0  0  0  0  0  0  0  0  0  0  0
   -0.4378   -0.2011   -0.3980 C   0  0  0  0  0  0  0  0  0  0  0  0
   -0.1063   -1.5437   -1.0379 C   0  0  0  0  0  0  0  0  0  0  0  0
    0.8357    0.3680    0.1906 C   0  0  0  0  0  0  0  0  0  0  0  0
    1.8065    0.5008   -0.9588 C   0  0  0  0  0  0  0  0  0  0  0  0
    3.0294    1.0131   -0.6439 O   0  0  0  0  0  0  0  0  0  0  0  0
    3.6606    0.2090    0.2900 C   0  0  0  0  0  0  0  0  0  0  0  0
   -3.5547    0.9964    2.0187 H   0  0  0  0  0  0  0  0  0  0  0  0
   -4.5690    0.6117    0.5577 H   0  0  0  0  0  0  0  0  0  0  0  0
   -3.8032   -0.7247    1.4533 H   0  0  0  0  0  0  0  0  0  0  0  0
   -2.8492    0.1809   -0.8354 H   0  0  0  0  0  0  0  0  0  0  0  0
   -2.1214    1.4813    0.1553 H   0  0  0  0  0  0  0  0  0  0  0  0
   -0.7895    0.5300   -1.1462 H   0  0  0  0  0  0  0  0  0  0  0  0
    0.7569   -1.9869   -0.5420 H   0  0  0  0  0  0  0  0  0  0  0  0
    0.1260   -1.3356   -2.0946 H   0  0  0  0  0  0  0  0  0  0  0  0
   -0.9895   -2.2288   -1.0144 H   0  0  0  0  0  0  0  0  0  0  0  0
    0.6687    1.3155    0.7141 H   0  0  0  0  0  0  0  0  0  0  0  0
    1.2406   -0.4423    0.8580 H   0  0  0  0  0  0  0  0  0  0  0  0
    1.8738   -0.4907   -1.4677 H   0  0  0  0  0  0  0  0  0  0  0  0
    1.3053    1.1991   -1.6914 H   0  0  0  0  0  0  0  0  0  0  0  0
    4.6651    0.7048    0.4703 H   0  0  0  0  0  0  0  0  0  0  0  0
    3.7717   -0.8276   -0.0604 H   0  0  0  0  0  0  0  0  0  0  0  0
    3.0643    0.2822    1.2452 H   0  0  0  0  0  0  0  0  0  0  0  0
  1  2  1  0
  2  3  1  0
  3  4  1  0
  4  5  1  0
  4  6  1  0
  6  7  1  0
  7  8  1  0
  8  9  1  0
  1 10  1  0
  1 11  1  0
  1 12  1  0
  2 13  1  0
  2 14  1  0
  4 15  1  0
  5 16  1  0
  5 17  1  0
  5 18  1  0
  6 19  1  0
  6 20  1  0
  7 21  1  0
  7 22  1  0
  9 23  1  0
  9 24  1  0
  9 25  1  0
M  END
