
     RDKit          3D

 19 18  0  0  0  0  0  0  0  0999 V2000
    3.1766   -0.3189    0.0927 C   0  0  0  0  0  0  0  0  0  0  0  0
    2.1360    0.5713    0.6833 C   0  0  0  0  0  0  0  0  0  0  0  0
    0.8741    0.1975    0.1248 O   0  0  0  0  0  0  0  0  0  0  0  0
   -0.3082    0.8033    0.4401 C   0  0  0  0  0  0  0  0  0  0  0  0
   -0.2851    1.7537    1.2780 O   0  0  0  0  0  0  0  0  0  0  0  0
   -1.5644    0.3452   -0.1914 C   0  0  0  0  0  0  0  0  0  0  0  0
   -1.2640   -0.7018   -1.0550 O   0  0  0  0  0  0  0  0  0  0  0  0
   -2.4908   -0.2156    0.8722 C   0  0  0  0  0  0  0  0  0  0  0  0
   -3.6223   -0.6872    0.2012 O   0  0  0  0  0  0  0  0  0  0  0  0
    3.5995   -1.0448    0.8178 H   0  0  0  0  0  0  0  0  0  0  0  0
    2.7793   -0.9528   -0.7529 H   0  0  0  0  0  0  0  0  0  0  0  0
    4.0096    0.2706   -0.3668 H   0  0  0  0  0  0  0  0  0  0  0  0
    2.3412    1.6524    0.5508 H   0  0  0  0  0  0  0  0  0  0  0  0
    2.0513    0.3094    1.7783 H   0  0  0  0  0  0  0  0  0  0  0  0
   -2.0285    1.1934   -0.7330 H   0  0  0  0  0  0  0  0  0  0  0  0
   -1.3066   -1.5776   -0.5624 H   0  0  0  0  0  0  0  0  0  0  0  0
   -2.7358    0.5366    1.6331 H   0  0  0  0  0  0  0  0  0  0  0  0
   -1.9586   -1.0654    1.3465 H   0  0  0  0  0  0  0  0  0  0  0  0
   -3.4033   -1.0691   -0.6651 H   0  0  0  0  0  0  0  0  0  0  0  0
  1  2  1  0
  2  3  1  0
  3  4  1  0
  4  5  2  0
  4  6  1  0
  6  7  1  0
  6  8  1  0
  8  9  1  0
  1 10  1  0
  1 11  1  0
  1 12  1  0
  2 13  1  0
  2 14  1  0
  6 15  1  0
  7 16  1  0
  8 17  1  0
  8 18  1  0
  9 19  1  0
M  END
