
     RDKit          3D

 23 23  0  0  0  0  0  0  0  0999 V2000
   -2.6764    1.8311    0.2958 C   0  0  0  0  0  0  0  0  0  0  0  0
   -2.1086    0.4294   -0.0113 C   0  0  0  0  0  0  0  0  0  0  0  0
   -0.7377    0.6219   -0.0621 O   0  0  0  0  0  0  0  0  0  0  0  0
    0.0280   -0.4633   -0.3404 C   0  0  0  0  0  0  0  0  0  0  0  0
    1.5260   -0.1484   -0.3823 C   0  0  0  0  0  0  0  0  0  0  0  0
    1.9176    0.3505    0.8744 O   0  0  0  0  0  0  0  0  0  0  0  0
    3.2932    0.6324    0.8141 C   0  0  0  0  0  0  0  0  0  0  0  0
   -0.4256   -1.5944   -1.1762 C   0  0  0  0  0  0  0  0  0  0  0  0
   -0.3693   -1.7605    0.3050 C   0  0  0  0  0  0  0  0  0  0  0  0
   -2.4255    2.0178    1.3602 H   0  0  0  0  0  0  0  0  0  0  0  0
   -2.1232    2.5205   -0.3412 H   0  0  0  0  0  0  0  0  0  0  0  0
   -3.7628    1.8645    0.0911 H   0  0  0  0  0  0  0  0  0  0  0  0
   -2.5129    0.0439   -0.9597 H   0  0  0  0  0  0  0  0  0  0  0  0
   -2.4191   -0.2284    0.8348 H   0  0  0  0  0  0  0  0  0  0  0  0
    1.6728    0.6647   -1.1186 H   0  0  0  0  0  0  0  0  0  0  0  0
    2.1050   -1.0461   -0.6374 H   0  0  0  0  0  0  0  0  0  0  0  0
    3.4240    1.3991    0.0014 H   0  0  0  0  0  0  0  0  0  0  0  0
    3.8954   -0.2790    0.6201 H   0  0  0  0  0  0  0  0  0  0  0  0
    3.6560    1.0636    1.7684 H   0  0  0  0  0  0  0  0  0  0  0  0
    0.3353   -2.1306   -1.7519 H   0  0  0  0  0  0  0  0  0  0  0  0
   -1.4154   -1.5292   -1.6887 H   0  0  0  0  0  0  0  0  0  0  0  0
    0.4800   -2.3453    0.7363 H   0  0  0  0  0  0  0  0  0  0  0  0
   -1.3567   -1.9142    0.7682 H   0  0  0  0  0  0  0  0  0  0  0  0
  1  2  1  0
  2  3  1  0
  3  4  1  0
  4  5  1  0
  5  6  1  0
  6  7  1  0
  4  8  1  0
  8  9  1  0
  9  4  1  0
  1 10  1  0
  1 11  1  0
  1 12  1  0
  2 13  1  0
  2 14  1  0
  5 15  1  0
  5 16  1  0
  7 17  1  0
  7 18  1  0
  7 19  1  0
  8 20  1  0
  8 21  1  0
  9 22  1  0
  9 23  1  0
M  END
