
     RDKit          3D

 23 23  0  0  0  0  0  0  0  0999 V2000
    2.3819    0.8240   -0.2261 C   0  0  0  0  0  0  0  0  0  0  0  0
    2.2158   -0.6695   -0.0978 C   0  0  0  0  0  0  0  0  0  0  0  0
    0.9522   -1.0425    0.3290 O   0  0  0  0  0  0  0  0  0  0  0  0
    0.0213   -0.5823   -0.5933 C   0  0  0  0  0  0  0  0  0  0  0  0
   -0.9702   -1.6766   -1.0168 C   0  0  0  0  0  0  0  0  0  0  0  0
   -1.9981   -0.5661   -1.0907 C   0  0  0  0  0  0  0  0  0  0  0  0
   -1.1703    0.1341   -0.0044 C   0  0  0  0  0  0  0  0  0  0  0  0
   -1.1808    1.6172   -0.1232 C   0  0  0  0  0  0  0  0  0  0  0  0
   -1.5161   -0.3858    1.2386 O   0  0  0  0  0  0  0  0  0  0  0  0
    2.0970    1.1508   -1.2650 H   0  0  0  0  0  0  0  0  0  0  0  0
    3.4875    1.0239   -0.1226 H   0  0  0  0  0  0  0  0  0  0  0  0
    1.8247    1.3688    0.5529 H   0  0  0  0  0  0  0  0  0  0  0  0
    2.4011   -1.0947   -1.1208 H   0  0  0  0  0  0  0  0  0  0  0  0
    2.9628   -1.0850    0.6328 H   0  0  0  0  0  0  0  0  0  0  0  0
    0.4493   -0.0390   -1.4396 H   0  0  0  0  0  0  0  0  0  0  0  0
   -1.1748   -2.3248   -0.1351 H   0  0  0  0  0  0  0  0  0  0  0  0
   -0.7198   -2.1719   -1.9520 H   0  0  0  0  0  0  0  0  0  0  0  0
   -3.0154   -0.8477   -0.7718 H   0  0  0  0  0  0  0  0  0  0  0  0
   -1.9291    0.0402   -2.0185 H   0  0  0  0  0  0  0  0  0  0  0  0
   -1.1940    2.0640    0.9127 H   0  0  0  0  0  0  0  0  0  0  0  0
   -2.1049    1.9573   -0.6743 H   0  0  0  0  0  0  0  0  0  0  0  0
   -0.2607    1.9457   -0.6391 H   0  0  0  0  0  0  0  0  0  0  0  0
   -1.5595    0.3597    1.8720 H   0  0  0  0  0  0  0  0  0  0  0  0
  1  2  1  0
  2  3  1  0
  3  4  1  0
  4  5  1  0
  5  6  1  0
  6  7  1  0
  7  8  1  0
  7  9  1  0
  7  4  1  0
  1 10  1  0
  1 11  1  0
  1 12  1  0
  2 13  1  0
  2 14  1  0
  4 15  1  0
  5 16  1  0
  5 17  1  0
  6 18  1  0
  6 19  1  0
  8 20  1  0
  8 21  1  0
  8 22  1  0
  9 23  1  0
M  END
