
     RDKit          3D

 19 18  0  0  0  0  0  0  0  0999 V2000
   -1.9116   -1.1807   -0.2625 C   0  0  0  0  0  0  0  0  0  0  0  0
   -1.5190   -0.1831    0.7721 C   0  0  0  0  0  0  0  0  0  0  0  0
   -0.1813    0.1194    0.8116 O   0  0  0  0  0  0  0  0  0  0  0  0
    0.3393    0.6458   -0.3340 C   0  0  0  0  0  0  0  0  0  0  0  0
    0.9137    2.0310   -0.0102 C   0  0  0  0  0  0  0  0  0  0  0  0
    1.5074   -0.1540   -0.8376 C   0  0  0  0  0  0  0  0  0  0  0  0
    2.1073    0.1932   -1.8872 O   0  0  0  0  0  0  0  0  0  0  0  0
    1.9709   -1.3410   -0.1297 C   0  0  0  0  0  0  0  0  0  0  0  0
    1.3799   -1.6977    0.9198 O   0  0  0  0  0  0  0  0  0  0  0  0
   -1.1837   -2.0067   -0.3766 H   0  0  0  0  0  0  0  0  0  0  0  0
   -2.8603   -1.6776    0.0982 H   0  0  0  0  0  0  0  0  0  0  0  0
   -2.1895   -0.7326   -1.2427 H   0  0  0  0  0  0  0  0  0  0  0  0
   -1.8013   -0.5908    1.7698 H   0  0  0  0  0  0  0  0  0  0  0  0
   -2.1573    0.7273    0.6198 H   0  0  0  0  0  0  0  0  0  0  0  0
   -0.3627    0.7725   -1.1656 H   0  0  0  0  0  0  0  0  0  0  0  0
    0.0669    2.6878    0.2617 H   0  0  0  0  0  0  0  0  0  0  0  0
    1.5250    1.8909    0.9205 H   0  0  0  0  0  0  0  0  0  0  0  0
    1.5460    2.4104   -0.8125 H   0  0  0  0  0  0  0  0  0  0  0  0
    2.8102   -1.9144   -0.4930 H   0  0  0  0  0  0  0  0  0  0  0  0
  1  2  1  0
  2  3  1  0
  3  4  1  0
  4  5  1  0
  4  6  1  0
  6  7  2  0
  6  8  1  0
  8  9  2  0
  1 10  1  0
  1 11  1  0
  1 12  1  0
  2 13  1  0
  2 14  1  0
  4 15  1  0
  5 16  1  0
  5 17  1  0
  5 18  1  0
  8 19  1  0
M  END
