
     RDKit          3D

 18 18  0  0  0  0  0  0  0  0999 V2000
    2.2904   -0.2543   -0.5404 C   0  0  0  0  0  0  0  0  0  0  0  0
    1.8867    0.3795    0.7729 C   0  0  0  0  0  0  0  0  0  0  0  0
    0.6460   -0.0338    1.1852 O   0  0  0  0  0  0  0  0  0  0  0  0
   -0.3226    0.2981    0.2517 C   0  0  0  0  0  0  0  0  0  0  0  0
   -0.9557   -1.0097   -0.1697 C   0  0  0  0  0  0  0  0  0  0  0  0
   -2.2573   -0.7952   -0.2695 C   0  0  0  0  0  0  0  0  0  0  0  0
   -2.4811    0.6263    0.0780 C   0  0  0  0  0  0  0  0  0  0  0  0
   -1.3988    0.9390    0.8792 O   0  0  0  0  0  0  0  0  0  0  0  0
    2.1294    0.4614   -1.3934 H   0  0  0  0  0  0  0  0  0  0  0  0
    3.4088   -0.3963   -0.5099 H   0  0  0  0  0  0  0  0  0  0  0  0
    1.8064   -1.2238   -0.6964 H   0  0  0  0  0  0  0  0  0  0  0  0
    1.8696    1.4978    0.6648 H   0  0  0  0  0  0  0  0  0  0  0  0
    2.6400    0.1773    1.5744 H   0  0  0  0  0  0  0  0  0  0  0  0
    0.0445    0.8156   -0.6289 H   0  0  0  0  0  0  0  0  0  0  0  0
   -0.4597   -1.9440   -0.3569 H   0  0  0  0  0  0  0  0  0  0  0  0
   -3.0153   -1.5466   -0.5583 H   0  0  0  0  0  0  0  0  0  0  0  0
   -3.4546    0.7974    0.5747 H   0  0  0  0  0  0  0  0  0  0  0  0
   -2.3768    1.2111   -0.8576 H   0  0  0  0  0  0  0  0  0  0  0  0
  1  2  1  0
  2  3  1  0
  3  4  1  0
  4  5  1  0
  5  6  2  0
  6  7  1  0
  7  8  1  0
  8  4  1  0
  1  9  1  0
  1 10  1  0
  1 11  1  0
  2 12  1  0
  2 13  1  0
  4 14  1  0
  5 15  1  0
  6 16  1  0
  7 17  1  0
  7 18  1  0
M  END
