
     RDKit          3D

 19 19  0  0  0  0  0  0  0  0999 V2000
   -2.7887   -0.4811   -0.9630 C   0  0  0  0  0  0  0  0  0  0  0  0
   -2.4827    0.0828    0.3853 C   0  0  0  0  0  0  0  0  0  0  0  0
   -1.2321    0.6950    0.4874 O   0  0  0  0  0  0  0  0  0  0  0  0
   -0.0215    0.0605    0.2690 C   0  0  0  0  0  0  0  0  0  0  0  0
   -0.0542   -1.1530   -0.0432 O   0  0  0  0  0  0  0  0  0  0  0  0
    1.2182    0.8433    0.4158 C   0  0  0  0  0  0  0  0  0  0  0  0
    2.3553    0.1584    1.1976 C   0  0  0  0  0  0  0  0  0  0  0  0
    2.4570    0.4456   -0.2986 C   0  0  0  0  0  0  0  0  0  0  0  0
    2.5209   -0.6632   -1.1027 O   0  0  0  0  0  0  0  0  0  0  0  0
   -3.6573    0.0803   -1.4103 H   0  0  0  0  0  0  0  0  0  0  0  0
   -3.0645   -1.5590   -0.9050 H   0  0  0  0  0  0  0  0  0  0  0  0
   -1.9716   -0.4001   -1.6925 H   0  0  0  0  0  0  0  0  0  0  0  0
   -2.6259   -0.7182    1.1661 H   0  0  0  0  0  0  0  0  0  0  0  0
   -3.2464    0.8659    0.6632 H   0  0  0  0  0  0  0  0  0  0  0  0
    1.1023    1.8911    0.6919 H   0  0  0  0  0  0  0  0  0  0  0  0
    2.9837    0.7789    1.8642 H   0  0  0  0  0  0  0  0  0  0  0  0
    2.1672   -0.9120    1.4906 H   0  0  0  0  0  0  0  0  0  0  0  0
    3.1445    1.2744   -0.6099 H   0  0  0  0  0  0  0  0  0  0  0  0
    3.1958   -1.2898   -0.7135 H   0  0  0  0  0  0  0  0  0  0  0  0
  1  2  1  0
  2  3  1  0
  3  4  1  0
  4  5  2  0
  4  6  1  0
  6  7  1  0
  7  8  1  0
  8  9  1  0
  8  6  1  0
  1 10  1  0
  1 11  1  0
  1 12  1  0
  2 13  1  0
  2 14  1  0
  6 15  1  0
  7 16  1  0
  7 17  1  0
  8 18  1  0
  9 19  1  0
M  END
