
     RDKit          3D

 20 20  0  0  0  0  0  0  0  0999 V2000
   -2.9174    0.1476    0.1847 C   0  0  0  0  0  0  0  0  0  0  0  0
   -2.1374   -1.1434   -0.0879 C   0  0  0  0  0  0  0  0  0  0  0  0
   -0.9216   -0.8735   -0.6759 O   0  0  0  0  0  0  0  0  0  0  0  0
   -0.1065   -0.0706    0.1101 C   0  0  0  0  0  0  0  0  0  0  0  0
    1.2169    0.2189   -0.5383 C   0  0  0  0  0  0  0  0  0  0  0  0
    2.1184    1.1047    0.3272 C   0  0  0  0  0  0  0  0  0  0  0  0
    2.4834   -0.3071   -0.0177 C   0  0  0  0  0  0  0  0  0  0  0  0
    3.5411   -0.4106   -0.9329 O   0  0  0  0  0  0  0  0  0  0  0  0
   -2.5691    0.9196   -0.5213 H   0  0  0  0  0  0  0  0  0  0  0  0
   -4.0022   -0.0146   -0.0163 H   0  0  0  0  0  0  0  0  0  0  0  0
   -2.8314    0.4260    1.2395 H   0  0  0  0  0  0  0  0  0  0  0  0
   -2.0743   -1.7432    0.8360 H   0  0  0  0  0  0  0  0  0  0  0  0
   -2.7421   -1.7246   -0.8081 H   0  0  0  0  0  0  0  0  0  0  0  0
   -0.0002   -0.4413    1.1498 H   0  0  0  0  0  0  0  0  0  0  0  0
   -0.6356    0.9172    0.1992 H   0  0  0  0  0  0  0  0  0  0  0  0
    1.1346    0.4799   -1.6146 H   0  0  0  0  0  0  0  0  0  0  0  0
    1.8490    1.2824    1.3672 H   0  0  0  0  0  0  0  0  0  0  0  0
    2.6357    1.9456   -0.2068 H   0  0  0  0  0  0  0  0  0  0  0  0
    2.5116   -1.0587    0.8073 H   0  0  0  0  0  0  0  0  0  0  0  0
    3.4469    0.3458   -1.5894 H   0  0  0  0  0  0  0  0  0  0  0  0
  1  2  1  0
  2  3  1  0
  3  4  1  0
  4  5  1  0
  5  6  1  0
  6  7  1  0
  7  8  1  0
  7  5  1  0
  1  9  1  0
  1 10  1  0
  1 11  1  0
  2 12  1  0
  2 13  1  0
  4 14  1  0
  4 15  1  0
  5 16  1  0
  6 17  1  0
  6 18  1  0
  7 19  1  0
  8 20  1  0
M  END
