
     RDKit          3D

 25 25  0  0  0  0  0  0  0  0999 V2000
    3.2478    0.3334    0.2209 C   0  0  0  0  0  0  0  0  0  0  0  0
    2.3317   -0.6193    0.9195 C   0  0  0  0  0  0  0  0  0  0  0  0
    0.9930   -0.2273    0.8835 O   0  0  0  0  0  0  0  0  0  0  0  0
    0.5292   -0.1272   -0.4278 C   0  0  0  0  0  0  0  0  0  0  0  0
   -0.0129    1.2537   -0.7199 C   0  0  0  0  0  0  0  0  0  0  0  0
   -1.5007    1.2011   -0.4031 C   0  0  0  0  0  0  0  0  0  0  0  0
   -1.7543   -0.2019    0.1030 C   0  0  0  0  0  0  0  0  0  0  0  0
   -3.1474   -0.6155   -0.2720 C   0  0  0  0  0  0  0  0  0  0  0  0
   -0.6889   -1.0376   -0.5753 C   0  0  0  0  0  0  0  0  0  0  0  0
    2.6501    1.0002   -0.4563 H   0  0  0  0  0  0  0  0  0  0  0  0
    3.9512   -0.2490   -0.4082 H   0  0  0  0  0  0  0  0  0  0  0  0
    3.8365    0.9392    0.9439 H   0  0  0  0  0  0  0  0  0  0  0  0
    2.3716   -1.6079    0.4107 H   0  0  0  0  0  0  0  0  0  0  0  0
    2.6719   -0.7047    1.9687 H   0  0  0  0  0  0  0  0  0  0  0  0
    1.3166   -0.3795   -1.1389 H   0  0  0  0  0  0  0  0  0  0  0  0
    0.1583    1.4835   -1.7825 H   0  0  0  0  0  0  0  0  0  0  0  0
    0.4695    1.9721   -0.0231 H   0  0  0  0  0  0  0  0  0  0  0  0
   -2.1134    1.3244   -1.3226 H   0  0  0  0  0  0  0  0  0  0  0  0
   -1.7797    1.9122    0.3987 H   0  0  0  0  0  0  0  0  0  0  0  0
   -1.6051   -0.2941    1.1907 H   0  0  0  0  0  0  0  0  0  0  0  0
   -3.8261    0.2234   -0.0448 H   0  0  0  0  0  0  0  0  0  0  0  0
   -3.1736   -0.8400   -1.3583 H   0  0  0  0  0  0  0  0  0  0  0  0
   -3.4858   -1.5080    0.3072 H   0  0  0  0  0  0  0  0  0  0  0  0
   -0.9181   -1.2733   -1.6141 H   0  0  0  0  0  0  0  0  0  0  0  0
   -0.5214   -1.9580    0.0175 H   0  0  0  0  0  0  0  0  0  0  0  0
  1  2  1  0
  2  3  1  0
  3  4  1  0
  4  5  1  0
  5  6  1  0
  6  7  1  0
  7  8  1  0
  7  9  1  0
  9  4  1  0
  1 10  1  0
  1 11  1  0
  1 12  1  0
  2 13  1  0
  2 14  1  0
  4 15  1  0
  5 16  1  0
  5 17  1  0
  6 18  1  0
  6 19  1  0
  7 20  1  0
  8 21  1  0
  8 22  1  0
  8 23  1  0
  9 24  1  0
  9 25  1  0
M  END
