
     RDKit          3D

 23 23  0  0  0  0  0  0  0  0999 V2000
    2.7093   -1.1474    1.4868 C   0  0  0  0  0  0  0  0  0  0  0  0
    2.7054    0.3305    1.1882 C   0  0  0  0  0  0  0  0  0  0  0  0
    2.1506    0.6458   -0.0320 O   0  0  0  0  0  0  0  0  0  0  0  0
    0.8289    0.2017   -0.0416 C   0  0  0  0  0  0  0  0  0  0  0  0
    0.1361    0.5031   -1.3417 C   0  0  0  0  0  0  0  0  0  0  0  0
   -1.1403    0.0581   -1.3139 O   0  0  0  0  0  0  0  0  0  0  0  0
   -2.0019    0.5545   -0.3941 C   0  0  0  0  0  0  0  0  0  0  0  0
   -3.4673    0.4861   -0.4938 C   0  0  0  0  0  0  0  0  0  0  0  0
   -2.8204   -0.5594    0.3389 C   0  0  0  0  0  0  0  0  0  0  0  0
    3.6769   -1.3929    1.9961 H   0  0  0  0  0  0  0  0  0  0  0  0
    2.6363   -1.7055    0.5300 H   0  0  0  0  0  0  0  0  0  0  0  0
    1.8600   -1.4266    2.1426 H   0  0  0  0  0  0  0  0  0  0  0  0
    3.7586    0.7118    1.1919 H   0  0  0  0  0  0  0  0  0  0  0  0
    2.1742    0.8656    2.0071 H   0  0  0  0  0  0  0  0  0  0  0  0
    0.8085   -0.9194    0.0767 H   0  0  0  0  0  0  0  0  0  0  0  0
    0.2455    0.6454    0.7850 H   0  0  0  0  0  0  0  0  0  0  0  0
    0.6787   -0.1041   -2.1264 H   0  0  0  0  0  0  0  0  0  0  0  0
    0.2687    1.5611   -1.6282 H   0  0  0  0  0  0  0  0  0  0  0  0
   -1.5786    1.3261    0.2891 H   0  0  0  0  0  0  0  0  0  0  0  0
   -3.9854    0.1727   -1.4274 H   0  0  0  0  0  0  0  0  0  0  0  0
   -4.0417    1.2563    0.0604 H   0  0  0  0  0  0  0  0  0  0  0  0
   -2.8079   -0.5023    1.4364 H   0  0  0  0  0  0  0  0  0  0  0  0
   -2.7943   -1.5613   -0.0858 H   0  0  0  0  0  0  0  0  0  0  0  0
  1  2  1  0
  2  3  1  0
  3  4  1  0
  4  5  1  0
  5  6  1  0
  6  7  1  0
  7  8  1  0
  8  9  1  0
  9  7  1  0
  1 10  1  0
  1 11  1  0
  1 12  1  0
  2 13  1  0
  2 14  1  0
  4 15  1  0
  4 16  1  0
  5 17  1  0
  5 18  1  0
  7 19  1  0
  8 20  1  0
  8 21  1  0
  9 22  1  0
  9 23  1  0
M  END
