
     RDKit          3D

 23 23  0  0  0  0  0  0  0  0999 V2000
    2.9133    0.9833    0.5683 C   0  0  0  0  0  0  0  0  0  0  0  0
    2.3522    0.5416   -0.7592 C   0  0  0  0  0  0  0  0  0  0  0  0
    0.9913    0.3600   -0.6237 O   0  0  0  0  0  0  0  0  0  0  0  0
    0.6482   -0.5894    0.3144 C   0  0  0  0  0  0  0  0  0  0  0  0
   -0.3071    0.0378    1.3348 C   0  0  0  0  0  0  0  0  0  0  0  0
   -1.4605   -0.5459    0.5487 C   0  0  0  0  0  0  0  0  0  0  0  0
   -2.0428    0.3175   -0.3512 O   0  0  0  0  0  0  0  0  0  0  0  0
   -3.4148    0.3690   -0.2660 C   0  0  0  0  0  0  0  0  0  0  0  0
   -0.4825   -1.4898   -0.1429 C   0  0  0  0  0  0  0  0  0  0  0  0
    3.5823    0.2121    1.0160 H   0  0  0  0  0  0  0  0  0  0  0  0
    3.4407    1.9514    0.4145 H   0  0  0  0  0  0  0  0  0  0  0  0
    2.1195    1.1809    1.3283 H   0  0  0  0  0  0  0  0  0  0  0  0
    2.8683   -0.3535   -1.1576 H   0  0  0  0  0  0  0  0  0  0  0  0
    2.4907    1.3397   -1.5364 H   0  0  0  0  0  0  0  0  0  0  0  0
    1.4735   -1.0921    0.8451 H   0  0  0  0  0  0  0  0  0  0  0  0
   -0.2172   -0.3808    2.3487 H   0  0  0  0  0  0  0  0  0  0  0  0
   -0.3002    1.1389    1.3434 H   0  0  0  0  0  0  0  0  0  0  0  0
   -2.1946   -1.0505    1.1864 H   0  0  0  0  0  0  0  0  0  0  0  0
   -3.8237   -0.6595   -0.4638 H   0  0  0  0  0  0  0  0  0  0  0  0
   -3.8032    0.6589    0.7206 H   0  0  0  0  0  0  0  0  0  0  0  0
   -3.7589    1.0872   -1.0613 H   0  0  0  0  0  0  0  0  0  0  0  0
   -0.4623   -2.5089    0.2807 H   0  0  0  0  0  0  0  0  0  0  0  0
   -0.6122   -1.5079   -1.2431 H   0  0  0  0  0  0  0  0  0  0  0  0
  1  2  1  0
  2  3  1  0
  3  4  1  0
  4  5  1  0
  5  6  1  0
  6  7  1  0
  7  8  1  0
  6  9  1  0
  9  4  1  0
  1 10  1  0
  1 11  1  0
  1 12  1  0
  2 13  1  0
  2 14  1  0
  4 15  1  0
  5 16  1  0
  5 17  1  0
  6 18  1  0
  8 19  1  0
  8 20  1  0
  8 21  1  0
  9 22  1  0
  9 23  1  0
M  END
