
     RDKit          3D

 25 25  0  0  0  0  0  0  0  0999 V2000
    3.2726   -0.5787    0.0760 C   0  0  0  0  0  0  0  0  0  0  0  0
    2.9276    0.8769    0.1937 C   0  0  0  0  0  0  0  0  0  0  0  0
    1.7482    1.1009    0.8921 O   0  0  0  0  0  0  0  0  0  0  0  0
    0.6925    0.4680    0.2374 C   0  0  0  0  0  0  0  0  0  0  0  0
   -0.6181    0.6656    0.9347 C   0  0  0  0  0  0  0  0  0  0  0  0
   -1.6809   -0.0621    0.1365 C   0  0  0  0  0  0  0  0  0  0  0  0
   -1.8759    0.3779   -1.2830 C   0  0  0  0  0  0  0  0  0  0  0  0
   -2.9765   -0.4397    0.8454 C   0  0  0  0  0  0  0  0  0  0  0  0
   -1.9331   -1.4643    0.5493 C   0  0  0  0  0  0  0  0  0  0  0  0
    3.1866   -1.1189    1.0413 H   0  0  0  0  0  0  0  0  0  0  0  0
    4.3347   -0.6236   -0.3008 H   0  0  0  0  0  0  0  0  0  0  0  0
    2.6554   -1.0126   -0.7298 H   0  0  0  0  0  0  0  0  0  0  0  0
    2.7298    1.2402   -0.8570 H   0  0  0  0  0  0  0  0  0  0  0  0
    3.7605    1.4991    0.5602 H   0  0  0  0  0  0  0  0  0  0  0  0
    0.6984    0.7860   -0.8005 H   0  0  0  0  0  0  0  0  0  0  0  0
    0.9207   -0.6279    0.2779 H   0  0  0  0  0  0  0  0  0  0  0  0
   -0.5466    0.1959    1.9429 H   0  0  0  0  0  0  0  0  0  0  0  0
   -0.8894    1.7263    1.0689 H   0  0  0  0  0  0  0  0  0  0  0  0
   -1.2153    1.2660   -1.4962 H   0  0  0  0  0  0  0  0  0  0  0  0
   -1.7338   -0.4261   -2.0237 H   0  0  0  0  0  0  0  0  0  0  0  0
   -2.9166    0.7724   -1.4430 H   0  0  0  0  0  0  0  0  0  0  0  0
   -3.1073   -0.0090    1.8401 H   0  0  0  0  0  0  0  0  0  0  0  0
   -3.8985   -0.5209    0.2433 H   0  0  0  0  0  0  0  0  0  0  0  0
   -1.4061   -1.8591    1.4380 H   0  0  0  0  0  0  0  0  0  0  0  0
   -2.1288   -2.2325   -0.2144 H   0  0  0  0  0  0  0  0  0  0  0  0
  1  2  1  0
  2  3  1  0
  3  4  1  0
  4  5  1  0
  5  6  1  0
  6  7  1  0
  6  8  1  0
  8  9  1  0
  9  6  1  0
  1 10  1  0
  1 11  1  0
  1 12  1  0
  2 13  1  0
  2 14  1  0
  4 15  1  0
  4 16  1  0
  5 17  1  0
  5 18  1  0
  7 19  1  0
  7 20  1  0
  7 21  1  0
  8 22  1  0
  8 23  1  0
  9 24  1  0
  9 25  1  0
M  END
