
     RDKit          3D

 21 22  0  0  0  0  0  0  0  0999 V2000
    2.6021    0.5203    0.0559 C   0  0  0  0  0  0  0  0  0  0  0  0
    1.7780   -0.0598   -1.0898 C   0  0  0  0  0  0  0  0  0  0  0  0
    0.4905    0.4306   -1.1122 O   0  0  0  0  0  0  0  0  0  0  0  0
   -0.2155    0.1492    0.0516 C   0  0  0  0  0  0  0  0  0  0  0  0
   -0.4292   -1.2810    0.4594 C   0  0  0  0  0  0  0  0  0  0  0  0
   -1.9178   -1.0659    0.6458 C   0  0  0  0  0  0  0  0  0  0  0  0
   -1.7434    0.2804   -0.0252 C   0  0  0  0  0  0  0  0  0  0  0  0
   -2.2479    0.4857   -1.2951 O   0  0  0  0  0  0  0  0  0  0  0  0
   -0.9467    1.2632    0.7015 C   0  0  0  0  0  0  0  0  0  0  0  0
    3.3411    1.2412   -0.3933 H   0  0  0  0  0  0  0  0  0  0  0  0
    1.9445    1.0941    0.7453 H   0  0  0  0  0  0  0  0  0  0  0  0
    3.1585   -0.2831    0.6001 H   0  0  0  0  0  0  0  0  0  0  0  0
    2.2469    0.1935   -2.0636 H   0  0  0  0  0  0  0  0  0  0  0  0
    1.7503   -1.1837   -1.0047 H   0  0  0  0  0  0  0  0  0  0  0  0
    0.0164   -1.5858    1.4214 H   0  0  0  0  0  0  0  0  0  0  0  0
   -0.2054   -1.9610   -0.4012 H   0  0  0  0  0  0  0  0  0  0  0  0
   -2.5688   -1.7801    0.1163 H   0  0  0  0  0  0  0  0  0  0  0  0
   -2.2265   -0.9056    1.7071 H   0  0  0  0  0  0  0  0  0  0  0  0
   -3.0799    0.9989   -1.2652 H   0  0  0  0  0  0  0  0  0  0  0  0
   -0.7588    2.2616    0.3203 H   0  0  0  0  0  0  0  0  0  0  0  0
   -0.9885    1.1872    1.8256 H   0  0  0  0  0  0  0  0  0  0  0  0
  1  2  1  0
  2  3  1  0
  3  4  1  0
  4  5  1  0
  5  6  1  0
  6  7  1  0
  7  8  1  0
  7  9  1  0
  7  4  1  0
  9  4  1  0
  1 10  1  0
  1 11  1  0
  1 12  1  0
  2 13  1  0
  2 14  1  0
  5 15  1  0
  5 16  1  0
  6 17  1  0
  6 18  1  0
  8 19  1  0
  9 20  1  0
  9 21  1  0
M  END
