
     RDKit          3D

 19 18  0  0  0  0  0  0  0  0999 V2000
   -3.3855    0.0838   -0.7082 C   0  0  0  0  0  0  0  0  0  0  0  0
   -2.0604    0.6348   -0.1838 C   0  0  0  0  0  0  0  0  0  0  0  0
   -1.0371   -0.3025   -0.3295 O   0  0  0  0  0  0  0  0  0  0  0  0
    0.1222    0.2610    0.1622 C   0  0  0  0  0  0  0  0  0  0  0  0
    1.3136   -0.6519    0.0646 C   0  0  0  0  0  0  0  0  0  0  0  0
    2.5168    0.0186    0.6091 C   0  0  0  0  0  0  0  0  0  0  0  0
    2.4074    1.1817    1.0539 O   0  0  0  0  0  0  0  0  0  0  0  0
    3.8049   -0.6282    0.6412 C   0  0  0  0  0  0  0  0  0  0  0  0
    3.9215   -1.7908    0.1983 O   0  0  0  0  0  0  0  0  0  0  0  0
   -3.1756   -0.8707   -1.2660 H   0  0  0  0  0  0  0  0  0  0  0  0
   -3.8798    0.7919   -1.4014 H   0  0  0  0  0  0  0  0  0  0  0  0
   -4.0592   -0.2007    0.1191 H   0  0  0  0  0  0  0  0  0  0  0  0
   -1.8157    1.5613   -0.7191 H   0  0  0  0  0  0  0  0  0  0  0  0
   -2.2373    0.8946    0.8929 H   0  0  0  0  0  0  0  0  0  0  0  0
    0.3297    1.2679   -0.2504 H   0  0  0  0  0  0  0  0  0  0  0  0
   -0.0604    0.4368    1.2634 H   0  0  0  0  0  0  0  0  0  0  0  0
    1.4877   -1.0068   -0.9724 H   0  0  0  0  0  0  0  0  0  0  0  0
    1.1483   -1.5575    0.6842 H   0  0  0  0  0  0  0  0  0  0  0  0
    4.6589   -0.1234    1.0393 H   0  0  0  0  0  0  0  0  0  0  0  0
  1  2  1  0
  2  3  1  0
  3  4  1  0
  4  5  1  0
  5  6  1  0
  6  7  2  0
  6  8  1  0
  8  9  2  0
  1 10  1  0
  1 11  1  0
  1 12  1  0
  2 13  1  0
  2 14  1  0
  4 15  1  0
  4 16  1  0
  5 17  1  0
  5 18  1  0
  8 19  1  0
M  END
