
     RDKit          3D

 23 23  0  0  0  0  0  0  0  0999 V2000
    3.6342    0.5992   -0.1141 C   0  0  0  0  0  0  0  0  0  0  0  0
    2.4970   -0.3736   -0.1483 C   0  0  0  0  0  0  0  0  0  0  0  0
    1.2749    0.2332    0.1910 O   0  0  0  0  0  0  0  0  0  0  0  0
    0.2822   -0.7408    0.1328 C   0  0  0  0  0  0  0  0  0  0  0  0
   -1.0526   -0.1531    0.4862 C   0  0  0  0  0  0  0  0  0  0  0  0
   -1.4488    0.9715   -0.4668 C   0  0  0  0  0  0  0  0  0  0  0  0
   -2.9559    0.9520   -0.2292 C   0  0  0  0  0  0  0  0  0  0  0  0
   -3.3189   -0.3513   -0.0247 O   0  0  0  0  0  0  0  0  0  0  0  0
   -2.1988   -1.0953    0.2628 C   0  0  0  0  0  0  0  0  0  0  0  0
    4.5760    0.0350   -0.0521 H   0  0  0  0  0  0  0  0  0  0  0  0
    3.5518    1.2754    0.7549 H   0  0  0  0  0  0  0  0  0  0  0  0
    3.6388    1.2245   -1.0336 H   0  0  0  0  0  0  0  0  0  0  0  0
    2.6470   -1.2074    0.5473 H   0  0  0  0  0  0  0  0  0  0  0  0
    2.3611   -0.8066   -1.1628 H   0  0  0  0  0  0  0  0  0  0  0  0
    0.5066   -1.5149    0.8962 H   0  0  0  0  0  0  0  0  0  0  0  0
    0.3038   -1.2192   -0.8568 H   0  0  0  0  0  0  0  0  0  0  0  0
   -1.0531    0.2269    1.5084 H   0  0  0  0  0  0  0  0  0  0  0  0
   -0.9925    1.9232   -0.2214 H   0  0  0  0  0  0  0  0  0  0  0  0
   -1.2954    0.6364   -1.5134 H   0  0  0  0  0  0  0  0  0  0  0  0
   -3.5035    1.4468   -1.0507 H   0  0  0  0  0  0  0  0  0  0  0  0
   -3.1062    1.4931    0.7503 H   0  0  0  0  0  0  0  0  0  0  0  0
   -2.3408   -1.8106    1.0959 H   0  0  0  0  0  0  0  0  0  0  0  0
   -2.0071   -1.7443   -0.6430 H   0  0  0  0  0  0  0  0  0  0  0  0
  1  2  1  0
  2  3  1  0
  3  4  1  0
  4  5  1  0
  5  6  1  0
  6  7  1  0
  7  8  1  0
  8  9  1  0
  9  5  1  0
  1 10  1  0
  1 11  1  0
  1 12  1  0
  2 13  1  0
  2 14  1  0
  4 15  1  0
  4 16  1  0
  5 17  1  0
  6 18  1  0
  6 19  1  0
  7 20  1  0
  7 21  1  0
  9 22  1  0
  9 23  1  0
M  END
