
     RDKit          3D

 19 19  0  0  0  0  0  0  0  0999 V2000
    2.8209    0.0148   -0.0497 C   0  0  0  0  0  0  0  0  0  0  0  0
    1.4026    0.2820    0.4088 C   0  0  0  0  0  0  0  0  0  0  0  0
    0.4939   -0.2391   -0.5001 O   0  0  0  0  0  0  0  0  0  0  0  0
   -0.8127   -0.0447   -0.1677 C   0  0  0  0  0  0  0  0  0  0  0  0
   -1.2957   -0.6242    1.1276 C   0  0  0  0  0  0  0  0  0  0  0  0
   -1.7199   -0.4887   -1.3073 C   0  0  0  0  0  0  0  0  0  0  0  0
   -1.5290    0.7911   -1.8308 O   0  0  0  0  0  0  0  0  0  0  0  0
   -1.3632    1.2643   -0.5378 C   0  0  0  0  0  0  0  0  0  0  0  0
   -1.6098    2.3617   -0.0075 O   0  0  0  0  0  0  0  0  0  0  0  0
    3.4914    0.2826    0.7843 H   0  0  0  0  0  0  0  0  0  0  0  0
    3.0976    0.6109   -0.9376 H   0  0  0  0  0  0  0  0  0  0  0  0
    2.9540   -1.0650   -0.2538 H   0  0  0  0  0  0  0  0  0  0  0  0
    1.2511    1.3832    0.4693 H   0  0  0  0  0  0  0  0  0  0  0  0
    1.2898   -0.2098    1.3960 H   0  0  0  0  0  0  0  0  0  0  0  0
   -1.0849   -1.7107    1.1115 H   0  0  0  0  0  0  0  0  0  0  0  0
   -2.4116   -0.5267    1.1253 H   0  0  0  0  0  0  0  0  0  0  0  0
   -0.9336   -0.1061    2.0232 H   0  0  0  0  0  0  0  0  0  0  0  0
   -1.2810   -1.3274   -1.8786 H   0  0  0  0  0  0  0  0  0  0  0  0
   -2.7599   -0.6481   -0.9749 H   0  0  0  0  0  0  0  0  0  0  0  0
  1  2  1  0
  2  3  1  0
  3  4  1  0
  4  5  1  0
  4  6  1  0
  6  7  1  0
  7  8  1  0
  8  9  2  0
  8  4  1  0
  1 10  1  0
  1 11  1  0
  1 12  1  0
  2 13  1  0
  2 14  1  0
  5 15  1  0
  5 16  1  0
  5 17  1  0
  6 18  1  0
  6 19  1  0
M  END
