
     RDKit          3D

 23 23  0  0  0  0  0  0  0  0999 V2000
    3.1089   -0.5436    0.1660 C   0  0  0  0  0  0  0  0  0  0  0  0
    1.5922   -0.5473    0.4017 C   0  0  0  0  0  0  0  0  0  0  0  0
    1.0793    0.4849   -0.3567 O   0  0  0  0  0  0  0  0  0  0  0  0
   -0.2784    0.6516   -0.2836 C   0  0  0  0  0  0  0  0  0  0  0  0
   -0.6043    1.8996   -1.1169 C   0  0  0  0  0  0  0  0  0  0  0  0
   -1.0429   -0.4874   -0.8561 C   0  0  0  0  0  0  0  0  0  0  0  0
   -2.0201   -0.8461    0.2122 C   0  0  0  0  0  0  0  0  0  0  0  0
   -1.4872   -0.1442    1.4202 C   0  0  0  0  0  0  0  0  0  0  0  0
   -0.7231    0.9146    0.9958 O   0  0  0  0  0  0  0  0  0  0  0  0
    3.4081    0.5305    0.2812 H   0  0  0  0  0  0  0  0  0  0  0  0
    3.6304   -1.2084    0.8538 H   0  0  0  0  0  0  0  0  0  0  0  0
    3.2557   -0.7842   -0.9011 H   0  0  0  0  0  0  0  0  0  0  0  0
    1.1695   -1.5387    0.1903 H   0  0  0  0  0  0  0  0  0  0  0  0
    1.3965   -0.2904    1.4843 H   0  0  0  0  0  0  0  0  0  0  0  0
    0.2030    2.6438   -1.0337 H   0  0  0  0  0  0  0  0  0  0  0  0
   -0.7295    1.6053   -2.1877 H   0  0  0  0  0  0  0  0  0  0  0  0
   -1.6009    2.2976   -0.8070 H   0  0  0  0  0  0  0  0  0  0  0  0
   -0.3700   -1.3256   -1.1238 H   0  0  0  0  0  0  0  0  0  0  0  0
   -1.6447   -0.1840   -1.7563 H   0  0  0  0  0  0  0  0  0  0  0  0
   -3.0617   -0.5395   -0.0221 H   0  0  0  0  0  0  0  0  0  0  0  0
   -2.0230   -1.9408    0.4058 H   0  0  0  0  0  0  0  0  0  0  0  0
   -2.3822    0.1992    2.0155 H   0  0  0  0  0  0  0  0  0  0  0  0
   -0.8755   -0.8469    2.0181 H   0  0  0  0  0  0  0  0  0  0  0  0
  1  2  1  0
  2  3  1  0
  3  4  1  0
  4  5  1  0
  4  6  1  0
  6  7  1  0
  7  8  1  0
  8  9  1  0
  9  4  1  0
  1 10  1  0
  1 11  1  0
  1 12  1  0
  2 13  1  0
  2 14  1  0
  5 15  1  0
  5 16  1  0
  5 17  1  0
  6 18  1  0
  6 19  1  0
  7 20  1  0
  7 21  1  0
  8 22  1  0
  8 23  1  0
M  END
