
     RDKit          3D

 21 20  0  0  0  0  0  0  0  0999 V2000
   -1.5903    1.4985   -0.9277 C   0  0  0  0  0  0  0  0  0  0  0  0
   -2.1290    0.1614   -0.5659 C   0  0  0  0  0  0  0  0  0  0  0  0
   -1.2313   -0.8765   -0.6642 O   0  0  0  0  0  0  0  0  0  0  0  0
   -0.1200   -0.7598    0.1280 C   0  0  0  0  0  0  0  0  0  0  0  0
    0.0846   -1.8949    1.0495 C   0  0  0  0  0  0  0  0  0  0  0  0
   -0.7021   -2.8088    1.0463 O   0  0  0  0  0  0  0  0  0  0  0  0
    1.1506   -0.6557   -0.7218 C   0  0  0  0  0  0  0  0  0  0  0  0
    2.2810   -0.5387    0.0507 O   0  0  0  0  0  0  0  0  0  0  0  0
    2.2833    0.5736    0.8677 C   0  0  0  0  0  0  0  0  0  0  0  0
   -0.5443    1.6752   -0.6913 H   0  0  0  0  0  0  0  0  0  0  0  0
   -2.2055    2.2953   -0.4184 H   0  0  0  0  0  0  0  0  0  0  0  0
   -1.7097    1.7354   -2.0255 H   0  0  0  0  0  0  0  0  0  0  0  0
   -2.6081    0.2218    0.4489 H   0  0  0  0  0  0  0  0  0  0  0  0
   -2.9711   -0.0678   -1.2635 H   0  0  0  0  0  0  0  0  0  0  0  0
   -0.2263    0.2094    0.6911 H   0  0  0  0  0  0  0  0  0  0  0  0
    0.9341   -1.8808    1.7054 H   0  0  0  0  0  0  0  0  0  0  0  0
    1.0567    0.0908   -1.5189 H   0  0  0  0  0  0  0  0  0  0  0  0
    1.2276   -1.6519   -1.2493 H   0  0  0  0  0  0  0  0  0  0  0  0
    2.2141    1.5319    0.3241 H   0  0  0  0  0  0  0  0  0  0  0  0
    1.5297    0.5259    1.6730 H   0  0  0  0  0  0  0  0  0  0  0  0
    3.2760    0.6157    1.4020 H   0  0  0  0  0  0  0  0  0  0  0  0
  1  2  1  0
  2  3  1  0
  3  4  1  0
  4  5  1  0
  5  6  2  0
  4  7  1  0
  7  8  1  0
  8  9  1  0
  1 10  1  0
  1 11  1  0
  1 12  1  0
  2 13  1  0
  2 14  1  0
  4 15  1  0
  5 16  1  0
  7 17  1  0
  7 18  1  0
  9 19  1  0
  9 20  1  0
  9 21  1  0
M  END
