
     RDKit          3D

 23 23  0  0  0  0  0  0  0  0999 V2000
    2.8744    0.1925    0.3705 C   0  0  0  0  0  0  0  0  0  0  0  0
    1.9168    0.5506   -0.7573 C   0  0  0  0  0  0  0  0  0  0  0  0
    0.7932   -0.3070   -0.7446 O   0  0  0  0  0  0  0  0  0  0  0  0
    0.1369   -0.1829    0.4525 C   0  0  0  0  0  0  0  0  0  0  0  0
   -0.2511   -1.4522    1.1482 C   0  0  0  0  0  0  0  0  0  0  0  0
   -1.4022   -0.7899    1.6136 O   0  0  0  0  0  0  0  0  0  0  0  0
   -1.3445   -0.0297    0.4236 C   0  0  0  0  0  0  0  0  0  0  0  0
   -2.0940   -0.7117   -0.6657 C   0  0  0  0  0  0  0  0  0  0  0  0
   -1.8382    1.3741    0.7364 C   0  0  0  0  0  0  0  0  0  0  0  0
    2.6967   -0.8299    0.7603 H   0  0  0  0  0  0  0  0  0  0  0  0
    3.9126    0.2126   -0.0113 H   0  0  0  0  0  0  0  0  0  0  0  0
    2.8210    0.9599    1.1896 H   0  0  0  0  0  0  0  0  0  0  0  0
    2.4394    0.3976   -1.7354 H   0  0  0  0  0  0  0  0  0  0  0  0
    1.6246    1.6027   -0.7093 H   0  0  0  0  0  0  0  0  0  0  0  0
    0.5993    0.5382    1.1481 H   0  0  0  0  0  0  0  0  0  0  0  0
    0.4568   -1.7558    1.9326 H   0  0  0  0  0  0  0  0  0  0  0  0
   -0.4919   -2.3113    0.5014 H   0  0  0  0  0  0  0  0  0  0  0  0
   -3.1191   -0.2394   -0.7143 H   0  0  0  0  0  0  0  0  0  0  0  0
   -2.3037   -1.7809   -0.4011 H   0  0  0  0  0  0  0  0  0  0  0  0
   -1.6692   -0.5968   -1.6719 H   0  0  0  0  0  0  0  0  0  0  0  0
   -1.1315    1.7721    1.5122 H   0  0  0  0  0  0  0  0  0  0  0  0
   -1.7488    2.0493   -0.1256 H   0  0  0  0  0  0  0  0  0  0  0  0
   -2.8774    1.3379    1.1033 H   0  0  0  0  0  0  0  0  0  0  0  0
  1  2  1  0
  2  3  1  0
  3  4  1  0
  4  5  1  0
  5  6  1  0
  6  7  1  0
  7  8  1  0
  7  9  1  0
  7  4  1  0
  1 10  1  0
  1 11  1  0
  1 12  1  0
  2 13  1  0
  2 14  1  0
  4 15  1  0
  5 16  1  0
  5 17  1  0
  8 18  1  0
  8 19  1  0
  8 20  1  0
  9 21  1  0
  9 22  1  0
  9 23  1  0
M  END
