
     RDKit          3D

 21 20  0  0  0  0  0  0  0  0999 V2000
    3.7319    0.2669    0.2686 C   0  0  0  0  0  0  0  0  0  0  0  0
    3.1446   -1.0966    0.0113 C   0  0  0  0  0  0  0  0  0  0  0  0
    1.7715   -1.1396    0.2517 O   0  0  0  0  0  0  0  0  0  0  0  0
    1.1684   -0.2273   -0.5908 C   0  0  0  0  0  0  0  0  0  0  0  0
   -0.2838   -0.2940   -0.3145 C   0  0  0  0  0  0  0  0  0  0  0  0
   -1.4575   -0.3445   -0.0763 C   0  0  0  0  0  0  0  0  0  0  0  0
   -2.9102   -0.3854    0.2224 C   0  0  0  0  0  0  0  0  0  0  0  0
   -3.5438    0.9482   -0.1622 C   0  0  0  0  0  0  0  0  0  0  0  0
   -4.9016    0.8554    0.1379 O   0  0  0  0  0  0  0  0  0  0  0  0
    3.0959    0.8952    0.9254 H   0  0  0  0  0  0  0  0  0  0  0  0
    4.6926    0.1345    0.8082 H   0  0  0  0  0  0  0  0  0  0  0  0
    3.8602    0.7906   -0.6967 H   0  0  0  0  0  0  0  0  0  0  0  0
    3.6197   -1.8692    0.6654 H   0  0  0  0  0  0  0  0  0  0  0  0
    3.3331   -1.3989   -1.0602 H   0  0  0  0  0  0  0  0  0  0  0  0
    1.3829   -0.5666   -1.6433 H   0  0  0  0  0  0  0  0  0  0  0  0
    1.5600    0.7798   -0.4116 H   0  0  0  0  0  0  0  0  0  0  0  0
   -3.0888   -0.5201    1.3148 H   0  0  0  0  0  0  0  0  0  0  0  0
   -3.3304   -1.2065   -0.3727 H   0  0  0  0  0  0  0  0  0  0  0  0
   -3.3844    1.1727   -1.2351 H   0  0  0  0  0  0  0  0  0  0  0  0
   -3.0449    1.7070    0.4979 H   0  0  0  0  0  0  0  0  0  0  0  0
   -5.4154    1.4985   -0.4277 H   0  0  0  0  0  0  0  0  0  0  0  0
  1  2  1  0
  2  3  1  0
  3  4  1  0
  4  5  1  0
  5  6  3  0
  6  7  1  0
  7  8  1  0
  8  9  1  0
  1 10  1  0
  1 11  1  0
  1 12  1  0
  2 13  1  0
  2 14  1  0
  4 15  1  0
  4 16  1  0
  7 17  1  0
  7 18  1  0
  8 19  1  0
  8 20  1  0
  9 21  1  0
M  END
