
     RDKit          3D

 25 24  0  0  0  0  0  0  0  0999 V2000
    3.6745    0.7039   -0.3734 C   0  0  0  0  0  0  0  0  0  0  0  0
    2.5894   -0.0796    0.3242 C   0  0  0  0  0  0  0  0  0  0  0  0
    1.3288    0.2645   -0.1530 O   0  0  0  0  0  0  0  0  0  0  0  0
    0.3921   -0.5074    0.5472 C   0  0  0  0  0  0  0  0  0  0  0  0
   -1.0184   -0.1915    0.0845 C   0  0  0  0  0  0  0  0  0  0  0  0
   -1.9486   -1.0704    0.8993 C   0  0  0  0  0  0  0  0  0  0  0  0
   -1.1256   -0.6340   -1.3502 C   0  0  0  0  0  0  0  0  0  0  0  0
   -1.2817    1.1189    0.3020 O   0  0  0  0  0  0  0  0  0  0  0  0
   -2.5115    1.5749   -0.0576 C   0  0  0  0  0  0  0  0  0  0  0  0
    3.3462    1.7670   -0.4870 H   0  0  0  0  0  0  0  0  0  0  0  0
    4.5512    0.7360    0.3117 H   0  0  0  0  0  0  0  0  0  0  0  0
    3.9310    0.2521   -1.3339 H   0  0  0  0  0  0  0  0  0  0  0  0
    2.6034    0.0895    1.4133 H   0  0  0  0  0  0  0  0  0  0  0  0
    2.7392   -1.1598    0.0561 H   0  0  0  0  0  0  0  0  0  0  0  0
    0.6281   -1.5798    0.4270 H   0  0  0  0  0  0  0  0  0  0  0  0
    0.4784   -0.1930    1.6169 H   0  0  0  0  0  0  0  0  0  0  0  0
   -1.7959   -0.8140    1.9768 H   0  0  0  0  0  0  0  0  0  0  0  0
   -1.5818   -2.1200    0.7477 H   0  0  0  0  0  0  0  0  0  0  0  0
   -2.9792   -0.9321    0.5679 H   0  0  0  0  0  0  0  0  0  0  0  0
   -2.1651   -0.8697   -1.6582 H   0  0  0  0  0  0  0  0  0  0  0  0
   -0.6089    0.0515   -2.0510 H   0  0  0  0  0  0  0  0  0  0  0  0
   -0.5647   -1.6030   -1.4189 H   0  0  0  0  0  0  0  0  0  0  0  0
   -2.7596    1.4668   -1.1288 H   0  0  0  0  0  0  0  0  0  0  0  0
   -3.3258    1.0784    0.5489 H   0  0  0  0  0  0  0  0  0  0  0  0
   -2.5957    2.6507    0.1884 H   0  0  0  0  0  0  0  0  0  0  0  0
  1  2  1  0
  2  3  1  0
  3  4  1  0
  4  5  1  0
  5  6  1  0
  5  7  1  0
  5  8  1  0
  8  9  1  0
  1 10  1  0
  1 11  1  0
  1 12  1  0
  2 13  1  0
  2 14  1  0
  4 15  1  0
  4 16  1  0
  6 17  1  0
  6 18  1  0
  6 19  1  0
  7 20  1  0
  7 21  1  0
  7 22  1  0
  9 23  1  0
  9 24  1  0
  9 25  1  0
M  END
