
     RDKit          3D

 21 22  0  0  0  0  0  0  0  0999 V2000
    3.2466   -0.3241   -0.2651 C   0  0  0  0  0  0  0  0  0  0  0  0
    1.8963    0.1567    0.2798 C   0  0  0  0  0  0  0  0  0  0  0  0
    1.1645    0.7846   -0.6832 O   0  0  0  0  0  0  0  0  0  0  0  0
   -0.0226    1.2908   -0.2607 C   0  0  0  0  0  0  0  0  0  0  0  0
   -0.9689    0.2763    0.2357 C   0  0  0  0  0  0  0  0  0  0  0  0
   -2.4780    0.4988   -0.0174 C   0  0  0  0  0  0  0  0  0  0  0  0
   -2.5855   -1.0042   -0.1351 C   0  0  0  0  0  0  0  0  0  0  0  0
   -1.0897   -1.0611    0.0866 C   0  0  0  0  0  0  0  0  0  0  0  0
   -0.6980   -0.5148    1.3164 O   0  0  0  0  0  0  0  0  0  0  0  0
    3.9554    0.5045   -0.2502 H   0  0  0  0  0  0  0  0  0  0  0  0
    3.6474   -1.1638    0.3476 H   0  0  0  0  0  0  0  0  0  0  0  0
    3.0487   -0.7052   -1.2877 H   0  0  0  0  0  0  0  0  0  0  0  0
    2.0300    0.8302    1.1329 H   0  0  0  0  0  0  0  0  0  0  0  0
    1.3738   -0.7643    0.6484 H   0  0  0  0  0  0  0  0  0  0  0  0
    0.1325    2.0361    0.5950 H   0  0  0  0  0  0  0  0  0  0  0  0
   -0.5101    1.9479   -1.0510 H   0  0  0  0  0  0  0  0  0  0  0  0
   -2.6555    1.0776   -0.9220 H   0  0  0  0  0  0  0  0  0  0  0  0
   -2.9200    0.9214    0.9129 H   0  0  0  0  0  0  0  0  0  0  0  0
   -2.9027   -1.3760   -1.1262 H   0  0  0  0  0  0  0  0  0  0  0  0
   -3.1523   -1.4969    0.6846 H   0  0  0  0  0  0  0  0  0  0  0  0
   -0.5118   -1.9145   -0.2412 H   0  0  0  0  0  0  0  0  0  0  0  0
  1  2  1  0
  2  3  1  0
  3  4  1  0
  4  5  1  0
  5  6  1  0
  6  7  1  0
  7  8  1  0
  8  9  1  0
  8  5  1  0
  9  5  1  0
  1 10  1  0
  1 11  1  0
  1 12  1  0
  2 13  1  0
  2 14  1  0
  4 15  1  0
  4 16  1  0
  6 17  1  0
  6 18  1  0
  7 19  1  0
  7 20  1  0
  8 21  1  0
M  END
