
     RDKit          3D

 25 24  0  0  0  0  0  0  0  0999 V2000
    3.0625    0.0825   -0.0012 C   0  0  0  0  0  0  0  0  0  0  0  0
    1.9734    1.1336   -0.2339 C   0  0  0  0  0  0  0  0  0  0  0  0
    1.0085    1.0965    0.7380 O   0  0  0  0  0  0  0  0  0  0  0  0
    0.3369   -0.0893    0.8503 C   0  0  0  0  0  0  0  0  0  0  0  0
   -0.4100   -0.5257   -0.3729 C   0  0  0  0  0  0  0  0  0  0  0  0
   -1.0768   -1.8406   -0.0598 C   0  0  0  0  0  0  0  0  0  0  0  0
   -1.3859    0.5145   -0.8589 C   0  0  0  0  0  0  0  0  0  0  0  0
   -2.4305    0.8580    0.1606 C   0  0  0  0  0  0  0  0  0  0  0  0
   -1.9848    0.0714   -2.0276 O   0  0  0  0  0  0  0  0  0  0  0  0
    2.9350   -0.6763   -0.8143 H   0  0  0  0  0  0  0  0  0  0  0  0
    2.9323   -0.4390    0.9581 H   0  0  0  0  0  0  0  0  0  0  0  0
    4.0779    0.5242   -0.1327 H   0  0  0  0  0  0  0  0  0  0  0  0
    1.5438    1.0560   -1.2319 H   0  0  0  0  0  0  0  0  0  0  0  0
    2.4942    2.1289   -0.1367 H   0  0  0  0  0  0  0  0  0  0  0  0
   -0.4328    0.0480    1.6622 H   0  0  0  0  0  0  0  0  0  0  0  0
    0.9669   -0.9396    1.1780 H   0  0  0  0  0  0  0  0  0  0  0  0
    0.3223   -0.7026   -1.1843 H   0  0  0  0  0  0  0  0  0  0  0  0
   -1.8861   -1.7500    0.6797 H   0  0  0  0  0  0  0  0  0  0  0  0
   -0.3033   -2.4966    0.3998 H   0  0  0  0  0  0  0  0  0  0  0  0
   -1.4591   -2.3121   -0.9949 H   0  0  0  0  0  0  0  0  0  0  0  0
   -0.8128    1.4404   -1.0677 H   0  0  0  0  0  0  0  0  0  0  0  0
   -1.9769    1.3605    1.0420 H   0  0  0  0  0  0  0  0  0  0  0  0
   -3.0653   -0.0030    0.4435 H   0  0  0  0  0  0  0  0  0  0  0  0
   -3.1076    1.6073   -0.3001 H   0  0  0  0  0  0  0  0  0  0  0  0
   -1.3215   -0.1470   -2.7286 H   0  0  0  0  0  0  0  0  0  0  0  0
  1  2  1  0
  2  3  1  0
  3  4  1  0
  4  5  1  0
  5  6  1  0
  5  7  1  0
  7  8  1  0
  7  9  1  0
  1 10  1  0
  1 11  1  0
  1 12  1  0
  2 13  1  0
  2 14  1  0
  4 15  1  0
  4 16  1  0
  5 17  1  0
  6 18  1  0
  6 19  1  0
  6 20  1  0
  7 21  1  0
  8 22  1  0
  8 23  1  0
  8 24  1  0
  9 25  1  0
M  END
