
     RDKit          3D

 25 24  0  0  0  0  0  0  0  0999 V2000
    3.3102   -0.4224    0.2396 C   0  0  0  0  0  0  0  0  0  0  0  0
    2.8182    0.9924   -0.0140 C   0  0  0  0  0  0  0  0  0  0  0  0
    1.6814    1.0192   -0.8012 O   0  0  0  0  0  0  0  0  0  0  0  0
    0.6453    0.3217   -0.1904 C   0  0  0  0  0  0  0  0  0  0  0  0
   -0.5872    0.3649   -1.0698 C   0  0  0  0  0  0  0  0  0  0  0  0
   -1.6743   -0.4003   -0.3676 C   0  0  0  0  0  0  0  0  0  0  0  0
   -2.9647   -0.4282   -1.1537 C   0  0  0  0  0  0  0  0  0  0  0  0
   -1.9343    0.2268    0.9820 C   0  0  0  0  0  0  0  0  0  0  0  0
   -1.2476   -1.7217   -0.2410 O   0  0  0  0  0  0  0  0  0  0  0  0
    4.3924   -0.3105    0.5372 H   0  0  0  0  0  0  0  0  0  0  0  0
    3.3216   -1.0248   -0.6805 H   0  0  0  0  0  0  0  0  0  0  0  0
    2.7089   -0.8625    1.0510 H   0  0  0  0  0  0  0  0  0  0  0  0
    2.6677    1.4872    0.9675 H   0  0  0  0  0  0  0  0  0  0  0  0
    3.6046    1.5664   -0.5568 H   0  0  0  0  0  0  0  0  0  0  0  0
    0.9707   -0.7375   -0.0650 H   0  0  0  0  0  0  0  0  0  0  0  0
    0.4726    0.7228    0.8191 H   0  0  0  0  0  0  0  0  0  0  0  0
   -0.3127   -0.0654   -2.0360 H   0  0  0  0  0  0  0  0  0  0  0  0
   -0.8460    1.4422   -1.1875 H   0  0  0  0  0  0  0  0  0  0  0  0
   -3.6738   -1.0584   -0.5721 H   0  0  0  0  0  0  0  0  0  0  0  0
   -3.4287    0.5597   -1.2524 H   0  0  0  0  0  0  0  0  0  0  0  0
   -2.8184   -0.9003   -2.1416 H   0  0  0  0  0  0  0  0  0  0  0  0
   -1.4700   -0.4073    1.7608 H   0  0  0  0  0  0  0  0  0  0  0  0
   -1.4850    1.2345    1.0796 H   0  0  0  0  0  0  0  0  0  0  0  0
   -3.0190    0.2985    1.2071 H   0  0  0  0  0  0  0  0  0  0  0  0
   -1.1317   -1.8969    0.7196 H   0  0  0  0  0  0  0  0  0  0  0  0
  1  2  1  0
  2  3  1  0
  3  4  1  0
  4  5  1  0
  5  6  1  0
  6  7  1  0
  6  8  1  0
  6  9  1  0
  1 10  1  0
  1 11  1  0
  1 12  1  0
  2 13  1  0
  2 14  1  0
  4 15  1  0
  4 16  1  0
  5 17  1  0
  5 18  1  0
  7 19  1  0
  7 20  1  0
  7 21  1  0
  8 22  1  0
  8 23  1  0
  8 24  1  0
  9 25  1  0
M  END
