
     RDKit          3D

 23 23  0  0  0  0  0  0  0  0999 V2000
   -3.3193   -0.8824    0.4393 C   0  0  0  0  0  0  0  0  0  0  0  0
   -2.1721   -0.0990   -0.1481 C   0  0  0  0  0  0  0  0  0  0  0  0
   -1.1433    0.0765    0.7666 O   0  0  0  0  0  0  0  0  0  0  0  0
   -0.0771    0.7763    0.2977 C   0  0  0  0  0  0  0  0  0  0  0  0
    0.2390    2.0398    1.0189 C   0  0  0  0  0  0  0  0  0  0  0  0
    1.1183   -0.1450    0.2311 C   0  0  0  0  0  0  0  0  0  0  0  0
    0.7780   -1.2627   -0.6898 O   0  0  0  0  0  0  0  0  0  0  0  0
    1.9097   -0.3352   -0.9438 C   0  0  0  0  0  0  0  0  0  0  0  0
    3.1950   -1.0867   -0.8550 C   0  0  0  0  0  0  0  0  0  0  0  0
   -4.2826   -0.6668   -0.0572 H   0  0  0  0  0  0  0  0  0  0  0  0
   -3.4094   -0.5513    1.5134 H   0  0  0  0  0  0  0  0  0  0  0  0
   -3.1549   -1.9824    0.3971 H   0  0  0  0  0  0  0  0  0  0  0  0
   -1.7418   -0.7498   -0.9656 H   0  0  0  0  0  0  0  0  0  0  0  0
   -2.4742    0.8313   -0.6390 H   0  0  0  0  0  0  0  0  0  0  0  0
   -0.3018    1.0569   -0.7738 H   0  0  0  0  0  0  0  0  0  0  0  0
    1.2865    2.3261    0.7601 H   0  0  0  0  0  0  0  0  0  0  0  0
    0.2172    1.9507    2.1215 H   0  0  0  0  0  0  0  0  0  0  0  0
   -0.3965    2.8690    0.6424 H   0  0  0  0  0  0  0  0  0  0  0  0
    1.4554   -0.5251    1.2147 H   0  0  0  0  0  0  0  0  0  0  0  0
    1.7382    0.3128   -1.8280 H   0  0  0  0  0  0  0  0  0  0  0  0
    3.1281   -1.8652   -0.0618 H   0  0  0  0  0  0  0  0  0  0  0  0
    3.3385   -1.6273   -1.8285 H   0  0  0  0  0  0  0  0  0  0  0  0
    4.0693   -0.4605   -0.6119 H   0  0  0  0  0  0  0  0  0  0  0  0
  1  2  1  0
  2  3  1  0
  3  4  1  0
  4  5  1  0
  4  6  1  0
  6  7  1  0
  7  8  1  0
  8  9  1  0
  8  6  1  0
  1 10  1  0
  1 11  1  0
  1 12  1  0
  2 13  1  0
  2 14  1  0
  4 15  1  0
  5 16  1  0
  5 17  1  0
  5 18  1  0
  6 19  1  0
  8 20  1  0
  9 21  1  0
  9 22  1  0
  9 23  1  0
M  END
