
     RDKit          3D

 21 21  0  0  0  0  0  0  0  0999 V2000
    2.7376    0.0490    0.1796 C   0  0  0  0  0  0  0  0  0  0  0  0
    1.9045   -0.4896   -0.9443 C   0  0  0  0  0  0  0  0  0  0  0  0
    0.6114    0.0060   -0.9662 O   0  0  0  0  0  0  0  0  0  0  0  0
   -0.0655   -0.3177    0.2323 C   0  0  0  0  0  0  0  0  0  0  0  0
   -1.3591   -1.0366   -0.0603 C   0  0  0  0  0  0  0  0  0  0  0  0
   -2.4617   -0.0138    0.0001 C   0  0  0  0  0  0  0  0  0  0  0  0
   -1.7525    1.3238    0.0832 C   0  0  0  0  0  0  0  0  0  0  0  0
   -0.5278    0.9538    0.8120 C   0  0  0  0  0  0  0  0  0  0  0  0
   -0.0128    1.5688    1.7004 O   0  0  0  0  0  0  0  0  0  0  0  0
    2.5782   -0.4769    1.1448 H   0  0  0  0  0  0  0  0  0  0  0  0
    3.8128   -0.1622   -0.0919 H   0  0  0  0  0  0  0  0  0  0  0  0
    2.6774    1.1503    0.2816 H   0  0  0  0  0  0  0  0  0  0  0  0
    1.8401   -1.5976   -0.8018 H   0  0  0  0  0  0  0  0  0  0  0  0
    2.3797   -0.2414   -1.9027 H   0  0  0  0  0  0  0  0  0  0  0  0
    0.5946   -0.8911    0.9078 H   0  0  0  0  0  0  0  0  0  0  0  0
   -1.5212   -1.7719    0.7532 H   0  0  0  0  0  0  0  0  0  0  0  0
   -1.3590   -1.5631   -1.0238 H   0  0  0  0  0  0  0  0  0  0  0  0
   -3.1356   -0.0612   -0.8780 H   0  0  0  0  0  0  0  0  0  0  0  0
   -3.0710   -0.1341    0.9205 H   0  0  0  0  0  0  0  0  0  0  0  0
   -2.3635    2.0834    0.6089 H   0  0  0  0  0  0  0  0  0  0  0  0
   -1.5068    1.6222   -0.9555 H   0  0  0  0  0  0  0  0  0  0  0  0
  1  2  1  0
  2  3  1  0
  3  4  1  0
  4  5  1  0
  5  6  1  0
  6  7  1  0
  7  8  1  0
  8  9  2  0
  8  4  1  0
  1 10  1  0
  1 11  1  0
  1 12  1  0
  2 13  1  0
  2 14  1  0
  4 15  1  0
  5 16  1  0
  5 17  1  0
  6 18  1  0
  6 19  1  0
  7 20  1  0
  7 21  1  0
M  END
