
     RDKit          3D

 21 21  0  0  0  0  0  0  0  0999 V2000
    2.4236   -0.8542    0.1043 C   0  0  0  0  0  0  0  0  0  0  0  0
    1.0988   -1.5242    0.2888 C   0  0  0  0  0  0  0  0  0  0  0  0
    0.0845   -0.6655    0.6579 O   0  0  0  0  0  0  0  0  0  0  0  0
   -0.1485    0.3314   -0.2549 C   0  0  0  0  0  0  0  0  0  0  0  0
    0.1275    1.6942    0.3401 C   0  0  0  0  0  0  0  0  0  0  0  0
   -0.7404    1.8273    1.4382 O   0  0  0  0  0  0  0  0  0  0  0  0
   -1.5381    0.3144   -0.8289 C   0  0  0  0  0  0  0  0  0  0  0  0
   -2.6035   -0.5053   -0.3514 C   0  0  0  0  0  0  0  0  0  0  0  0
   -1.8097   -0.9566   -1.5241 O   0  0  0  0  0  0  0  0  0  0  0  0
    3.1918   -1.6712    0.0139 H   0  0  0  0  0  0  0  0  0  0  0  0
    2.6727   -0.2875    1.0228 H   0  0  0  0  0  0  0  0  0  0  0  0
    2.5148   -0.2443   -0.7932 H   0  0  0  0  0  0  0  0  0  0  0  0
    0.7976   -2.0855   -0.6234 H   0  0  0  0  0  0  0  0  0  0  0  0
    1.2169   -2.2879    1.0898 H   0  0  0  0  0  0  0  0  0  0  0  0
    0.5555    0.2221   -1.1181 H   0  0  0  0  0  0  0  0  0  0  0  0
   -0.0994    2.5003   -0.3645 H   0  0  0  0  0  0  0  0  0  0  0  0
    1.1866    1.8132    0.6419 H   0  0  0  0  0  0  0  0  0  0  0  0
   -1.0204    2.7652    1.5014 H   0  0  0  0  0  0  0  0  0  0  0  0
   -1.7652    1.1500   -1.5134 H   0  0  0  0  0  0  0  0  0  0  0  0
   -3.6342   -0.2942   -0.6489 H   0  0  0  0  0  0  0  0  0  0  0  0
   -2.5111   -1.2417    0.4604 H   0  0  0  0  0  0  0  0  0  0  0  0
  1  2  1  0
  2  3  1  0
  3  4  1  0
  4  5  1  0
  5  6  1  0
  4  7  1  0
  7  8  1  0
  8  9  1  0
  9  7  1  0
  1 10  1  0
  1 11  1  0
  1 12  1  0
  2 13  1  0
  2 14  1  0
  4 15  1  0
  5 16  1  0
  5 17  1  0
  6 18  1  0
  7 19  1  0
  8 20  1  0
  8 21  1  0
M  END
