
     RDKit          3D

 21 22  0  0  0  0  0  0  0  0999 V2000
    2.5724   -0.6808   -0.5686 C   0  0  0  0  0  0  0  0  0  0  0  0
    1.7545    0.4767   -1.1201 C   0  0  0  0  0  0  0  0  0  0  0  0
    0.4018    0.2859   -0.9739 O   0  0  0  0  0  0  0  0  0  0  0  0
    0.1083    0.1553    0.3612 C   0  0  0  0  0  0  0  0  0  0  0  0
   -0.8969   -0.8872    0.7413 C   0  0  0  0  0  0  0  0  0  0  0  0
   -2.0775   -0.7271   -0.1797 C   0  0  0  0  0  0  0  0  0  0  0  0
   -2.0497    0.8131   -0.2558 C   0  0  0  0  0  0  0  0  0  0  0  0
   -1.0493    1.0132    0.8575 C   0  0  0  0  0  0  0  0  0  0  0  0
   -1.2786   -0.0043    1.7817 O   0  0  0  0  0  0  0  0  0  0  0  0
    2.0855   -1.6620   -0.8331 H   0  0  0  0  0  0  0  0  0  0  0  0
    2.7105   -0.6219    0.5212 H   0  0  0  0  0  0  0  0  0  0  0  0
    3.5880   -0.6816   -1.0171 H   0  0  0  0  0  0  0  0  0  0  0  0
    2.0671    0.5886   -2.1910 H   0  0  0  0  0  0  0  0  0  0  0  0
    2.1241    1.3926   -0.6126 H   0  0  0  0  0  0  0  0  0  0  0  0
    0.9327    0.2170    1.0699 H   0  0  0  0  0  0  0  0  0  0  0  0
   -0.5776   -1.8638    1.0244 H   0  0  0  0  0  0  0  0  0  0  0  0
   -2.9829   -0.9750    0.3825 H   0  0  0  0  0  0  0  0  0  0  0  0
   -1.9683   -1.1846   -1.1508 H   0  0  0  0  0  0  0  0  0  0  0  0
   -3.0264    1.2475   -0.0565 H   0  0  0  0  0  0  0  0  0  0  0  0
   -1.6015    1.1032   -1.2303 H   0  0  0  0  0  0  0  0  0  0  0  0
   -0.8362    1.9950    1.2014 H   0  0  0  0  0  0  0  0  0  0  0  0
  1  2  1  0
  2  3  1  0
  3  4  1  0
  4  5  1  0
  5  6  1  0
  6  7  1  0
  7  8  1  0
  8  9  1  0
  8  4  1  0
  9  5  1  0
  1 10  1  0
  1 11  1  0
  1 12  1  0
  2 13  1  0
  2 14  1  0
  4 15  1  0
  5 16  1  0
  6 17  1  0
  6 18  1  0
  7 19  1  0
  7 20  1  0
  8 21  1  0
M  END
