
     RDKit          3D

 23 23  0  0  0  0  0  0  0  0999 V2000
    3.0442    0.9159   -0.1309 C   0  0  0  0  0  0  0  0  0  0  0  0
    1.7257    0.4601   -0.7733 C   0  0  0  0  0  0  0  0  0  0  0  0
    0.9667   -0.0814    0.2100 O   0  0  0  0  0  0  0  0  0  0  0  0
   -0.2644   -0.5678   -0.0908 C   0  0  0  0  0  0  0  0  0  0  0  0
   -0.4068   -2.0625    0.1447 C   0  0  0  0  0  0  0  0  0  0  0  0
   -1.6908   -2.4992   -0.1823 O   0  0  0  0  0  0  0  0  0  0  0  0
   -1.2749    0.1510    0.7692 C   0  0  0  0  0  0  0  0  0  0  0  0
   -1.3315    1.6764    0.5803 C   0  0  0  0  0  0  0  0  0  0  0  0
   -2.4722    0.8063    0.1961 C   0  0  0  0  0  0  0  0  0  0  0  0
    3.6092    0.0341    0.2416 H   0  0  0  0  0  0  0  0  0  0  0  0
    2.8469    1.5664    0.7361 H   0  0  0  0  0  0  0  0  0  0  0  0
    3.6526    1.4928   -0.8459 H   0  0  0  0  0  0  0  0  0  0  0  0
    1.9395   -0.2018   -1.6301 H   0  0  0  0  0  0  0  0  0  0  0  0
    1.2587    1.3755   -1.1780 H   0  0  0  0  0  0  0  0  0  0  0  0
   -0.5280   -0.4295   -1.1688 H   0  0  0  0  0  0  0  0  0  0  0  0
    0.2898   -2.6343   -0.5036 H   0  0  0  0  0  0  0  0  0  0  0  0
   -0.2316   -2.3433    1.1931 H   0  0  0  0  0  0  0  0  0  0  0  0
   -1.7020   -3.3942   -0.5963 H   0  0  0  0  0  0  0  0  0  0  0  0
   -1.2530   -0.1727    1.8334 H   0  0  0  0  0  0  0  0  0  0  0  0
   -1.4098    2.2880    1.5110 H   0  0  0  0  0  0  0  0  0  0  0  0
   -0.7503    2.1576   -0.2055 H   0  0  0  0  0  0  0  0  0  0  0  0
   -3.4041    0.8024    0.7835 H   0  0  0  0  0  0  0  0  0  0  0  0
   -2.6138    0.6604   -0.8936 H   0  0  0  0  0  0  0  0  0  0  0  0
  1  2  1  0
  2  3  1  0
  3  4  1  0
  4  5  1  0
  5  6  1  0
  4  7  1  0
  7  8  1  0
  8  9  1  0
  9  7  1  0
  1 10  1  0
  1 11  1  0
  1 12  1  0
  2 13  1  0
  2 14  1  0
  4 15  1  0
  5 16  1  0
  5 17  1  0
  6 18  1  0
  7 19  1  0
  8 20  1  0
  8 21  1  0
  9 22  1  0
  9 23  1  0
M  END
