
     RDKit          3D

 25 25  0  0  0  0  0  0  0  0999 V2000
    3.6340   -0.3567    0.0749 C   0  0  0  0  0  0  0  0  0  0  0  0
    2.2648   -0.1977   -0.5134 C   0  0  0  0  0  0  0  0  0  0  0  0
    1.2769   -0.0942    0.4728 O   0  0  0  0  0  0  0  0  0  0  0  0
    0.0035    0.0546   -0.1788 C   0  0  0  0  0  0  0  0  0  0  0  0
   -0.4761    1.3885    0.2373 C   0  0  0  0  0  0  0  0  0  0  0  0
   -1.7701    1.8717   -0.2919 C   0  0  0  0  0  0  0  0  0  0  0  0
   -0.8091   -1.1314    0.1952 C   0  0  0  0  0  0  0  0  0  0  0  0
   -2.2167   -1.3229   -0.3044 C   0  0  0  0  0  0  0  0  0  0  0  0
   -1.8927   -1.1745    1.1633 C   0  0  0  0  0  0  0  0  0  0  0  0
    3.5901   -0.6856    1.1549 H   0  0  0  0  0  0  0  0  0  0  0  0
    4.1960   -1.1619   -0.4419 H   0  0  0  0  0  0  0  0  0  0  0  0
    4.2083    0.6009    0.0700 H   0  0  0  0  0  0  0  0  0  0  0  0
    2.2095    0.7699   -1.0857 H   0  0  0  0  0  0  0  0  0  0  0  0
    2.0812   -1.0409   -1.2086 H   0  0  0  0  0  0  0  0  0  0  0  0
    0.1769    0.0436   -1.2524 H   0  0  0  0  0  0  0  0  0  0  0  0
   -0.4498    1.5300    1.3541 H   0  0  0  0  0  0  0  0  0  0  0  0
    0.3066    2.1287   -0.1156 H   0  0  0  0  0  0  0  0  0  0  0  0
   -2.6536    1.5487    0.2818 H   0  0  0  0  0  0  0  0  0  0  0  0
   -1.8390    3.0097   -0.2592 H   0  0  0  0  0  0  0  0  0  0  0  0
   -1.9517    1.6433   -1.3568 H   0  0  0  0  0  0  0  0  0  0  0  0
   -0.2202   -2.1071    0.1143 H   0  0  0  0  0  0  0  0  0  0  0  0
   -2.7092   -0.5268   -0.8686 H   0  0  0  0  0  0  0  0  0  0  0  0
   -2.5496   -2.3286   -0.6549 H   0  0  0  0  0  0  0  0  0  0  0  0
   -2.0512   -2.1311    1.7510 H   0  0  0  0  0  0  0  0  0  0  0  0
   -2.3587   -0.3305    1.6627 H   0  0  0  0  0  0  0  0  0  0  0  0
  1  2  1  0
  2  3  1  0
  3  4  1  0
  4  5  1  0
  5  6  1  0
  4  7  1  0
  7  8  1  0
  8  9  1  0
  9  7  1  0
  1 10  1  0
  1 11  1  0
  1 12  1  0
  2 13  1  0
  2 14  1  0
  4 15  1  0
  5 16  1  0
  5 17  1  0
  6 18  1  0
  6 19  1  0
  6 20  1  0
  7 21  1  0
  8 22  1  0
  8 23  1  0
  9 24  1  0
  9 25  1  0
M  END
