
     RDKit          3D

 19 19  0  0  0  0  0  0  0  0999 V2000
    2.2916    0.0627    0.2426 C   0  0  0  0  0  0  0  0  0  0  0  0
    1.5294   -1.2466    0.2273 C   0  0  0  0  0  0  0  0  0  0  0  0
    0.2414   -1.0986    0.7482 O   0  0  0  0  0  0  0  0  0  0  0  0
   -0.4266   -0.1901   -0.0109 C   0  0  0  0  0  0  0  0  0  0  0  0
   -1.7349   -0.7410   -0.5880 C   0  0  0  0  0  0  0  0  0  0  0  0
   -2.3407    0.4809   -1.0274 O   0  0  0  0  0  0  0  0  0  0  0  0
   -1.9162    1.5261   -0.2286 C   0  0  0  0  0  0  0  0  0  0  0  0
   -2.2468    2.7217   -0.3437 O   0  0  0  0  0  0  0  0  0  0  0  0
   -0.9953    0.9779    0.7941 C   0  0  0  0  0  0  0  0  0  0  0  0
    2.1166    0.6613   -0.6595 H   0  0  0  0  0  0  0  0  0  0  0  0
    3.3900   -0.1762    0.3515 H   0  0  0  0  0  0  0  0  0  0  0  0
    1.9999    0.6518    1.1344 H   0  0  0  0  0  0  0  0  0  0  0  0
    1.4922   -1.5573   -0.8520 H   0  0  0  0  0  0  0  0  0  0  0  0
    2.1192   -1.9791    0.8225 H   0  0  0  0  0  0  0  0  0  0  0  0
    0.1290    0.2434   -0.8513 H   0  0  0  0  0  0  0  0  0  0  0  0
   -1.5506   -1.4378   -1.4085 H   0  0  0  0  0  0  0  0  0  0  0  0
   -2.2793   -1.1741    0.2713 H   0  0  0  0  0  0  0  0  0  0  0  0
   -0.2111    1.6839    1.1017 H   0  0  0  0  0  0  0  0  0  0  0  0
   -1.6081    0.5910    1.6333 H   0  0  0  0  0  0  0  0  0  0  0  0
  1  2  1  0
  2  3  1  0
  3  4  1  0
  4  5  1  0
  5  6  1  0
  6  7  1  0
  7  8  2  0
  7  9  1  0
  9  4  1  0
  1 10  1  0
  1 11  1  0
  1 12  1  0
  2 13  1  0
  2 14  1  0
  4 15  1  0
  5 16  1  0
  5 17  1  0
  9 18  1  0
  9 19  1  0
M  END
