
     RDKit          3D

 18 18  0  0  0  0  0  0  0  0999 V2000
   -3.0325   -0.0791    0.4347 C   0  0  0  0  0  0  0  0  0  0  0  0
   -1.6939   -0.3648   -0.1626 C   0  0  0  0  0  0  0  0  0  0  0  0
   -0.6751    0.4118    0.3980 O   0  0  0  0  0  0  0  0  0  0  0  0
    0.5250    0.0786   -0.2163 C   0  0  0  0  0  0  0  0  0  0  0  0
    1.4550    1.2290   -0.4298 C   0  0  0  0  0  0  0  0  0  0  0  0
    1.7968    0.1234    0.5353 C   0  0  0  0  0  0  0  0  0  0  0  0
    2.9133   -0.7303    0.1077 C   0  0  0  0  0  0  0  0  0  0  0  0
    3.0853   -1.0024   -1.0572 O   0  0  0  0  0  0  0  0  0  0  0  0
   -3.0177    0.1254    1.5111 H   0  0  0  0  0  0  0  0  0  0  0  0
   -3.6620   -1.0019    0.2919 H   0  0  0  0  0  0  0  0  0  0  0  0
   -3.5839    0.7265   -0.1118 H   0  0  0  0  0  0  0  0  0  0  0  0
   -1.7313   -0.0613   -1.2465 H   0  0  0  0  0  0  0  0  0  0  0  0
   -1.3817   -1.4137   -0.0689 H   0  0  0  0  0  0  0  0  0  0  0  0
    0.4861   -0.7140   -1.0168 H   0  0  0  0  0  0  0  0  0  0  0  0
    1.2281    2.2187   -0.0134 H   0  0  0  0  0  0  0  0  0  0  0  0
    1.9681    1.2659   -1.4084 H   0  0  0  0  0  0  0  0  0  0  0  0
    1.7241    0.3142    1.6209 H   0  0  0  0  0  0  0  0  0  0  0  0
    3.5962   -1.1261    0.8321 H   0  0  0  0  0  0  0  0  0  0  0  0
  1  2  1  0
  2  3  1  0
  3  4  1  0
  4  5  1  0
  5  6  1  0
  6  7  1  0
  7  8  2  0
  6  4  1  0
  1  9  1  0
  1 10  1  0
  1 11  1  0
  2 12  1  0
  2 13  1  0
  4 14  1  0
  5 15  1  0
  5 16  1  0
  6 17  1  0
  7 18  1  0
M  END
