
     RDKit          3D

 21 20  0  0  0  0  0  0  0  0999 V2000
   -3.2279   -0.9226    1.5843 C   0  0  0  0  0  0  0  0  0  0  0  0
   -2.9592   -1.2004    0.1107 C   0  0  0  0  0  0  0  0  0  0  0  0
   -1.5832   -1.2078   -0.1375 O   0  0  0  0  0  0  0  0  0  0  0  0
   -1.0989    0.0518    0.2143 C   0  0  0  0  0  0  0  0  0  0  0  0
    0.3457    0.1512   -0.0089 C   0  0  0  0  0  0  0  0  0  0  0  0
    1.5538    0.2283   -0.1884 C   0  0  0  0  0  0  0  0  0  0  0  0
    2.9951    0.3117   -0.3783 C   0  0  0  0  0  0  0  0  0  0  0  0
    3.2867    1.6442   -1.0316 C   0  0  0  0  0  0  0  0  0  0  0  0
    3.6742    0.1587    0.8196 O   0  0  0  0  0  0  0  0  0  0  0  0
   -2.4398   -1.3367    2.2298 H   0  0  0  0  0  0  0  0  0  0  0  0
   -3.3056    0.1890    1.6845 H   0  0  0  0  0  0  0  0  0  0  0  0
   -4.1858   -1.4040    1.8712 H   0  0  0  0  0  0  0  0  0  0  0  0
   -3.4685   -0.4480   -0.5264 H   0  0  0  0  0  0  0  0  0  0  0  0
   -3.4003   -2.1864   -0.1559 H   0  0  0  0  0  0  0  0  0  0  0  0
   -1.3024    0.2466    1.2970 H   0  0  0  0  0  0  0  0  0  0  0  0
   -1.5739    0.8183   -0.4135 H   0  0  0  0  0  0  0  0  0  0  0  0
    3.3629   -0.4882   -1.0715 H   0  0  0  0  0  0  0  0  0  0  0  0
    4.2253    1.5228   -1.6218 H   0  0  0  0  0  0  0  0  0  0  0  0
    2.4607    1.8490   -1.7330 H   0  0  0  0  0  0  0  0  0  0  0  0
    3.4315    2.4587   -0.2802 H   0  0  0  0  0  0  0  0  0  0  0  0
    3.2094   -0.4362    1.4569 H   0  0  0  0  0  0  0  0  0  0  0  0
  1  2  1  0
  2  3  1  0
  3  4  1  0
  4  5  1  0
  5  6  3  0
  6  7  1  0
  7  8  1  0
  7  9  1  0
  1 10  1  0
  1 11  1  0
  1 12  1  0
  2 13  1  0
  2 14  1  0
  4 15  1  0
  4 16  1  0
  7 17  1  0
  8 18  1  0
  8 19  1  0
  8 20  1  0
  9 21  1  0
M  END
