
     RDKit          3D

 21 21  0  0  0  0  0  0  0  0999 V2000
    2.3444   -0.2095   -0.4728 C   0  0  0  0  0  0  0  0  0  0  0  0
    1.8844    0.6367    0.7084 C   0  0  0  0  0  0  0  0  0  0  0  0
    0.6916    0.1797    1.2409 O   0  0  0  0  0  0  0  0  0  0  0  0
   -0.3576    0.1797    0.3589 C   0  0  0  0  0  0  0  0  0  0  0  0
   -0.7845    1.5030   -0.2660 C   0  0  0  0  0  0  0  0  0  0  0  0
   -0.7199   -1.0203   -0.4482 C   0  0  0  0  0  0  0  0  0  0  0  0
   -1.4113   -0.8568   -1.6338 O   0  0  0  0  0  0  0  0  0  0  0  0
   -1.5264   -0.7348    0.7871 C   0  0  0  0  0  0  0  0  0  0  0  0
   -2.8134   -0.2319    0.6396 O   0  0  0  0  0  0  0  0  0  0  0  0
    3.4442   -0.0502   -0.6072 H   0  0  0  0  0  0  0  0  0  0  0  0
    1.8561    0.2024   -1.3630 H   0  0  0  0  0  0  0  0  0  0  0  0
    2.1673   -1.2699   -0.3057 H   0  0  0  0  0  0  0  0  0  0  0  0
    2.6521    0.5592    1.5045 H   0  0  0  0  0  0  0  0  0  0  0  0
    1.8132    1.6986    0.4255 H   0  0  0  0  0  0  0  0  0  0  0  0
   -0.4755    2.3656    0.3651 H   0  0  0  0  0  0  0  0  0  0  0  0
   -1.8942    1.5588   -0.3246 H   0  0  0  0  0  0  0  0  0  0  0  0
   -0.3596    1.5342   -1.2784 H   0  0  0  0  0  0  0  0  0  0  0  0
   -0.1302   -1.9592   -0.3833 H   0  0  0  0  0  0  0  0  0  0  0  0
   -1.5807   -1.7444   -2.0394 H   0  0  0  0  0  0  0  0  0  0  0  0
   -1.3927   -1.3499    1.6879 H   0  0  0  0  0  0  0  0  0  0  0  0
   -3.4073   -0.9908    0.3417 H   0  0  0  0  0  0  0  0  0  0  0  0
  1  2  1  0
  2  3  1  0
  3  4  1  0
  4  5  1  0
  4  6  1  0
  6  7  1  0
  6  8  1  0
  8  9  1  0
  8  4  1  0
  1 10  1  0
  1 11  1  0
  1 12  1  0
  2 13  1  0
  2 14  1  0
  5 15  1  0
  5 16  1  0
  5 17  1  0
  6 18  1  0
  7 19  1  0
  8 20  1  0
  9 21  1  0
M  END
