
     RDKit          3D

 21 21  0  0  0  0  0  0  0  0999 V2000
    3.2127    0.1204    0.8428 C   0  0  0  0  0  0  0  0  0  0  0  0
    2.2209   -0.5194   -0.1019 C   0  0  0  0  0  0  0  0  0  0  0  0
    0.9603   -0.1712    0.2957 O   0  0  0  0  0  0  0  0  0  0  0  0
   -0.0581   -0.6780   -0.4677 C   0  0  0  0  0  0  0  0  0  0  0  0
   -1.3609   -0.1847    0.1270 C   0  0  0  0  0  0  0  0  0  0  0  0
   -2.5665   -0.0641   -0.7883 C   0  0  0  0  0  0  0  0  0  0  0  0
   -3.4092    0.9229   -0.2822 O   0  0  0  0  0  0  0  0  0  0  0  0
   -1.2892    0.7872    1.3036 C   0  0  0  0  0  0  0  0  0  0  0  0
   -1.6534   -0.5291    1.4424 O   0  0  0  0  0  0  0  0  0  0  0  0
    4.0554   -0.5595    1.0792 H   0  0  0  0  0  0  0  0  0  0  0  0
    2.7103    0.3416    1.8012 H   0  0  0  0  0  0  0  0  0  0  0  0
    3.6264    1.0557    0.3977 H   0  0  0  0  0  0  0  0  0  0  0  0
    2.4423   -0.3011   -1.1633 H   0  0  0  0  0  0  0  0  0  0  0  0
    2.3228   -1.6321    0.0450 H   0  0  0  0  0  0  0  0  0  0  0  0
   -0.0340   -0.3073   -1.5290 H   0  0  0  0  0  0  0  0  0  0  0  0
   -0.0638   -1.8031   -0.4933 H   0  0  0  0  0  0  0  0  0  0  0  0
   -2.2534    0.1432   -1.8238 H   0  0  0  0  0  0  0  0  0  0  0  0
   -3.1626   -1.0161   -0.7684 H   0  0  0  0  0  0  0  0  0  0  0  0
   -3.3881    1.7474   -0.8121 H   0  0  0  0  0  0  0  0  0  0  0  0
   -2.0662    1.5853    1.2910 H   0  0  0  0  0  0  0  0  0  0  0  0
   -0.2459    1.0619    1.6159 H   0  0  0  0  0  0  0  0  0  0  0  0
  1  2  1  0
  2  3  1  0
  3  4  1  0
  4  5  1  0
  5  6  1  0
  6  7  1  0
  5  8  1  0
  8  9  1  0
  9  5  1  0
  1 10  1  0
  1 11  1  0
  1 12  1  0
  2 13  1  0
  2 14  1  0
  4 15  1  0
  4 16  1  0
  6 17  1  0
  6 18  1  0
  7 19  1  0
  8 20  1  0
  8 21  1  0
M  END
