
     RDKit          3D

 23 24  0  0  0  0  0  0  0  0999 V2000
    3.4367   -0.1870   -0.6810 C   0  0  0  0  0  0  0  0  0  0  0  0
    2.1506   -0.1043    0.0800 C   0  0  0  0  0  0  0  0  0  0  0  0
    1.0296   -0.0090   -0.7715 O   0  0  0  0  0  0  0  0  0  0  0  0
   -0.0824    0.0600    0.0594 C   0  0  0  0  0  0  0  0  0  0  0  0
   -1.2976   -0.6881   -0.4019 C   0  0  0  0  0  0  0  0  0  0  0  0
   -1.3086    0.2551   -1.5708 C   0  0  0  0  0  0  0  0  0  0  0  0
   -1.0293    1.1457   -0.3970 C   0  0  0  0  0  0  0  0  0  0  0  0
   -2.0983    0.3702    0.3178 C   0  0  0  0  0  0  0  0  0  0  0  0
   -2.0148    0.3620    1.8087 C   0  0  0  0  0  0  0  0  0  0  0  0
    3.3143   -0.1398   -1.7709 H   0  0  0  0  0  0  0  0  0  0  0  0
    4.0711    0.6822   -0.3370 H   0  0  0  0  0  0  0  0  0  0  0  0
    4.0115   -1.0978   -0.3962 H   0  0  0  0  0  0  0  0  0  0  0  0
    2.0967    0.7798    0.7474 H   0  0  0  0  0  0  0  0  0  0  0  0
    1.9787   -1.0242    0.6908 H   0  0  0  0  0  0  0  0  0  0  0  0
    0.1177    0.0288    1.1404 H   0  0  0  0  0  0  0  0  0  0  0  0
   -1.4576   -1.6713   -0.4019 H   0  0  0  0  0  0  0  0  0  0  0  0
   -0.4653    0.0795   -2.2683 H   0  0  0  0  0  0  0  0  0  0  0  0
   -2.3065    0.3853   -2.0517 H   0  0  0  0  0  0  0  0  0  0  0  0
   -0.8685    2.1287   -0.3877 H   0  0  0  0  0  0  0  0  0  0  0  0
   -3.1305    0.5257   -0.0756 H   0  0  0  0  0  0  0  0  0  0  0  0
   -1.2592    1.0796    2.2182 H   0  0  0  0  0  0  0  0  0  0  0  0
   -1.8913   -0.6599    2.2271 H   0  0  0  0  0  0  0  0  0  0  0  0
   -2.9972    0.7275    2.2217 H   0  0  0  0  0  0  0  0  0  0  0  0
  1  2  1  0
  2  3  1  0
  3  4  1  0
  4  5  1  0
  5  6  1  0
  6  7  1  0
  7  8  1  0
  8  9  1  0
  7  4  1  0
  8  5  1  0
  1 10  1  0
  1 11  1  0
  1 12  1  0
  2 13  1  0
  2 14  1  0
  4 15  1  0
  5 16  1  0
  6 17  1  0
  6 18  1  0
  7 19  1  0
  8 20  1  0
  9 21  1  0
  9 22  1  0
  9 23  1  0
M  END
