
     RDKit          3D

 21 22  0  0  0  0  0  0  0  0999 V2000
    3.1624   -0.3199    0.3457 C   0  0  0  0  0  0  0  0  0  0  0  0
    1.6837   -0.6932    0.2823 C   0  0  0  0  0  0  0  0  0  0  0  0
    1.0072    0.4402   -0.1223 O   0  0  0  0  0  0  0  0  0  0  0  0
   -0.3181    0.3415   -0.2470 C   0  0  0  0  0  0  0  0  0  0  0  0
   -1.0440   -0.5823   -1.1509 C   0  0  0  0  0  0  0  0  0  0  0  0
   -2.0526   -0.8164   -0.0175 C   0  0  0  0  0  0  0  0  0  0  0  0
   -1.3234    0.2331    0.7914 C   0  0  0  0  0  0  0  0  0  0  0  0
   -1.1182    1.5864    0.2284 C   0  0  0  0  0  0  0  0  0  0  0  0
   -1.8967    2.0680   -0.8170 O   0  0  0  0  0  0  0  0  0  0  0  0
    3.2503    0.3821    1.2194 H   0  0  0  0  0  0  0  0  0  0  0  0
    3.8081   -1.1950    0.4300 H   0  0  0  0  0  0  0  0  0  0  0  0
    3.3563    0.2835   -0.5715 H   0  0  0  0  0  0  0  0  0  0  0  0
    1.6059   -1.4437   -0.5514 H   0  0  0  0  0  0  0  0  0  0  0  0
    1.3220   -1.1429    1.2029 H   0  0  0  0  0  0  0  0  0  0  0  0
   -1.4980   -0.0225   -2.0034 H   0  0  0  0  0  0  0  0  0  0  0  0
   -0.4523   -1.4516   -1.4296 H   0  0  0  0  0  0  0  0  0  0  0  0
   -3.0868   -0.5744   -0.2700 H   0  0  0  0  0  0  0  0  0  0  0  0
   -1.9413   -1.8364    0.4325 H   0  0  0  0  0  0  0  0  0  0  0  0
   -1.1289    0.0599    1.8600 H   0  0  0  0  0  0  0  0  0  0  0  0
   -0.5779    2.2962    0.8729 H   0  0  0  0  0  0  0  0  0  0  0  0
   -2.7576    2.3875   -0.4849 H   0  0  0  0  0  0  0  0  0  0  0  0
  1  2  1  0
  2  3  1  0
  3  4  1  0
  4  5  1  0
  5  6  1  0
  6  7  1  0
  7  8  1  0
  8  9  1  0
  7  4  1  0
  8  4  1  0
  1 10  1  0
  1 11  1  0
  1 12  1  0
  2 13  1  0
  2 14  1  0
  5 15  1  0
  5 16  1  0
  6 17  1  0
  6 18  1  0
  7 19  1  0
  8 20  1  0
  9 21  1  0
M  END
