
     RDKit          3D

 24 23  0  0  0  0  0  0  0  0999 V2000
    2.9813    0.2862   -0.3099 C   0  0  0  0  0  0  0  0  0  0  0  0
    1.6909   -0.2535    0.3262 C   0  0  0  0  0  0  0  0  0  0  0  0
    0.6806   -0.0267   -0.5637 O   0  0  0  0  0  0  0  0  0  0  0  0
   -0.5608   -0.4293   -0.2013 C   0  0  0  0  0  0  0  0  0  0  0  0
   -0.7212   -1.8943    0.0717 C   0  0  0  0  0  0  0  0  0  0  0  0
   -1.5069   -0.1140   -1.3702 C   0  0  0  0  0  0  0  0  0  0  0  0
   -1.0577    0.3918    0.9660 C   0  0  0  0  0  0  0  0  0  0  0  0
   -1.1276    1.8538    0.6312 C   0  0  0  0  0  0  0  0  0  0  0  0
    2.9771    0.1396   -1.4056 H   0  0  0  0  0  0  0  0  0  0  0  0
    3.1121    1.3356   -0.0343 H   0  0  0  0  0  0  0  0  0  0  0  0
    3.8359   -0.2817    0.1202 H   0  0  0  0  0  0  0  0  0  0  0  0
    1.8141   -1.3429    0.4980 H   0  0  0  0  0  0  0  0  0  0  0  0
    1.6050    0.2997    1.2837 H   0  0  0  0  0  0  0  0  0  0  0  0
   -0.6448   -2.4274   -0.9088 H   0  0  0  0  0  0  0  0  0  0  0  0
   -1.7792   -2.0428    0.4180 H   0  0  0  0  0  0  0  0  0  0  0  0
   -0.0585   -2.2906    0.8380 H   0  0  0  0  0  0  0  0  0  0  0  0
   -2.5205    0.0776   -0.9590 H   0  0  0  0  0  0  0  0  0  0  0  0
   -1.6014   -0.9836   -2.0526 H   0  0  0  0  0  0  0  0  0  0  0  0
   -1.1197    0.7367   -1.9544 H   0  0  0  0  0  0  0  0  0  0  0  0
   -2.0952    0.0569    1.2497 H   0  0  0  0  0  0  0  0  0  0  0  0
   -0.3630    0.2233    1.8124 H   0  0  0  0  0  0  0  0  0  0  0  0
   -2.0885    2.0460    0.0775 H   0  0  0  0  0  0  0  0  0  0  0  0
   -1.1372    2.4726    1.5412 H   0  0  0  0  0  0  0  0  0  0  0  0
   -0.3147    2.1671   -0.0740 H   0  0  0  0  0  0  0  0  0  0  0  0
  1  2  1  0
  2  3  1  0
  3  4  1  0
  4  5  1  0
  4  6  1  0
  4  7  1  0
  7  8  1  0
  1  9  1  0
  1 10  1  0
  1 11  1  0
  2 12  1  0
  2 13  1  0
  5 14  1  0
  5 15  1  0
  5 16  1  0
  6 17  1  0
  6 18  1  0
  6 19  1  0
  7 20  1  0
  7 21  1  0
  8 22  1  0
  8 23  1  0
  8 24  1  0
M  END
