
     RDKit          3D

 25 24  0  0  0  0  0  0  0  0999 V2000
    3.2669   -1.1778    0.0249 C   0  0  0  0  0  0  0  0  0  0  0  0
    2.0780   -1.0449   -0.9171 C   0  0  0  0  0  0  0  0  0  0  0  0
    1.3233    0.0799   -0.6384 O   0  0  0  0  0  0  0  0  0  0  0  0
    0.8080    0.0660    0.6574 C   0  0  0  0  0  0  0  0  0  0  0  0
    0.0111    1.2864    0.9056 C   0  0  0  0  0  0  0  0  0  0  0  0
   -1.1317    1.6270    0.0589 C   0  0  0  0  0  0  0  0  0  0  0  0
   -2.3160    0.7727   -0.0568 C   0  0  0  0  0  0  0  0  0  0  0  0
   -2.1097   -0.6034   -0.6126 C   0  0  0  0  0  0  0  0  0  0  0  0
   -3.3826   -1.2640   -0.7024 O   0  0  0  0  0  0  0  0  0  0  0  0
    4.1243   -1.6165   -0.5273 H   0  0  0  0  0  0  0  0  0  0  0  0
    3.5666   -0.1918    0.4167 H   0  0  0  0  0  0  0  0  0  0  0  0
    2.9361   -1.8093    0.8775 H   0  0  0  0  0  0  0  0  0  0  0  0
    1.5081   -1.9771   -0.8657 H   0  0  0  0  0  0  0  0  0  0  0  0
    2.4961   -0.9220   -1.9348 H   0  0  0  0  0  0  0  0  0  0  0  0
    0.4085   -0.9011    0.9525 H   0  0  0  0  0  0  0  0  0  0  0  0
    1.7087    0.1706    1.3908 H   0  0  0  0  0  0  0  0  0  0  0  0
    0.7543    2.1577    0.9199 H   0  0  0  0  0  0  0  0  0  0  0  0
   -0.3578    1.3147    1.9798 H   0  0  0  0  0  0  0  0  0  0  0  0
   -1.5158    2.6532    0.4168 H   0  0  0  0  0  0  0  0  0  0  0  0
   -0.8132    1.8976   -1.0016 H   0  0  0  0  0  0  0  0  0  0  0  0
   -2.8874    0.7148    0.9336 H   0  0  0  0  0  0  0  0  0  0  0  0
   -3.1167    1.2404   -0.7253 H   0  0  0  0  0  0  0  0  0  0  0  0
   -1.6960   -0.5829   -1.6171 H   0  0  0  0  0  0  0  0  0  0  0  0
   -1.5844   -1.2443    0.1175 H   0  0  0  0  0  0  0  0  0  0  0  0
   -4.0788   -0.6456   -0.3700 H   0  0  0  0  0  0  0  0  0  0  0  0
  1  2  1  0
  2  3  1  0
  3  4  1  0
  4  5  1  0
  5  6  1  0
  6  7  1  0
  7  8  1  0
  8  9  1  0
  1 10  1  0
  1 11  1  0
  1 12  1  0
  2 13  1  0
  2 14  1  0
  4 15  1  0
  4 16  1  0
  5 17  1  0
  5 18  1  0
  6 19  1  0
  6 20  1  0
  7 21  1  0
  7 22  1  0
  8 23  1  0
  8 24  1  0
  9 25  1  0
M  END
