
     RDKit          3D

 21 21  0  0  0  0  0  0  0  0999 V2000
    2.9307    0.4907   -0.2269 C   0  0  0  0  0  0  0  0  0  0  0  0
    2.3474   -0.8620    0.1662 C   0  0  0  0  0  0  0  0  0  0  0  0
    1.0810   -0.6866    0.6913 O   0  0  0  0  0  0  0  0  0  0  0  0
    0.2646   -0.0940   -0.2532 C   0  0  0  0  0  0  0  0  0  0  0  0
   -1.1325    0.1328    0.2368 C   0  0  0  0  0  0  0  0  0  0  0  0
   -1.2129    0.9599    1.3576 O   0  0  0  0  0  0  0  0  0  0  0  0
   -2.1615    0.2968   -0.8641 C   0  0  0  0  0  0  0  0  0  0  0  0
   -2.1973   -0.8784    0.0573 C   0  0  0  0  0  0  0  0  0  0  0  0
   -3.2409   -0.8391    0.9906 O   0  0  0  0  0  0  0  0  0  0  0  0
    2.6661    0.7089   -1.2650 H   0  0  0  0  0  0  0  0  0  0  0  0
    2.4904    1.2485    0.4801 H   0  0  0  0  0  0  0  0  0  0  0  0
    4.0283    0.5266   -0.0234 H   0  0  0  0  0  0  0  0  0  0  0  0
    3.0455   -1.3102    0.9001 H   0  0  0  0  0  0  0  0  0  0  0  0
    2.2588   -1.5235   -0.7433 H   0  0  0  0  0  0  0  0  0  0  0  0
    0.2662   -0.6635   -1.1991 H   0  0  0  0  0  0  0  0  0  0  0  0
    0.7071    0.9165   -0.4628 H   0  0  0  0  0  0  0  0  0  0  0  0
   -1.7603    0.4823    2.0375 H   0  0  0  0  0  0  0  0  0  0  0  0
   -2.9015    1.1193   -0.7229 H   0  0  0  0  0  0  0  0  0  0  0  0
   -1.8579    0.0697   -1.9083 H   0  0  0  0  0  0  0  0  0  0  0  0
   -1.9769   -1.8958   -0.3016 H   0  0  0  0  0  0  0  0  0  0  0  0
   -3.6444    0.0782    1.0532 H   0  0  0  0  0  0  0  0  0  0  0  0
  1  2  1  0
  2  3  1  0
  3  4  1  0
  4  5  1  0
  5  6  1  0
  5  7  1  0
  7  8  1  0
  8  9  1  0
  8  5  1  0
  1 10  1  0
  1 11  1  0
  1 12  1  0
  2 13  1  0
  2 14  1  0
  4 15  1  0
  4 16  1  0
  6 17  1  0
  7 18  1  0
  7 19  1  0
  8 20  1  0
  9 21  1  0
M  END
