
     RDKit          3D

 23 23  0  0  0  0  0  0  0  0999 V2000
    2.8904   -0.8586    0.5147 C   0  0  0  0  0  0  0  0  0  0  0  0
    1.4927   -0.6343   -0.0718 C   0  0  0  0  0  0  0  0  0  0  0  0
    0.7871    0.2960    0.6260 O   0  0  0  0  0  0  0  0  0  0  0  0
   -0.4528    0.6363    0.2290 C   0  0  0  0  0  0  0  0  0  0  0  0
   -1.5476   -0.3622    0.1437 C   0  0  0  0  0  0  0  0  0  0  0  0
   -1.3569   -1.5030   -0.7826 C   0  0  0  0  0  0  0  0  0  0  0  0
   -0.5583    1.6898   -0.8605 C   0  0  0  0  0  0  0  0  0  0  0  0
   -0.5080    2.7217    0.0909 O   0  0  0  0  0  0  0  0  0  0  0  0
   -0.9458    1.8300    1.0705 C   0  0  0  0  0  0  0  0  0  0  0  0
    3.6190   -0.1554    0.0456 H   0  0  0  0  0  0  0  0  0  0  0  0
    2.9001   -0.7000    1.6116 H   0  0  0  0  0  0  0  0  0  0  0  0
    3.2404   -1.8792    0.2561 H   0  0  0  0  0  0  0  0  0  0  0  0
    1.6099   -0.4761   -1.1427 H   0  0  0  0  0  0  0  0  0  0  0  0
    0.9830   -1.6287    0.1186 H   0  0  0  0  0  0  0  0  0  0  0  0
   -2.5151    0.1524   -0.1014 H   0  0  0  0  0  0  0  0  0  0  0  0
   -1.7453   -0.8047    1.1648 H   0  0  0  0  0  0  0  0  0  0  0  0
   -1.1903   -2.4839   -0.2617 H   0  0  0  0  0  0  0  0  0  0  0  0
   -2.3260   -1.6592   -1.3522 H   0  0  0  0  0  0  0  0  0  0  0  0
   -0.6158   -1.3325   -1.6057 H   0  0  0  0  0  0  0  0  0  0  0  0
    0.2601    1.6675   -1.5803 H   0  0  0  0  0  0  0  0  0  0  0  0
   -1.5491    1.6863   -1.3590 H   0  0  0  0  0  0  0  0  0  0  0  0
   -0.4435    1.9174    2.0501 H   0  0  0  0  0  0  0  0  0  0  0  0
   -2.0282    1.8806    1.1963 H   0  0  0  0  0  0  0  0  0  0  0  0
  1  2  1  0
  2  3  1  0
  3  4  1  0
  4  5  1  0
  5  6  1  0
  4  7  1  0
  7  8  1  0
  8  9  1  0
  9  4  1  0
  1 10  1  0
  1 11  1  0
  1 12  1  0
  2 13  1  0
  2 14  1  0
  5 15  1  0
  5 16  1  0
  6 17  1  0
  6 18  1  0
  6 19  1  0
  7 20  1  0
  7 21  1  0
  9 22  1  0
  9 23  1  0
M  END
