
     RDKit          3D

 25 25  0  0  0  0  0  0  0  0999 V2000
    2.8967   -0.3388   -0.0883 C   0  0  0  0  0  0  0  0  0  0  0  0
    1.9940    0.5386    0.7025 C   0  0  0  0  0  0  0  0  0  0  0  0
    0.8040    0.0676    1.1271 O   0  0  0  0  0  0  0  0  0  0  0  0
   -0.1517   -0.3036    0.2490 C   0  0  0  0  0  0  0  0  0  0  0  0
    0.1650   -1.4646   -0.6632 C   0  0  0  0  0  0  0  0  0  0  0  0
   -1.6048   -0.1962    0.5836 C   0  0  0  0  0  0  0  0  0  0  0  0
   -2.5884   -1.1014   -0.0773 C   0  0  0  0  0  0  0  0  0  0  0  0
   -0.9491    0.8191   -0.3213 C   0  0  0  0  0  0  0  0  0  0  0  0
   -0.8904    2.1977    0.2560 C   0  0  0  0  0  0  0  0  0  0  0  0
    2.7562   -1.4130    0.0266 H   0  0  0  0  0  0  0  0  0  0  0  0
    3.9769   -0.1734    0.2563 H   0  0  0  0  0  0  0  0  0  0  0  0
    2.9062   -0.1035   -1.1891 H   0  0  0  0  0  0  0  0  0  0  0  0
    2.6025    0.9351    1.5858 H   0  0  0  0  0  0  0  0  0  0  0  0
    1.8794    1.4923    0.0842 H   0  0  0  0  0  0  0  0  0  0  0  0
    0.5805   -2.2764   -0.0059 H   0  0  0  0  0  0  0  0  0  0  0  0
    0.9045   -1.2600   -1.4333 H   0  0  0  0  0  0  0  0  0  0  0  0
   -0.7976   -1.8436   -1.0971 H   0  0  0  0  0  0  0  0  0  0  0  0
   -1.8388    0.0739    1.6262 H   0  0  0  0  0  0  0  0  0  0  0  0
   -2.6418   -0.9814   -1.1649 H   0  0  0  0  0  0  0  0  0  0  0  0
   -3.6252   -0.9342    0.3270 H   0  0  0  0  0  0  0  0  0  0  0  0
   -2.3945   -2.1861    0.1192 H   0  0  0  0  0  0  0  0  0  0  0  0
   -1.1305    0.7728   -1.4026 H   0  0  0  0  0  0  0  0  0  0  0  0
   -0.3925    2.2144    1.2359 H   0  0  0  0  0  0  0  0  0  0  0  0
   -1.9584    2.5082    0.4553 H   0  0  0  0  0  0  0  0  0  0  0  0
   -0.5022    2.9566   -0.4497 H   0  0  0  0  0  0  0  0  0  0  0  0
  1  2  1  0
  2  3  1  0
  3  4  1  0
  4  5  1  0
  4  6  1  0
  6  7  1  0
  6  8  1  0
  8  9  1  0
  8  4  1  0
  1 10  1  0
  1 11  1  0
  1 12  1  0
  2 13  1  0
  2 14  1  0
  5 15  1  0
  5 16  1  0
  5 17  1  0
  6 18  1  0
  7 19  1  0
  7 20  1  0
  7 21  1  0
  8 22  1  0
  9 23  1  0
  9 24  1  0
  9 25  1  0
M  END
