
     RDKit          3D

 23 24  0  0  0  0  0  0  0  0999 V2000
    3.1204    0.7916    0.0779 C   0  0  0  0  0  0  0  0  0  0  0  0
    1.9116    0.2035   -0.6042 C   0  0  0  0  0  0  0  0  0  0  0  0
    0.8965    0.0982    0.3646 O   0  0  0  0  0  0  0  0  0  0  0  0
   -0.2507   -0.4300   -0.1644 C   0  0  0  0  0  0  0  0  0  0  0  0
   -0.3053   -1.7683   -0.7767 C   0  0  0  0  0  0  0  0  0  0  0  0
   -1.0505   -1.4781    0.4686 C   0  0  0  0  0  0  0  0  0  0  0  0
   -2.3359   -0.6854    0.2685 C   0  0  0  0  0  0  0  0  0  0  0  0
   -1.4725    0.4550   -0.2386 C   0  0  0  0  0  0  0  0  0  0  0  0
   -1.4750    1.5716    0.8035 C   0  0  0  0  0  0  0  0  0  0  0  0
    3.3779    0.1994    0.9539 H   0  0  0  0  0  0  0  0  0  0  0  0
    2.9713    1.8667    0.3175 H   0  0  0  0  0  0  0  0  0  0  0  0
    3.9726    0.7544   -0.6319 H   0  0  0  0  0  0  0  0  0  0  0  0
    1.5849    0.7639   -1.4786 H   0  0  0  0  0  0  0  0  0  0  0  0
    2.1792   -0.8230   -0.9239 H   0  0  0  0  0  0  0  0  0  0  0  0
   -0.8919   -1.8755   -1.7211 H   0  0  0  0  0  0  0  0  0  0  0  0
    0.5470   -2.4389   -0.6924 H   0  0  0  0  0  0  0  0  0  0  0  0
   -0.8293   -1.9323    1.4310 H   0  0  0  0  0  0  0  0  0  0  0  0
   -2.9367   -1.1298   -0.5576 H   0  0  0  0  0  0  0  0  0  0  0  0
   -2.9121   -0.4836    1.1729 H   0  0  0  0  0  0  0  0  0  0  0  0
   -1.6798    0.7995   -1.2551 H   0  0  0  0  0  0  0  0  0  0  0  0
   -2.1997    1.3943    1.6074 H   0  0  0  0  0  0  0  0  0  0  0  0
   -1.7490    2.5205    0.2941 H   0  0  0  0  0  0  0  0  0  0  0  0
   -0.4731    1.6265    1.2844 H   0  0  0  0  0  0  0  0  0  0  0  0
  1  2  1  0
  2  3  1  0
  3  4  1  0
  4  5  1  0
  5  6  1  0
  6  7  1  0
  7  8  1  0
  8  9  1  0
  6  4  1  0
  8  4  1  0
  1 10  1  0
  1 11  1  0
  1 12  1  0
  2 13  1  0
  2 14  1  0
  5 15  1  0
  5 16  1  0
  6 17  1  0
  7 18  1  0
  7 19  1  0
  8 20  1  0
  9 21  1  0
  9 22  1  0
  9 23  1  0
M  END
