
     RDKit          3D

 21 21  0  0  0  0  0  0  0  0999 V2000
    2.7760   -0.0276   -0.8979 C   0  0  0  0  0  0  0  0  0  0  0  0
    1.5204    0.1100   -0.0665 C   0  0  0  0  0  0  0  0  0  0  0  0
    0.3739   -0.1338   -0.7852 O   0  0  0  0  0  0  0  0  0  0  0  0
   -0.7520   -0.0091   -0.0108 C   0  0  0  0  0  0  0  0  0  0  0  0
   -0.9811    1.3481    0.6187 C   0  0  0  0  0  0  0  0  0  0  0  0
   -1.0791    2.2634   -0.4451 O   0  0  0  0  0  0  0  0  0  0  0  0
   -1.9986   -0.7500   -0.3550 C   0  0  0  0  0  0  0  0  0  0  0  0
   -1.1485   -1.1932    0.7889 C   0  0  0  0  0  0  0  0  0  0  0  0
   -0.5081   -2.4207    0.5981 O   0  0  0  0  0  0  0  0  0  0  0  0
    3.6308    0.0135   -0.1706 H   0  0  0  0  0  0  0  0  0  0  0  0
    2.8397   -0.9601   -1.4567 H   0  0  0  0  0  0  0  0  0  0  0  0
    2.8444    0.8384   -1.5758 H   0  0  0  0  0  0  0  0  0  0  0  0
    1.5551    1.1574    0.3563 H   0  0  0  0  0  0  0  0  0  0  0  0
    1.6097   -0.5594    0.8170 H   0  0  0  0  0  0  0  0  0  0  0  0
   -1.9399    1.3500    1.2136 H   0  0  0  0  0  0  0  0  0  0  0  0
   -0.1700    1.6735    1.2842 H   0  0  0  0  0  0  0  0  0  0  0  0
   -1.9940    2.4407   -0.7118 H   0  0  0  0  0  0  0  0  0  0  0  0
   -2.0658   -1.3686   -1.2703 H   0  0  0  0  0  0  0  0  0  0  0  0
   -2.9747   -0.3102   -0.0683 H   0  0  0  0  0  0  0  0  0  0  0  0
   -1.4444   -1.0008    1.8355 H   0  0  0  0  0  0  0  0  0  0  0  0
   -0.0939   -2.4616   -0.3153 H   0  0  0  0  0  0  0  0  0  0  0  0
  1  2  1  0
  2  3  1  0
  3  4  1  0
  4  5  1  0
  5  6  1  0
  4  7  1  0
  7  8  1  0
  8  9  1  0
  8  4  1  0
  1 10  1  0
  1 11  1  0
  1 12  1  0
  2 13  1  0
  2 14  1  0
  5 15  1  0
  5 16  1  0
  6 17  1  0
  7 18  1  0
  7 19  1  0
  8 20  1  0
  9 21  1  0
M  END
