
     RDKit          3D

 21 20  0  0  0  0  0  0  0  0999 V2000
    2.5754    1.0790    0.8429 C   0  0  0  0  0  0  0  0  0  0  0  0
    2.3679    0.3267   -0.4039 C   0  0  0  0  0  0  0  0  0  0  0  0
    1.1002   -0.0253   -0.7384 O   0  0  0  0  0  0  0  0  0  0  0  0
    0.4038   -0.8144    0.1101 C   0  0  0  0  0  0  0  0  0  0  0  0
   -0.9798   -1.0455   -0.5204 C   0  0  0  0  0  0  0  0  0  0  0  0
   -1.7646   -1.8460    0.2822 O   0  0  0  0  0  0  0  0  0  0  0  0
   -1.6584    0.2175   -0.8231 C   0  0  0  0  0  0  0  0  0  0  0  0
   -3.0098    0.4598   -0.2672 C   0  0  0  0  0  0  0  0  0  0  0  0
   -1.1548    1.0781   -1.5149 O   0  0  0  0  0  0  0  0  0  0  0  0
    2.5028    2.1847    0.6702 H   0  0  0  0  0  0  0  0  0  0  0  0
    1.9495    0.7917    1.7003 H   0  0  0  0  0  0  0  0  0  0  0  0
    3.6408    0.9246    1.1843 H   0  0  0  0  0  0  0  0  0  0  0  0
    2.9887   -0.6168   -0.3517 H   0  0  0  0  0  0  0  0  0  0  0  0
    2.8036    0.9035   -1.2485 H   0  0  0  0  0  0  0  0  0  0  0  0
    0.8019   -1.8259    0.2710 H   0  0  0  0  0  0  0  0  0  0  0  0
    0.2573   -0.3561    1.1094 H   0  0  0  0  0  0  0  0  0  0  0  0
   -0.8513   -1.5889   -1.4995 H   0  0  0  0  0  0  0  0  0  0  0  0
   -1.7841   -1.4537    1.1835 H   0  0  0  0  0  0  0  0  0  0  0  0
   -2.9865    0.6607    0.8296 H   0  0  0  0  0  0  0  0  0  0  0  0
   -3.5067    1.3419   -0.7257 H   0  0  0  0  0  0  0  0  0  0  0  0
   -3.6961   -0.3954   -0.4134 H   0  0  0  0  0  0  0  0  0  0  0  0
  1  2  1  0
  2  3  1  0
  3  4  1  0
  4  5  1  0
  5  6  1  0
  5  7  1  0
  7  8  1  0
  7  9  2  0
  1 10  1  0
  1 11  1  0
  1 12  1  0
  2 13  1  0
  2 14  1  0
  4 15  1  0
  4 16  1  0
  5 17  1  0
  6 18  1  0
  8 19  1  0
  8 20  1  0
  8 21  1  0
M  END
