
     RDKit          3D

 23 23  0  0  0  0  0  0  0  0999 V2000
    3.5878   -0.4722    0.6188 C   0  0  0  0  0  0  0  0  0  0  0  0
    2.5453   -0.3324   -0.4706 C   0  0  0  0  0  0  0  0  0  0  0  0
    1.3581    0.0174    0.1250 O   0  0  0  0  0  0  0  0  0  0  0  0
    0.3135    0.1766   -0.7821 C   0  0  0  0  0  0  0  0  0  0  0  0
   -0.9095    0.5549    0.0053 C   0  0  0  0  0  0  0  0  0  0  0  0
   -2.1207    0.7543   -0.9102 C   0  0  0  0  0  0  0  0  0  0  0  0
   -3.2173    0.6576    0.0824 C   0  0  0  0  0  0  0  0  0  0  0  0
   -2.8396   -0.1018    1.1021 C   0  0  0  0  0  0  0  0  0  0  0  0
   -1.4256   -0.5815    0.8604 C   0  0  0  0  0  0  0  0  0  0  0  0
    3.0614   -0.7538    1.5735 H   0  0  0  0  0  0  0  0  0  0  0  0
    4.0712    0.4965    0.7752 H   0  0  0  0  0  0  0  0  0  0  0  0
    4.2891   -1.2997    0.4153 H   0  0  0  0  0  0  0  0  0  0  0  0
    2.4977   -1.2634   -1.0668 H   0  0  0  0  0  0  0  0  0  0  0  0
    2.9027    0.4776   -1.1527 H   0  0  0  0  0  0  0  0  0  0  0  0
    0.1571   -0.8085   -1.2689 H   0  0  0  0  0  0  0  0  0  0  0  0
    0.5959    0.9360   -1.5199 H   0  0  0  0  0  0  0  0  0  0  0  0
   -0.7526    1.4596    0.6155 H   0  0  0  0  0  0  0  0  0  0  0  0
   -2.0876    1.6941   -1.4505 H   0  0  0  0  0  0  0  0  0  0  0  0
   -2.1672   -0.1511   -1.5460 H   0  0  0  0  0  0  0  0  0  0  0  0
   -4.1780    1.1295   -0.0043 H   0  0  0  0  0  0  0  0  0  0  0  0
   -3.3711   -0.3886    1.9954 H   0  0  0  0  0  0  0  0  0  0  0  0
   -0.8714   -0.7191    1.7873 H   0  0  0  0  0  0  0  0  0  0  0  0
   -1.4390   -1.4819    0.2159 H   0  0  0  0  0  0  0  0  0  0  0  0
  1  2  1  0
  2  3  1  0
  3  4  1  0
  4  5  1  0
  5  6  1  0
  6  7  1  0
  7  8  2  0
  8  9  1  0
  9  5  1  0
  1 10  1  0
  1 11  1  0
  1 12  1  0
  2 13  1  0
  2 14  1  0
  4 15  1  0
  4 16  1  0
  5 17  1  0
  6 18  1  0
  6 19  1  0
  7 20  1  0
  8 21  1  0
  9 22  1  0
  9 23  1  0
M  END
