
     RDKit          3D

 21 21  0  0  0  0  0  0  0  0999 V2000
    2.7573    0.8142    0.4353 C   0  0  0  0  0  0  0  0  0  0  0  0
    1.4548    0.5856   -0.3063 C   0  0  0  0  0  0  0  0  0  0  0  0
    0.6741   -0.2182    0.4868 O   0  0  0  0  0  0  0  0  0  0  0  0
   -0.5557   -0.5278   -0.0394 C   0  0  0  0  0  0  0  0  0  0  0  0
   -1.4860    0.6138   -0.3432 C   0  0  0  0  0  0  0  0  0  0  0  0
   -1.8135    1.4069    0.8490 C   0  0  0  0  0  0  0  0  0  0  0  0
   -1.3833    1.1720    1.9628 O   0  0  0  0  0  0  0  0  0  0  0  0
   -0.6769   -1.7472   -0.9687 C   0  0  0  0  0  0  0  0  0  0  0  0
   -1.1369   -1.8309    0.4305 C   0  0  0  0  0  0  0  0  0  0  0  0
    3.4241   -0.0621    0.2949 H   0  0  0  0  0  0  0  0  0  0  0  0
    3.2098    1.7640    0.0843 H   0  0  0  0  0  0  0  0  0  0  0  0
    2.5028    0.8741    1.5136 H   0  0  0  0  0  0  0  0  0  0  0  0
    1.0158    1.5908   -0.4817 H   0  0  0  0  0  0  0  0  0  0  0  0
    1.7324    0.0903   -1.2712 H   0  0  0  0  0  0  0  0  0  0  0  0
   -0.9665    1.2613   -1.0944 H   0  0  0  0  0  0  0  0  0  0  0  0
   -2.3984    0.2420   -0.8704 H   0  0  0  0  0  0  0  0  0  0  0  0
   -2.4774    2.2527    0.7359 H   0  0  0  0  0  0  0  0  0  0  0  0
    0.2719   -2.1974   -1.3014 H   0  0  0  0  0  0  0  0  0  0  0  0
   -1.4152   -1.6649   -1.8125 H   0  0  0  0  0  0  0  0  0  0  0  0
   -2.2125   -1.9324    0.5958 H   0  0  0  0  0  0  0  0  0  0  0  0
   -0.5210   -2.4867    1.1001 H   0  0  0  0  0  0  0  0  0  0  0  0
  1  2  1  0
  2  3  1  0
  3  4  1  0
  4  5  1  0
  5  6  1  0
  6  7  2  0
  4  8  1  0
  8  9  1  0
  9  4  1  0
  1 10  1  0
  1 11  1  0
  1 12  1  0
  2 13  1  0
  2 14  1  0
  5 15  1  0
  5 16  1  0
  6 17  1  0
  8 18  1  0
  8 19  1  0
  9 20  1  0
  9 21  1  0
M  END
