
     RDKit          3D

 23 23  0  0  0  0  0  0  0  0999 V2000
    2.7669   -0.4631    0.0127 C   0  0  0  0  0  0  0  0  0  0  0  0
    2.0309    0.8476   -0.0154 C   0  0  0  0  0  0  0  0  0  0  0  0
    0.8157    0.8705   -0.5600 O   0  0  0  0  0  0  0  0  0  0  0  0
   -0.2336    0.1703   -0.0983 C   0  0  0  0  0  0  0  0  0  0  0  0
   -0.0853   -1.3525   -0.1148 C   0  0  0  0  0  0  0  0  0  0  0  0
   -0.7243    0.5218    1.2253 C   0  0  0  0  0  0  0  0  0  0  0  0
   -2.0389    0.4971    1.2414 C   0  0  0  0  0  0  0  0  0  0  0  0
   -2.5827    0.1207   -0.0966 C   0  0  0  0  0  0  0  0  0  0  0  0
   -1.4265    0.5181   -1.0050 C   0  0  0  0  0  0  0  0  0  0  0  0
    3.8228   -0.2467    0.3307 H   0  0  0  0  0  0  0  0  0  0  0  0
    2.3936   -1.1952    0.7231 H   0  0  0  0  0  0  0  0  0  0  0  0
    2.8362   -0.8301   -1.0484 H   0  0  0  0  0  0  0  0  0  0  0  0
    2.1199    1.2969    1.0027 H   0  0  0  0  0  0  0  0  0  0  0  0
    2.6965    1.5341   -0.6351 H   0  0  0  0  0  0  0  0  0  0  0  0
    0.1016   -1.7040    0.9137 H   0  0  0  0  0  0  0  0  0  0  0  0
    0.6627   -1.7111   -0.8256 H   0  0  0  0  0  0  0  0  0  0  0  0
   -1.0868   -1.7919   -0.4028 H   0  0  0  0  0  0  0  0  0  0  0  0
   -0.1704    0.7871    2.1494 H   0  0  0  0  0  0  0  0  0  0  0  0
   -2.7206    0.7120    2.0870 H   0  0  0  0  0  0  0  0  0  0  0  0
   -3.4531    0.7779   -0.3000 H   0  0  0  0  0  0  0  0  0  0  0  0
   -2.8930   -0.9148   -0.1872 H   0  0  0  0  0  0  0  0  0  0  0  0
   -1.4031   -0.0526   -1.9370 H   0  0  0  0  0  0  0  0  0  0  0  0
   -1.4285    1.6080   -1.1488 H   0  0  0  0  0  0  0  0  0  0  0  0
  1  2  1  0
  2  3  1  0
  3  4  1  0
  4  5  1  0
  4  6  1  0
  6  7  2  0
  7  8  1  0
  8  9  1  0
  9  4  1  0
  1 10  1  0
  1 11  1  0
  1 12  1  0
  2 13  1  0
  2 14  1  0
  5 15  1  0
  5 16  1  0
  5 17  1  0
  6 18  1  0
  7 19  1  0
  8 20  1  0
  8 21  1  0
  9 22  1  0
  9 23  1  0
M  END
