
     RDKit          3D

 19 20  0  0  0  0  0  0  0  0999 V2000
    2.3764    0.7113    0.0261 C   0  0  0  0  0  0  0  0  0  0  0  0
    2.0084   -0.7326   -0.2248 C   0  0  0  0  0  0  0  0  0  0  0  0
    0.7769   -1.0348    0.3464 O   0  0  0  0  0  0  0  0  0  0  0  0
   -0.2505   -0.2741   -0.1450 C   0  0  0  0  0  0  0  0  0  0  0  0
   -1.1729    0.2555    0.9301 C   0  0  0  0  0  0  0  0  0  0  0  0
   -2.2500    0.9536    0.1704 C   0  0  0  0  0  0  0  0  0  0  0  0
   -2.4644    0.0792   -0.8147 C   0  0  0  0  0  0  0  0  0  0  0  0
   -1.5167   -1.0128   -0.4413 C   0  0  0  0  0  0  0  0  0  0  0  0
   -1.7080   -1.0538    0.9604 O   0  0  0  0  0  0  0  0  0  0  0  0
    2.9474    1.0779   -0.8731 H   0  0  0  0  0  0  0  0  0  0  0  0
    1.4859    1.3420    0.1654 H   0  0  0  0  0  0  0  0  0  0  0  0
    3.1020    0.7921    0.8775 H   0  0  0  0  0  0  0  0  0  0  0  0
    2.7862   -1.3872    0.2123 H   0  0  0  0  0  0  0  0  0  0  0  0
    2.0177   -0.9548   -1.3277 H   0  0  0  0  0  0  0  0  0  0  0  0
   -0.0118    0.4749   -0.9156 H   0  0  0  0  0  0  0  0  0  0  0  0
   -0.7860    0.6693    1.8137 H   0  0  0  0  0  0  0  0  0  0  0  0
   -2.6938    1.9081    0.4060 H   0  0  0  0  0  0  0  0  0  0  0  0
   -3.1284    0.1056   -1.6694 H   0  0  0  0  0  0  0  0  0  0  0  0
   -1.5184   -1.9194   -0.9772 H   0  0  0  0  0  0  0  0  0  0  0  0
  1  2  1  0
  2  3  1  0
  3  4  1  0
  4  5  1  0
  5  6  1  0
  6  7  2  0
  7  8  1  0
  8  9  1  0
  8  4  1  0
  9  5  1  0
  1 10  1  0
  1 11  1  0
  1 12  1  0
  2 13  1  0
  2 14  1  0
  4 15  1  0
  5 16  1  0
  6 17  1  0
  7 18  1  0
  8 19  1  0
M  END
