
     RDKit          3D

 22 21  0  0  0  0  0  0  0  0999 V2000
   -2.1630    1.8202   -0.1997 C   0  0  0  0  0  0  0  0  0  0  0  0
   -1.4778    0.6494    0.4779 C   0  0  0  0  0  0  0  0  0  0  0  0
   -0.6422    0.0690   -0.4627 O   0  0  0  0  0  0  0  0  0  0  0  0
    0.0601   -1.0111   -0.0082 C   0  0  0  0  0  0  0  0  0  0  0  0
   -0.2727   -2.2883   -0.7661 C   0  0  0  0  0  0  0  0  0  0  0  0
    1.5328   -0.7213   -0.2177 C   0  0  0  0  0  0  0  0  0  0  0  0
    2.0082    0.4998    0.5123 C   0  0  0  0  0  0  0  0  0  0  0  0
    1.3573    1.6530    0.1333 O   0  0  0  0  0  0  0  0  0  0  0  0
   -1.4565    2.6938   -0.1074 H   0  0  0  0  0  0  0  0  0  0  0  0
   -2.2773    1.5804   -1.2584 H   0  0  0  0  0  0  0  0  0  0  0  0
   -3.1219    2.0265    0.3220 H   0  0  0  0  0  0  0  0  0  0  0  0
   -2.3046   -0.0443    0.7789 H   0  0  0  0  0  0  0  0  0  0  0  0
   -0.9952    1.0102    1.3833 H   0  0  0  0  0  0  0  0  0  0  0  0
   -0.1418   -1.2528    1.0544 H   0  0  0  0  0  0  0  0  0  0  0  0
    0.4052   -3.0731   -0.3282 H   0  0  0  0  0  0  0  0  0  0  0  0
   -1.3235   -2.5222   -0.5358 H   0  0  0  0  0  0  0  0  0  0  0  0
   -0.1202   -2.1744   -1.8417 H   0  0  0  0  0  0  0  0  0  0  0  0
    2.1347   -1.6022    0.1021 H   0  0  0  0  0  0  0  0  0  0  0  0
    1.7749   -0.5780   -1.2910 H   0  0  0  0  0  0  0  0  0  0  0  0
    1.9428    0.3329    1.6177 H   0  0  0  0  0  0  0  0  0  0  0  0
    3.0926    0.6000    0.2979 H   0  0  0  0  0  0  0  0  0  0  0  0
    1.9879    2.3325   -0.1815 H   0  0  0  0  0  0  0  0  0  0  0  0
  1  2  1  0
  2  3  1  0
  3  4  1  0
  4  5  1  0
  4  6  1  0
  6  7  1  0
  7  8  1  0
  1  9  1  0
  1 10  1  0
  1 11  1  0
  2 12  1  0
  2 13  1  0
  4 14  1  0
  5 15  1  0
  5 16  1  0
  5 17  1  0
  6 18  1  0
  6 19  1  0
  7 20  1  0
  7 21  1  0
  8 22  1  0
M  END
