
     RDKit          3D

 21 22  0  0  0  0  0  0  0  0999 V2000
    3.2451    0.2026   -0.4358 C   0  0  0  0  0  0  0  0  0  0  0  0
    1.9298    0.3900    0.2998 C   0  0  0  0  0  0  0  0  0  0  0  0
    1.3089   -0.8209    0.3722 O   0  0  0  0  0  0  0  0  0  0  0  0
    0.0956   -0.8483    1.0254 C   0  0  0  0  0  0  0  0  0  0  0  0
   -0.8905    0.0135    0.3518 C   0  0  0  0  0  0  0  0  0  0  0  0
   -2.2651    0.0933    0.9366 C   0  0  0  0  0  0  0  0  0  0  0  0
   -2.7397    0.5384   -0.4089 C   0  0  0  0  0  0  0  0  0  0  0  0
   -1.8454   -0.6344   -0.6057 C   0  0  0  0  0  0  0  0  0  0  0  0
   -2.4528   -1.2065    0.4981 O   0  0  0  0  0  0  0  0  0  0  0  0
    3.5396   -0.8715   -0.4404 H   0  0  0  0  0  0  0  0  0  0  0  0
    3.1424    0.4931   -1.5000 H   0  0  0  0  0  0  0  0  0  0  0  0
    4.0223    0.8084    0.0270 H   0  0  0  0  0  0  0  0  0  0  0  0
    2.1854    0.7130    1.3296 H   0  0  0  0  0  0  0  0  0  0  0  0
    1.4050    1.2061   -0.1893 H   0  0  0  0  0  0  0  0  0  0  0  0
   -0.2202   -1.8939    1.1848 H   0  0  0  0  0  0  0  0  0  0  0  0
    0.2855   -0.4177    2.0428 H   0  0  0  0  0  0  0  0  0  0  0  0
   -0.5503    0.9659   -0.0407 H   0  0  0  0  0  0  0  0  0  0  0  0
   -2.5239    0.4749    1.8325 H   0  0  0  0  0  0  0  0  0  0  0  0
   -2.2575    1.4699   -0.7506 H   0  0  0  0  0  0  0  0  0  0  0  0
   -3.8061    0.4170   -0.6066 H   0  0  0  0  0  0  0  0  0  0  0  0
   -1.6083   -1.0930   -1.4725 H   0  0  0  0  0  0  0  0  0  0  0  0
  1  2  1  0
  2  3  1  0
  3  4  1  0
  4  5  1  0
  5  6  1  0
  6  7  1  0
  7  8  1  0
  8  9  1  0
  8  5  1  0
  9  6  1  0
  1 10  1  0
  1 11  1  0
  1 12  1  0
  2 13  1  0
  2 14  1  0
  4 15  1  0
  4 16  1  0
  5 17  1  0
  6 18  1  0
  7 19  1  0
  7 20  1  0
  8 21  1  0
M  END
