
     RDKit          3D

 25 24  0  0  0  0  0  0  0  0999 V2000
    3.4005    1.0563   -0.3210 C   0  0  0  0  0  0  0  0  0  0  0  0
    2.0295    0.7131    0.2228 C   0  0  0  0  0  0  0  0  0  0  0  0
    1.4174   -0.1842   -0.6499 O   0  0  0  0  0  0  0  0  0  0  0  0
    0.1559   -0.5531   -0.2292 C   0  0  0  0  0  0  0  0  0  0  0  0
    0.1234   -2.0210   -0.0137 C   0  0  0  0  0  0  0  0  0  0  0  0
   -0.8438   -0.0326   -1.2140 C   0  0  0  0  0  0  0  0  0  0  0  0
   -0.6965    1.3654   -1.2297 O   0  0  0  0  0  0  0  0  0  0  0  0
   -2.2724   -0.2951   -0.7936 C   0  0  0  0  0  0  0  0  0  0  0  0
   -2.6008    0.3555    0.5335 C   0  0  0  0  0  0  0  0  0  0  0  0
    3.3100    1.5092   -1.3379 H   0  0  0  0  0  0  0  0  0  0  0  0
    3.9315    0.0767   -0.4675 H   0  0  0  0  0  0  0  0  0  0  0  0
    3.9204    1.7069    0.3938 H   0  0  0  0  0  0  0  0  0  0  0  0
    1.4703    1.6597    0.3134 H   0  0  0  0  0  0  0  0  0  0  0  0
    2.1698    0.1842    1.1778 H   0  0  0  0  0  0  0  0  0  0  0  0
   -0.0352   -0.0053    0.7395 H   0  0  0  0  0  0  0  0  0  0  0  0
    0.9672   -2.5641   -0.5218 H   0  0  0  0  0  0  0  0  0  0  0  0
   -0.8076   -2.5235   -0.3167 H   0  0  0  0  0  0  0  0  0  0  0  0
    0.2718   -2.2137    1.0702 H   0  0  0  0  0  0  0  0  0  0  0  0
   -0.7176   -0.3841   -2.2357 H   0  0  0  0  0  0  0  0  0  0  0  0
   -1.5484    1.8320   -1.3562 H   0  0  0  0  0  0  0  0  0  0  0  0
   -2.9341    0.1692   -1.5546 H   0  0  0  0  0  0  0  0  0  0  0  0
   -2.5210   -1.3549   -0.7334 H   0  0  0  0  0  0  0  0  0  0  0  0
   -3.7230    0.3827    0.5925 H   0  0  0  0  0  0  0  0  0  0  0  0
   -2.1913    1.3711    0.5278 H   0  0  0  0  0  0  0  0  0  0  0  0
   -2.2761   -0.2504    1.4005 H   0  0  0  0  0  0  0  0  0  0  0  0
  1  2  1  0
  2  3  1  0
  3  4  1  0
  4  5  1  0
  4  6  1  0
  6  7  1  0
  6  8  1  0
  8  9  1  0
  1 10  1  0
  1 11  1  0
  1 12  1  0
  2 13  1  0
  2 14  1  0
  4 15  1  0
  5 16  1  0
  5 17  1  0
  5 18  1  0
  6 19  1  0
  7 20  1  0
  8 21  1  0
  8 22  1  0
  9 23  1  0
  9 24  1  0
  9 25  1  0
M  END
