
     RDKit          3D

 16 15  0  0  0  0  0  0  0  0999 V2000
    2.4722    0.1977   -0.4734 C   0  0  0  0  0  0  0  0  0  0  0  0
    1.1902   -0.3846    0.0090 C   0  0  0  0  0  0  0  0  0  0  0  0
    0.0903    0.4402   -0.2166 O   0  0  0  0  0  0  0  0  0  0  0  0
   -1.0840   -0.1099    0.2332 C   0  0  0  0  0  0  0  0  0  0  0  0
   -2.0067   -0.2713   -0.9223 C   0  0  0  0  0  0  0  0  0  0  0  0
   -1.6699    0.0636   -2.0383 O   0  0  0  0  0  0  0  0  0  0  0  0
   -1.7697    0.7061    1.2499 C   0  0  0  0  0  0  0  0  0  0  0  0
   -2.8210    0.3716    1.7573 O   0  0  0  0  0  0  0  0  0  0  0  0
    2.4620    1.3201   -0.3543 H   0  0  0  0  0  0  0  0  0  0  0  0
    3.2908   -0.1527    0.1889 H   0  0  0  0  0  0  0  0  0  0  0  0
    2.7513   -0.1067   -1.4986 H   0  0  0  0  0  0  0  0  0  0  0  0
    1.2712   -0.5663    1.1027 H   0  0  0  0  0  0  0  0  0  0  0  0
    1.0130   -1.3452   -0.5210 H   0  0  0  0  0  0  0  0  0  0  0  0
   -0.8645   -1.1109    0.6820 H   0  0  0  0  0  0  0  0  0  0  0  0
   -2.9932   -0.6937   -0.7651 H   0  0  0  0  0  0  0  0  0  0  0  0
   -1.3318    1.6421    1.5666 H   0  0  0  0  0  0  0  0  0  0  0  0
  1  2  1  0
  2  3  1  0
  3  4  1  0
  4  5  1  0
  5  6  2  0
  4  7  1  0
  7  8  2  0
  1  9  1  0
  1 10  1  0
  1 11  1  0
  2 12  1  0
  2 13  1  0
  4 14  1  0
  5 15  1  0
  7 16  1  0
M  END
