
     RDKit          3D

 21 21  0  0  0  0  0  0  0  0999 V2000
    2.9905    0.2893   -0.4498 C   0  0  0  0  0  0  0  0  0  0  0  0
    1.6934   -0.0492    0.2964 C   0  0  0  0  0  0  0  0  0  0  0  0
    0.6628    0.1619   -0.5712 O   0  0  0  0  0  0  0  0  0  0  0  0
   -0.5926   -0.0848   -0.0952 C   0  0  0  0  0  0  0  0  0  0  0  0
   -0.8517   -1.5086    0.3701 C   0  0  0  0  0  0  0  0  0  0  0  0
   -1.6362    0.3656   -1.1027 C   0  0  0  0  0  0  0  0  0  0  0  0
   -2.4747    0.7681    0.0572 C   0  0  0  0  0  0  0  0  0  0  0  0
   -3.6684    0.9119    0.2271 O   0  0  0  0  0  0  0  0  0  0  0  0
   -1.2108    0.8931    0.8343 C   0  0  0  0  0  0  0  0  0  0  0  0
    2.8113    0.3402   -1.5463 H   0  0  0  0  0  0  0  0  0  0  0  0
    3.7655   -0.4763   -0.2877 H   0  0  0  0  0  0  0  0  0  0  0  0
    3.3920    1.2714   -0.1190 H   0  0  0  0  0  0  0  0  0  0  0  0
    1.6382    0.5233    1.2383 H   0  0  0  0  0  0  0  0  0  0  0  0
    1.7565   -1.1482    0.5144 H   0  0  0  0  0  0  0  0  0  0  0  0
   -0.4900   -2.1709   -0.4477 H   0  0  0  0  0  0  0  0  0  0  0  0
   -1.9299   -1.6883    0.4672 H   0  0  0  0  0  0  0  0  0  0  0  0
   -0.3376   -1.7120    1.3113 H   0  0  0  0  0  0  0  0  0  0  0  0
   -2.0472   -0.4365   -1.7379 H   0  0  0  0  0  0  0  0  0  0  0  0
   -1.2890    1.2811   -1.6547 H   0  0  0  0  0  0  0  0  0  0  0  0
   -0.8582    1.9306    0.8087 H   0  0  0  0  0  0  0  0  0  0  0  0
   -1.3240    0.5382    1.8873 H   0  0  0  0  0  0  0  0  0  0  0  0
  1  2  1  0
  2  3  1  0
  3  4  1  0
  4  5  1  0
  4  6  1  0
  6  7  1  0
  7  8  2  0
  7  9  1  0
  9  4  1  0
  1 10  1  0
  1 11  1  0
  1 12  1  0
  2 13  1  0
  2 14  1  0
  5 15  1  0
  5 16  1  0
  5 17  1  0
  6 18  1  0
  6 19  1  0
  9 20  1  0
  9 21  1  0
M  END
