
     RDKit          3D

 21 21  0  0  0  0  0  0  0  0999 V2000
    3.3277   -0.1071    0.2631 C   0  0  0  0  0  0  0  0  0  0  0  0
    2.0652    0.1799   -0.5308 C   0  0  0  0  0  0  0  0  0  0  0  0
    0.9932   -0.1524    0.2707 O   0  0  0  0  0  0  0  0  0  0  0  0
   -0.2258    0.0890   -0.4042 C   0  0  0  0  0  0  0  0  0  0  0  0
   -0.9459   -1.1867   -0.4100 C   0  0  0  0  0  0  0  0  0  0  0  0
   -2.1907   -1.2992   -0.0389 C   0  0  0  0  0  0  0  0  0  0  0  0
   -2.9518   -0.1171    0.4162 C   0  0  0  0  0  0  0  0  0  0  0  0
   -2.3603    1.0620    0.0671 O   0  0  0  0  0  0  0  0  0  0  0  0
   -0.9975    1.0767    0.4404 C   0  0  0  0  0  0  0  0  0  0  0  0
    3.9252    0.8198    0.3013 H   0  0  0  0  0  0  0  0  0  0  0  0
    3.9291   -0.8691   -0.2728 H   0  0  0  0  0  0  0  0  0  0  0  0
    3.1078   -0.5234    1.2656 H   0  0  0  0  0  0  0  0  0  0  0  0
    2.0359    1.2005   -0.9291 H   0  0  0  0  0  0  0  0  0  0  0  0
    2.0169   -0.5075   -1.4257 H   0  0  0  0  0  0  0  0  0  0  0  0
   -0.0298    0.4903   -1.4225 H   0  0  0  0  0  0  0  0  0  0  0  0
   -0.4195   -2.0967   -0.7414 H   0  0  0  0  0  0  0  0  0  0  0  0
   -2.7144   -2.2890   -0.0549 H   0  0  0  0  0  0  0  0  0  0  0  0
   -3.9414   -0.1692   -0.1290 H   0  0  0  0  0  0  0  0  0  0  0  0
   -3.1058   -0.1565    1.5145 H   0  0  0  0  0  0  0  0  0  0  0  0
   -0.6123    2.1132    0.3119 H   0  0  0  0  0  0  0  0  0  0  0  0
   -0.9057    0.8112    1.5086 H   0  0  0  0  0  0  0  0  0  0  0  0
  1  2  1  0
  2  3  1  0
  3  4  1  0
  4  5  1  0
  5  6  2  0
  6  7  1  0
  7  8  1  0
  8  9  1  0
  9  4  1  0
  1 10  1  0
  1 11  1  0
  1 12  1  0
  2 13  1  0
  2 14  1  0
  4 15  1  0
  5 16  1  0
  6 17  1  0
  7 18  1  0
  7 19  1  0
  9 20  1  0
  9 21  1  0
M  END
