
     RDKit          3D

 25 25  0  0  0  0  0  0  0  0999 V2000
    3.8978   -0.3519   -0.8877 C   0  0  0  0  0  0  0  0  0  0  0  0
    2.8837   -0.4545    0.2318 C   0  0  0  0  0  0  0  0  0  0  0  0
    1.6522   -0.0991   -0.2443 O   0  0  0  0  0  0  0  0  0  0  0  0
    0.6396   -0.1509    0.6809 C   0  0  0  0  0  0  0  0  0  0  0  0
   -0.6396   -0.8305    0.2229 C   0  0  0  0  0  0  0  0  0  0  0  0
   -1.2717    0.4828   -0.1372 C   0  0  0  0  0  0  0  0  0  0  0  0
   -2.5838    0.7867    0.5263 C   0  0  0  0  0  0  0  0  0  0  0  0
   -3.6561   -0.2236    0.2192 C   0  0  0  0  0  0  0  0  0  0  0  0
   -0.1452    1.1671    0.6475 C   0  0  0  0  0  0  0  0  0  0  0  0
    4.3462    0.6723   -0.8673 H   0  0  0  0  0  0  0  0  0  0  0  0
    3.3483   -0.5148   -1.8380 H   0  0  0  0  0  0  0  0  0  0  0  0
    4.7232   -1.0901   -0.7732 H   0  0  0  0  0  0  0  0  0  0  0  0
    3.2470    0.1558    1.0779 H   0  0  0  0  0  0  0  0  0  0  0  0
    2.8404   -1.5149    0.5971 H   0  0  0  0  0  0  0  0  0  0  0  0
    0.9294   -0.4726    1.7038 H   0  0  0  0  0  0  0  0  0  0  0  0
   -0.4436   -1.5147   -0.6043 H   0  0  0  0  0  0  0  0  0  0  0  0
   -1.1484   -1.3751    1.0457 H   0  0  0  0  0  0  0  0  0  0  0  0
   -1.2512    0.6623   -1.2142 H   0  0  0  0  0  0  0  0  0  0  0  0
   -2.4577    0.9063    1.6182 H   0  0  0  0  0  0  0  0  0  0  0  0
   -2.9316    1.7662    0.1281 H   0  0  0  0  0  0  0  0  0  0  0  0
   -3.4669   -0.7954   -0.7040 H   0  0  0  0  0  0  0  0  0  0  0  0
   -4.6433    0.2697    0.0897 H   0  0  0  0  0  0  0  0  0  0  0  0
   -3.7738   -0.8956    1.1191 H   0  0  0  0  0  0  0  0  0  0  0  0
    0.3149    1.9532    0.0422 H   0  0  0  0  0  0  0  0  0  0  0  0
   -0.4096    1.4614    1.6639 H   0  0  0  0  0  0  0  0  0  0  0  0
  1  2  1  0
  2  3  1  0
  3  4  1  0
  4  5  1  0
  5  6  1  0
  6  7  1  0
  7  8  1  0
  6  9  1  0
  9  4  1  0
  1 10  1  0
  1 11  1  0
  1 12  1  0
  2 13  1  0
  2 14  1  0
  4 15  1  0
  5 16  1  0
  5 17  1  0
  6 18  1  0
  7 19  1  0
  7 20  1  0
  8 21  1  0
  8 22  1  0
  8 23  1  0
  9 24  1  0
  9 25  1  0
M  END
