
     RDKit          3D

 23 22  0  0  0  0  0  0  0  0999 V2000
    2.5686   -1.4317    0.3999 C   0  0  0  0  0  0  0  0  0  0  0  0
    1.4507   -0.8515   -0.4357 C   0  0  0  0  0  0  0  0  0  0  0  0
    0.6054   -0.0879    0.3679 O   0  0  0  0  0  0  0  0  0  0  0  0
   -0.4411    0.4658   -0.3678 C   0  0  0  0  0  0  0  0  0  0  0  0
   -1.7796   -0.0028    0.0660 C   0  0  0  0  0  0  0  0  0  0  0  0
   -1.8356   -1.5098   -0.0980 C   0  0  0  0  0  0  0  0  0  0  0  0
   -0.2582    1.9503   -0.3722 C   0  0  0  0  0  0  0  0  0  0  0  0
   -0.2670    2.5620    0.9696 C   0  0  0  0  0  0  0  0  0  0  0  0
   -0.1222    3.7689    1.0320 O   0  0  0  0  0  0  0  0  0  0  0  0
    3.5193   -1.4015   -0.1583 H   0  0  0  0  0  0  0  0  0  0  0  0
    2.6984   -0.8568    1.3625 H   0  0  0  0  0  0  0  0  0  0  0  0
    2.3451   -2.5049    0.6499 H   0  0  0  0  0  0  0  0  0  0  0  0
    1.9121   -0.2559   -1.2484 H   0  0  0  0  0  0  0  0  0  0  0  0
    0.8962   -1.7070   -0.8840 H   0  0  0  0  0  0  0  0  0  0  0  0
   -0.2983    0.1270   -1.4310 H   0  0  0  0  0  0  0  0  0  0  0  0
   -2.0484    0.2330    1.0968 H   0  0  0  0  0  0  0  0  0  0  0  0
   -2.5362    0.4072   -0.6345 H   0  0  0  0  0  0  0  0  0  0  0  0
   -1.2283   -2.0333    0.6732 H   0  0  0  0  0  0  0  0  0  0  0  0
   -1.5100   -1.7754   -1.1227 H   0  0  0  0  0  0  0  0  0  0  0  0
   -2.8865   -1.8266    0.0645 H   0  0  0  0  0  0  0  0  0  0  0  0
    0.6874    2.2476   -0.8694 H   0  0  0  0  0  0  0  0  0  0  0  0
   -1.0815    2.4447   -0.9670 H   0  0  0  0  0  0  0  0  0  0  0  0
   -0.3902    2.0387    1.9067 H   0  0  0  0  0  0  0  0  0  0  0  0
  1  2  1  0
  2  3  1  0
  3  4  1  0
  4  5  1  0
  5  6  1  0
  4  7  1  0
  7  8  1  0
  8  9  2  0
  1 10  1  0
  1 11  1  0
  1 12  1  0
  2 13  1  0
  2 14  1  0
  4 15  1  0
  5 16  1  0
  5 17  1  0
  6 18  1  0
  6 19  1  0
  6 20  1  0
  7 21  1  0
  7 22  1  0
  8 23  1  0
M  END
