
     RDKit          3D

 22 22  0  0  0  0  0  0  0  0999 V2000
    2.9350    0.0711    0.0022 C   0  0  0  0  0  0  0  0  0  0  0  0
    2.0505   -1.0522   -0.4859 C   0  0  0  0  0  0  0  0  0  0  0  0
    0.8372   -1.0947    0.1998 O   0  0  0  0  0  0  0  0  0  0  0  0
    0.1691    0.0961    0.0142 C   0  0  0  0  0  0  0  0  0  0  0  0
   -0.5885    0.5747    1.2320 C   0  0  0  0  0  0  0  0  0  0  0  0
   -1.3166    0.1505   -0.0005 C   0  0  0  0  0  0  0  0  0  0  0  0
   -1.9783    1.2826   -0.7669 C   0  0  0  0  0  0  0  0  0  0  0  0
   -2.1127   -1.1235    0.0025 C   0  0  0  0  0  0  0  0  0  0  0  0
    3.9691   -0.2854    0.1891 H   0  0  0  0  0  0  0  0  0  0  0  0
    3.0323    0.8860   -0.7572 H   0  0  0  0  0  0  0  0  0  0  0  0
    2.5392    0.5020    0.9506 H   0  0  0  0  0  0  0  0  0  0  0  0
    2.5991   -2.0059   -0.4397 H   0  0  0  0  0  0  0  0  0  0  0  0
    1.7812   -0.8150   -1.5506 H   0  0  0  0  0  0  0  0  0  0  0  0
    0.6737    0.8642   -0.6191 H   0  0  0  0  0  0  0  0  0  0  0  0
   -0.4386    1.6480    1.4612 H   0  0  0  0  0  0  0  0  0  0  0  0
   -0.6075   -0.0779    2.1396 H   0  0  0  0  0  0  0  0  0  0  0  0
   -3.0827    1.2727   -0.5531 H   0  0  0  0  0  0  0  0  0  0  0  0
   -1.7567    1.1352   -1.8335 H   0  0  0  0  0  0  0  0  0  0  0  0
   -1.5976    2.2732   -0.4080 H   0  0  0  0  0  0  0  0  0  0  0  0
   -1.5175   -2.0321    0.1144 H   0  0  0  0  0  0  0  0  0  0  0  0
   -2.9604   -1.0782    0.7481 H   0  0  0  0  0  0  0  0  0  0  0  0
   -2.6293   -1.1915   -0.9894 H   0  0  0  0  0  0  0  0  0  0  0  0
  1  2  1  0
  2  3  1  0
  3  4  1  0
  4  5  1  0
  5  6  1  0
  6  7  1  0
  6  8  1  0
  6  4  1  0
  1  9  1  0
  1 10  1  0
  1 11  1  0
  2 12  1  0
  2 13  1  0
  4 14  1  0
  5 15  1  0
  5 16  1  0
  7 17  1  0
  7 18  1  0
  7 19  1  0
  8 20  1  0
  8 21  1  0
  8 22  1  0
M  END
