
     RDKit          3D

 24 23  0  0  0  0  0  0  0  0999 V2000
   -3.3829   -0.1106    0.2852 C   0  0  0  0  0  0  0  0  0  0  0  0
   -2.4515    0.7398   -0.5393 C   0  0  0  0  0  0  0  0  0  0  0  0
   -1.2460    0.0618   -0.7160 O   0  0  0  0  0  0  0  0  0  0  0  0
   -0.6632   -0.1957    0.5254 C   0  0  0  0  0  0  0  0  0  0  0  0
    0.6499   -0.9318    0.3754 C   0  0  0  0  0  0  0  0  0  0  0  0
    1.6311   -0.1178   -0.4368 C   0  0  0  0  0  0  0  0  0  0  0  0
    2.9503   -0.8222   -0.6058 C   0  0  0  0  0  0  0  0  0  0  0  0
    1.9179    1.1621    0.3514 C   0  0  0  0  0  0  0  0  0  0  0  0
   -3.2546   -1.1885    0.1113 H   0  0  0  0  0  0  0  0  0  0  0  0
   -3.1495    0.0605    1.3742 H   0  0  0  0  0  0  0  0  0  0  0  0
   -4.4196    0.1950    0.0653 H   0  0  0  0  0  0  0  0  0  0  0  0
   -2.2226    1.6638    0.0644 H   0  0  0  0  0  0  0  0  0  0  0  0
   -2.8821    1.0933   -1.4777 H   0  0  0  0  0  0  0  0  0  0  0  0
   -0.5845    0.7150    1.1363 H   0  0  0  0  0  0  0  0  0  0  0  0
   -1.3616   -0.9097    1.0431 H   0  0  0  0  0  0  0  0  0  0  0  0
    0.4291   -1.9082   -0.0704 H   0  0  0  0  0  0  0  0  0  0  0  0
    1.0223   -1.1219    1.4027 H   0  0  0  0  0  0  0  0  0  0  0  0
    1.2210    0.1570   -1.4190 H   0  0  0  0  0  0  0  0  0  0  0  0
    3.6217   -0.1171   -1.1515 H   0  0  0  0  0  0  0  0  0  0  0  0
    2.8280   -1.7395   -1.2107 H   0  0  0  0  0  0  0  0  0  0  0  0
    3.4233   -1.0078    0.3695 H   0  0  0  0  0  0  0  0  0  0  0  0
    0.9937    1.7571    0.3697 H   0  0  0  0  0  0  0  0  0  0  0  0
    2.7513    1.6740   -0.1827 H   0  0  0  0  0  0  0  0  0  0  0  0
    2.1782    0.8913    1.3923 H   0  0  0  0  0  0  0  0  0  0  0  0
  1  2  1  0
  2  3  1  0
  3  4  1  0
  4  5  1  0
  5  6  1  0
  6  7  1  0
  6  8  1  0
  1  9  1  0
  1 10  1  0
  1 11  1  0
  2 12  1  0
  2 13  1  0
  4 14  1  0
  4 15  1  0
  5 16  1  0
  5 17  1  0
  6 18  1  0
  7 19  1  0
  7 20  1  0
  7 21  1  0
  8 22  1  0
  8 23  1  0
  8 24  1  0
M  END
