
     RDKit          3D

 21 21  0  0  0  0  0  0  0  0999 V2000
   -3.0714    0.2500    0.0896 C   0  0  0  0  0  0  0  0  0  0  0  0
   -2.2005   -0.8106    0.6684 C   0  0  0  0  0  0  0  0  0  0  0  0
   -0.8848   -0.4924    0.8143 O   0  0  0  0  0  0  0  0  0  0  0  0
   -0.1741   -0.1613   -0.2834 C   0  0  0  0  0  0  0  0  0  0  0  0
    0.7731    0.9948   -0.2110 C   0  0  0  0  0  0  0  0  0  0  0  0
    1.7833    0.0913   -0.8937 C   0  0  0  0  0  0  0  0  0  0  0  0
    3.1411    0.2980   -0.2741 C   0  0  0  0  0  0  0  0  0  0  0  0
    1.0140   -1.0611   -0.4229 C   0  0  0  0  0  0  0  0  0  0  0  0
    1.2978   -2.2365   -0.2457 O   0  0  0  0  0  0  0  0  0  0  0  0
   -2.5480    0.9974   -0.5203 H   0  0  0  0  0  0  0  0  0  0  0  0
   -3.5490    0.8032    0.9332 H   0  0  0  0  0  0  0  0  0  0  0  0
   -3.9079   -0.1417   -0.5305 H   0  0  0  0  0  0  0  0  0  0  0  0
   -2.2552   -1.6933   -0.0301 H   0  0  0  0  0  0  0  0  0  0  0  0
   -2.5791   -1.1913    1.6400 H   0  0  0  0  0  0  0  0  0  0  0  0
   -0.7272   -0.1708   -1.2634 H   0  0  0  0  0  0  0  0  0  0  0  0
    0.5712    1.8358   -0.9252 H   0  0  0  0  0  0  0  0  0  0  0  0
    1.0492    1.3221    0.8000 H   0  0  0  0  0  0  0  0  0  0  0  0
    1.8217    0.1594   -1.9880 H   0  0  0  0  0  0  0  0  0  0  0  0
    3.2078   -0.1321    0.7343 H   0  0  0  0  0  0  0  0  0  0  0  0
    3.2730    1.4085   -0.1727 H   0  0  0  0  0  0  0  0  0  0  0  0
    3.9649   -0.0695   -0.9131 H   0  0  0  0  0  0  0  0  0  0  0  0
  1  2  1  0
  2  3  1  0
  3  4  1  0
  4  5  1  0
  5  6  1  0
  6  7  1  0
  6  8  1  0
  8  9  2  0
  8  4  1  0
  1 10  1  0
  1 11  1  0
  1 12  1  0
  2 13  1  0
  2 14  1  0
  4 15  1  0
  5 16  1  0
  5 17  1  0
  6 18  1  0
  7 19  1  0
  7 20  1  0
  7 21  1  0
M  END
