
     RDKit          3D

 25 24  0  0  0  0  0  0  0  0999 V2000
    2.4127    0.8372    0.0444 C   0  0  0  0  0  0  0  0  0  0  0  0
    1.5953    0.6133   -1.2018 C   0  0  0  0  0  0  0  0  0  0  0  0
    0.2943    0.5151   -0.9234 O   0  0  0  0  0  0  0  0  0  0  0  0
   -0.2361   -0.4379   -0.1519 C   0  0  0  0  0  0  0  0  0  0  0  0
    0.1187   -1.7955   -0.7990 C   0  0  0  0  0  0  0  0  0  0  0  0
    0.1235   -0.5451    1.2768 C   0  0  0  0  0  0  0  0  0  0  0  0
   -1.7831   -0.3934   -0.2274 C   0  0  0  0  0  0  0  0  0  0  0  0
   -2.2940    0.9335    0.2395 C   0  0  0  0  0  0  0  0  0  0  0  0
   -1.9390    1.2166    1.5533 O   0  0  0  0  0  0  0  0  0  0  0  0
    3.4203    1.2013   -0.3395 H   0  0  0  0  0  0  0  0  0  0  0  0
    2.5164   -0.0480    0.6645 H   0  0  0  0  0  0  0  0  0  0  0  0
    1.9893    1.7302    0.5835 H   0  0  0  0  0  0  0  0  0  0  0  0
    1.8071    1.5051   -1.8714 H   0  0  0  0  0  0  0  0  0  0  0  0
    2.0574   -0.2427   -1.7334 H   0  0  0  0  0  0  0  0  0  0  0  0
    0.0816   -1.6357   -1.8828 H   0  0  0  0  0  0  0  0  0  0  0  0
    1.1623   -1.9937   -0.4584 H   0  0  0  0  0  0  0  0  0  0  0  0
   -0.5678   -2.5685   -0.4249 H   0  0  0  0  0  0  0  0  0  0  0  0
    0.7978   -1.4227    1.5040 H   0  0  0  0  0  0  0  0  0  0  0  0
   -0.8098   -0.8353    1.8586 H   0  0  0  0  0  0  0  0  0  0  0  0
    0.4447    0.3869    1.7710 H   0  0  0  0  0  0  0  0  0  0  0  0
   -2.2202   -1.1808    0.4161 H   0  0  0  0  0  0  0  0  0  0  0  0
   -2.1290   -0.5599   -1.2640 H   0  0  0  0  0  0  0  0  0  0  0  0
   -2.0101    1.7694   -0.4317 H   0  0  0  0  0  0  0  0  0  0  0  0
   -3.4015    0.8831    0.2147 H   0  0  0  0  0  0  0  0  0  0  0  0
   -1.4306    2.0677    1.5833 H   0  0  0  0  0  0  0  0  0  0  0  0
  1  2  1  0
  2  3  1  0
  3  4  1  0
  4  5  1  0
  4  6  1  0
  4  7  1  0
  7  8  1  0
  8  9  1  0
  1 10  1  0
  1 11  1  0
  1 12  1  0
  2 13  1  0
  2 14  1  0
  5 15  1  0
  5 16  1  0
  5 17  1  0
  6 18  1  0
  6 19  1  0
  6 20  1  0
  7 21  1  0
  7 22  1  0
  8 23  1  0
  8 24  1  0
  9 25  1  0
M  END
