
     RDKit          3D

 21 22  0  0  0  0  0  0  0  0999 V2000
    3.2241    0.2942    0.3084 C   0  0  0  0  0  0  0  0  0  0  0  0
    1.9393    0.5985   -0.4160 C   0  0  0  0  0  0  0  0  0  0  0  0
    0.9665   -0.2722    0.0658 O   0  0  0  0  0  0  0  0  0  0  0  0
   -0.2718   -0.0465   -0.5690 C   0  0  0  0  0  0  0  0  0  0  0  0
   -0.9004   -1.3546   -0.9341 C   0  0  0  0  0  0  0  0  0  0  0  0
   -2.2304   -0.6814   -0.9084 C   0  0  0  0  0  0  0  0  0  0  0  0
   -1.4612   -0.2231    0.2990 C   0  0  0  0  0  0  0  0  0  0  0  0
   -1.9207    0.5691    1.3213 C   0  0  0  0  0  0  0  0  0  0  0  0
   -1.0609   -1.5723    0.4282 O   0  0  0  0  0  0  0  0  0  0  0  0
    3.2684    0.8526    1.2673 H   0  0  0  0  0  0  0  0  0  0  0  0
    4.0919    0.5891   -0.2942 H   0  0  0  0  0  0  0  0  0  0  0  0
    3.2241   -0.7770    0.5681 H   0  0  0  0  0  0  0  0  0  0  0  0
    1.6212    1.6321   -0.2168 H   0  0  0  0  0  0  0  0  0  0  0  0
    2.0867    0.4947   -1.5044 H   0  0  0  0  0  0  0  0  0  0  0  0
   -0.2768    0.7487   -1.3146 H   0  0  0  0  0  0  0  0  0  0  0  0
   -0.5609   -2.0231   -1.6113 H   0  0  0  0  0  0  0  0  0  0  0  0
   -2.4589    0.0553   -1.6693 H   0  0  0  0  0  0  0  0  0  0  0  0
   -3.0328   -1.4130   -0.6756 H   0  0  0  0  0  0  0  0  0  0  0  0
   -1.6710    0.2007    2.3603 H   0  0  0  0  0  0  0  0  0  0  0  0
   -1.5334    1.6292    1.3161 H   0  0  0  0  0  0  0  0  0  0  0  0
   -3.0431    0.6988    1.3573 H   0  0  0  0  0  0  0  0  0  0  0  0
  1  2  1  0
  2  3  1  0
  3  4  1  0
  4  5  1  0
  5  6  1  0
  6  7  1  0
  7  8  1  0
  7  9  1  0
  7  4  1  0
  9  5  1  0
  1 10  1  0
  1 11  1  0
  1 12  1  0
  2 13  1  0
  2 14  1  0
  4 15  1  0
  5 16  1  0
  6 17  1  0
  6 18  1  0
  8 19  1  0
  8 20  1  0
  8 21  1  0
M  END
