
     RDKit          3D

 21 23  0  0  0  0  0  0  0  0999 V2000
   -2.9683    0.2656    0.2904 C   0  0  0  0  0  0  0  0  0  0  0  0
   -2.3438    0.8046   -0.9804 C   0  0  0  0  0  0  0  0  0  0  0  0
   -0.9940    1.0458   -0.7822 O   0  0  0  0  0  0  0  0  0  0  0  0
   -0.3711   -0.1480   -0.4293 C   0  0  0  0  0  0  0  0  0  0  0  0
    0.5995   -0.2721    0.6583 C   0  0  0  0  0  0  0  0  0  0  0  0
    2.0072   -0.8892    0.5811 C   0  0  0  0  0  0  0  0  0  0  0  0
    3.0642    0.0569    0.8158 C   0  0  0  0  0  0  0  0  0  0  0  0
    2.2665    0.2644   -0.4152 C   0  0  0  0  0  0  0  0  0  0  0  0
    0.9744   -0.3034   -0.8621 C   0  0  0  0  0  0  0  0  0  0  0  0
   -4.0383    0.6109    0.3096 H   0  0  0  0  0  0  0  0  0  0  0  0
   -3.0199   -0.8390    0.3080 H   0  0  0  0  0  0  0  0  0  0  0  0
   -2.4633    0.6496    1.1940 H   0  0  0  0  0  0  0  0  0  0  0  0
   -2.9042    1.6764   -1.3215 H   0  0  0  0  0  0  0  0  0  0  0  0
   -2.4889    0.0100   -1.7564 H   0  0  0  0  0  0  0  0  0  0  0  0
   -1.1115   -0.9979   -0.3944 H   0  0  0  0  0  0  0  0  0  0  0  0
    0.5899    0.6574    1.2245 H   0  0  0  0  0  0  0  0  0  0  0  0
    2.1034   -1.8741    0.1153 H   0  0  0  0  0  0  0  0  0  0  0  0
    4.0844   -0.3129    0.8828 H   0  0  0  0  0  0  0  0  0  0  0  0
    2.8666    0.8325    1.6190 H   0  0  0  0  0  0  0  0  0  0  0  0
    3.0087    0.1456   -1.2663 H   0  0  0  0  0  0  0  0  0  0  0  0
    1.1386   -1.3830   -1.2188 H   0  0  0  0  0  0  0  0  0  0  0  0
  1  2  1  0
  2  3  1  0
  3  4  1  0
  4  5  1  0
  5  6  1  0
  6  7  1  0
  7  8  1  0
  8  9  1  0
  9  4  1  0
  9  5  1  0
  8  6  1  0
  1 10  1  0
  1 11  1  0
  1 12  1  0
  2 13  1  0
  2 14  1  0
  4 15  1  0
  5 16  1  0
  6 17  1  0
  7 18  1  0
  7 19  1  0
  8 20  1  0
  9 21  1  0
M  END
