
     RDKit          3D

 21 22  0  0  0  0  0  0  0  0999 V2000
    2.8603   -0.6211    0.1576 C   0  0  0  0  0  0  0  0  0  0  0  0
    2.3550    0.6136   -0.5973 C   0  0  0  0  0  0  0  0  0  0  0  0
    1.0766    0.8782   -0.1159 O   0  0  0  0  0  0  0  0  0  0  0  0
    0.2149   -0.1939   -0.3307 C   0  0  0  0  0  0  0  0  0  0  0  0
   -1.0612    0.0464    0.1396 C   0  0  0  0  0  0  0  0  0  0  0  0
   -2.2201   -0.9009    0.1145 C   0  0  0  0  0  0  0  0  0  0  0  0
   -2.6559    0.3418    0.8234 C   0  0  0  0  0  0  0  0  0  0  0  0
   -1.9926    1.1201   -0.2750 C   0  0  0  0  0  0  0  0  0  0  0  0
   -1.4169    0.3261    1.4496 O   0  0  0  0  0  0  0  0  0  0  0  0
    2.6058   -1.5292   -0.4458 H   0  0  0  0  0  0  0  0  0  0  0  0
    2.4099   -0.7126    1.1465 H   0  0  0  0  0  0  0  0  0  0  0  0
    3.9864   -0.6145    0.1992 H   0  0  0  0  0  0  0  0  0  0  0  0
    3.0503    1.4314   -0.3356 H   0  0  0  0  0  0  0  0  0  0  0  0
    2.3956    0.4271   -1.6739 H   0  0  0  0  0  0  0  0  0  0  0  0
    0.6843   -1.0953    0.1263 H   0  0  0  0  0  0  0  0  0  0  0  0
    0.2354   -0.3850   -1.4288 H   0  0  0  0  0  0  0  0  0  0  0  0
   -2.6630   -0.9827   -0.8778 H   0  0  0  0  0  0  0  0  0  0  0  0
   -2.1413   -1.8089    0.7260 H   0  0  0  0  0  0  0  0  0  0  0  0
   -3.5494    0.5287    1.2475 H   0  0  0  0  0  0  0  0  0  0  0  0
   -2.5322    1.0033   -1.2206 H   0  0  0  0  0  0  0  0  0  0  0  0
   -1.6419    2.1273   -0.0150 H   0  0  0  0  0  0  0  0  0  0  0  0
  1  2  1  0
  2  3  1  0
  3  4  1  0
  4  5  1  0
  5  6  1  0
  6  7  1  0
  7  8  1  0
  7  9  1  0
  8  5  1  0
  9  5  1  0
  1 10  1  0
  1 11  1  0
  1 12  1  0
  2 13  1  0
  2 14  1  0
  4 15  1  0
  4 16  1  0
  6 17  1  0
  6 18  1  0
  7 19  1  0
  8 20  1  0
  8 21  1  0
M  END
