
     RDKit          3D

 21 22  0  0  0  0  0  0  0  0999 V2000
    2.3900    0.3044    0.8293 C   0  0  0  0  0  0  0  0  0  0  0  0
    1.7899   -0.8396    0.0522 C   0  0  0  0  0  0  0  0  0  0  0  0
    0.4924   -1.0982    0.2808 O   0  0  0  0  0  0  0  0  0  0  0  0
   -0.4792   -0.2014    0.0112 C   0  0  0  0  0  0  0  0  0  0  0  0
   -0.4768    1.1327    0.7193 C   0  0  0  0  0  0  0  0  0  0  0  0
   -1.8473   -0.8704    0.2561 C   0  0  0  0  0  0  0  0  0  0  0  0
   -2.2816   -0.2458   -1.0272 C   0  0  0  0  0  0  0  0  0  0  0  0
   -1.6717   -0.7909   -2.1459 O   0  0  0  0  0  0  0  0  0  0  0  0
   -0.8441    0.0098   -1.4341 C   0  0  0  0  0  0  0  0  0  0  0  0
    2.2262    0.1626    1.9318 H   0  0  0  0  0  0  0  0  0  0  0  0
    2.0944    1.2707    0.4373 H   0  0  0  0  0  0  0  0  0  0  0  0
    3.5178    0.1645    0.7460 H   0  0  0  0  0  0  0  0  0  0  0  0
    2.0746   -0.7318   -1.0187 H   0  0  0  0  0  0  0  0  0  0  0  0
    2.3722   -1.7509    0.4068 H   0  0  0  0  0  0  0  0  0  0  0  0
   -0.1169    1.9494    0.0507 H   0  0  0  0  0  0  0  0  0  0  0  0
   -1.5649    1.3962    0.8980 H   0  0  0  0  0  0  0  0  0  0  0  0
    0.0558    1.0539    1.6734 H   0  0  0  0  0  0  0  0  0  0  0  0
   -2.3502   -0.5309    1.1726 H   0  0  0  0  0  0  0  0  0  0  0  0
   -1.7856   -1.9641    0.1443 H   0  0  0  0  0  0  0  0  0  0  0  0
   -2.9830    0.5764   -1.0867 H   0  0  0  0  0  0  0  0  0  0  0  0
   -0.6121    1.0032   -1.8619 H   0  0  0  0  0  0  0  0  0  0  0  0
  1  2  1  0
  2  3  1  0
  3  4  1  0
  4  5  1  0
  4  6  1  0
  6  7  1  0
  7  8  1  0
  8  9  1  0
  9  4  1  0
  9  7  1  0
  1 10  1  0
  1 11  1  0
  1 12  1  0
  2 13  1  0
  2 14  1  0
  5 15  1  0
  5 16  1  0
  5 17  1  0
  6 18  1  0
  6 19  1  0
  7 20  1  0
  9 21  1  0
M  END
