
     RDKit          3D

 23 23  0  0  0  0  0  0  0  0999 V2000
    2.7498    0.7598   -0.0883 C   0  0  0  0  0  0  0  0  0  0  0  0
    1.8894    0.2735   -1.2130 C   0  0  0  0  0  0  0  0  0  0  0  0
    1.0553   -0.7780   -0.8598 O   0  0  0  0  0  0  0  0  0  0  0  0
    0.2050   -0.4126    0.1511 C   0  0  0  0  0  0  0  0  0  0  0  0
    0.2393   -1.2582    1.2452 O   0  0  0  0  0  0  0  0  0  0  0  0
   -1.0019   -1.3230    1.8106 C   0  0  0  0  0  0  0  0  0  0  0  0
   -1.9200   -0.3790    1.0630 C   0  0  0  0  0  0  0  0  0  0  0  0
   -1.2599   -0.4200   -0.3090 C   0  0  0  0  0  0  0  0  0  0  0  0
   -1.5709    0.8002   -1.1284 C   0  0  0  0  0  0  0  0  0  0  0  0
    2.2726    1.4656    0.5897 H   0  0  0  0  0  0  0  0  0  0  0  0
    3.6185    1.3059   -0.5518 H   0  0  0  0  0  0  0  0  0  0  0  0
    3.2032   -0.1248    0.4168 H   0  0  0  0  0  0  0  0  0  0  0  0
    2.5876   -0.0988   -2.0181 H   0  0  0  0  0  0  0  0  0  0  0  0
    1.3341    1.1096   -1.6897 H   0  0  0  0  0  0  0  0  0  0  0  0
    0.4129    0.6439    0.4228 H   0  0  0  0  0  0  0  0  0  0  0  0
   -1.0143   -1.1436    2.8983 H   0  0  0  0  0  0  0  0  0  0  0  0
   -1.4061   -2.3581    1.6067 H   0  0  0  0  0  0  0  0  0  0  0  0
   -2.9601   -0.7296    1.0381 H   0  0  0  0  0  0  0  0  0  0  0  0
   -1.8270    0.6764    1.4451 H   0  0  0  0  0  0  0  0  0  0  0  0
   -1.5382   -1.3565   -0.7913 H   0  0  0  0  0  0  0  0  0  0  0  0
   -0.8958    1.6435   -0.9554 H   0  0  0  0  0  0  0  0  0  0  0  0
   -2.6099    1.1479   -0.8599 H   0  0  0  0  0  0  0  0  0  0  0  0
   -1.5637    0.5559   -2.2229 H   0  0  0  0  0  0  0  0  0  0  0  0
  1  2  1  0
  2  3  1  0
  3  4  1  0
  4  5  1  0
  5  6  1  0
  6  7  1  0
  7  8  1  0
  8  9  1  0
  8  4  1  0
  1 10  1  0
  1 11  1  0
  1 12  1  0
  2 13  1  0
  2 14  1  0
  4 15  1  0
  6 16  1  0
  6 17  1  0
  7 18  1  0
  7 19  1  0
  8 20  1  0
  9 21  1  0
  9 22  1  0
  9 23  1  0
M  END
