
     RDKit          3D

 23 23  0  0  0  0  0  0  0  0999 V2000
   -3.2977   -0.1115   -0.4695 C   0  0  0  0  0  0  0  0  0  0  0  0
   -2.4808   -0.1658    0.7717 C   0  0  0  0  0  0  0  0  0  0  0  0
   -1.1598   -0.4868    0.5899 O   0  0  0  0  0  0  0  0  0  0  0  0
   -0.5172    0.4271   -0.2266 C   0  0  0  0  0  0  0  0  0  0  0  0
    0.9383    0.0841   -0.4342 C   0  0  0  0  0  0  0  0  0  0  0  0
    1.2195   -1.3802   -0.7066 C   0  0  0  0  0  0  0  0  0  0  0  0
    1.7034    0.9367   -1.2453 O   0  0  0  0  0  0  0  0  0  0  0  0
    1.9352    0.9629    0.1087 C   0  0  0  0  0  0  0  0  0  0  0  0
    3.2795    0.4840    0.6436 C   0  0  0  0  0  0  0  0  0  0  0  0
   -4.2082   -0.7610   -0.3102 H   0  0  0  0  0  0  0  0  0  0  0  0
   -3.7123    0.9128   -0.6675 H   0  0  0  0  0  0  0  0  0  0  0  0
   -2.8068   -0.5107   -1.3707 H   0  0  0  0  0  0  0  0  0  0  0  0
   -2.8956   -0.9017    1.5222 H   0  0  0  0  0  0  0  0  0  0  0  0
   -2.5966    0.8306    1.2902 H   0  0  0  0  0  0  0  0  0  0  0  0
   -0.9902    0.4083   -1.2301 H   0  0  0  0  0  0  0  0  0  0  0  0
   -0.5644    1.4035    0.2629 H   0  0  0  0  0  0  0  0  0  0  0  0
    0.3563   -1.9834   -0.3571 H   0  0  0  0  0  0  0  0  0  0  0  0
    1.2590   -1.4862   -1.8086 H   0  0  0  0  0  0  0  0  0  0  0  0
    2.1726   -1.7071   -0.2217 H   0  0  0  0  0  0  0  0  0  0  0  0
    1.5914    1.8871    0.6523 H   0  0  0  0  0  0  0  0  0  0  0  0
    3.6812   -0.3649    0.0679 H   0  0  0  0  0  0  0  0  0  0  0  0
    3.9869    1.3474    0.6471 H   0  0  0  0  0  0  0  0  0  0  0  0
    3.1063    0.1750    1.6843 H   0  0  0  0  0  0  0  0  0  0  0  0
  1  2  1  0
  2  3  1  0
  3  4  1  0
  4  5  1  0
  5  6  1  0
  5  7  1  0
  7  8  1  0
  8  9  1  0
  8  5  1  0
  1 10  1  0
  1 11  1  0
  1 12  1  0
  2 13  1  0
  2 14  1  0
  4 15  1  0
  4 16  1  0
  6 17  1  0
  6 18  1  0
  6 19  1  0
  8 20  1  0
  9 21  1  0
  9 22  1  0
  9 23  1  0
M  END
