
     RDKit          3D

 21 20  0  0  0  0  0  0  0  0999 V2000
   -3.1431   -0.5322    0.0184 C   0  0  0  0  0  0  0  0  0  0  0  0
   -2.6024    0.8027   -0.4115 C   0  0  0  0  0  0  0  0  0  0  0  0
   -1.3478    1.0763    0.1441 O   0  0  0  0  0  0  0  0  0  0  0  0
   -0.2202    0.2901   -0.0582 C   0  0  0  0  0  0  0  0  0  0  0  0
   -0.3108   -0.7289   -0.7778 O   0  0  0  0  0  0  0  0  0  0  0  0
    1.0241    0.7282    0.6063 C   0  0  0  0  0  0  0  0  0  0  0  0
    2.1881   -0.1897    0.3249 C   0  0  0  0  0  0  0  0  0  0  0  0
    2.4626   -0.2459   -1.1453 C   0  0  0  0  0  0  0  0  0  0  0  0
    2.0080   -1.4506    0.8845 O   0  0  0  0  0  0  0  0  0  0  0  0
   -2.5384   -1.3328   -0.4018 H   0  0  0  0  0  0  0  0  0  0  0  0
   -4.2116   -0.5711   -0.2643 H   0  0  0  0  0  0  0  0  0  0  0  0
   -3.0943   -0.5621    1.1290 H   0  0  0  0  0  0  0  0  0  0  0  0
   -2.5620    0.9044   -1.5213 H   0  0  0  0  0  0  0  0  0  0  0  0
   -3.3074    1.5772   -0.0487 H   0  0  0  0  0  0  0  0  0  0  0  0
    1.2819    1.7260    0.1946 H   0  0  0  0  0  0  0  0  0  0  0  0
    0.8320    0.8564    1.6861 H   0  0  0  0  0  0  0  0  0  0  0  0
    3.0783    0.2710    0.8181 H   0  0  0  0  0  0  0  0  0  0  0  0
    1.8063    0.4710   -1.6965 H   0  0  0  0  0  0  0  0  0  0  0  0
    2.2746   -1.2349   -1.5985 H   0  0  0  0  0  0  0  0  0  0  0  0
    3.5023    0.0338   -1.4153 H   0  0  0  0  0  0  0  0  0  0  0  0
    2.8797   -1.8889    1.0544 H   0  0  0  0  0  0  0  0  0  0  0  0
  1  2  1  0
  2  3  1  0
  3  4  1  0
  4  5  2  0
  4  6  1  0
  6  7  1  0
  7  8  1  0
  7  9  1  0
  1 10  1  0
  1 11  1  0
  1 12  1  0
  2 13  1  0
  2 14  1  0
  6 15  1  0
  6 16  1  0
  7 17  1  0
  8 18  1  0
  8 19  1  0
  8 20  1  0
  9 21  1  0
M  END
