
     RDKit          3D

 27 26  0  0  0  0  0  0  0  0999 V2000
    4.2990   -0.9191   -0.3510 C   0  0  0  0  0  0  0  0  0  0  0  0
    2.9932   -0.1280   -0.3366 C   0  0  0  0  0  0  0  0  0  0  0  0
    2.3760   -0.3734    0.8651 O   0  0  0  0  0  0  0  0  0  0  0  0
    1.1774    0.2674    1.0431 C   0  0  0  0  0  0  0  0  0  0  0  0
    0.1312   -0.0889    0.0182 C   0  0  0  0  0  0  0  0  0  0  0  0
   -1.1120    0.7068    0.3718 C   0  0  0  0  0  0  0  0  0  0  0  0
   -2.2460    0.4398   -0.5855 C   0  0  0  0  0  0  0  0  0  0  0  0
   -2.5753   -1.0387   -0.5245 C   0  0  0  0  0  0  0  0  0  0  0  0
   -3.4647    1.1731   -0.0270 C   0  0  0  0  0  0  0  0  0  0  0  0
    5.1700   -0.2289   -0.5151 H   0  0  0  0  0  0  0  0  0  0  0  0
    4.4657   -1.4527    0.6077 H   0  0  0  0  0  0  0  0  0  0  0  0
    4.3044   -1.6888   -1.1496 H   0  0  0  0  0  0  0  0  0  0  0  0
    3.2202    0.9248   -0.5337 H   0  0  0  0  0  0  0  0  0  0  0  0
    2.3424   -0.5780   -1.1380 H   0  0  0  0  0  0  0  0  0  0  0  0
    0.7774   -0.0307    2.0347 H   0  0  0  0  0  0  0  0  0  0  0  0
    1.2738    1.3765    1.0688 H   0  0  0  0  0  0  0  0  0  0  0  0
    0.4324    0.1275   -1.0171 H   0  0  0  0  0  0  0  0  0  0  0  0
   -0.1458   -1.1626    0.1512 H   0  0  0  0  0  0  0  0  0  0  0  0
   -0.8116    1.7747    0.3700 H   0  0  0  0  0  0  0  0  0  0  0  0
   -1.4095    0.4425    1.3864 H   0  0  0  0  0  0  0  0  0  0  0  0
   -2.0509    0.7727   -1.6035 H   0  0  0  0  0  0  0  0  0  0  0  0
   -1.7651   -1.6386   -0.9952 H   0  0  0  0  0  0  0  0  0  0  0  0
   -3.5589   -1.2366   -1.0095 H   0  0  0  0  0  0  0  0  0  0  0  0
   -2.6353   -1.3568    0.5368 H   0  0  0  0  0  0  0  0  0  0  0  0
   -4.3807    0.7305   -0.4280 H   0  0  0  0  0  0  0  0  0  0  0  0
   -3.3493    2.2440   -0.2110 H   0  0  0  0  0  0  0  0  0  0  0  0
   -3.4579    0.9413    1.0779 H   0  0  0  0  0  0  0  0  0  0  0  0
  1  2  1  0
  2  3  1  0
  3  4  1  0
  4  5  1  0
  5  6  1  0
  6  7  1  0
  7  8  1  0
  7  9  1  0
  1 10  1  0
  1 11  1  0
  1 12  1  0
  2 13  1  0
  2 14  1  0
  4 15  1  0
  4 16  1  0
  5 17  1  0
  5 18  1  0
  6 19  1  0
  6 20  1  0
  7 21  1  0
  8 22  1  0
  8 23  1  0
  8 24  1  0
  9 25  1  0
  9 26  1  0
  9 27  1  0
M  END
