
     RDKit          3D

 27 26  0  0  0  0  0  0  0  0999 V2000
    2.9684   -0.0252    0.7813 C   0  0  0  0  0  0  0  0  0  0  0  0
    2.5456   -0.9449   -0.3360 C   0  0  0  0  0  0  0  0  0  0  0  0
    1.3691   -0.5131   -0.9436 O   0  0  0  0  0  0  0  0  0  0  0  0
    0.3784   -0.4840    0.0122 C   0  0  0  0  0  0  0  0  0  0  0  0
   -0.9520   -0.0302   -0.5241 C   0  0  0  0  0  0  0  0  0  0  0  0
   -1.4841   -0.8990   -1.6139 C   0  0  0  0  0  0  0  0  0  0  0  0
   -0.7906    1.3716   -1.0781 C   0  0  0  0  0  0  0  0  0  0  0  0
   -1.9474   -0.0287    0.6096 C   0  0  0  0  0  0  0  0  0  0  0  0
   -1.5259    0.9041    1.7272 C   0  0  0  0  0  0  0  0  0  0  0  0
    4.0687    0.0597    0.7479 H   0  0  0  0  0  0  0  0  0  0  0  0
    2.5491    1.0009    0.6675 H   0  0  0  0  0  0  0  0  0  0  0  0
    2.6681   -0.3982    1.7837 H   0  0  0  0  0  0  0  0  0  0  0  0
    3.3704   -1.0357   -1.0969 H   0  0  0  0  0  0  0  0  0  0  0  0
    2.4125   -1.9721    0.1061 H   0  0  0  0  0  0  0  0  0  0  0  0
    0.2777   -1.5057    0.4719 H   0  0  0  0  0  0  0  0  0  0  0  0
    0.6911    0.1764    0.8457 H   0  0  0  0  0  0  0  0  0  0  0  0
   -1.1576   -0.5739   -2.6294 H   0  0  0  0  0  0  0  0  0  0  0  0
   -1.2917   -1.9656   -1.4206 H   0  0  0  0  0  0  0  0  0  0  0  0
   -2.6014   -0.7814   -1.6178 H   0  0  0  0  0  0  0  0  0  0  0  0
   -0.0659    1.8963   -0.4448 H   0  0  0  0  0  0  0  0  0  0  0  0
   -1.7695    1.8604   -1.1629 H   0  0  0  0  0  0  0  0  0  0  0  0
   -0.3082    1.2693   -2.0846 H   0  0  0  0  0  0  0  0  0  0  0  0
   -2.0776   -1.0588    0.9861 H   0  0  0  0  0  0  0  0  0  0  0  0
   -2.9230    0.2812    0.1774 H   0  0  0  0  0  0  0  0  0  0  0  0
   -1.2631    1.8880    1.3117 H   0  0  0  0  0  0  0  0  0  0  0  0
   -2.4060    1.0717    2.3919 H   0  0  0  0  0  0  0  0  0  0  0  0
   -0.7351    0.4370    2.3325 H   0  0  0  0  0  0  0  0  0  0  0  0
  1  2  1  0
  2  3  1  0
  3  4  1  0
  4  5  1  0
  5  6  1  0
  5  7  1  0
  5  8  1  0
  8  9  1  0
  1 10  1  0
  1 11  1  0
  1 12  1  0
  2 13  1  0
  2 14  1  0
  4 15  1  0
  4 16  1  0
  6 17  1  0
  6 18  1  0
  6 19  1  0
  7 20  1  0
  7 21  1  0
  7 22  1  0
  8 23  1  0
  8 24  1  0
  9 25  1  0
  9 26  1  0
  9 27  1  0
M  END
