
     RDKit          3D

 25 24  0  0  0  0  0  0  0  0999 V2000
    4.0953    0.1921    0.6253 C   0  0  0  0  0  0  0  0  0  0  0  0
    2.9867   -0.0537   -0.3516 C   0  0  0  0  0  0  0  0  0  0  0  0
    1.7824   -0.0314    0.3403 O   0  0  0  0  0  0  0  0  0  0  0  0
    0.6970   -0.2494   -0.4793 C   0  0  0  0  0  0  0  0  0  0  0  0
   -0.5511   -0.1996    0.4000 C   0  0  0  0  0  0  0  0  0  0  0  0
   -1.7968   -0.4313   -0.4284 C   0  0  0  0  0  0  0  0  0  0  0  0
   -1.9611    0.6054   -1.5066 C   0  0  0  0  0  0  0  0  0  0  0  0
   -2.9880   -0.4655    0.5022 C   0  0  0  0  0  0  0  0  0  0  0  0
   -3.0892    0.7458    1.1815 O   0  0  0  0  0  0  0  0  0  0  0  0
    3.6884    0.8286    1.4452 H   0  0  0  0  0  0  0  0  0  0  0  0
    4.9013    0.7451    0.0857 H   0  0  0  0  0  0  0  0  0  0  0  0
    4.4556   -0.7790    1.0251 H   0  0  0  0  0  0  0  0  0  0  0  0
    3.1167   -0.9666   -0.9518 H   0  0  0  0  0  0  0  0  0  0  0  0
    2.9576    0.8060   -1.0613 H   0  0  0  0  0  0  0  0  0  0  0  0
    0.6103    0.5377   -1.2638 H   0  0  0  0  0  0  0  0  0  0  0  0
    0.7538   -1.2121   -1.0241 H   0  0  0  0  0  0  0  0  0  0  0  0
   -0.4363   -1.0195    1.1365 H   0  0  0  0  0  0  0  0  0  0  0  0
   -0.6293    0.7817    0.8964 H   0  0  0  0  0  0  0  0  0  0  0  0
   -1.6737   -1.4117   -0.9298 H   0  0  0  0  0  0  0  0  0  0  0  0
   -2.9712    0.4644   -1.9513 H   0  0  0  0  0  0  0  0  0  0  0  0
   -1.2329    0.4317   -2.3167 H   0  0  0  0  0  0  0  0  0  0  0  0
   -1.8656    1.6441   -1.1371 H   0  0  0  0  0  0  0  0  0  0  0  0
   -3.8879   -0.6234   -0.1443 H   0  0  0  0  0  0  0  0  0  0  0  0
   -2.9012   -1.3109    1.2017 H   0  0  0  0  0  0  0  0  0  0  0  0
   -4.0609    0.9714    1.2868 H   0  0  0  0  0  0  0  0  0  0  0  0
  1  2  1  0
  2  3  1  0
  3  4  1  0
  4  5  1  0
  5  6  1  0
  6  7  1  0
  6  8  1  0
  8  9  1  0
  1 10  1  0
  1 11  1  0
  1 12  1  0
  2 13  1  0
  2 14  1  0
  4 15  1  0
  4 16  1  0
  5 17  1  0
  5 18  1  0
  6 19  1  0
  7 20  1  0
  7 21  1  0
  7 22  1  0
  8 23  1  0
  8 24  1  0
  9 25  1  0
M  END
