
     RDKit          3D

 23 23  0  0  0  0  0  0  0  0999 V2000
    3.3192   -0.3969    0.4581 C   0  0  0  0  0  0  0  0  0  0  0  0
    2.2679   -0.1549   -0.6332 C   0  0  0  0  0  0  0  0  0  0  0  0
    1.0639    0.0201    0.0136 O   0  0  0  0  0  0  0  0  0  0  0  0
   -0.0055    0.2509   -0.8110 C   0  0  0  0  0  0  0  0  0  0  0  0
   -1.2379    0.4195    0.0485 C   0  0  0  0  0  0  0  0  0  0  0  0
   -1.1281    1.4933    1.1043 C   0  0  0  0  0  0  0  0  0  0  0  0
   -1.7417   -0.9084    0.5088 C   0  0  0  0  0  0  0  0  0  0  0  0
   -2.7173   -0.6751   -0.5992 C   0  0  0  0  0  0  0  0  0  0  0  0
   -2.3665    0.6586   -0.7393 O   0  0  0  0  0  0  0  0  0  0  0  0
    4.3388   -0.3625    0.0573 H   0  0  0  0  0  0  0  0  0  0  0  0
    3.1400    0.3919    1.2143 H   0  0  0  0  0  0  0  0  0  0  0  0
    3.0788   -1.4016    0.8726 H   0  0  0  0  0  0  0  0  0  0  0  0
    2.2962   -1.0404   -1.3000 H   0  0  0  0  0  0  0  0  0  0  0  0
    2.5897    0.7225   -1.2279 H   0  0  0  0  0  0  0  0  0  0  0  0
    0.1254    1.0661   -1.5343 H   0  0  0  0  0  0  0  0  0  0  0  0
   -0.1775   -0.6947   -1.4034 H   0  0  0  0  0  0  0  0  0  0  0  0
   -0.2177    1.4247    1.7119 H   0  0  0  0  0  0  0  0  0  0  0  0
   -1.0837    2.4716    0.5418 H   0  0  0  0  0  0  0  0  0  0  0  0
   -2.0542    1.5112    1.6841 H   0  0  0  0  0  0  0  0  0  0  0  0
   -1.1039   -1.7851    0.2879 H   0  0  0  0  0  0  0  0  0  0  0  0
   -2.1618   -0.9511    1.5310 H   0  0  0  0  0  0  0  0  0  0  0  0
   -2.4591   -1.2175   -1.5421 H   0  0  0  0  0  0  0  0  0  0  0  0
   -3.7651   -0.8423   -0.2438 H   0  0  0  0  0  0  0  0  0  0  0  0
  1  2  1  0
  2  3  1  0
  3  4  1  0
  4  5  1  0
  5  6  1  0
  5  7  1  0
  7  8  1  0
  8  9  1  0
  9  5  1  0
  1 10  1  0
  1 11  1  0
  1 12  1  0
  2 13  1  0
  2 14  1  0
  4 15  1  0
  4 16  1  0
  6 17  1  0
  6 18  1  0
  6 19  1  0
  7 20  1  0
  7 21  1  0
  8 22  1  0
  8 23  1  0
M  END
