
     RDKit          3D

 23 23  0  0  0  0  0  0  0  0999 V2000
    4.2259    0.0850    0.1251 C   0  0  0  0  0  0  0  0  0  0  0  0
    3.0262   -0.6731   -0.3916 C   0  0  0  0  0  0  0  0  0  0  0  0
    1.9201    0.1304   -0.2734 O   0  0  0  0  0  0  0  0  0  0  0  0
    0.7518   -0.4777   -0.7250 C   0  0  0  0  0  0  0  0  0  0  0  0
   -0.4488    0.3963   -0.5958 C   0  0  0  0  0  0  0  0  0  0  0  0
   -0.6615    0.7577    0.8057 O   0  0  0  0  0  0  0  0  0  0  0  0
   -1.6584   -0.0333    0.0435 C   0  0  0  0  0  0  0  0  0  0  0  0
   -2.9217    0.7566   -0.1008 C   0  0  0  0  0  0  0  0  0  0  0  0
   -4.0745    0.1340    0.6499 C   0  0  0  0  0  0  0  0  0  0  0  0
    3.9313    0.7786    0.9355 H   0  0  0  0  0  0  0  0  0  0  0  0
    4.6620    0.7472   -0.6798 H   0  0  0  0  0  0  0  0  0  0  0  0
    5.0314   -0.5844    0.4936 H   0  0  0  0  0  0  0  0  0  0  0  0
    3.1956   -1.0911   -1.3850 H   0  0  0  0  0  0  0  0  0  0  0  0
    2.8971   -1.5562    0.2990 H   0  0  0  0  0  0  0  0  0  0  0  0
    0.5860   -1.3965   -0.1225 H   0  0  0  0  0  0  0  0  0  0  0  0
    0.9303   -0.7739   -1.7769 H   0  0  0  0  0  0  0  0  0  0  0  0
   -0.4876    1.2649   -1.2822 H   0  0  0  0  0  0  0  0  0  0  0  0
   -1.7461   -1.0097    0.5642 H   0  0  0  0  0  0  0  0  0  0  0  0
   -2.7756    1.7742    0.2965 H   0  0  0  0  0  0  0  0  0  0  0  0
   -3.1799    0.7923   -1.1889 H   0  0  0  0  0  0  0  0  0  0  0  0
   -3.7752   -0.3838    1.5691 H   0  0  0  0  0  0  0  0  0  0  0  0
   -4.7918    0.9487    0.8860 H   0  0  0  0  0  0  0  0  0  0  0  0
   -4.6366   -0.5862   -0.0125 H   0  0  0  0  0  0  0  0  0  0  0  0
  1  2  1  0
  2  3  1  0
  3  4  1  0
  4  5  1  0
  5  6  1  0
  6  7  1  0
  7  8  1  0
  8  9  1  0
  7  5  1  0
  1 10  1  0
  1 11  1  0
  1 12  1  0
  2 13  1  0
  2 14  1  0
  4 15  1  0
  4 16  1  0
  5 17  1  0
  7 18  1  0
  8 19  1  0
  8 20  1  0
  9 21  1  0
  9 22  1  0
  9 23  1  0
M  END
