
     RDKit          3D

 19 20  0  0  0  0  0  0  0  0999 V2000
    2.3486   -0.0416   -0.2846 C   0  0  0  0  0  0  0  0  0  0  0  0
    1.5028    0.7563    0.6636 C   0  0  0  0  0  0  0  0  0  0  0  0
    0.4373    0.0695    1.2060 O   0  0  0  0  0  0  0  0  0  0  0  0
   -0.4224   -0.3699    0.2512 C   0  0  0  0  0  0  0  0  0  0  0  0
   -1.6225   -1.1650    0.7470 C   0  0  0  0  0  0  0  0  0  0  0  0
   -2.5745   -0.3642   -0.0432 C   0  0  0  0  0  0  0  0  0  0  0  0
   -3.7247   -0.4358   -0.3900 O   0  0  0  0  0  0  0  0  0  0  0  0
   -1.5064    0.6301   -0.2641 C   0  0  0  0  0  0  0  0  0  0  0  0
   -0.3897    0.1620   -1.1082 C   0  0  0  0  0  0  0  0  0  0  0  0
    3.2746   -0.4354    0.1988 H   0  0  0  0  0  0  0  0  0  0  0  0
    1.7936   -0.8817   -0.7500 H   0  0  0  0  0  0  0  0  0  0  0  0
    2.6824    0.6206   -1.1076 H   0  0  0  0  0  0  0  0  0  0  0  0
    2.1927    1.0758    1.5047 H   0  0  0  0  0  0  0  0  0  0  0  0
    1.1964    1.6953    0.1587 H   0  0  0  0  0  0  0  0  0  0  0  0
   -1.5807   -2.2452    0.5107 H   0  0  0  0  0  0  0  0  0  0  0  0
   -1.7221   -1.0418    1.8422 H   0  0  0  0  0  0  0  0  0  0  0  0
   -1.5191    1.6016    0.2397 H   0  0  0  0  0  0  0  0  0  0  0  0
    0.3400    0.8894   -1.4184 H   0  0  0  0  0  0  0  0  0  0  0  0
   -0.7062   -0.5200   -1.9566 H   0  0  0  0  0  0  0  0  0  0  0  0
  1  2  1  0
  2  3  1  0
  3  4  1  0
  4  5  1  0
  5  6  1  0
  6  7  2  0
  6  8  1  0
  8  9  1  0
  8  4  1  0
  9  4  1  0
  1 10  1  0
  1 11  1  0
  1 12  1  0
  2 13  1  0
  2 14  1  0
  5 15  1  0
  5 16  1  0
  8 17  1  0
  9 18  1  0
  9 19  1  0
M  END
