
     RDKit          3D

 21 22  0  0  0  0  0  0  0  0999 V2000
    2.9242    0.4375    0.1153 C   0  0  0  0  0  0  0  0  0  0  0  0
    1.7154   -0.2013    0.7258 C   0  0  0  0  0  0  0  0  0  0  0  0
    0.6672   -0.1813   -0.1730 O   0  0  0  0  0  0  0  0  0  0  0  0
   -0.4937   -0.7466    0.2935 C   0  0  0  0  0  0  0  0  0  0  0  0
   -1.1946   -1.6749   -0.6755 C   0  0  0  0  0  0  0  0  0  0  0  0
   -2.1794   -0.5586   -0.9423 C   0  0  0  0  0  0  0  0  0  0  0  0
   -2.9322   -0.1837    0.1388 O   0  0  0  0  0  0  0  0  0  0  0  0
   -1.6319    0.2404    0.1859 C   0  0  0  0  0  0  0  0  0  0  0  0
   -1.2865    1.6866    0.0344 C   0  0  0  0  0  0  0  0  0  0  0  0
    2.8194    0.3411   -1.0026 H   0  0  0  0  0  0  0  0  0  0  0  0
    3.8355   -0.1135    0.3857 H   0  0  0  0  0  0  0  0  0  0  0  0
    3.0662    1.4899    0.4019 H   0  0  0  0  0  0  0  0  0  0  0  0
    1.4317    0.3930    1.6318 H   0  0  0  0  0  0  0  0  0  0  0  0
    1.9633   -1.2194    1.0442 H   0  0  0  0  0  0  0  0  0  0  0  0
   -0.4518   -1.1514    1.3350 H   0  0  0  0  0  0  0  0  0  0  0  0
   -1.7283   -2.4879   -0.1089 H   0  0  0  0  0  0  0  0  0  0  0  0
   -0.6047   -2.0207   -1.5274 H   0  0  0  0  0  0  0  0  0  0  0  0
   -2.3127   -0.1472   -1.9353 H   0  0  0  0  0  0  0  0  0  0  0  0
   -1.6743    2.2305    0.9429 H   0  0  0  0  0  0  0  0  0  0  0  0
   -1.7565    2.0811   -0.8786 H   0  0  0  0  0  0  0  0  0  0  0  0
   -0.1764    1.7863    0.0082 H   0  0  0  0  0  0  0  0  0  0  0  0
  1  2  1  0
  2  3  1  0
  3  4  1  0
  4  5  1  0
  5  6  1  0
  6  7  1  0
  7  8  1  0
  8  9  1  0
  8  4  1  0
  8  6  1  0
  1 10  1  0
  1 11  1  0
  1 12  1  0
  2 13  1  0
  2 14  1  0
  4 15  1  0
  5 16  1  0
  5 17  1  0
  6 18  1  0
  9 19  1  0
  9 20  1  0
  9 21  1  0
M  END
