
     RDKit          3D

 23 23  0  0  0  0  0  0  0  0999 V2000
    3.3872   -0.0321   -0.0284 C   0  0  0  0  0  0  0  0  0  0  0  0
    1.8878   -0.0620    0.2624 C   0  0  0  0  0  0  0  0  0  0  0  0
    1.2835   -1.0445   -0.4778 O   0  0  0  0  0  0  0  0  0  0  0  0
   -0.0862   -1.1395   -0.2657 C   0  0  0  0  0  0  0  0  0  0  0  0
   -0.8457    0.0975   -0.5943 C   0  0  0  0  0  0  0  0  0  0  0  0
   -0.7207    0.4995   -1.9362 O   0  0  0  0  0  0  0  0  0  0  0  0
   -0.9205    1.1857    0.3942 C   0  0  0  0  0  0  0  0  0  0  0  0
   -2.1633    0.4025    0.0004 C   0  0  0  0  0  0  0  0  0  0  0  0
   -2.7294   -0.4395    1.1168 C   0  0  0  0  0  0  0  0  0  0  0  0
    3.7768   -1.0501   -0.2320 H   0  0  0  0  0  0  0  0  0  0  0  0
    3.9642    0.3815    0.8009 H   0  0  0  0  0  0  0  0  0  0  0  0
    3.5409    0.6250   -0.9104 H   0  0  0  0  0  0  0  0  0  0  0  0
    1.4833    0.9320   -0.0399 H   0  0  0  0  0  0  0  0  0  0  0  0
    1.7835   -0.2423    1.3480 H   0  0  0  0  0  0  0  0  0  0  0  0
   -0.2129   -1.4439    0.8033 H   0  0  0  0  0  0  0  0  0  0  0  0
   -0.4457   -2.0075   -0.8920 H   0  0  0  0  0  0  0  0  0  0  0  0
    0.0744    1.0771   -1.9783 H   0  0  0  0  0  0  0  0  0  0  0  0
   -0.4547    0.9829    1.3821 H   0  0  0  0  0  0  0  0  0  0  0  0
   -0.9039    2.2571    0.0838 H   0  0  0  0  0  0  0  0  0  0  0  0
   -2.9412    0.9095   -0.6018 H   0  0  0  0  0  0  0  0  0  0  0  0
   -3.6173    0.0980    1.5388 H   0  0  0  0  0  0  0  0  0  0  0  0
   -3.1156   -1.4120    0.7421 H   0  0  0  0  0  0  0  0  0  0  0  0
   -2.0247   -0.5748    1.9571 H   0  0  0  0  0  0  0  0  0  0  0  0
  1  2  1  0
  2  3  1  0
  3  4  1  0
  4  5  1  0
  5  6  1  0
  5  7  1  0
  7  8  1  0
  8  9  1  0
  8  5  1  0
  1 10  1  0
  1 11  1  0
  1 12  1  0
  2 13  1  0
  2 14  1  0
  4 15  1  0
  4 16  1  0
  6 17  1  0
  7 18  1  0
  7 19  1  0
  8 20  1  0
  9 21  1  0
  9 22  1  0
  9 23  1  0
M  END
