
     RDKit          3D

 23 23  0  0  0  0  0  0  0  0999 V2000
    3.0982    0.6097   -0.4164 C   0  0  0  0  0  0  0  0  0  0  0  0
    1.7256    0.3313    0.2121 C   0  0  0  0  0  0  0  0  0  0  0  0
    0.7920    0.0655   -0.7756 O   0  0  0  0  0  0  0  0  0  0  0  0
   -0.4323   -0.1650   -0.1603 C   0  0  0  0  0  0  0  0  0  0  0  0
   -0.4827   -1.3163    0.8044 C   0  0  0  0  0  0  0  0  0  0  0  0
   -0.1511   -2.5110    0.1679 O   0  0  0  0  0  0  0  0  0  0  0  0
   -0.9348    1.1357    0.4329 C   0  0  0  0  0  0  0  0  0  0  0  0
   -2.3148    0.6883    0.0057 C   0  0  0  0  0  0  0  0  0  0  0  0
   -1.6274   -0.1449   -1.0537 C   0  0  0  0  0  0  0  0  0  0  0  0
    3.2574   -0.0986   -1.2474 H   0  0  0  0  0  0  0  0  0  0  0  0
    3.8622    0.5695    0.3608 H   0  0  0  0  0  0  0  0  0  0  0  0
    3.0428    1.6243   -0.8523 H   0  0  0  0  0  0  0  0  0  0  0  0
    1.4783    1.2234    0.8212 H   0  0  0  0  0  0  0  0  0  0  0  0
    1.8980   -0.5694    0.8388 H   0  0  0  0  0  0  0  0  0  0  0  0
   -1.5585   -1.4068    1.1442 H   0  0  0  0  0  0  0  0  0  0  0  0
    0.1498   -1.0949    1.6832 H   0  0  0  0  0  0  0  0  0  0  0  0
   -0.9363   -3.0860   -0.0034 H   0  0  0  0  0  0  0  0  0  0  0  0
   -0.6255    2.0038   -0.1581 H   0  0  0  0  0  0  0  0  0  0  0  0
   -0.7903    1.2208    1.5312 H   0  0  0  0  0  0  0  0  0  0  0  0
   -2.9349    1.4995   -0.4313 H   0  0  0  0  0  0  0  0  0  0  0  0
   -2.8350    0.1258    0.7954 H   0  0  0  0  0  0  0  0  0  0  0  0
   -2.1711   -1.1147   -1.1581 H   0  0  0  0  0  0  0  0  0  0  0  0
   -1.5096    0.4100   -2.0084 H   0  0  0  0  0  0  0  0  0  0  0  0
  1  2  1  0
  2  3  1  0
  3  4  1  0
  4  5  1  0
  5  6  1  0
  4  7  1  0
  7  8  1  0
  8  9  1  0
  9  4  1  0
  1 10  1  0
  1 11  1  0
  1 12  1  0
  2 13  1  0
  2 14  1  0
  5 15  1  0
  5 16  1  0
  6 17  1  0
  7 18  1  0
  7 19  1  0
  8 20  1  0
  8 21  1  0
  9 22  1  0
  9 23  1  0
M  END
