
     RDKit          3D

 27 26  0  0  0  0  0  0  0  0999 V2000
    2.5802   -0.5218    0.1000 C   0  0  0  0  0  0  0  0  0  0  0  0
    1.8402    0.4054   -0.8238 C   0  0  0  0  0  0  0  0  0  0  0  0
    0.5130    0.1626   -0.8142 O   0  0  0  0  0  0  0  0  0  0  0  0
   -0.1850    0.2881    0.3524 C   0  0  0  0  0  0  0  0  0  0  0  0
   -1.2343    1.4098    0.2021 C   0  0  0  0  0  0  0  0  0  0  0  0
   -0.5657    2.7245   -0.1091 C   0  0  0  0  0  0  0  0  0  0  0  0
   -0.9886   -0.9642    0.5636 C   0  0  0  0  0  0  0  0  0  0  0  0
   -1.9275   -1.0964   -0.6389 C   0  0  0  0  0  0  0  0  0  0  0  0
   -0.1726   -2.2112    0.7344 C   0  0  0  0  0  0  0  0  0  0  0  0
    2.2254   -0.4309    1.1336 H   0  0  0  0  0  0  0  0  0  0  0  0
    3.6997   -0.3296    0.0465 H   0  0  0  0  0  0  0  0  0  0  0  0
    2.4794   -1.5891   -0.2082 H   0  0  0  0  0  0  0  0  0  0  0  0
    2.2203    0.1683   -1.8637 H   0  0  0  0  0  0  0  0  0  0  0  0
    2.1314    1.4513   -0.5894 H   0  0  0  0  0  0  0  0  0  0  0  0
    0.4692    0.5446    1.2251 H   0  0  0  0  0  0  0  0  0  0  0  0
   -1.8651    1.1378   -0.6324 H   0  0  0  0  0  0  0  0  0  0  0  0
   -1.7939    1.5014    1.1384 H   0  0  0  0  0  0  0  0  0  0  0  0
    0.2486    2.9308    0.6057 H   0  0  0  0  0  0  0  0  0  0  0  0
   -1.3293    3.5151    0.0279 H   0  0  0  0  0  0  0  0  0  0  0  0
   -0.2351    2.7855   -1.1689 H   0  0  0  0  0  0  0  0  0  0  0  0
   -1.6629   -0.8146    1.4405 H   0  0  0  0  0  0  0  0  0  0  0  0
   -2.8904   -0.5948   -0.4317 H   0  0  0  0  0  0  0  0  0  0  0  0
   -2.0710   -2.1643   -0.9114 H   0  0  0  0  0  0  0  0  0  0  0  0
   -1.4965   -0.6291   -1.5486 H   0  0  0  0  0  0  0  0  0  0  0  0
   -0.8581   -3.0870    0.9458 H   0  0  0  0  0  0  0  0  0  0  0  0
    0.2592   -2.4558   -0.2597 H   0  0  0  0  0  0  0  0  0  0  0  0
    0.6093   -2.1363    1.4838 H   0  0  0  0  0  0  0  0  0  0  0  0
  1  2  1  0
  2  3  1  0
  3  4  1  0
  4  5  1  0
  5  6  1  0
  4  7  1  0
  7  8  1  0
  7  9  1  0
  1 10  1  0
  1 11  1  0
  1 12  1  0
  2 13  1  0
  2 14  1  0
  4 15  1  0
  5 16  1  0
  5 17  1  0
  6 18  1  0
  6 19  1  0
  6 20  1  0
  7 21  1  0
  8 22  1  0
  8 23  1  0
  8 24  1  0
  9 25  1  0
  9 26  1  0
  9 27  1  0
M  END
