
     RDKit          3D

 21 21  0  0  0  0  0  0  0  0999 V2000
    2.9933    0.3416    0.4221 C   0  0  0  0  0  0  0  0  0  0  0  0
    2.0342   -0.6913    0.9535 C   0  0  0  0  0  0  0  0  0  0  0  0
    0.7157   -0.3806    0.7796 O   0  0  0  0  0  0  0  0  0  0  0  0
    0.3264   -0.2143   -0.5340 C   0  0  0  0  0  0  0  0  0  0  0  0
   -1.1337    0.1227   -0.6073 C   0  0  0  0  0  0  0  0  0  0  0  0
   -1.8922   -0.8927    0.2562 C   0  0  0  0  0  0  0  0  0  0  0  0
   -3.0654   -0.2003    0.4916 O   0  0  0  0  0  0  0  0  0  0  0  0
   -2.8195    1.1422    0.3014 C   0  0  0  0  0  0  0  0  0  0  0  0
   -1.4576    1.2963    0.0684 O   0  0  0  0  0  0  0  0  0  0  0  0
    3.9834    0.1140    0.8926 H   0  0  0  0  0  0  0  0  0  0  0  0
    2.6955    1.3487    0.7253 H   0  0  0  0  0  0  0  0  0  0  0  0
    3.1364    0.2993   -0.6616 H   0  0  0  0  0  0  0  0  0  0  0  0
    2.3168   -1.6970    0.5516 H   0  0  0  0  0  0  0  0  0  0  0  0
    2.2148   -0.7459    2.0526 H   0  0  0  0  0  0  0  0  0  0  0  0
    0.4856   -1.1332   -1.1256 H   0  0  0  0  0  0  0  0  0  0  0  0
    0.8955    0.6330   -0.9670 H   0  0  0  0  0  0  0  0  0  0  0  0
   -1.5292    0.1780   -1.6197 H   0  0  0  0  0  0  0  0  0  0  0  0
   -1.3261   -0.9352    1.2097 H   0  0  0  0  0  0  0  0  0  0  0  0
   -2.0209   -1.8454   -0.2454 H   0  0  0  0  0  0  0  0  0  0  0  0
   -3.1592    1.7254    1.1857 H   0  0  0  0  0  0  0  0  0  0  0  0
   -3.3940    1.5347   -0.5666 H   0  0  0  0  0  0  0  0  0  0  0  0
  1  2  1  0
  2  3  1  0
  3  4  1  0
  4  5  1  0
  5  6  1  0
  6  7  1  0
  7  8  1  0
  8  9  1  0
  9  5  1  0
  1 10  1  0
  1 11  1  0
  1 12  1  0
  2 13  1  0
  2 14  1  0
  4 15  1  0
  4 16  1  0
  5 17  1  0
  6 18  1  0
  6 19  1  0
  8 20  1  0
  8 21  1  0
M  END
