
     RDKit          3D

 23 23  0  0  0  0  0  0  0  0999 V2000
    2.2459    0.6224    1.0194 C   0  0  0  0  0  0  0  0  0  0  0  0
    2.0113    0.9280   -0.4670 C   0  0  0  0  0  0  0  0  0  0  0  0
    0.7179    0.5964   -0.8174 O   0  0  0  0  0  0  0  0  0  0  0  0
    0.3707   -0.7022   -0.6476 C   0  0  0  0  0  0  0  0  0  0  0  0
   -0.6281   -1.4147   -1.4701 C   0  0  0  0  0  0  0  0  0  0  0  0
   -1.0305   -0.9876   -0.0880 C   0  0  0  0  0  0  0  0  0  0  0  0
   -1.1468   -1.9871    0.8691 O   0  0  0  0  0  0  0  0  0  0  0  0
   -2.0091    0.1339   -0.0074 C   0  0  0  0  0  0  0  0  0  0  0  0
   -1.5254    1.2695    0.8692 C   0  0  0  0  0  0  0  0  0  0  0  0
    2.3930   -0.4476    1.1848 H   0  0  0  0  0  0  0  0  0  0  0  0
    1.4157    1.0686    1.5728 H   0  0  0  0  0  0  0  0  0  0  0  0
    3.1780    1.1571    1.3554 H   0  0  0  0  0  0  0  0  0  0  0  0
    2.7897    0.4273   -1.0385 H   0  0  0  0  0  0  0  0  0  0  0  0
    2.1514    2.0253   -0.5572 H   0  0  0  0  0  0  0  0  0  0  0  0
    1.1993   -1.3500   -0.2352 H   0  0  0  0  0  0  0  0  0  0  0  0
   -1.0613   -0.8943   -2.3476 H   0  0  0  0  0  0  0  0  0  0  0  0
   -0.5102   -2.4976   -1.6278 H   0  0  0  0  0  0  0  0  0  0  0  0
   -1.1827   -2.8850    0.4230 H   0  0  0  0  0  0  0  0  0  0  0  0
   -2.9707   -0.2762    0.3765 H   0  0  0  0  0  0  0  0  0  0  0  0
   -2.1929    0.5481   -0.9994 H   0  0  0  0  0  0  0  0  0  0  0  0
   -0.9677    0.8363    1.7302 H   0  0  0  0  0  0  0  0  0  0  0  0
   -0.8762    1.9277    0.2551 H   0  0  0  0  0  0  0  0  0  0  0  0
   -2.3713    1.9016    1.2067 H   0  0  0  0  0  0  0  0  0  0  0  0
  1  2  1  0
  2  3  1  0
  3  4  1  0
  4  5  1  0
  5  6  1  0
  6  7  1  0
  6  8  1  0
  8  9  1  0
  6  4  1  0
  1 10  1  0
  1 11  1  0
  1 12  1  0
  2 13  1  0
  2 14  1  0
  4 15  1  0
  5 16  1  0
  5 17  1  0
  7 18  1  0
  8 19  1  0
  8 20  1  0
  9 21  1  0
  9 22  1  0
  9 23  1  0
M  END
