
     RDKit          3D

 21 20  0  0  0  0  0  0  0  0999 V2000
   -2.1330    1.2338    0.2017 C   0  0  0  0  0  0  0  0  0  0  0  0
   -2.0584   -0.1904    0.6900 C   0  0  0  0  0  0  0  0  0  0  0  0
   -0.7621   -0.6775    0.7263 O   0  0  0  0  0  0  0  0  0  0  0  0
   -0.1466   -0.6693   -0.5180 C   0  0  0  0  0  0  0  0  0  0  0  0
    0.1466   -2.1170   -0.8879 C   0  0  0  0  0  0  0  0  0  0  0  0
    1.1405    0.0439   -0.4573 C   0  0  0  0  0  0  0  0  0  0  0  0
    1.8412    0.1561   -1.4805 O   0  0  0  0  0  0  0  0  0  0  0  0
    1.5917    0.5956    0.7187 O   0  0  0  0  0  0  0  0  0  0  0  0
    2.8236    1.2820    0.7912 C   0  0  0  0  0  0  0  0  0  0  0  0
   -2.2296    1.2776   -0.8906 H   0  0  0  0  0  0  0  0  0  0  0  0
   -3.0575    1.6762    0.6283 H   0  0  0  0  0  0  0  0  0  0  0  0
   -1.2269    1.7965    0.5120 H   0  0  0  0  0  0  0  0  0  0  0  0
   -2.4449   -0.2344    1.7334 H   0  0  0  0  0  0  0  0  0  0  0  0
   -2.6744   -0.8467    0.0681 H   0  0  0  0  0  0  0  0  0  0  0  0
   -0.8180   -0.2697   -1.3118 H   0  0  0  0  0  0  0  0  0  0  0  0
    1.1712   -2.4016   -0.5684 H   0  0  0  0  0  0  0  0  0  0  0  0
    0.1211   -2.2496   -2.0075 H   0  0  0  0  0  0  0  0  0  0  0  0
   -0.5956   -2.7822   -0.3997 H   0  0  0  0  0  0  0  0  0  0  0  0
    3.3454    0.9467    1.7060 H   0  0  0  0  0  0  0  0  0  0  0  0
    2.5579    2.3750    0.8584 H   0  0  0  0  0  0  0  0  0  0  0  0
    3.4078    1.0550   -0.1125 H   0  0  0  0  0  0  0  0  0  0  0  0
  1  2  1  0
  2  3  1  0
  3  4  1  0
  4  5  1  0
  4  6  1  0
  6  7  2  0
  6  8  1  0
  8  9  1  0
  1 10  1  0
  1 11  1  0
  1 12  1  0
  2 13  1  0
  2 14  1  0
  4 15  1  0
  5 16  1  0
  5 17  1  0
  5 18  1  0
  9 19  1  0
  9 20  1  0
  9 21  1  0
M  END
