
     RDKit          3D

 21 22  0  0  0  0  0  0  0  0999 V2000
    2.8675   -0.0280    0.0791 C   0  0  0  0  0  0  0  0  0  0  0  0
    1.9668   -0.7314   -0.8998 C   0  0  0  0  0  0  0  0  0  0  0  0
    0.6963   -0.9826   -0.3769 O   0  0  0  0  0  0  0  0  0  0  0  0
    0.0610    0.1967   -0.0182 C   0  0  0  0  0  0  0  0  0  0  0  0
   -0.2228    0.0746    1.3677 O   0  0  0  0  0  0  0  0  0  0  0  0
   -1.5914    0.0713    1.3938 C   0  0  0  0  0  0  0  0  0  0  0  0
   -2.0058   -0.8471    0.2317 C   0  0  0  0  0  0  0  0  0  0  0  0
   -1.3205    0.2683   -0.5729 C   0  0  0  0  0  0  0  0  0  0  0  0
   -1.9979    1.1926    0.4229 C   0  0  0  0  0  0  0  0  0  0  0  0
    3.6809   -0.7100    0.4525 H   0  0  0  0  0  0  0  0  0  0  0  0
    2.3090    0.3596    0.9563 H   0  0  0  0  0  0  0  0  0  0  0  0
    3.3695    0.8560   -0.3780 H   0  0  0  0  0  0  0  0  0  0  0  0
    2.4313   -1.6998   -1.1566 H   0  0  0  0  0  0  0  0  0  0  0  0
    1.8795   -0.0868   -1.7913 H   0  0  0  0  0  0  0  0  0  0  0  0
    0.6919    1.0656   -0.2224 H   0  0  0  0  0  0  0  0  0  0  0  0
   -2.1374   -0.0113    2.2978 H   0  0  0  0  0  0  0  0  0  0  0  0
   -3.0796   -0.8403    0.0377 H   0  0  0  0  0  0  0  0  0  0  0  0
   -1.4788   -1.8090    0.2119 H   0  0  0  0  0  0  0  0  0  0  0  0
   -1.5248    0.3502   -1.5971 H   0  0  0  0  0  0  0  0  0  0  0  0
   -3.0778    1.1610    0.2862 H   0  0  0  0  0  0  0  0  0  0  0  0
   -1.5169    2.1502    0.5996 H   0  0  0  0  0  0  0  0  0  0  0  0
  1  2  1  0
  2  3  1  0
  3  4  1  0
  4  5  1  0
  5  6  1  0
  6  7  1  0
  7  8  1  0
  8  9  1  0
  8  4  1  0
  9  6  1  0
  1 10  1  0
  1 11  1  0
  1 12  1  0
  2 13  1  0
  2 14  1  0
  4 15  1  0
  6 16  1  0
  7 17  1  0
  7 18  1  0
  8 19  1  0
  9 20  1  0
  9 21  1  0
M  END
