
     RDKit          3D

 18 17  0  0  0  0  0  0  0  0999 V2000
   -2.6877   -1.0012   -0.0146 C   0  0  0  0  0  0  0  0  0  0  0  0
   -2.0784    0.0189   -0.9424 C   0  0  0  0  0  0  0  0  0  0  0  0
   -0.6845    0.0657   -0.7117 O   0  0  0  0  0  0  0  0  0  0  0  0
   -0.2503    0.4144    0.5561 C   0  0  0  0  0  0  0  0  0  0  0  0
   -1.0938    0.6721    1.4385 O   0  0  0  0  0  0  0  0  0  0  0  0
    1.2104    0.4918    0.9012 C   0  0  0  0  0  0  0  0  0  0  0  0
    1.9162    0.1643   -0.2371 O   0  0  0  0  0  0  0  0  0  0  0  0
    3.2915    0.1997   -0.0461 C   0  0  0  0  0  0  0  0  0  0  0  0
   -3.1157   -1.8193   -0.6412 H   0  0  0  0  0  0  0  0  0  0  0  0
   -3.5288   -0.5054    0.5485 H   0  0  0  0  0  0  0  0  0  0  0  0
   -1.9121   -1.3701    0.6640 H   0  0  0  0  0  0  0  0  0  0  0  0
   -2.4771    1.0432   -0.6971 H   0  0  0  0  0  0  0  0  0  0  0  0
   -2.3123   -0.2451   -2.0019 H   0  0  0  0  0  0  0  0  0  0  0  0
    1.3917    1.5118    1.2730 H   0  0  0  0  0  0  0  0  0  0  0  0
    1.3681   -0.2314    1.7346 H   0  0  0  0  0  0  0  0  0  0  0  0
    3.7651   -0.0764   -1.0117 H   0  0  0  0  0  0  0  0  0  0  0  0
    3.6399   -0.5574    0.6914 H   0  0  0  0  0  0  0  0  0  0  0  0
    3.5577    1.2242    0.2738 H   0  0  0  0  0  0  0  0  0  0  0  0
  1  2  1  0
  2  3  1  0
  3  4  1  0
  4  5  2  0
  4  6  1  0
  6  7  1  0
  7  8  1  0
  1  9  1  0
  1 10  1  0
  1 11  1  0
  2 12  1  0
  2 13  1  0
  6 14  1  0
  6 15  1  0
  8 16  1  0
  8 17  1  0
  8 18  1  0
M  END
