
     RDKit          3D

 21 20  0  0  0  0  0  0  0  0999 V2000
   -3.5902    0.6093   -0.0848 C   0  0  0  0  0  0  0  0  0  0  0  0
   -2.3361   -0.1790   -0.0187 C   0  0  0  0  0  0  0  0  0  0  0  0
   -1.1750    0.6040   -0.1358 O   0  0  0  0  0  0  0  0  0  0  0  0
   -0.1041   -0.2742   -0.0552 C   0  0  0  0  0  0  0  0  0  0  0  0
    1.2302    0.4200   -0.1654 C   0  0  0  0  0  0  0  0  0  0  0  0
    1.2875    1.3352    0.9083 O   0  0  0  0  0  0  0  0  0  0  0  0
    2.2966   -0.6219    0.0992 C   0  0  0  0  0  0  0  0  0  0  0  0
    3.6586   -0.0651    0.0201 C   0  0  0  0  0  0  0  0  0  0  0  0
    4.6239   -0.7815    0.2097 O   0  0  0  0  0  0  0  0  0  0  0  0
   -3.4463    1.7060    0.0026 H   0  0  0  0  0  0  0  0  0  0  0  0
   -4.1256    0.3911   -1.0536 H   0  0  0  0  0  0  0  0  0  0  0  0
   -4.2949    0.2260    0.7027 H   0  0  0  0  0  0  0  0  0  0  0  0
   -2.2183   -0.7520    0.9292 H   0  0  0  0  0  0  0  0  0  0  0  0
   -2.2630   -0.9531   -0.8319 H   0  0  0  0  0  0  0  0  0  0  0  0
   -0.0990   -0.8690    0.8609 H   0  0  0  0  0  0  0  0  0  0  0  0
   -0.1707   -0.9450   -0.9576 H   0  0  0  0  0  0  0  0  0  0  0  0
    1.3783    0.9395   -1.1099 H   0  0  0  0  0  0  0  0  0  0  0  0
    1.2158    0.7663    1.7360 H   0  0  0  0  0  0  0  0  0  0  0  0
    2.0916   -1.1076    1.0732 H   0  0  0  0  0  0  0  0  0  0  0  0
    2.2301   -1.4304   -0.6784 H   0  0  0  0  0  0  0  0  0  0  0  0
    3.8104    0.9811   -0.2062 H   0  0  0  0  0  0  0  0  0  0  0  0
  1  2  1  0
  2  3  1  0
  3  4  1  0
  4  5  1  0
  5  6  1  0
  5  7  1  0
  7  8  1  0
  8  9  2  0
  1 10  1  0
  1 11  1  0
  1 12  1  0
  2 13  1  0
  2 14  1  0
  4 15  1  0
  4 16  1  0
  5 17  1  0
  6 18  1  0
  7 19  1  0
  7 20  1  0
  8 21  1  0
M  END
