
     RDKit          3D

 23 23  0  0  0  0  0  0  0  0999 V2000
    2.8597   -1.2499   -0.0097 C   0  0  0  0  0  0  0  0  0  0  0  0
    1.9422   -0.0270   -0.1038 C   0  0  0  0  0  0  0  0  0  0  0  0
    0.6658   -0.3890    0.1952 O   0  0  0  0  0  0  0  0  0  0  0  0
   -0.2768    0.5981    0.1565 C   0  0  0  0  0  0  0  0  0  0  0  0
   -1.6801    0.0878    0.5067 C   0  0  0  0  0  0  0  0  0  0  0  0
   -2.1155   -0.9847   -0.4641 C   0  0  0  0  0  0  0  0  0  0  0  0
   -3.3819   -1.4592   -0.1645 O   0  0  0  0  0  0  0  0  0  0  0  0
   -0.1267    1.8406   -0.6250 C   0  0  0  0  0  0  0  0  0  0  0  0
    0.0158    1.9385    0.8382 C   0  0  0  0  0  0  0  0  0  0  0  0
    2.7698   -1.7482    0.9638 H   0  0  0  0  0  0  0  0  0  0  0  0
    2.6283   -1.9192   -0.8716 H   0  0  0  0  0  0  0  0  0  0  0  0
    3.9128   -0.9218   -0.1478 H   0  0  0  0  0  0  0  0  0  0  0  0
    2.3922    0.7577    0.4950 H   0  0  0  0  0  0  0  0  0  0  0  0
    1.9978    0.2933   -1.1847 H   0  0  0  0  0  0  0  0  0  0  0  0
   -1.6002   -0.3364    1.5296 H   0  0  0  0  0  0  0  0  0  0  0  0
   -2.4147    0.9028    0.5525 H   0  0  0  0  0  0  0  0  0  0  0  0
   -2.0090   -0.6298   -1.5044 H   0  0  0  0  0  0  0  0  0  0  0  0
   -1.4219   -1.8583   -0.3700 H   0  0  0  0  0  0  0  0  0  0  0  0
   -4.0678   -0.7745   -0.1188 H   0  0  0  0  0  0  0  0  0  0  0  0
   -1.0340    2.3019   -1.0946 H   0  0  0  0  0  0  0  0  0  0  0  0
    0.7486    1.8957   -1.3034 H   0  0  0  0  0  0  0  0  0  0  0  0
    0.9816    1.9528    1.3518 H   0  0  0  0  0  0  0  0  0  0  0  0
   -0.7860    2.4635    1.3731 H   0  0  0  0  0  0  0  0  0  0  0  0
  1  2  1  0
  2  3  1  0
  3  4  1  0
  4  5  1  0
  5  6  1  0
  6  7  1  0
  4  8  1  0
  8  9  1  0
  9  4  1  0
  1 10  1  0
  1 11  1  0
  1 12  1  0
  2 13  1  0
  2 14  1  0
  5 15  1  0
  5 16  1  0
  6 17  1  0
  6 18  1  0
  7 19  1  0
  8 20  1  0
  8 21  1  0
  9 22  1  0
  9 23  1  0
M  END
