
     RDKit          3D

 21 20  0  0  0  0  0  0  0  0999 V2000
    2.5222   -0.1531   -0.5608 C   0  0  0  0  0  0  0  0  0  0  0  0
    1.9170   -1.1100    0.4332 C   0  0  0  0  0  0  0  0  0  0  0  0
    0.8580   -0.5290    1.0494 O   0  0  0  0  0  0  0  0  0  0  0  0
   -0.2034   -0.1321    0.3014 C   0  0  0  0  0  0  0  0  0  0  0  0
   -0.2877    1.3990    0.3878 C   0  0  0  0  0  0  0  0  0  0  0  0
   -1.3801    1.7882   -0.3823 O   0  0  0  0  0  0  0  0  0  0  0  0
   -1.4972   -0.7108    0.6716 C   0  0  0  0  0  0  0  0  0  0  0  0
   -2.7241   -0.3445   -0.0814 C   0  0  0  0  0  0  0  0  0  0  0  0
   -1.6408   -1.4993    1.5865 O   0  0  0  0  0  0  0  0  0  0  0  0
    2.8187    0.8105   -0.0809 H   0  0  0  0  0  0  0  0  0  0  0  0
    1.8465    0.1080   -1.3964 H   0  0  0  0  0  0  0  0  0  0  0  0
    3.4303   -0.6050   -1.0224 H   0  0  0  0  0  0  0  0  0  0  0  0
    1.6907   -2.0680   -0.0762 H   0  0  0  0  0  0  0  0  0  0  0  0
    2.6685   -1.3634    1.2142 H   0  0  0  0  0  0  0  0  0  0  0  0
   -0.0129   -0.3699   -0.7671 H   0  0  0  0  0  0  0  0  0  0  0  0
   -0.3670    1.6892    1.4438 H   0  0  0  0  0  0  0  0  0  0  0  0
    0.6317    1.7831   -0.0560 H   0  0  0  0  0  0  0  0  0  0  0  0
   -1.0530    2.0447   -1.2768 H   0  0  0  0  0  0  0  0  0  0  0  0
   -3.2265    0.5525    0.3451 H   0  0  0  0  0  0  0  0  0  0  0  0
   -2.5262   -0.1305   -1.1473 H   0  0  0  0  0  0  0  0  0  0  0  0
   -3.4645   -1.1598   -0.0447 H   0  0  0  0  0  0  0  0  0  0  0  0
  1  2  1  0
  2  3  1  0
  3  4  1  0
  4  5  1  0
  5  6  1  0
  4  7  1  0
  7  8  1  0
  7  9  2  0
  1 10  1  0
  1 11  1  0
  1 12  1  0
  2 13  1  0
  2 14  1  0
  4 15  1  0
  5 16  1  0
  5 17  1  0
  6 18  1  0
  8 19  1  0
  8 20  1  0
  8 21  1  0
M  END
