
     RDKit          3D

 21 21  0  0  0  0  0  0  0  0999 V2000
    2.5566    0.2133   -0.8982 C   0  0  0  0  0  0  0  0  0  0  0  0
    1.4387   -0.7636   -0.9561 C   0  0  0  0  0  0  0  0  0  0  0  0
    0.1637   -0.2077   -0.9091 O   0  0  0  0  0  0  0  0  0  0  0  0
   -0.0426    0.5089    0.2515 C   0  0  0  0  0  0  0  0  0  0  0  0
   -0.2781    1.9287   -0.0505 C   0  0  0  0  0  0  0  0  0  0  0  0
   -0.2723    2.3009   -1.2081 O   0  0  0  0  0  0  0  0  0  0  0  0
   -1.1194   -0.0926    1.1286 C   0  0  0  0  0  0  0  0  0  0  0  0
   -2.5036   -0.2256    0.5749 C   0  0  0  0  0  0  0  0  0  0  0  0
   -1.6882   -1.4294    0.7949 C   0  0  0  0  0  0  0  0  0  0  0  0
    3.2409    0.0534   -1.7700 H   0  0  0  0  0  0  0  0  0  0  0  0
    3.1837    0.0931    0.0112 H   0  0  0  0  0  0  0  0  0  0  0  0
    2.2613    1.2784   -0.9460 H   0  0  0  0  0  0  0  0  0  0  0  0
    1.4752   -1.3747   -1.9019 H   0  0  0  0  0  0  0  0  0  0  0  0
    1.5484   -1.5206   -0.1375 H   0  0  0  0  0  0  0  0  0  0  0  0
    0.9120    0.4457    0.8534 H   0  0  0  0  0  0  0  0  0  0  0  0
   -0.4612    2.6902    0.6954 H   0  0  0  0  0  0  0  0  0  0  0  0
   -1.0539    0.1095    2.2195 H   0  0  0  0  0  0  0  0  0  0  0  0
   -3.3374    0.0776    1.2252 H   0  0  0  0  0  0  0  0  0  0  0  0
   -2.6892    0.0389   -0.4964 H   0  0  0  0  0  0  0  0  0  0  0  0
   -2.0107   -2.1237    1.6126 H   0  0  0  0  0  0  0  0  0  0  0  0
   -1.3240   -2.0008   -0.0934 H   0  0  0  0  0  0  0  0  0  0  0  0
  1  2  1  0
  2  3  1  0
  3  4  1  0
  4  5  1  0
  5  6  2  0
  4  7  1  0
  7  8  1  0
  8  9  1  0
  9  7  1  0
  1 10  1  0
  1 11  1  0
  1 12  1  0
  2 13  1  0
  2 14  1  0
  4 15  1  0
  5 16  1  0
  7 17  1  0
  8 18  1  0
  8 19  1  0
  9 20  1  0
  9 21  1  0
M  END
