
     RDKit          3D

 20 20  0  0  0  0  0  0  0  0999 V2000
   -2.6797    0.9672   -0.0581 C   0  0  0  0  0  0  0  0  0  0  0  0
   -1.4990    0.1439   -0.4638 C   0  0  0  0  0  0  0  0  0  0  0  0
   -0.4820    0.1184    0.4572 O   0  0  0  0  0  0  0  0  0  0  0  0
    0.5434   -0.6795   -0.0490 C   0  0  0  0  0  0  0  0  0  0  0  0
    0.8000   -1.8851    0.8243 C   0  0  0  0  0  0  0  0  0  0  0  0
    1.8175    0.0770   -0.2081 C   0  0  0  0  0  0  0  0  0  0  0  0
    2.0132    1.4324    0.1969 C   0  0  0  0  0  0  0  0  0  0  0  0
    1.6023    1.2087   -1.1476 O   0  0  0  0  0  0  0  0  0  0  0  0
   -2.4685    2.0476   -0.0520 H   0  0  0  0  0  0  0  0  0  0  0  0
   -3.1258    0.6064    0.8981 H   0  0  0  0  0  0  0  0  0  0  0  0
   -3.4708    0.8093   -0.8394 H   0  0  0  0  0  0  0  0  0  0  0  0
   -1.1066    0.5457   -1.4182 H   0  0  0  0  0  0  0  0  0  0  0  0
   -1.8219   -0.8942   -0.6713 H   0  0  0  0  0  0  0  0  0  0  0  0
    0.2774   -1.0909   -1.0666 H   0  0  0  0  0  0  0  0  0  0  0  0
    0.1650   -2.7340    0.4759 H   0  0  0  0  0  0  0  0  0  0  0  0
    0.5658   -1.7201    1.8799 H   0  0  0  0  0  0  0  0  0  0  0  0
    1.8488   -2.2316    0.7568 H   0  0  0  0  0  0  0  0  0  0  0  0
    2.6579   -0.5149   -0.6179 H   0  0  0  0  0  0  0  0  0  0  0  0
    1.3124    1.9663    0.8628 H   0  0  0  0  0  0  0  0  0  0  0  0
    3.0503    1.8274    0.2402 H   0  0  0  0  0  0  0  0  0  0  0  0
  1  2  1  0
  2  3  1  0
  3  4  1  0
  4  5  1  0
  4  6  1  0
  6  7  1  0
  7  8  1  0
  8  6  1  0
  1  9  1  0
  1 10  1  0
  1 11  1  0
  2 12  1  0
  2 13  1  0
  4 14  1  0
  5 15  1  0
  5 16  1  0
  5 17  1  0
  6 18  1  0
  7 19  1  0
  7 20  1  0
M  END
