
     RDKit          3D

 21 21  0  0  0  0  0  0  0  0999 V2000
    3.5084    0.3892    0.2068 C   0  0  0  0  0  0  0  0  0  0  0  0
    2.2982   -0.3945    0.5233 C   0  0  0  0  0  0  0  0  0  0  0  0
    1.0888    0.1350    0.0063 O   0  0  0  0  0  0  0  0  0  0  0  0
   -0.0909   -0.4548    0.5312 C   0  0  0  0  0  0  0  0  0  0  0  0
   -0.0745   -1.2965    1.3515 O   0  0  0  0  0  0  0  0  0  0  0  0
   -1.3964    0.0087   -0.0248 C   0  0  0  0  0  0  0  0  0  0  0  0
   -1.4655   -0.0580   -1.5249 C   0  0  0  0  0  0  0  0  0  0  0  0
   -2.6188   -0.3781    0.7774 C   0  0  0  0  0  0  0  0  0  0  0  0
   -2.2063    1.0668    0.6191 C   0  0  0  0  0  0  0  0  0  0  0  0
    3.7683    0.9739    1.1484 H   0  0  0  0  0  0  0  0  0  0  0  0
    3.4961    1.0336   -0.6679 H   0  0  0  0  0  0  0  0  0  0  0  0
    4.3760   -0.3333    0.1347 H   0  0  0  0  0  0  0  0  0  0  0  0
    2.1814   -0.5924    1.5753 H   0  0  0  0  0  0  0  0  0  0  0  0
    2.3585   -1.4328   -0.0064 H   0  0  0  0  0  0  0  0  0  0  0  0
   -2.4893   -0.4244   -1.7893 H   0  0  0  0  0  0  0  0  0  0  0  0
   -0.7912   -0.9022   -1.8508 H   0  0  0  0  0  0  0  0  0  0  0  0
   -1.2016    0.8948   -1.9588 H   0  0  0  0  0  0  0  0  0  0  0  0
   -2.4874   -0.7933    1.7987 H   0  0  0  0  0  0  0  0  0  0  0  0
   -3.5199   -0.7604    0.2491 H   0  0  0  0  0  0  0  0  0  0  0  0
   -1.9353    1.6121    1.5148 H   0  0  0  0  0  0  0  0  0  0  0  0
   -2.7986    1.7066   -0.0949 H   0  0  0  0  0  0  0  0  0  0  0  0
  1  2  1  0
  2  3  1  0
  3  4  1  0
  4  5  2  0
  4  6  1  0
  6  7  1  0
  6  8  1  0
  8  9  1  0
  9  6  1  0
  1 10  1  0
  1 11  1  0
  1 12  1  0
  2 13  1  0
  2 14  1  0
  7 15  1  0
  7 16  1  0
  7 17  1  0
  8 18  1  0
  8 19  1  0
  9 20  1  0
  9 21  1  0
M  END
