
     RDKit          3D

 23 23  0  0  0  0  0  0  0  0999 V2000
    3.6061   -0.6107   -0.5322 C   0  0  0  0  0  0  0  0  0  0  0  0
    2.0930   -0.2922   -0.5235 C   0  0  0  0  0  0  0  0  0  0  0  0
    1.7918    0.0791    0.7437 O   0  0  0  0  0  0  0  0  0  0  0  0
    0.5199    0.4772    1.0458 C   0  0  0  0  0  0  0  0  0  0  0  0
   -0.4848   -0.5728    0.7858 C   0  0  0  0  0  0  0  0  0  0  0  0
   -0.5824   -0.9673   -0.5887 O   0  0  0  0  0  0  0  0  0  0  0  0
   -1.6819   -0.3417    0.0158 C   0  0  0  0  0  0  0  0  0  0  0  0
   -2.0087    1.0845   -0.4050 C   0  0  0  0  0  0  0  0  0  0  0  0
   -2.8884   -1.2275    0.1344 C   0  0  0  0  0  0  0  0  0  0  0  0
    3.9490   -0.9058    0.4710 H   0  0  0  0  0  0  0  0  0  0  0  0
    3.8099   -1.4414   -1.2262 H   0  0  0  0  0  0  0  0  0  0  0  0
    4.1150    0.3207   -0.9008 H   0  0  0  0  0  0  0  0  0  0  0  0
    1.8261    0.4049   -1.3238 H   0  0  0  0  0  0  0  0  0  0  0  0
    1.6088   -1.2819   -0.7608 H   0  0  0  0  0  0  0  0  0  0  0  0
    0.5596    0.7441    2.1528 H   0  0  0  0  0  0  0  0  0  0  0  0
    0.3334    1.4248    0.4766 H   0  0  0  0  0  0  0  0  0  0  0  0
   -0.4209   -1.4428    1.5034 H   0  0  0  0  0  0  0  0  0  0  0  0
   -1.1681    1.5656   -0.9008 H   0  0  0  0  0  0  0  0  0  0  0  0
   -2.3678    1.6022    0.5070 H   0  0  0  0  0  0  0  0  0  0  0  0
   -2.8864    1.0761   -1.1098 H   0  0  0  0  0  0  0  0  0  0  0  0
   -3.7325   -0.6462    0.5947 H   0  0  0  0  0  0  0  0  0  0  0  0
   -3.2590   -1.5237   -0.8838 H   0  0  0  0  0  0  0  0  0  0  0  0
   -2.7317   -2.1285    0.7246 H   0  0  0  0  0  0  0  0  0  0  0  0
  1  2  1  0
  2  3  1  0
  3  4  1  0
  4  5  1  0
  5  6  1  0
  6  7  1  0
  7  8  1  0
  7  9  1  0
  7  5  1  0
  1 10  1  0
  1 11  1  0
  1 12  1  0
  2 13  1  0
  2 14  1  0
  4 15  1  0
  4 16  1  0
  5 17  1  0
  8 18  1  0
  8 19  1  0
  8 20  1  0
  9 21  1  0
  9 22  1  0
  9 23  1  0
M  END
