
     RDKit          3D

 25 25  0  0  0  0  0  0  0  0999 V2000
    2.4856   -0.7450   -0.7767 C   0  0  0  0  0  0  0  0  0  0  0  0
    2.3014   -0.0546    0.5339 C   0  0  0  0  0  0  0  0  0  0  0  0
    1.0158   -0.0156    1.0047 O   0  0  0  0  0  0  0  0  0  0  0  0
    0.1101    0.6281    0.1840 C   0  0  0  0  0  0  0  0  0  0  0  0
   -0.4189    1.8908    0.8333 C   0  0  0  0  0  0  0  0  0  0  0  0
   -1.0447   -0.2591   -0.2293 C   0  0  0  0  0  0  0  0  0  0  0  0
   -1.8412   -0.7664    0.9738 C   0  0  0  0  0  0  0  0  0  0  0  0
   -1.8730    0.0840   -1.4062 C   0  0  0  0  0  0  0  0  0  0  0  0
   -0.9470   -1.0956   -1.4464 C   0  0  0  0  0  0  0  0  0  0  0  0
    2.3453   -0.0447   -1.6336 H   0  0  0  0  0  0  0  0  0  0  0  0
    1.8804   -1.6672   -0.8793 H   0  0  0  0  0  0  0  0  0  0  0  0
    3.5614   -1.0792   -0.8546 H   0  0  0  0  0  0  0  0  0  0  0  0
    2.7689    0.9575    0.4439 H   0  0  0  0  0  0  0  0  0  0  0  0
    2.9148   -0.5853    1.3009 H   0  0  0  0  0  0  0  0  0  0  0  0
    0.6883    0.9740   -0.7142 H   0  0  0  0  0  0  0  0  0  0  0  0
   -0.1183    2.8106    0.3109 H   0  0  0  0  0  0  0  0  0  0  0  0
   -0.0616    1.8990    1.8820 H   0  0  0  0  0  0  0  0  0  0  0  0
   -1.5277    1.8917    0.8866 H   0  0  0  0  0  0  0  0  0  0  0  0
   -2.5041    0.0790    1.2831 H   0  0  0  0  0  0  0  0  0  0  0  0
   -1.1722   -1.0195    1.8019 H   0  0  0  0  0  0  0  0  0  0  0  0
   -2.5184   -1.5951    0.6832 H   0  0  0  0  0  0  0  0  0  0  0  0
   -1.6440    0.9591   -2.0436 H   0  0  0  0  0  0  0  0  0  0  0  0
   -2.9563   -0.1549   -1.3905 H   0  0  0  0  0  0  0  0  0  0  0  0
   -1.3705   -2.1253   -1.4721 H   0  0  0  0  0  0  0  0  0  0  0  0
   -0.0739   -0.9665   -2.1127 H   0  0  0  0  0  0  0  0  0  0  0  0
  1  2  1  0
  2  3  1  0
  3  4  1  0
  4  5  1  0
  4  6  1  0
  6  7  1  0
  6  8  1  0
  8  9  1  0
  9  6  1  0
  1 10  1  0
  1 11  1  0
  1 12  1  0
  2 13  1  0
  2 14  1  0
  4 15  1  0
  5 16  1  0
  5 17  1  0
  5 18  1  0
  7 19  1  0
  7 20  1  0
  7 21  1  0
  8 22  1  0
  8 23  1  0
  9 24  1  0
  9 25  1  0
M  END
