
     RDKit          3D

 23 23  0  0  0  0  0  0  0  0999 V2000
    3.4552    0.6463   -0.3783 C   0  0  0  0  0  0  0  0  0  0  0  0
    2.2829   -0.0928    0.1855 C   0  0  0  0  0  0  0  0  0  0  0  0
    1.0627    0.3372   -0.3344 O   0  0  0  0  0  0  0  0  0  0  0  0
    0.0696   -0.4053    0.2508 C   0  0  0  0  0  0  0  0  0  0  0  0
   -1.3153   -0.0490   -0.2176 C   0  0  0  0  0  0  0  0  0  0  0  0
   -1.7083    1.3885    0.0487 C   0  0  0  0  0  0  0  0  0  0  0  0
   -2.3157   -1.0593    0.3292 C   0  0  0  0  0  0  0  0  0  0  0  0
   -2.7651   -1.2998   -0.9622 O   0  0  0  0  0  0  0  0  0  0  0  0
   -1.7235   -0.5870   -1.5514 C   0  0  0  0  0  0  0  0  0  0  0  0
    3.1524    1.1734   -1.2860 H   0  0  0  0  0  0  0  0  0  0  0  0
    3.9182    1.3208    0.3833 H   0  0  0  0  0  0  0  0  0  0  0  0
    4.2730   -0.0907   -0.6325 H   0  0  0  0  0  0  0  0  0  0  0  0
    2.4168   -1.1786    0.0435 H   0  0  0  0  0  0  0  0  0  0  0  0
    2.2725    0.0796    1.3004 H   0  0  0  0  0  0  0  0  0  0  0  0
    0.2864   -1.4764    0.1534 H   0  0  0  0  0  0  0  0  0  0  0  0
    0.1029   -0.1818    1.3545 H   0  0  0  0  0  0  0  0  0  0  0  0
   -1.3148    1.6442    1.0513 H   0  0  0  0  0  0  0  0  0  0  0  0
   -2.8221    1.4095    0.0720 H   0  0  0  0  0  0  0  0  0  0  0  0
   -1.2964    2.0616   -0.7287 H   0  0  0  0  0  0  0  0  0  0  0  0
   -1.8385   -1.9953    0.7193 H   0  0  0  0  0  0  0  0  0  0  0  0
   -3.0116   -0.5775    1.0121 H   0  0  0  0  0  0  0  0  0  0  0  0
   -1.0286   -1.2524   -2.0629 H   0  0  0  0  0  0  0  0  0  0  0  0
   -2.1527    0.1850   -2.2383 H   0  0  0  0  0  0  0  0  0  0  0  0
  1  2  1  0
  2  3  1  0
  3  4  1  0
  4  5  1  0
  5  6  1  0
  5  7  1  0
  7  8  1  0
  8  9  1  0
  9  5  1  0
  1 10  1  0
  1 11  1  0
  1 12  1  0
  2 13  1  0
  2 14  1  0
  4 15  1  0
  4 16  1  0
  6 17  1  0
  6 18  1  0
  6 19  1  0
  7 20  1  0
  7 21  1  0
  9 22  1  0
  9 23  1  0
M  END
