
     RDKit          3D

 23 23  0  0  0  0  0  0  0  0999 V2000
    3.3282   -0.6538   -0.1370 C   0  0  0  0  0  0  0  0  0  0  0  0
    2.1827    0.2324   -0.5872 C   0  0  0  0  0  0  0  0  0  0  0  0
    1.0203   -0.2769   -0.0167 O   0  0  0  0  0  0  0  0  0  0  0  0
   -0.1045    0.4555   -0.3584 C   0  0  0  0  0  0  0  0  0  0  0  0
   -1.1013    0.6040    0.7951 C   0  0  0  0  0  0  0  0  0  0  0  0
   -1.6265    2.0054    0.9584 C   0  0  0  0  0  0  0  0  0  0  0  0
   -1.4278   -0.2297   -0.3625 C   0  0  0  0  0  0  0  0  0  0  0  0
   -1.4036   -1.7222   -0.2621 C   0  0  0  0  0  0  0  0  0  0  0  0
   -2.6679   -2.2941   -0.2715 O   0  0  0  0  0  0  0  0  0  0  0  0
    3.1949   -1.6472   -0.5770 H   0  0  0  0  0  0  0  0  0  0  0  0
    3.2328   -0.7554    0.9694 H   0  0  0  0  0  0  0  0  0  0  0  0
    4.3149   -0.1992   -0.3542 H   0  0  0  0  0  0  0  0  0  0  0  0
    2.0638    0.1445   -1.6857 H   0  0  0  0  0  0  0  0  0  0  0  0
    2.3750    1.2739   -0.2524 H   0  0  0  0  0  0  0  0  0  0  0  0
    0.0589    1.3284   -1.0233 H   0  0  0  0  0  0  0  0  0  0  0  0
   -0.8917    0.0840    1.7435 H   0  0  0  0  0  0  0  0  0  0  0  0
   -2.7008    2.1046    0.7341 H   0  0  0  0  0  0  0  0  0  0  0  0
   -1.0996    2.7383    0.2823 H   0  0  0  0  0  0  0  0  0  0  0  0
   -1.4625    2.3733    1.9846 H   0  0  0  0  0  0  0  0  0  0  0  0
   -2.2148    0.1729   -1.0487 H   0  0  0  0  0  0  0  0  0  0  0  0
   -0.7414   -2.1278   -1.0518 H   0  0  0  0  0  0  0  0  0  0  0  0
   -0.9365   -1.9852    0.7147 H   0  0  0  0  0  0  0  0  0  0  0  0
   -3.3925   -1.6256   -0.1937 H   0  0  0  0  0  0  0  0  0  0  0  0
  1  2  1  0
  2  3  1  0
  3  4  1  0
  4  5  1  0
  5  6  1  0
  5  7  1  0
  7  8  1  0
  8  9  1  0
  7  4  1  0
  1 10  1  0
  1 11  1  0
  1 12  1  0
  2 13  1  0
  2 14  1  0
  4 15  1  0
  5 16  1  0
  6 17  1  0
  6 18  1  0
  6 19  1  0
  7 20  1  0
  8 21  1  0
  8 22  1  0
  9 23  1  0
M  END
