
     RDKit          3D

 21 22  0  0  0  0  0  0  0  0999 V2000
    3.3931    0.5601    0.1183 C   0  0  0  0  0  0  0  0  0  0  0  0
    2.2501   -0.3870    0.3429 C   0  0  0  0  0  0  0  0  0  0  0  0
    0.9997    0.2669    0.2611 O   0  0  0  0  0  0  0  0  0  0  0  0
    0.0398   -0.7017    0.4832 C   0  0  0  0  0  0  0  0  0  0  0  0
   -1.3564   -0.2362    0.4431 C   0  0  0  0  0  0  0  0  0  0  0  0
   -2.3486   -1.0258   -0.4149 C   0  0  0  0  0  0  0  0  0  0  0  0
   -2.0246    0.3926   -0.6826 C   0  0  0  0  0  0  0  0  0  0  0  0
   -2.6250    1.3700    0.3165 C   0  0  0  0  0  0  0  0  0  0  0  0
   -1.8381    0.7256    1.2959 O   0  0  0  0  0  0  0  0  0  0  0  0
    4.0413    0.2638   -0.7403 H   0  0  0  0  0  0  0  0  0  0  0  0
    4.0941    0.5929    1.0016 H   0  0  0  0  0  0  0  0  0  0  0  0
    3.0742    1.6126   -0.0291 H   0  0  0  0  0  0  0  0  0  0  0  0
    2.3975   -0.8560    1.3378 H   0  0  0  0  0  0  0  0  0  0  0  0
    2.2904   -1.2351   -0.3972 H   0  0  0  0  0  0  0  0  0  0  0  0
    0.2488   -1.1485    1.4819 H   0  0  0  0  0  0  0  0  0  0  0  0
    0.1764   -1.4862   -0.3046 H   0  0  0  0  0  0  0  0  0  0  0  0
   -1.8788   -1.7703   -1.0680 H   0  0  0  0  0  0  0  0  0  0  0  0
   -3.2992   -1.2847    0.1093 H   0  0  0  0  0  0  0  0  0  0  0  0
   -1.5579    0.7501   -1.5953 H   0  0  0  0  0  0  0  0  0  0  0  0
   -2.3850    2.4249    0.1506 H   0  0  0  0  0  0  0  0  0  0  0  0
   -3.6916    1.1720    0.5600 H   0  0  0  0  0  0  0  0  0  0  0  0
  1  2  1  0
  2  3  1  0
  3  4  1  0
  4  5  1  0
  5  6  1  0
  6  7  1  0
  7  8  1  0
  8  9  1  0
  7  5  1  0
  9  5  1  0
  1 10  1  0
  1 11  1  0
  1 12  1  0
  2 13  1  0
  2 14  1  0
  4 15  1  0
  4 16  1  0
  6 17  1  0
  6 18  1  0
  7 19  1  0
  8 20  1  0
  8 21  1  0
M  END
