
     RDKit          3D

 16 15  0  0  0  0  0  0  0  0999 V2000
   -2.0792    0.0100    0.6551 C   0  0  0  0  0  0  0  0  0  0  0  0
   -1.2561   -0.5654   -0.4879 C   0  0  0  0  0  0  0  0  0  0  0  0
   -0.0532    0.1367   -0.5006 O   0  0  0  0  0  0  0  0  0  0  0  0
    0.6200   -0.0146    0.6992 C   0  0  0  0  0  0  0  0  0  0  0  0
    1.9092    0.7773    0.5978 C   0  0  0  0  0  0  0  0  0  0  0  0
    2.6179    0.2148   -0.4893 O   0  0  0  0  0  0  0  0  0  0  0  0
   -1.8430    1.0712    0.7561 H   0  0  0  0  0  0  0  0  0  0  0  0
   -3.1439   -0.2000    0.4125 H   0  0  0  0  0  0  0  0  0  0  0  0
   -1.8002   -0.5070    1.6009 H   0  0  0  0  0  0  0  0  0  0  0  0
   -1.8219   -0.3876   -1.4070 H   0  0  0  0  0  0  0  0  0  0  0  0
   -1.0575   -1.6449   -0.3631 H   0  0  0  0  0  0  0  0  0  0  0  0
    0.8202   -1.0926    0.8627 H   0  0  0  0  0  0  0  0  0  0  0  0
    0.0191    0.4139    1.5418 H   0  0  0  0  0  0  0  0  0  0  0  0
    1.7069    1.8375    0.4390 H   0  0  0  0  0  0  0  0  0  0  0  0
    2.5375    0.6667    1.4895 H   0  0  0  0  0  0  0  0  0  0  0  0
    2.8244   -0.7160   -0.1998 H   0  0  0  0  0  0  0  0  0  0  0  0
  1  2  1  0
  2  3  1  0
  3  4  1  0
  4  5  1  0
  5  6  1  0
  1  7  1  0
  1  8  1  0
  1  9  1  0
  2 10  1  0
  2 11  1  0
  4 12  1  0
  4 13  1  0
  5 14  1  0
  5 15  1  0
  6 16  1  0
M  END
