
     RDKit          3D

 20 19  0  0  0  0  0  0  0  0999 V2000
    3.0759    0.4801    0.3979 C   0  0  0  0  0  0  0  0  0  0  0  0
    1.8018    0.2513   -0.3594 C   0  0  0  0  0  0  0  0  0  0  0  0
    0.7720   -0.0367    0.5442 O   0  0  0  0  0  0  0  0  0  0  0  0
   -0.4345   -0.2577   -0.1059 C   0  0  0  0  0  0  0  0  0  0  0  0
   -0.8650   -1.6794    0.1483 C   0  0  0  0  0  0  0  0  0  0  0  0
   -1.4276    0.7362    0.3040 C   0  0  0  0  0  0  0  0  0  0  0  0
   -2.8245    0.7897   -0.2006 C   0  0  0  0  0  0  0  0  0  0  0  0
   -1.1068    1.5868    1.1138 O   0  0  0  0  0  0  0  0  0  0  0  0
    2.9487    1.0835    1.3053 H   0  0  0  0  0  0  0  0  0  0  0  0
    3.5220   -0.5101    0.6640 H   0  0  0  0  0  0  0  0  0  0  0  0
    3.8108    0.9969   -0.2822 H   0  0  0  0  0  0  0  0  0  0  0  0
    1.8989   -0.6322   -1.0229 H   0  0  0  0  0  0  0  0  0  0  0  0
    1.5587    1.1232   -0.9929 H   0  0  0  0  0  0  0  0  0  0  0  0
   -0.2943   -0.1511   -1.2158 H   0  0  0  0  0  0  0  0  0  0  0  0
   -0.3609   -2.0574    1.0792 H   0  0  0  0  0  0  0  0  0  0  0  0
   -1.9558   -1.8033    0.1872 H   0  0  0  0  0  0  0  0  0  0  0  0
   -0.4742   -2.3328   -0.6735 H   0  0  0  0  0  0  0  0  0  0  0  0
   -3.2127   -0.2374   -0.4333 H   0  0  0  0  0  0  0  0  0  0  0  0
   -3.4881    1.1752    0.6034 H   0  0  0  0  0  0  0  0  0  0  0  0
   -2.9445    1.4752   -1.0608 H   0  0  0  0  0  0  0  0  0  0  0  0
  1  2  1  0
  2  3  1  0
  3  4  1  0
  4  5  1  0
  4  6  1  0
  6  7  1  0
  6  8  2  0
  1  9  1  0
  1 10  1  0
  1 11  1  0
  2 12  1  0
  2 13  1  0
  4 14  1  0
  5 15  1  0
  5 16  1  0
  5 17  1  0
  7 18  1  0
  7 19  1  0
  7 20  1  0
M  END
