
     RDKit          3D

 19 20  0  0  0  0  0  0  0  0999 V2000
   -2.5480    0.1746   -0.7338 C   0  0  0  0  0  0  0  0  0  0  0  0
   -2.0815   -0.0892    0.6859 C   0  0  0  0  0  0  0  0  0  0  0  0
   -0.8525   -0.7029    0.7466 O   0  0  0  0  0  0  0  0  0  0  0  0
    0.1715    0.0053    0.1711 C   0  0  0  0  0  0  0  0  0  0  0  0
    1.1632   -0.8360   -0.5828 C   0  0  0  0  0  0  0  0  0  0  0  0
    1.5979   -1.2955    0.6592 O   0  0  0  0  0  0  0  0  0  0  0  0
    1.4617    0.0666    0.8990 C   0  0  0  0  0  0  0  0  0  0  0  0
    2.1466    0.2638   -0.4255 C   0  0  0  0  0  0  0  0  0  0  0  0
    3.4747   -0.0822   -0.4917 O   0  0  0  0  0  0  0  0  0  0  0  0
   -3.6740    0.1260   -0.7993 H   0  0  0  0  0  0  0  0  0  0  0  0
   -2.1313   -0.5527   -1.4587 H   0  0  0  0  0  0  0  0  0  0  0  0
   -2.2720    1.2040   -1.0778 H   0  0  0  0  0  0  0  0  0  0  0  0
   -2.8298   -0.7590    1.1434 H   0  0  0  0  0  0  0  0  0  0  0  0
   -2.0120    0.8812    1.2557 H   0  0  0  0  0  0  0  0  0  0  0  0
   -0.0867    0.9805   -0.2760 H   0  0  0  0  0  0  0  0  0  0  0  0
    0.9758   -1.4028   -1.3926 H   0  0  0  0  0  0  0  0  0  0  0  0
    1.6781    0.5465    1.7590 H   0  0  0  0  0  0  0  0  0  0  0  0
    1.8379    1.1822   -0.9327 H   0  0  0  0  0  0  0  0  0  0  0  0
    3.9804    0.2896    0.2596 H   0  0  0  0  0  0  0  0  0  0  0  0
  1  2  1  0
  2  3  1  0
  3  4  1  0
  4  5  1  0
  5  6  1  0
  6  7  1  0
  7  8  1  0
  8  9  1  0
  7  4  1  0
  8  5  1  0
  1 10  1  0
  1 11  1  0
  1 12  1  0
  2 13  1  0
  2 14  1  0
  4 15  1  0
  5 16  1  0
  7 17  1  0
  8 18  1  0
  9 19  1  0
M  END
