
     RDKit          3D

 21 22  0  0  0  0  0  0  0  0999 V2000
    3.6127   -0.1595    0.0810 C   0  0  0  0  0  0  0  0  0  0  0  0
    2.2625    0.4883    0.3944 C   0  0  0  0  0  0  0  0  0  0  0  0
    1.2883   -0.3306   -0.1315 O   0  0  0  0  0  0  0  0  0  0  0  0
    0.0083    0.1170    0.0684 C   0  0  0  0  0  0  0  0  0  0  0  0
   -1.1081   -0.8520    0.1599 C   0  0  0  0  0  0  0  0  0  0  0  0
   -2.4323   -0.3779    0.6968 C   0  0  0  0  0  0  0  0  0  0  0  0
   -2.9701    0.4953   -0.4001 C   0  0  0  0  0  0  0  0  0  0  0  0
   -1.9159    0.8381   -1.2226 O   0  0  0  0  0  0  0  0  0  0  0  0
   -0.9386   -0.1262   -1.0957 C   0  0  0  0  0  0  0  0  0  0  0  0
    3.6370   -0.5468   -0.9630 H   0  0  0  0  0  0  0  0  0  0  0  0
    4.3478    0.6961    0.1041 H   0  0  0  0  0  0  0  0  0  0  0  0
    3.8688   -0.9271    0.8351 H   0  0  0  0  0  0  0  0  0  0  0  0
    2.1982    1.5022   -0.0412 H   0  0  0  0  0  0  0  0  0  0  0  0
    2.1646    0.5076    1.5180 H   0  0  0  0  0  0  0  0  0  0  0  0
   -0.0719    1.0806    0.6280 H   0  0  0  0  0  0  0  0  0  0  0  0
   -0.8419   -1.9134    0.2572 H   0  0  0  0  0  0  0  0  0  0  0  0
   -3.0759   -1.2821    0.8332 H   0  0  0  0  0  0  0  0  0  0  0  0
   -2.3497    0.1417    1.6560 H   0  0  0  0  0  0  0  0  0  0  0  0
   -3.3908    1.4156    0.0572 H   0  0  0  0  0  0  0  0  0  0  0  0
   -3.7139   -0.0699   -0.9854 H   0  0  0  0  0  0  0  0  0  0  0  0
   -0.5790   -0.6972   -1.9660 H   0  0  0  0  0  0  0  0  0  0  0  0
  1  2  1  0
  2  3  1  0
  3  4  1  0
  4  5  1  0
  5  6  1  0
  6  7  1  0
  7  8  1  0
  8  9  1  0
  9  4  1  0
  9  5  1  0
  1 10  1  0
  1 11  1  0
  1 12  1  0
  2 13  1  0
  2 14  1  0
  4 15  1  0
  5 16  1  0
  6 17  1  0
  6 18  1  0
  7 19  1  0
  7 20  1  0
  9 21  1  0
M  END
