
     RDKit          3D

 19 18  0  0  0  0  0  0  0  0999 V2000
    3.7286    0.0293    0.4206 C   0  0  0  0  0  0  0  0  0  0  0  0
    2.5387    0.4562   -0.3679 C   0  0  0  0  0  0  0  0  0  0  0  0
    1.3279   -0.0800    0.1825 O   0  0  0  0  0  0  0  0  0  0  0  0
    0.1043    0.2091   -0.4192 C   0  0  0  0  0  0  0  0  0  0  0  0
    0.1499    0.9457   -1.4383 O   0  0  0  0  0  0  0  0  0  0  0  0
   -1.1530   -0.3083    0.0973 C   0  0  0  0  0  0  0  0  0  0  0  0
   -1.2267   -1.0416    1.1071 O   0  0  0  0  0  0  0  0  0  0  0  0
   -2.4035    0.0522   -0.6083 C   0  0  0  0  0  0  0  0  0  0  0  0
   -3.6200   -0.5435    0.0240 C   0  0  0  0  0  0  0  0  0  0  0  0
    4.5540   -0.1889   -0.3156 H   0  0  0  0  0  0  0  0  0  0  0  0
    3.5810   -0.8891    1.0016 H   0  0  0  0  0  0  0  0  0  0  0  0
    4.1019    0.8836    1.0221 H   0  0  0  0  0  0  0  0  0  0  0  0
    2.4289    1.5597   -0.3298 H   0  0  0  0  0  0  0  0  0  0  0  0
    2.5690    0.0907   -1.4283 H   0  0  0  0  0  0  0  0  0  0  0  0
   -2.2667   -0.2921   -1.6738 H   0  0  0  0  0  0  0  0  0  0  0  0
   -2.4683    1.1763   -0.6741 H   0  0  0  0  0  0  0  0  0  0  0  0
   -3.4195   -1.3189    0.7717 H   0  0  0  0  0  0  0  0  0  0  0  0
   -4.2516    0.2577    0.4804 H   0  0  0  0  0  0  0  0  0  0  0  0
   -4.2750   -0.9983   -0.7690 H   0  0  0  0  0  0  0  0  0  0  0  0
  1  2  1  0
  2  3  1  0
  3  4  1  0
  4  5  2  0
  4  6  1  0
  6  7  2  0
  6  8  1  0
  8  9  1  0
  1 10  1  0
  1 11  1  0
  1 12  1  0
  2 13  1  0
  2 14  1  0
  8 15  1  0
  8 16  1  0
  9 17  1  0
  9 18  1  0
  9 19  1  0
M  END
