
     RDKit          3D

 21 22  0  0  0  0  0  0  0  0999 V2000
    2.5261    0.1458   -0.5817 C   0  0  0  0  0  0  0  0  0  0  0  0
    2.0627    0.4878    0.7979 C   0  0  0  0  0  0  0  0  0  0  0  0
    0.7256    0.7955    0.8712 O   0  0  0  0  0  0  0  0  0  0  0  0
   -0.0365   -0.2707    0.4486 C   0  0  0  0  0  0  0  0  0  0  0  0
   -1.0814   -0.6637    1.4832 C   0  0  0  0  0  0  0  0  0  0  0  0
   -1.9922   -1.3599    0.7280 O   0  0  0  0  0  0  0  0  0  0  0  0
   -2.2608   -0.6331   -0.4032 C   0  0  0  0  0  0  0  0  0  0  0  0
   -2.1994    0.8382   -0.4415 C   0  0  0  0  0  0  0  0  0  0  0  0
   -0.9408    0.1151   -0.7184 C   0  0  0  0  0  0  0  0  0  0  0  0
    2.1308    0.9210   -1.2904 H   0  0  0  0  0  0  0  0  0  0  0  0
    2.2384   -0.8457   -0.9256 H   0  0  0  0  0  0  0  0  0  0  0  0
    3.6522    0.1596   -0.5585 H   0  0  0  0  0  0  0  0  0  0  0  0
    2.3213   -0.3618    1.4873 H   0  0  0  0  0  0  0  0  0  0  0  0
    2.6913    1.3405    1.1558 H   0  0  0  0  0  0  0  0  0  0  0  0
    0.5239   -1.1516    0.1367 H   0  0  0  0  0  0  0  0  0  0  0  0
   -1.5338    0.2454    1.9283 H   0  0  0  0  0  0  0  0  0  0  0  0
   -0.6144   -1.3187    2.2349 H   0  0  0  0  0  0  0  0  0  0  0  0
   -2.7346   -1.1845   -1.2355 H   0  0  0  0  0  0  0  0  0  0  0  0
   -2.6743    1.3113   -1.3364 H   0  0  0  0  0  0  0  0  0  0  0  0
   -2.2497    1.4631    0.4529 H   0  0  0  0  0  0  0  0  0  0  0  0
   -0.5546   -0.0335   -1.7404 H   0  0  0  0  0  0  0  0  0  0  0  0
  1  2  1  0
  2  3  1  0
  3  4  1  0
  4  5  1  0
  5  6  1  0
  6  7  1  0
  7  8  1  0
  8  9  1  0
  9  4  1  0
  9  7  1  0
  1 10  1  0
  1 11  1  0
  1 12  1  0
  2 13  1  0
  2 14  1  0
  4 15  1  0
  5 16  1  0
  5 17  1  0
  7 18  1  0
  8 19  1  0
  8 20  1  0
  9 21  1  0
M  END
