
     RDKit          3D

 21 21  0  0  0  0  0  0  0  0999 V2000
   -3.8872    0.0079    0.1777 C   0  0  0  0  0  0  0  0  0  0  0  0
   -2.5853    0.2753   -0.5313 C   0  0  0  0  0  0  0  0  0  0  0  0
   -1.5090   -0.0941    0.2642 O   0  0  0  0  0  0  0  0  0  0  0  0
   -0.3504    0.1817   -0.4553 C   0  0  0  0  0  0  0  0  0  0  0  0
    0.8468   -0.1847    0.3252 C   0  0  0  0  0  0  0  0  0  0  0  0
    0.7113   -0.6580    1.4410 O   0  0  0  0  0  0  0  0  0  0  0  0
    2.2157   -0.0023   -0.1887 C   0  0  0  0  0  0  0  0  0  0  0  0
    3.3155   -0.9211    0.1901 C   0  0  0  0  0  0  0  0  0  0  0  0
    3.2667    0.4327    0.8413 C   0  0  0  0  0  0  0  0  0  0  0  0
   -4.5934    0.8462    0.0361 H   0  0  0  0  0  0  0  0  0  0  0  0
   -3.7356   -0.1911    1.2600 H   0  0  0  0  0  0  0  0  0  0  0  0
   -4.3519   -0.8799   -0.2830 H   0  0  0  0  0  0  0  0  0  0  0  0
   -2.5036   -0.3052   -1.4816 H   0  0  0  0  0  0  0  0  0  0  0  0
   -2.5615    1.3421   -0.8285 H   0  0  0  0  0  0  0  0  0  0  0  0
   -0.3779    1.2727   -0.7071 H   0  0  0  0  0  0  0  0  0  0  0  0
   -0.3676   -0.3324   -1.4572 H   0  0  0  0  0  0  0  0  0  0  0  0
    2.2824    0.4327   -1.2100 H   0  0  0  0  0  0  0  0  0  0  0  0
    3.1263   -1.8143    0.8210 H   0  0  0  0  0  0  0  0  0  0  0  0
    4.1305   -1.0908   -0.5424 H   0  0  0  0  0  0  0  0  0  0  0  0
    2.9341    0.4591    1.9087 H   0  0  0  0  0  0  0  0  0  0  0  0
    3.9943    1.2236    0.5127 H   0  0  0  0  0  0  0  0  0  0  0  0
  1  2  1  0
  2  3  1  0
  3  4  1  0
  4  5  1  0
  5  6  2  0
  5  7  1  0
  7  8  1  0
  8  9  1  0
  9  7  1  0
  1 10  1  0
  1 11  1  0
  1 12  1  0
  2 13  1  0
  2 14  1  0
  4 15  1  0
  4 16  1  0
  7 17  1  0
  8 18  1  0
  8 19  1  0
  9 20  1  0
  9 21  1  0
M  END
