
     RDKit          3D

 23 23  0  0  0  0  0  0  0  0999 V2000
    3.5633   -0.4094    0.1006 C   0  0  0  0  0  0  0  0  0  0  0  0
    2.1570   -0.6830   -0.3744 C   0  0  0  0  0  0  0  0  0  0  0  0
    1.3659    0.3886    0.0336 O   0  0  0  0  0  0  0  0  0  0  0  0
    0.0574    0.1946   -0.3751 C   0  0  0  0  0  0  0  0  0  0  0  0
   -0.6607    1.4468   -0.7800 C   0  0  0  0  0  0  0  0  0  0  0  0
   -0.0718    2.6888   -0.5657 O   0  0  0  0  0  0  0  0  0  0  0  0
   -1.0732    0.6913    0.4792 C   0  0  0  0  0  0  0  0  0  0  0  0
   -2.4091    0.0591    0.4256 C   0  0  0  0  0  0  0  0  0  0  0  0
   -2.4320   -1.3992    0.7924 C   0  0  0  0  0  0  0  0  0  0  0  0
    3.7195    0.6918    0.1249 H   0  0  0  0  0  0  0  0  0  0  0  0
    4.2516   -0.8157   -0.6572 H   0  0  0  0  0  0  0  0  0  0  0  0
    3.7404   -0.8351    1.1079 H   0  0  0  0  0  0  0  0  0  0  0  0
    2.1041   -0.8489   -1.4556 H   0  0  0  0  0  0  0  0  0  0  0  0
    1.7883   -1.5802    0.1833 H   0  0  0  0  0  0  0  0  0  0  0  0
   -0.1459   -0.7254   -0.9290 H   0  0  0  0  0  0  0  0  0  0  0  0
   -1.2894    1.3597   -1.6792 H   0  0  0  0  0  0  0  0  0  0  0  0
   -0.6637    3.1714    0.0872 H   0  0  0  0  0  0  0  0  0  0  0  0
   -0.7154    1.1366    1.4493 H   0  0  0  0  0  0  0  0  0  0  0  0
   -2.8136    0.1378   -0.6007 H   0  0  0  0  0  0  0  0  0  0  0  0
   -3.0914    0.6366    1.1038 H   0  0  0  0  0  0  0  0  0  0  0  0
   -2.0941   -1.9723   -0.1055 H   0  0  0  0  0  0  0  0  0  0  0  0
   -3.5012   -1.6763    0.9445 H   0  0  0  0  0  0  0  0  0  0  0  0
   -1.7858   -1.6575    1.6363 H   0  0  0  0  0  0  0  0  0  0  0  0
  1  2  1  0
  2  3  1  0
  3  4  1  0
  4  5  1  0
  5  6  1  0
  5  7  1  0
  7  8  1  0
  8  9  1  0
  7  4  1  0
  1 10  1  0
  1 11  1  0
  1 12  1  0
  2 13  1  0
  2 14  1  0
  4 15  1  0
  5 16  1  0
  6 17  1  0
  7 18  1  0
  8 19  1  0
  8 20  1  0
  9 21  1  0
  9 22  1  0
  9 23  1  0
M  END
