
     RDKit          3D

 18 17  0  0  0  0  0  0  0  0999 V2000
    2.1261   -0.6303   -0.0003 C   0  0  0  0  0  0  0  0  0  0  0  0
    1.4294    0.3726   -0.8813 C   0  0  0  0  0  0  0  0  0  0  0  0
    0.0769    0.1677   -0.9980 O   0  0  0  0  0  0  0  0  0  0  0  0
   -0.6327    0.2165    0.1684 C   0  0  0  0  0  0  0  0  0  0  0  0
   -1.7239    1.2681    0.1701 C   0  0  0  0  0  0  0  0  0  0  0  0
   -1.3173   -1.1217    0.3741 C   0  0  0  0  0  0  0  0  0  0  0  0
    1.5415   -1.5470    0.1779 H   0  0  0  0  0  0  0  0  0  0  0  0
    2.4077   -0.1043    0.9471 H   0  0  0  0  0  0  0  0  0  0  0  0
    3.1157   -0.9376   -0.4501 H   0  0  0  0  0  0  0  0  0  0  0  0
    1.6294    1.4212   -0.5746 H   0  0  0  0  0  0  0  0  0  0  0  0
    1.8689    0.2665   -1.9021 H   0  0  0  0  0  0  0  0  0  0  0  0
    0.0148    0.4194    1.0486 H   0  0  0  0  0  0  0  0  0  0  0  0
   -2.3716    1.0604    1.0514 H   0  0  0  0  0  0  0  0  0  0  0  0
   -2.3459    1.2491   -0.7292 H   0  0  0  0  0  0  0  0  0  0  0  0
   -1.3163    2.2901    0.3210 H   0  0  0  0  0  0  0  0  0  0  0  0
   -2.3133   -1.0253    0.8385 H   0  0  0  0  0  0  0  0  0  0  0  0
   -1.4694   -1.5814   -0.6231 H   0  0  0  0  0  0  0  0  0  0  0  0
   -0.7199   -1.7841    1.0373 H   0  0  0  0  0  0  0  0  0  0  0  0
  1  2  1  0
  2  3  1  0
  3  4  1  0
  4  5  1  0
  4  6  1  0
  1  7  1  0
  1  8  1  0
  1  9  1  0
  2 10  1  0
  2 11  1  0
  4 12  1  0
  5 13  1  0
  5 14  1  0
  5 15  1  0
  6 16  1  0
  6 17  1  0
  6 18  1  0
M  END
