
     RDKit          3D

 23 22  0  0  0  0  0  0  0  0999 V2000
    3.2483    0.2134    0.3843 C   0  0  0  0  0  0  0  0  0  0  0  0
    2.7685    0.6970   -0.9558 C   0  0  0  0  0  0  0  0  0  0  0  0
    1.6224   -0.0312   -1.2840 O   0  0  0  0  0  0  0  0  0  0  0  0
    0.6702    0.2032   -0.2955 C   0  0  0  0  0  0  0  0  0  0  0  0
   -0.5779   -0.5637   -0.6139 C   0  0  0  0  0  0  0  0  0  0  0  0
   -0.6152   -1.2503   -1.6207 O   0  0  0  0  0  0  0  0  0  0  0  0
   -1.7727   -0.5099    0.2656 C   0  0  0  0  0  0  0  0  0  0  0  0
   -2.8742   -1.3774   -0.3019 C   0  0  0  0  0  0  0  0  0  0  0  0
   -2.2276    0.9296    0.4339 C   0  0  0  0  0  0  0  0  0  0  0  0
    2.7524    0.7365    1.2389 H   0  0  0  0  0  0  0  0  0  0  0  0
    4.3551    0.3021    0.4945 H   0  0  0  0  0  0  0  0  0  0  0  0
    2.9850   -0.8603    0.4620 H   0  0  0  0  0  0  0  0  0  0  0  0
    2.4551    1.7729   -0.9387 H   0  0  0  0  0  0  0  0  0  0  0  0
    3.5873    0.5164   -1.6823 H   0  0  0  0  0  0  0  0  0  0  0  0
    1.0085   -0.1742    0.7001 H   0  0  0  0  0  0  0  0  0  0  0  0
    0.4828    1.2779   -0.1780 H   0  0  0  0  0  0  0  0  0  0  0  0
   -1.5150   -0.9614    1.2665 H   0  0  0  0  0  0  0  0  0  0  0  0
   -3.0818   -1.1608   -1.3617 H   0  0  0  0  0  0  0  0  0  0  0  0
   -2.5386   -2.4422   -0.1558 H   0  0  0  0  0  0  0  0  0  0  0  0
   -3.7985   -1.2400    0.2929 H   0  0  0  0  0  0  0  0  0  0  0  0
   -3.2914    1.0092    0.6744 H   0  0  0  0  0  0  0  0  0  0  0  0
   -1.9678    1.4776   -0.5022 H   0  0  0  0  0  0  0  0  0  0  0  0
   -1.6747    1.4354    1.2635 H   0  0  0  0  0  0  0  0  0  0  0  0
  1  2  1  0
  2  3  1  0
  3  4  1  0
  4  5  1  0
  5  6  2  0
  5  7  1  0
  7  8  1  0
  7  9  1  0
  1 10  1  0
  1 11  1  0
  1 12  1  0
  2 13  1  0
  2 14  1  0
  4 15  1  0
  4 16  1  0
  7 17  1  0
  8 18  1  0
  8 19  1  0
  8 20  1  0
  9 21  1  0
  9 22  1  0
  9 23  1  0
M  END
