
     RDKit          3D

 21 20  0  0  0  0  0  0  0  0999 V2000
   -3.7400    0.2631   -0.0999 C   0  0  0  0  0  0  0  0  0  0  0  0
   -2.2332    0.0685    0.0794 C   0  0  0  0  0  0  0  0  0  0  0  0
   -1.5643    0.1240   -1.0954 O   0  0  0  0  0  0  0  0  0  0  0  0
   -0.2222   -0.0880   -0.9872 C   0  0  0  0  0  0  0  0  0  0  0  0
    0.4500    0.9434   -0.1614 C   0  0  0  0  0  0  0  0  0  0  0  0
    1.8666    0.7220   -0.0608 O   0  0  0  0  0  0  0  0  0  0  0  0
    2.4513   -0.3786    0.4945 C   0  0  0  0  0  0  0  0  0  0  0  0
    3.9444   -0.5548    0.5667 C   0  0  0  0  0  0  0  0  0  0  0  0
    1.7309   -1.2887    0.9679 O   0  0  0  0  0  0  0  0  0  0  0  0
   -4.1442   -0.5864   -0.6858 H   0  0  0  0  0  0  0  0  0  0  0  0
   -4.2378    0.2234    0.8895 H   0  0  0  0  0  0  0  0  0  0  0  0
   -3.9885    1.2077   -0.5830 H   0  0  0  0  0  0  0  0  0  0  0  0
   -1.8402    0.7973    0.8068 H   0  0  0  0  0  0  0  0  0  0  0  0
   -2.1032   -0.9332    0.5312 H   0  0  0  0  0  0  0  0  0  0  0  0
    0.0033   -1.0943   -0.5082 H   0  0  0  0  0  0  0  0  0  0  0  0
    0.2752   -0.1282   -1.9938 H   0  0  0  0  0  0  0  0  0  0  0  0
    0.3786    1.9300   -0.7088 H   0  0  0  0  0  0  0  0  0  0  0  0
    0.0230    1.1251    0.8200 H   0  0  0  0  0  0  0  0  0  0  0  0
    4.1999   -1.5910    0.2630 H   0  0  0  0  0  0  0  0  0  0  0  0
    4.4630    0.1237   -0.1250 H   0  0  0  0  0  0  0  0  0  0  0  0
    4.2872   -0.3104    1.5902 H   0  0  0  0  0  0  0  0  0  0  0  0
  1  2  1  0
  2  3  1  0
  3  4  1  0
  4  5  1  0
  5  6  1  0
  6  7  1  0
  7  8  1  0
  7  9  2  0
  1 10  1  0
  1 11  1  0
  1 12  1  0
  2 13  1  0
  2 14  1  0
  4 15  1  0
  4 16  1  0
  5 17  1  0
  5 18  1  0
  8 19  1  0
  8 20  1  0
  8 21  1  0
M  END
