
     RDKit          3D

 17 18  0  0  0  0  0  0  0  0999 V2000
    2.9206   -0.2827    0.0810 C   0  0  0  0  0  0  0  0  0  0  0  0
    1.6175    0.3207   -0.3561 C   0  0  0  0  0  0  0  0  0  0  0  0
    0.5921   -0.4141    0.2255 O   0  0  0  0  0  0  0  0  0  0  0  0
   -0.6122    0.1433   -0.1784 C   0  0  0  0  0  0  0  0  0  0  0  0
   -1.5797    0.3342    0.9909 C   0  0  0  0  0  0  0  0  0  0  0  0
   -2.7622    1.0698    0.7632 O   0  0  0  0  0  0  0  0  0  0  0  0
   -3.1596    0.0466   -0.1173 C   0  0  0  0  0  0  0  0  0  0  0  0
   -4.2882   -0.0967   -0.6759 O   0  0  0  0  0  0  0  0  0  0  0  0
   -1.8656   -0.6472   -0.0800 C   0  0  0  0  0  0  0  0  0  0  0  0
    3.7544    0.4678    0.0375 H   0  0  0  0  0  0  0  0  0  0  0  0
    3.1248   -1.1658   -0.5587 H   0  0  0  0  0  0  0  0  0  0  0  0
    2.7900   -0.6416    1.1232 H   0  0  0  0  0  0  0  0  0  0  0  0
    1.5416    1.4034   -0.1066 H   0  0  0  0  0  0  0  0  0  0  0  0
    1.5388    0.1567   -1.4634 H   0  0  0  0  0  0  0  0  0  0  0  0
   -0.5251    1.0066   -0.8407 H   0  0  0  0  0  0  0  0  0  0  0  0
   -1.2910    0.0248    1.9947 H   0  0  0  0  0  0  0  0  0  0  0  0
   -1.7963   -1.7257    0.0955 H   0  0  0  0  0  0  0  0  0  0  0  0
  1  2  1  0
  2  3  1  0
  3  4  1  0
  4  5  1  0
  5  6  1  0
  6  7  1  0
  7  8  2  0
  7  9  1  0
  9  4  1  0
  9  5  1  0
  1 10  1  0
  1 11  1  0
  1 12  1  0
  2 13  1  0
  2 14  1  0
  4 15  1  0
  5 16  1  0
  9 17  1  0
M  END
