
     RDKit          3D

 21 22  0  0  0  0  0  0  0  0999 V2000
    2.8280    0.6193    0.0995 C   0  0  0  0  0  0  0  0  0  0  0  0
    2.3550   -0.7626   -0.3280 C   0  0  0  0  0  0  0  0  0  0  0  0
    1.0515   -0.7277   -0.8268 O   0  0  0  0  0  0  0  0  0  0  0  0
    0.2404   -0.2556    0.1752 C   0  0  0  0  0  0  0  0  0  0  0  0
   -1.0179   -1.0058    0.4582 C   0  0  0  0  0  0  0  0  0  0  0  0
   -1.8327    0.2482    0.4082 C   0  0  0  0  0  0  0  0  0  0  0  0
   -3.1325    0.2962   -0.3340 C   0  0  0  0  0  0  0  0  0  0  0  0
   -1.3428    1.4534    0.8265 O   0  0  0  0  0  0  0  0  0  0  0  0
   -0.6084    0.9398   -0.2020 C   0  0  0  0  0  0  0  0  0  0  0  0
    3.4956    1.0133   -0.7074 H   0  0  0  0  0  0  0  0  0  0  0  0
    3.3943    0.5614    1.0629 H   0  0  0  0  0  0  0  0  0  0  0  0
    2.0158    1.3301    0.2381 H   0  0  0  0  0  0  0  0  0  0  0  0
    2.3022   -1.3687    0.6143 H   0  0  0  0  0  0  0  0  0  0  0  0
    3.0585   -1.2393   -1.0365 H   0  0  0  0  0  0  0  0  0  0  0  0
    0.7672   -0.0067    1.1432 H   0  0  0  0  0  0  0  0  0  0  0  0
   -1.0290   -1.5497    1.4208 H   0  0  0  0  0  0  0  0  0  0  0  0
   -1.3451   -1.7196   -0.3519 H   0  0  0  0  0  0  0  0  0  0  0  0
   -3.6709    1.2206   -0.0658 H   0  0  0  0  0  0  0  0  0  0  0  0
   -3.0339    0.2706   -1.4212 H   0  0  0  0  0  0  0  0  0  0  0  0
   -3.7661   -0.5438    0.0680 H   0  0  0  0  0  0  0  0  0  0  0  0
   -0.7292    1.2265   -1.2412 H   0  0  0  0  0  0  0  0  0  0  0  0
  1  2  1  0
  2  3  1  0
  3  4  1  0
  4  5  1  0
  5  6  1  0
  6  7  1  0
  6  8  1  0
  8  9  1  0
  9  4  1  0
  9  6  1  0
  1 10  1  0
  1 11  1  0
  1 12  1  0
  2 13  1  0
  2 14  1  0
  4 15  1  0
  5 16  1  0
  5 17  1  0
  7 18  1  0
  7 19  1  0
  7 20  1  0
  9 21  1  0
M  END
