
     RDKit          3D

 27 26  0  0  0  0  0  0  0  0999 V2000
    3.7926    0.7947   -0.1351 C   0  0  0  0  0  0  0  0  0  0  0  0
    2.5291    0.2061    0.4741 C   0  0  0  0  0  0  0  0  0  0  0  0
    1.6523   -0.0335   -0.5701 O   0  0  0  0  0  0  0  0  0  0  0  0
    0.4435   -0.5770   -0.1587 C   0  0  0  0  0  0  0  0  0  0  0  0
    0.1793   -1.9336   -0.7105 C   0  0  0  0  0  0  0  0  0  0  0  0
   -0.6137    0.4324   -0.5003 C   0  0  0  0  0  0  0  0  0  0  0  0
   -1.9999    0.0126   -0.1247 C   0  0  0  0  0  0  0  0  0  0  0  0
   -2.1330   -0.2318    1.3425 C   0  0  0  0  0  0  0  0  0  0  0  0
   -2.9060    1.2015   -0.4829 C   0  0  0  0  0  0  0  0  0  0  0  0
    3.7410    1.9153   -0.0040 H   0  0  0  0  0  0  0  0  0  0  0  0
    4.6851    0.4379    0.4240 H   0  0  0  0  0  0  0  0  0  0  0  0
    3.8604    0.5790   -1.2212 H   0  0  0  0  0  0  0  0  0  0  0  0
    2.8164   -0.7835    0.8876 H   0  0  0  0  0  0  0  0  0  0  0  0
    2.1089    0.8344    1.2664 H   0  0  0  0  0  0  0  0  0  0  0  0
    0.5157   -0.6761    0.9592 H   0  0  0  0  0  0  0  0  0  0  0  0
   -0.8753   -2.2013   -0.6898 H   0  0  0  0  0  0  0  0  0  0  0  0
    0.5204   -2.0506   -1.7705 H   0  0  0  0  0  0  0  0  0  0  0  0
    0.7319   -2.6869   -0.1145 H   0  0  0  0  0  0  0  0  0  0  0  0
   -0.5582    0.6039   -1.5989 H   0  0  0  0  0  0  0  0  0  0  0  0
   -0.3898    1.3706    0.0603 H   0  0  0  0  0  0  0  0  0  0  0  0
   -2.3881   -0.8338   -0.7125 H   0  0  0  0  0  0  0  0  0  0  0  0
   -2.1099    0.7579    1.8546 H   0  0  0  0  0  0  0  0  0  0  0  0
   -3.1142   -0.7604    1.5199 H   0  0  0  0  0  0  0  0  0  0  0  0
   -1.3418   -0.8459    1.7850 H   0  0  0  0  0  0  0  0  0  0  0  0
   -2.8804    1.2813   -1.5768 H   0  0  0  0  0  0  0  0  0  0  0  0
   -2.3615    2.0998   -0.0838 H   0  0  0  0  0  0  0  0  0  0  0  0
   -3.9050    1.0872   -0.0564 H   0  0  0  0  0  0  0  0  0  0  0  0
  1  2  1  0
  2  3  1  0
  3  4  1  0
  4  5  1  0
  4  6  1  0
  6  7  1  0
  7  8  1  0
  7  9  1  0
  1 10  1  0
  1 11  1  0
  1 12  1  0
  2 13  1  0
  2 14  1  0
  4 15  1  0
  5 16  1  0
  5 17  1  0
  5 18  1  0
  6 19  1  0
  6 20  1  0
  7 21  1  0
  8 22  1  0
  8 23  1  0
  8 24  1  0
  9 25  1  0
  9 26  1  0
  9 27  1  0
M  END
