
     RDKit          3D

 23 23  0  0  0  0  0  0  0  0999 V2000
   -3.3628   -0.6921   -0.2297 C   0  0  0  0  0  0  0  0  0  0  0  0
   -2.4025    0.4311    0.0975 C   0  0  0  0  0  0  0  0  0  0  0  0
   -1.0935    0.0022   -0.1082 O   0  0  0  0  0  0  0  0  0  0  0  0
   -0.1575    0.9700    0.1685 C   0  0  0  0  0  0  0  0  0  0  0  0
    1.0147    0.3822    0.9735 C   0  0  0  0  0  0  0  0  0  0  0  0
    1.3581   -0.2920   -0.3395 C   0  0  0  0  0  0  0  0  0  0  0  0
    2.7984   -0.6128   -0.5511 C   0  0  0  0  0  0  0  0  0  0  0  0
    3.1862   -1.4835    0.4864 O   0  0  0  0  0  0  0  0  0  0  0  0
    0.8755    1.0089   -0.9695 C   0  0  0  0  0  0  0  0  0  0  0  0
   -2.8154   -1.6515   -0.4115 H   0  0  0  0  0  0  0  0  0  0  0  0
   -3.9695   -0.4715   -1.1369 H   0  0  0  0  0  0  0  0  0  0  0  0
   -4.0696   -0.8967    0.5871 H   0  0  0  0  0  0  0  0  0  0  0  0
   -2.6592    1.2869   -0.5502 H   0  0  0  0  0  0  0  0  0  0  0  0
   -2.5322    0.7058    1.1793 H   0  0  0  0  0  0  0  0  0  0  0  0
   -0.5004    1.9393    0.5074 H   0  0  0  0  0  0  0  0  0  0  0  0
    0.7147   -0.2754    1.7893 H   0  0  0  0  0  0  0  0  0  0  0  0
    1.7069    1.2133    1.2375 H   0  0  0  0  0  0  0  0  0  0  0  0
    0.6302   -1.0852   -0.5529 H   0  0  0  0  0  0  0  0  0  0  0  0
    3.4000    0.2950   -0.5541 H   0  0  0  0  0  0  0  0  0  0  0  0
    2.8996   -1.1071   -1.5312 H   0  0  0  0  0  0  0  0  0  0  0  0
    2.9087   -2.4105    0.3011 H   0  0  0  0  0  0  0  0  0  0  0  0
    0.4594    0.9332   -1.9672 H   0  0  0  0  0  0  0  0  0  0  0  0
    1.6101    1.8103   -0.7844 H   0  0  0  0  0  0  0  0  0  0  0  0
  1  2  1  0
  2  3  1  0
  3  4  1  0
  4  5  1  0
  5  6  1  0
  6  7  1  0
  7  8  1  0
  6  9  1  0
  9  4  1  0
  1 10  1  0
  1 11  1  0
  1 12  1  0
  2 13  1  0
  2 14  1  0
  4 15  1  0
  5 16  1  0
  5 17  1  0
  6 18  1  0
  7 19  1  0
  7 20  1  0
  8 21  1  0
  9 22  1  0
  9 23  1  0
M  END
