
     RDKit          3D

 20 20  0  0  0  0  0  0  0  0999 V2000
    2.8848   -0.3347   -0.0685 C   0  0  0  0  0  0  0  0  0  0  0  0
    1.4984    0.1655   -0.4147 C   0  0  0  0  0  0  0  0  0  0  0  0
    0.5474   -0.4512    0.3680 O   0  0  0  0  0  0  0  0  0  0  0  0
   -0.7360   -0.0799    0.1447 C   0  0  0  0  0  0  0  0  0  0  0  0
   -1.3034   -0.3041   -1.2337 C   0  0  0  0  0  0  0  0  0  0  0  0
   -1.6832   -0.6480    1.1808 C   0  0  0  0  0  0  0  0  0  0  0  0
   -2.3266    0.5726    1.3448 O   0  0  0  0  0  0  0  0  0  0  0  0
   -1.2203    1.2005    0.7654 C   0  0  0  0  0  0  0  0  0  0  0  0
    3.6227    0.5188   -0.0482 H   0  0  0  0  0  0  0  0  0  0  0  0
    2.8862   -0.8389    0.9390 H   0  0  0  0  0  0  0  0  0  0  0  0
    3.2401   -1.0274   -0.8636 H   0  0  0  0  0  0  0  0  0  0  0  0
    1.5090    1.2650   -0.3334 H   0  0  0  0  0  0  0  0  0  0  0  0
    1.2930   -0.0705   -1.4786 H   0  0  0  0  0  0  0  0  0  0  0  0
   -1.7314    0.6612   -1.5999 H   0  0  0  0  0  0  0  0  0  0  0  0
   -0.5805   -0.7282   -1.9464 H   0  0  0  0  0  0  0  0  0  0  0  0
   -2.1813   -1.0145   -1.2180 H   0  0  0  0  0  0  0  0  0  0  0  0
   -2.4182   -1.3895    0.7600 H   0  0  0  0  0  0  0  0  0  0  0  0
   -1.1700   -1.0094    2.1023 H   0  0  0  0  0  0  0  0  0  0  0  0
   -0.5799    1.6038    1.5657 H   0  0  0  0  0  0  0  0  0  0  0  0
   -1.5509    1.9090   -0.0089 H   0  0  0  0  0  0  0  0  0  0  0  0
  1  2  1  0
  2  3  1  0
  3  4  1  0
  4  5  1  0
  4  6  1  0
  6  7  1  0
  7  8  1  0
  8  4  1  0
  1  9  1  0
  1 10  1  0
  1 11  1  0
  2 12  1  0
  2 13  1  0
  5 14  1  0
  5 15  1  0
  5 16  1  0
  6 17  1  0
  6 18  1  0
  8 19  1  0
  8 20  1  0
M  END
