
     RDKit          3D

 21 21  0  0  0  0  0  0  0  0999 V2000
    3.3747    0.0644    0.2280 C   0  0  0  0  0  0  0  0  0  0  0  0
    2.0835    0.2394   -0.5436 C   0  0  0  0  0  0  0  0  0  0  0  0
    0.9961    0.1293    0.3175 O   0  0  0  0  0  0  0  0  0  0  0  0
   -0.2167    0.2810   -0.3330 C   0  0  0  0  0  0  0  0  0  0  0  0
   -0.9192   -1.0594   -0.2802 C   0  0  0  0  0  0  0  0  0  0  0  0
   -1.9255   -1.0951    0.8444 C   0  0  0  0  0  0  0  0  0  0  0  0
   -2.6272    0.0171    1.0040 C   0  0  0  0  0  0  0  0  0  0  0  0
   -2.3251    1.1260    0.0634 C   0  0  0  0  0  0  0  0  0  0  0  0
   -0.9609    1.3371    0.1053 O   0  0  0  0  0  0  0  0  0  0  0  0
    3.2827    0.5873    1.2167 H   0  0  0  0  0  0  0  0  0  0  0  0
    4.2369    0.5062   -0.3303 H   0  0  0  0  0  0  0  0  0  0  0  0
    3.5698   -1.0221    0.4098 H   0  0  0  0  0  0  0  0  0  0  0  0
    1.9823   -0.5672   -1.3172 H   0  0  0  0  0  0  0  0  0  0  0  0
    2.0608    1.1919   -1.1001 H   0  0  0  0  0  0  0  0  0  0  0  0
   -0.0095    0.4607   -1.4293 H   0  0  0  0  0  0  0  0  0  0  0  0
   -0.2111   -1.8895   -0.1636 H   0  0  0  0  0  0  0  0  0  0  0  0
   -1.4603   -1.2574   -1.2500 H   0  0  0  0  0  0  0  0  0  0  0  0
   -2.0692   -1.9465    1.4698 H   0  0  0  0  0  0  0  0  0  0  0  0
   -3.3753    0.1141    1.7722 H   0  0  0  0  0  0  0  0  0  0  0  0
   -2.8898    2.0302    0.2716 H   0  0  0  0  0  0  0  0  0  0  0  0
   -2.5971    0.7525   -0.9554 H   0  0  0  0  0  0  0  0  0  0  0  0
  1  2  1  0
  2  3  1  0
  3  4  1  0
  4  5  1  0
  5  6  1  0
  6  7  2  0
  7  8  1  0
  8  9  1  0
  9  4  1  0
  1 10  1  0
  1 11  1  0
  1 12  1  0
  2 13  1  0
  2 14  1  0
  4 15  1  0
  5 16  1  0
  5 17  1  0
  6 18  1  0
  7 19  1  0
  8 20  1  0
  8 21  1  0
M  END
