
     RDKit          3D

 21 22  0  0  0  0  0  0  0  0999 V2000
    2.5326    0.1139   -0.7359 C   0  0  0  0  0  0  0  0  0  0  0  0
    2.0964   -0.5050    0.5637 C   0  0  0  0  0  0  0  0  0  0  0  0
    0.9232    0.0407    1.0221 O   0  0  0  0  0  0  0  0  0  0  0  0
   -0.0645   -0.1750    0.0721 C   0  0  0  0  0  0  0  0  0  0  0  0
   -1.0439    0.9489   -0.1214 C   0  0  0  0  0  0  0  0  0  0  0  0
   -1.4226    0.7154    1.3167 C   0  0  0  0  0  0  0  0  0  0  0  0
   -1.3236   -0.6700    0.7339 C   0  0  0  0  0  0  0  0  0  0  0  0
   -2.0578   -0.1094   -0.4464 C   0  0  0  0  0  0  0  0  0  0  0  0
   -1.8776   -0.7625   -1.6497 O   0  0  0  0  0  0  0  0  0  0  0  0
    3.6575    0.1589   -0.7973 H   0  0  0  0  0  0  0  0  0  0  0  0
    2.1441    1.1599   -0.8636 H   0  0  0  0  0  0  0  0  0  0  0  0
    2.1164   -0.4659   -1.5937 H   0  0  0  0  0  0  0  0  0  0  0  0
    2.0257   -1.6166    0.3963 H   0  0  0  0  0  0  0  0  0  0  0  0
    2.9286   -0.3871    1.2999 H   0  0  0  0  0  0  0  0  0  0  0  0
    0.2389   -0.7153   -0.8361 H   0  0  0  0  0  0  0  0  0  0  0  0
   -0.8941    1.8221   -0.5789 H   0  0  0  0  0  0  0  0  0  0  0  0
   -0.6830    0.9941    2.0638 H   0  0  0  0  0  0  0  0  0  0  0  0
   -2.4761    0.9690    1.5092 H   0  0  0  0  0  0  0  0  0  0  0  0
   -1.4675   -1.5384    1.2005 H   0  0  0  0  0  0  0  0  0  0  0  0
   -3.0660    0.2229   -0.2023 H   0  0  0  0  0  0  0  0  0  0  0  0
   -2.2866   -0.2004   -2.3530 H   0  0  0  0  0  0  0  0  0  0  0  0
  1  2  1  0
  2  3  1  0
  3  4  1  0
  4  5  1  0
  5  6  1  0
  6  7  1  0
  7  8  1  0
  8  9  1  0
  7  4  1  0
  8  5  1  0
  1 10  1  0
  1 11  1  0
  1 12  1  0
  2 13  1  0
  2 14  1  0
  4 15  1  0
  5 16  1  0
  6 17  1  0
  6 18  1  0
  7 19  1  0
  8 20  1  0
  9 21  1  0
M  END
