
     RDKit          3D

 21 22  0  0  0  0  0  0  0  0999 V2000
    3.0849    0.3281    0.3095 C   0  0  0  0  0  0  0  0  0  0  0  0
    1.6440    0.4396   -0.1347 C   0  0  0  0  0  0  0  0  0  0  0  0
    0.8304   -0.3239    0.6997 O   0  0  0  0  0  0  0  0  0  0  0  0
   -0.3837   -0.2966    0.4131 C   0  0  0  0  0  0  0  0  0  0  0  0
   -1.2935    0.9125    0.3671 C   0  0  0  0  0  0  0  0  0  0  0  0
   -2.1830   -0.2216   -0.0557 C   0  0  0  0  0  0  0  0  0  0  0  0
   -1.5257   -1.0001    1.0778 C   0  0  0  0  0  0  0  0  0  0  0  0
   -1.0364   -0.6936   -0.8928 C   0  0  0  0  0  0  0  0  0  0  0  0
   -0.7006    0.0913   -1.9827 O   0  0  0  0  0  0  0  0  0  0  0  0
    3.7513    0.3907   -0.5883 H   0  0  0  0  0  0  0  0  0  0  0  0
    3.2987    1.1497    1.0216 H   0  0  0  0  0  0  0  0  0  0  0  0
    3.2374   -0.6335    0.8331 H   0  0  0  0  0  0  0  0  0  0  0  0
    1.5033    0.0388   -1.1602 H   0  0  0  0  0  0  0  0  0  0  0  0
    1.3009    1.4983   -0.0438 H   0  0  0  0  0  0  0  0  0  0  0  0
   -1.0548    1.6676   -0.3822 H   0  0  0  0  0  0  0  0  0  0  0  0
   -1.5196    1.2962    1.3723 H   0  0  0  0  0  0  0  0  0  0  0  0
   -3.1558   -0.2040   -0.2677 H   0  0  0  0  0  0  0  0  0  0  0  0
   -1.5285   -2.0917    0.9422 H   0  0  0  0  0  0  0  0  0  0  0  0
   -1.8065   -0.6431    2.0823 H   0  0  0  0  0  0  0  0  0  0  0  0
   -0.9582   -1.7849   -1.0588 H   0  0  0  0  0  0  0  0  0  0  0  0
   -1.5044    0.0801   -2.5878 H   0  0  0  0  0  0  0  0  0  0  0  0
  1  2  1  0
  2  3  1  0
  3  4  1  0
  4  5  1  0
  5  6  1  0
  6  7  1  0
  6  8  1  0
  8  9  1  0
  7  4  1  0
  8  4  1  0
  1 10  1  0
  1 11  1  0
  1 12  1  0
  2 13  1  0
  2 14  1  0
  5 15  1  0
  5 16  1  0
  6 17  1  0
  7 18  1  0
  7 19  1  0
  8 20  1  0
  9 21  1  0
M  END
