
     RDKit          3D

 21 21  0  0  0  0  0  0  0  0999 V2000
   -3.4608   -0.0384   -0.1031 C   0  0  0  0  0  0  0  0  0  0  0  0
   -2.0658   -0.4034    0.3464 C   0  0  0  0  0  0  0  0  0  0  0  0
   -1.0970    0.3195   -0.3504 O   0  0  0  0  0  0  0  0  0  0  0  0
    0.1858   -0.0213    0.0681 C   0  0  0  0  0  0  0  0  0  0  0  0
    0.9193    1.1554    0.5899 C   0  0  0  0  0  0  0  0  0  0  0  0
    2.1590    1.3802    0.1219 O   0  0  0  0  0  0  0  0  0  0  0  0
    2.8413    0.3733   -0.4596 C   0  0  0  0  0  0  0  0  0  0  0  0
    2.1140   -0.9290   -0.5913 C   0  0  0  0  0  0  0  0  0  0  0  0
    0.8120   -0.6456   -1.0062 O   0  0  0  0  0  0  0  0  0  0  0  0
   -3.4818    0.2613   -1.1833 H   0  0  0  0  0  0  0  0  0  0  0  0
   -3.8709    0.8045    0.5217 H   0  0  0  0  0  0  0  0  0  0  0  0
   -4.1772   -0.8806   -0.0091 H   0  0  0  0  0  0  0  0  0  0  0  0
   -1.9311   -1.4878    0.1721 H   0  0  0  0  0  0  0  0  0  0  0  0
   -1.9925   -0.2242    1.4299 H   0  0  0  0  0  0  0  0  0  0  0  0
    0.0779   -0.7919    0.8588 H   0  0  0  0  0  0  0  0  0  0  0  0
    0.2938    2.0770    0.4010 H   0  0  0  0  0  0  0  0  0  0  0  0
    0.9644    1.0953    1.7148 H   0  0  0  0  0  0  0  0  0  0  0  0
    3.7825    0.1870    0.1052 H   0  0  0  0  0  0  0  0  0  0  0  0
    3.1873    0.7221   -1.4773 H   0  0  0  0  0  0  0  0  0  0  0  0
    2.1489   -1.4475    0.3808 H   0  0  0  0  0  0  0  0  0  0  0  0
    2.5909   -1.5059   -1.4118 H   0  0  0  0  0  0  0  0  0  0  0  0
  1  2  1  0
  2  3  1  0
  3  4  1  0
  4  5  1  0
  5  6  1  0
  6  7  1  0
  7  8  1  0
  8  9  1  0
  9  4  1  0
  1 10  1  0
  1 11  1  0
  1 12  1  0
  2 13  1  0
  2 14  1  0
  4 15  1  0
  5 16  1  0
  5 17  1  0
  7 18  1  0
  7 19  1  0
  8 20  1  0
  8 21  1  0
M  END
