
     RDKit          3D

 18 19  0  0  0  0  0  0  0  0999 V2000
    2.5364    0.5763   -0.0013 C   0  0  0  0  0  0  0  0  0  0  0  0
    1.9688   -0.7492    0.4588 C   0  0  0  0  0  0  0  0  0  0  0  0
    0.6890   -0.6443    0.9391 O   0  0  0  0  0  0  0  0  0  0  0  0
   -0.2239   -0.1525   -0.0087 C   0  0  0  0  0  0  0  0  0  0  0  0
   -1.5407   -0.7292   -0.1806 C   0  0  0  0  0  0  0  0  0  0  0  0
   -2.8470    0.0721   -0.2844 C   0  0  0  0  0  0  0  0  0  0  0  0
   -2.4772    0.3774    1.0568 O   0  0  0  0  0  0  0  0  0  0  0  0
   -1.2672    0.6976    0.4483 C   0  0  0  0  0  0  0  0  0  0  0  0
    2.1169    1.3946    0.6209 H   0  0  0  0  0  0  0  0  0  0  0  0
    2.2624    0.7987   -1.0506 H   0  0  0  0  0  0  0  0  0  0  0  0
    3.6298    0.5535    0.1590 H   0  0  0  0  0  0  0  0  0  0  0  0
    2.0121   -1.4996   -0.3667 H   0  0  0  0  0  0  0  0  0  0  0  0
    2.6062   -1.1065    1.2912 H   0  0  0  0  0  0  0  0  0  0  0  0
    0.3116    0.0553   -0.9855 H   0  0  0  0  0  0  0  0  0  0  0  0
   -1.7395   -1.5351    0.5959 H   0  0  0  0  0  0  0  0  0  0  0  0
   -3.7259   -0.5826   -0.3555 H   0  0  0  0  0  0  0  0  0  0  0  0
   -2.8255    0.9055   -0.9810 H   0  0  0  0  0  0  0  0  0  0  0  0
   -1.4863    1.5681   -0.2458 H   0  0  0  0  0  0  0  0  0  0  0  0
  1  2  1  0
  2  3  1  0
  3  4  1  0
  4  5  1  0
  5  6  1  0
  6  7  1  0
  7  8  1  0
  8  4  1  0
  8  5  1  0
  1  9  1  0
  1 10  1  0
  1 11  1  0
  2 12  1  0
  2 13  1  0
  4 14  1  0
  5 15  1  0
  6 16  1  0
  6 17  1  0
  8 18  1  0
M  END
