
     RDKit          3D

 21 21  0  0  0  0  0  0  0  0999 V2000
    3.1989    0.5271    0.4355 C   0  0  0  0  0  0  0  0  0  0  0  0
    1.8424    0.5094   -0.2317 C   0  0  0  0  0  0  0  0  0  0  0  0
    0.8616   -0.0287    0.5881 O   0  0  0  0  0  0  0  0  0  0  0  0
   -0.3372   -0.0145   -0.0760 C   0  0  0  0  0  0  0  0  0  0  0  0
   -0.7964   -1.4677   -0.2197 C   0  0  0  0  0  0  0  0  0  0  0  0
   -1.4900   -1.7061    0.9690 O   0  0  0  0  0  0  0  0  0  0  0  0
   -2.3137   -0.5889    1.0402 C   0  0  0  0  0  0  0  0  0  0  0  0
   -1.4569    0.6140    0.7276 C   0  0  0  0  0  0  0  0  0  0  0  0
   -2.1906    1.4450   -0.1293 O   0  0  0  0  0  0  0  0  0  0  0  0
    3.9476   -0.1030   -0.1202 H   0  0  0  0  0  0  0  0  0  0  0  0
    3.5872    1.5628    0.4581 H   0  0  0  0  0  0  0  0  0  0  0  0
    3.1768    0.1374    1.4648 H   0  0  0  0  0  0  0  0  0  0  0  0
    1.5603    1.5548   -0.5292 H   0  0  0  0  0  0  0  0  0  0  0  0
    1.9529   -0.0490   -1.1858 H   0  0  0  0  0  0  0  0  0  0  0  0
   -0.2228    0.4092   -1.0664 H   0  0  0  0  0  0  0  0  0  0  0  0
    0.0779   -2.1104   -0.3505 H   0  0  0  0  0  0  0  0  0  0  0  0
   -1.4443   -1.5508   -1.0995 H   0  0  0  0  0  0  0  0  0  0  0  0
   -3.0789   -0.7181    0.2306 H   0  0  0  0  0  0  0  0  0  0  0  0
   -2.8490   -0.5068    2.0017 H   0  0  0  0  0  0  0  0  0  0  0  0
   -1.1031    1.1465    1.6192 H   0  0  0  0  0  0  0  0  0  0  0  0
   -2.9227    0.9377   -0.5937 H   0  0  0  0  0  0  0  0  0  0  0  0
  1  2  1  0
  2  3  1  0
  3  4  1  0
  4  5  1  0
  5  6  1  0
  6  7  1  0
  7  8  1  0
  8  9  1  0
  8  4  1  0
  1 10  1  0
  1 11  1  0
  1 12  1  0
  2 13  1  0
  2 14  1  0
  4 15  1  0
  5 16  1  0
  5 17  1  0
  7 18  1  0
  7 19  1  0
  8 20  1  0
  9 21  1  0
M  END
