
     RDKit          3D

 25 25  0  0  0  0  0  0  0  0999 V2000
    3.0823    0.2049   -0.1531 C   0  0  0  0  0  0  0  0  0  0  0  0
    2.3728   -1.0614   -0.5343 C   0  0  0  0  0  0  0  0  0  0  0  0
    1.0140   -0.8599   -0.7786 O   0  0  0  0  0  0  0  0  0  0  0  0
    0.4089   -0.3563    0.3703 C   0  0  0  0  0  0  0  0  0  0  0  0
   -1.0699   -0.1510    0.0615 C   0  0  0  0  0  0  0  0  0  0  0  0
   -1.7106   -1.4434   -0.3239 C   0  0  0  0  0  0  0  0  0  0  0  0
   -1.3514    1.0387   -0.7882 C   0  0  0  0  0  0  0  0  0  0  0  0
   -1.6666    1.8217    0.4887 C   0  0  0  0  0  0  0  0  0  0  0  0
   -1.7854    0.5230    1.2169 C   0  0  0  0  0  0  0  0  0  0  0  0
    4.0770    0.2398   -0.6782 H   0  0  0  0  0  0  0  0  0  0  0  0
    2.4940    1.0710   -0.4943 H   0  0  0  0  0  0  0  0  0  0  0  0
    3.3230    0.2380    0.9342 H   0  0  0  0  0  0  0  0  0  0  0  0
    2.8311   -1.4857   -1.4705 H   0  0  0  0  0  0  0  0  0  0  0  0
    2.5073   -1.8727    0.2354 H   0  0  0  0  0  0  0  0  0  0  0  0
    0.5457   -1.0721    1.2073 H   0  0  0  0  0  0  0  0  0  0  0  0
    0.8902    0.5823    0.6734 H   0  0  0  0  0  0  0  0  0  0  0  0
   -1.0107   -2.3211   -0.2556 H   0  0  0  0  0  0  0  0  0  0  0  0
   -2.5424   -1.6789    0.3684 H   0  0  0  0  0  0  0  0  0  0  0  0
   -2.1318   -1.3957   -1.3665 H   0  0  0  0  0  0  0  0  0  0  0  0
   -0.5000    1.4292   -1.3448 H   0  0  0  0  0  0  0  0  0  0  0  0
   -2.2480    0.9929   -1.4341 H   0  0  0  0  0  0  0  0  0  0  0  0
   -0.8007    2.4583    0.7411 H   0  0  0  0  0  0  0  0  0  0  0  0
   -2.5959    2.4354    0.4147 H   0  0  0  0  0  0  0  0  0  0  0  0
   -2.8481    0.2176    1.2929 H   0  0  0  0  0  0  0  0  0  0  0  0
   -1.2850    0.4455    2.1887 H   0  0  0  0  0  0  0  0  0  0  0  0
  1  2  1  0
  2  3  1  0
  3  4  1  0
  4  5  1  0
  5  6  1  0
  5  7  1  0
  7  8  1  0
  8  9  1  0
  9  5  1  0
  1 10  1  0
  1 11  1  0
  1 12  1  0
  2 13  1  0
  2 14  1  0
  4 15  1  0
  4 16  1  0
  6 17  1  0
  6 18  1  0
  6 19  1  0
  7 20  1  0
  7 21  1  0
  8 22  1  0
  8 23  1  0
  9 24  1  0
  9 25  1  0
M  END
