
     RDKit          3D

 25 24  0  0  0  0  0  0  0  0999 V2000
    2.3924   -1.1346   -0.3902 C   0  0  0  0  0  0  0  0  0  0  0  0
    2.2635   -0.0709    0.6738 C   0  0  0  0  0  0  0  0  0  0  0  0
    0.9995    0.1475    1.0045 O   0  0  0  0  0  0  0  0  0  0  0  0
    0.0684    0.5808    0.0970 C   0  0  0  0  0  0  0  0  0  0  0  0
   -0.4701    1.9533    0.4152 C   0  0  0  0  0  0  0  0  0  0  0  0
   -1.3636    2.3246   -0.5682 O   0  0  0  0  0  0  0  0  0  0  0  0
   -1.1121   -0.3442   -0.0066 C   0  0  0  0  0  0  0  0  0  0  0  0
   -2.1577    0.0591   -1.0049 C   0  0  0  0  0  0  0  0  0  0  0  0
   -0.7498   -1.7877   -0.2554 C   0  0  0  0  0  0  0  0  0  0  0  0
    2.1091   -2.1467   -0.0401 H   0  0  0  0  0  0  0  0  0  0  0  0
    3.4682   -1.2047   -0.7511 H   0  0  0  0  0  0  0  0  0  0  0  0
    1.8331   -0.8344   -1.2785 H   0  0  0  0  0  0  0  0  0  0  0  0
    2.8057   -0.4700    1.5836 H   0  0  0  0  0  0  0  0  0  0  0  0
    2.8655    0.7822    0.3194 H   0  0  0  0  0  0  0  0  0  0  0  0
    0.5471    0.6608   -0.8850 H   0  0  0  0  0  0  0  0  0  0  0  0
    0.3073    2.7314    0.4632 H   0  0  0  0  0  0  0  0  0  0  0  0
   -1.0520    1.8632    1.3646 H   0  0  0  0  0  0  0  0  0  0  0  0
   -1.5261    3.3064   -0.6115 H   0  0  0  0  0  0  0  0  0  0  0  0
   -1.6629   -0.3500    0.9938 H   0  0  0  0  0  0  0  0  0  0  0  0
   -1.6926    0.5180   -1.8915 H   0  0  0  0  0  0  0  0  0  0  0  0
   -2.9525    0.7117   -0.6149 H   0  0  0  0  0  0  0  0  0  0  0  0
   -2.7222   -0.8528   -1.3704 H   0  0  0  0  0  0  0  0  0  0  0  0
   -0.2962   -1.9018   -1.2389 H   0  0  0  0  0  0  0  0  0  0  0  0
   -0.1866   -2.1897    0.5990 H   0  0  0  0  0  0  0  0  0  0  0  0
   -1.7152   -2.3512   -0.2990 H   0  0  0  0  0  0  0  0  0  0  0  0
  1  2  1  0
  2  3  1  0
  3  4  1  0
  4  5  1  0
  5  6  1  0
  4  7  1  0
  7  8  1  0
  7  9  1  0
  1 10  1  0
  1 11  1  0
  1 12  1  0
  2 13  1  0
  2 14  1  0
  4 15  1  0
  5 16  1  0
  5 17  1  0
  6 18  1  0
  7 19  1  0
  8 20  1  0
  8 21  1  0
  8 22  1  0
  9 23  1  0
  9 24  1  0
  9 25  1  0
M  END
