
     RDKit          3D

 21 21  0  0  0  0  0  0  0  0999 V2000
    3.2103   -0.8102    0.0594 C   0  0  0  0  0  0  0  0  0  0  0  0
    2.1046    0.1720   -0.0801 C   0  0  0  0  0  0  0  0  0  0  0  0
    0.8381   -0.3723    0.1780 O   0  0  0  0  0  0  0  0  0  0  0  0
   -0.0442    0.6883   -0.0041 C   0  0  0  0  0  0  0  0  0  0  0  0
   -1.4686    0.3600    0.2122 C   0  0  0  0  0  0  0  0  0  0  0  0
   -2.4289    1.4798    0.0205 C   0  0  0  0  0  0  0  0  0  0  0  0
   -2.0161    2.6154    0.0387 O   0  0  0  0  0  0  0  0  0  0  0  0
   -1.9290   -0.7292    1.0911 C   0  0  0  0  0  0  0  0  0  0  0  0
   -1.8918   -1.0058   -0.3916 C   0  0  0  0  0  0  0  0  0  0  0  0
    3.7622   -0.7190    1.0266 H   0  0  0  0  0  0  0  0  0  0  0  0
    3.9770   -0.5583   -0.7229 H   0  0  0  0  0  0  0  0  0  0  0  0
    2.8472   -1.8201   -0.1385 H   0  0  0  0  0  0  0  0  0  0  0  0
    2.0562    0.5011   -1.1625 H   0  0  0  0  0  0  0  0  0  0  0  0
    2.2400    1.0767    0.5369 H   0  0  0  0  0  0  0  0  0  0  0  0
    0.0904    1.0086   -1.0802 H   0  0  0  0  0  0  0  0  0  0  0  0
    0.2710    1.4894    0.6945 H   0  0  0  0  0  0  0  0  0  0  0  0
   -3.4840    1.2768   -0.1333 H   0  0  0  0  0  0  0  0  0  0  0  0
   -1.2433   -1.2726    1.7740 H   0  0  0  0  0  0  0  0  0  0  0  0
   -2.9632   -0.6779    1.4969 H   0  0  0  0  0  0  0  0  0  0  0  0
   -1.0809   -1.6921   -0.6871 H   0  0  0  0  0  0  0  0  0  0  0  0
   -2.8470   -1.0106   -0.9622 H   0  0  0  0  0  0  0  0  0  0  0  0
  1  2  1  0
  2  3  1  0
  3  4  1  0
  4  5  1  0
  5  6  1  0
  6  7  2  0
  5  8  1  0
  8  9  1  0
  9  5  1  0
  1 10  1  0
  1 11  1  0
  1 12  1  0
  2 13  1  0
  2 14  1  0
  4 15  1  0
  4 16  1  0
  6 17  1  0
  8 18  1  0
  8 19  1  0
  9 20  1  0
  9 21  1  0
M  END
