
     RDKit          3D

 19 19  0  0  0  0  0  0  0  0999 V2000
   -2.4525   -0.2553    0.1065 C   0  0  0  0  0  0  0  0  0  0  0  0
   -1.7604    0.4137   -1.0658 C   0  0  0  0  0  0  0  0  0  0  0  0
   -0.5999    0.9656   -0.5986 O   0  0  0  0  0  0  0  0  0  0  0  0
    0.3190    0.1790   -0.0442 C   0  0  0  0  0  0  0  0  0  0  0  0
    1.6884    0.1495   -0.6373 C   0  0  0  0  0  0  0  0  0  0  0  0
    2.4748   -0.5547    0.4614 C   0  0  0  0  0  0  0  0  0  0  0  0
    1.7324   -0.3371    1.6618 O   0  0  0  0  0  0  0  0  0  0  0  0
    0.6245    0.4610    1.3950 C   0  0  0  0  0  0  0  0  0  0  0  0
   -0.0006    1.2462    2.1549 O   0  0  0  0  0  0  0  0  0  0  0  0
   -2.0191   -1.2511    0.3311 H   0  0  0  0  0  0  0  0  0  0  0  0
   -3.5483   -0.3221   -0.0769 H   0  0  0  0  0  0  0  0  0  0  0  0
   -2.3559    0.3689    1.0417 H   0  0  0  0  0  0  0  0  0  0  0  0
   -2.4485    1.2096   -1.4184 H   0  0  0  0  0  0  0  0  0  0  0  0
   -1.6362   -0.3459   -1.8491 H   0  0  0  0  0  0  0  0  0  0  0  0
   -0.0508   -0.8901   -0.0578 H   0  0  0  0  0  0  0  0  0  0  0  0
    2.1564    1.1329   -0.7608 H   0  0  0  0  0  0  0  0  0  0  0  0
    1.7787   -0.4896   -1.5360 H   0  0  0  0  0  0  0  0  0  0  0  0
    3.4617   -0.0686    0.6340 H   0  0  0  0  0  0  0  0  0  0  0  0
    2.6365   -1.6120    0.2584 H   0  0  0  0  0  0  0  0  0  0  0  0
  1  2  1  0
  2  3  1  0
  3  4  1  0
  4  5  1  0
  5  6  1  0
  6  7  1  0
  7  8  1  0
  8  9  2  0
  8  4  1  0
  1 10  1  0
  1 11  1  0
  1 12  1  0
  2 13  1  0
  2 14  1  0
  4 15  1  0
  5 16  1  0
  5 17  1  0
  6 18  1  0
  6 19  1  0
M  END
