
     RDKit          3D

 23 22  0  0  0  0  0  0  0  0999 V2000
    3.3228   -0.0676    0.5327 C   0  0  0  0  0  0  0  0  0  0  0  0
    2.4874   -0.6965   -0.5296 C   0  0  0  0  0  0  0  0  0  0  0  0
    1.1599   -0.7796   -0.2905 O   0  0  0  0  0  0  0  0  0  0  0  0
    0.5065    0.4104   -0.0914 C   0  0  0  0  0  0  0  0  0  0  0  0
   -0.9633    0.2042    0.1658 C   0  0  0  0  0  0  0  0  0  0  0  0
   -1.5846    1.5399    0.3685 C   0  0  0  0  0  0  0  0  0  0  0  0
   -1.1055    2.4837   -0.2345 O   0  0  0  0  0  0  0  0  0  0  0  0
   -1.6509   -0.5730   -0.9227 C   0  0  0  0  0  0  0  0  0  0  0  0
   -3.1165   -0.6905   -0.5101 C   0  0  0  0  0  0  0  0  0  0  0  0
    4.3160   -0.5668    0.5747 H   0  0  0  0  0  0  0  0  0  0  0  0
    3.5254    1.0212    0.3401 H   0  0  0  0  0  0  0  0  0  0  0  0
    2.9030   -0.1214    1.5427 H   0  0  0  0  0  0  0  0  0  0  0  0
    2.8865   -1.6985   -0.7900 H   0  0  0  0  0  0  0  0  0  0  0  0
    2.6327   -0.0808   -1.4660 H   0  0  0  0  0  0  0  0  0  0  0  0
    0.9153    0.9443    0.7929 H   0  0  0  0  0  0  0  0  0  0  0  0
    0.6606    1.0654   -0.9727 H   0  0  0  0  0  0  0  0  0  0  0  0
   -1.1305   -0.3651    1.1043 H   0  0  0  0  0  0  0  0  0  0  0  0
   -2.4318    1.7443    1.0109 H   0  0  0  0  0  0  0  0  0  0  0  0
   -1.5831   -0.0922   -1.9146 H   0  0  0  0  0  0  0  0  0  0  0  0
   -1.2533   -1.5951   -0.9469 H   0  0  0  0  0  0  0  0  0  0  0  0
   -3.4420    0.2487    0.0257 H   0  0  0  0  0  0  0  0  0  0  0  0
   -3.2735   -1.5558    0.1739 H   0  0  0  0  0  0  0  0  0  0  0  0
   -3.7812   -0.7789   -1.3998 H   0  0  0  0  0  0  0  0  0  0  0  0
  1  2  1  0
  2  3  1  0
  3  4  1  0
  4  5  1  0
  5  6  1  0
  6  7  2  0
  5  8  1  0
  8  9  1  0
  1 10  1  0
  1 11  1  0
  1 12  1  0
  2 13  1  0
  2 14  1  0
  4 15  1  0
  4 16  1  0
  5 17  1  0
  6 18  1  0
  8 19  1  0
  8 20  1  0
  9 21  1  0
  9 22  1  0
  9 23  1  0
M  END
