
     RDKit          3D

 25 24  0  0  0  0  0  0  0  0999 V2000
    3.2335   -0.2552   -0.1704 C   0  0  0  0  0  0  0  0  0  0  0  0
    2.3414    0.8607   -0.7089 C   0  0  0  0  0  0  0  0  0  0  0  0
    1.2169    1.0445    0.0625 O   0  0  0  0  0  0  0  0  0  0  0  0
    0.4427   -0.1189    0.1085 C   0  0  0  0  0  0  0  0  0  0  0  0
   -0.7842    0.0515    0.9388 C   0  0  0  0  0  0  0  0  0  0  0  0
   -1.6980    1.1433    0.4292 C   0  0  0  0  0  0  0  0  0  0  0  0
   -2.1731    0.8714   -0.9737 C   0  0  0  0  0  0  0  0  0  0  0  0
   -1.5725   -1.2467    0.8728 C   0  0  0  0  0  0  0  0  0  0  0  0
   -0.7812   -2.2967    1.3755 O   0  0  0  0  0  0  0  0  0  0  0  0
    2.9410   -1.2432   -0.5314 H   0  0  0  0  0  0  0  0  0  0  0  0
    4.2819   -0.0253   -0.4987 H   0  0  0  0  0  0  0  0  0  0  0  0
    3.2655   -0.2435    0.9375 H   0  0  0  0  0  0  0  0  0  0  0  0
    2.9522    1.7852   -0.6931 H   0  0  0  0  0  0  0  0  0  0  0  0
    2.1147    0.5934   -1.7601 H   0  0  0  0  0  0  0  0  0  0  0  0
    1.0778   -0.8863    0.6041 H   0  0  0  0  0  0  0  0  0  0  0  0
    0.1653   -0.4625   -0.8993 H   0  0  0  0  0  0  0  0  0  0  0  0
   -0.5625    0.2236    2.0092 H   0  0  0  0  0  0  0  0  0  0  0  0
   -2.6006    1.1839    1.0732 H   0  0  0  0  0  0  0  0  0  0  0  0
   -1.2317    2.1331    0.4430 H   0  0  0  0  0  0  0  0  0  0  0  0
   -1.3598    0.6427   -1.6815 H   0  0  0  0  0  0  0  0  0  0  0  0
   -2.6213    1.8407   -1.3411 H   0  0  0  0  0  0  0  0  0  0  0  0
   -3.0014    0.1402   -1.0115 H   0  0  0  0  0  0  0  0  0  0  0  0
   -1.8492   -1.5158   -0.1611 H   0  0  0  0  0  0  0  0  0  0  0  0
   -2.4598   -1.1392    1.5276 H   0  0  0  0  0  0  0  0  0  0  0  0
   -1.3375   -3.0808    1.5721 H   0  0  0  0  0  0  0  0  0  0  0  0
  1  2  1  0
  2  3  1  0
  3  4  1  0
  4  5  1  0
  5  6  1  0
  6  7  1  0
  5  8  1  0
  8  9  1  0
  1 10  1  0
  1 11  1  0
  1 12  1  0
  2 13  1  0
  2 14  1  0
  4 15  1  0
  4 16  1  0
  5 17  1  0
  6 18  1  0
  6 19  1  0
  7 20  1  0
  7 21  1  0
  7 22  1  0
  8 23  1  0
  8 24  1  0
  9 25  1  0
M  END
