
     RDKit          3D

 27 26  0  0  0  0  0  0  0  0999 V2000
    3.8014    0.7474    0.3579 C   0  0  0  0  0  0  0  0  0  0  0  0
    3.4000   -0.5454   -0.3201 C   0  0  0  0  0  0  0  0  0  0  0  0
    2.2028   -1.0484    0.1213 O   0  0  0  0  0  0  0  0  0  0  0  0
    1.1325   -0.1846   -0.0808 C   0  0  0  0  0  0  0  0  0  0  0  0
   -0.1482   -0.8193    0.4353 C   0  0  0  0  0  0  0  0  0  0  0  0
   -1.2927    0.1341    0.2060 C   0  0  0  0  0  0  0  0  0  0  0  0
   -1.4002    0.3988   -1.2681 C   0  0  0  0  0  0  0  0  0  0  0  0
   -2.5557   -0.5163    0.7564 C   0  0  0  0  0  0  0  0  0  0  0  0
   -3.7648    0.3720    0.5701 C   0  0  0  0  0  0  0  0  0  0  0  0
    3.1044    1.5677    0.1959 H   0  0  0  0  0  0  0  0  0  0  0  0
    3.9114    0.5414    1.4279 H   0  0  0  0  0  0  0  0  0  0  0  0
    4.7736    1.0544   -0.1040 H   0  0  0  0  0  0  0  0  0  0  0  0
    3.4385   -0.4415   -1.4411 H   0  0  0  0  0  0  0  0  0  0  0  0
    4.1880   -1.2879   -0.0756 H   0  0  0  0  0  0  0  0  0  0  0  0
    1.0632   -0.0196   -1.1752 H   0  0  0  0  0  0  0  0  0  0  0  0
    1.2336    0.7818    0.4061 H   0  0  0  0  0  0  0  0  0  0  0  0
   -0.0527   -1.1733    1.4615 H   0  0  0  0  0  0  0  0  0  0  0  0
   -0.3053   -1.7307   -0.2010 H   0  0  0  0  0  0  0  0  0  0  0  0
   -1.1362    1.0588    0.7987 H   0  0  0  0  0  0  0  0  0  0  0  0
   -2.4603    0.4434   -1.6139 H   0  0  0  0  0  0  0  0  0  0  0  0
   -0.8698    1.3598   -1.4879 H   0  0  0  0  0  0  0  0  0  0  0  0
   -0.8955   -0.3749   -1.8865 H   0  0  0  0  0  0  0  0  0  0  0  0
   -2.6951   -1.5189    0.3351 H   0  0  0  0  0  0  0  0  0  0  0  0
   -2.3973   -0.6279    1.8488 H   0  0  0  0  0  0  0  0  0  0  0  0
   -3.4958    1.4435    0.5436 H   0  0  0  0  0  0  0  0  0  0  0  0
   -4.3016    0.1592   -0.3763 H   0  0  0  0  0  0  0  0  0  0  0  0
   -4.4782    0.2263    1.4023 H   0  0  0  0  0  0  0  0  0  0  0  0
  1  2  1  0
  2  3  1  0
  3  4  1  0
  4  5  1  0
  5  6  1  0
  6  7  1  0
  6  8  1  0
  8  9  1  0
  1 10  1  0
  1 11  1  0
  1 12  1  0
  2 13  1  0
  2 14  1  0
  4 15  1  0
  4 16  1  0
  5 17  1  0
  5 18  1  0
  6 19  1  0
  7 20  1  0
  7 21  1  0
  7 22  1  0
  8 23  1  0
  8 24  1  0
  9 25  1  0
  9 26  1  0
  9 27  1  0
M  END
