
     RDKit          3D

 19 20  0  0  0  0  0  0  0  0999 V2000
    2.8857    0.3260   -0.7825 C   0  0  0  0  0  0  0  0  0  0  0  0
    1.8275   -0.3606    0.0458 C   0  0  0  0  0  0  0  0  0  0  0  0
    0.5499    0.0428   -0.3230 O   0  0  0  0  0  0  0  0  0  0  0  0
   -0.4483   -0.5439    0.3907 C   0  0  0  0  0  0  0  0  0  0  0  0
   -1.3443   -1.2767   -0.3508 O   0  0  0  0  0  0  0  0  0  0  0  0
   -2.1020   -0.2758   -0.9590 C   0  0  0  0  0  0  0  0  0  0  0  0
   -2.4974    0.5846    0.2158 C   0  0  0  0  0  0  0  0  0  0  0  0
   -2.6119    0.0281    1.4676 O   0  0  0  0  0  0  0  0  0  0  0  0
   -1.3307    0.4035    1.1496 C   0  0  0  0  0  0  0  0  0  0  0  0
    3.4583   -0.4017   -1.3714 H   0  0  0  0  0  0  0  0  0  0  0  0
    3.6206    0.8820   -0.1332 H   0  0  0  0  0  0  0  0  0  0  0  0
    2.4458    1.1000   -1.4673 H   0  0  0  0  0  0  0  0  0  0  0  0
    2.0083   -0.2378    1.1355 H   0  0  0  0  0  0  0  0  0  0  0  0
    1.8849   -1.4510   -0.1502 H   0  0  0  0  0  0  0  0  0  0  0  0
    0.0241   -1.2426    1.1375 H   0  0  0  0  0  0  0  0  0  0  0  0
   -1.5547    0.2752   -1.7362 H   0  0  0  0  0  0  0  0  0  0  0  0
   -3.0540   -0.7359   -1.3396 H   0  0  0  0  0  0  0  0  0  0  0  0
   -2.8514    1.6247    0.0306 H   0  0  0  0  0  0  0  0  0  0  0  0
   -0.9105    1.2591    1.6998 H   0  0  0  0  0  0  0  0  0  0  0  0
  1  2  1  0
  2  3  1  0
  3  4  1  0
  4  5  1  0
  5  6  1  0
  6  7  1  0
  7  8  1  0
  8  9  1  0
  9  4  1  0
  9  7  1  0
  1 10  1  0
  1 11  1  0
  1 12  1  0
  2 13  1  0
  2 14  1  0
  4 15  1  0
  6 16  1  0
  6 17  1  0
  7 18  1  0
  9 19  1  0
M  END
