
     RDKit          3D

 21 21  0  0  0  0  0  0  0  0999 V2000
   -3.0316    0.0669    0.7285 C   0  0  0  0  0  0  0  0  0  0  0  0
   -2.6247   -0.0787   -0.7210 C   0  0  0  0  0  0  0  0  0  0  0  0
   -1.2676    0.2482   -0.8683 O   0  0  0  0  0  0  0  0  0  0  0  0
   -0.4715   -0.5822   -0.1035 C   0  0  0  0  0  0  0  0  0  0  0  0
    0.9664   -0.1944   -0.2942 C   0  0  0  0  0  0  0  0  0  0  0  0
    1.8389   -0.9829    0.4428 O   0  0  0  0  0  0  0  0  0  0  0  0
    3.0645   -0.3310    0.1757 C   0  0  0  0  0  0  0  0  0  0  0  0
    2.6546    1.1191    0.0211 C   0  0  0  0  0  0  0  0  0  0  0  0
    1.2614    1.0740    0.1541 O   0  0  0  0  0  0  0  0  0  0  0  0
   -2.7346   -0.7824    1.3508 H   0  0  0  0  0  0  0  0  0  0  0  0
   -2.5917    1.0434    1.0779 H   0  0  0  0  0  0  0  0  0  0  0  0
   -4.1464    0.2311    0.7367 H   0  0  0  0  0  0  0  0  0  0  0  0
   -2.8246   -1.0796   -1.1212 H   0  0  0  0  0  0  0  0  0  0  0  0
   -3.1988    0.7114   -1.2829 H   0  0  0  0  0  0  0  0  0  0  0  0
   -0.7414   -0.5738    0.9694 H   0  0  0  0  0  0  0  0  0  0  0  0
   -0.5906   -1.6112   -0.4984 H   0  0  0  0  0  0  0  0  0  0  0  0
    1.2435   -0.3178   -1.3584 H   0  0  0  0  0  0  0  0  0  0  0  0
    3.3898   -0.7394   -0.8180 H   0  0  0  0  0  0  0  0  0  0  0  0
    3.7908   -0.4986    0.9740 H   0  0  0  0  0  0  0  0  0  0  0  0
    3.0826    1.7682    0.8138 H   0  0  0  0  0  0  0  0  0  0  0  0
    2.9310    1.5097   -0.9949 H   0  0  0  0  0  0  0  0  0  0  0  0
  1  2  1  0
  2  3  1  0
  3  4  1  0
  4  5  1  0
  5  6  1  0
  6  7  1  0
  7  8  1  0
  8  9  1  0
  9  5  1  0
  1 10  1  0
  1 11  1  0
  1 12  1  0
  2 13  1  0
  2 14  1  0
  4 15  1  0
  4 16  1  0
  5 17  1  0
  7 18  1  0
  7 19  1  0
  8 20  1  0
  8 21  1  0
M  END
