
     RDKit          3D

 21 21  0  0  0  0  0  0  0  0999 V2000
    2.6670   -0.2611    0.4767 C   0  0  0  0  0  0  0  0  0  0  0  0
    1.9597    0.0194   -0.8448 C   0  0  0  0  0  0  0  0  0  0  0  0
    1.1916    1.1503   -0.8041 O   0  0  0  0  0  0  0  0  0  0  0  0
    0.2313    1.0692    0.1704 C   0  0  0  0  0  0  0  0  0  0  0  0
   -0.6942   -0.0652   -0.0718 C   0  0  0  0  0  0  0  0  0  0  0  0
   -1.8055   -0.2023    0.9920 C   0  0  0  0  0  0  0  0  0  0  0  0
   -2.6670   -0.6419   -0.1765 C   0  0  0  0  0  0  0  0  0  0  0  0
   -1.7832    0.1648   -1.0465 C   0  0  0  0  0  0  0  0  0  0  0  0
   -1.9030    0.7512   -2.0920 O   0  0  0  0  0  0  0  0  0  0  0  0
    3.5685   -0.8568    0.2456 H   0  0  0  0  0  0  0  0  0  0  0  0
    1.9842   -0.7457    1.1975 H   0  0  0  0  0  0  0  0  0  0  0  0
    3.0030    0.6949    0.9418 H   0  0  0  0  0  0  0  0  0  0  0  0
    1.4433   -0.9134   -1.1318 H   0  0  0  0  0  0  0  0  0  0  0  0
    2.7740    0.2318   -1.6116 H   0  0  0  0  0  0  0  0  0  0  0  0
    0.7419    0.9058    1.1394 H   0  0  0  0  0  0  0  0  0  0  0  0
   -0.3899    1.9964    0.2049 H   0  0  0  0  0  0  0  0  0  0  0  0
   -0.2676   -1.0880   -0.1623 H   0  0  0  0  0  0  0  0  0  0  0  0
   -1.6108   -0.9554    1.7539 H   0  0  0  0  0  0  0  0  0  0  0  0
   -2.1698    0.7857    1.3484 H   0  0  0  0  0  0  0  0  0  0  0  0
   -2.5572   -1.7372   -0.4212 H   0  0  0  0  0  0  0  0  0  0  0  0
   -3.7163   -0.3023   -0.1079 H   0  0  0  0  0  0  0  0  0  0  0  0
  1  2  1  0
  2  3  1  0
  3  4  1  0
  4  5  1  0
  5  6  1  0
  6  7  1  0
  7  8  1  0
  8  9  2  0
  8  5  1  0
  1 10  1  0
  1 11  1  0
  1 12  1  0
  2 13  1  0
  2 14  1  0
  4 15  1  0
  4 16  1  0
  5 17  1  0
  6 18  1  0
  6 19  1  0
  7 20  1  0
  7 21  1  0
M  END
