
     RDKit          3D

 21 21  0  0  0  0  0  0  0  0999 V2000
    3.0500   -0.3739   -0.0815 C   0  0  0  0  0  0  0  0  0  0  0  0
    2.2796    0.7876    0.4961 C   0  0  0  0  0  0  0  0  0  0  0  0
    0.9292    0.5401    0.6025 O   0  0  0  0  0  0  0  0  0  0  0  0
    0.3575    0.2658   -0.6385 C   0  0  0  0  0  0  0  0  0  0  0  0
   -1.1190   -0.0027   -0.5064 C   0  0  0  0  0  0  0  0  0  0  0  0
   -1.4103   -1.0596    0.4999 C   0  0  0  0  0  0  0  0  0  0  0  0
   -2.6077   -0.7554    0.9926 C   0  0  0  0  0  0  0  0  0  0  0  0
   -3.0623    0.4974    0.2882 C   0  0  0  0  0  0  0  0  0  0  0  0
   -1.8023    1.0879    0.0350 O   0  0  0  0  0  0  0  0  0  0  0  0
    3.2666   -0.2208   -1.1589 H   0  0  0  0  0  0  0  0  0  0  0  0
    2.4216   -1.3049    0.0166 H   0  0  0  0  0  0  0  0  0  0  0  0
    4.0268   -0.5363    0.4183 H   0  0  0  0  0  0  0  0  0  0  0  0
    2.4930    1.6667   -0.1588 H   0  0  0  0  0  0  0  0  0  0  0  0
    2.6867    0.9886    1.5013 H   0  0  0  0  0  0  0  0  0  0  0  0
    0.8181   -0.6152   -1.1233 H   0  0  0  0  0  0  0  0  0  0  0  0
    0.4734    1.1165   -1.3418 H   0  0  0  0  0  0  0  0  0  0  0  0
   -1.6010   -0.2238   -1.4742 H   0  0  0  0  0  0  0  0  0  0  0  0
   -0.8261   -1.9155    0.8141 H   0  0  0  0  0  0  0  0  0  0  0  0
   -3.1583   -1.2975    1.7537 H   0  0  0  0  0  0  0  0  0  0  0  0
   -3.6806    1.1201    0.9529 H   0  0  0  0  0  0  0  0  0  0  0  0
   -3.5350    0.2348   -0.6643 H   0  0  0  0  0  0  0  0  0  0  0  0
  1  2  1  0
  2  3  1  0
  3  4  1  0
  4  5  1  0
  5  6  1  0
  6  7  2  0
  7  8  1  0
  8  9  1  0
  9  5  1  0
  1 10  1  0
  1 11  1  0
  1 12  1  0
  2 13  1  0
  2 14  1  0
  4 15  1  0
  4 16  1  0
  5 17  1  0
  6 18  1  0
  7 19  1  0
  8 20  1  0
  8 21  1  0
M  END
