
     RDKit          3D

 23 23  0  0  0  0  0  0  0  0999 V2000
    3.2313   -0.1574    0.4846 C   0  0  0  0  0  0  0  0  0  0  0  0
    1.8888   -0.1302   -0.2520 C   0  0  0  0  0  0  0  0  0  0  0  0
    0.9149   -0.2030    0.6986 O   0  0  0  0  0  0  0  0  0  0  0  0
   -0.3715   -0.1935    0.2606 C   0  0  0  0  0  0  0  0  0  0  0  0
   -0.6875   -1.3381   -0.6544 C   0  0  0  0  0  0  0  0  0  0  0  0
   -1.3268   -0.0262    1.4332 C   0  0  0  0  0  0  0  0  0  0  0  0
   -1.2363    1.3398    1.2575 O   0  0  0  0  0  0  0  0  0  0  0  0
   -0.9889    1.1151   -0.0895 C   0  0  0  0  0  0  0  0  0  0  0  0
   -2.2716    1.0237   -0.8476 C   0  0  0  0  0  0  0  0  0  0  0  0
    3.3476    0.7654    1.1070 H   0  0  0  0  0  0  0  0  0  0  0  0
    4.0535   -0.1934   -0.2529 H   0  0  0  0  0  0  0  0  0  0  0  0
    3.2377   -1.0104    1.1901 H   0  0  0  0  0  0  0  0  0  0  0  0
    1.8829   -1.0853   -0.8544 H   0  0  0  0  0  0  0  0  0  0  0  0
    1.8689    0.7484   -0.8944 H   0  0  0  0  0  0  0  0  0  0  0  0
   -0.0523   -1.2281   -1.5563 H   0  0  0  0  0  0  0  0  0  0  0  0
   -0.3703   -2.2744   -0.1188 H   0  0  0  0  0  0  0  0  0  0  0  0
   -1.7425   -1.3750   -0.9671 H   0  0  0  0  0  0  0  0  0  0  0  0
   -2.3030   -0.4924    1.3251 H   0  0  0  0  0  0  0  0  0  0  0  0
   -0.8669   -0.2929    2.4213 H   0  0  0  0  0  0  0  0  0  0  0  0
   -0.3020    1.8327   -0.5728 H   0  0  0  0  0  0  0  0  0  0  0  0
   -2.1627    0.6352   -1.8777 H   0  0  0  0  0  0  0  0  0  0  0  0
   -2.6772    2.0754   -0.9302 H   0  0  0  0  0  0  0  0  0  0  0  0
   -3.0662    0.4645   -0.3100 H   0  0  0  0  0  0  0  0  0  0  0  0
  1  2  1  0
  2  3  1  0
  3  4  1  0
  4  5  1  0
  4  6  1  0
  6  7  1  0
  7  8  1  0
  8  9  1  0
  8  4  1  0
  1 10  1  0
  1 11  1  0
  1 12  1  0
  2 13  1  0
  2 14  1  0
  5 15  1  0
  5 16  1  0
  5 17  1  0
  6 18  1  0
  6 19  1  0
  8 20  1  0
  9 21  1  0
  9 22  1  0
  9 23  1  0
M  END
