
     RDKit          3D

 25 24  0  0  0  0  0  0  0  0999 V2000
    2.9591    0.7508   -0.4202 C   0  0  0  0  0  0  0  0  0  0  0  0
    1.5847    0.2023   -0.8459 C   0  0  0  0  0  0  0  0  0  0  0  0
    0.9001   -0.0507    0.2823 O   0  0  0  0  0  0  0  0  0  0  0  0
   -0.3348   -0.5509    0.2838 C   0  0  0  0  0  0  0  0  0  0  0  0
   -0.5227   -1.8967   -0.3738 C   0  0  0  0  0  0  0  0  0  0  0  0
   -0.7233   -0.7864    1.7566 C   0  0  0  0  0  0  0  0  0  0  0  0
   -1.3777    0.3758   -0.2817 C   0  0  0  0  0  0  0  0  0  0  0  0
   -1.4466    1.6624    0.5348 C   0  0  0  0  0  0  0  0  0  0  0  0
   -1.1490    0.7162   -1.5944 O   0  0  0  0  0  0  0  0  0  0  0  0
    3.1778    0.4744    0.6399 H   0  0  0  0  0  0  0  0  0  0  0  0
    3.7634    0.3444   -1.0690 H   0  0  0  0  0  0  0  0  0  0  0  0
    2.9976    1.8515   -0.5218 H   0  0  0  0  0  0  0  0  0  0  0  0
    1.7768   -0.6523   -1.5150 H   0  0  0  0  0  0  0  0  0  0  0  0
    1.1298    1.0015   -1.4549 H   0  0  0  0  0  0  0  0  0  0  0  0
   -1.5626   -2.2079   -0.1321 H   0  0  0  0  0  0  0  0  0  0  0  0
   -0.4700   -1.8335   -1.4872 H   0  0  0  0  0  0  0  0  0  0  0  0
    0.1296   -2.6820    0.0410 H   0  0  0  0  0  0  0  0  0  0  0  0
   -1.8067   -0.9584    1.8417 H   0  0  0  0  0  0  0  0  0  0  0  0
   -0.2308   -1.7273    2.1291 H   0  0  0  0  0  0  0  0  0  0  0  0
   -0.4397    0.0785    2.3637 H   0  0  0  0  0  0  0  0  0  0  0  0
   -2.3968   -0.0848   -0.2379 H   0  0  0  0  0  0  0  0  0  0  0  0
   -1.8525    2.4930   -0.0703 H   0  0  0  0  0  0  0  0  0  0  0  0
   -0.4439    1.9728    0.8997 H   0  0  0  0  0  0  0  0  0  0  0  0
   -2.0534    1.4286    1.4284 H   0  0  0  0  0  0  0  0  0  0  0  0
   -1.6081    0.0787   -2.1966 H   0  0  0  0  0  0  0  0  0  0  0  0
  1  2  1  0
  2  3  1  0
  3  4  1  0
  4  5  1  0
  4  6  1  0
  4  7  1  0
  7  8  1  0
  7  9  1  0
  1 10  1  0
  1 11  1  0
  1 12  1  0
  2 13  1  0
  2 14  1  0
  5 15  1  0
  5 16  1  0
  5 17  1  0
  6 18  1  0
  6 19  1  0
  6 20  1  0
  7 21  1  0
  8 22  1  0
  8 23  1  0
  8 24  1  0
  9 25  1  0
M  END
