
     RDKit          3D

 23 22  0  0  0  0  0  0  0  0999 V2000
   -2.7900    1.1364    0.3564 C   0  0  0  0  0  0  0  0  0  0  0  0
   -1.7822    0.0209    0.1270 C   0  0  0  0  0  0  0  0  0  0  0  0
   -0.5360    0.5469   -0.1003 O   0  0  0  0  0  0  0  0  0  0  0  0
    0.4512   -0.4083   -0.3199 C   0  0  0  0  0  0  0  0  0  0  0  0
    0.5359   -1.2954    0.8874 C   0  0  0  0  0  0  0  0  0  0  0  0
    0.0772   -1.2442   -1.4912 C   0  0  0  0  0  0  0  0  0  0  0  0
    0.8409   -2.1387   -1.8132 O   0  0  0  0  0  0  0  0  0  0  0  0
    1.7485    0.2650   -0.6602 C   0  0  0  0  0  0  0  0  0  0  0  0
    2.2635    1.1788    0.4012 C   0  0  0  0  0  0  0  0  0  0  0  0
   -2.2559    2.0777    0.6246 H   0  0  0  0  0  0  0  0  0  0  0  0
   -3.4961    0.9044    1.1718 H   0  0  0  0  0  0  0  0  0  0  0  0
   -3.3754    1.3469   -0.5636 H   0  0  0  0  0  0  0  0  0  0  0  0
   -2.1810   -0.6382   -0.6524 H   0  0  0  0  0  0  0  0  0  0  0  0
   -1.7647   -0.5553    1.0983 H   0  0  0  0  0  0  0  0  0  0  0  0
    0.5100   -0.7596    1.8418 H   0  0  0  0  0  0  0  0  0  0  0  0
    1.4499   -1.9435    0.8605 H   0  0  0  0  0  0  0  0  0  0  0  0
   -0.3251   -1.9952    0.8458 H   0  0  0  0  0  0  0  0  0  0  0  0
   -0.8231   -1.1161   -2.0784 H   0  0  0  0  0  0  0  0  0  0  0  0
    2.5320   -0.4816   -0.8989 H   0  0  0  0  0  0  0  0  0  0  0  0
    1.5747    0.8693   -1.5754 H   0  0  0  0  0  0  0  0  0  0  0  0
    1.4853    1.6664    1.0022 H   0  0  0  0  0  0  0  0  0  0  0  0
    2.9915    0.5953    1.0283 H   0  0  0  0  0  0  0  0  0  0  0  0
    2.8688    1.9681   -0.0918 H   0  0  0  0  0  0  0  0  0  0  0  0
  1  2  1  0
  2  3  1  0
  3  4  1  0
  4  5  1  0
  4  6  1  0
  6  7  2  0
  4  8  1  0
  8  9  1  0
  1 10  1  0
  1 11  1  0
  1 12  1  0
  2 13  1  0
  2 14  1  0
  5 15  1  0
  5 16  1  0
  5 17  1  0
  6 18  1  0
  8 19  1  0
  8 20  1  0
  9 21  1  0
  9 22  1  0
  9 23  1  0
M  END
