
     RDKit          3D

 21 21  0  0  0  0  0  0  0  0999 V2000
    3.2842    0.3950   -0.0692 C   0  0  0  0  0  0  0  0  0  0  0  0
    1.8770    0.0323   -0.5570 C   0  0  0  0  0  0  0  0  0  0  0  0
    1.3416   -0.8221    0.3880 O   0  0  0  0  0  0  0  0  0  0  0  0
    0.0671   -1.2453    0.0956 C   0  0  0  0  0  0  0  0  0  0  0  0
   -0.8249   -0.0133    0.0097 C   0  0  0  0  0  0  0  0  0  0  0  0
   -0.8802    0.7349    1.1789 O   0  0  0  0  0  0  0  0  0  0  0  0
   -2.2305    0.9972    0.8660 C   0  0  0  0  0  0  0  0  0  0  0  0
   -2.2852   -0.3662    0.2379 C   0  0  0  0  0  0  0  0  0  0  0  0
   -3.0285   -0.4847   -0.9131 O   0  0  0  0  0  0  0  0  0  0  0  0
    3.7056   -0.5815    0.3107 H   0  0  0  0  0  0  0  0  0  0  0  0
    3.8969    0.8383   -0.8544 H   0  0  0  0  0  0  0  0  0  0  0  0
    3.1585    1.0219    0.8310 H   0  0  0  0  0  0  0  0  0  0  0  0
    1.3111    0.9847   -0.6635 H   0  0  0  0  0  0  0  0  0  0  0  0
    2.0347   -0.4682   -1.5411 H   0  0  0  0  0  0  0  0  0  0  0  0
   -0.0221   -1.8093   -0.8341 H   0  0  0  0  0  0  0  0  0  0  0  0
   -0.2802   -1.8680    0.9517 H   0  0  0  0  0  0  0  0  0  0  0  0
   -0.6822    0.5998   -0.8764 H   0  0  0  0  0  0  0  0  0  0  0  0
   -2.8608    1.0749    1.7574 H   0  0  0  0  0  0  0  0  0  0  0  0
   -2.3638    1.8554    0.1866 H   0  0  0  0  0  0  0  0  0  0  0  0
   -2.4366   -1.1410    1.0061 H   0  0  0  0  0  0  0  0  0  0  0  0
   -2.7819    0.2652   -1.5108 H   0  0  0  0  0  0  0  0  0  0  0  0
  1  2  1  0
  2  3  1  0
  3  4  1  0
  4  5  1  0
  5  6  1  0
  6  7  1  0
  7  8  1  0
  8  9  1  0
  8  5  1  0
  1 10  1  0
  1 11  1  0
  1 12  1  0
  2 13  1  0
  2 14  1  0
  4 15  1  0
  4 16  1  0
  5 17  1  0
  7 18  1  0
  7 19  1  0
  8 20  1  0
  9 21  1  0
M  END
