
     RDKit          3D

 21 21  0  0  0  0  0  0  0  0999 V2000
   -2.7581    0.4938    0.5128 C   0  0  0  0  0  0  0  0  0  0  0  0
   -2.1772   -0.2665   -0.6387 C   0  0  0  0  0  0  0  0  0  0  0  0
   -0.7981    0.0017   -0.7055 O   0  0  0  0  0  0  0  0  0  0  0  0
   -0.2013   -0.3993    0.4776 C   0  0  0  0  0  0  0  0  0  0  0  0
    1.2543   -0.1693    0.5312 C   0  0  0  0  0  0  0  0  0  0  0  0
    1.9987   -0.9078   -0.5617 C   0  0  0  0  0  0  0  0  0  0  0  0
    2.9316    0.2412   -0.5835 C   0  0  0  0  0  0  0  0  0  0  0  0
    4.0950    0.3909   -0.8601 O   0  0  0  0  0  0  0  0  0  0  0  0
    1.7967    1.0776   -0.1227 C   0  0  0  0  0  0  0  0  0  0  0  0
   -3.7966    0.8391    0.3324 H   0  0  0  0  0  0  0  0  0  0  0  0
   -2.7383   -0.1411    1.4221 H   0  0  0  0  0  0  0  0  0  0  0  0
   -2.1532    1.4079    0.6902 H   0  0  0  0  0  0  0  0  0  0  0  0
   -2.3679   -1.3516   -0.4821 H   0  0  0  0  0  0  0  0  0  0  0  0
   -2.6838    0.0215   -1.5820 H   0  0  0  0  0  0  0  0  0  0  0  0
   -0.7160    0.1109    1.3335 H   0  0  0  0  0  0  0  0  0  0  0  0
   -0.3880   -1.5010    0.5740 H   0  0  0  0  0  0  0  0  0  0  0  0
    1.6673   -0.3022    1.5424 H   0  0  0  0  0  0  0  0  0  0  0  0
    2.4038   -1.8549   -0.1648 H   0  0  0  0  0  0  0  0  0  0  0  0
    1.3772   -1.0383   -1.4623 H   0  0  0  0  0  0  0  0  0  0  0  0
    2.0750    1.8343    0.6643 H   0  0  0  0  0  0  0  0  0  0  0  0
    1.1788    1.5134   -0.9170 H   0  0  0  0  0  0  0  0  0  0  0  0
  1  2  1  0
  2  3  1  0
  3  4  1  0
  4  5  1  0
  5  6  1  0
  6  7  1  0
  7  8  2  0
  7  9  1  0
  9  5  1  0
  1 10  1  0
  1 11  1  0
  1 12  1  0
  2 13  1  0
  2 14  1  0
  4 15  1  0
  4 16  1  0
  5 17  1  0
  6 18  1  0
  6 19  1  0
  9 20  1  0
  9 21  1  0
M  END
