
     RDKit          3D

 19 19  0  0  0  0  0  0  0  0999 V2000
    3.1190   -0.2424   -0.4646 C   0  0  0  0  0  0  0  0  0  0  0  0
    1.8077   -0.2040    0.3109 C   0  0  0  0  0  0  0  0  0  0  0  0
    0.7885   -0.1836   -0.6663 O   0  0  0  0  0  0  0  0  0  0  0  0
   -0.4096   -0.1487    0.0083 C   0  0  0  0  0  0  0  0  0  0  0  0
   -1.1567    1.1235   -0.4130 C   0  0  0  0  0  0  0  0  0  0  0  0
   -2.5549    0.6029   -0.4879 C   0  0  0  0  0  0  0  0  0  0  0  0
   -3.5568    1.1473   -0.9012 O   0  0  0  0  0  0  0  0  0  0  0  0
   -2.4748   -0.7779    0.0693 C   0  0  0  0  0  0  0  0  0  0  0  0
   -1.2389   -1.1996   -0.4204 O   0  0  0  0  0  0  0  0  0  0  0  0
    3.9757    0.0291    0.1617 H   0  0  0  0  0  0  0  0  0  0  0  0
    3.2037   -1.2738   -0.8711 H   0  0  0  0  0  0  0  0  0  0  0  0
    2.9748    0.4507   -1.3294 H   0  0  0  0  0  0  0  0  0  0  0  0
    1.7022   -1.0509    1.0017 H   0  0  0  0  0  0  0  0  0  0  0  0
    1.7208    0.7244    0.9066 H   0  0  0  0  0  0  0  0  0  0  0  0
   -0.3120   -0.1447    1.1060 H   0  0  0  0  0  0  0  0  0  0  0  0
   -1.0641    1.8859    0.3646 H   0  0  0  0  0  0  0  0  0  0  0  0
   -0.8205    1.4542   -1.4100 H   0  0  0  0  0  0  0  0  0  0  0  0
   -2.4001   -0.7832    1.1772 H   0  0  0  0  0  0  0  0  0  0  0  0
   -3.3039   -1.4092   -0.3068 H   0  0  0  0  0  0  0  0  0  0  0  0
  1  2  1  0
  2  3  1  0
  3  4  1  0
  4  5  1  0
  5  6  1  0
  6  7  2  0
  6  8  1  0
  8  9  1  0
  9  4  1  0
  1 10  1  0
  1 11  1  0
  1 12  1  0
  2 13  1  0
  2 14  1  0
  4 15  1  0
  5 16  1  0
  5 17  1  0
  8 18  1  0
  8 19  1  0
M  END
