
     RDKit          3D

 23 22  0  0  0  0  0  0  0  0999 V2000
    3.2589    0.2275    0.4982 C   0  0  0  0  0  0  0  0  0  0  0  0
    2.3105    1.2119   -0.1474 C   0  0  0  0  0  0  0  0  0  0  0  0
    1.0053    0.9581    0.3090 O   0  0  0  0  0  0  0  0  0  0  0  0
    0.7242   -0.3479   -0.0730 C   0  0  0  0  0  0  0  0  0  0  0  0
   -0.6606   -0.7834    0.3475 C   0  0  0  0  0  0  0  0  0  0  0  0
   -0.8466   -0.7348    1.7043 O   0  0  0  0  0  0  0  0  0  0  0  0
   -1.6468    0.0628   -0.4180 C   0  0  0  0  0  0  0  0  0  0  0  0
   -3.0791   -0.2835   -0.0791 C   0  0  0  0  0  0  0  0  0  0  0  0
   -3.2882   -0.0763    1.2837 O   0  0  0  0  0  0  0  0  0  0  0  0
    2.8573   -0.0349    1.4956 H   0  0  0  0  0  0  0  0  0  0  0  0
    3.4122   -0.6712   -0.1457 H   0  0  0  0  0  0  0  0  0  0  0  0
    4.2526    0.7358    0.5779 H   0  0  0  0  0  0  0  0  0  0  0  0
    2.3386    1.0677   -1.2620 H   0  0  0  0  0  0  0  0  0  0  0  0
    2.6328    2.2458    0.0966 H   0  0  0  0  0  0  0  0  0  0  0  0
    1.4746   -1.0360    0.3780 H   0  0  0  0  0  0  0  0  0  0  0  0
    0.8670   -0.4151   -1.1685 H   0  0  0  0  0  0  0  0  0  0  0  0
   -0.8108   -1.8342    0.0238 H   0  0  0  0  0  0  0  0  0  0  0  0
   -1.4885   -1.4382    1.9946 H   0  0  0  0  0  0  0  0  0  0  0  0
   -1.4187    1.1257   -0.2477 H   0  0  0  0  0  0  0  0  0  0  0  0
   -1.4588   -0.1287   -1.4986 H   0  0  0  0  0  0  0  0  0  0  0  0
   -3.3881   -1.2591   -0.4414 H   0  0  0  0  0  0  0  0  0  0  0  0
   -3.7140    0.4922   -0.5970 H   0  0  0  0  0  0  0  0  0  0  0  0
   -3.3337    0.9157    1.4279 H   0  0  0  0  0  0  0  0  0  0  0  0
  1  2  1  0
  2  3  1  0
  3  4  1  0
  4  5  1  0
  5  6  1  0
  5  7  1  0
  7  8  1  0
  8  9  1  0
  1 10  1  0
  1 11  1  0
  1 12  1  0
  2 13  1  0
  2 14  1  0
  4 15  1  0
  4 16  1  0
  5 17  1  0
  6 18  1  0
  7 19  1  0
  7 20  1  0
  8 21  1  0
  8 22  1  0
  9 23  1  0
M  END
