
     RDKit          3D

 21 21  0  0  0  0  0  0  0  0999 V2000
    3.3996    0.1627    0.2701 C   0  0  0  0  0  0  0  0  0  0  0  0
    2.2094   -0.2499   -0.5471 C   0  0  0  0  0  0  0  0  0  0  0  0
    1.0493   -0.0171    0.1916 O   0  0  0  0  0  0  0  0  0  0  0  0
   -0.0963   -0.3794   -0.5108 C   0  0  0  0  0  0  0  0  0  0  0  0
   -1.0012    0.8198   -0.6345 C   0  0  0  0  0  0  0  0  0  0  0  0
   -2.1594    0.4208    0.2562 C   0  0  0  0  0  0  0  0  0  0  0  0
   -3.3582    0.9700   -0.1493 O   0  0  0  0  0  0  0  0  0  0  0  0
   -2.1313   -1.0914    0.0827 C   0  0  0  0  0  0  0  0  0  0  0  0
   -0.7725   -1.3638    0.1538 O   0  0  0  0  0  0  0  0  0  0  0  0
    3.4674    1.2849    0.2823 H   0  0  0  0  0  0  0  0  0  0  0  0
    3.3241   -0.1553    1.3250 H   0  0  0  0  0  0  0  0  0  0  0  0
    4.3360   -0.2574   -0.1796 H   0  0  0  0  0  0  0  0  0  0  0  0
    2.2946   -1.3097   -0.8731 H   0  0  0  0  0  0  0  0  0  0  0  0
    2.1344    0.3713   -1.4625 H   0  0  0  0  0  0  0  0  0  0  0  0
    0.1965   -0.7766   -1.5157 H   0  0  0  0  0  0  0  0  0  0  0  0
   -1.4054    0.8801   -1.6735 H   0  0  0  0  0  0  0  0  0  0  0  0
   -0.5211    1.7510   -0.3212 H   0  0  0  0  0  0  0  0  0  0  0  0
   -1.8888    0.6619    1.2986 H   0  0  0  0  0  0  0  0  0  0  0  0
   -3.8746    1.2057    0.6608 H   0  0  0  0  0  0  0  0  0  0  0  0
   -2.5229   -1.3133   -0.9390 H   0  0  0  0  0  0  0  0  0  0  0  0
   -2.6794   -1.6142    0.8739 H   0  0  0  0  0  0  0  0  0  0  0  0
  1  2  1  0
  2  3  1  0
  3  4  1  0
  4  5  1  0
  5  6  1  0
  6  7  1  0
  6  8  1  0
  8  9  1  0
  9  4  1  0
  1 10  1  0
  1 11  1  0
  1 12  1  0
  2 13  1  0
  2 14  1  0
  4 15  1  0
  5 16  1  0
  5 17  1  0
  6 18  1  0
  7 19  1  0
  8 20  1  0
  8 21  1  0
M  END
