
     RDKit          3D

 23 24  0  0  0  0  0  0  0  0999 V2000
    3.1412   -0.0012    0.4619 C   0  0  0  0  0  0  0  0  0  0  0  0
    1.7206   -0.3944    0.1148 C   0  0  0  0  0  0  0  0  0  0  0  0
    1.1076    0.5225   -0.7137 O   0  0  0  0  0  0  0  0  0  0  0  0
   -0.1538    0.2555   -1.0732 C   0  0  0  0  0  0  0  0  0  0  0  0
   -0.6060   -0.9463   -1.8164 C   0  0  0  0  0  0  0  0  0  0  0  0
   -1.8665   -0.9537   -0.9379 C   0  0  0  0  0  0  0  0  0  0  0  0
   -1.3580    0.2991   -0.3008 C   0  0  0  0  0  0  0  0  0  0  0  0
   -1.5278    0.6079    1.1225 C   0  0  0  0  0  0  0  0  0  0  0  0
   -1.0814    1.4619   -1.2145 C   0  0  0  0  0  0  0  0  0  0  0  0
    3.8038   -0.0499   -0.4448 H   0  0  0  0  0  0  0  0  0  0  0  0
    3.5136   -0.7178    1.2264 H   0  0  0  0  0  0  0  0  0  0  0  0
    3.1859    1.0303    0.8942 H   0  0  0  0  0  0  0  0  0  0  0  0
    1.1861   -0.5376    1.0779 H   0  0  0  0  0  0  0  0  0  0  0  0
    1.8004   -1.4099   -0.3410 H   0  0  0  0  0  0  0  0  0  0  0  0
   -0.8658   -0.7255   -2.8862 H   0  0  0  0  0  0  0  0  0  0  0  0
   -0.0195   -1.8547   -1.7698 H   0  0  0  0  0  0  0  0  0  0  0  0
   -2.8029   -0.7964   -1.5164 H   0  0  0  0  0  0  0  0  0  0  0  0
   -1.8879   -1.8491   -0.3123 H   0  0  0  0  0  0  0  0  0  0  0  0
   -1.6333   -0.2540    1.7913 H   0  0  0  0  0  0  0  0  0  0  0  0
   -0.6741    1.2169    1.5328 H   0  0  0  0  0  0  0  0  0  0  0  0
   -2.4786    1.2054    1.2452 H   0  0  0  0  0  0  0  0  0  0  0  0
   -1.7688    1.4917   -2.0895 H   0  0  0  0  0  0  0  0  0  0  0  0
   -0.7350    2.3992   -0.7630 H   0  0  0  0  0  0  0  0  0  0  0  0
  1  2  1  0
  2  3  1  0
  3  4  1  0
  4  5  1  0
  5  6  1  0
  6  7  1  0
  7  8  1  0
  7  9  1  0
  7  4  1  0
  9  4  1  0
  1 10  1  0
  1 11  1  0
  1 12  1  0
  2 13  1  0
  2 14  1  0
  5 15  1  0
  5 16  1  0
  6 17  1  0
  6 18  1  0
  8 19  1  0
  8 20  1  0
  8 21  1  0
  9 22  1  0
  9 23  1  0
M  END
