
     RDKit          3D

 21 20  0  0  0  0  0  0  0  0999 V2000
    3.9083    0.6909    0.6083 C   0  0  0  0  0  0  0  0  0  0  0  0
    2.4584    0.3696    0.9994 C   0  0  0  0  0  0  0  0  0  0  0  0
    1.6650    0.6978   -0.1085 O   0  0  0  0  0  0  0  0  0  0  0  0
    0.2929    0.5077   -0.0370 C   0  0  0  0  0  0  0  0  0  0  0  0
   -0.1691    0.0508    1.0175 O   0  0  0  0  0  0  0  0  0  0  0  0
   -0.6175    0.8325   -1.1725 C   0  0  0  0  0  0  0  0  0  0  0  0
   -2.0199    0.5038   -0.7461 C   0  0  0  0  0  0  0  0  0  0  0  0
   -2.1334   -0.8460   -0.4258 O   0  0  0  0  0  0  0  0  0  0  0  0
   -3.4589   -1.0609   -0.0435 C   0  0  0  0  0  0  0  0  0  0  0  0
    3.9334    1.5775   -0.0761 H   0  0  0  0  0  0  0  0  0  0  0  0
    4.4915    0.9612    1.5088 H   0  0  0  0  0  0  0  0  0  0  0  0
    4.3186   -0.1742    0.0607 H   0  0  0  0  0  0  0  0  0  0  0  0
    2.3928   -0.7058    1.2866 H   0  0  0  0  0  0  0  0  0  0  0  0
    2.1548    0.9716    1.8807 H   0  0  0  0  0  0  0  0  0  0  0  0
   -0.4955    1.8650   -1.5185 H   0  0  0  0  0  0  0  0  0  0  0  0
   -0.2898    0.1536   -2.0090 H   0  0  0  0  0  0  0  0  0  0  0  0
   -2.3124    1.1257    0.1251 H   0  0  0  0  0  0  0  0  0  0  0  0
   -2.6988    0.7956   -1.5714 H   0  0  0  0  0  0  0  0  0  0  0  0
   -4.0937   -0.7925   -0.8928 H   0  0  0  0  0  0  0  0  0  0  0  0
   -3.6963   -0.3344    0.7778 H   0  0  0  0  0  0  0  0  0  0  0  0
   -3.6304   -2.0807    0.3364 H   0  0  0  0  0  0  0  0  0  0  0  0
  1  2  1  0
  2  3  1  0
  3  4  1  0
  4  5  2  0
  4  6  1  0
  6  7  1  0
  7  8  1  0
  8  9  1  0
  1 10  1  0
  1 11  1  0
  1 12  1  0
  2 13  1  0
  2 14  1  0
  6 15  1  0
  6 16  1  0
  7 17  1  0
  7 18  1  0
  9 19  1  0
  9 20  1  0
  9 21  1  0
M  END
