
     RDKit          3D

 17 17  0  0  0  0  0  0  0  0999 V2000
   -2.3118    0.5197    0.1805 C   0  0  0  0  0  0  0  0  0  0  0  0
   -1.6768   -0.8216   -0.1871 C   0  0  0  0  0  0  0  0  0  0  0  0
   -0.5172   -0.9494    0.5497 O   0  0  0  0  0  0  0  0  0  0  0  0
    0.3421    0.0962    0.2394 C   0  0  0  0  0  0  0  0  0  0  0  0
    1.6037   -0.0156    1.0205 C   0  0  0  0  0  0  0  0  0  0  0  0
    2.8711    0.0909    0.1851 C   0  0  0  0  0  0  0  0  0  0  0  0
    2.4265   -1.1100    0.9162 O   0  0  0  0  0  0  0  0  0  0  0  0
   -2.0691    0.8020    1.2353 H   0  0  0  0  0  0  0  0  0  0  0  0
   -1.9874    1.3121   -0.5018 H   0  0  0  0  0  0  0  0  0  0  0  0
   -3.4217    0.3685    0.0967 H   0  0  0  0  0  0  0  0  0  0  0  0
   -2.3702   -1.6604   -0.0149 H   0  0  0  0  0  0  0  0  0  0  0  0
   -1.4028   -0.7759   -1.2751 H   0  0  0  0  0  0  0  0  0  0  0  0
    0.5225    0.1491   -0.8512 H   0  0  0  0  0  0  0  0  0  0  0  0
   -0.1525    1.0583    0.5144 H   0  0  0  0  0  0  0  0  0  0  0  0
    1.6109    0.5000    2.0013 H   0  0  0  0  0  0  0  0  0  0  0  0
    2.7723   -0.1256   -0.8962 H   0  0  0  0  0  0  0  0  0  0  0  0
    3.7605    0.5617    0.5971 H   0  0  0  0  0  0  0  0  0  0  0  0
  1  2  1  0
  2  3  1  0
  3  4  1  0
  4  5  1  0
  5  6  1  0
  6  7  1  0
  7  5  1  0
  1  8  1  0
  1  9  1  0
  1 10  1  0
  2 11  1  0
  2 12  1  0
  4 13  1  0
  4 14  1  0
  5 15  1  0
  6 16  1  0
  6 17  1  0
M  END
