
     RDKit          3D

 20 20  0  0  0  0  0  0  0  0999 V2000
    2.1849   -0.5642   -0.0152 C   0  0  0  0  0  0  0  0  0  0  0  0
    1.7863    0.8166    0.3824 C   0  0  0  0  0  0  0  0  0  0  0  0
    0.4690    0.9487    0.8044 O   0  0  0  0  0  0  0  0  0  0  0  0
   -0.3868    0.5876   -0.1951 C   0  0  0  0  0  0  0  0  0  0  0  0
   -1.5226    1.5540   -0.4759 C   0  0  0  0  0  0  0  0  0  0  0  0
   -2.2953    0.4373   -0.8002 O   0  0  0  0  0  0  0  0  0  0  0  0
   -1.5693   -0.2507    0.1838 C   0  0  0  0  0  0  0  0  0  0  0  0
   -1.3171   -1.7038   -0.1280 C   0  0  0  0  0  0  0  0  0  0  0  0
    2.5169   -1.1707    0.8711 H   0  0  0  0  0  0  0  0  0  0  0  0
    1.4689   -1.0983   -0.6338 H   0  0  0  0  0  0  0  0  0  0  0  0
    3.1225   -0.4686   -0.6379 H   0  0  0  0  0  0  0  0  0  0  0  0
    1.9746    1.4799   -0.5127 H   0  0  0  0  0  0  0  0  0  0  0  0
    2.4195    1.1588    1.2352 H   0  0  0  0  0  0  0  0  0  0  0  0
    0.0517    0.2564   -1.1538 H   0  0  0  0  0  0  0  0  0  0  0  0
   -1.2970    2.2286   -1.3159 H   0  0  0  0  0  0  0  0  0  0  0  0
   -1.9325    2.0534    0.4104 H   0  0  0  0  0  0  0  0  0  0  0  0
   -2.0221   -0.0581    1.1569 H   0  0  0  0  0  0  0  0  0  0  0  0
   -0.7742   -1.8192   -1.0884 H   0  0  0  0  0  0  0  0  0  0  0  0
   -2.2454   -2.3014   -0.1944 H   0  0  0  0  0  0  0  0  0  0  0  0
   -0.6319   -2.0863    0.6570 H   0  0  0  0  0  0  0  0  0  0  0  0
  1  2  1  0
  2  3  1  0
  3  4  1  0
  4  5  1  0
  5  6  1  0
  6  7  1  0
  7  8  1  0
  7  4  1  0
  1  9  1  0
  1 10  1  0
  1 11  1  0
  2 12  1  0
  2 13  1  0
  4 14  1  0
  5 15  1  0
  5 16  1  0
  7 17  1  0
  8 18  1  0
  8 19  1  0
  8 20  1  0
M  END
