
     RDKit          3D

 23 24  0  0  0  0  0  0  0  0999 V2000
    3.1012   -0.7641    0.0219 C   0  0  0  0  0  0  0  0  0  0  0  0
    1.6241   -0.5943    0.3347 C   0  0  0  0  0  0  0  0  0  0  0  0
    1.0969    0.3816   -0.4563 O   0  0  0  0  0  0  0  0  0  0  0  0
   -0.2207    0.6961   -0.2918 C   0  0  0  0  0  0  0  0  0  0  0  0
   -1.2191   -0.3955   -0.4944 C   0  0  0  0  0  0  0  0  0  0  0  0
   -1.3383   -1.6084    0.2945 C   0  0  0  0  0  0  0  0  0  0  0  0
   -2.4392   -0.5367    0.3485 C   0  0  0  0  0  0  0  0  0  0  0  0
   -0.6187    1.9953   -1.0443 C   0  0  0  0  0  0  0  0  0  0  0  0
   -0.5636    1.9385    0.4387 C   0  0  0  0  0  0  0  0  0  0  0  0
    3.4877   -1.6783    0.5293 H   0  0  0  0  0  0  0  0  0  0  0  0
    3.6996    0.0805    0.4464 H   0  0  0  0  0  0  0  0  0  0  0  0
    3.3040   -0.7874   -1.0646 H   0  0  0  0  0  0  0  0  0  0  0  0
    1.5270   -0.4610    1.4201 H   0  0  0  0  0  0  0  0  0  0  0  0
    1.1571   -1.5917    0.0791 H   0  0  0  0  0  0  0  0  0  0  0  0
   -1.4638   -0.5112   -1.6007 H   0  0  0  0  0  0  0  0  0  0  0  0
   -1.6337   -2.5642   -0.2347 H   0  0  0  0  0  0  0  0  0  0  0  0
   -0.8499   -1.8257    1.2599 H   0  0  0  0  0  0  0  0  0  0  0  0
   -3.4191   -0.8438   -0.1068 H   0  0  0  0  0  0  0  0  0  0  0  0
   -2.5377   -0.0319    1.3131 H   0  0  0  0  0  0  0  0  0  0  0  0
   -1.6255    2.0628   -1.4722 H   0  0  0  0  0  0  0  0  0  0  0  0
    0.1491    2.5106   -1.6342 H   0  0  0  0  0  0  0  0  0  0  0  0
   -1.5084    2.0303    1.0243 H   0  0  0  0  0  0  0  0  0  0  0  0
    0.2911    2.4984    0.8896 H   0  0  0  0  0  0  0  0  0  0  0  0
  1  2  1  0
  2  3  1  0
  3  4  1  0
  4  5  1  0
  5  6  1  0
  6  7  1  0
  4  8  1  0
  8  9  1  0
  9  4  1  0
  7  5  1  0
  1 10  1  0
  1 11  1  0
  1 12  1  0
  2 13  1  0
  2 14  1  0
  5 15  1  0
  6 16  1  0
  6 17  1  0
  7 18  1  0
  7 19  1  0
  8 20  1  0
  8 21  1  0
  9 22  1  0
  9 23  1  0
M  END
