
     RDKit          3D

 25 25  0  0  0  0  0  0  0  0999 V2000
    3.1609    0.7666   -0.7871 C   0  0  0  0  0  0  0  0  0  0  0  0
    2.7779   -0.6158   -0.3148 C   0  0  0  0  0  0  0  0  0  0  0  0
    1.4217   -0.8321   -0.3130 O   0  0  0  0  0  0  0  0  0  0  0  0
    0.7542    0.0633    0.5217 C   0  0  0  0  0  0  0  0  0  0  0  0
   -0.7249   -0.1557    0.5376 C   0  0  0  0  0  0  0  0  0  0  0  0
   -1.2753   -1.4892    0.9931 C   0  0  0  0  0  0  0  0  0  0  0  0
   -1.5176    1.0755    0.9862 C   0  0  0  0  0  0  0  0  0  0  0  0
   -1.6113    0.5853   -0.4126 C   0  0  0  0  0  0  0  0  0  0  0  0
   -2.9322    0.0111   -0.8191 C   0  0  0  0  0  0  0  0  0  0  0  0
    2.7691    1.0016   -1.7865 H   0  0  0  0  0  0  0  0  0  0  0  0
    4.2837    0.7526   -0.8919 H   0  0  0  0  0  0  0  0  0  0  0  0
    2.9546    1.5503   -0.0274 H   0  0  0  0  0  0  0  0  0  0  0  0
    3.1539   -0.6999    0.7397 H   0  0  0  0  0  0  0  0  0  0  0  0
    3.2617   -1.3383   -0.9908 H   0  0  0  0  0  0  0  0  0  0  0  0
    0.9790    1.0775    0.1624 H   0  0  0  0  0  0  0  0  0  0  0  0
    1.1457   -0.0870    1.5559 H   0  0  0  0  0  0  0  0  0  0  0  0
   -0.4711   -2.2314    1.1712 H   0  0  0  0  0  0  0  0  0  0  0  0
   -1.9989   -1.9246    0.2815 H   0  0  0  0  0  0  0  0  0  0  0  0
   -1.8132   -1.3516    1.9553 H   0  0  0  0  0  0  0  0  0  0  0  0
   -0.9845    2.0194    1.1428 H   0  0  0  0  0  0  0  0  0  0  0  0
   -2.3300    0.8784    1.7094 H   0  0  0  0  0  0  0  0  0  0  0  0
   -1.1375    1.2182   -1.2091 H   0  0  0  0  0  0  0  0  0  0  0  0
   -3.5180   -0.3948    0.0146 H   0  0  0  0  0  0  0  0  0  0  0  0
   -2.8101   -0.7333   -1.6534 H   0  0  0  0  0  0  0  0  0  0  0  0
   -3.5380    0.8540   -1.2491 H   0  0  0  0  0  0  0  0  0  0  0  0
  1  2  1  0
  2  3  1  0
  3  4  1  0
  4  5  1  0
  5  6  1  0
  5  7  1  0
  7  8  1  0
  8  9  1  0
  8  5  1  0
  1 10  1  0
  1 11  1  0
  1 12  1  0
  2 13  1  0
  2 14  1  0
  4 15  1  0
  4 16  1  0
  6 17  1  0
  6 18  1  0
  6 19  1  0
  7 20  1  0
  7 21  1  0
  8 22  1  0
  9 23  1  0
  9 24  1  0
  9 25  1  0
M  END
