
     RDKit          3D

 19 19  0  0  0  0  0  0  0  0999 V2000
    2.3497    0.1873    0.1810 C   0  0  0  0  0  0  0  0  0  0  0  0
    1.7877   -0.6598   -0.9357 C   0  0  0  0  0  0  0  0  0  0  0  0
    0.4944   -1.1318   -0.6303 O   0  0  0  0  0  0  0  0  0  0  0  0
   -0.3151   -0.0500   -0.4456 C   0  0  0  0  0  0  0  0  0  0  0  0
   -1.6729   -0.1640   -1.1551 C   0  0  0  0  0  0  0  0  0  0  0  0
   -2.2167    0.6211    0.0235 C   0  0  0  0  0  0  0  0  0  0  0  0
   -1.1269   -0.0409    0.8472 C   0  0  0  0  0  0  0  0  0  0  0  0
    3.1048   -0.4408    0.7078 H   0  0  0  0  0  0  0  0  0  0  0  0
    2.8099    1.0912   -0.2519 H   0  0  0  0  0  0  0  0  0  0  0  0
    1.5482    0.5361    0.8586 H   0  0  0  0  0  0  0  0  0  0  0  0
    2.4656   -1.5357   -1.1495 H   0  0  0  0  0  0  0  0  0  0  0  0
    1.7953   -0.0581   -1.8559 H   0  0  0  0  0  0  0  0  0  0  0  0
    0.1535    0.9478   -0.5624 H   0  0  0  0  0  0  0  0  0  0  0  0
   -1.6900    0.3627   -2.1149 H   0  0  0  0  0  0  0  0  0  0  0  0
   -2.0013   -1.2147   -1.1651 H   0  0  0  0  0  0  0  0  0  0  0  0
   -3.2431    0.2860    0.2541 H   0  0  0  0  0  0  0  0  0  0  0  0
   -2.0860    1.7166   -0.1154 H   0  0  0  0  0  0  0  0  0  0  0  0
   -0.7154    0.5802    1.6530 H   0  0  0  0  0  0  0  0  0  0  0  0
   -1.4415   -1.0335    1.2009 H   0  0  0  0  0  0  0  0  0  0  0  0
  1  2  1  0
  2  3  1  0
  3  4  1  0
  4  5  1  0
  5  6  1  0
  6  7  1  0
  7  4  1  0
  1  8  1  0
  1  9  1  0
  1 10  1  0
  2 11  1  0
  2 12  1  0
  4 13  1  0
  5 14  1  0
  5 15  1  0
  6 16  1  0
  6 17  1  0
  7 18  1  0
  7 19  1  0
M  END
