
     RDKit          3D

 23 24  0  0  0  0  0  0  0  0999 V2000
    3.4679   -0.7423    0.5472 C   0  0  0  0  0  0  0  0  0  0  0  0
    2.3143    0.2274    0.6241 C   0  0  0  0  0  0  0  0  0  0  0  0
    1.3174   -0.1939   -0.2502 O   0  0  0  0  0  0  0  0  0  0  0  0
    0.2356    0.6547   -0.2236 C   0  0  0  0  0  0  0  0  0  0  0  0
   -0.4001    1.0627   -1.5612 C   0  0  0  0  0  0  0  0  0  0  0  0
   -1.1170    0.2684   -0.5667 C   0  0  0  0  0  0  0  0  0  0  0  0
   -1.6045   -1.1110   -0.7701 C   0  0  0  0  0  0  0  0  0  0  0  0
   -2.8530   -0.7211    0.0355 C   0  0  0  0  0  0  0  0  0  0  0  0
   -2.3431    0.7103    0.1426 C   0  0  0  0  0  0  0  0  0  0  0  0
    3.1530   -1.7719    0.2927 H   0  0  0  0  0  0  0  0  0  0  0  0
    4.0225   -0.7947    1.5220 H   0  0  0  0  0  0  0  0  0  0  0  0
    4.1952   -0.3939   -0.2431 H   0  0  0  0  0  0  0  0  0  0  0  0
    1.9472    0.1925    1.6821 H   0  0  0  0  0  0  0  0  0  0  0  0
    2.6855    1.2453    0.3796 H   0  0  0  0  0  0  0  0  0  0  0  0
    0.3409    1.5266    0.4867 H   0  0  0  0  0  0  0  0  0  0  0  0
   -0.6515    2.1287   -1.7124 H   0  0  0  0  0  0  0  0  0  0  0  0
   -0.0475    0.5077   -2.4697 H   0  0  0  0  0  0  0  0  0  0  0  0
   -1.0330   -1.9389   -0.3478 H   0  0  0  0  0  0  0  0  0  0  0  0
   -1.8444   -1.3205   -1.8481 H   0  0  0  0  0  0  0  0  0  0  0  0
   -3.7589   -0.7640   -0.6053 H   0  0  0  0  0  0  0  0  0  0  0  0
   -2.9202   -1.2699    0.9812 H   0  0  0  0  0  0  0  0  0  0  0  0
   -2.9791    1.4572   -0.3724 H   0  0  0  0  0  0  0  0  0  0  0  0
   -2.1272    1.0405    1.1770 H   0  0  0  0  0  0  0  0  0  0  0  0
  1  2  1  0
  2  3  1  0
  3  4  1  0
  4  5  1  0
  5  6  1  0
  6  7  1  0
  7  8  1  0
  8  9  1  0
  6  4  1  0
  9  6  1  0
  1 10  1  0
  1 11  1  0
  1 12  1  0
  2 13  1  0
  2 14  1  0
  4 15  1  0
  5 16  1  0
  5 17  1  0
  7 18  1  0
  7 19  1  0
  8 20  1  0
  8 21  1  0
  9 22  1  0
  9 23  1  0
M  END
