
     RDKit          3D

 23 23  0  0  0  0  0  0  0  0999 V2000
    2.6848    0.5232    0.1013 C   0  0  0  0  0  0  0  0  0  0  0  0
    2.1585   -0.4616   -0.9223 C   0  0  0  0  0  0  0  0  0  0  0  0
    0.8124   -0.2668   -1.0757 O   0  0  0  0  0  0  0  0  0  0  0  0
    0.0553   -0.4355    0.0529 C   0  0  0  0  0  0  0  0  0  0  0  0
   -1.0454   -1.4561   -0.1127 C   0  0  0  0  0  0  0  0  0  0  0  0
   -2.2384   -0.5856   -0.5100 C   0  0  0  0  0  0  0  0  0  0  0  0
   -2.0848    0.5740    0.4351 C   0  0  0  0  0  0  0  0  0  0  0  0
   -0.6240    0.8775    0.3673 C   0  0  0  0  0  0  0  0  0  0  0  0
   -0.1371    1.4332    1.5606 O   0  0  0  0  0  0  0  0  0  0  0  0
    3.7607    0.7200   -0.0792 H   0  0  0  0  0  0  0  0  0  0  0  0
    2.1030    1.4766   -0.0334 H   0  0  0  0  0  0  0  0  0  0  0  0
    2.5172    0.0964    1.0978 H   0  0  0  0  0  0  0  0  0  0  0  0
    2.4302   -1.4723   -0.5563 H   0  0  0  0  0  0  0  0  0  0  0  0
    2.6530   -0.2099   -1.8820 H   0  0  0  0  0  0  0  0  0  0  0  0
    0.6511   -0.7141    0.9606 H   0  0  0  0  0  0  0  0  0  0  0  0
   -0.8685   -2.1357   -0.9700 H   0  0  0  0  0  0  0  0  0  0  0  0
   -1.2767   -1.9994    0.8269 H   0  0  0  0  0  0  0  0  0  0  0  0
   -2.1544   -0.3021   -1.5665 H   0  0  0  0  0  0  0  0  0  0  0  0
   -3.1680   -1.1759   -0.3283 H   0  0  0  0  0  0  0  0  0  0  0  0
   -2.7257    1.4381    0.1836 H   0  0  0  0  0  0  0  0  0  0  0  0
   -2.3526    0.2040    1.4528 H   0  0  0  0  0  0  0  0  0  0  0  0
   -0.4564    1.6311   -0.4490 H   0  0  0  0  0  0  0  0  0  0  0  0
   -0.6941    2.2410    1.7183 H   0  0  0  0  0  0  0  0  0  0  0  0
  1  2  1  0
  2  3  1  0
  3  4  1  0
  4  5  1  0
  5  6  1  0
  6  7  1  0
  7  8  1  0
  8  9  1  0
  8  4  1  0
  1 10  1  0
  1 11  1  0
  1 12  1  0
  2 13  1  0
  2 14  1  0
  4 15  1  0
  5 16  1  0
  5 17  1  0
  6 18  1  0
  6 19  1  0
  7 20  1  0
  7 21  1  0
  8 22  1  0
  9 23  1  0
M  END
