
     RDKit          3D

 19 20  0  0  0  0  0  0  0  0999 V2000
   -2.5348    0.4081    0.0701 C   0  0  0  0  0  0  0  0  0  0  0  0
   -2.0518   -1.0261   -0.0155 C   0  0  0  0  0  0  0  0  0  0  0  0
   -0.8465   -1.1511    0.6590 O   0  0  0  0  0  0  0  0  0  0  0  0
    0.1524   -0.3543    0.1570 C   0  0  0  0  0  0  0  0  0  0  0  0
    1.0597    0.2775    1.1411 C   0  0  0  0  0  0  0  0  0  0  0  0
    2.0946    1.2147    0.5928 C   0  0  0  0  0  0  0  0  0  0  0  0
    2.6223    0.0919   -0.2296 C   0  0  0  0  0  0  0  0  0  0  0  0
    3.5976    0.0190   -0.9583 O   0  0  0  0  0  0  0  0  0  0  0  0
    1.5531   -0.8333    0.1721 C   0  0  0  0  0  0  0  0  0  0  0  0
   -2.0050    1.0558   -0.6384 H   0  0  0  0  0  0  0  0  0  0  0  0
   -3.6448    0.4559   -0.1144 H   0  0  0  0  0  0  0  0  0  0  0  0
   -2.4002    0.7290    1.1338 H   0  0  0  0  0  0  0  0  0  0  0  0
   -1.9930   -1.3759   -1.0684 H   0  0  0  0  0  0  0  0  0  0  0  0
   -2.7842   -1.6751    0.5329 H   0  0  0  0  0  0  0  0  0  0  0  0
   -0.1102    0.2963   -0.7245 H   0  0  0  0  0  0  0  0  0  0  0  0
    1.0339    0.0340    2.2106 H   0  0  0  0  0  0  0  0  0  0  0  0
    2.8077    1.6339    1.3254 H   0  0  0  0  0  0  0  0  0  0  0  0
    1.6372    1.9937   -0.0389 H   0  0  0  0  0  0  0  0  0  0  0  0
    1.8119   -1.7938    0.6798 H   0  0  0  0  0  0  0  0  0  0  0  0
  1  2  1  0
  2  3  1  0
  3  4  1  0
  4  5  1  0
  5  6  1  0
  6  7  1  0
  7  8  2  0
  7  9  1  0
  9  4  1  0
  9  5  1  0
  1 10  1  0
  1 11  1  0
  1 12  1  0
  2 13  1  0
  2 14  1  0
  4 15  1  0
  5 16  1  0
  6 17  1  0
  6 18  1  0
  9 19  1  0
M  END
