
     RDKit          3D

 21 22  0  0  0  0  0  0  0  0999 V2000
    2.6451   -0.3183   -0.1585 C   0  0  0  0  0  0  0  0  0  0  0  0
    1.5621   -0.5574   -1.1834 C   0  0  0  0  0  0  0  0  0  0  0  0
    0.3691    0.0143   -0.9767 O   0  0  0  0  0  0  0  0  0  0  0  0
   -0.3798   -0.2825    0.1292 C   0  0  0  0  0  0  0  0  0  0  0  0
    0.1485    0.0648    1.3839 C   0  0  0  0  0  0  0  0  0  0  0  0
   -0.9898    0.8684    0.9946 C   0  0  0  0  0  0  0  0  0  0  0  0
   -1.5588    1.1827   -0.3541 C   0  0  0  0  0  0  0  0  0  0  0  0
   -1.8355   -0.3380   -0.3093 C   0  0  0  0  0  0  0  0  0  0  0  0
   -2.7551   -0.7467    0.6039 O   0  0  0  0  0  0  0  0  0  0  0  0
    2.5247   -0.9323    0.7479 H   0  0  0  0  0  0  0  0  0  0  0  0
    2.7823    0.7641    0.0359 H   0  0  0  0  0  0  0  0  0  0  0  0
    3.6506   -0.6522   -0.5724 H   0  0  0  0  0  0  0  0  0  0  0  0
    1.5244   -1.6453   -1.4528 H   0  0  0  0  0  0  0  0  0  0  0  0
    1.9844   -0.1004   -2.1377 H   0  0  0  0  0  0  0  0  0  0  0  0
    1.0526    0.6700    1.6050 H   0  0  0  0  0  0  0  0  0  0  0  0
    0.0885   -0.7386    2.1847 H   0  0  0  0  0  0  0  0  0  0  0  0
   -1.8799    0.5824    1.6435 H   0  0  0  0  0  0  0  0  0  0  0  0
   -2.4363    1.8151   -0.3285 H   0  0  0  0  0  0  0  0  0  0  0  0
   -0.8861    1.4553   -1.1524 H   0  0  0  0  0  0  0  0  0  0  0  0
   -1.9880   -0.8060   -1.2727 H   0  0  0  0  0  0  0  0  0  0  0  0
   -3.6230   -0.2993    0.5700 H   0  0  0  0  0  0  0  0  0  0  0  0
  1  2  1  0
  2  3  1  0
  3  4  1  0
  4  5  1  0
  5  6  1  0
  6  7  1  0
  7  8  1  0
  8  9  1  0
  6  4  1  0
  8  4  1  0
  1 10  1  0
  1 11  1  0
  1 12  1  0
  2 13  1  0
  2 14  1  0
  5 15  1  0
  5 16  1  0
  6 17  1  0
  7 18  1  0
  7 19  1  0
  8 20  1  0
  9 21  1  0
M  END
