
     RDKit          3D

 19 20  0  0  0  0  0  0  0  0999 V2000
    2.4400   -0.2276    0.6311 C   0  0  0  0  0  0  0  0  0  0  0  0
    1.9378    0.7031   -0.4624 C   0  0  0  0  0  0  0  0  0  0  0  0
    0.6596    0.3334   -0.8289 O   0  0  0  0  0  0  0  0  0  0  0  0
   -0.2555    0.3845    0.2046 C   0  0  0  0  0  0  0  0  0  0  0  0
   -1.4289    1.2276   -0.1697 C   0  0  0  0  0  0  0  0  0  0  0  0
   -1.6272    2.3856   -0.4656 O   0  0  0  0  0  0  0  0  0  0  0  0
   -2.2940    0.0505   -0.0334 C   0  0  0  0  0  0  0  0  0  0  0  0
   -2.0308   -1.1582   -0.8408 C   0  0  0  0  0  0  0  0  0  0  0  0
   -1.1602   -0.8314    0.3167 C   0  0  0  0  0  0  0  0  0  0  0  0
    1.7259   -1.0889    0.7494 H   0  0  0  0  0  0  0  0  0  0  0  0
    3.4270   -0.6585    0.3934 H   0  0  0  0  0  0  0  0  0  0  0  0
    2.4673    0.3535    1.5673 H   0  0  0  0  0  0  0  0  0  0  0  0
    2.0548    1.7609   -0.2092 H   0  0  0  0  0  0  0  0  0  0  0  0
    2.5947    0.5121   -1.3445 H   0  0  0  0  0  0  0  0  0  0  0  0
    0.1034    0.7017    1.1835 H   0  0  0  0  0  0  0  0  0  0  0  0
   -3.1994    0.1357    0.5912 H   0  0  0  0  0  0  0  0  0  0  0  0
   -2.7200   -2.0255   -0.6635 H   0  0  0  0  0  0  0  0  0  0  0  0
   -1.5482   -1.1073   -1.8303 H   0  0  0  0  0  0  0  0  0  0  0  0
   -1.1464   -1.4513    1.2110 H   0  0  0  0  0  0  0  0  0  0  0  0
  1  2  1  0
  2  3  1  0
  3  4  1  0
  4  5  1  0
  5  6  2  0
  5  7  1  0
  7  8  1  0
  8  9  1  0
  9  4  1  0
  9  7  1  0
  1 10  1  0
  1 11  1  0
  1 12  1  0
  2 13  1  0
  2 14  1  0
  4 15  1  0
  7 16  1  0
  8 17  1  0
  8 18  1  0
  9 19  1  0
M  END
