
     RDKit          3D

 23 22  0  0  0  0  0  0  0  0999 V2000
    3.2988    1.0765    0.1998 C   0  0  0  0  0  0  0  0  0  0  0  0
    2.6046   -0.0780   -0.4921 C   0  0  0  0  0  0  0  0  0  0  0  0
    1.3432   -0.2234    0.0657 O   0  0  0  0  0  0  0  0  0  0  0  0
    0.6218   -1.2557   -0.4977 C   0  0  0  0  0  0  0  0  0  0  0  0
   -0.7289   -1.3152    0.1892 C   0  0  0  0  0  0  0  0  0  0  0  0
   -1.4010    0.0239   -0.0472 C   0  0  0  0  0  0  0  0  0  0  0  0
   -2.7679    0.0766    0.6003 C   0  0  0  0  0  0  0  0  0  0  0  0
   -3.3521    1.3996    0.3277 C   0  0  0  0  0  0  0  0  0  0  0  0
   -2.7455    2.2147   -0.3141 O   0  0  0  0  0  0  0  0  0  0  0  0
    4.3944    0.9030    0.1718 H   0  0  0  0  0  0  0  0  0  0  0  0
    2.9133    1.1088    1.2344 H   0  0  0  0  0  0  0  0  0  0  0  0
    3.0459    2.0215   -0.3427 H   0  0  0  0  0  0  0  0  0  0  0  0
    3.2534   -0.9782   -0.3251 H   0  0  0  0  0  0  0  0  0  0  0  0
    2.5569    0.1383   -1.5903 H   0  0  0  0  0  0  0  0  0  0  0  0
    1.1372   -2.2451   -0.3825 H   0  0  0  0  0  0  0  0  0  0  0  0
    0.5047   -1.0935   -1.5854 H   0  0  0  0  0  0  0  0  0  0  0  0
   -1.3350   -2.0895   -0.2991 H   0  0  0  0  0  0  0  0  0  0  0  0
   -0.5869   -1.4767    1.2664 H   0  0  0  0  0  0  0  0  0  0  0  0
   -1.5557    0.1903   -1.1296 H   0  0  0  0  0  0  0  0  0  0  0  0
   -0.7915    0.8524    0.3853 H   0  0  0  0  0  0  0  0  0  0  0  0
   -2.7105   -0.1300    1.6924 H   0  0  0  0  0  0  0  0  0  0  0  0
   -3.3729   -0.7560    0.1671 H   0  0  0  0  0  0  0  0  0  0  0  0
   -4.3262    1.6357    0.7055 H   0  0  0  0  0  0  0  0  0  0  0  0
  1  2  1  0
  2  3  1  0
  3  4  1  0
  4  5  1  0
  5  6  1  0
  6  7  1  0
  7  8  1  0
  8  9  2  0
  1 10  1  0
  1 11  1  0
  1 12  1  0
  2 13  1  0
  2 14  1  0
  4 15  1  0
  4 16  1  0
  5 17  1  0
  5 18  1  0
  6 19  1  0
  6 20  1  0
  7 21  1  0
  7 22  1  0
  8 23  1  0
M  END
