
     RDKit          3D

 19 19  0  0  0  0  0  0  0  0999 V2000
    2.8623   -0.1664    0.0700 C   0  0  0  0  0  0  0  0  0  0  0  0
    1.9319    0.3934   -0.9587 C   0  0  0  0  0  0  0  0  0  0  0  0
    0.6814    0.7077   -0.5146 O   0  0  0  0  0  0  0  0  0  0  0  0
   -0.0682   -0.2897    0.0111 C   0  0  0  0  0  0  0  0  0  0  0  0
   -1.4076    0.3108    0.4290 C   0  0  0  0  0  0  0  0  0  0  0  0
   -2.3800    0.5247   -0.6804 C   0  0  0  0  0  0  0  0  0  0  0  0
   -2.9863   -0.7420   -0.2093 C   0  0  0  0  0  0  0  0  0  0  0  0
   -3.7788   -1.5595   -0.7334 O   0  0  0  0  0  0  0  0  0  0  0  0
   -2.3061   -0.5951    0.9957 O   0  0  0  0  0  0  0  0  0  0  0  0
    2.9169    0.5575    0.9027 H   0  0  0  0  0  0  0  0  0  0  0  0
    2.6271   -1.1930    0.3845 H   0  0  0  0  0  0  0  0  0  0  0  0
    3.8781   -0.2001   -0.3791 H   0  0  0  0  0  0  0  0  0  0  0  0
    2.3977    1.3161   -1.3641 H   0  0  0  0  0  0  0  0  0  0  0  0
    1.8658   -0.3331   -1.7963 H   0  0  0  0  0  0  0  0  0  0  0  0
    0.3280   -0.7518    0.9361 H   0  0  0  0  0  0  0  0  0  0  0  0
   -0.2816   -1.0536   -0.7757 H   0  0  0  0  0  0  0  0  0  0  0  0
   -1.2727    1.2666    1.0091 H   0  0  0  0  0  0  0  0  0  0  0  0
   -1.9536    0.4227   -1.7058 H   0  0  0  0  0  0  0  0  0  0  0  0
   -3.0542    1.3847   -0.5365 H   0  0  0  0  0  0  0  0  0  0  0  0
  1  2  1  0
  2  3  1  0
  3  4  1  0
  4  5  1  0
  5  6  1  0
  6  7  1  0
  7  8  2  0
  7  9  1  0
  9  5  1  0
  1 10  1  0
  1 11  1  0
  1 12  1  0
  2 13  1  0
  2 14  1  0
  4 15  1  0
  4 16  1  0
  5 17  1  0
  6 18  1  0
  6 19  1  0
M  END
