
     RDKit          3D

 22 21  0  0  0  0  0  0  0  0999 V2000
    2.6084    1.5026   -0.3442 C   0  0  0  0  0  0  0  0  0  0  0  0
    1.5829    0.5352   -0.9003 C   0  0  0  0  0  0  0  0  0  0  0  0
    0.9756   -0.0854    0.1672 O   0  0  0  0  0  0  0  0  0  0  0  0
    0.0110   -1.0016   -0.1707 C   0  0  0  0  0  0  0  0  0  0  0  0
    0.3988   -2.3320    0.4378 C   0  0  0  0  0  0  0  0  0  0  0  0
   -1.3126   -0.5078    0.4096 C   0  0  0  0  0  0  0  0  0  0  0  0
   -1.6135    0.7435   -0.1306 O   0  0  0  0  0  0  0  0  0  0  0  0
   -2.7993    1.2530    0.3497 C   0  0  0  0  0  0  0  0  0  0  0  0
    3.5614    0.9520   -0.1464 H   0  0  0  0  0  0  0  0  0  0  0  0
    2.2011    1.8867    0.6148 H   0  0  0  0  0  0  0  0  0  0  0  0
    2.7530    2.3436   -1.0499 H   0  0  0  0  0  0  0  0  0  0  0  0
    2.0281   -0.1842   -1.6168 H   0  0  0  0  0  0  0  0  0  0  0  0
    0.8130    1.1633   -1.4325 H   0  0  0  0  0  0  0  0  0  0  0  0
   -0.1304   -1.1000   -1.2697 H   0  0  0  0  0  0  0  0  0  0  0  0
   -0.3773   -3.0906    0.3460 H   0  0  0  0  0  0  0  0  0  0  0  0
    1.3696   -2.6167   -0.0215 H   0  0  0  0  0  0  0  0  0  0  0  0
    0.6497   -2.1061    1.5162 H   0  0  0  0  0  0  0  0  0  0  0  0
   -2.1214   -1.2296    0.2369 H   0  0  0  0  0  0  0  0  0  0  0  0
   -1.2124   -0.3589    1.5098 H   0  0  0  0  0  0  0  0  0  0  0  0
   -2.7729    1.3782    1.4600 H   0  0  0  0  0  0  0  0  0  0  0  0
   -3.6675    0.6048    0.1407 H   0  0  0  0  0  0  0  0  0  0  0  0
   -2.9455    2.2498   -0.1058 H   0  0  0  0  0  0  0  0  0  0  0  0
  1  2  1  0
  2  3  1  0
  3  4  1  0
  4  5  1  0
  4  6  1  0
  6  7  1  0
  7  8  1  0
  1  9  1  0
  1 10  1  0
  1 11  1  0
  2 12  1  0
  2 13  1  0
  4 14  1  0
  5 15  1  0
  5 16  1  0
  5 17  1  0
  6 18  1  0
  6 19  1  0
  8 20  1  0
  8 21  1  0
  8 22  1  0
M  END
