
     RDKit          3D

 25 24  0  0  0  0  0  0  0  0999 V2000
    3.0550   -0.0773    0.1189 C   0  0  0  0  0  0  0  0  0  0  0  0
    2.0137    0.9484    0.4937 C   0  0  0  0  0  0  0  0  0  0  0  0
    0.8542    0.8577   -0.2291 O   0  0  0  0  0  0  0  0  0  0  0  0
    0.1783   -0.3212   -0.1367 C   0  0  0  0  0  0  0  0  0  0  0  0
    0.1646   -0.9467   -1.5180 C   0  0  0  0  0  0  0  0  0  0  0  0
   -1.2347   -0.1730    0.3898 C   0  0  0  0  0  0  0  0  0  0  0  0
   -1.8681   -1.5290    0.5172 C   0  0  0  0  0  0  0  0  0  0  0  0
   -1.9099    0.6586   -0.4907 O   0  0  0  0  0  0  0  0  0  0  0  0
   -2.3521    1.8308    0.0964 C   0  0  0  0  0  0  0  0  0  0  0  0
    2.7108   -1.0697    0.4193 H   0  0  0  0  0  0  0  0  0  0  0  0
    3.2384   -0.0606   -0.9719 H   0  0  0  0  0  0  0  0  0  0  0  0
    3.9895    0.2110    0.6505 H   0  0  0  0  0  0  0  0  0  0  0  0
    1.8843    0.9009    1.5894 H   0  0  0  0  0  0  0  0  0  0  0  0
    2.4643    1.9478    0.2793 H   0  0  0  0  0  0  0  0  0  0  0  0
    0.6742   -1.0731    0.5331 H   0  0  0  0  0  0  0  0  0  0  0  0
    1.1709   -0.7457   -1.9798 H   0  0  0  0  0  0  0  0  0  0  0  0
    0.0652   -2.0422   -1.4947 H   0  0  0  0  0  0  0  0  0  0  0  0
   -0.5728   -0.4568   -2.1893 H   0  0  0  0  0  0  0  0  0  0  0  0
   -1.1675    0.2486    1.4132 H   0  0  0  0  0  0  0  0  0  0  0  0
   -1.0475   -2.2756    0.5945 H   0  0  0  0  0  0  0  0  0  0  0  0
   -2.4338   -1.6152    1.4832 H   0  0  0  0  0  0  0  0  0  0  0  0
   -2.5729   -1.7610   -0.3046 H   0  0  0  0  0  0  0  0  0  0  0  0
   -2.8721    2.4132   -0.6900 H   0  0  0  0  0  0  0  0  0  0  0  0
   -2.9541    1.6674    1.0031 H   0  0  0  0  0  0  0  0  0  0  0  0
   -1.4780    2.4628    0.4232 H   0  0  0  0  0  0  0  0  0  0  0  0
  1  2  1  0
  2  3  1  0
  3  4  1  0
  4  5  1  0
  4  6  1  0
  6  7  1  0
  6  8  1  0
  8  9  1  0
  1 10  1  0
  1 11  1  0
  1 12  1  0
  2 13  1  0
  2 14  1  0
  4 15  1  0
  5 16  1  0
  5 17  1  0
  5 18  1  0
  6 19  1  0
  7 20  1  0
  7 21  1  0
  7 22  1  0
  9 23  1  0
  9 24  1  0
  9 25  1  0
M  END
