
     RDKit          3D

 23 23  0  0  0  0  0  0  0  0999 V2000
    3.1193    0.0010    0.5602 C   0  0  0  0  0  0  0  0  0  0  0  0
    1.8505   -0.3732   -0.2131 C   0  0  0  0  0  0  0  0  0  0  0  0
    0.7851    0.0196    0.5475 O   0  0  0  0  0  0  0  0  0  0  0  0
   -0.4503   -0.2341    0.0148 C   0  0  0  0  0  0  0  0  0  0  0  0
   -0.7310   -1.6780   -0.2468 C   0  0  0  0  0  0  0  0  0  0  0  0
   -0.8619    0.6214   -1.1582 C   0  0  0  0  0  0  0  0  0  0  0  0
   -1.4265    1.6395   -0.1760 C   0  0  0  0  0  0  0  0  0  0  0  0
   -1.5218    0.4854    0.8316 C   0  0  0  0  0  0  0  0  0  0  0  0
   -2.7524   -0.1506    0.8154 O   0  0  0  0  0  0  0  0  0  0  0  0
    3.0156    1.0874    0.7814 H   0  0  0  0  0  0  0  0  0  0  0  0
    3.0490   -0.5240    1.5262 H   0  0  0  0  0  0  0  0  0  0  0  0
    4.0277   -0.2085   -0.0025 H   0  0  0  0  0  0  0  0  0  0  0  0
    1.8670    0.0139   -1.2331 H   0  0  0  0  0  0  0  0  0  0  0  0
    1.8560   -1.4929   -0.2813 H   0  0  0  0  0  0  0  0  0  0  0  0
   -0.6916   -2.2266    0.7196 H   0  0  0  0  0  0  0  0  0  0  0  0
   -1.7300   -1.7856   -0.7468 H   0  0  0  0  0  0  0  0  0  0  0  0
    0.0135   -2.0607   -0.9494 H   0  0  0  0  0  0  0  0  0  0  0  0
   -0.0588    0.9846   -1.8064 H   0  0  0  0  0  0  0  0  0  0  0  0
   -1.7235    0.1451   -1.6837 H   0  0  0  0  0  0  0  0  0  0  0  0
   -2.4010    2.0567   -0.4312 H   0  0  0  0  0  0  0  0  0  0  0  0
   -0.6571    2.3823    0.0809 H   0  0  0  0  0  0  0  0  0  0  0  0
   -1.1742    0.8499    1.8193 H   0  0  0  0  0  0  0  0  0  0  0  0
   -3.4035    0.4473    1.2316 H   0  0  0  0  0  0  0  0  0  0  0  0
  1  2  1  0
  2  3  1  0
  3  4  1  0
  4  5  1  0
  4  6  1  0
  6  7  1  0
  7  8  1  0
  8  9  1  0
  8  4  1  0
  1 10  1  0
  1 11  1  0
  1 12  1  0
  2 13  1  0
  2 14  1  0
  5 15  1  0
  5 16  1  0
  5 17  1  0
  6 18  1  0
  6 19  1  0
  7 20  1  0
  7 21  1  0
  8 22  1  0
  9 23  1  0
M  END
