
     RDKit          3D

 19 19  0  0  0  0  0  0  0  0999 V2000
    2.9664   -0.2284    0.4973 C   0  0  0  0  0  0  0  0  0  0  0  0
    1.7672    0.2056   -0.3083 C   0  0  0  0  0  0  0  0  0  0  0  0
    0.5649   -0.2244    0.2512 O   0  0  0  0  0  0  0  0  0  0  0  0
   -0.4370    0.2479   -0.5952 C   0  0  0  0  0  0  0  0  0  0  0  0
   -1.5001    1.0013    0.1684 C   0  0  0  0  0  0  0  0  0  0  0  0
   -2.4297   -0.1145    0.5734 C   0  0  0  0  0  0  0  0  0  0  0  0
   -1.9722   -1.3157   -0.1701 C   0  0  0  0  0  0  0  0  0  0  0  0
   -2.3667   -2.4779    0.0871 O   0  0  0  0  0  0  0  0  0  0  0  0
   -1.0921   -0.8905   -1.1227 O   0  0  0  0  0  0  0  0  0  0  0  0
    3.8194    0.4307    0.1657 H   0  0  0  0  0  0  0  0  0  0  0  0
    2.7996   -0.1586    1.5942 H   0  0  0  0  0  0  0  0  0  0  0  0
    3.2765   -1.2571    0.2249 H   0  0  0  0  0  0  0  0  0  0  0  0
    1.8484   -0.3033   -1.2998 H   0  0  0  0  0  0  0  0  0  0  0  0
    1.7042    1.3079   -0.4116 H   0  0  0  0  0  0  0  0  0  0  0  0
   -0.0544    0.8186   -1.4589 H   0  0  0  0  0  0  0  0  0  0  0  0
   -1.0764    1.5354    1.0527 H   0  0  0  0  0  0  0  0  0  0  0  0
   -1.9941    1.6855   -0.5436 H   0  0  0  0  0  0  0  0  0  0  0  0
   -2.3587   -0.3577    1.6501 H   0  0  0  0  0  0  0  0  0  0  0  0
   -3.4652    0.0953    0.2393 H   0  0  0  0  0  0  0  0  0  0  0  0
  1  2  1  0
  2  3  1  0
  3  4  1  0
  4  5  1  0
  5  6  1  0
  6  7  1  0
  7  8  2  0
  7  9  1  0
  9  4  1  0
  1 10  1  0
  1 11  1  0
  1 12  1  0
  2 13  1  0
  2 14  1  0
  4 15  1  0
  5 16  1  0
  5 17  1  0
  6 18  1  0
  6 19  1  0
M  END
