
     RDKit          3D

 23 22  0  0  0  0  0  0  0  0999 V2000
    2.9230    0.1512    0.5864 C   0  0  0  0  0  0  0  0  0  0  0  0
    1.7435    0.6203    1.4209 C   0  0  0  0  0  0  0  0  0  0  0  0
    0.6634   -0.0946    1.0439 O   0  0  0  0  0  0  0  0  0  0  0  0
    0.2329   -0.0281   -0.2313 C   0  0  0  0  0  0  0  0  0  0  0  0
    0.3678   -1.3418   -1.0050 C   0  0  0  0  0  0  0  0  0  0  0  0
   -0.3383   -2.3680   -0.4410 O   0  0  0  0  0  0  0  0  0  0  0  0
   -1.1458    0.5635   -0.4102 C   0  0  0  0  0  0  0  0  0  0  0  0
   -2.1228   -0.1780    0.2746 O   0  0  0  0  0  0  0  0  0  0  0  0
   -3.3403    0.4905    0.0146 C   0  0  0  0  0  0  0  0  0  0  0  0
    3.0122   -0.9538    0.5905 H   0  0  0  0  0  0  0  0  0  0  0  0
    3.8384    0.5468    1.0745 H   0  0  0  0  0  0  0  0  0  0  0  0
    2.9160    0.5944   -0.4287 H   0  0  0  0  0  0  0  0  0  0  0  0
    2.0559    0.4994    2.4730 H   0  0  0  0  0  0  0  0  0  0  0  0
    1.6752    1.7142    1.2536 H   0  0  0  0  0  0  0  0  0  0  0  0
    0.9204    0.6719   -0.7761 H   0  0  0  0  0  0  0  0  0  0  0  0
    0.0255   -1.1979   -2.0476 H   0  0  0  0  0  0  0  0  0  0  0  0
    1.4328   -1.6403   -1.0703 H   0  0  0  0  0  0  0  0  0  0  0  0
   -1.3050   -2.3460   -0.6201 H   0  0  0  0  0  0  0  0  0  0  0  0
   -1.2254    1.5897   -0.0577 H   0  0  0  0  0  0  0  0  0  0  0  0
   -1.4653    0.5568   -1.4745 H   0  0  0  0  0  0  0  0  0  0  0  0
   -3.1902    1.5301    0.4265 H   0  0  0  0  0  0  0  0  0  0  0  0
   -3.4803    0.6418   -1.0853 H   0  0  0  0  0  0  0  0  0  0  0  0
   -4.1937   -0.0222    0.4892 H   0  0  0  0  0  0  0  0  0  0  0  0
  1  2  1  0
  2  3  1  0
  3  4  1  0
  4  5  1  0
  5  6  1  0
  4  7  1  0
  7  8  1  0
  8  9  1  0
  1 10  1  0
  1 11  1  0
  1 12  1  0
  2 13  1  0
  2 14  1  0
  4 15  1  0
  5 16  1  0
  5 17  1  0
  6 18  1  0
  7 19  1  0
  7 20  1  0
  9 21  1  0
  9 22  1  0
  9 23  1  0
M  END
