
     RDKit          3D

 23 23  0  0  0  0  0  0  0  0999 V2000
    2.7894    1.2120    0.3547 C   0  0  0  0  0  0  0  0  0  0  0  0
    1.9081    0.2163   -0.3267 C   0  0  0  0  0  0  0  0  0  0  0  0
    0.6624    0.0932    0.2702 O   0  0  0  0  0  0  0  0  0  0  0  0
   -0.0991   -0.8377   -0.4042 C   0  0  0  0  0  0  0  0  0  0  0  0
   -0.4336   -1.9404    0.6107 C   0  0  0  0  0  0  0  0  0  0  0  0
   -1.4186   -0.2890   -0.8733 C   0  0  0  0  0  0  0  0  0  0  0  0
   -2.3212    0.2205    0.2297 C   0  0  0  0  0  0  0  0  0  0  0  0
   -2.7850    1.1706   -0.7010 O   0  0  0  0  0  0  0  0  0  0  0  0
   -1.4569    1.1735   -1.1908 C   0  0  0  0  0  0  0  0  0  0  0  0
    3.8339    0.9466    0.1919 H   0  0  0  0  0  0  0  0  0  0  0  0
    2.5710    2.2686    0.0302 H   0  0  0  0  0  0  0  0  0  0  0  0
    2.5959    1.2313    1.4672 H   0  0  0  0  0  0  0  0  0  0  0  0
    2.4576   -0.7654   -0.3154 H   0  0  0  0  0  0  0  0  0  0  0  0
    1.8105    0.5403   -1.4011 H   0  0  0  0  0  0  0  0  0  0  0  0
    0.4829   -1.2402   -1.2418 H   0  0  0  0  0  0  0  0  0  0  0  0
   -1.4531   -1.7814    1.0336 H   0  0  0  0  0  0  0  0  0  0  0  0
    0.2597   -1.9453    1.4565 H   0  0  0  0  0  0  0  0  0  0  0  0
   -0.4284   -2.8995    0.0781 H   0  0  0  0  0  0  0  0  0  0  0  0
   -1.8967   -0.9061   -1.6326 H   0  0  0  0  0  0  0  0  0  0  0  0
   -3.0760   -0.4782    0.6009 H   0  0  0  0  0  0  0  0  0  0  0  0
   -1.7245    0.7563    0.9920 H   0  0  0  0  0  0  0  0  0  0  0  0
   -0.8483    1.7971   -0.4886 H   0  0  0  0  0  0  0  0  0  0  0  0
   -1.4300    1.4569   -2.2414 H   0  0  0  0  0  0  0  0  0  0  0  0
  1  2  1  0
  2  3  1  0
  3  4  1  0
  4  5  1  0
  4  6  1  0
  6  7  1  0
  7  8  1  0
  8  9  1  0
  9  6  1  0
  1 10  1  0
  1 11  1  0
  1 12  1  0
  2 13  1  0
  2 14  1  0
  4 15  1  0
  5 16  1  0
  5 17  1  0
  5 18  1  0
  6 19  1  0
  7 20  1  0
  7 21  1  0
  9 22  1  0
  9 23  1  0
M  END
