
     RDKit          3D

 23 22  0  0  0  0  0  0  0  0999 V2000
    3.1852   -0.7239    0.4602 C   0  0  0  0  0  0  0  0  0  0  0  0
    2.1315    0.2829    0.0241 C   0  0  0  0  0  0  0  0  0  0  0  0
    0.9249   -0.1465    0.5271 O   0  0  0  0  0  0  0  0  0  0  0  0
   -0.1509    0.6301    0.2410 C   0  0  0  0  0  0  0  0  0  0  0  0
   -0.8750    1.1903    1.3761 C   0  0  0  0  0  0  0  0  0  0  0  0
   -0.5999    1.0228    2.5513 O   0  0  0  0  0  0  0  0  0  0  0  0
   -1.0649   -0.1484   -0.7053 C   0  0  0  0  0  0  0  0  0  0  0  0
   -1.5400   -1.4398   -0.0804 C   0  0  0  0  0  0  0  0  0  0  0  0
   -2.2556    0.6891   -1.0985 C   0  0  0  0  0  0  0  0  0  0  0  0
    3.1291   -1.6551   -0.1694 H   0  0  0  0  0  0  0  0  0  0  0  0
    3.0343   -1.0623    1.5045 H   0  0  0  0  0  0  0  0  0  0  0  0
    4.2090   -0.3353    0.3464 H   0  0  0  0  0  0  0  0  0  0  0  0
    2.4590    1.2619    0.3718 H   0  0  0  0  0  0  0  0  0  0  0  0
    2.0741    0.2026   -1.0949 H   0  0  0  0  0  0  0  0  0  0  0  0
    0.2193    1.4996   -0.3807 H   0  0  0  0  0  0  0  0  0  0  0  0
   -1.7397    1.8153    1.1746 H   0  0  0  0  0  0  0  0  0  0  0  0
   -0.5268   -0.4099   -1.6388 H   0  0  0  0  0  0  0  0  0  0  0  0
   -0.6825   -2.0890    0.1811 H   0  0  0  0  0  0  0  0  0  0  0  0
   -2.1873   -1.2104    0.7987 H   0  0  0  0  0  0  0  0  0  0  0  0
   -2.1366   -1.9664   -0.8300 H   0  0  0  0  0  0  0  0  0  0  0  0
   -1.8986    1.6670   -1.5099 H   0  0  0  0  0  0  0  0  0  0  0  0
   -2.8282    0.1022   -1.8526 H   0  0  0  0  0  0  0  0  0  0  0  0
   -2.8803    0.8230   -0.1964 H   0  0  0  0  0  0  0  0  0  0  0  0
  1  2  1  0
  2  3  1  0
  3  4  1  0
  4  5  1  0
  5  6  2  0
  4  7  1  0
  7  8  1  0
  7  9  1  0
  1 10  1  0
  1 11  1  0
  1 12  1  0
  2 13  1  0
  2 14  1  0
  4 15  1  0
  5 16  1  0
  7 17  1  0
  8 18  1  0
  8 19  1  0
  8 20  1  0
  9 21  1  0
  9 22  1  0
  9 23  1  0
M  END
