
     RDKit          3D

 21 20  0  0  0  0  0  0  0  0999 V2000
   -0.6725    2.2442    1.6732 C   0  0  0  0  0  0  0  0  0  0  0  0
   -1.0815    2.1715    0.2305 C   0  0  0  0  0  0  0  0  0  0  0  0
   -0.5944    1.1836   -0.5375 O   0  0  0  0  0  0  0  0  0  0  0  0
   -0.9887   -0.2079    0.1363 C   0  0  0  0  0  0  0  0  0  0  0  0
   -1.8247   -0.7118   -1.0429 C   0  0  0  0  0  0  0  0  0  0  0  0
    0.1579   -0.7225   -0.0121 C   0  0  0  0  0  0  0  0  0  0  0  0
    1.4867   -1.2973   -0.1993 C   0  0  0  0  0  0  0  0  0  0  0  0
    3.0804   -1.9661   -0.4064 C   0  0  0  0  0  0  0  0  0  0  0  0
    2.9089   -2.9726   -1.1584 O   0  0  0  0  0  0  0  0  0  0  0  0
   -0.6513    1.3494    2.2852 H   0  0  0  0  0  0  0  0  0  0  0  0
   -1.4041    2.9784    2.1504 H   0  0  0  0  0  0  0  0  0  0  0  0
    0.3250    2.7532    1.8088 H   0  0  0  0  0  0  0  0  0  0  0  0
   -0.8619    3.1829   -0.2117 H   0  0  0  0  0  0  0  0  0  0  0  0
   -2.2282    2.0798    0.1847 H   0  0  0  0  0  0  0  0  0  0  0  0
   -1.2885    0.2224    1.0015 H   0  0  0  0  0  0  0  0  0  0  0  0
   -1.0210   -0.7368   -1.9476 H   0  0  0  0  0  0  0  0  0  0  0  0
   -2.2183   -1.7159   -1.1120 H   0  0  0  0  0  0  0  0  0  0  0  0
   -2.5016   -0.0065   -1.4830 H   0  0  0  0  0  0  0  0  0  0  0  0
    2.8385   -2.6060    0.7281 H   0  0  0  0  0  0  0  0  0  0  0  0
    3.5969   -1.2523    0.0808 H   0  0  0  0  0  0  0  0  0  0  0  0
    2.9422   -3.9698   -0.7387 H   0  0  0  0  0  0  0  0  0  0  0  0
  1  2  1  0
  2  3  1  0
  3  4  1  0
  4  5  1  0
  4  6  1  0
  6  7  3  0
  7  8  1  0
  8  9  1  0
  1 10  1  0
  1 11  1  0
  1 12  1  0
  2 13  1  0
  2 14  1  0
  4 15  1  0
  5 16  1  0
  5 17  1  0
  5 18  1  0
  8 19  1  0
  8 20  1  0
  9 21  1  0
M  END
