
     RDKit          3D

 23 24  0  0  0  0  0  0  0  0999 V2000
    2.9748   -0.1082   -0.3385 C   0  0  0  0  0  0  0  0  0  0  0  0
    1.9443   -1.1996   -0.4638 C   0  0  0  0  0  0  0  0  0  0  0  0
    0.7825   -0.9340    0.2467 O   0  0  0  0  0  0  0  0  0  0  0  0
    0.1494    0.2200   -0.1585 C   0  0  0  0  0  0  0  0  0  0  0  0
   -0.2388    1.1213    0.9982 C   0  0  0  0  0  0  0  0  0  0  0  0
   -1.6940    1.0463    0.5988 C   0  0  0  0  0  0  0  0  0  0  0  0
   -2.0315    1.2990   -0.8433 C   0  0  0  0  0  0  0  0  0  0  0  0
   -1.3016    0.0649   -0.4747 C   0  0  0  0  0  0  0  0  0  0  0  0
   -1.9495   -1.2812   -0.5353 C   0  0  0  0  0  0  0  0  0  0  0  0
    2.9136    0.4510    0.6043 H   0  0  0  0  0  0  0  0  0  0  0  0
    2.9377    0.5849   -1.2297 H   0  0  0  0  0  0  0  0  0  0  0  0
    3.9892   -0.5670   -0.3850 H   0  0  0  0  0  0  0  0  0  0  0  0
    2.3812   -2.1323   -0.0088 H   0  0  0  0  0  0  0  0  0  0  0  0
    1.7846   -1.4055   -1.5259 H   0  0  0  0  0  0  0  0  0  0  0  0
    0.6605    0.7654   -0.9909 H   0  0  0  0  0  0  0  0  0  0  0  0
   -0.1134    0.6303    1.9912 H   0  0  0  0  0  0  0  0  0  0  0  0
    0.2098    2.1380    0.9177 H   0  0  0  0  0  0  0  0  0  0  0  0
   -2.4641    0.8119    1.3324 H   0  0  0  0  0  0  0  0  0  0  0  0
   -1.4199    2.1134   -1.3083 H   0  0  0  0  0  0  0  0  0  0  0  0
   -3.0828    1.3190   -1.1233 H   0  0  0  0  0  0  0  0  0  0  0  0
   -2.4329   -1.5542    0.4385 H   0  0  0  0  0  0  0  0  0  0  0  0
   -2.7624   -1.2829   -1.3150 H   0  0  0  0  0  0  0  0  0  0  0  0
   -1.2368   -2.1004   -0.7676 H   0  0  0  0  0  0  0  0  0  0  0  0
  1  2  1  0
  2  3  1  0
  3  4  1  0
  4  5  1  0
  5  6  1  0
  6  7  1  0
  7  8  1  0
  8  9  1  0
  8  4  1  0
  8  6  1  0
  1 10  1  0
  1 11  1  0
  1 12  1  0
  2 13  1  0
  2 14  1  0
  4 15  1  0
  5 16  1  0
  5 17  1  0
  6 18  1  0
  7 19  1  0
  7 20  1  0
  9 21  1  0
  9 22  1  0
  9 23  1  0
M  END
