
     RDKit          3D

 19 19  0  0  0  0  0  0  0  0999 V2000
   -3.1754   -0.0884   -0.5151 C   0  0  0  0  0  0  0  0  0  0  0  0
   -1.9549   -0.1572    0.3444 C   0  0  0  0  0  0  0  0  0  0  0  0
   -0.8009    0.2799   -0.2889 O   0  0  0  0  0  0  0  0  0  0  0  0
    0.2353    0.1569    0.6268 C   0  0  0  0  0  0  0  0  0  0  0  0
    1.1810    1.3068    0.6293 C   0  0  0  0  0  0  0  0  0  0  0  0
    1.6258   -0.0777    0.2151 C   0  0  0  0  0  0  0  0  0  0  0  0
    2.0106   -0.1690   -1.1344 O   0  0  0  0  0  0  0  0  0  0  0  0
    3.1484   -0.8740   -1.5118 C   0  0  0  0  0  0  0  0  0  0  0  0
    3.8250   -1.4308   -0.5927 O   0  0  0  0  0  0  0  0  0  0  0  0
   -3.1156    0.7035   -1.3073 H   0  0  0  0  0  0  0  0  0  0  0  0
   -4.0284    0.2036    0.1336 H   0  0  0  0  0  0  0  0  0  0  0  0
   -3.4457   -1.0782   -0.9433 H   0  0  0  0  0  0  0  0  0  0  0  0
   -1.7849   -1.2329    0.5946 H   0  0  0  0  0  0  0  0  0  0  0  0
   -2.0857    0.4626    1.2469 H   0  0  0  0  0  0  0  0  0  0  0  0
   -0.0670   -0.2428    1.6139 H   0  0  0  0  0  0  0  0  0  0  0  0
    1.0835    2.0897   -0.1431 H   0  0  0  0  0  0  0  0  0  0  0  0
    1.6011    1.7022    1.5841 H   0  0  0  0  0  0  0  0  0  0  0  0
    2.2878   -0.6005    0.9306 H   0  0  0  0  0  0  0  0  0  0  0  0
    3.4600   -0.9538   -2.5567 H   0  0  0  0  0  0  0  0  0  0  0  0
  1  2  1  0
  2  3  1  0
  3  4  1  0
  4  5  1  0
  5  6  1  0
  6  7  1  0
  7  8  1  0
  8  9  2  0
  6  4  1  0
  1 10  1  0
  1 11  1  0
  1 12  1  0
  2 13  1  0
  2 14  1  0
  4 15  1  0
  5 16  1  0
  5 17  1  0
  6 18  1  0
  8 19  1  0
M  END
