
     RDKit          3D

 21 22  0  0  0  0  0  0  0  0999 V2000
    3.0958    0.7740    0.1794 C   0  0  0  0  0  0  0  0  0  0  0  0
    2.0115   -0.2486    0.2054 C   0  0  0  0  0  0  0  0  0  0  0  0
    0.8028    0.3766   -0.1251 O   0  0  0  0  0  0  0  0  0  0  0  0
   -0.2412   -0.5217   -0.1179 C   0  0  0  0  0  0  0  0  0  0  0  0
   -1.1133   -0.4312   -1.3611 C   0  0  0  0  0  0  0  0  0  0  0  0
   -2.2527    0.1237   -0.5736 C   0  0  0  0  0  0  0  0  0  0  0  0
   -2.0296    1.1958    0.4051 C   0  0  0  0  0  0  0  0  0  0  0  0
   -1.4309   -0.1086    0.6904 C   0  0  0  0  0  0  0  0  0  0  0  0
   -1.9796   -1.0058    1.5936 O   0  0  0  0  0  0  0  0  0  0  0  0
    3.4498    1.0811    1.1845 H   0  0  0  0  0  0  0  0  0  0  0  0
    4.0039    0.3439   -0.3333 H   0  0  0  0  0  0  0  0  0  0  0  0
    2.8222    1.6817   -0.4213 H   0  0  0  0  0  0  0  0  0  0  0  0
    2.1658   -1.0917   -0.5045 H   0  0  0  0  0  0  0  0  0  0  0  0
    1.9358   -0.6762    1.2434 H   0  0  0  0  0  0  0  0  0  0  0  0
    0.0962   -1.5357    0.1451 H   0  0  0  0  0  0  0  0  0  0  0  0
   -1.2566   -1.4494   -1.7804 H   0  0  0  0  0  0  0  0  0  0  0  0
   -0.7122    0.2975   -2.0706 H   0  0  0  0  0  0  0  0  0  0  0  0
   -3.2276   -0.3815   -0.6748 H   0  0  0  0  0  0  0  0  0  0  0  0
   -2.9067    1.4768    1.0481 H   0  0  0  0  0  0  0  0  0  0  0  0
   -1.3564    2.0179    0.0898 H   0  0  0  0  0  0  0  0  0  0  0  0
   -1.8771   -1.9185    1.1776 H   0  0  0  0  0  0  0  0  0  0  0  0
  1  2  1  0
  2  3  1  0
  3  4  1  0
  4  5  1  0
  5  6  1  0
  6  7  1  0
  7  8  1  0
  8  9  1  0
  8  4  1  0
  8  6  1  0
  1 10  1  0
  1 11  1  0
  1 12  1  0
  2 13  1  0
  2 14  1  0
  4 15  1  0
  5 16  1  0
  5 17  1  0
  6 18  1  0
  7 19  1  0
  7 20  1  0
  9 21  1  0
M  END
