
     RDKit          3D

 21 20  0  0  0  0  0  0  0  0999 V2000
    3.0699   -0.5632    0.6047 C   0  0  0  0  0  0  0  0  0  0  0  0
    1.6660   -0.0119    0.4804 C   0  0  0  0  0  0  0  0  0  0  0  0
    1.3917    0.3443   -0.8236 O   0  0  0  0  0  0  0  0  0  0  0  0
    0.1312    0.8522   -0.9795 C   0  0  0  0  0  0  0  0  0  0  0  0
   -0.9941   -0.0714   -0.6137 C   0  0  0  0  0  0  0  0  0  0  0  0
   -1.0035   -1.3149   -1.4032 C   0  0  0  0  0  0  0  0  0  0  0  0
   -0.0876   -2.1187   -1.4015 O   0  0  0  0  0  0  0  0  0  0  0  0
   -2.1885    0.6303   -0.8376 O   0  0  0  0  0  0  0  0  0  0  0  0
   -2.8870    0.8113    0.3310 C   0  0  0  0  0  0  0  0  0  0  0  0
    3.2507   -0.9449    1.6239 H   0  0  0  0  0  0  0  0  0  0  0  0
    3.8475    0.1768    0.3539 H   0  0  0  0  0  0  0  0  0  0  0  0
    3.2075   -1.4361   -0.0862 H   0  0  0  0  0  0  0  0  0  0  0  0
    0.9810   -0.8288    0.7666 H   0  0  0  0  0  0  0  0  0  0  0  0
    1.5590    0.8166    1.2027 H   0  0  0  0  0  0  0  0  0  0  0  0
    0.0442    1.7477   -0.3099 H   0  0  0  0  0  0  0  0  0  0  0  0
    0.0449    1.2468   -2.0128 H   0  0  0  0  0  0  0  0  0  0  0  0
   -0.9486   -0.2869    0.4640 H   0  0  0  0  0  0  0  0  0  0  0  0
   -1.8664   -1.5322   -2.0196 H   0  0  0  0  0  0  0  0  0  0  0  0
   -3.1390   -0.1928    0.7777 H   0  0  0  0  0  0  0  0  0  0  0  0
   -3.8409    1.3125    0.1608 H   0  0  0  0  0  0  0  0  0  0  0  0
   -2.2381    1.3633    1.0574 H   0  0  0  0  0  0  0  0  0  0  0  0
  1  2  1  0
  2  3  1  0
  3  4  1  0
  4  5  1  0
  5  6  1  0
  6  7  2  0
  5  8  1  0
  8  9  1  0
  1 10  1  0
  1 11  1  0
  1 12  1  0
  2 13  1  0
  2 14  1  0
  4 15  1  0
  4 16  1  0
  5 17  1  0
  6 18  1  0
  9 19  1  0
  9 20  1  0
  9 21  1  0
M  END
