
     RDKit          3D

 25 24  0  0  0  0  0  0  0  0999 V2000
    3.1866    0.3021    0.7487 C   0  0  0  0  0  0  0  0  0  0  0  0
    2.0529    0.3716   -0.2183 C   0  0  0  0  0  0  0  0  0  0  0  0
    0.9777   -0.4304    0.1565 O   0  0  0  0  0  0  0  0  0  0  0  0
   -0.0542   -0.3370   -0.7684 C   0  0  0  0  0  0  0  0  0  0  0  0
   -0.2382   -1.6694   -1.4033 C   0  0  0  0  0  0  0  0  0  0  0  0
   -1.3164    0.2247   -0.1630 C   0  0  0  0  0  0  0  0  0  0  0  0
   -1.1031    1.6137    0.3933 C   0  0  0  0  0  0  0  0  0  0  0  0
   -1.9611   -0.7058    0.8143 C   0  0  0  0  0  0  0  0  0  0  0  0
   -3.1128   -0.0688    1.2985 O   0  0  0  0  0  0  0  0  0  0  0  0
    4.1367    0.4303    0.1623 H   0  0  0  0  0  0  0  0  0  0  0  0
    3.2747   -0.6401    1.2964 H   0  0  0  0  0  0  0  0  0  0  0  0
    3.1610    1.1886    1.4354 H   0  0  0  0  0  0  0  0  0  0  0  0
    1.7511    1.4297   -0.3212 H   0  0  0  0  0  0  0  0  0  0  0  0
    2.4112    0.0156   -1.2291 H   0  0  0  0  0  0  0  0  0  0  0  0
    0.2720    0.3721   -1.5753 H   0  0  0  0  0  0  0  0  0  0  0  0
   -0.7599   -2.4081   -0.7690 H   0  0  0  0  0  0  0  0  0  0  0  0
   -0.8111   -1.5433   -2.3534 H   0  0  0  0  0  0  0  0  0  0  0  0
    0.7601   -2.0465   -1.7057 H   0  0  0  0  0  0  0  0  0  0  0  0
   -2.0423    0.3451   -1.0148 H   0  0  0  0  0  0  0  0  0  0  0  0
   -0.5260    2.1868   -0.3606 H   0  0  0  0  0  0  0  0  0  0  0  0
   -2.0937    2.1310    0.4642 H   0  0  0  0  0  0  0  0  0  0  0  0
   -0.5864    1.6099    1.3746 H   0  0  0  0  0  0  0  0  0  0  0  0
   -1.3289   -1.0098    1.6457 H   0  0  0  0  0  0  0  0  0  0  0  0
   -2.3472   -1.5842    0.2192 H   0  0  0  0  0  0  0  0  0  0  0  0
   -3.7029    0.2221    0.5719 H   0  0  0  0  0  0  0  0  0  0  0  0
  1  2  1  0
  2  3  1  0
  3  4  1  0
  4  5  1  0
  4  6  1  0
  6  7  1  0
  6  8  1  0
  8  9  1  0
  1 10  1  0
  1 11  1  0
  1 12  1  0
  2 13  1  0
  2 14  1  0
  4 15  1  0
  5 16  1  0
  5 17  1  0
  5 18  1  0
  6 19  1  0
  7 20  1  0
  7 21  1  0
  7 22  1  0
  8 23  1  0
  8 24  1  0
  9 25  1  0
M  END
