
     RDKit          3D

 23 23  0  0  0  0  0  0  0  0999 V2000
    3.5118    0.2474   -0.6864 C   0  0  0  0  0  0  0  0  0  0  0  0
    2.4181   -0.3725    0.1433 C   0  0  0  0  0  0  0  0  0  0  0  0
    1.1831    0.1176   -0.2839 O   0  0  0  0  0  0  0  0  0  0  0  0
    0.1416   -0.4302    0.4574 C   0  0  0  0  0  0  0  0  0  0  0  0
   -0.7526    0.6787    0.9657 C   0  0  0  0  0  0  0  0  0  0  0  0
   -1.9100   -0.0031    0.2757 C   0  0  0  0  0  0  0  0  0  0  0  0
   -2.6693    0.9797   -0.5720 C   0  0  0  0  0  0  0  0  0  0  0  0
   -2.7474   -0.7127    1.1467 O   0  0  0  0  0  0  0  0  0  0  0  0
   -0.9759   -0.9148   -0.4373 C   0  0  0  0  0  0  0  0  0  0  0  0
    3.0715    1.0068   -1.3973 H   0  0  0  0  0  0  0  0  0  0  0  0
    4.0128   -0.5175   -1.3019 H   0  0  0  0  0  0  0  0  0  0  0  0
    4.2288    0.7759   -0.0255 H   0  0  0  0  0  0  0  0  0  0  0  0
    2.5998   -0.1623    1.2199 H   0  0  0  0  0  0  0  0  0  0  0  0
    2.4080   -1.4609   -0.0515 H   0  0  0  0  0  0  0  0  0  0  0  0
    0.4643   -1.1462    1.2431 H   0  0  0  0  0  0  0  0  0  0  0  0
   -0.9245    0.6790    2.0572 H   0  0  0  0  0  0  0  0  0  0  0  0
   -0.5232    1.6883    0.5535 H   0  0  0  0  0  0  0  0  0  0  0  0
   -3.5489    0.5664   -1.0630 H   0  0  0  0  0  0  0  0  0  0  0  0
   -2.9912    1.8123    0.0956 H   0  0  0  0  0  0  0  0  0  0  0  0
   -1.9860    1.4272   -1.3180 H   0  0  0  0  0  0  0  0  0  0  0  0
   -3.0580   -1.5068    0.6196 H   0  0  0  0  0  0  0  0  0  0  0  0
   -1.1215   -2.0177   -0.2491 H   0  0  0  0  0  0  0  0  0  0  0  0
   -0.8312   -0.7348   -1.5167 H   0  0  0  0  0  0  0  0  0  0  0  0
  1  2  1  0
  2  3  1  0
  3  4  1  0
  4  5  1  0
  5  6  1  0
  6  7  1  0
  6  8  1  0
  6  9  1  0
  9  4  1  0
  1 10  1  0
  1 11  1  0
  1 12  1  0
  2 13  1  0
  2 14  1  0
  4 15  1  0
  5 16  1  0
  5 17  1  0
  7 18  1  0
  7 19  1  0
  7 20  1  0
  8 21  1  0
  9 22  1  0
  9 23  1  0
M  END
