
     RDKit          3D

 23 22  0  0  0  0  0  0  0  0999 V2000
    3.0779    0.5475   -0.0642 C   0  0  0  0  0  0  0  0  0  0  0  0
    2.1694    0.6058    1.1282 C   0  0  0  0  0  0  0  0  0  0  0  0
    0.8493    0.8539    0.8138 O   0  0  0  0  0  0  0  0  0  0  0  0
    0.3719   -0.1463   -0.0124 C   0  0  0  0  0  0  0  0  0  0  0  0
   -1.0631    0.0457   -0.4048 C   0  0  0  0  0  0  0  0  0  0  0  0
   -1.9891    0.0749    0.7795 C   0  0  0  0  0  0  0  0  0  0  0  0
   -1.7076    1.0923    1.6741 O   0  0  0  0  0  0  0  0  0  0  0  0
   -1.4799   -1.1338   -1.2628 C   0  0  0  0  0  0  0  0  0  0  0  0
   -2.8186   -0.9858   -1.6477 O   0  0  0  0  0  0  0  0  0  0  0  0
    4.0355    1.1190    0.1101 H   0  0  0  0  0  0  0  0  0  0  0  0
    3.3890   -0.5047   -0.2996 H   0  0  0  0  0  0  0  0  0  0  0  0
    2.6453    0.9792   -0.9818 H   0  0  0  0  0  0  0  0  0  0  0  0
    2.2065   -0.3961    1.6232 H   0  0  0  0  0  0  0  0  0  0  0  0
    2.5907    1.3302    1.8409 H   0  0  0  0  0  0  0  0  0  0  0  0
    0.4470   -1.1102    0.5276 H   0  0  0  0  0  0  0  0  0  0  0  0
    0.9729   -0.1879   -0.9313 H   0  0  0  0  0  0  0  0  0  0  0  0
   -1.2186    0.9571   -1.0259 H   0  0  0  0  0  0  0  0  0  0  0  0
   -3.0190    0.2525    0.3887 H   0  0  0  0  0  0  0  0  0  0  0  0
   -2.0179   -0.9098    1.2770 H   0  0  0  0  0  0  0  0  0  0  0  0
   -2.2251    0.9118    2.4995 H   0  0  0  0  0  0  0  0  0  0  0  0
   -1.4371   -2.0910   -0.6859 H   0  0  0  0  0  0  0  0  0  0  0  0
   -0.8352   -1.2663   -2.1406 H   0  0  0  0  0  0  0  0  0  0  0  0
   -2.9441   -0.0380   -1.9260 H   0  0  0  0  0  0  0  0  0  0  0  0
  1  2  1  0
  2  3  1  0
  3  4  1  0
  4  5  1  0
  5  6  1  0
  6  7  1  0
  5  8  1  0
  8  9  1  0
  1 10  1  0
  1 11  1  0
  1 12  1  0
  2 13  1  0
  2 14  1  0
  4 15  1  0
  4 16  1  0
  5 17  1  0
  6 18  1  0
  6 19  1  0
  7 20  1  0
  8 21  1  0
  8 22  1  0
  9 23  1  0
M  END
