
     RDKit          3D

 25 25  0  0  0  0  0  0  0  0999 V2000
    2.5602    0.9324    0.1368 C   0  0  0  0  0  0  0  0  0  0  0  0
    2.3795   -0.3252   -0.6851 C   0  0  0  0  0  0  0  0  0  0  0  0
    1.0868   -0.4087   -1.1433 O   0  0  0  0  0  0  0  0  0  0  0  0
    0.1432   -0.4522   -0.1382 C   0  0  0  0  0  0  0  0  0  0  0  0
   -0.5967   -1.7912   -0.3014 C   0  0  0  0  0  0  0  0  0  0  0  0
   -2.0033   -1.5356    0.1693 C   0  0  0  0  0  0  0  0  0  0  0  0
   -2.1158   -0.0783    0.4725 C   0  0  0  0  0  0  0  0  0  0  0  0
   -0.9725    0.5176   -0.3479 C   0  0  0  0  0  0  0  0  0  0  0  0
   -0.7216    1.8920    0.1953 C   0  0  0  0  0  0  0  0  0  0  0  0
    2.1141    1.7987   -0.3831 H   0  0  0  0  0  0  0  0  0  0  0  0
    3.6547    1.1602    0.2859 H   0  0  0  0  0  0  0  0  0  0  0  0
    2.1313    0.8698    1.1397 H   0  0  0  0  0  0  0  0  0  0  0  0
    2.6373   -1.1933   -0.0086 H   0  0  0  0  0  0  0  0  0  0  0  0
    3.1179   -0.2840   -1.5047 H   0  0  0  0  0  0  0  0  0  0  0  0
    0.5709   -0.4103    0.8822 H   0  0  0  0  0  0  0  0  0  0  0  0
   -0.0878   -2.6066    0.2066 H   0  0  0  0  0  0  0  0  0  0  0  0
   -0.6372   -2.0392   -1.3868 H   0  0  0  0  0  0  0  0  0  0  0  0
   -2.7725   -1.8077   -0.5592 H   0  0  0  0  0  0  0  0  0  0  0  0
   -2.1835   -2.0850    1.1384 H   0  0  0  0  0  0  0  0  0  0  0  0
   -3.0399    0.3923    0.1153 H   0  0  0  0  0  0  0  0  0  0  0  0
   -1.9539    0.1571    1.5591 H   0  0  0  0  0  0  0  0  0  0  0  0
   -1.2620    0.4996   -1.3984 H   0  0  0  0  0  0  0  0  0  0  0  0
   -1.6792    2.3678    0.5429 H   0  0  0  0  0  0  0  0  0  0  0  0
   -0.3408    2.5225   -0.6511 H   0  0  0  0  0  0  0  0  0  0  0  0
   -0.0292    1.9075    1.0507 H   0  0  0  0  0  0  0  0  0  0  0  0
  1  2  1  0
  2  3  1  0
  3  4  1  0
  4  5  1  0
  5  6  1  0
  6  7  1  0
  7  8  1  0
  8  9  1  0
  8  4  1  0
  1 10  1  0
  1 11  1  0
  1 12  1  0
  2 13  1  0
  2 14  1  0
  4 15  1  0
  5 16  1  0
  5 17  1  0
  6 18  1  0
  6 19  1  0
  7 20  1  0
  7 21  1  0
  8 22  1  0
  9 23  1  0
  9 24  1  0
  9 25  1  0
M  END
