
     RDKit          3D

 20 21  0  0  0  0  0  0  0  0999 V2000
    2.3160    0.3240    0.0342 C   0  0  0  0  0  0  0  0  0  0  0  0
    1.6970   -0.9844   -0.4094 C   0  0  0  0  0  0  0  0  0  0  0  0
    0.4738   -0.7743   -0.9638 O   0  0  0  0  0  0  0  0  0  0  0  0
   -0.4870   -0.2523   -0.3620 C   0  0  0  0  0  0  0  0  0  0  0  0
   -1.8635    0.0104   -0.9074 C   0  0  0  0  0  0  0  0  0  0  0  0
   -1.9307    0.5464    0.5014 C   0  0  0  0  0  0  0  0  0  0  0  0
   -0.5758    1.1357    0.2357 C   0  0  0  0  0  0  0  0  0  0  0  0
   -1.1981   -0.7136    0.8775 C   0  0  0  0  0  0  0  0  0  0  0  0
    1.8604    1.2016   -0.4653 H   0  0  0  0  0  0  0  0  0  0  0  0
    2.2503    0.3913    1.1316 H   0  0  0  0  0  0  0  0  0  0  0  0
    3.4124    0.3558   -0.2109 H   0  0  0  0  0  0  0  0  0  0  0  0
    1.7049   -1.6813    0.4502 H   0  0  0  0  0  0  0  0  0  0  0  0
    2.4107   -1.4172   -1.1665 H   0  0  0  0  0  0  0  0  0  0  0  0
   -1.8301    0.7810   -1.7017 H   0  0  0  0  0  0  0  0  0  0  0  0
   -2.4988   -0.8566   -1.0950 H   0  0  0  0  0  0  0  0  0  0  0  0
   -2.7123    0.9630    0.9582 H   0  0  0  0  0  0  0  0  0  0  0  0
    0.0501    1.3424    1.1025 H   0  0  0  0  0  0  0  0  0  0  0  0
   -0.6064    1.8887   -0.5615 H   0  0  0  0  0  0  0  0  0  0  0  0
   -1.8093   -1.6167    0.7326 H   0  0  0  0  0  0  0  0  0  0  0  0
   -0.6636   -0.6437    1.8197 H   0  0  0  0  0  0  0  0  0  0  0  0
  1  2  1  0
  2  3  1  0
  3  4  1  0
  4  5  1  0
  5  6  1  0
  6  7  1  0
  6  8  1  0
  7  4  1  0
  8  4  1  0
  1  9  1  0
  1 10  1  0
  1 11  1  0
  2 12  1  0
  2 13  1  0
  5 14  1  0
  5 15  1  0
  6 16  1  0
  7 17  1  0
  7 18  1  0
  8 19  1  0
  8 20  1  0
M  END
