
     RDKit          3D

 25 25  0  0  0  0  0  0  0  0999 V2000
    2.6711   -0.7759    1.2076 C   0  0  0  0  0  0  0  0  0  0  0  0
    2.9425   -0.4749   -0.2371 C   0  0  0  0  0  0  0  0  0  0  0  0
    1.8181   -0.5540   -1.0400 O   0  0  0  0  0  0  0  0  0  0  0  0
    0.8140    0.3163   -0.6795 C   0  0  0  0  0  0  0  0  0  0  0  0
   -0.1319    0.8946   -1.6557 C   0  0  0  0  0  0  0  0  0  0  0  0
   -0.5843   -0.2312   -0.8329 C   0  0  0  0  0  0  0  0  0  0  0  0
   -1.5540   -0.0603    0.3120 C   0  0  0  0  0  0  0  0  0  0  0  0
   -1.8113    1.3656    0.6706 C   0  0  0  0  0  0  0  0  0  0  0  0
   -2.8204   -0.8445    0.0850 C   0  0  0  0  0  0  0  0  0  0  0  0
    3.3079   -0.1034    1.8163 H   0  0  0  0  0  0  0  0  0  0  0  0
    2.9228   -1.8189    1.4860 H   0  0  0  0  0  0  0  0  0  0  0  0
    1.5836   -0.6318    1.4124 H   0  0  0  0  0  0  0  0  0  0  0  0
    3.6479   -1.2654   -0.6037 H   0  0  0  0  0  0  0  0  0  0  0  0
    3.4889    0.4839   -0.3593 H   0  0  0  0  0  0  0  0  0  0  0  0
    1.0606    0.9466    0.1985 H   0  0  0  0  0  0  0  0  0  0  0  0
   -0.5220    1.9132   -1.4576 H   0  0  0  0  0  0  0  0  0  0  0  0
    0.0327    0.7373   -2.7616 H   0  0  0  0  0  0  0  0  0  0  0  0
   -0.7081   -1.2094   -1.3456 H   0  0  0  0  0  0  0  0  0  0  0  0
   -1.0545   -0.5346    1.2069 H   0  0  0  0  0  0  0  0  0  0  0  0
   -2.6724    1.3794    1.3792 H   0  0  0  0  0  0  0  0  0  0  0  0
   -0.9450    1.7666    1.2349 H   0  0  0  0  0  0  0  0  0  0  0  0
   -2.1115    1.9981   -0.1825 H   0  0  0  0  0  0  0  0  0  0  0  0
   -3.1666   -1.3126    1.0372 H   0  0  0  0  0  0  0  0  0  0  0  0
   -3.6263   -0.1941   -0.2781 H   0  0  0  0  0  0  0  0  0  0  0  0
   -2.5819   -1.6603   -0.6128 H   0  0  0  0  0  0  0  0  0  0  0  0
  1  2  1  0
  2  3  1  0
  3  4  1  0
  4  5  1  0
  5  6  1  0
  6  7  1  0
  7  8  1  0
  7  9  1  0
  6  4  1  0
  1 10  1  0
  1 11  1  0
  1 12  1  0
  2 13  1  0
  2 14  1  0
  4 15  1  0
  5 16  1  0
  5 17  1  0
  6 18  1  0
  7 19  1  0
  8 20  1  0
  8 21  1  0
  8 22  1  0
  9 23  1  0
  9 24  1  0
  9 25  1  0
M  END
