
     RDKit          3D

 25 24  0  0  0  0  0  0  0  0999 V2000
    3.3922   -1.2896   -0.4536 C   0  0  0  0  0  0  0  0  0  0  0  0
    2.8077   -0.0321    0.1638 C   0  0  0  0  0  0  0  0  0  0  0  0
    1.4164   -0.2431    0.2308 O   0  0  0  0  0  0  0  0  0  0  0  0
    0.8387    0.8987    0.7967 C   0  0  0  0  0  0  0  0  0  0  0  0
   -0.6563    0.6920    0.8774 C   0  0  0  0  0  0  0  0  0  0  0  0
   -1.1747    0.4724   -0.5281 C   0  0  0  0  0  0  0  0  0  0  0  0
   -0.8929    1.5802   -1.3235 O   0  0  0  0  0  0  0  0  0  0  0  0
   -2.6659    0.2030   -0.5102 C   0  0  0  0  0  0  0  0  0  0  0  0
   -2.8987   -1.0375    0.3213 C   0  0  0  0  0  0  0  0  0  0  0  0
    2.7424   -1.5338   -1.3245 H   0  0  0  0  0  0  0  0  0  0  0  0
    3.2358   -2.1006    0.3040 H   0  0  0  0  0  0  0  0  0  0  0  0
    4.4543   -1.1729   -0.7237 H   0  0  0  0  0  0  0  0  0  0  0  0
    3.2375    0.1855    1.1568 H   0  0  0  0  0  0  0  0  0  0  0  0
    3.0331    0.8159   -0.5182 H   0  0  0  0  0  0  0  0  0  0  0  0
    1.0368    1.7258    0.0722 H   0  0  0  0  0  0  0  0  0  0  0  0
    1.2588    1.1677    1.7637 H   0  0  0  0  0  0  0  0  0  0  0  0
   -0.9332   -0.1297    1.5343 H   0  0  0  0  0  0  0  0  0  0  0  0
   -1.1130    1.6407    1.2711 H   0  0  0  0  0  0  0  0  0  0  0  0
   -0.6237   -0.3766   -0.9478 H   0  0  0  0  0  0  0  0  0  0  0  0
   -1.3945    1.4509   -2.1672 H   0  0  0  0  0  0  0  0  0  0  0  0
   -3.1987    1.0830   -0.1024 H   0  0  0  0  0  0  0  0  0  0  0  0
   -3.0119    0.0221   -1.5373 H   0  0  0  0  0  0  0  0  0  0  0  0
   -3.8897   -1.5043    0.1165 H   0  0  0  0  0  0  0  0  0  0  0  0
   -2.1063   -1.7759    0.1513 H   0  0  0  0  0  0  0  0  0  0  0  0
   -2.8943   -0.7419    1.3767 H   0  0  0  0  0  0  0  0  0  0  0  0
  1  2  1  0
  2  3  1  0
  3  4  1  0
  4  5  1  0
  5  6  1  0
  6  7  1  0
  6  8  1  0
  8  9  1  0
  1 10  1  0
  1 11  1  0
  1 12  1  0
  2 13  1  0
  2 14  1  0
  4 15  1  0
  4 16  1  0
  5 17  1  0
  5 18  1  0
  6 19  1  0
  7 20  1  0
  8 21  1  0
  8 22  1  0
  9 23  1  0
  9 24  1  0
  9 25  1  0
M  END
