
     RDKit          3D

 16 16  0  0  0  0  0  0  0  0999 V2000
    2.2930    0.3337   -0.6008 C   0  0  0  0  0  0  0  0  0  0  0  0
    1.6307    0.2603    0.7309 C   0  0  0  0  0  0  0  0  0  0  0  0
    0.2175    0.2588    0.6673 O   0  0  0  0  0  0  0  0  0  0  0  0
   -0.4627   -0.7377   -0.0122 C   0  0  0  0  0  0  0  0  0  0  0  0
    0.2362   -1.6264   -0.5603 O   0  0  0  0  0  0  0  0  0  0  0  0
   -1.9605   -0.7546   -0.0897 C   0  0  0  0  0  0  0  0  0  0  0  0
   -2.6223    0.5294   -0.0581 C   0  0  0  0  0  0  0  0  0  0  0  0
   -2.5993   -0.4006    1.0946 O   0  0  0  0  0  0  0  0  0  0  0  0
    1.5987    0.4379   -1.4564 H   0  0  0  0  0  0  0  0  0  0  0  0
    2.8809   -0.6025   -0.7953 H   0  0  0  0  0  0  0  0  0  0  0  0
    3.0051    1.2036   -0.6814 H   0  0  0  0  0  0  0  0  0  0  0  0
    1.9010    1.1966    1.2908 H   0  0  0  0  0  0  0  0  0  0  0  0
    1.9920   -0.5958    1.3629 H   0  0  0  0  0  0  0  0  0  0  0  0
   -2.3981   -1.5802   -0.6471 H   0  0  0  0  0  0  0  0  0  0  0  0
   -2.0143    1.4398    0.1085 H   0  0  0  0  0  0  0  0  0  0  0  0
   -3.6978    0.6377   -0.3539 H   0  0  0  0  0  0  0  0  0  0  0  0
  1  2  1  0
  2  3  1  0
  3  4  1  0
  4  5  2  0
  4  6  1  0
  6  7  1  0
  7  8  1  0
  8  6  1  0
  1  9  1  0
  1 10  1  0
  1 11  1  0
  2 12  1  0
  2 13  1  0
  6 14  1  0
  7 15  1  0
  7 16  1  0
M  END
