
     RDKit          3D

 23 23  0  0  0  0  0  0  0  0999 V2000
    2.5636   -0.9529   -0.4782 C   0  0  0  0  0  0  0  0  0  0  0  0
    2.3524    0.4843    0.0074 C   0  0  0  0  0  0  0  0  0  0  0  0
    1.1707    1.0209   -0.4411 O   0  0  0  0  0  0  0  0  0  0  0  0
    0.0461    0.3330   -0.0402 C   0  0  0  0  0  0  0  0  0  0  0  0
   -0.8843    1.1254    0.8192 C   0  0  0  0  0  0  0  0  0  0  0  0
   -1.8057    0.1231    1.5066 C   0  0  0  0  0  0  0  0  0  0  0  0
   -2.1951   -0.8875    0.6309 O   0  0  0  0  0  0  0  0  0  0  0  0
   -2.1659   -0.4469   -0.6994 C   0  0  0  0  0  0  0  0  0  0  0  0
   -0.7362   -0.2576   -1.1774 C   0  0  0  0  0  0  0  0  0  0  0  0
    2.0667   -1.6860    0.1710 H   0  0  0  0  0  0  0  0  0  0  0  0
    3.6549   -1.1340   -0.4287 H   0  0  0  0  0  0  0  0  0  0  0  0
    2.1541   -1.0769   -1.4933 H   0  0  0  0  0  0  0  0  0  0  0  0
    3.1805    1.0711   -0.4559 H   0  0  0  0  0  0  0  0  0  0  0  0
    2.4481    0.5545    1.0973 H   0  0  0  0  0  0  0  0  0  0  0  0
    0.4057   -0.5371    0.5844 H   0  0  0  0  0  0  0  0  0  0  0  0
   -1.4863    1.7965    0.1807 H   0  0  0  0  0  0  0  0  0  0  0  0
   -0.3724    1.6739    1.6351 H   0  0  0  0  0  0  0  0  0  0  0  0
   -2.6639    0.7033    1.8820 H   0  0  0  0  0  0  0  0  0  0  0  0
   -1.2373   -0.3904    2.3274 H   0  0  0  0  0  0  0  0  0  0  0  0
   -2.6589   -1.2600   -1.2947 H   0  0  0  0  0  0  0  0  0  0  0  0
   -2.7485    0.4810   -0.7464 H   0  0  0  0  0  0  0  0  0  0  0  0
   -0.7852    0.4595   -2.0276 H   0  0  0  0  0  0  0  0  0  0  0  0
   -0.3031   -1.1973   -1.5588 H   0  0  0  0  0  0  0  0  0  0  0  0
  1  2  1  0
  2  3  1  0
  3  4  1  0
  4  5  1  0
  5  6  1  0
  6  7  1  0
  7  8  1  0
  8  9  1  0
  9  4  1  0
  1 10  1  0
  1 11  1  0
  1 12  1  0
  2 13  1  0
  2 14  1  0
  4 15  1  0
  5 16  1  0
  5 17  1  0
  6 18  1  0
  6 19  1  0
  8 20  1  0
  8 21  1  0
  9 22  1  0
  9 23  1  0
M  END
