
     RDKit          3D

 21 22  0  0  0  0  0  0  0  0999 V2000
   -3.0971    0.1721   -0.6051 C   0  0  0  0  0  0  0  0  0  0  0  0
   -1.8626   -0.6312   -0.2492 C   0  0  0  0  0  0  0  0  0  0  0  0
   -0.9386    0.2133    0.2813 O   0  0  0  0  0  0  0  0  0  0  0  0
    0.2512   -0.3613    0.6607 C   0  0  0  0  0  0  0  0  0  0  0  0
    0.8636    0.1408    1.9421 C   0  0  0  0  0  0  0  0  0  0  0  0
    1.3955    1.2171    1.2283 O   0  0  0  0  0  0  0  0  0  0  0  0
    1.3883    0.4174    0.1325 C   0  0  0  0  0  0  0  0  0  0  0  0
    1.6438    0.7665   -1.2379 C   0  0  0  0  0  0  0  0  0  0  0  0
    2.6126   -0.1126   -0.4265 C   0  0  0  0  0  0  0  0  0  0  0  0
   -3.1662    0.9926    0.1296 H   0  0  0  0  0  0  0  0  0  0  0  0
   -4.0065   -0.4719   -0.5780 H   0  0  0  0  0  0  0  0  0  0  0  0
   -2.9424    0.6182   -1.6195 H   0  0  0  0  0  0  0  0  0  0  0  0
   -2.1505   -1.4803    0.3900 H   0  0  0  0  0  0  0  0  0  0  0  0
   -1.4721   -1.0494   -1.1958 H   0  0  0  0  0  0  0  0  0  0  0  0
    0.3330   -1.4551    0.4941 H   0  0  0  0  0  0  0  0  0  0  0  0
    0.1720    0.4018    2.7488 H   0  0  0  0  0  0  0  0  0  0  0  0
    1.6948   -0.5469    2.2403 H   0  0  0  0  0  0  0  0  0  0  0  0
    2.0232    1.7667   -1.5245 H   0  0  0  0  0  0  0  0  0  0  0  0
    1.0714    0.2503   -2.0357 H   0  0  0  0  0  0  0  0  0  0  0  0
    3.5676    0.3574   -0.1102 H   0  0  0  0  0  0  0  0  0  0  0  0
    2.6191   -1.2056   -0.6652 H   0  0  0  0  0  0  0  0  0  0  0  0
  1  2  1  0
  2  3  1  0
  3  4  1  0
  4  5  1  0
  5  6  1  0
  6  7  1  0
  7  8  1  0
  8  9  1  0
  7  4  1  0
  9  7  1  0
  1 10  1  0
  1 11  1  0
  1 12  1  0
  2 13  1  0
  2 14  1  0
  4 15  1  0
  5 16  1  0
  5 17  1  0
  8 18  1  0
  8 19  1  0
  9 20  1  0
  9 21  1  0
M  END
