
     RDKit          3D

 23 23  0  0  0  0  0  0  0  0999 V2000
    3.3752    0.7188    0.5627 C   0  0  0  0  0  0  0  0  0  0  0  0
    2.1694   -0.1919    0.5605 C   0  0  0  0  0  0  0  0  0  0  0  0
    1.0395    0.4204    0.0230 O   0  0  0  0  0  0  0  0  0  0  0  0
    0.0145   -0.5128    0.0793 C   0  0  0  0  0  0  0  0  0  0  0  0
   -1.2856    0.0165   -0.4750 C   0  0  0  0  0  0  0  0  0  0  0  0
   -2.4085   -1.0073   -0.4128 C   0  0  0  0  0  0  0  0  0  0  0  0
   -2.0574   -2.1456   -1.1602 O   0  0  0  0  0  0  0  0  0  0  0  0
   -1.2835    1.0239   -1.5732 C   0  0  0  0  0  0  0  0  0  0  0  0
   -1.6791    1.4327   -0.1790 C   0  0  0  0  0  0  0  0  0  0  0  0
    3.5266    1.2205   -0.4166 H   0  0  0  0  0  0  0  0  0  0  0  0
    3.3311    1.4865    1.3340 H   0  0  0  0  0  0  0  0  0  0  0  0
    4.2643    0.0421    0.7322 H   0  0  0  0  0  0  0  0  0  0  0  0
    1.9466   -0.4442    1.6310 H   0  0  0  0  0  0  0  0  0  0  0  0
    2.3546   -1.1079    0.0008 H   0  0  0  0  0  0  0  0  0  0  0  0
    0.2612   -1.4368   -0.5033 H   0  0  0  0  0  0  0  0  0  0  0  0
   -0.1444   -0.8436    1.1225 H   0  0  0  0  0  0  0  0  0  0  0  0
   -3.3397   -0.5718   -0.7751 H   0  0  0  0  0  0  0  0  0  0  0  0
   -2.4520   -1.3484    0.6428 H   0  0  0  0  0  0  0  0  0  0  0  0
   -1.5343   -2.7699   -0.6062 H   0  0  0  0  0  0  0  0  0  0  0  0
   -2.0985    0.9799   -2.3450 H   0  0  0  0  0  0  0  0  0  0  0  0
   -0.3018    1.3366   -1.9837 H   0  0  0  0  0  0  0  0  0  0  0  0
   -0.9385    2.0142    0.4320 H   0  0  0  0  0  0  0  0  0  0  0  0
   -2.7597    1.6882   -0.0179 H   0  0  0  0  0  0  0  0  0  0  0  0
  1  2  1  0
  2  3  1  0
  3  4  1  0
  4  5  1  0
  5  6  1  0
  6  7  1  0
  5  8  1  0
  8  9  1  0
  9  5  1  0
  1 10  1  0
  1 11  1  0
  1 12  1  0
  2 13  1  0
  2 14  1  0
  4 15  1  0
  4 16  1  0
  6 17  1  0
  6 18  1  0
  7 19  1  0
  8 20  1  0
  8 21  1  0
  9 22  1  0
  9 23  1  0
M  END
