
     RDKit          3D

 20 21  0  0  0  0  0  0  0  0999 V2000
    3.1200    0.1309   -0.3816 C   0  0  0  0  0  0  0  0  0  0  0  0
    1.8000   -0.5697   -0.1861 C   0  0  0  0  0  0  0  0  0  0  0  0
    0.7382    0.3510   -0.0959 O   0  0  0  0  0  0  0  0  0  0  0  0
   -0.4133   -0.3902    0.0806 C   0  0  0  0  0  0  0  0  0  0  0  0
   -1.5448    0.1404   -0.7652 C   0  0  0  0  0  0  0  0  0  0  0  0
   -1.5183    1.3320    0.1377 C   0  0  0  0  0  0  0  0  0  0  0  0
   -1.3834    0.1715    1.0834 C   0  0  0  0  0  0  0  0  0  0  0  0
   -2.4471   -0.4980    0.2567 C   0  0  0  0  0  0  0  0  0  0  0  0
    3.2080    0.9504    0.3535 H   0  0  0  0  0  0  0  0  0  0  0  0
    3.9174   -0.6172   -0.1628 H   0  0  0  0  0  0  0  0  0  0  0  0
    3.2115    0.4607   -1.4239 H   0  0  0  0  0  0  0  0  0  0  0  0
    1.7863   -1.1587    0.7554 H   0  0  0  0  0  0  0  0  0  0  0  0
    1.5562   -1.2447   -1.0235 H   0  0  0  0  0  0  0  0  0  0  0  0
   -0.3049   -1.4802    0.1165 H   0  0  0  0  0  0  0  0  0  0  0  0
   -1.6253    0.1067   -1.7581 H   0  0  0  0  0  0  0  0  0  0  0  0
   -2.4298    1.9286    0.2085 H   0  0  0  0  0  0  0  0  0  0  0  0
   -0.5797    1.8986    0.0375 H   0  0  0  0  0  0  0  0  0  0  0  0
   -1.2987    0.1915    2.0749 H   0  0  0  0  0  0  0  0  0  0  0  0
   -3.4557   -0.0987    0.3464 H   0  0  0  0  0  0  0  0  0  0  0  0
   -2.3366   -1.6050    0.3458 H   0  0  0  0  0  0  0  0  0  0  0  0
  1  2  1  0
  2  3  1  0
  3  4  1  0
  4  5  1  0
  5  6  1  0
  6  7  1  0
  7  8  1  0
  7  4  1  0
  8  5  1  0
  1  9  1  0
  1 10  1  0
  1 11  1  0
  2 12  1  0
  2 13  1  0
  4 14  1  0
  5 15  1  0
  6 16  1  0
  6 17  1  0
  7 18  1  0
  8 19  1  0
  8 20  1  0
M  END
