
     RDKit          3D

 21 20  0  0  0  0  0  0  0  0999 V2000
    2.8399    0.1503    0.4013 C   0  0  0  0  0  0  0  0  0  0  0  0
    1.5100    0.1001   -0.3661 C   0  0  0  0  0  0  0  0  0  0  0  0
    0.5172   -0.0598    0.5360 O   0  0  0  0  0  0  0  0  0  0  0  0
   -0.7556   -0.1323    0.0964 C   0  0  0  0  0  0  0  0  0  0  0  0
   -1.6492   -0.3116    1.3339 C   0  0  0  0  0  0  0  0  0  0  0  0
   -1.1712    1.2120   -0.5015 C   0  0  0  0  0  0  0  0  0  0  0  0
   -1.0680   -1.1879   -0.9036 C   0  0  0  0  0  0  0  0  0  0  0  0
    3.2960   -0.8425    0.4892 H   0  0  0  0  0  0  0  0  0  0  0  0
    3.5349    0.8774   -0.0710 H   0  0  0  0  0  0  0  0  0  0  0  0
    2.6709    0.5260    1.4412 H   0  0  0  0  0  0  0  0  0  0  0  0
    1.6360   -0.7256   -1.0967 H   0  0  0  0  0  0  0  0  0  0  0  0
    1.4259    1.0451   -0.9175 H   0  0  0  0  0  0  0  0  0  0  0  0
   -2.6814   -0.5246    1.0596 H   0  0  0  0  0  0  0  0  0  0  0  0
   -1.5448    0.6612    1.8946 H   0  0  0  0  0  0  0  0  0  0  0  0
   -1.1561   -1.0671    1.9564 H   0  0  0  0  0  0  0  0  0  0  0  0
   -0.9842    1.9696    0.3036 H   0  0  0  0  0  0  0  0  0  0  0  0
   -0.5149    1.5038   -1.3472 H   0  0  0  0  0  0  0  0  0  0  0  0
   -2.2251    1.2193   -0.8103 H   0  0  0  0  0  0  0  0  0  0  0  0
   -0.4702   -2.1057   -0.8080 H   0  0  0  0  0  0  0  0  0  0  0  0
   -2.1341   -1.5076   -0.7279 H   0  0  0  0  0  0  0  0  0  0  0  0
   -1.0761   -0.8002   -1.9623 H   0  0  0  0  0  0  0  0  0  0  0  0
  1  2  1  0
  2  3  1  0
  3  4  1  0
  4  5  1  0
  4  6  1  0
  4  7  1  0
  1  8  1  0
  1  9  1  0
  1 10  1  0
  2 11  1  0
  2 12  1  0
  5 13  1  0
  5 14  1  0
  5 15  1  0
  6 16  1  0
  6 17  1  0
  6 18  1  0
  7 19  1  0
  7 20  1  0
  7 21  1  0
M  END
