
     RDKit          3D

 23 22  0  0  0  0  0  0  0  0999 V2000
   -2.2634   -0.0238    1.3732 C   0  0  0  0  0  0  0  0  0  0  0  0
   -2.4691   -0.3075   -0.0931 C   0  0  0  0  0  0  0  0  0  0  0  0
   -1.3900   -0.8781   -0.7177 O   0  0  0  0  0  0  0  0  0  0  0  0
   -0.2291   -0.1724   -0.7295 C   0  0  0  0  0  0  0  0  0  0  0  0
    0.2770    0.2046   -2.0787 C   0  0  0  0  0  0  0  0  0  0  0  0
    0.8291   -0.9102    0.0062 C   0  0  0  0  0  0  0  0  0  0  0  0
    0.5263   -1.9916    0.5080 O   0  0  0  0  0  0  0  0  0  0  0  0
    2.2158   -0.3752    0.1469 C   0  0  0  0  0  0  0  0  0  0  0  0
    2.2646    0.8610    1.0046 C   0  0  0  0  0  0  0  0  0  0  0  0
   -3.0094   -0.5811    2.0240 H   0  0  0  0  0  0  0  0  0  0  0  0
   -2.4623    1.0369    1.6305 H   0  0  0  0  0  0  0  0  0  0  0  0
   -1.2667   -0.3463    1.7277 H   0  0  0  0  0  0  0  0  0  0  0  0
   -2.8748    0.5650   -0.6553 H   0  0  0  0  0  0  0  0  0  0  0  0
   -3.3035   -1.0676   -0.1418 H   0  0  0  0  0  0  0  0  0  0  0  0
   -0.4165    0.7835   -0.1797 H   0  0  0  0  0  0  0  0  0  0  0  0
    0.5060   -0.6691   -2.7471 H   0  0  0  0  0  0  0  0  0  0  0  0
    1.2377    0.7513   -1.9527 H   0  0  0  0  0  0  0  0  0  0  0  0
   -0.3920    0.9236   -2.6126 H   0  0  0  0  0  0  0  0  0  0  0  0
    2.8180   -1.1861    0.6368 H   0  0  0  0  0  0  0  0  0  0  0  0
    2.6312   -0.1511   -0.8390 H   0  0  0  0  0  0  0  0  0  0  0  0
    2.8113    0.6356    1.9339 H   0  0  0  0  0  0  0  0  0  0  0  0
    1.2357    1.1876    1.3123 H   0  0  0  0  0  0  0  0  0  0  0  0
    2.7242    1.7111    0.4431 H   0  0  0  0  0  0  0  0  0  0  0  0
  1  2  1  0
  2  3  1  0
  3  4  1  0
  4  5  1  0
  4  6  1  0
  6  7  2  0
  6  8  1  0
  8  9  1  0
  1 10  1  0
  1 11  1  0
  1 12  1  0
  2 13  1  0
  2 14  1  0
  4 15  1  0
  5 16  1  0
  5 17  1  0
  5 18  1  0
  8 19  1  0
  8 20  1  0
  9 21  1  0
  9 22  1  0
  9 23  1  0
M  END
