
     RDKit          3D

 23 23  0  0  0  0  0  0  0  0999 V2000
    2.4156   -1.0662    0.5586 C   0  0  0  0  0  0  0  0  0  0  0  0
    1.9133   -0.4254   -0.7050 C   0  0  0  0  0  0  0  0  0  0  0  0
    0.5423   -0.4285   -0.8228 O   0  0  0  0  0  0  0  0  0  0  0  0
   -0.1155    0.2351    0.1819 C   0  0  0  0  0  0  0  0  0  0  0  0
   -1.0016   -0.7290    0.9539 C   0  0  0  0  0  0  0  0  0  0  0  0
   -2.0267   -1.3554    0.0420 C   0  0  0  0  0  0  0  0  0  0  0  0
   -1.0311    1.3291   -0.3247 C   0  0  0  0  0  0  0  0  0  0  0  0
   -0.7939    2.6741    0.2696 C   0  0  0  0  0  0  0  0  0  0  0  0
   -0.4852    2.3747   -1.0599 O   0  0  0  0  0  0  0  0  0  0  0  0
    1.8881   -1.9902    0.8317 H   0  0  0  0  0  0  0  0  0  0  0  0
    3.4925   -1.3611    0.3904 H   0  0  0  0  0  0  0  0  0  0  0  0
    2.4571   -0.3376    1.4184 H   0  0  0  0  0  0  0  0  0  0  0  0
    2.3101   -1.0390   -1.5601 H   0  0  0  0  0  0  0  0  0  0  0  0
    2.3692    0.5663   -0.7989 H   0  0  0  0  0  0  0  0  0  0  0  0
    0.6504    0.6337    0.8808 H   0  0  0  0  0  0  0  0  0  0  0  0
   -1.5550   -0.1587    1.7315 H   0  0  0  0  0  0  0  0  0  0  0  0
   -0.4087   -1.4891    1.4965 H   0  0  0  0  0  0  0  0  0  0  0  0
   -3.0298   -0.9003    0.1756 H   0  0  0  0  0  0  0  0  0  0  0  0
   -2.1505   -2.4417    0.2408 H   0  0  0  0  0  0  0  0  0  0  0  0
   -1.7556   -1.2446   -1.0276 H   0  0  0  0  0  0  0  0  0  0  0  0
   -2.0427    1.0090   -0.5819 H   0  0  0  0  0  0  0  0  0  0  0  0
   -1.7212    3.2700    0.4664 H   0  0  0  0  0  0  0  0  0  0  0  0
    0.0791    2.8748    0.8939 H   0  0  0  0  0  0  0  0  0  0  0  0
  1  2  1  0
  2  3  1  0
  3  4  1  0
  4  5  1  0
  5  6  1  0
  4  7  1  0
  7  8  1  0
  8  9  1  0
  9  7  1  0
  1 10  1  0
  1 11  1  0
  1 12  1  0
  2 13  1  0
  2 14  1  0
  4 15  1  0
  5 16  1  0
  5 17  1  0
  6 18  1  0
  6 19  1  0
  6 20  1  0
  7 21  1  0
  8 22  1  0
  8 23  1  0
M  END
