
     RDKit          3D

 23 24  0  0  0  0  0  0  0  0999 V2000
    3.1280    0.6371    0.4211 C   0  0  0  0  0  0  0  0  0  0  0  0
    1.9004   -0.1168   -0.0591 C   0  0  0  0  0  0  0  0  0  0  0  0
    0.8028    0.4177    0.6122 O   0  0  0  0  0  0  0  0  0  0  0  0
   -0.3693   -0.2070    0.2402 C   0  0  0  0  0  0  0  0  0  0  0  0
   -0.3644   -1.7125    0.5361 C   0  0  0  0  0  0  0  0  0  0  0  0
   -0.7552   -0.0230   -1.2234 C   0  0  0  0  0  0  0  0  0  0  0  0
   -2.1660    0.2402   -0.7256 C   0  0  0  0  0  0  0  0  0  0  0  0
   -2.3213    1.5106    0.0164 C   0  0  0  0  0  0  0  0  0  0  0  0
   -1.6091    0.4570    0.7218 C   0  0  0  0  0  0  0  0  0  0  0  0
    3.9534   -0.0688    0.6530 H   0  0  0  0  0  0  0  0  0  0  0  0
    3.5117    1.3103   -0.3761 H   0  0  0  0  0  0  0  0  0  0  0  0
    2.8976    1.2857    1.2938 H   0  0  0  0  0  0  0  0  0  0  0  0
    2.0277   -1.1872    0.1999 H   0  0  0  0  0  0  0  0  0  0  0  0
    1.7747    0.0454   -1.1341 H   0  0  0  0  0  0  0  0  0  0  0  0
    0.1579   -2.2202   -0.3032 H   0  0  0  0  0  0  0  0  0  0  0  0
    0.0357   -1.9426    1.5220 H   0  0  0  0  0  0  0  0  0  0  0  0
   -1.4392   -2.0217    0.4550 H   0  0  0  0  0  0  0  0  0  0  0  0
   -0.3287    0.9421   -1.5977 H   0  0  0  0  0  0  0  0  0  0  0  0
   -0.6241   -0.8949   -1.8620 H   0  0  0  0  0  0  0  0  0  0  0  0
   -2.9342   -0.5227   -0.8003 H   0  0  0  0  0  0  0  0  0  0  0  0
   -1.7981    2.3879   -0.4600 H   0  0  0  0  0  0  0  0  0  0  0  0
   -3.3322    1.7616    0.3433 H   0  0  0  0  0  0  0  0  0  0  0  0
   -2.1482   -0.0780    1.5269 H   0  0  0  0  0  0  0  0  0  0  0  0
  1  2  1  0
  2  3  1  0
  3  4  1  0
  4  5  1  0
  4  6  1  0
  6  7  1  0
  7  8  1  0
  8  9  1  0
  9  4  1  0
  9  7  1  0
  1 10  1  0
  1 11  1  0
  1 12  1  0
  2 13  1  0
  2 14  1  0
  5 15  1  0
  5 16  1  0
  5 17  1  0
  6 18  1  0
  6 19  1  0
  7 20  1  0
  8 21  1  0
  8 22  1  0
  9 23  1  0
M  END
