
     RDKit          3D

 25 24  0  0  0  0  0  0  0  0999 V2000
   -3.8977   -0.6443   -0.7616 C   0  0  0  0  0  0  0  0  0  0  0  0
   -2.6677    0.0826   -0.1861 C   0  0  0  0  0  0  0  0  0  0  0  0
   -1.8153   -0.9117    0.2308 O   0  0  0  0  0  0  0  0  0  0  0  0
   -0.6933   -0.4182    0.8139 C   0  0  0  0  0  0  0  0  0  0  0  0
    0.1147    0.4191   -0.1116 C   0  0  0  0  0  0  0  0  0  0  0  0
    1.3425    0.9333    0.5973 C   0  0  0  0  0  0  0  0  0  0  0  0
    2.1953   -0.2190    1.0536 C   0  0  0  0  0  0  0  0  0  0  0  0
    2.5501   -0.9875   -0.0530 O   0  0  0  0  0  0  0  0  0  0  0  0
    3.2716   -0.3009   -1.0094 C   0  0  0  0  0  0  0  0  0  0  0  0
   -4.2694   -0.0532   -1.6094 H   0  0  0  0  0  0  0  0  0  0  0  0
   -3.6491   -1.6790   -1.0504 H   0  0  0  0  0  0  0  0  0  0  0  0
   -4.6198   -0.7084    0.0737 H   0  0  0  0  0  0  0  0  0  0  0  0
   -2.2290    0.7040   -1.0196 H   0  0  0  0  0  0  0  0  0  0  0  0
   -2.9549    0.7682    0.6155 H   0  0  0  0  0  0  0  0  0  0  0  0
   -0.0284   -1.2201    1.2098 H   0  0  0  0  0  0  0  0  0  0  0  0
   -0.9386    0.2447    1.6961 H   0  0  0  0  0  0  0  0  0  0  0  0
   -0.4431    1.2518   -0.5951 H   0  0  0  0  0  0  0  0  0  0  0  0
    0.4246   -0.2405   -0.9786 H   0  0  0  0  0  0  0  0  0  0  0  0
    1.9184    1.6738    0.0199 H   0  0  0  0  0  0  0  0  0  0  0  0
    0.9952    1.5190    1.5067 H   0  0  0  0  0  0  0  0  0  0  0  0
    3.1636    0.1857    1.5056 H   0  0  0  0  0  0  0  0  0  0  0  0
    1.7618   -0.8473    1.8253 H   0  0  0  0  0  0  0  0  0  0  0  0
    4.2093    0.0756   -0.5222 H   0  0  0  0  0  0  0  0  0  0  0  0
    3.5090   -1.0397   -1.8075 H   0  0  0  0  0  0  0  0  0  0  0  0
    2.7502    0.5703   -1.4437 H   0  0  0  0  0  0  0  0  0  0  0  0
  1  2  1  0
  2  3  1  0
  3  4  1  0
  4  5  1  0
  5  6  1  0
  6  7  1  0
  7  8  1  0
  8  9  1  0
  1 10  1  0
  1 11  1  0
  1 12  1  0
  2 13  1  0
  2 14  1  0
  4 15  1  0
  4 16  1  0
  5 17  1  0
  5 18  1  0
  6 19  1  0
  6 20  1  0
  7 21  1  0
  7 22  1  0
  9 23  1  0
  9 24  1  0
  9 25  1  0
M  END
