
     RDKit          3D

 23 23  0  0  0  0  0  0  0  0999 V2000
   -2.7667    0.7503    0.3403 C   0  0  0  0  0  0  0  0  0  0  0  0
   -2.5411   -0.3165   -0.6819 C   0  0  0  0  0  0  0  0  0  0  0  0
   -1.2066   -0.4511   -1.0585 O   0  0  0  0  0  0  0  0  0  0  0  0
   -0.4490   -0.7698    0.0415 C   0  0  0  0  0  0  0  0  0  0  0  0
    1.0071   -0.9398   -0.2429 C   0  0  0  0  0  0  0  0  0  0  0  0
    1.6969    0.3005   -0.6967 C   0  0  0  0  0  0  0  0  0  0  0  0
    2.4432    0.8419    0.5256 C   0  0  0  0  0  0  0  0  0  0  0  0
    1.9411   -0.0892    1.6037 C   0  0  0  0  0  0  0  0  0  0  0  0
    1.6762   -1.2597    0.9369 O   0  0  0  0  0  0  0  0  0  0  0  0
   -3.6944    1.3492    0.1185 H   0  0  0  0  0  0  0  0  0  0  0  0
   -1.9291    1.4619    0.4423 H   0  0  0  0  0  0  0  0  0  0  0  0
   -2.9339    0.3308    1.3744 H   0  0  0  0  0  0  0  0  0  0  0  0
   -3.2199   -0.1888   -1.5459 H   0  0  0  0  0  0  0  0  0  0  0  0
   -2.8204   -1.2962   -0.1981 H   0  0  0  0  0  0  0  0  0  0  0  0
   -0.5816   -0.0223    0.8213 H   0  0  0  0  0  0  0  0  0  0  0  0
   -0.8264   -1.7387    0.4446 H   0  0  0  0  0  0  0  0  0  0  0  0
    1.2243   -1.7592   -0.9613 H   0  0  0  0  0  0  0  0  0  0  0  0
    2.4702    0.0528   -1.4596 H   0  0  0  0  0  0  0  0  0  0  0  0
    1.0185    1.0660   -1.1153 H   0  0  0  0  0  0  0  0  0  0  0  0
    3.5259    0.7593    0.4046 H   0  0  0  0  0  0  0  0  0  0  0  0
    2.1389    1.8843    0.6632 H   0  0  0  0  0  0  0  0  0  0  0  0
    2.7515   -0.2934    2.3438 H   0  0  0  0  0  0  0  0  0  0  0  0
    1.0754    0.3275    2.1568 H   0  0  0  0  0  0  0  0  0  0  0  0
  1  2  1  0
  2  3  1  0
  3  4  1  0
  4  5  1  0
  5  6  1  0
  6  7  1  0
  7  8  1  0
  8  9  1  0
  9  5  1  0
  1 10  1  0
  1 11  1  0
  1 12  1  0
  2 13  1  0
  2 14  1  0
  4 15  1  0
  4 16  1  0
  5 17  1  0
  6 18  1  0
  6 19  1  0
  7 20  1  0
  7 21  1  0
  8 22  1  0
  8 23  1  0
M  END
