
     RDKit          3D

 19 19  0  0  0  0  0  0  0  0999 V2000
    3.2499    0.0034   -0.5315 C   0  0  0  0  0  0  0  0  0  0  0  0
    2.4576    0.8904    0.3803 C   0  0  0  0  0  0  0  0  0  0  0  0
    1.1421    1.1072   -0.0222 O   0  0  0  0  0  0  0  0  0  0  0  0
    0.2637    0.0550   -0.1628 C   0  0  0  0  0  0  0  0  0  0  0  0
    0.6943   -1.1006    0.0852 O   0  0  0  0  0  0  0  0  0  0  0  0
   -1.1596    0.2237   -0.5913 C   0  0  0  0  0  0  0  0  0  0  0  0
   -1.5970   -0.6533   -1.6429 O   0  0  0  0  0  0  0  0  0  0  0  0
   -2.1566   -0.7858   -0.3261 C   0  0  0  0  0  0  0  0  0  0  0  0
   -3.6002   -0.3405   -0.1852 C   0  0  0  0  0  0  0  0  0  0  0  0
    3.3135    0.4159   -1.5677 H   0  0  0  0  0  0  0  0  0  0  0  0
    4.3105    0.0250   -0.1555 H   0  0  0  0  0  0  0  0  0  0  0  0
    2.9483   -1.0469   -0.5298 H   0  0  0  0  0  0  0  0  0  0  0  0
    2.9700    1.8812    0.4002 H   0  0  0  0  0  0  0  0  0  0  0  0
    2.5437    0.4819    1.4081 H   0  0  0  0  0  0  0  0  0  0  0  0
   -1.4908    1.2596   -0.7980 H   0  0  0  0  0  0  0  0  0  0  0  0
   -1.9205   -1.7440    0.1413 H   0  0  0  0  0  0  0  0  0  0  0  0
   -3.9869    0.1302   -1.1067 H   0  0  0  0  0  0  0  0  0  0  0  0
   -4.2619   -1.2101    0.0222 H   0  0  0  0  0  0  0  0  0  0  0  0
   -3.7203    0.4078    0.6282 H   0  0  0  0  0  0  0  0  0  0  0  0
  1  2  1  0
  2  3  1  0
  3  4  1  0
  4  5  2  0
  4  6  1  0
  6  7  1  0
  7  8  1  0
  8  9  1  0
  8  6  1  0
  1 10  1  0
  1 11  1  0
  1 12  1  0
  2 13  1  0
  2 14  1  0
  6 15  1  0
  8 16  1  0
  9 17  1  0
  9 18  1  0
  9 19  1  0
M  END
