
     RDKit          3D

 19 18  0  0  0  0  0  0  0  0999 V2000
   -2.5988   -0.0316    0.2524 C   0  0  0  0  0  0  0  0  0  0  0  0
   -1.9889   -0.3759   -1.0820 C   0  0  0  0  0  0  0  0  0  0  0  0
   -0.7111   -0.8825   -0.8581 O   0  0  0  0  0  0  0  0  0  0  0  0
    0.0252    0.1042   -0.2135 C   0  0  0  0  0  0  0  0  0  0  0  0
    1.4312   -0.3965    0.0556 C   0  0  0  0  0  0  0  0  0  0  0  0
    2.2762    0.6203    0.7487 C   0  0  0  0  0  0  0  0  0  0  0  0
    3.5389    0.0641    0.9474 O   0  0  0  0  0  0  0  0  0  0  0  0
   -2.4230    1.0287    0.5243 H   0  0  0  0  0  0  0  0  0  0  0  0
   -3.6839   -0.2341    0.1781 H   0  0  0  0  0  0  0  0  0  0  0  0
   -2.1397   -0.7043    1.0216 H   0  0  0  0  0  0  0  0  0  0  0  0
   -1.9540    0.5589   -1.7106 H   0  0  0  0  0  0  0  0  0  0  0  0
   -2.6089   -1.1207   -1.6107 H   0  0  0  0  0  0  0  0  0  0  0  0
    0.0919    0.9889   -0.9064 H   0  0  0  0  0  0  0  0  0  0  0  0
   -0.4789    0.4360    0.7002 H   0  0  0  0  0  0  0  0  0  0  0  0
    1.3598   -1.2941    0.7030 H   0  0  0  0  0  0  0  0  0  0  0  0
    1.8907   -0.7056   -0.9053 H   0  0  0  0  0  0  0  0  0  0  0  0
    1.8519    0.8120    1.7721 H   0  0  0  0  0  0  0  0  0  0  0  0
    2.4145    1.5506    0.1931 H   0  0  0  0  0  0  0  0  0  0  0  0
    3.7069   -0.5554    0.1901 H   0  0  0  0  0  0  0  0  0  0  0  0
  1  2  1  0
  2  3  1  0
  3  4  1  0
  4  5  1  0
  5  6  1  0
  6  7  1  0
  1  8  1  0
  1  9  1  0
  1 10  1  0
  2 11  1  0
  2 12  1  0
  4 13  1  0
  4 14  1  0
  5 15  1  0
  5 16  1  0
  6 17  1  0
  6 18  1  0
  7 19  1  0
M  END
