
     RDKit          3D

 25 24  0  0  0  0  0  0  0  0999 V2000
   -3.0985    1.5867    0.4914 C   0  0  0  0  0  0  0  0  0  0  0  0
   -2.3814    0.2802    0.8568 C   0  0  0  0  0  0  0  0  0  0  0  0
   -1.2433    0.2278    0.0729 O   0  0  0  0  0  0  0  0  0  0  0  0
   -0.5056   -0.9247    0.3197 C   0  0  0  0  0  0  0  0  0  0  0  0
   -0.4752   -1.7367   -0.9623 C   0  0  0  0  0  0  0  0  0  0  0  0
    0.8909   -0.6315    0.7486 C   0  0  0  0  0  0  0  0  0  0  0  0
    1.6745    0.1489   -0.2816 C   0  0  0  0  0  0  0  0  0  0  0  0
    3.0738    0.4066    0.2229 C   0  0  0  0  0  0  0  0  0  0  0  0
    3.8107    1.1248   -0.7140 O   0  0  0  0  0  0  0  0  0  0  0  0
   -4.1212    1.6148    0.8861 H   0  0  0  0  0  0  0  0  0  0  0  0
   -2.4773    2.3961    0.9484 H   0  0  0  0  0  0  0  0  0  0  0  0
   -3.0625    1.6645   -0.6303 H   0  0  0  0  0  0  0  0  0  0  0  0
   -2.1402    0.2818    1.9465 H   0  0  0  0  0  0  0  0  0  0  0  0
   -3.0971   -0.5241    0.6769 H   0  0  0  0  0  0  0  0  0  0  0  0
   -0.9732   -1.5675    1.0902 H   0  0  0  0  0  0  0  0  0  0  0  0
   -0.2683   -1.0329   -1.7889 H   0  0  0  0  0  0  0  0  0  0  0  0
   -1.4806   -2.2175   -1.0424 H   0  0  0  0  0  0  0  0  0  0  0  0
    0.3367   -2.4862   -0.8398 H   0  0  0  0  0  0  0  0  0  0  0  0
    1.4186   -1.6080    0.8703 H   0  0  0  0  0  0  0  0  0  0  0  0
    0.9497   -0.1222    1.7161 H   0  0  0  0  0  0  0  0  0  0  0  0
    1.2189    1.1390   -0.4923 H   0  0  0  0  0  0  0  0  0  0  0  0
    1.7576   -0.4636   -1.2034 H   0  0  0  0  0  0  0  0  0  0  0  0
    3.6339   -0.5439    0.3991 H   0  0  0  0  0  0  0  0  0  0  0  0
    3.0530    0.9347    1.2062 H   0  0  0  0  0  0  0  0  0  0  0  0
    3.5061    2.0530   -0.7879 H   0  0  0  0  0  0  0  0  0  0  0  0
  1  2  1  0
  2  3  1  0
  3  4  1  0
  4  5  1  0
  4  6  1  0
  6  7  1  0
  7  8  1  0
  8  9  1  0
  1 10  1  0
  1 11  1  0
  1 12  1  0
  2 13  1  0
  2 14  1  0
  4 15  1  0
  5 16  1  0
  5 17  1  0
  5 18  1  0
  6 19  1  0
  6 20  1  0
  7 21  1  0
  7 22  1  0
  8 23  1  0
  8 24  1  0
  9 25  1  0
M  END
