
     RDKit          3D

 22 22  0  0  0  0  0  0  0  0999 V2000
   -3.7035    0.1106   -0.1085 C   0  0  0  0  0  0  0  0  0  0  0  0
   -2.2939    0.7025    0.0371 C   0  0  0  0  0  0  0  0  0  0  0  0
   -1.4186   -0.3190   -0.2105 O   0  0  0  0  0  0  0  0  0  0  0  0
   -0.0889    0.0109   -0.1288 C   0  0  0  0  0  0  0  0  0  0  0  0
    0.7698   -0.6408   -1.2175 C   0  0  0  0  0  0  0  0  0  0  0  0
    0.9658   -0.9609    0.1987 C   0  0  0  0  0  0  0  0  0  0  0  0
    2.2127   -0.5277    0.9187 C   0  0  0  0  0  0  0  0  0  0  0  0
    2.9996    0.5069    0.1814 C   0  0  0  0  0  0  0  0  0  0  0  0
   -4.4794    0.8491    0.1658 H   0  0  0  0  0  0  0  0  0  0  0  0
   -3.8504   -0.1373   -1.1795 H   0  0  0  0  0  0  0  0  0  0  0  0
   -3.7400   -0.8147    0.4688 H   0  0  0  0  0  0  0  0  0  0  0  0
   -2.1701    1.1804    1.0280 H   0  0  0  0  0  0  0  0  0  0  0  0
   -2.2057    1.4471   -0.7934 H   0  0  0  0  0  0  0  0  0  0  0  0
    0.1190    1.0647    0.1278 H   0  0  0  0  0  0  0  0  0  0  0  0
    1.3832    0.0818   -1.7744 H   0  0  0  0  0  0  0  0  0  0  0  0
    0.3008   -1.4052   -1.8677 H   0  0  0  0  0  0  0  0  0  0  0  0
    0.6049   -1.9727    0.5344 H   0  0  0  0  0  0  0  0  0  0  0  0
    2.8795   -1.4002    1.0894 H   0  0  0  0  0  0  0  0  0  0  0  0
    1.9847   -0.1162    1.9302 H   0  0  0  0  0  0  0  0  0  0  0  0
    4.0057    0.5714    0.6868 H   0  0  0  0  0  0  0  0  0  0  0  0
    3.2046    0.2706   -0.8647 H   0  0  0  0  0  0  0  0  0  0  0  0
    2.5202    1.4990    0.3380 H   0  0  0  0  0  0  0  0  0  0  0  0
  1  2  1  0
  2  3  1  0
  3  4  1  0
  4  5  1  0
  5  6  1  0
  6  7  1  0
  7  8  1  0
  6  4  1  0
  1  9  1  0
  1 10  1  0
  1 11  1  0
  2 12  1  0
  2 13  1  0
  4 14  1  0
  5 15  1  0
  5 16  1  0
  6 17  1  0
  7 18  1  0
  7 19  1  0
  8 20  1  0
  8 21  1  0
  8 22  1  0
M  END
