
     RDKit          3D

 21 21  0  0  0  0  0  0  0  0999 V2000
   -3.3982   -0.0705    0.2669 C   0  0  0  0  0  0  0  0  0  0  0  0
   -1.9985    0.1846   -0.2680 C   0  0  0  0  0  0  0  0  0  0  0  0
   -1.2084   -0.9317   -0.0312 O   0  0  0  0  0  0  0  0  0  0  0  0
    0.0758   -0.8189   -0.4804 C   0  0  0  0  0  0  0  0  0  0  0  0
    0.8873    0.2868    0.1099 C   0  0  0  0  0  0  0  0  0  0  0  0
    2.3186    0.3221   -0.4642 C   0  0  0  0  0  0  0  0  0  0  0  0
    2.7405    1.5768   -0.8711 O   0  0  0  0  0  0  0  0  0  0  0  0
    2.0602    0.0260    0.9720 C   0  0  0  0  0  0  0  0  0  0  0  0
    2.3342   -1.2714    1.4306 O   0  0  0  0  0  0  0  0  0  0  0  0
   -3.9157    0.8650    0.5560 H   0  0  0  0  0  0  0  0  0  0  0  0
   -4.0425   -0.5762   -0.4862 H   0  0  0  0  0  0  0  0  0  0  0  0
   -3.3265   -0.7469    1.1352 H   0  0  0  0  0  0  0  0  0  0  0  0
   -2.0354    0.4153   -1.3704 H   0  0  0  0  0  0  0  0  0  0  0  0
   -1.6325    1.1135    0.2136 H   0  0  0  0  0  0  0  0  0  0  0  0
    0.6285   -1.7806   -0.4281 H   0  0  0  0  0  0  0  0  0  0  0  0
    0.0157   -0.6033   -1.5898 H   0  0  0  0  0  0  0  0  0  0  0  0
    0.3735    1.2545    0.2129 H   0  0  0  0  0  0  0  0  0  0  0  0
    2.6771   -0.5210   -1.0607 H   0  0  0  0  0  0  0  0  0  0  0  0
    2.3627    2.2753   -0.2757 H   0  0  0  0  0  0  0  0  0  0  0  0
    2.3308    0.8308    1.6853 H   0  0  0  0  0  0  0  0  0  0  0  0
    2.7529   -1.8302    0.7433 H   0  0  0  0  0  0  0  0  0  0  0  0
  1  2  1  0
  2  3  1  0
  3  4  1  0
  4  5  1  0
  5  6  1  0
  6  7  1  0
  6  8  1  0
  8  9  1  0
  8  5  1  0
  1 10  1  0
  1 11  1  0
  1 12  1  0
  2 13  1  0
  2 14  1  0
  4 15  1  0
  4 16  1  0
  5 17  1  0
  6 18  1  0
  7 19  1  0
  8 20  1  0
  9 21  1  0
M  END
