
     RDKit          3D

 21 22  0  0  0  0  0  0  0  0999 V2000
    3.2635    0.6347    0.5212 C   0  0  0  0  0  0  0  0  0  0  0  0
    2.0649   -0.1114    0.0367 C   0  0  0  0  0  0  0  0  0  0  0  0
    0.8782    0.5795    0.2350 O   0  0  0  0  0  0  0  0  0  0  0  0
   -0.1549   -0.2111   -0.2524 C   0  0  0  0  0  0  0  0  0  0  0  0
   -0.8186    0.4243   -1.4082 C   0  0  0  0  0  0  0  0  0  0  0  0
   -2.1103    0.2152   -1.3072 C   0  0  0  0  0  0  0  0  0  0  0  0
   -2.4651   -0.5666   -0.0989 C   0  0  0  0  0  0  0  0  0  0  0  0
   -2.3270    0.1832    1.1733 C   0  0  0  0  0  0  0  0  0  0  0  0
   -1.1672   -0.5946    0.7294 C   0  0  0  0  0  0  0  0  0  0  0  0
    4.1070    0.4200   -0.1450 H   0  0  0  0  0  0  0  0  0  0  0  0
    3.4782    0.3248    1.5652 H   0  0  0  0  0  0  0  0  0  0  0  0
    3.0054    1.7248    0.5024 H   0  0  0  0  0  0  0  0  0  0  0  0
    2.1763   -0.2881   -1.0681 H   0  0  0  0  0  0  0  0  0  0  0  0
    2.0110   -1.1527    0.4695 H   0  0  0  0  0  0  0  0  0  0  0  0
    0.3208   -1.1549   -0.6480 H   0  0  0  0  0  0  0  0  0  0  0  0
   -0.2952    0.9844   -2.2212 H   0  0  0  0  0  0  0  0  0  0  0  0
   -2.8523    0.5655   -2.0158 H   0  0  0  0  0  0  0  0  0  0  0  0
   -3.0007   -1.5068   -0.1791 H   0  0  0  0  0  0  0  0  0  0  0  0
   -2.9066   -0.1902    2.0168 H   0  0  0  0  0  0  0  0  0  0  0  0
   -2.2350    1.2804    1.1392 H   0  0  0  0  0  0  0  0  0  0  0  0
   -0.9722   -1.5605    1.2839 H   0  0  0  0  0  0  0  0  0  0  0  0
  1  2  1  0
  2  3  1  0
  3  4  1  0
  4  5  1  0
  5  6  2  0
  6  7  1  0
  7  8  1  0
  8  9  1  0
  9  4  1  0
  9  7  1  0
  1 10  1  0
  1 11  1  0
  1 12  1  0
  2 13  1  0
  2 14  1  0
  4 15  1  0
  5 16  1  0
  6 17  1  0
  7 18  1  0
  8 19  1  0
  8 20  1  0
  9 21  1  0
M  END
