
     RDKit          3D

 23 24  0  0  0  0  0  0  0  0999 V2000
    3.1582    1.0058   -0.4175 C   0  0  0  0  0  0  0  0  0  0  0  0
    2.1606    0.0057    0.1039 C   0  0  0  0  0  0  0  0  0  0  0  0
    0.8520    0.3682   -0.2697 O   0  0  0  0  0  0  0  0  0  0  0  0
    0.0102   -0.5886    0.2415 C   0  0  0  0  0  0  0  0  0  0  0  0
   -1.1196   -1.0329   -0.6541 C   0  0  0  0  0  0  0  0  0  0  0  0
   -1.7129    0.2691   -1.0989 C   0  0  0  0  0  0  0  0  0  0  0  0
   -1.6921    1.0234    0.2482 C   0  0  0  0  0  0  0  0  0  0  0  0
   -1.1291   -0.0426    1.1131 C   0  0  0  0  0  0  0  0  0  0  0  0
   -1.8821   -1.2934    0.6463 C   0  0  0  0  0  0  0  0  0  0  0  0
    2.8075    2.0414   -0.3713 H   0  0  0  0  0  0  0  0  0  0  0  0
    3.3341    0.7442   -1.4967 H   0  0  0  0  0  0  0  0  0  0  0  0
    4.1095    0.8891    0.1540 H   0  0  0  0  0  0  0  0  0  0  0  0
    2.1520   -0.0631    1.2098 H   0  0  0  0  0  0  0  0  0  0  0  0
    2.4318   -0.9975   -0.2907 H   0  0  0  0  0  0  0  0  0  0  0  0
    0.5025   -1.4087    0.8139 H   0  0  0  0  0  0  0  0  0  0  0  0
   -0.9826   -1.8348   -1.3275 H   0  0  0  0  0  0  0  0  0  0  0  0
   -2.7547    0.1850   -1.4612 H   0  0  0  0  0  0  0  0  0  0  0  0
   -1.0960    0.8014   -1.8478 H   0  0  0  0  0  0  0  0  0  0  0  0
   -1.0285    1.9023    0.1189 H   0  0  0  0  0  0  0  0  0  0  0  0
   -2.7264    1.3104    0.4956 H   0  0  0  0  0  0  0  0  0  0  0  0
   -0.9545    0.0846    2.1429 H   0  0  0  0  0  0  0  0  0  0  0  0
   -2.9599   -1.1930    0.5863 H   0  0  0  0  0  0  0  0  0  0  0  0
   -1.4800   -2.1760    1.1986 H   0  0  0  0  0  0  0  0  0  0  0  0
  1  2  1  0
  2  3  1  0
  3  4  1  0
  4  5  1  0
  5  6  1  0
  6  7  1  0
  7  8  1  0
  8  9  1  0
  8  4  1  0
  9  5  1  0
  1 10  1  0
  1 11  1  0
  1 12  1  0
  2 13  1  0
  2 14  1  0
  4 15  1  0
  5 16  1  0
  6 17  1  0
  6 18  1  0
  7 19  1  0
  7 20  1  0
  8 21  1  0
  9 22  1  0
  9 23  1  0
M  END
