
     RDKit          3D

 21 22  0  0  0  0  0  0  0  0999 V2000
    2.1702    0.4937   -0.4610 C   0  0  0  0  0  0  0  0  0  0  0  0
    1.6811    0.3019    0.9366 C   0  0  0  0  0  0  0  0  0  0  0  0
    0.7703   -0.7137    1.0936 O   0  0  0  0  0  0  0  0  0  0  0  0
   -0.3851   -0.5951    0.3776 C   0  0  0  0  0  0  0  0  0  0  0  0
   -1.2355    0.6365    0.6574 C   0  0  0  0  0  0  0  0  0  0  0  0
   -1.4033    1.6073   -0.4016 C   0  0  0  0  0  0  0  0  0  0  0  0
   -2.4662    0.6586   -0.1765 O   0  0  0  0  0  0  0  0  0  0  0  0
   -1.1718   -1.9213    0.2763 C   0  0  0  0  0  0  0  0  0  0  0  0
   -0.5867   -1.2408   -0.9374 C   0  0  0  0  0  0  0  0  0  0  0  0
    3.1035    1.1287   -0.3946 H   0  0  0  0  0  0  0  0  0  0  0  0
    2.5140   -0.4671   -0.8908 H   0  0  0  0  0  0  0  0  0  0  0  0
    1.4861    1.0571   -1.1146 H   0  0  0  0  0  0  0  0  0  0  0  0
    1.3045    1.2957    1.3124 H   0  0  0  0  0  0  0  0  0  0  0  0
    2.5603    0.0658    1.5733 H   0  0  0  0  0  0  0  0  0  0  0  0
   -1.4858    0.9023    1.6894 H   0  0  0  0  0  0  0  0  0  0  0  0
   -1.7663    2.6262   -0.1842 H   0  0  0  0  0  0  0  0  0  0  0  0
   -0.9391    1.4826   -1.3969 H   0  0  0  0  0  0  0  0  0  0  0  0
   -0.7084   -2.8324    0.6386 H   0  0  0  0  0  0  0  0  0  0  0  0
   -2.2665   -1.8499    0.4616 H   0  0  0  0  0  0  0  0  0  0  0  0
    0.1837   -1.8213   -1.4503 H   0  0  0  0  0  0  0  0  0  0  0  0
   -1.3591   -0.8147   -1.6089 H   0  0  0  0  0  0  0  0  0  0  0  0
  1  2  1  0
  2  3  1  0
  3  4  1  0
  4  5  1  0
  5  6  1  0
  6  7  1  0
  4  8  1  0
  8  9  1  0
  9  4  1  0
  7  5  1  0
  1 10  1  0
  1 11  1  0
  1 12  1  0
  2 13  1  0
  2 14  1  0
  5 15  1  0
  6 16  1  0
  6 17  1  0
  8 18  1  0
  8 19  1  0
  9 20  1  0
  9 21  1  0
M  END
