
     RDKit          3D

 21 21  0  0  0  0  0  0  0  0999 V2000
   -3.2551    0.7002    0.4717 C   0  0  0  0  0  0  0  0  0  0  0  0
   -1.9946   -0.1390    0.4738 C   0  0  0  0  0  0  0  0  0  0  0  0
   -1.0246    0.4595   -0.3057 O   0  0  0  0  0  0  0  0  0  0  0  0
    0.1558   -0.1979   -0.3845 C   0  0  0  0  0  0  0  0  0  0  0  0
    0.7437   -0.4581   -1.7275 C   0  0  0  0  0  0  0  0  0  0  0  0
    1.5242    0.6824   -1.6000 O   0  0  0  0  0  0  0  0  0  0  0  0
    1.4224    0.5844   -0.2165 C   0  0  0  0  0  0  0  0  0  0  0  0
    2.5724   -0.2400    0.3336 C   0  0  0  0  0  0  0  0  0  0  0  0
    2.4965   -0.3555    1.7204 O   0  0  0  0  0  0  0  0  0  0  0  0
   -3.7833    0.5846    1.4568 H   0  0  0  0  0  0  0  0  0  0  0  0
   -3.9778    0.3443   -0.3185 H   0  0  0  0  0  0  0  0  0  0  0  0
   -3.0491    1.7670    0.2361 H   0  0  0  0  0  0  0  0  0  0  0  0
   -2.2708   -1.1378    0.0459 H   0  0  0  0  0  0  0  0  0  0  0  0
   -1.7104   -0.3019    1.5117 H   0  0  0  0  0  0  0  0  0  0  0  0
    0.1286   -1.1467    0.2225 H   0  0  0  0  0  0  0  0  0  0  0  0
    0.0464   -0.4682   -2.5861 H   0  0  0  0  0  0  0  0  0  0  0  0
    1.3888   -1.3558   -1.7647 H   0  0  0  0  0  0  0  0  0  0  0  0
    1.3145    1.5421    0.3039 H   0  0  0  0  0  0  0  0  0  0  0  0
    3.5234    0.2309    0.0071 H   0  0  0  0  0  0  0  0  0  0  0  0
    2.5609   -1.2708   -0.0772 H   0  0  0  0  0  0  0  0  0  0  0  0
    3.1879    0.1763    2.1888 H   0  0  0  0  0  0  0  0  0  0  0  0
  1  2  1  0
  2  3  1  0
  3  4  1  0
  4  5  1  0
  5  6  1  0
  6  7  1  0
  7  8  1  0
  8  9  1  0
  7  4  1  0
  1 10  1  0
  1 11  1  0
  1 12  1  0
  2 13  1  0
  2 14  1  0
  4 15  1  0
  5 16  1  0
  5 17  1  0
  7 18  1  0
  8 19  1  0
  8 20  1  0
  9 21  1  0
M  END
