
     RDKit          3D

 23 22  0  0  0  0  0  0  0  0999 V2000
    3.0412    1.1186    0.2495 C   0  0  0  0  0  0  0  0  0  0  0  0
    1.9164    0.2012    0.6817 C   0  0  0  0  0  0  0  0  0  0  0  0
    1.0676   -0.1072   -0.3694 O   0  0  0  0  0  0  0  0  0  0  0  0
    0.0578   -0.9303    0.0896 C   0  0  0  0  0  0  0  0  0  0  0  0
    0.2905   -2.3247   -0.5663 C   0  0  0  0  0  0  0  0  0  0  0  0
   -1.3217   -0.5429   -0.3175 C   0  0  0  0  0  0  0  0  0  0  0  0
   -1.7685    0.7876    0.1168 C   0  0  0  0  0  0  0  0  0  0  0  0
   -3.1362    1.2281   -0.2520 C   0  0  0  0  0  0  0  0  0  0  0  0
   -1.0570    1.5100    0.7536 O   0  0  0  0  0  0  0  0  0  0  0  0
    2.6993    1.8614   -0.5064 H   0  0  0  0  0  0  0  0  0  0  0  0
    3.4507    1.6988    1.0975 H   0  0  0  0  0  0  0  0  0  0  0  0
    3.8679    0.5446   -0.2000 H   0  0  0  0  0  0  0  0  0  0  0  0
    2.3622   -0.7933    1.0007 H   0  0  0  0  0  0  0  0  0  0  0  0
    1.3251    0.5786    1.5256 H   0  0  0  0  0  0  0  0  0  0  0  0
    0.1464   -1.0654    1.1698 H   0  0  0  0  0  0  0  0  0  0  0  0
    1.0548   -2.8250    0.0315 H   0  0  0  0  0  0  0  0  0  0  0  0
    0.5397   -2.1819   -1.6249 H   0  0  0  0  0  0  0  0  0  0  0  0
   -0.6627   -2.8678   -0.4908 H   0  0  0  0  0  0  0  0  0  0  0  0
   -1.4750   -0.6882   -1.4255 H   0  0  0  0  0  0  0  0  0  0  0  0
   -1.9996   -1.3450    0.1208 H   0  0  0  0  0  0  0  0  0  0  0  0
   -3.2948    2.3108   -0.0785 H   0  0  0  0  0  0  0  0  0  0  0  0
   -3.8454    0.6057    0.3388 H   0  0  0  0  0  0  0  0  0  0  0  0
   -3.2588    0.9673   -1.3443 H   0  0  0  0  0  0  0  0  0  0  0  0
  1  2  1  0
  2  3  1  0
  3  4  1  0
  4  5  1  0
  4  6  1  0
  6  7  1  0
  7  8  1  0
  7  9  2  0
  1 10  1  0
  1 11  1  0
  1 12  1  0
  2 13  1  0
  2 14  1  0
  4 15  1  0
  5 16  1  0
  5 17  1  0
  5 18  1  0
  6 19  1  0
  6 20  1  0
  8 21  1  0
  8 22  1  0
  8 23  1  0
M  END
