
     RDKit          3D

 21 20  0  0  0  0  0  0  0  0999 V2000
   -2.9366   -0.3369   -0.5015 C   0  0  0  0  0  0  0  0  0  0  0  0
   -2.6631   -0.0259    0.9346 C   0  0  0  0  0  0  0  0  0  0  0  0
   -1.3398   -0.3658    1.2217 O   0  0  0  0  0  0  0  0  0  0  0  0
   -0.5381    0.3873    0.3924 C   0  0  0  0  0  0  0  0  0  0  0  0
    0.9141    0.1249    0.5918 C   0  0  0  0  0  0  0  0  0  0  0  0
    1.3167   -0.6674    1.4000 O   0  0  0  0  0  0  0  0  0  0  0  0
    1.8596    0.8774   -0.2444 C   0  0  0  0  0  0  0  0  0  0  0  0
    3.1494    0.4533   -0.0472 O   0  0  0  0  0  0  0  0  0  0  0  0
    3.3653   -0.8370   -0.4735 C   0  0  0  0  0  0  0  0  0  0  0  0
   -4.0238   -0.5336   -0.6053 H   0  0  0  0  0  0  0  0  0  0  0  0
   -2.7118    0.5044   -1.1913 H   0  0  0  0  0  0  0  0  0  0  0  0
   -2.3963   -1.2708   -0.7725 H   0  0  0  0  0  0  0  0  0  0  0  0
   -2.8065    1.0818    1.0706 H   0  0  0  0  0  0  0  0  0  0  0  0
   -3.3806   -0.5173    1.6200 H   0  0  0  0  0  0  0  0  0  0  0  0
   -0.7052    1.4519    0.5426 H   0  0  0  0  0  0  0  0  0  0  0  0
   -0.7803    0.1242   -0.6562 H   0  0  0  0  0  0  0  0  0  0  0  0
    1.5877    0.8230   -1.3307 H   0  0  0  0  0  0  0  0  0  0  0  0
    1.8303    1.9845   -0.0243 H   0  0  0  0  0  0  0  0  0  0  0  0
    2.7500   -1.5708    0.0287 H   0  0  0  0  0  0  0  0  0  0  0  0
    4.4378   -1.1339   -0.3961 H   0  0  0  0  0  0  0  0  0  0  0  0
    3.0713   -0.8818   -1.5593 H   0  0  0  0  0  0  0  0  0  0  0  0
  1  2  1  0
  2  3  1  0
  3  4  1  0
  4  5  1  0
  5  6  2  0
  5  7  1  0
  7  8  1  0
  8  9  1  0
  1 10  1  0
  1 11  1  0
  1 12  1  0
  2 13  1  0
  2 14  1  0
  4 15  1  0
  4 16  1  0
  7 17  1  0
  7 18  1  0
  9 19  1  0
  9 20  1  0
  9 21  1  0
M  END
