
     RDKit          3D

 21 21  0  0  0  0  0  0  0  0999 V2000
    3.5562   -0.0266    0.0919 C   0  0  0  0  0  0  0  0  0  0  0  0
    2.1592    0.3121   -0.3805 C   0  0  0  0  0  0  0  0  0  0  0  0
    1.2505   -0.3019    0.4668 O   0  0  0  0  0  0  0  0  0  0  0  0
   -0.0611   -0.0631    0.1328 C   0  0  0  0  0  0  0  0  0  0  0  0
   -0.7274    0.6156    1.2813 C   0  0  0  0  0  0  0  0  0  0  0  0
   -2.0587    0.5784    1.2994 C   0  0  0  0  0  0  0  0  0  0  0  0
   -2.8436   -0.1124    0.2170 C   0  0  0  0  0  0  0  0  0  0  0  0
   -1.9734   -0.9759   -0.6472 C   0  0  0  0  0  0  0  0  0  0  0  0
   -0.7551   -1.2825   -0.0432 O   0  0  0  0  0  0  0  0  0  0  0  0
    3.5006   -1.0233    0.5668 H   0  0  0  0  0  0  0  0  0  0  0  0
    3.8803    0.7493    0.8131 H   0  0  0  0  0  0  0  0  0  0  0  0
    4.2703   -0.0899   -0.7715 H   0  0  0  0  0  0  0  0  0  0  0  0
    2.0333    1.4004   -0.4609 H   0  0  0  0  0  0  0  0  0  0  0  0
    2.0639   -0.1154   -1.4048 H   0  0  0  0  0  0  0  0  0  0  0  0
   -0.1929    0.5819   -0.7601 H   0  0  0  0  0  0  0  0  0  0  0  0
   -0.1734    1.1214    2.0750 H   0  0  0  0  0  0  0  0  0  0  0  0
   -2.6140    1.0440    2.0931 H   0  0  0  0  0  0  0  0  0  0  0  0
   -3.6298   -0.7067    0.7311 H   0  0  0  0  0  0  0  0  0  0  0  0
   -3.3824    0.6640   -0.3742 H   0  0  0  0  0  0  0  0  0  0  0  0
   -2.4893   -1.9443   -0.8216 H   0  0  0  0  0  0  0  0  0  0  0  0
   -1.8131   -0.4251   -1.6188 H   0  0  0  0  0  0  0  0  0  0  0  0
  1  2  1  0
  2  3  1  0
  3  4  1  0
  4  5  1  0
  5  6  2  0
  6  7  1  0
  7  8  1  0
  8  9  1  0
  9  4  1  0
  1 10  1  0
  1 11  1  0
  1 12  1  0
  2 13  1  0
  2 14  1  0
  4 15  1  0
  5 16  1  0
  6 17  1  0
  7 18  1  0
  7 19  1  0
  8 20  1  0
  8 21  1  0
M  END
