
     RDKit          3D

 21 22  0  0  0  0  0  0  0  0999 V2000
    3.2832    0.4523    0.0303 C   0  0  0  0  0  0  0  0  0  0  0  0
    1.9687   -0.3429    0.0651 C   0  0  0  0  0  0  0  0  0  0  0  0
    1.1105    0.2951   -0.7904 O   0  0  0  0  0  0  0  0  0  0  0  0
   -0.1312   -0.2348   -0.9521 C   0  0  0  0  0  0  0  0  0  0  0  0
   -0.8821   -0.2741    0.3303 C   0  0  0  0  0  0  0  0  0  0  0  0
   -2.2829   -0.8515    0.2086 C   0  0  0  0  0  0  0  0  0  0  0  0
   -2.8489    0.3214    0.9367 C   0  0  0  0  0  0  0  0  0  0  0  0
   -2.1963    0.8928    2.0030 O   0  0  0  0  0  0  0  0  0  0  0  0
   -1.4763    0.9842    0.8407 C   0  0  0  0  0  0  0  0  0  0  0  0
    3.2039    1.3519    0.6773 H   0  0  0  0  0  0  0  0  0  0  0  0
    3.4487    0.7624   -1.0051 H   0  0  0  0  0  0  0  0  0  0  0  0
    4.0856   -0.2301    0.3586 H   0  0  0  0  0  0  0  0  0  0  0  0
    2.2340   -1.3696   -0.2382 H   0  0  0  0  0  0  0  0  0  0  0  0
    1.6436   -0.2704    1.1280 H   0  0  0  0  0  0  0  0  0  0  0  0
   -0.6967    0.4160   -1.6730 H   0  0  0  0  0  0  0  0  0  0  0  0
   -0.0793   -1.2395   -1.4242 H   0  0  0  0  0  0  0  0  0  0  0  0
   -0.2744   -0.8025    1.1239 H   0  0  0  0  0  0  0  0  0  0  0  0
   -2.5870   -0.8299   -0.8616 H   0  0  0  0  0  0  0  0  0  0  0  0
   -2.4201   -1.8450    0.6523 H   0  0  0  0  0  0  0  0  0  0  0  0
   -3.7204    0.8750    0.5402 H   0  0  0  0  0  0  0  0  0  0  0  0
   -1.3826    1.9393    0.2979 H   0  0  0  0  0  0  0  0  0  0  0  0
  1  2  1  0
  2  3  1  0
  3  4  1  0
  4  5  1  0
  5  6  1  0
  6  7  1  0
  7  8  1  0
  8  9  1  0
  9  5  1  0
  9  7  1  0
  1 10  1  0
  1 11  1  0
  1 12  1  0
  2 13  1  0
  2 14  1  0
  4 15  1  0
  4 16  1  0
  5 17  1  0
  6 18  1  0
  6 19  1  0
  7 20  1  0
  9 21  1  0
M  END
