
     RDKit          3D

 21 22  0  0  0  0  0  0  0  0999 V2000
    2.4836   -0.8140   -0.4484 C   0  0  0  0  0  0  0  0  0  0  0  0
    2.1880    0.4152    0.3771 C   0  0  0  0  0  0  0  0  0  0  0  0
    0.8949    0.3173    0.9098 O   0  0  0  0  0  0  0  0  0  0  0  0
   -0.0220    0.2214   -0.0999 C   0  0  0  0  0  0  0  0  0  0  0  0
   -0.8468   -1.0551    0.1695 C   0  0  0  0  0  0  0  0  0  0  0  0
   -2.0927   -0.3629    0.6530 C   0  0  0  0  0  0  0  0  0  0  0  0
   -2.3563    0.6318   -0.4612 C   0  0  0  0  0  0  0  0  0  0  0  0
   -1.1303    1.2161    0.1602 C   0  0  0  0  0  0  0  0  0  0  0  0
   -1.6308    0.7439    1.3964 O   0  0  0  0  0  0  0  0  0  0  0  0
    1.5947   -1.4880   -0.4763 H   0  0  0  0  0  0  0  0  0  0  0  0
    3.3479   -1.3610   -0.0004 H   0  0  0  0  0  0  0  0  0  0  0  0
    2.6979   -0.5199   -1.5018 H   0  0  0  0  0  0  0  0  0  0  0  0
    2.9311    0.4965    1.2150 H   0  0  0  0  0  0  0  0  0  0  0  0
    2.2879    1.3577   -0.2333 H   0  0  0  0  0  0  0  0  0  0  0  0
    0.3672    0.2348   -1.1103 H   0  0  0  0  0  0  0  0  0  0  0  0
   -0.3694   -1.6978    0.9034 H   0  0  0  0  0  0  0  0  0  0  0  0
   -1.0718   -1.5331   -0.7970 H   0  0  0  0  0  0  0  0  0  0  0  0
   -2.9005   -0.9270    1.0425 H   0  0  0  0  0  0  0  0  0  0  0  0
   -3.2435    1.2596   -0.3042 H   0  0  0  0  0  0  0  0  0  0  0  0
   -2.2051    0.2260   -1.4741 H   0  0  0  0  0  0  0  0  0  0  0  0
   -0.9241    2.2580    0.0803 H   0  0  0  0  0  0  0  0  0  0  0  0
  1  2  1  0
  2  3  1  0
  3  4  1  0
  4  5  1  0
  5  6  1  0
  6  7  1  0
  7  8  1  0
  8  9  1  0
  8  4  1  0
  9  6  1  0
  1 10  1  0
  1 11  1  0
  1 12  1  0
  2 13  1  0
  2 14  1  0
  4 15  1  0
  5 16  1  0
  5 17  1  0
  6 18  1  0
  7 19  1  0
  7 20  1  0
  8 21  1  0
M  END
