
     RDKit          3D

 21 22  0  0  0  0  0  0  0  0999 V2000
    2.4740    0.9981   -0.1215 C   0  0  0  0  0  0  0  0  0  0  0  0
    2.0487   -0.1450   -0.9749 C   0  0  0  0  0  0  0  0  0  0  0  0
    0.6930   -0.3793   -0.9976 O   0  0  0  0  0  0  0  0  0  0  0  0
    0.1313   -0.6658    0.2187 C   0  0  0  0  0  0  0  0  0  0  0  0
   -1.0406   -1.7010    0.2222 C   0  0  0  0  0  0  0  0  0  0  0  0
   -1.2701   -0.2828    0.3838 C   0  0  0  0  0  0  0  0  0  0  0  0
   -1.8585    0.4039    1.5296 C   0  0  0  0  0  0  0  0  0  0  0  0
   -2.5486    1.2451    0.6245 O   0  0  0  0  0  0  0  0  0  0  0  0
   -2.0146    0.6088   -0.5197 C   0  0  0  0  0  0  0  0  0  0  0  0
    3.3394    1.5209   -0.6260 H   0  0  0  0  0  0  0  0  0  0  0  0
    2.9170    0.5882    0.8204 H   0  0  0  0  0  0  0  0  0  0  0  0
    1.7170    1.7633    0.0571 H   0  0  0  0  0  0  0  0  0  0  0  0
    2.3698    0.0415   -2.0241 H   0  0  0  0  0  0  0  0  0  0  0  0
    2.5484   -1.0766   -0.6565 H   0  0  0  0  0  0  0  0  0  0  0  0
    0.7493   -0.6995    1.1385 H   0  0  0  0  0  0  0  0  0  0  0  0
   -1.1540   -2.2470   -0.7343 H   0  0  0  0  0  0  0  0  0  0  0  0
   -1.1077   -2.3530    1.1102 H   0  0  0  0  0  0  0  0  0  0  0  0
   -1.1640    1.0213    2.1130 H   0  0  0  0  0  0  0  0  0  0  0  0
   -2.6223   -0.1257    2.1364 H   0  0  0  0  0  0  0  0  0  0  0  0
   -2.8416    0.1804   -1.1088 H   0  0  0  0  0  0  0  0  0  0  0  0
   -1.3657    1.3042   -1.1214 H   0  0  0  0  0  0  0  0  0  0  0  0
  1  2  1  0
  2  3  1  0
  3  4  1  0
  4  5  1  0
  5  6  1  0
  6  7  1  0
  7  8  1  0
  8  9  1  0
  6  4  1  0
  9  6  1  0
  1 10  1  0
  1 11  1  0
  1 12  1  0
  2 13  1  0
  2 14  1  0
  4 15  1  0
  5 16  1  0
  5 17  1  0
  7 18  1  0
  7 19  1  0
  9 20  1  0
  9 21  1  0
M  END
