
     RDKit          3D

 25 25  0  0  0  0  0  0  0  0999 V2000
    3.3161   -0.9812   -0.1366 C   0  0  0  0  0  0  0  0  0  0  0  0
    2.1067   -0.1968    0.2550 C   0  0  0  0  0  0  0  0  0  0  0  0
    0.9969   -0.4788   -0.5401 O   0  0  0  0  0  0  0  0  0  0  0  0
   -0.0793    0.2945   -0.1046 C   0  0  0  0  0  0  0  0  0  0  0  0
    0.1525    1.7752   -0.1754 C   0  0  0  0  0  0  0  0  0  0  0  0
   -0.7764   -0.2870    1.0965 C   0  0  0  0  0  0  0  0  0  0  0  0
   -1.4649   -0.1749   -0.2355 C   0  0  0  0  0  0  0  0  0  0  0  0
   -1.7183   -1.4059   -1.0515 C   0  0  0  0  0  0  0  0  0  0  0  0
   -2.5705    0.8651   -0.2672 C   0  0  0  0  0  0  0  0  0  0  0  0
    3.2805   -1.9676    0.3803 H   0  0  0  0  0  0  0  0  0  0  0  0
    4.2365   -0.4371    0.2153 H   0  0  0  0  0  0  0  0  0  0  0  0
    3.3859   -1.1674   -1.2289 H   0  0  0  0  0  0  0  0  0  0  0  0
    2.3611    0.8802    0.1852 H   0  0  0  0  0  0  0  0  0  0  0  0
    1.8527   -0.4749    1.3196 H   0  0  0  0  0  0  0  0  0  0  0  0
    1.0189    2.0407   -0.8164 H   0  0  0  0  0  0  0  0  0  0  0  0
   -0.7316    2.2387   -0.6590 H   0  0  0  0  0  0  0  0  0  0  0  0
    0.2275    2.2551    0.8331 H   0  0  0  0  0  0  0  0  0  0  0  0
   -1.0516    0.4130    1.9200 H   0  0  0  0  0  0  0  0  0  0  0  0
   -0.5486   -1.3055    1.4141 H   0  0  0  0  0  0  0  0  0  0  0  0
   -0.8160   -1.7035   -1.6268 H   0  0  0  0  0  0  0  0  0  0  0  0
   -2.5119   -1.1987   -1.7943 H   0  0  0  0  0  0  0  0  0  0  0  0
   -2.0885   -2.2061   -0.3960 H   0  0  0  0  0  0  0  0  0  0  0  0
   -2.7336    1.1805   -1.2989 H   0  0  0  0  0  0  0  0  0  0  0  0
   -3.4791    0.3448    0.1478 H   0  0  0  0  0  0  0  0  0  0  0  0
   -2.3651    1.6975    0.4365 H   0  0  0  0  0  0  0  0  0  0  0  0
  1  2  1  0
  2  3  1  0
  3  4  1  0
  4  5  1  0
  4  6  1  0
  6  7  1  0
  7  8  1  0
  7  9  1  0
  7  4  1  0
  1 10  1  0
  1 11  1  0
  1 12  1  0
  2 13  1  0
  2 14  1  0
  5 15  1  0
  5 16  1  0
  5 17  1  0
  6 18  1  0
  6 19  1  0
  8 20  1  0
  8 21  1  0
  8 22  1  0
  9 23  1  0
  9 24  1  0
  9 25  1  0
M  END
