
     RDKit          3D

 23 23  0  0  0  0  0  0  0  0999 V2000
    3.1711    0.9134    0.1132 C   0  0  0  0  0  0  0  0  0  0  0  0
    2.0413   -0.1054    0.1056 C   0  0  0  0  0  0  0  0  0  0  0  0
    1.1016    0.2657   -0.8319 O   0  0  0  0  0  0  0  0  0  0  0  0
    0.0248   -0.5804   -0.9408 C   0  0  0  0  0  0  0  0  0  0  0  0
   -0.7811   -0.7444    0.3018 C   0  0  0  0  0  0  0  0  0  0  0  0
   -1.9389   -1.7076    0.0290 C   0  0  0  0  0  0  0  0  0  0  0  0
   -2.6947   -0.6070   -0.3407 O   0  0  0  0  0  0  0  0  0  0  0  0
   -1.9362    0.1816    0.5005 C   0  0  0  0  0  0  0  0  0  0  0  0
   -1.7362    1.6055    0.0979 C   0  0  0  0  0  0  0  0  0  0  0  0
    4.0281    0.4125    0.6419 H   0  0  0  0  0  0  0  0  0  0  0  0
    2.9113    1.8344    0.6472 H   0  0  0  0  0  0  0  0  0  0  0  0
    3.5395    1.1345   -0.9078 H   0  0  0  0  0  0  0  0  0  0  0  0
    1.6352   -0.1076    1.1463 H   0  0  0  0  0  0  0  0  0  0  0  0
    2.4828   -1.0949   -0.0969 H   0  0  0  0  0  0  0  0  0  0  0  0
    0.4218   -1.6067   -1.2016 H   0  0  0  0  0  0  0  0  0  0  0  0
   -0.5877   -0.2966   -1.8225 H   0  0  0  0  0  0  0  0  0  0  0  0
   -0.1976   -0.9760    1.1890 H   0  0  0  0  0  0  0  0  0  0  0  0
   -2.2135   -2.2024    0.9723 H   0  0  0  0  0  0  0  0  0  0  0  0
   -1.7719   -2.3839   -0.8327 H   0  0  0  0  0  0  0  0  0  0  0  0
   -2.3172    0.1161    1.5371 H   0  0  0  0  0  0  0  0  0  0  0  0
   -1.0438    2.0711    0.8262 H   0  0  0  0  0  0  0  0  0  0  0  0
   -1.4221    1.7478   -0.9376 H   0  0  0  0  0  0  0  0  0  0  0  0
   -2.7164    2.1304    0.2439 H   0  0  0  0  0  0  0  0  0  0  0  0
  1  2  1  0
  2  3  1  0
  3  4  1  0
  4  5  1  0
  5  6  1  0
  6  7  1  0
  7  8  1  0
  8  9  1  0
  8  5  1  0
  1 10  1  0
  1 11  1  0
  1 12  1  0
  2 13  1  0
  2 14  1  0
  4 15  1  0
  4 16  1  0
  5 17  1  0
  6 18  1  0
  6 19  1  0
  8 20  1  0
  9 21  1  0
  9 22  1  0
  9 23  1  0
M  END
