
     RDKit          3D

 21 20  0  0  0  0  0  0  0  0999 V2000
    3.2976    0.5708    0.5805 C   0  0  0  0  0  0  0  0  0  0  0  0
    2.1006   -0.2393    0.1591 C   0  0  0  0  0  0  0  0  0  0  0  0
    0.9143    0.4886    0.2433 O   0  0  0  0  0  0  0  0  0  0  0  0
   -0.1059   -0.3404   -0.1613 C   0  0  0  0  0  0  0  0  0  0  0  0
   -1.4593    0.2941   -0.1296 C   0  0  0  0  0  0  0  0  0  0  0  0
   -1.8432    0.7586    1.2578 C   0  0  0  0  0  0  0  0  0  0  0  0
   -2.4623   -0.7780   -0.5791 C   0  0  0  0  0  0  0  0  0  0  0  0
    3.2124    0.8488    1.6382 H   0  0  0  0  0  0  0  0  0  0  0  0
    4.1966   -0.0599    0.3734 H   0  0  0  0  0  0  0  0  0  0  0  0
    3.3662    1.4544   -0.1050 H   0  0  0  0  0  0  0  0  0  0  0  0
    1.9740   -1.1074    0.8550 H   0  0  0  0  0  0  0  0  0  0  0  0
    2.2558   -0.6083   -0.8840 H   0  0  0  0  0  0  0  0  0  0  0  0
    0.0997   -0.6363   -1.2136 H   0  0  0  0  0  0  0  0  0  0  0  0
   -0.1434   -1.2826    0.4286 H   0  0  0  0  0  0  0  0  0  0  0  0
   -1.5376    1.1548   -0.8076 H   0  0  0  0  0  0  0  0  0  0  0  0
   -1.1086    0.4104    2.0248 H   0  0  0  0  0  0  0  0  0  0  0  0
   -1.9780    1.8576    1.3123 H   0  0  0  0  0  0  0  0  0  0  0  0
   -2.8397    0.3245    1.5549 H   0  0  0  0  0  0  0  0  0  0  0  0
   -3.4848   -0.3868   -0.6034 H   0  0  0  0  0  0  0  0  0  0  0  0
   -2.3412   -1.6203    0.1481 H   0  0  0  0  0  0  0  0  0  0  0  0
   -2.1131   -1.1034   -1.5880 H   0  0  0  0  0  0  0  0  0  0  0  0
  1  2  1  0
  2  3  1  0
  3  4  1  0
  4  5  1  0
  5  6  1  0
  5  7  1  0
  1  8  1  0
  1  9  1  0
  1 10  1  0
  2 11  1  0
  2 12  1  0
  4 13  1  0
  4 14  1  0
  5 15  1  0
  6 16  1  0
  6 17  1  0
  6 18  1  0
  7 19  1  0
  7 20  1  0
  7 21  1  0
M  END
