
     RDKit          3D

 25 25  0  0  0  0  0  0  0  0999 V2000
   -1.9431    0.7987   -2.1711 C   0  0  0  0  0  0  0  0  0  0  0  0
   -1.4319    0.4579   -0.7878 C   0  0  0  0  0  0  0  0  0  0  0  0
   -0.1376    0.0028   -0.7921 O   0  0  0  0  0  0  0  0  0  0  0  0
    0.3256   -0.3109    0.4559 C   0  0  0  0  0  0  0  0  0  0  0  0
    0.3381    0.8339    1.4639 C   0  0  0  0  0  0  0  0  0  0  0  0
    1.2050    1.9602    0.9889 C   0  0  0  0  0  0  0  0  0  0  0  0
    1.6597   -1.0173    0.5082 C   0  0  0  0  0  0  0  0  0  0  0  0
    0.9158   -2.3354    0.4711 C   0  0  0  0  0  0  0  0  0  0  0  0
   -0.3040   -1.5727    0.9969 C   0  0  0  0  0  0  0  0  0  0  0  0
   -2.6857    1.6224   -2.0872 H   0  0  0  0  0  0  0  0  0  0  0  0
   -2.4604   -0.0489   -2.6541 H   0  0  0  0  0  0  0  0  0  0  0  0
   -1.1216    1.2134   -2.8154 H   0  0  0  0  0  0  0  0  0  0  0  0
   -2.1405   -0.2734   -0.3588 H   0  0  0  0  0  0  0  0  0  0  0  0
   -1.4817    1.3885   -0.1490 H   0  0  0  0  0  0  0  0  0  0  0  0
   -0.7035    1.1226    1.7051 H   0  0  0  0  0  0  0  0  0  0  0  0
    0.7598    0.4701    2.4465 H   0  0  0  0  0  0  0  0  0  0  0  0
    2.2605    1.8706    1.3730 H   0  0  0  0  0  0  0  0  0  0  0  0
    1.3047    1.9617   -0.1301 H   0  0  0  0  0  0  0  0  0  0  0  0
    0.7899    2.9178    1.3526 H   0  0  0  0  0  0  0  0  0  0  0  0
    2.1733   -0.9014    1.4943 H   0  0  0  0  0  0  0  0  0  0  0  0
    2.3041   -0.8688   -0.3672 H   0  0  0  0  0  0  0  0  0  0  0  0
    1.2843   -3.0912    1.1951 H   0  0  0  0  0  0  0  0  0  0  0  0
    0.7081   -2.7248   -0.5497 H   0  0  0  0  0  0  0  0  0  0  0  0
   -0.3926   -1.5970    2.1034 H   0  0  0  0  0  0  0  0  0  0  0  0
   -1.2263   -1.8789    0.5030 H   0  0  0  0  0  0  0  0  0  0  0  0
  1  2  1  0
  2  3  1  0
  3  4  1  0
  4  5  1  0
  5  6  1  0
  4  7  1  0
  7  8  1  0
  8  9  1  0
  9  4  1  0
  1 10  1  0
  1 11  1  0
  1 12  1  0
  2 13  1  0
  2 14  1  0
  5 15  1  0
  5 16  1  0
  6 17  1  0
  6 18  1  0
  6 19  1  0
  7 20  1  0
  7 21  1  0
  8 22  1  0
  8 23  1  0
  9 24  1  0
  9 25  1  0
M  END
