
     RDKit          3D

 25 24  0  0  0  0  0  0  0  0999 V2000
    3.0077   -0.0500   -0.7840 C   0  0  0  0  0  0  0  0  0  0  0  0
    2.3904    0.7473    0.3428 C   0  0  0  0  0  0  0  0  0  0  0  0
    1.0295    0.8948    0.2055 O   0  0  0  0  0  0  0  0  0  0  0  0
    0.4042   -0.3481    0.1878 C   0  0  0  0  0  0  0  0  0  0  0  0
   -1.0776   -0.2600    0.0408 C   0  0  0  0  0  0  0  0  0  0  0  0
   -1.6346   -1.6662    0.0353 C   0  0  0  0  0  0  0  0  0  0  0  0
   -1.5200    0.4138   -1.2228 C   0  0  0  0  0  0  0  0  0  0  0  0
   -1.7238    0.4726    1.2013 C   0  0  0  0  0  0  0  0  0  0  0  0
   -1.1995    1.7694    1.2518 O   0  0  0  0  0  0  0  0  0  0  0  0
    2.8993   -1.1377   -0.6339 H   0  0  0  0  0  0  0  0  0  0  0  0
    2.5994    0.2171   -1.7716 H   0  0  0  0  0  0  0  0  0  0  0  0
    4.1110    0.1630   -0.7520 H   0  0  0  0  0  0  0  0  0  0  0  0
    2.6048    0.1823    1.2870 H   0  0  0  0  0  0  0  0  0  0  0  0
    2.8818    1.7304    0.4682 H   0  0  0  0  0  0  0  0  0  0  0  0
    0.8252   -0.9175   -0.6405 H   0  0  0  0  0  0  0  0  0  0  0  0
    0.6198   -0.8214    1.1698 H   0  0  0  0  0  0  0  0  0  0  0  0
   -0.9582   -2.2948    0.6513 H   0  0  0  0  0  0  0  0  0  0  0  0
   -2.6387   -1.6788    0.5375 H   0  0  0  0  0  0  0  0  0  0  0  0
   -1.7295   -2.0700   -1.0132 H   0  0  0  0  0  0  0  0  0  0  0  0
   -2.5575    0.7831   -1.0582 H   0  0  0  0  0  0  0  0  0  0  0  0
   -1.5102   -0.2349   -2.1113 H   0  0  0  0  0  0  0  0  0  0  0  0
   -0.8998    1.3111   -1.4747 H   0  0  0  0  0  0  0  0  0  0  0  0
   -2.8148    0.5709    1.0551 H   0  0  0  0  0  0  0  0  0  0  0  0
   -1.5413   -0.0868    2.1179 H   0  0  0  0  0  0  0  0  0  0  0  0
   -1.5675    2.3103    0.5180 H   0  0  0  0  0  0  0  0  0  0  0  0
  1  2  1  0
  2  3  1  0
  3  4  1  0
  4  5  1  0
  5  6  1  0
  5  7  1  0
  5  8  1  0
  8  9  1  0
  1 10  1  0
  1 11  1  0
  1 12  1  0
  2 13  1  0
  2 14  1  0
  4 15  1  0
  4 16  1  0
  6 17  1  0
  6 18  1  0
  6 19  1  0
  7 20  1  0
  7 21  1  0
  7 22  1  0
  8 23  1  0
  8 24  1  0
  9 25  1  0
M  END
