
     RDKit          3D

 21 21  0  0  0  0  0  0  0  0999 V2000
   -3.5271   -0.1716   -0.3995 C   0  0  0  0  0  0  0  0  0  0  0  0
   -2.6687    0.2600    0.7310 C   0  0  0  0  0  0  0  0  0  0  0  0
   -1.4054   -0.1887    0.7839 O   0  0  0  0  0  0  0  0  0  0  0  0
   -0.5508    0.0851   -0.2189 C   0  0  0  0  0  0  0  0  0  0  0  0
    0.8058   -0.5254    0.0694 C   0  0  0  0  0  0  0  0  0  0  0  0
    1.4083   -0.0317    1.2904 O   0  0  0  0  0  0  0  0  0  0  0  0
    1.9737    0.2891   -0.0238 C   0  0  0  0  0  0  0  0  0  0  0  0
    3.3756   -0.1759   -0.1627 C   0  0  0  0  0  0  0  0  0  0  0  0
    4.1413    0.4655    0.8363 O   0  0  0  0  0  0  0  0  0  0  0  0
   -3.6518   -1.2698   -0.3507 H   0  0  0  0  0  0  0  0  0  0  0  0
   -4.5353    0.2754   -0.2563 H   0  0  0  0  0  0  0  0  0  0  0  0
   -3.1983    0.0954   -1.3957 H   0  0  0  0  0  0  0  0  0  0  0  0
   -2.6490    1.3899    0.7242 H   0  0  0  0  0  0  0  0  0  0  0  0
   -3.1895   -0.0013    1.6783 H   0  0  0  0  0  0  0  0  0  0  0  0
   -0.9165   -0.4282   -1.1514 H   0  0  0  0  0  0  0  0  0  0  0  0
   -0.4040    1.1465   -0.4684 H   0  0  0  0  0  0  0  0  0  0  0  0
    0.8575   -1.6292    0.0625 H   0  0  0  0  0  0  0  0  0  0  0  0
    1.8382    1.3945   -0.1782 H   0  0  0  0  0  0  0  0  0  0  0  0
    3.7682    0.1051   -1.1419 H   0  0  0  0  0  0  0  0  0  0  0  0
    3.4460   -1.2777   -0.0287 H   0  0  0  0  0  0  0  0  0  0  0  0
    5.0815    0.1931    0.6845 H   0  0  0  0  0  0  0  0  0  0  0  0
  1  2  1  0
  2  3  1  0
  3  4  1  0
  4  5  1  0
  5  6  1  0
  6  7  1  0
  7  8  1  0
  8  9  1  0
  7  5  1  0
  1 10  1  0
  1 11  1  0
  1 12  1  0
  2 13  1  0
  2 14  1  0
  4 15  1  0
  4 16  1  0
  5 17  1  0
  7 18  1  0
  8 19  1  0
  8 20  1  0
  9 21  1  0
M  END
