
     RDKit          3D

 17 17  0  0  0  0  0  0  0  0999 V2000
   -2.7336    0.0912    0.7854 C   0  0  0  0  0  0  0  0  0  0  0  0
   -1.6008   -0.2880   -0.1435 C   0  0  0  0  0  0  0  0  0  0  0  0
   -0.3904    0.0221    0.4447 O   0  0  0  0  0  0  0  0  0  0  0  0
    0.6385   -0.3442   -0.4472 C   0  0  0  0  0  0  0  0  0  0  0  0
    1.3984    0.8809   -0.7016 C   0  0  0  0  0  0  0  0  0  0  0  0
    2.5989    0.7438   -0.2367 C   0  0  0  0  0  0  0  0  0  0  0  0
    2.7226   -0.5711    0.3553 C   0  0  0  0  0  0  0  0  0  0  0  0
    3.7222   -1.1147    0.9221 O   0  0  0  0  0  0  0  0  0  0  0  0
    1.5092   -1.2185    0.2142 O   0  0  0  0  0  0  0  0  0  0  0  0
   -2.9045   -0.6634    1.5670 H   0  0  0  0  0  0  0  0  0  0  0  0
   -3.6980    0.2216    0.2184 H   0  0  0  0  0  0  0  0  0  0  0  0
   -2.5480    1.0576    1.3030 H   0  0  0  0  0  0  0  0  0  0  0  0
   -1.7231    0.1476   -1.1541 H   0  0  0  0  0  0  0  0  0  0  0  0
   -1.6097   -1.4024   -0.2846 H   0  0  0  0  0  0  0  0  0  0  0  0
    0.2106   -0.7806   -1.3774 H   0  0  0  0  0  0  0  0  0  0  0  0
    1.0026    1.7444   -1.1971 H   0  0  0  0  0  0  0  0  0  0  0  0
    3.4050    1.4735   -0.2681 H   0  0  0  0  0  0  0  0  0  0  0  0
  1  2  1  0
  2  3  1  0
  3  4  1  0
  4  5  1  0
  5  6  2  0
  6  7  1  0
  7  8  2  0
  7  9  1  0
  9  4  1  0
  1 10  1  0
  1 11  1  0
  1 12  1  0
  2 13  1  0
  2 14  1  0
  4 15  1  0
  5 16  1  0
  6 17  1  0
M  END
