
     RDKit          3D

 23 23  0  0  0  0  0  0  0  0999 V2000
    3.9275    0.1070   -0.2929 C   0  0  0  0  0  0  0  0  0  0  0  0
    2.6370   -0.6869   -0.3117 C   0  0  0  0  0  0  0  0  0  0  0  0
    1.6196    0.1849    0.0564 O   0  0  0  0  0  0  0  0  0  0  0  0
    0.3719   -0.4149    0.0811 C   0  0  0  0  0  0  0  0  0  0  0  0
   -0.6306    0.6325    0.4922 C   0  0  0  0  0  0  0  0  0  0  0  0
   -2.0341    0.1023    0.5569 C   0  0  0  0  0  0  0  0  0  0  0  0
   -2.6681   -0.4740   -0.6868 C   0  0  0  0  0  0  0  0  0  0  0  0
   -2.9718    0.9819    1.3905 C   0  0  0  0  0  0  0  0  0  0  0  0
   -2.5698   -0.3014    1.7763 O   0  0  0  0  0  0  0  0  0  0  0  0
    3.7878    1.1461   -0.6553 H   0  0  0  0  0  0  0  0  0  0  0  0
    4.3407    0.0940    0.7411 H   0  0  0  0  0  0  0  0  0  0  0  0
    4.6326   -0.4109   -0.9750 H   0  0  0  0  0  0  0  0  0  0  0  0
    2.5111   -1.0891   -1.3238 H   0  0  0  0  0  0  0  0  0  0  0  0
    2.7734   -1.5036    0.4461 H   0  0  0  0  0  0  0  0  0  0  0  0
    0.0986   -0.7502   -0.9433 H   0  0  0  0  0  0  0  0  0  0  0  0
    0.3161   -1.2559    0.7724 H   0  0  0  0  0  0  0  0  0  0  0  0
   -0.6438    1.4819   -0.2444 H   0  0  0  0  0  0  0  0  0  0  0  0
   -0.3804    1.0235    1.5061 H   0  0  0  0  0  0  0  0  0  0  0  0
   -3.4207    0.2556   -1.0467 H   0  0  0  0  0  0  0  0  0  0  0  0
   -3.2166   -1.4038   -0.3943 H   0  0  0  0  0  0  0  0  0  0  0  0
   -1.9374   -0.6540   -1.4968 H   0  0  0  0  0  0  0  0  0  0  0  0
   -3.9985    1.1348    1.0157 H   0  0  0  0  0  0  0  0  0  0  0  0
   -2.5445    1.8001    1.9769 H   0  0  0  0  0  0  0  0  0  0  0  0
  1  2  1  0
  2  3  1  0
  3  4  1  0
  4  5  1  0
  5  6  1  0
  6  7  1  0
  6  8  1  0
  8  9  1  0
  9  6  1  0
  1 10  1  0
  1 11  1  0
  1 12  1  0
  2 13  1  0
  2 14  1  0
  4 15  1  0
  4 16  1  0
  5 17  1  0
  5 18  1  0
  7 19  1  0
  7 20  1  0
  7 21  1  0
  8 22  1  0
  8 23  1  0
M  END
