
     RDKit          3D

 21 20  0  0  0  0  0  0  0  0999 V2000
    2.9111    0.1400    0.4597 C   0  0  0  0  0  0  0  0  0  0  0  0
    2.2135    0.8940   -0.6437 C   0  0  0  0  0  0  0  0  0  0  0  0
    0.8389    1.0832   -0.3943 O   0  0  0  0  0  0  0  0  0  0  0  0
    0.0196   -0.0067   -0.2326 C   0  0  0  0  0  0  0  0  0  0  0  0
    0.5281   -1.1478   -0.3133 O   0  0  0  0  0  0  0  0  0  0  0  0
   -1.4357    0.0765    0.0328 C   0  0  0  0  0  0  0  0  0  0  0  0
   -2.1478   -0.6352   -1.1119 C   0  0  0  0  0  0  0  0  0  0  0  0
   -1.7338   -0.6889    1.2967 C   0  0  0  0  0  0  0  0  0  0  0  0
   -1.9025    1.3659    0.1043 O   0  0  0  0  0  0  0  0  0  0  0  0
    2.2196   -0.3765    1.1371 H   0  0  0  0  0  0  0  0  0  0  0  0
    3.6135   -0.6072    0.0240 H   0  0  0  0  0  0  0  0  0  0  0  0
    3.5557    0.8199    1.0803 H   0  0  0  0  0  0  0  0  0  0  0  0
    2.3916    0.3620   -1.6093 H   0  0  0  0  0  0  0  0  0  0  0  0
    2.7389    1.8746   -0.7511 H   0  0  0  0  0  0  0  0  0  0  0  0
   -1.4463   -1.1250   -1.7973 H   0  0  0  0  0  0  0  0  0  0  0  0
   -2.7422    0.1020   -1.7245 H   0  0  0  0  0  0  0  0  0  0  0  0
   -2.8946   -1.3592   -0.7282 H   0  0  0  0  0  0  0  0  0  0  0  0
   -1.1537   -0.3409    2.1651 H   0  0  0  0  0  0  0  0  0  0  0  0
   -2.8320   -0.6859    1.5165 H   0  0  0  0  0  0  0  0  0  0  0  0
   -1.5022   -1.7693    1.0665 H   0  0  0  0  0  0  0  0  0  0  0  0
   -1.2398    2.0244    0.4235 H   0  0  0  0  0  0  0  0  0  0  0  0
  1  2  1  0
  2  3  1  0
  3  4  1  0
  4  5  2  0
  4  6  1  0
  6  7  1  0
  6  8  1  0
  6  9  1  0
  1 10  1  0
  1 11  1  0
  1 12  1  0
  2 13  1  0
  2 14  1  0
  7 15  1  0
  7 16  1  0
  7 17  1  0
  8 18  1  0
  8 19  1  0
  8 20  1  0
  9 21  1  0
M  END
