
     RDKit          3D

 23 23  0  0  0  0  0  0  0  0999 V2000
    3.5943    0.4112   -0.2005 C   0  0  0  0  0  0  0  0  0  0  0  0
    2.2469    0.0349    0.3635 C   0  0  0  0  0  0  0  0  0  0  0  0
    1.2178    0.2737   -0.5400 O   0  0  0  0  0  0  0  0  0  0  0  0
    0.0095   -0.0774    0.0002 C   0  0  0  0  0  0  0  0  0  0  0  0
   -0.9919    1.0369    0.0541 C   0  0  0  0  0  0  0  0  0  0  0  0
   -2.3516    0.6795   -0.4158 C   0  0  0  0  0  0  0  0  0  0  0  0
   -2.7603   -0.7341   -0.2554 C   0  0  0  0  0  0  0  0  0  0  0  0
   -1.7343   -1.6111    0.0399 O   0  0  0  0  0  0  0  0  0  0  0  0
   -0.6501   -1.2268   -0.7674 C   0  0  0  0  0  0  0  0  0  0  0  0
    3.7832    1.4912   -0.1939 H   0  0  0  0  0  0  0  0  0  0  0  0
    4.3783   -0.1753    0.3454 H   0  0  0  0  0  0  0  0  0  0  0  0
    3.6262    0.0318   -1.2516 H   0  0  0  0  0  0  0  0  0  0  0  0
    2.3150   -1.0537    0.6316 H   0  0  0  0  0  0  0  0  0  0  0  0
    2.0582    0.5616    1.3320 H   0  0  0  0  0  0  0  0  0  0  0  0
    0.1749   -0.4630    1.0258 H   0  0  0  0  0  0  0  0  0  0  0  0
   -1.0197    1.4542    1.0865 H   0  0  0  0  0  0  0  0  0  0  0  0
   -0.5958    1.8747   -0.5817 H   0  0  0  0  0  0  0  0  0  0  0  0
   -2.4508    0.9763   -1.4964 H   0  0  0  0  0  0  0  0  0  0  0  0
   -3.1044    1.3277    0.1194 H   0  0  0  0  0  0  0  0  0  0  0  0
   -3.5308   -0.8666    0.5536 H   0  0  0  0  0  0  0  0  0  0  0  0
   -3.2380   -1.1296   -1.2002 H   0  0  0  0  0  0  0  0  0  0  0  0
   -1.0198   -0.7611   -1.7165 H   0  0  0  0  0  0  0  0  0  0  0  0
    0.0430   -2.0550   -0.9344 H   0  0  0  0  0  0  0  0  0  0  0  0
  1  2  1  0
  2  3  1  0
  3  4  1  0
  4  5  1  0
  5  6  1  0
  6  7  1  0
  7  8  1  0
  8  9  1  0
  9  4  1  0
  1 10  1  0
  1 11  1  0
  1 12  1  0
  2 13  1  0
  2 14  1  0
  4 15  1  0
  5 16  1  0
  5 17  1  0
  6 18  1  0
  6 19  1  0
  7 20  1  0
  7 21  1  0
  9 22  1  0
  9 23  1  0
M  END
