
     RDKit          3D

 20 20  0  0  0  0  0  0  0  0999 V2000
    3.2392    0.5291   -0.6795 C   0  0  0  0  0  0  0  0  0  0  0  0
    2.0702   -0.2265   -0.1035 C   0  0  0  0  0  0  0  0  0  0  0  0
    0.8665    0.4632   -0.2514 O   0  0  0  0  0  0  0  0  0  0  0  0
   -0.1226   -0.3424    0.3199 C   0  0  0  0  0  0  0  0  0  0  0  0
   -1.4877    0.2641    0.2407 C   0  0  0  0  0  0  0  0  0  0  0  0
   -1.6266    1.4816    0.8727 O   0  0  0  0  0  0  0  0  0  0  0  0
   -2.6289   -0.7363    0.4429 C   0  0  0  0  0  0  0  0  0  0  0  0
   -2.4212   -0.1219   -0.8738 C   0  0  0  0  0  0  0  0  0  0  0  0
    3.0851    0.8235   -1.7330 H   0  0  0  0  0  0  0  0  0  0  0  0
    4.1017   -0.1935   -0.6904 H   0  0  0  0  0  0  0  0  0  0  0  0
    3.5448    1.3614   -0.0246 H   0  0  0  0  0  0  0  0  0  0  0  0
    1.9536   -1.2047   -0.5735 H   0  0  0  0  0  0  0  0  0  0  0  0
    2.2464   -0.2958    1.0056 H   0  0  0  0  0  0  0  0  0  0  0  0
   -0.0657   -1.3177   -0.2043 H   0  0  0  0  0  0  0  0  0  0  0  0
    0.1802   -0.4855    1.3837 H   0  0  0  0  0  0  0  0  0  0  0  0
   -2.0300    2.1686    0.2825 H   0  0  0  0  0  0  0  0  0  0  0  0
   -3.5147   -0.4114    1.0216 H   0  0  0  0  0  0  0  0  0  0  0  0
   -2.3617   -1.8084    0.5834 H   0  0  0  0  0  0  0  0  0  0  0  0
   -1.9036   -0.6527   -1.7119 H   0  0  0  0  0  0  0  0  0  0  0  0
   -3.1250    0.7052   -1.1779 H   0  0  0  0  0  0  0  0  0  0  0  0
  1  2  1  0
  2  3  1  0
  3  4  1  0
  4  5  1  0
  5  6  1  0
  5  7  1  0
  7  8  1  0
  8  5  1  0
  1  9  1  0
  1 10  1  0
  1 11  1  0
  2 12  1  0
  2 13  1  0
  4 14  1  0
  4 15  1  0
  6 16  1  0
  7 17  1  0
  7 18  1  0
  8 19  1  0
  8 20  1  0
M  END
