
     RDKit          3D

 21 21  0  0  0  0  0  0  0  0999 V2000
   -3.3139   -0.6937   -0.3731 C   0  0  0  0  0  0  0  0  0  0  0  0
   -2.0734    0.1324   -0.0709 C   0  0  0  0  0  0  0  0  0  0  0  0
   -1.0762   -0.1624   -0.9633 O   0  0  0  0  0  0  0  0  0  0  0  0
    0.0970    0.5301   -0.7884 C   0  0  0  0  0  0  0  0  0  0  0  0
    0.7673    0.3426    0.5159 C   0  0  0  0  0  0  0  0  0  0  0  0
    2.0629    1.1196    0.6813 C   0  0  0  0  0  0  0  0  0  0  0  0
    2.0117   -0.4224    0.7009 C   0  0  0  0  0  0  0  0  0  0  0  0
    2.7433   -1.0518   -0.3936 C   0  0  0  0  0  0  0  0  0  0  0  0
    3.4902   -1.9937   -0.2226 O   0  0  0  0  0  0  0  0  0  0  0  0
   -3.0433   -1.6163   -0.9222 H   0  0  0  0  0  0  0  0  0  0  0  0
   -3.8251   -1.0238    0.5538 H   0  0  0  0  0  0  0  0  0  0  0  0
   -4.0302   -0.1367   -1.0084 H   0  0  0  0  0  0  0  0  0  0  0  0
   -1.7933   -0.1215    0.9706 H   0  0  0  0  0  0  0  0  0  0  0  0
   -2.3817    1.1946   -0.1633 H   0  0  0  0  0  0  0  0  0  0  0  0
    0.7818    0.2122   -1.6233 H   0  0  0  0  0  0  0  0  0  0  0  0
   -0.1258    1.6221   -0.9685 H   0  0  0  0  0  0  0  0  0  0  0  0
    0.1093    0.4289    1.4184 H   0  0  0  0  0  0  0  0  0  0  0  0
    2.4851    1.6022   -0.1961 H   0  0  0  0  0  0  0  0  0  0  0  0
    2.2849    1.6020    1.6586 H   0  0  0  0  0  0  0  0  0  0  0  0
    2.1983   -0.8822    1.7106 H   0  0  0  0  0  0  0  0  0  0  0  0
    2.6312   -0.6821   -1.4024 H   0  0  0  0  0  0  0  0  0  0  0  0
  1  2  1  0
  2  3  1  0
  3  4  1  0
  4  5  1  0
  5  6  1  0
  6  7  1  0
  7  8  1  0
  8  9  2  0
  7  5  1  0
  1 10  1  0
  1 11  1  0
  1 12  1  0
  2 13  1  0
  2 14  1  0
  4 15  1  0
  4 16  1  0
  5 17  1  0
  6 18  1  0
  6 19  1  0
  7 20  1  0
  8 21  1  0
M  END
