
     RDKit          3D

 25 25  0  0  0  0  0  0  0  0999 V2000
    3.3624   -0.2496    0.2789 C   0  0  0  0  0  0  0  0  0  0  0  0
    1.8536   -0.3210   -0.0588 C   0  0  0  0  0  0  0  0  0  0  0  0
    1.1532    0.6192    0.6062 O   0  0  0  0  0  0  0  0  0  0  0  0
   -0.1778    0.6666    0.2712 C   0  0  0  0  0  0  0  0  0  0  0  0
   -1.0698   -0.5108    0.4663 C   0  0  0  0  0  0  0  0  0  0  0  0
   -0.7802   -1.7531   -0.2774 C   0  0  0  0  0  0  0  0  0  0  0  0
   -2.5416   -0.1379    0.2316 C   0  0  0  0  0  0  0  0  0  0  0  0
   -0.8472    2.0034    0.3505 C   0  0  0  0  0  0  0  0  0  0  0  0
   -0.4282    1.5426   -0.9741 C   0  0  0  0  0  0  0  0  0  0  0  0
    3.5136   -0.0142    1.3346 H   0  0  0  0  0  0  0  0  0  0  0  0
    3.8587    0.4706   -0.4085 H   0  0  0  0  0  0  0  0  0  0  0  0
    3.7566   -1.2511    0.0011 H   0  0  0  0  0  0  0  0  0  0  0  0
    1.5248   -1.3262    0.3575 H   0  0  0  0  0  0  0  0  0  0  0  0
    1.7924   -0.2789   -1.1568 H   0  0  0  0  0  0  0  0  0  0  0  0
   -1.0087   -0.7712    1.5690 H   0  0  0  0  0  0  0  0  0  0  0  0
   -0.3884   -2.6072    0.3376 H   0  0  0  0  0  0  0  0  0  0  0  0
   -1.7836   -2.1821   -0.6325 H   0  0  0  0  0  0  0  0  0  0  0  0
   -0.1738   -1.6299   -1.1945 H   0  0  0  0  0  0  0  0  0  0  0  0
   -2.9498    0.3695    1.1104 H   0  0  0  0  0  0  0  0  0  0  0  0
   -2.6868    0.3816   -0.7254 H   0  0  0  0  0  0  0  0  0  0  0  0
   -3.0758   -1.1328    0.1925 H   0  0  0  0  0  0  0  0  0  0  0  0
   -0.2961    2.7956    0.9059 H   0  0  0  0  0  0  0  0  0  0  0  0
   -1.9323    2.0362    0.5429 H   0  0  0  0  0  0  0  0  0  0  0  0
   -1.1385    1.1946   -1.7260 H   0  0  0  0  0  0  0  0  0  0  0  0
    0.4630    2.0862   -1.4022 H   0  0  0  0  0  0  0  0  0  0  0  0
  1  2  1  0
  2  3  1  0
  3  4  1  0
  4  5  1  0
  5  6  1  0
  5  7  1  0
  4  8  1  0
  8  9  1  0
  9  4  1  0
  1 10  1  0
  1 11  1  0
  1 12  1  0
  2 13  1  0
  2 14  1  0
  5 15  1  0
  6 16  1  0
  6 17  1  0
  6 18  1  0
  7 19  1  0
  7 20  1  0
  7 21  1  0
  8 22  1  0
  8 23  1  0
  9 24  1  0
  9 25  1  0
M  END
