
     RDKit          3D

 19 19  0  0  0  0  0  0  0  0999 V2000
    3.0864    0.0884   -0.1267 C   0  0  0  0  0  0  0  0  0  0  0  0
    1.7383   -0.4020    0.3157 C   0  0  0  0  0  0  0  0  0  0  0  0
    0.7691    0.4198   -0.2748 O   0  0  0  0  0  0  0  0  0  0  0  0
   -0.4684   -0.0478    0.1448 C   0  0  0  0  0  0  0  0  0  0  0  0
   -1.2702    0.9957    0.8150 C   0  0  0  0  0  0  0  0  0  0  0  0
   -2.5467    0.8297    0.5113 C   0  0  0  0  0  0  0  0  0  0  0  0
   -2.6952   -0.3231   -0.3757 C   0  0  0  0  0  0  0  0  0  0  0  0
   -3.7333   -1.0016   -0.5207 O   0  0  0  0  0  0  0  0  0  0  0  0
   -1.3564   -0.4473   -1.0086 C   0  0  0  0  0  0  0  0  0  0  0  0
    3.2524    1.1599    0.1133 H   0  0  0  0  0  0  0  0  0  0  0  0
    3.1197   -0.0265   -1.2440 H   0  0  0  0  0  0  0  0  0  0  0  0
    3.8574   -0.5719    0.3625 H   0  0  0  0  0  0  0  0  0  0  0  0
    1.5838   -1.4128   -0.1187 H   0  0  0  0  0  0  0  0  0  0  0  0
    1.6388   -0.4263    1.4214 H   0  0  0  0  0  0  0  0  0  0  0  0
   -0.3854   -0.9277    0.8215 H   0  0  0  0  0  0  0  0  0  0  0  0
   -0.8323    1.7703    1.4575 H   0  0  0  0  0  0  0  0  0  0  0  0
   -3.3267    1.4769    0.8892 H   0  0  0  0  0  0  0  0  0  0  0  0
   -1.1491   -1.4705   -1.3776 H   0  0  0  0  0  0  0  0  0  0  0  0
   -1.2821    0.3171   -1.8056 H   0  0  0  0  0  0  0  0  0  0  0  0
  1  2  1  0
  2  3  1  0
  3  4  1  0
  4  5  1  0
  5  6  2  0
  6  7  1  0
  7  8  2  0
  7  9  1  0
  9  4  1  0
  1 10  1  0
  1 11  1  0
  1 12  1  0
  2 13  1  0
  2 14  1  0
  4 15  1  0
  5 16  1  0
  6 17  1  0
  9 18  1  0
  9 19  1  0
M  END
