
     RDKit          3D

 19 20  0  0  0  0  0  0  0  0999 V2000
    2.9553    0.6117   -0.3504 C   0  0  0  0  0  0  0  0  0  0  0  0
    1.7932   -0.2131    0.1584 C   0  0  0  0  0  0  0  0  0  0  0  0
    0.5600    0.3840   -0.1811 O   0  0  0  0  0  0  0  0  0  0  0  0
   -0.4501   -0.4127    0.3088 C   0  0  0  0  0  0  0  0  0  0  0  0
   -1.5594   -0.6493   -0.6813 C   0  0  0  0  0  0  0  0  0  0  0  0
   -1.9089    0.7989   -0.4803 C   0  0  0  0  0  0  0  0  0  0  0  0
   -1.6400    0.2883    0.8960 C   0  0  0  0  0  0  0  0  0  0  0  0
   -2.4124   -0.9212    0.4894 C   0  0  0  0  0  0  0  0  0  0  0  0
   -3.2584   -1.6759    0.9118 O   0  0  0  0  0  0  0  0  0  0  0  0
    3.4192    0.1414   -1.2618 H   0  0  0  0  0  0  0  0  0  0  0  0
    2.5390    1.5915   -0.7046 H   0  0  0  0  0  0  0  0  0  0  0  0
    3.7504    0.7354    0.3955 H   0  0  0  0  0  0  0  0  0  0  0  0
    1.8640   -0.2986    1.2615 H   0  0  0  0  0  0  0  0  0  0  0  0
    1.8448   -1.2155   -0.3449 H   0  0  0  0  0  0  0  0  0  0  0  0
   -0.0973   -1.3152    0.8428 H   0  0  0  0  0  0  0  0  0  0  0  0
   -1.5077   -1.1521   -1.5430 H   0  0  0  0  0  0  0  0  0  0  0  0
   -2.9847    0.9990   -0.6248 H   0  0  0  0  0  0  0  0  0  0  0  0
   -1.2027    1.5361   -0.8611 H   0  0  0  0  0  0  0  0  0  0  0  0
   -1.7045    0.7675    1.7694 H   0  0  0  0  0  0  0  0  0  0  0  0
  1  2  1  0
  2  3  1  0
  3  4  1  0
  4  5  1  0
  5  6  1  0
  6  7  1  0
  7  8  1  0
  8  9  2  0
  7  4  1  0
  8  5  1  0
  1 10  1  0
  1 11  1  0
  1 12  1  0
  2 13  1  0
  2 14  1  0
  4 15  1  0
  5 16  1  0
  6 17  1  0
  6 18  1  0
  7 19  1  0
M  END
