
     RDKit          3D

 23 24  0  0  0  0  0  0  0  0999 V2000
    2.5366   -0.2560   -0.9576 C   0  0  0  0  0  0  0  0  0  0  0  0
    2.2764    0.1636    0.4466 C   0  0  0  0  0  0  0  0  0  0  0  0
    1.0134   -0.1618    0.9154 O   0  0  0  0  0  0  0  0  0  0  0  0
    0.0772    0.4649    0.1083 C   0  0  0  0  0  0  0  0  0  0  0  0
   -1.0082    1.2030    0.8555 C   0  0  0  0  0  0  0  0  0  0  0  0
   -1.5291   -0.1535    1.2355 C   0  0  0  0  0  0  0  0  0  0  0  0
   -1.1544   -0.3092   -0.2172 C   0  0  0  0  0  0  0  0  0  0  0  0
   -1.3179   -1.3994   -1.0178 C   0  0  0  0  0  0  0  0  0  0  0  0
   -1.8221    1.0536   -0.3960 C   0  0  0  0  0  0  0  0  0  0  0  0
    3.2307   -1.1465   -0.9742 H   0  0  0  0  0  0  0  0  0  0  0  0
    1.6372   -0.5166   -1.5328 H   0  0  0  0  0  0  0  0  0  0  0  0
    3.0435    0.5630   -1.5093 H   0  0  0  0  0  0  0  0  0  0  0  0
    2.4878    1.2664    0.5588 H   0  0  0  0  0  0  0  0  0  0  0  0
    3.0069   -0.3381    1.1220 H   0  0  0  0  0  0  0  0  0  0  0  0
    0.4618    1.0764   -0.7162 H   0  0  0  0  0  0  0  0  0  0  0  0
   -0.9029    2.0080    1.4339 H   0  0  0  0  0  0  0  0  0  0  0  0
   -2.6121   -0.1438    1.4554 H   0  0  0  0  0  0  0  0  0  0  0  0
   -0.9400   -0.7240    1.9552 H   0  0  0  0  0  0  0  0  0  0  0  0
   -2.2360   -1.3679   -1.6785 H   0  0  0  0  0  0  0  0  0  0  0  0
   -0.4877   -1.6144   -1.7300 H   0  0  0  0  0  0  0  0  0  0  0  0
   -1.4493   -2.3752   -0.4595 H   0  0  0  0  0  0  0  0  0  0  0  0
   -1.4049    1.6545   -1.2232 H   0  0  0  0  0  0  0  0  0  0  0  0
   -2.9068    1.0530   -0.2805 H   0  0  0  0  0  0  0  0  0  0  0  0
  1  2  1  0
  2  3  1  0
  3  4  1  0
  4  5  1  0
  5  6  1  0
  6  7  1  0
  7  8  1  0
  7  9  1  0
  7  4  1  0
  9  5  1  0
  1 10  1  0
  1 11  1  0
  1 12  1  0
  2 13  1  0
  2 14  1  0
  4 15  1  0
  5 16  1  0
  6 17  1  0
  6 18  1  0
  8 19  1  0
  8 20  1  0
  8 21  1  0
  9 22  1  0
  9 23  1  0
M  END
