
     RDKit          3D

 23 23  0  0  0  0  0  0  0  0999 V2000
    2.7900    0.8400    0.0644 C   0  0  0  0  0  0  0  0  0  0  0  0
    2.4588   -0.5525    0.5404 C   0  0  0  0  0  0  0  0  0  0  0  0
    1.2015   -0.6033    1.1141 O   0  0  0  0  0  0  0  0  0  0  0  0
    0.2397   -0.2333    0.2065 C   0  0  0  0  0  0  0  0  0  0  0  0
   -0.7723   -1.3411   -0.0487 C   0  0  0  0  0  0  0  0  0  0  0  0
   -2.1487   -0.8326    0.3810 C   0  0  0  0  0  0  0  0  0  0  0  0
   -2.5262    0.4130   -0.4118 C   0  0  0  0  0  0  0  0  0  0  0  0
   -1.2679    1.2888   -0.4299 C   0  0  0  0  0  0  0  0  0  0  0  0
   -0.4217    0.9409    0.6203 O   0  0  0  0  0  0  0  0  0  0  0  0
    3.3271    0.7863   -0.9170 H   0  0  0  0  0  0  0  0  0  0  0  0
    3.4178    1.3281    0.8366 H   0  0  0  0  0  0  0  0  0  0  0  0
    1.8960    1.4929   -0.0420 H   0  0  0  0  0  0  0  0  0  0  0  0
    2.5440   -1.2828   -0.2990 H   0  0  0  0  0  0  0  0  0  0  0  0
    3.2265   -0.8519    1.2825 H   0  0  0  0  0  0  0  0  0  0  0  0
    0.7032    0.0128   -0.7641 H   0  0  0  0  0  0  0  0  0  0  0  0
   -0.5184   -2.1628    0.6570 H   0  0  0  0  0  0  0  0  0  0  0  0
   -0.7667   -1.6833   -1.0855 H   0  0  0  0  0  0  0  0  0  0  0  0
   -2.9126   -1.6040    0.3066 H   0  0  0  0  0  0  0  0  0  0  0  0
   -2.0303   -0.5061    1.4388 H   0  0  0  0  0  0  0  0  0  0  0  0
   -2.8180    0.1639   -1.4539 H   0  0  0  0  0  0  0  0  0  0  0  0
   -3.3329    0.9430    0.1258 H   0  0  0  0  0  0  0  0  0  0  0  0
   -1.5532    2.3534   -0.4020 H   0  0  0  0  0  0  0  0  0  0  0  0
   -0.7357    1.0906   -1.3812 H   0  0  0  0  0  0  0  0  0  0  0  0
  1  2  1  0
  2  3  1  0
  3  4  1  0
  4  5  1  0
  5  6  1  0
  6  7  1  0
  7  8  1  0
  8  9  1  0
  9  4  1  0
  1 10  1  0
  1 11  1  0
  1 12  1  0
  2 13  1  0
  2 14  1  0
  4 15  1  0
  5 16  1  0
  5 17  1  0
  6 18  1  0
  6 19  1  0
  7 20  1  0
  7 21  1  0
  8 22  1  0
  8 23  1  0
M  END
