
     RDKit          3D

 23 24  0  0  0  0  0  0  0  0999 V2000
    3.5723    0.0951   -0.3163 C   0  0  0  0  0  0  0  0  0  0  0  0
    2.0886    0.3229    0.0158 C   0  0  0  0  0  0  0  0  0  0  0  0
    1.6001   -0.8965    0.3980 O   0  0  0  0  0  0  0  0  0  0  0  0
    0.3099   -0.9526    0.7751 C   0  0  0  0  0  0  0  0  0  0  0  0
   -0.7599   -0.6436   -0.1926 C   0  0  0  0  0  0  0  0  0  0  0  0
   -0.8373    0.7061   -0.8477 C   0  0  0  0  0  0  0  0  0  0  0  0
   -2.3026    0.2641   -0.9803 C   0  0  0  0  0  0  0  0  0  0  0  0
   -3.2981    0.1743    0.0230 C   0  0  0  0  0  0  0  0  0  0  0  0
   -1.9996   -0.0660    0.5336 C   0  0  0  0  0  0  0  0  0  0  0  0
    3.9519   -0.6495    0.4091 H   0  0  0  0  0  0  0  0  0  0  0  0
    4.1403    1.0463   -0.2751 H   0  0  0  0  0  0  0  0  0  0  0  0
    3.6281   -0.3582   -1.3184 H   0  0  0  0  0  0  0  0  0  0  0  0
    2.0136    1.0915    0.8227 H   0  0  0  0  0  0  0  0  0  0  0  0
    1.6181    0.7211   -0.8858 H   0  0  0  0  0  0  0  0  0  0  0  0
    0.0783   -1.9890    1.1737 H   0  0  0  0  0  0  0  0  0  0  0  0
    0.1164   -0.3085    1.6907 H   0  0  0  0  0  0  0  0  0  0  0  0
   -1.0977   -1.4905   -0.8421 H   0  0  0  0  0  0  0  0  0  0  0  0
   -0.6661    1.5154   -0.1429 H   0  0  0  0  0  0  0  0  0  0  0  0
   -0.4153    0.8147   -1.8686 H   0  0  0  0  0  0  0  0  0  0  0  0
   -2.2756   -0.6442   -1.6656 H   0  0  0  0  0  0  0  0  0  0  0  0
   -4.0287   -0.6879    0.0640 H   0  0  0  0  0  0  0  0  0  0  0  0
   -3.8615    1.1250    0.2646 H   0  0  0  0  0  0  0  0  0  0  0  0
   -1.5753    0.8098    1.1257 H   0  0  0  0  0  0  0  0  0  0  0  0
  1  2  1  0
  2  3  1  0
  3  4  1  0
  4  5  1  0
  5  6  1  0
  6  7  1  0
  7  8  1  0
  8  9  1  0
  9  5  1  0
  9  7  1  0
  1 10  1  0
  1 11  1  0
  1 12  1  0
  2 13  1  0
  2 14  1  0
  4 15  1  0
  4 16  1  0
  5 17  1  0
  6 18  1  0
  6 19  1  0
  7 20  1  0
  8 21  1  0
  8 22  1  0
  9 23  1  0
M  END
