
     RDKit          3D

 22 22  0  0  0  0  0  0  0  0999 V2000
    3.0223    0.6854    0.3121 C   0  0  0  0  0  0  0  0  0  0  0  0
    1.7741    0.1512   -0.3213 C   0  0  0  0  0  0  0  0  0  0  0  0
    0.8077   -0.2078    0.6135 O   0  0  0  0  0  0  0  0  0  0  0  0
   -0.3302   -0.6961   -0.0029 C   0  0  0  0  0  0  0  0  0  0  0  0
   -0.6368   -2.1263    0.4389 C   0  0  0  0  0  0  0  0  0  0  0  0
   -1.5089    0.1454    0.3518 C   0  0  0  0  0  0  0  0  0  0  0  0
   -1.5807    1.5868    0.0362 C   0  0  0  0  0  0  0  0  0  0  0  0
   -2.3278    0.6444   -0.8381 C   0  0  0  0  0  0  0  0  0  0  0  0
    3.5555    1.4169   -0.3324 H   0  0  0  0  0  0  0  0  0  0  0  0
    3.7610   -0.1365    0.5068 H   0  0  0  0  0  0  0  0  0  0  0  0
    2.8393    1.1487    1.3100 H   0  0  0  0  0  0  0  0  0  0  0  0
    1.3792    0.9415   -0.9961 H   0  0  0  0  0  0  0  0  0  0  0  0
    2.0411   -0.7110   -0.9674 H   0  0  0  0  0  0  0  0  0  0  0  0
   -0.1598   -0.6681   -1.0914 H   0  0  0  0  0  0  0  0  0  0  0  0
   -1.0109   -2.0537    1.4865 H   0  0  0  0  0  0  0  0  0  0  0  0
   -1.5048   -2.4490   -0.1739 H   0  0  0  0  0  0  0  0  0  0  0  0
    0.2266   -2.7909    0.3433 H   0  0  0  0  0  0  0  0  0  0  0  0
   -2.0856   -0.2170    1.2510 H   0  0  0  0  0  0  0  0  0  0  0  0
   -2.2102    2.2153    0.7228 H   0  0  0  0  0  0  0  0  0  0  0  0
   -0.7121    2.1149   -0.3617 H   0  0  0  0  0  0  0  0  0  0  0  0
   -1.9062    0.4956   -1.8530 H   0  0  0  0  0  0  0  0  0  0  0  0
   -3.4327    0.5102   -0.7249 H   0  0  0  0  0  0  0  0  0  0  0  0
  1  2  1  0
  2  3  1  0
  3  4  1  0
  4  5  1  0
  4  6  1  0
  6  7  1  0
  7  8  1  0
  8  6  1  0
  1  9  1  0
  1 10  1  0
  1 11  1  0
  2 12  1  0
  2 13  1  0
  4 14  1  0
  5 15  1  0
  5 16  1  0
  5 17  1  0
  6 18  1  0
  7 19  1  0
  7 20  1  0
  8 21  1  0
  8 22  1  0
M  END
