
     RDKit          3D

 23 23  0  0  0  0  0  0  0  0999 V2000
    2.7632    0.7537    0.3722 C   0  0  0  0  0  0  0  0  0  0  0  0
    2.7210   -0.4932   -0.4835 C   0  0  0  0  0  0  0  0  0  0  0  0
    1.4595   -1.0888   -0.2728 O   0  0  0  0  0  0  0  0  0  0  0  0
    0.4357   -0.2178   -0.6398 C   0  0  0  0  0  0  0  0  0  0  0  0
   -0.8700   -0.9280   -0.3845 C   0  0  0  0  0  0  0  0  0  0  0  0
   -0.9953   -1.2638    0.9466 O   0  0  0  0  0  0  0  0  0  0  0  0
   -2.3698   -1.0186    0.8505 C   0  0  0  0  0  0  0  0  0  0  0  0
   -2.0813   -0.0532   -0.2991 C   0  0  0  0  0  0  0  0  0  0  0  0
   -1.8563    1.3331    0.2378 C   0  0  0  0  0  0  0  0  0  0  0  0
    2.4234    1.6573   -0.1789 H   0  0  0  0  0  0  0  0  0  0  0  0
    2.0895    0.6677    1.2636 H   0  0  0  0  0  0  0  0  0  0  0  0
    3.8022    0.9309    0.7197 H   0  0  0  0  0  0  0  0  0  0  0  0
    2.8740   -0.2813   -1.5515 H   0  0  0  0  0  0  0  0  0  0  0  0
    3.4929   -1.2262   -0.1734 H   0  0  0  0  0  0  0  0  0  0  0  0
    0.5298    0.0073   -1.7204 H   0  0  0  0  0  0  0  0  0  0  0  0
    0.4805    0.6574    0.0097 H   0  0  0  0  0  0  0  0  0  0  0  0
   -1.0044   -1.7517   -1.1108 H   0  0  0  0  0  0  0  0  0  0  0  0
   -2.9389   -1.9320    0.5284 H   0  0  0  0  0  0  0  0  0  0  0  0
   -2.7378   -0.5408    1.7667 H   0  0  0  0  0  0  0  0  0  0  0  0
   -2.7578   -0.1473   -1.1526 H   0  0  0  0  0  0  0  0  0  0  0  0
   -1.2670    1.9723   -0.4433 H   0  0  0  0  0  0  0  0  0  0  0  0
   -2.8530    1.7573    0.4833 H   0  0  0  0  0  0  0  0  0  0  0  0
   -1.3402    1.2056    1.2322 H   0  0  0  0  0  0  0  0  0  0  0  0
  1  2  1  0
  2  3  1  0
  3  4  1  0
  4  5  1  0
  5  6  1  0
  6  7  1  0
  7  8  1  0
  8  9  1  0
  8  5  1  0
  1 10  1  0
  1 11  1  0
  1 12  1  0
  2 13  1  0
  2 14  1  0
  4 15  1  0
  4 16  1  0
  5 17  1  0
  7 18  1  0
  7 19  1  0
  8 20  1  0
  9 21  1  0
  9 22  1  0
  9 23  1  0
M  END
