
     RDKit          3D

 21 20  0  0  0  0  0  0  0  0999 V2000
    3.3162   -0.4277    0.8316 C   0  0  0  0  0  0  0  0  0  0  0  0
    2.0921    0.3704    0.5234 C   0  0  0  0  0  0  0  0  0  0  0  0
    0.9417   -0.4029    0.3879 O   0  0  0  0  0  0  0  0  0  0  0  0
   -0.1025    0.4772    0.1048 C   0  0  0  0  0  0  0  0  0  0  0  0
   -1.4243   -0.2441   -0.0678 C   0  0  0  0  0  0  0  0  0  0  0  0
   -2.4657    0.7939   -0.4183 C   0  0  0  0  0  0  0  0  0  0  0  0
   -1.3083   -1.1342   -1.1081 O   0  0  0  0  0  0  0  0  0  0  0  0
   -1.8603   -0.9187    1.1688 C   0  0  0  0  0  0  0  0  0  0  0  0
   -2.0609   -2.1199    1.1450 O   0  0  0  0  0  0  0  0  0  0  0  0
    4.1999    0.1531    0.4562 H   0  0  0  0  0  0  0  0  0  0  0  0
    3.4915   -0.5216    1.9336 H   0  0  0  0  0  0  0  0  0  0  0  0
    3.3560   -1.4071    0.3221 H   0  0  0  0  0  0  0  0  0  0  0  0
    1.9063    1.0372    1.4154 H   0  0  0  0  0  0  0  0  0  0  0  0
    2.2700    0.9658   -0.3837 H   0  0  0  0  0  0  0  0  0  0  0  0
    0.1107    0.9622   -0.8858 H   0  0  0  0  0  0  0  0  0  0  0  0
   -0.1363    1.2130    0.9107 H   0  0  0  0  0  0  0  0  0  0  0  0
   -3.4424    0.3015   -0.6646 H   0  0  0  0  0  0  0  0  0  0  0  0
   -2.1645    1.3919   -1.3210 H   0  0  0  0  0  0  0  0  0  0  0  0
   -2.5718    1.5346    0.4083 H   0  0  0  0  0  0  0  0  0  0  0  0
   -2.1524   -1.6847   -1.1099 H   0  0  0  0  0  0  0  0  0  0  0  0
   -1.9950   -0.3399    2.0746 H   0  0  0  0  0  0  0  0  0  0  0  0
  1  2  1  0
  2  3  1  0
  3  4  1  0
  4  5  1  0
  5  6  1  0
  5  7  1  0
  5  8  1  0
  8  9  2  0
  1 10  1  0
  1 11  1  0
  1 12  1  0
  2 13  1  0
  2 14  1  0
  4 15  1  0
  4 16  1  0
  6 17  1  0
  6 18  1  0
  6 19  1  0
  7 20  1  0
  8 21  1  0
M  END
