
     RDKit          3D

 19 19  0  0  0  0  0  0  0  0999 V2000
    2.6795    0.4119    0.9523 C   0  0  0  0  0  0  0  0  0  0  0  0
    1.3627    0.2501    0.2192 C   0  0  0  0  0  0  0  0  0  0  0  0
    0.3064    0.0599    1.1081 O   0  0  0  0  0  0  0  0  0  0  0  0
   -0.8491   -0.0778    0.3545 C   0  0  0  0  0  0  0  0  0  0  0  0
   -1.1962    1.0984   -0.5203 C   0  0  0  0  0  0  0  0  0  0  0  0
   -1.1172   -1.4752   -0.1522 C   0  0  0  0  0  0  0  0  0  0  0  0
   -2.0058   -0.8606    0.8964 C   0  0  0  0  0  0  0  0  0  0  0  0
    3.2990    1.0955    0.3323 H   0  0  0  0  0  0  0  0  0  0  0  0
    2.4837    0.8080    1.9602 H   0  0  0  0  0  0  0  0  0  0  0  0
    3.1847   -0.5638    1.0854 H   0  0  0  0  0  0  0  0  0  0  0  0
    1.4626   -0.6426   -0.4339 H   0  0  0  0  0  0  0  0  0  0  0  0
    1.1433    1.1727   -0.3600 H   0  0  0  0  0  0  0  0  0  0  0  0
   -1.1034    2.0180    0.1168 H   0  0  0  0  0  0  0  0  0  0  0  0
   -0.5970    1.1796   -1.4266 H   0  0  0  0  0  0  0  0  0  0  0  0
   -2.2775    1.0584   -0.8000 H   0  0  0  0  0  0  0  0  0  0  0  0
   -0.4490   -2.2986    0.1783 H   0  0  0  0  0  0  0  0  0  0  0  0
   -1.4579   -1.5102   -1.2022 H   0  0  0  0  0  0  0  0  0  0  0  0
   -3.0189   -0.5095    0.6327 H   0  0  0  0  0  0  0  0  0  0  0  0
   -1.8499   -1.2139    1.9439 H   0  0  0  0  0  0  0  0  0  0  0  0
  1  2  1  0
  2  3  1  0
  3  4  1  0
  4  5  1  0
  4  6  1  0
  6  7  1  0
  7  4  1  0
  1  8  1  0
  1  9  1  0
  1 10  1  0
  2 11  1  0
  2 12  1  0
  5 13  1  0
  5 14  1  0
  5 15  1  0
  6 16  1  0
  6 17  1  0
  7 18  1  0
  7 19  1  0
M  END
