
     RDKit          3D

 21 21  0  0  0  0  0  0  0  0999 V2000
    2.9377    0.2404    0.2391 C   0  0  0  0  0  0  0  0  0  0  0  0
    1.5491    0.3793   -0.3139 C   0  0  0  0  0  0  0  0  0  0  0  0
    0.6198    0.0267    0.6213 O   0  0  0  0  0  0  0  0  0  0  0  0
   -0.6908    0.1293    0.1824 C   0  0  0  0  0  0  0  0  0  0  0  0
   -1.0992    1.5236   -0.2442 C   0  0  0  0  0  0  0  0  0  0  0  0
   -1.1376   -0.9151   -0.8019 C   0  0  0  0  0  0  0  0  0  0  0  0
   -1.5837   -1.7195    0.4074 C   0  0  0  0  0  0  0  0  0  0  0  0
   -1.6907   -0.4148    1.1432 C   0  0  0  0  0  0  0  0  0  0  0  0
   -2.3444   -0.0503    2.1060 O   0  0  0  0  0  0  0  0  0  0  0  0
    3.6679    0.2455   -0.6065 H   0  0  0  0  0  0  0  0  0  0  0  0
    3.0331   -0.7221    0.8172 H   0  0  0  0  0  0  0  0  0  0  0  0
    3.2282    1.0981    0.8919 H   0  0  0  0  0  0  0  0  0  0  0  0
    1.5061   -0.2613   -1.2348 H   0  0  0  0  0  0  0  0  0  0  0  0
    1.4161    1.4533   -0.6336 H   0  0  0  0  0  0  0  0  0  0  0  0
   -0.5456    1.8903   -1.1074 H   0  0  0  0  0  0  0  0  0  0  0  0
   -0.9614    2.1709    0.6699 H   0  0  0  0  0  0  0  0  0  0  0  0
   -2.2050    1.4640   -0.4579 H   0  0  0  0  0  0  0  0  0  0  0  0
   -0.3704   -1.4175   -1.3850 H   0  0  0  0  0  0  0  0  0  0  0  0
   -1.9801   -0.5549   -1.3950 H   0  0  0  0  0  0  0  0  0  0  0  0
   -0.8054   -2.3385    0.8758 H   0  0  0  0  0  0  0  0  0  0  0  0
   -2.5436   -2.2274    0.2258 H   0  0  0  0  0  0  0  0  0  0  0  0
  1  2  1  0
  2  3  1  0
  3  4  1  0
  4  5  1  0
  4  6  1  0
  6  7  1  0
  7  8  1  0
  8  9  2  0
  8  4  1  0
  1 10  1  0
  1 11  1  0
  1 12  1  0
  2 13  1  0
  2 14  1  0
  5 15  1  0
  5 16  1  0
  5 17  1  0
  6 18  1  0
  6 19  1  0
  7 20  1  0
  7 21  1  0
M  END
