
     RDKit          3D

 21 21  0  0  0  0  0  0  0  0999 V2000
    2.9289   -0.7044    0.0234 C   0  0  0  0  0  0  0  0  0  0  0  0
    1.4210   -0.6730   -0.2985 C   0  0  0  0  0  0  0  0  0  0  0  0
    0.8903    0.3602    0.3655 O   0  0  0  0  0  0  0  0  0  0  0  0
   -0.4036    0.7534    0.3147 C   0  0  0  0  0  0  0  0  0  0  0  0
   -1.4838   -0.1441    0.8515 C   0  0  0  0  0  0  0  0  0  0  0  0
   -1.8387   -1.4897    0.3531 C   0  0  0  0  0  0  0  0  0  0  0  0
   -2.1528    0.2990    1.7805 O   0  0  0  0  0  0  0  0  0  0  0  0
   -0.8439    1.3816   -1.0117 C   0  0  0  0  0  0  0  0  0  0  0  0
   -0.8101    2.1965    0.2124 C   0  0  0  0  0  0  0  0  0  0  0  0
    3.0199   -1.3696    0.9038 H   0  0  0  0  0  0  0  0  0  0  0  0
    3.2183    0.3434    0.2095 H   0  0  0  0  0  0  0  0  0  0  0  0
    3.4201   -1.1421   -0.8535 H   0  0  0  0  0  0  0  0  0  0  0  0
    1.4210   -0.5379   -1.4277 H   0  0  0  0  0  0  0  0  0  0  0  0
    0.9886   -1.6751   -0.0309 H   0  0  0  0  0  0  0  0  0  0  0  0
   -2.8151   -1.3523   -0.2537 H   0  0  0  0  0  0  0  0  0  0  0  0
   -2.1467   -2.1074    1.2408 H   0  0  0  0  0  0  0  0  0  0  0  0
   -1.1359   -2.0613   -0.2023 H   0  0  0  0  0  0  0  0  0  0  0  0
   -1.7643    0.9329   -1.4284 H   0  0  0  0  0  0  0  0  0  0  0  0
   -0.0700    1.5254   -1.7578 H   0  0  0  0  0  0  0  0  0  0  0  0
   -0.0384    2.9441    0.3537 H   0  0  0  0  0  0  0  0  0  0  0  0
   -1.8047    2.5205    0.6555 H   0  0  0  0  0  0  0  0  0  0  0  0
  1  2  1  0
  2  3  1  0
  3  4  1  0
  4  5  1  0
  5  6  1  0
  5  7  2  0
  4  8  1  0
  8  9  1  0
  9  4  1  0
  1 10  1  0
  1 11  1  0
  1 12  1  0
  2 13  1  0
  2 14  1  0
  6 15  1  0
  6 16  1  0
  6 17  1  0
  8 18  1  0
  8 19  1  0
  9 20  1  0
  9 21  1  0
M  END
