
     RDKit          3D

 21 22  0  0  0  0  0  0  0  0999 V2000
    2.4902   -0.0846    1.3899 C   0  0  0  0  0  0  0  0  0  0  0  0
    2.2981   -0.5484   -0.0184 C   0  0  0  0  0  0  0  0  0  0  0  0
    0.9947   -0.8572   -0.3293 O   0  0  0  0  0  0  0  0  0  0  0  0
    0.1903    0.2383   -0.1633 C   0  0  0  0  0  0  0  0  0  0  0  0
   -0.8249    0.4679   -1.2295 C   0  0  0  0  0  0  0  0  0  0  0  0
   -1.6993    1.5457   -1.1659 O   0  0  0  0  0  0  0  0  0  0  0  0
   -2.0473    1.3803    0.1949 C   0  0  0  0  0  0  0  0  0  0  0  0
   -1.2343    0.1353    0.1997 C   0  0  0  0  0  0  0  0  0  0  0  0
   -1.9262   -1.1435    0.4824 C   0  0  0  0  0  0  0  0  0  0  0  0
    2.1927    0.9710    1.5577 H   0  0  0  0  0  0  0  0  0  0  0  0
    1.9736   -0.7872    2.0950 H   0  0  0  0  0  0  0  0  0  0  0  0
    3.5741   -0.1392    1.6483 H   0  0  0  0  0  0  0  0  0  0  0  0
    2.6313    0.2613   -0.7045 H   0  0  0  0  0  0  0  0  0  0  0  0
    2.9222   -1.4736   -0.1516 H   0  0  0  0  0  0  0  0  0  0  0  0
    0.6974    1.1700    0.1836 H   0  0  0  0  0  0  0  0  0  0  0  0
   -1.0305   -0.2783   -2.0111 H   0  0  0  0  0  0  0  0  0  0  0  0
   -1.6190    2.2479    0.7493 H   0  0  0  0  0  0  0  0  0  0  0  0
   -3.1313    1.2799    0.3296 H   0  0  0  0  0  0  0  0  0  0  0  0
   -1.2846   -2.0186    0.5773 H   0  0  0  0  0  0  0  0  0  0  0  0
   -2.5004   -1.0417    1.4182 H   0  0  0  0  0  0  0  0  0  0  0  0
   -2.6668   -1.3255   -0.3492 H   0  0  0  0  0  0  0  0  0  0  0  0
  1  2  1  0
  2  3  1  0
  3  4  1  0
  4  5  1  0
  5  6  1  0
  6  7  1  0
  7  8  1  0
  8  9  1  0
  8  4  1  0
  8  5  1  0
  1 10  1  0
  1 11  1  0
  1 12  1  0
  2 13  1  0
  2 14  1  0
  4 15  1  0
  5 16  1  0
  7 17  1  0
  7 18  1  0
  9 19  1  0
  9 20  1  0
  9 21  1  0
M  END
