
     RDKit          3D

 21 21  0  0  0  0  0  0  0  0999 V2000
    3.2169   -0.0470    0.2472 C   0  0  0  0  0  0  0  0  0  0  0  0
    1.8200    0.0837    0.8231 C   0  0  0  0  0  0  0  0  0  0  0  0
    0.9280   -0.0220   -0.2408 O   0  0  0  0  0  0  0  0  0  0  0  0
   -0.3470    0.0961    0.2758 C   0  0  0  0  0  0  0  0  0  0  0  0
   -0.9637    1.3389   -0.3938 C   0  0  0  0  0  0  0  0  0  0  0  0
   -2.4153    1.0416   -0.3494 C   0  0  0  0  0  0  0  0  0  0  0  0
   -2.6020   -0.2623   -0.2182 C   0  0  0  0  0  0  0  0  0  0  0  0
   -1.2929   -0.9536   -0.1641 C   0  0  0  0  0  0  0  0  0  0  0  0
   -1.3289   -2.0620    0.6875 O   0  0  0  0  0  0  0  0  0  0  0  0
    3.9464    0.3933    0.9642 H   0  0  0  0  0  0  0  0  0  0  0  0
    3.2129    0.4725   -0.7337 H   0  0  0  0  0  0  0  0  0  0  0  0
    3.4268   -1.1242    0.1076 H   0  0  0  0  0  0  0  0  0  0  0  0
    1.7054   -0.7624    1.5435 H   0  0  0  0  0  0  0  0  0  0  0  0
    1.6901    1.0224    1.3885 H   0  0  0  0  0  0  0  0  0  0  0  0
   -0.3526    0.2409    1.3705 H   0  0  0  0  0  0  0  0  0  0  0  0
   -0.6616    1.3870   -1.4602 H   0  0  0  0  0  0  0  0  0  0  0  0
   -0.6828    2.2403    0.1722 H   0  0  0  0  0  0  0  0  0  0  0  0
   -3.2143    1.8011   -0.4165 H   0  0  0  0  0  0  0  0  0  0  0  0
   -3.5951   -0.7248   -0.1614 H   0  0  0  0  0  0  0  0  0  0  0  0
   -0.9818   -1.2976   -1.1791 H   0  0  0  0  0  0  0  0  0  0  0  0
   -1.5085   -2.8618    0.1155 H   0  0  0  0  0  0  0  0  0  0  0  0
  1  2  1  0
  2  3  1  0
  3  4  1  0
  4  5  1  0
  5  6  1  0
  6  7  2  0
  7  8  1  0
  8  9  1  0
  8  4  1  0
  1 10  1  0
  1 11  1  0
  1 12  1  0
  2 13  1  0
  2 14  1  0
  4 15  1  0
  5 16  1  0
  5 17  1  0
  6 18  1  0
  7 19  1  0
  8 20  1  0
  9 21  1  0
M  END
