
     RDKit          3D

 18 17  0  0  0  0  0  0  0  0999 V2000
   -2.9512    1.5033   -1.1054 C   0  0  0  0  0  0  0  0  0  0  0  0
   -2.2146    0.9350    0.0701 C   0  0  0  0  0  0  0  0  0  0  0  0
   -0.9358    0.4647   -0.2739 O   0  0  0  0  0  0  0  0  0  0  0  0
   -0.3910   -0.0289    0.9335 C   0  0  0  0  0  0  0  0  0  0  0  0
    0.9561   -0.5410    0.6478 C   0  0  0  0  0  0  0  0  0  0  0  0
    2.0707   -0.9462    0.4249 C   0  0  0  0  0  0  0  0  0  0  0  0
    3.4463   -1.4224    0.1640 C   0  0  0  0  0  0  0  0  0  0  0  0
    3.6434   -1.4228   -1.1961 O   0  0  0  0  0  0  0  0  0  0  0  0
   -3.2194    2.5736   -0.9520 H   0  0  0  0  0  0  0  0  0  0  0  0
   -2.2997    1.4497   -2.0268 H   0  0  0  0  0  0  0  0  0  0  0  0
   -3.9135    0.9719   -1.2554 H   0  0  0  0  0  0  0  0  0  0  0  0
   -2.7660    0.0501    0.4478 H   0  0  0  0  0  0  0  0  0  0  0  0
   -2.1453    1.7364    0.8449 H   0  0  0  0  0  0  0  0  0  0  0  0
   -0.3286    0.8648    1.6172 H   0  0  0  0  0  0  0  0  0  0  0  0
   -1.0463   -0.7903    1.3919 H   0  0  0  0  0  0  0  0  0  0  0  0
    3.5545   -2.4897    0.5081 H   0  0  0  0  0  0  0  0  0  0  0  0
    4.2023   -0.8504    0.6937 H   0  0  0  0  0  0  0  0  0  0  0  0
    4.3382   -2.0575   -1.5055 H   0  0  0  0  0  0  0  0  0  0  0  0
  1  2  1  0
  2  3  1  0
  3  4  1  0
  4  5  1  0
  5  6  3  0
  6  7  1  0
  7  8  1  0
  1  9  1  0
  1 10  1  0
  1 11  1  0
  2 12  1  0
  2 13  1  0
  4 14  1  0
  4 15  1  0
  7 16  1  0
  7 17  1  0
  8 18  1  0
M  END
