
     RDKit          3D

 21 22  0  0  0  0  0  0  0  0999 V2000
    2.7710    0.4303    0.4427 C   0  0  0  0  0  0  0  0  0  0  0  0
    2.2223   -0.7829   -0.2336 C   0  0  0  0  0  0  0  0  0  0  0  0
    0.9703   -0.5206   -0.7787 O   0  0  0  0  0  0  0  0  0  0  0  0
    0.0370   -0.1336    0.1443 C   0  0  0  0  0  0  0  0  0  0  0  0
   -0.7981    1.0668   -0.2240 C   0  0  0  0  0  0  0  0  0  0  0  0
   -2.0545    0.3578    0.1060 C   0  0  0  0  0  0  0  0  0  0  0  0
   -3.1110    0.6052   -0.7650 O   0  0  0  0  0  0  0  0  0  0  0  0
   -2.2076   -0.7436    1.0508 C   0  0  0  0  0  0  0  0  0  0  0  0
   -1.2519   -0.9223   -0.0545 C   0  0  0  0  0  0  0  0  0  0  0  0
    2.7204    1.3220   -0.2383 H   0  0  0  0  0  0  0  0  0  0  0  0
    2.2643    0.6056    1.3961 H   0  0  0  0  0  0  0  0  0  0  0  0
    3.8589    0.2629    0.6299 H   0  0  0  0  0  0  0  0  0  0  0  0
    2.9092   -1.0524   -1.0590 H   0  0  0  0  0  0  0  0  0  0  0  0
    2.2023   -1.6175    0.4940 H   0  0  0  0  0  0  0  0  0  0  0  0
    0.3486   -0.0668    1.1961 H   0  0  0  0  0  0  0  0  0  0  0  0
   -0.6996    1.2337   -1.3206 H   0  0  0  0  0  0  0  0  0  0  0  0
   -0.5729    2.0001    0.3110 H   0  0  0  0  0  0  0  0  0  0  0  0
   -3.2874    1.5918   -0.6977 H   0  0  0  0  0  0  0  0  0  0  0  0
   -3.1362   -1.3465    0.9807 H   0  0  0  0  0  0  0  0  0  0  0  0
   -1.7993   -0.7237    2.0913 H   0  0  0  0  0  0  0  0  0  0  0  0
   -1.3855   -1.5662   -0.9054 H   0  0  0  0  0  0  0  0  0  0  0  0
  1  2  1  0
  2  3  1  0
  3  4  1  0
  4  5  1  0
  5  6  1  0
  6  7  1  0
  6  8  1  0
  8  9  1  0
  9  4  1  0
  9  6  1  0
  1 10  1  0
  1 11  1  0
  1 12  1  0
  2 13  1  0
  2 14  1  0
  4 15  1  0
  5 16  1  0
  5 17  1  0
  7 18  1  0
  8 19  1  0
  8 20  1  0
  9 21  1  0
M  END
