
     RDKit          3D

 23 22  0  0  0  0  0  0  0  0999 V2000
    2.8490    0.4868   -0.3292 C   0  0  0  0  0  0  0  0  0  0  0  0
    1.6012    0.0156    0.3902 C   0  0  0  0  0  0  0  0  0  0  0  0
    0.5655    0.0306   -0.5010 O   0  0  0  0  0  0  0  0  0  0  0  0
   -0.6508   -0.3623   -0.0432 C   0  0  0  0  0  0  0  0  0  0  0  0
   -0.7236   -1.7591    0.4849 C   0  0  0  0  0  0  0  0  0  0  0  0
   -1.1574    0.5657    1.0633 C   0  0  0  0  0  0  0  0  0  0  0  0
   -1.2643    1.8518    0.5548 O   0  0  0  0  0  0  0  0  0  0  0  0
   -1.6230   -0.2577   -1.2135 C   0  0  0  0  0  0  0  0  0  0  0  0
   -1.5978    1.1025   -1.5931 O   0  0  0  0  0  0  0  0  0  0  0  0
    2.5876    0.9376   -1.3276 H   0  0  0  0  0  0  0  0  0  0  0  0
    3.5388   -0.3360   -0.5360 H   0  0  0  0  0  0  0  0  0  0  0  0
    3.3475    1.3235    0.2296 H   0  0  0  0  0  0  0  0  0  0  0  0
    1.7829   -1.0377    0.6907 H   0  0  0  0  0  0  0  0  0  0  0  0
    1.4626    0.6583    1.2735 H   0  0  0  0  0  0  0  0  0  0  0  0
   -0.4416   -2.5256   -0.2587 H   0  0  0  0  0  0  0  0  0  0  0  0
   -0.2062   -1.8951    1.4565 H   0  0  0  0  0  0  0  0  0  0  0  0
   -1.8111   -1.9586    0.7117 H   0  0  0  0  0  0  0  0  0  0  0  0
   -2.1439    0.2666    1.4244 H   0  0  0  0  0  0  0  0  0  0  0  0
   -0.4667    0.5392    1.9252 H   0  0  0  0  0  0  0  0  0  0  0  0
   -0.9547    2.5212    1.2205 H   0  0  0  0  0  0  0  0  0  0  0  0
   -1.1690   -0.8305   -2.0524 H   0  0  0  0  0  0  0  0  0  0  0  0
   -2.6299   -0.5891   -0.9540 H   0  0  0  0  0  0  0  0  0  0  0  0
   -0.8952    1.2524   -2.3022 H   0  0  0  0  0  0  0  0  0  0  0  0
  1  2  1  0
  2  3  1  0
  3  4  1  0
  4  5  1  0
  4  6  1  0
  6  7  1  0
  4  8  1  0
  8  9  1  0
  1 10  1  0
  1 11  1  0
  1 12  1  0
  2 13  1  0
  2 14  1  0
  5 15  1  0
  5 16  1  0
  5 17  1  0
  6 18  1  0
  6 19  1  0
  7 20  1  0
  8 21  1  0
  8 22  1  0
  9 23  1  0
M  END
