
     RDKit          3D

 23 24  0  0  0  0  0  0  0  0999 V2000
    3.0170   -0.2037   -0.5582 C   0  0  0  0  0  0  0  0  0  0  0  0
    2.4249    0.9104    0.3114 C   0  0  0  0  0  0  0  0  0  0  0  0
    1.1356    0.5245    0.6431 O   0  0  0  0  0  0  0  0  0  0  0  0
    0.3434    0.3440   -0.5075 C   0  0  0  0  0  0  0  0  0  0  0  0
   -0.9340   -0.0375   -0.1986 C   0  0  0  0  0  0  0  0  0  0  0  0
   -1.9337    0.7281    0.6347 C   0  0  0  0  0  0  0  0  0  0  0  0
   -2.6449   -0.5521    0.2952 C   0  0  0  0  0  0  0  0  0  0  0  0
   -1.3458   -1.2375    0.6193 C   0  0  0  0  0  0  0  0  0  0  0  0
   -2.0706   -0.3674   -1.0922 C   0  0  0  0  0  0  0  0  0  0  0  0
    2.8230    0.0791   -1.5960 H   0  0  0  0  0  0  0  0  0  0  0  0
    2.5153   -1.1511   -0.3161 H   0  0  0  0  0  0  0  0  0  0  0  0
    4.1248   -0.2460   -0.3953 H   0  0  0  0  0  0  0  0  0  0  0  0
    3.0529    0.9331    1.2233 H   0  0  0  0  0  0  0  0  0  0  0  0
    2.5013    1.8739   -0.1859 H   0  0  0  0  0  0  0  0  0  0  0  0
    0.8528   -0.3341   -1.2230 H   0  0  0  0  0  0  0  0  0  0  0  0
    0.3750    1.3545   -1.0138 H   0  0  0  0  0  0  0  0  0  0  0  0
   -1.6557    0.8648    1.6896 H   0  0  0  0  0  0  0  0  0  0  0  0
   -2.3311    1.6478    0.1975 H   0  0  0  0  0  0  0  0  0  0  0  0
   -3.5701   -0.8310    0.5354 H   0  0  0  0  0  0  0  0  0  0  0  0
   -1.0341   -1.2556    1.6618 H   0  0  0  0  0  0  0  0  0  0  0  0
   -1.1785   -2.1675    0.0262 H   0  0  0  0  0  0  0  0  0  0  0  0
   -2.5046    0.4565   -1.6846 H   0  0  0  0  0  0  0  0  0  0  0  0
   -1.9628   -1.3331   -1.5931 H   0  0  0  0  0  0  0  0  0  0  0  0
  1  2  1  0
  2  3  1  0
  3  4  1  0
  4  5  1  0
  5  6  1  0
  6  7  1  0
  7  8  1  0
  7  9  1  0
  8  5  1  0
  9  5  1  0
  1 10  1  0
  1 11  1  0
  1 12  1  0
  2 13  1  0
  2 14  1  0
  4 15  1  0
  4 16  1  0
  6 17  1  0
  6 18  1  0
  7 19  1  0
  8 20  1  0
  8 21  1  0
  9 22  1  0
  9 23  1  0
M  END
