
     RDKit          3D

 21 22  0  0  0  0  0  0  0  0999 V2000
    3.5893   -0.0460    0.0443 C   0  0  0  0  0  0  0  0  0  0  0  0
    2.2316    0.4443    0.5032 C   0  0  0  0  0  0  0  0  0  0  0  0
    1.2598   -0.2951   -0.1593 O   0  0  0  0  0  0  0  0  0  0  0  0
   -0.0263    0.0712    0.1862 C   0  0  0  0  0  0  0  0  0  0  0  0
   -0.9890    0.1275   -0.9796 C   0  0  0  0  0  0  0  0  0  0  0  0
   -2.1561    0.9844   -0.7626 C   0  0  0  0  0  0  0  0  0  0  0  0
   -2.9757    0.4473    0.1187 C   0  0  0  0  0  0  0  0  0  0  0  0
   -2.4516   -0.8236    0.5879 C   0  0  0  0  0  0  0  0  0  0  0  0
   -1.0692   -0.9630    0.0608 C   0  0  0  0  0  0  0  0  0  0  0  0
    3.7067   -1.0986    0.3789 H   0  0  0  0  0  0  0  0  0  0  0  0
    4.4135    0.6080    0.3932 H   0  0  0  0  0  0  0  0  0  0  0  0
    3.5396   -0.0919   -1.0762 H   0  0  0  0  0  0  0  0  0  0  0  0
    2.1202    1.5329    0.3690 H   0  0  0  0  0  0  0  0  0  0  0  0
    2.1682    0.1989    1.5969 H   0  0  0  0  0  0  0  0  0  0  0  0
   -0.0835    0.8834    0.9251 H   0  0  0  0  0  0  0  0  0  0  0  0
   -0.6764   -0.2086   -1.9688 H   0  0  0  0  0  0  0  0  0  0  0  0
   -2.3189    1.9344   -1.2639 H   0  0  0  0  0  0  0  0  0  0  0  0
   -3.9124    0.9029    0.4417 H   0  0  0  0  0  0  0  0  0  0  0  0
   -2.5285   -0.9748    1.6858 H   0  0  0  0  0  0  0  0  0  0  0  0
   -3.0801   -1.6400    0.1191 H   0  0  0  0  0  0  0  0  0  0  0  0
   -0.7613   -1.9935   -0.2283 H   0  0  0  0  0  0  0  0  0  0  0  0
  1  2  1  0
  2  3  1  0
  3  4  1  0
  4  5  1  0
  5  6  1  0
  6  7  2  0
  7  8  1  0
  8  9  1  0
  9  4  1  0
  9  5  1  0
  1 10  1  0
  1 11  1  0
  1 12  1  0
  2 13  1  0
  2 14  1  0
  4 15  1  0
  5 16  1  0
  6 17  1  0
  7 18  1  0
  8 19  1  0
  8 20  1  0
  9 21  1  0
M  END
