
     RDKit          3D

 21 21  0  0  0  0  0  0  0  0999 V2000
    3.7070    0.1479   -0.2691 C   0  0  0  0  0  0  0  0  0  0  0  0
    2.6158    0.2403    0.5952 O   0  0  0  0  0  0  0  0  0  0  0  0
    1.3598   -0.2740    0.3664 C   0  0  0  0  0  0  0  0  0  0  0  0
    1.1738   -0.8852   -0.7225 O   0  0  0  0  0  0  0  0  0  0  0  0
    0.2665   -0.1139    1.3658 C   0  0  0  0  0  0  0  0  0  0  0  0
   -0.9807   -0.7719    0.8485 C   0  0  0  0  0  0  0  0  0  0  0  0
   -1.4945   -0.2376   -0.4234 C   0  0  0  0  0  0  0  0  0  0  0  0
   -1.9178    1.1455   -0.6534 C   0  0  0  0  0  0  0  0  0  0  0  0
   -2.9732    0.0770   -0.4681 C   0  0  0  0  0  0  0  0  0  0  0  0
    3.4172   -0.2225   -1.2773 H   0  0  0  0  0  0  0  0  0  0  0  0
    4.5241   -0.4731    0.1441 H   0  0  0  0  0  0  0  0  0  0  0  0
    4.1092    1.1838   -0.4385 H   0  0  0  0  0  0  0  0  0  0  0  0
    0.5929   -0.7012    2.2698 H   0  0  0  0  0  0  0  0  0  0  0  0
    0.1568    0.9370    1.6155 H   0  0  0  0  0  0  0  0  0  0  0  0
   -1.7803   -0.7234    1.6156 H   0  0  0  0  0  0  0  0  0  0  0  0
   -0.7595   -1.8672    0.7386 H   0  0  0  0  0  0  0  0  0  0  0  0
   -1.1699   -0.8172   -1.3379 H   0  0  0  0  0  0  0  0  0  0  0  0
   -1.8383    1.5443   -1.6854 H   0  0  0  0  0  0  0  0  0  0  0  0
   -1.8828    1.9285    0.1161 H   0  0  0  0  0  0  0  0  0  0  0  0
   -3.5403    0.1097    0.4956 H   0  0  0  0  0  0  0  0  0  0  0  0
   -3.5857   -0.2266   -1.3165 H   0  0  0  0  0  0  0  0  0  0  0  0
  1  2  1  0
  2  3  1  0
  3  4  2  0
  3  5  1  0
  5  6  1  0
  6  7  1  0
  7  8  1  0
  8  9  1  0
  9  7  1  0
  1 10  1  0
  1 11  1  0
  1 12  1  0
  5 13  1  0
  5 14  1  0
  6 15  1  0
  6 16  1  0
  7 17  1  0
  8 18  1  0
  8 19  1  0
  9 20  1  0
  9 21  1  0
M  END
