
     RDKit          3D

 23 22  0  0  0  0  0  0  0  0999 V2000
   -2.4161    1.6794   -0.3935 C   0  0  0  0  0  0  0  0  0  0  0  0
   -1.3913    0.9337    0.1922 O   0  0  0  0  0  0  0  0  0  0  0  0
   -1.1323   -0.2240   -0.4972 C   0  0  0  0  0  0  0  0  0  0  0  0
   -1.4051   -1.3941    0.3806 C   0  0  0  0  0  0  0  0  0  0  0  0
    0.2611   -0.1598   -1.0433 C   0  0  0  0  0  0  0  0  0  0  0  0
    1.3197   -0.0128    0.0063 C   0  0  0  0  0  0  0  0  0  0  0  0
    1.2664   -1.1085    0.8790 O   0  0  0  0  0  0  0  0  0  0  0  0
    2.6716   -0.1312   -0.7111 C   0  0  0  0  0  0  0  0  0  0  0  0
    2.8457    0.9107   -1.6147 O   0  0  0  0  0  0  0  0  0  0  0  0
   -2.6061    2.5971    0.1713 H   0  0  0  0  0  0  0  0  0  0  0  0
   -3.3623    1.1111   -0.4623 H   0  0  0  0  0  0  0  0  0  0  0  0
   -2.1070    1.9384   -1.4238 H   0  0  0  0  0  0  0  0  0  0  0  0
   -1.8259   -0.2634   -1.3637 H   0  0  0  0  0  0  0  0  0  0  0  0
   -2.4699   -1.7409    0.2626 H   0  0  0  0  0  0  0  0  0  0  0  0
   -1.3337   -1.0911    1.4647 H   0  0  0  0  0  0  0  0  0  0  0  0
   -0.7788   -2.2745    0.1810 H   0  0  0  0  0  0  0  0  0  0  0  0
    0.3246    0.7264   -1.7072 H   0  0  0  0  0  0  0  0  0  0  0  0
    0.5003   -1.0486   -1.6664 H   0  0  0  0  0  0  0  0  0  0  0  0
    1.3265    0.9455    0.5247 H   0  0  0  0  0  0  0  0  0  0  0  0
    1.6110   -1.8999    0.3614 H   0  0  0  0  0  0  0  0  0  0  0  0
    2.7577   -1.1285   -1.2207 H   0  0  0  0  0  0  0  0  0  0  0  0
    3.4932   -0.0984    0.0328 H   0  0  0  0  0  0  0  0  0  0  0  0
    2.4506    1.7333   -1.2282 H   0  0  0  0  0  0  0  0  0  0  0  0
  1  2  1  0
  2  3  1  0
  3  4  1  0
  3  5  1  0
  5  6  1  0
  6  7  1  0
  6  8  1  0
  8  9  1  0
  1 10  1  0
  1 11  1  0
  1 12  1  0
  3 13  1  0
  4 14  1  0
  4 15  1  0
  4 16  1  0
  5 17  1  0
  5 18  1  0
  6 19  1  0
  7 20  1  0
  8 21  1  0
  8 22  1  0
  9 23  1  0
M  END
