
     RDKit          3D

 20 19  0  0  0  0  0  0  0  0999 V2000
    2.3410   -0.7485    0.0269 C   0  0  0  0  0  0  0  0  0  0  0  0
    1.0811   -1.1288   -0.3855 O   0  0  0  0  0  0  0  0  0  0  0  0
    0.0949   -0.1986   -0.1078 C   0  0  0  0  0  0  0  0  0  0  0  0
   -0.0077    0.0648    1.3988 C   0  0  0  0  0  0  0  0  0  0  0  0
    0.4140    1.1428   -0.7410 C   0  0  0  0  0  0  0  0  0  0  0  0
   -1.2042   -0.7439   -0.5772 C   0  0  0  0  0  0  0  0  0  0  0  0
   -2.4876   -0.0042   -0.4379 C   0  0  0  0  0  0  0  0  0  0  0  0
   -1.2634   -1.8411   -1.1045 O   0  0  0  0  0  0  0  0  0  0  0  0
    3.0380   -1.5644   -0.2468 H   0  0  0  0  0  0  0  0  0  0  0  0
    2.3896   -0.5119    1.1225 H   0  0  0  0  0  0  0  0  0  0  0  0
    2.7190    0.1664   -0.4890 H   0  0  0  0  0  0  0  0  0  0  0  0
   -1.0781    0.1462    1.7081 H   0  0  0  0  0  0  0  0  0  0  0  0
    0.4708    1.0215    1.6774 H   0  0  0  0  0  0  0  0  0  0  0  0
    0.5169   -0.7381    1.9717 H   0  0  0  0  0  0  0  0  0  0  0  0
    1.2709    1.5646   -0.1582 H   0  0  0  0  0  0  0  0  0  0  0  0
   -0.4395    1.8103   -0.5521 H   0  0  0  0  0  0  0  0  0  0  0  0
    0.6443    1.0612   -1.8173 H   0  0  0  0  0  0  0  0  0  0  0  0
   -3.0184   -0.3568    0.4725 H   0  0  0  0  0  0  0  0  0  0  0  0
   -2.3488    1.0993   -0.4534 H   0  0  0  0  0  0  0  0  0  0  0  0
   -3.1327   -0.2409   -1.3074 H   0  0  0  0  0  0  0  0  0  0  0  0
  1  2  1  0
  2  3  1  0
  3  4  1  0
  3  5  1  0
  3  6  1  0
  6  7  1  0
  6  8  2  0
  1  9  1  0
  1 10  1  0
  1 11  1  0
  4 12  1  0
  4 13  1  0
  4 14  1  0
  5 15  1  0
  5 16  1  0
  5 17  1  0
  7 18  1  0
  7 19  1  0
  7 20  1  0
M  END
