
     RDKit          3D

 23 23  0  0  0  0  0  0  0  0999 V2000
    2.5236    1.0780    0.4643 C   0  0  0  0  0  0  0  0  0  0  0  0
    1.7481   -0.0685    0.7313 O   0  0  0  0  0  0  0  0  0  0  0  0
    0.9671   -0.3715   -0.3547 C   0  0  0  0  0  0  0  0  0  0  0  0
    1.4471   -1.7167   -0.9027 C   0  0  0  0  0  0  0  0  0  0  0  0
   -0.4898   -0.5347   -0.0339 C   0  0  0  0  0  0  0  0  0  0  0  0
   -1.2082   -0.8407   -1.1928 O   0  0  0  0  0  0  0  0  0  0  0  0
   -2.0810    0.2258   -0.9688 C   0  0  0  0  0  0  0  0  0  0  0  0
   -1.2724    0.6919    0.2372 C   0  0  0  0  0  0  0  0  0  0  0  0
   -2.1093    0.5672    1.4915 C   0  0  0  0  0  0  0  0  0  0  0  0
    3.1596    1.3411    1.3228 H   0  0  0  0  0  0  0  0  0  0  0  0
    1.8942    1.9535    0.2231 H   0  0  0  0  0  0  0  0  0  0  0  0
    3.1998    0.9164   -0.4033 H   0  0  0  0  0  0  0  0  0  0  0  0
    1.1505    0.3677   -1.1630 H   0  0  0  0  0  0  0  0  0  0  0  0
    2.3939   -2.0336   -0.4216 H   0  0  0  0  0  0  0  0  0  0  0  0
    0.7138   -2.5245   -0.7021 H   0  0  0  0  0  0  0  0  0  0  0  0
    1.5658   -1.6813   -2.0110 H   0  0  0  0  0  0  0  0  0  0  0  0
   -0.6289   -1.3361    0.7094 H   0  0  0  0  0  0  0  0  0  0  0  0
   -3.0860   -0.1738   -0.7184 H   0  0  0  0  0  0  0  0  0  0  0  0
   -2.1151    0.9742   -1.7869 H   0  0  0  0  0  0  0  0  0  0  0  0
   -0.7742    1.6668    0.1022 H   0  0  0  0  0  0  0  0  0  0  0  0
   -1.4552    0.2160    2.2981 H   0  0  0  0  0  0  0  0  0  0  0  0
   -2.6556    1.5013    1.7312 H   0  0  0  0  0  0  0  0  0  0  0  0
   -2.8878   -0.2184    1.3482 H   0  0  0  0  0  0  0  0  0  0  0  0
  1  2  1  0
  2  3  1  0
  3  4  1  0
  3  5  1  0
  5  6  1  0
  6  7  1  0
  7  8  1  0
  8  9  1  0
  8  5  1  0
  1 10  1  0
  1 11  1  0
  1 12  1  0
  3 13  1  0
  4 14  1  0
  4 15  1  0
  4 16  1  0
  5 17  1  0
  7 18  1  0
  7 19  1  0
  8 20  1  0
  9 21  1  0
  9 22  1  0
  9 23  1  0
M  END
