
     RDKit          3D

 25 24  0  0  0  0  0  0  0  0999 V2000
   -2.6301   -1.7577   -0.8748 C   0  0  0  0  0  0  0  0  0  0  0  0
   -1.9059   -0.6309   -1.2210 O   0  0  0  0  0  0  0  0  0  0  0  0
   -0.9582   -0.2881   -0.2215 C   0  0  0  0  0  0  0  0  0  0  0  0
   -1.3820    1.0594    0.2857 C   0  0  0  0  0  0  0  0  0  0  0  0
   -0.5813    1.4713    1.3321 O   0  0  0  0  0  0  0  0  0  0  0  0
    0.3525   -0.2404   -0.8885 C   0  0  0  0  0  0  0  0  0  0  0  0
    1.5837    0.0882   -0.1669 C   0  0  0  0  0  0  0  0  0  0  0  0
    1.9138   -0.8150    0.9971 C   0  0  0  0  0  0  0  0  0  0  0  0
    1.9104    1.5111    0.1152 C   0  0  0  0  0  0  0  0  0  0  0  0
   -3.2026   -1.6587    0.0564 H   0  0  0  0  0  0  0  0  0  0  0  0
   -2.0260   -2.6708   -0.8053 H   0  0  0  0  0  0  0  0  0  0  0  0
   -3.3664   -1.9192   -1.6888 H   0  0  0  0  0  0  0  0  0  0  0  0
   -1.0734   -1.0359    0.5632 H   0  0  0  0  0  0  0  0  0  0  0  0
   -2.4259    1.0672    0.6612 H   0  0  0  0  0  0  0  0  0  0  0  0
   -1.2373    1.8205   -0.5230 H   0  0  0  0  0  0  0  0  0  0  0  0
   -0.5686    2.4440    1.3751 H   0  0  0  0  0  0  0  0  0  0  0  0
    0.5301   -1.2481   -1.3974 H   0  0  0  0  0  0  0  0  0  0  0  0
    0.3201    0.4439   -1.7984 H   0  0  0  0  0  0  0  0  0  0  0  0
    2.4273   -0.2186   -0.9186 H   0  0  0  0  0  0  0  0  0  0  0  0
    2.8014   -0.4044    1.5208 H   0  0  0  0  0  0  0  0  0  0  0  0
    2.1928   -1.8285    0.6420 H   0  0  0  0  0  0  0  0  0  0  0  0
    1.0756   -0.9474    1.6999 H   0  0  0  0  0  0  0  0  0  0  0  0
    1.2640    2.2539   -0.4393 H   0  0  0  0  0  0  0  0  0  0  0  0
    2.9315    1.7281   -0.3436 H   0  0  0  0  0  0  0  0  0  0  0  0
    2.0545    1.7759    1.1810 H   0  0  0  0  0  0  0  0  0  0  0  0
  1  2  1  0
  2  3  1  0
  3  4  1  0
  4  5  1  0
  3  6  1  0
  6  7  1  0
  7  8  1  0
  7  9  1  0
  1 10  1  0
  1 11  1  0
  1 12  1  0
  3 13  1  0
  4 14  1  0
  4 15  1  0
  5 16  1  0
  6 17  1  0
  6 18  1  0
  7 19  1  0
  8 20  1  0
  8 21  1  0
  8 22  1  0
  9 23  1  0
  9 24  1  0
  9 25  1  0
M  END
