
     RDKit          3D

 19 19  0  0  0  0  0  0  0  0999 V2000
    3.5856   -0.8003    0.1965 C   0  0  0  0  0  0  0  0  0  0  0  0
    2.2852   -0.8491   -0.3228 O   0  0  0  0  0  0  0  0  0  0  0  0
    1.3365    0.1333   -0.1518 C   0  0  0  0  0  0  0  0  0  0  0  0
    1.6274    1.1587    0.5124 O   0  0  0  0  0  0  0  0  0  0  0  0
    0.0082   -0.0800   -0.7706 C   0  0  0  0  0  0  0  0  0  0  0  0
   -0.9539    1.0318   -0.5350 C   0  0  0  0  0  0  0  0  0  0  0  0
   -1.3180    1.3791    0.7629 O   0  0  0  0  0  0  0  0  0  0  0  0
   -2.3175    0.8694   -0.0706 C   0  0  0  0  0  0  0  0  0  0  0  0
   -2.8992   -0.4388    0.3716 C   0  0  0  0  0  0  0  0  0  0  0  0
    3.6374   -0.5378    1.2667 H   0  0  0  0  0  0  0  0  0  0  0  0
    4.0376   -1.8189    0.0366 H   0  0  0  0  0  0  0  0  0  0  0  0
    4.2511   -0.1097   -0.3793 H   0  0  0  0  0  0  0  0  0  0  0  0
    0.1653   -0.1710   -1.8660 H   0  0  0  0  0  0  0  0  0  0  0  0
   -0.3526   -1.0685   -0.4280 H   0  0  0  0  0  0  0  0  0  0  0  0
   -0.7514    1.9391   -1.1750 H   0  0  0  0  0  0  0  0  0  0  0  0
   -3.1019    1.5895   -0.4429 H   0  0  0  0  0  0  0  0  0  0  0  0
   -2.1745   -1.2386    0.5241 H   0  0  0  0  0  0  0  0  0  0  0  0
   -3.6778   -0.7343   -0.3843 H   0  0  0  0  0  0  0  0  0  0  0  0
   -3.3875   -0.2541    1.3723 H   0  0  0  0  0  0  0  0  0  0  0  0
  1  2  1  0
  2  3  1  0
  3  4  2  0
  3  5  1  0
  5  6  1  0
  6  7  1  0
  7  8  1  0
  8  9  1  0
  8  6  1  0
  1 10  1  0
  1 11  1  0
  1 12  1  0
  5 13  1  0
  5 14  1  0
  6 15  1  0
  8 16  1  0
  9 17  1  0
  9 18  1  0
  9 19  1  0
M  END
