
     RDKit          3D

 16 15  0  0  0  0  0  0  0  0999 V2000
    1.9102   -0.8886   -0.2916 C   0  0  0  0  0  0  0  0  0  0  0  0
    0.7117   -0.4001   -0.8033 O   0  0  0  0  0  0  0  0  0  0  0  0
   -0.0062    0.2402    0.1747 C   0  0  0  0  0  0  0  0  0  0  0  0
   -0.2269    1.7019   -0.2385 C   0  0  0  0  0  0  0  0  0  0  0  0
   -1.3814   -0.3399    0.3934 C   0  0  0  0  0  0  0  0  0  0  0  0
   -1.3303   -1.6816    0.7736 O   0  0  0  0  0  0  0  0  0  0  0  0
    2.4971   -1.4075   -1.0740 H   0  0  0  0  0  0  0  0  0  0  0  0
    2.5650   -0.0452    0.0707 H   0  0  0  0  0  0  0  0  0  0  0  0
    1.7042   -1.5029    0.5946 H   0  0  0  0  0  0  0  0  0  0  0  0
    0.5593    0.2006    1.1212 H   0  0  0  0  0  0  0  0  0  0  0  0
    0.5879    2.0279   -0.9119 H   0  0  0  0  0  0  0  0  0  0  0  0
   -0.2760    2.2914    0.7040 H   0  0  0  0  0  0  0  0  0  0  0  0
   -1.1885    1.7861   -0.7894 H   0  0  0  0  0  0  0  0  0  0  0  0
   -1.9625   -0.2732   -0.5354 H   0  0  0  0  0  0  0  0  0  0  0  0
   -1.8789    0.2414    1.1818 H   0  0  0  0  0  0  0  0  0  0  0  0
   -2.2846   -1.9505    0.9162 H   0  0  0  0  0  0  0  0  0  0  0  0
  1  2  1  0
  2  3  1  0
  3  4  1  0
  3  5  1  0
  5  6  1  0
  1  7  1  0
  1  8  1  0
  1  9  1  0
  3 10  1  0
  4 11  1  0
  4 12  1  0
  4 13  1  0
  5 14  1  0
  5 15  1  0
  6 16  1  0
M  END
