
     RDKit          3D

 19 18  0  0  0  0  0  0  0  0999 V2000
    1.9781   -1.0142    0.9515 C   0  0  0  0  0  0  0  0  0  0  0  0
    0.9275   -0.0835    0.9364 O   0  0  0  0  0  0  0  0  0  0  0  0
    0.4688    0.0812   -0.3620 C   0  0  0  0  0  0  0  0  0  0  0  0
    0.6190    1.5143   -0.8188 C   0  0  0  0  0  0  0  0  0  0  0  0
   -0.0965    2.3939   -0.0136 O   0  0  0  0  0  0  0  0  0  0  0  0
   -0.9718   -0.2723   -0.4926 C   0  0  0  0  0  0  0  0  0  0  0  0
   -1.4524   -0.1547   -1.6033 O   0  0  0  0  0  0  0  0  0  0  0  0
   -1.8101   -0.7390    0.6144 C   0  0  0  0  0  0  0  0  0  0  0  0
   -3.0956   -0.9816    0.1670 O   0  0  0  0  0  0  0  0  0  0  0  0
    2.8303   -0.6730    0.3157 H   0  0  0  0  0  0  0  0  0  0  0  0
    1.5741   -1.9796    0.5358 H   0  0  0  0  0  0  0  0  0  0  0  0
    2.3711   -1.1362    1.9700 H   0  0  0  0  0  0  0  0  0  0  0  0
    1.0241   -0.5486   -1.0906 H   0  0  0  0  0  0  0  0  0  0  0  0
    1.7067    1.8023   -0.8262 H   0  0  0  0  0  0  0  0  0  0  0  0
    0.2387    1.5942   -1.8565 H   0  0  0  0  0  0  0  0  0  0  0  0
    0.0829    3.3070   -0.3528 H   0  0  0  0  0  0  0  0  0  0  0  0
   -1.3744   -1.5976    1.1593 H   0  0  0  0  0  0  0  0  0  0  0  0
   -1.8912    0.1163    1.3488 H   0  0  0  0  0  0  0  0  0  0  0  0
   -3.1292   -1.6290   -0.5827 H   0  0  0  0  0  0  0  0  0  0  0  0
  1  2  1  0
  2  3  1  0
  3  4  1  0
  4  5  1  0
  3  6  1  0
  6  7  2  0
  6  8  1  0
  8  9  1  0
  1 10  1  0
  1 11  1  0
  1 12  1  0
  3 13  1  0
  4 14  1  0
  4 15  1  0
  5 16  1  0
  8 17  1  0
  8 18  1  0
  9 19  1  0
M  END
