
     RDKit          3D

 19 18  0  0  0  0  0  0  0  0999 V2000
    3.0723   -0.5997   -0.4063 C   0  0  0  0  0  0  0  0  0  0  0  0
    1.8650    0.0310   -0.0662 O   0  0  0  0  0  0  0  0  0  0  0  0
    0.6200   -0.5181   -0.1942 C   0  0  0  0  0  0  0  0  0  0  0  0
    0.5137   -1.6801   -0.6503 O   0  0  0  0  0  0  0  0  0  0  0  0
   -0.5884    0.2777    0.2118 C   0  0  0  0  0  0  0  0  0  0  0  0
   -1.2716   -0.4874    1.3079 C   0  0  0  0  0  0  0  0  0  0  0  0
   -0.2307    1.5233    0.6825 O   0  0  0  0  0  0  0  0  0  0  0  0
   -1.5483    0.4369   -0.9338 C   0  0  0  0  0  0  0  0  0  0  0  0
   -2.6627    1.1163   -0.4520 O   0  0  0  0  0  0  0  0  0  0  0  0
    3.5533   -0.1994   -1.3087 H   0  0  0  0  0  0  0  0  0  0  0  0
    2.9415   -1.6916   -0.5540 H   0  0  0  0  0  0  0  0  0  0  0  0
    3.7808   -0.4226    0.4413 H   0  0  0  0  0  0  0  0  0  0  0  0
   -1.1831   -1.5775    1.0464 H   0  0  0  0  0  0  0  0  0  0  0  0
   -2.3352   -0.1946    1.3903 H   0  0  0  0  0  0  0  0  0  0  0  0
   -0.7496   -0.2753    2.2530 H   0  0  0  0  0  0  0  0  0  0  0  0
   -0.2692    2.1546   -0.0883 H   0  0  0  0  0  0  0  0  0  0  0  0
   -1.8948   -0.5739   -1.2504 H   0  0  0  0  0  0  0  0  0  0  0  0
   -1.1403    1.0227   -1.7680 H   0  0  0  0  0  0  0  0  0  0  0  0
   -2.4726    1.6577    0.3390 H   0  0  0  0  0  0  0  0  0  0  0  0
  1  2  1  0
  2  3  1  0
  3  4  2  0
  3  5  1  0
  5  6  1  0
  5  7  1  0
  5  8  1  0
  8  9  1  0
  1 10  1  0
  1 11  1  0
  1 12  1  0
  6 13  1  0
  6 14  1  0
  6 15  1  0
  7 16  1  0
  8 17  1  0
  8 18  1  0
  9 19  1  0
M  END
