
     RDKit          3D

 21 21  0  0  0  0  0  0  0  0999 V2000
    2.6481    0.4814    0.1575 C   0  0  0  0  0  0  0  0  0  0  0  0
    1.4241    0.2871    0.7493 O   0  0  0  0  0  0  0  0  0  0  0  0
    0.5154   -0.4274    0.0165 C   0  0  0  0  0  0  0  0  0  0  0  0
    0.0607   -1.7045    0.6249 C   0  0  0  0  0  0  0  0  0  0  0  0
   -0.6121    0.4946   -0.3670 C   0  0  0  0  0  0  0  0  0  0  0  0
   -0.2676    1.5849   -1.1201 O   0  0  0  0  0  0  0  0  0  0  0  0
   -1.5871    0.8439    0.7053 C   0  0  0  0  0  0  0  0  0  0  0  0
   -2.5873    0.8400   -0.2967 O   0  0  0  0  0  0  0  0  0  0  0  0
   -1.8472   -0.2072   -0.8933 C   0  0  0  0  0  0  0  0  0  0  0  0
    3.1979   -0.4273   -0.0872 H   0  0  0  0  0  0  0  0  0  0  0  0
    3.2544    1.1119    0.8401 H   0  0  0  0  0  0  0  0  0  0  0  0
    2.4843    1.0960   -0.7558 H   0  0  0  0  0  0  0  0  0  0  0  0
    1.0272   -0.6987   -0.9556 H   0  0  0  0  0  0  0  0  0  0  0  0
   -0.3917   -2.3322   -0.1919 H   0  0  0  0  0  0  0  0  0  0  0  0
   -0.7059   -1.6108    1.4039 H   0  0  0  0  0  0  0  0  0  0  0  0
    0.9539   -2.2681    0.9579 H   0  0  0  0  0  0  0  0  0  0  0  0
   -0.3665    2.4038   -0.5493 H   0  0  0  0  0  0  0  0  0  0  0  0
   -1.4589    1.8383    1.1715 H   0  0  0  0  0  0  0  0  0  0  0  0
   -1.8308    0.0899    1.4527 H   0  0  0  0  0  0  0  0  0  0  0  0
   -2.0629   -1.1799   -0.3941 H   0  0  0  0  0  0  0  0  0  0  0  0
   -1.8481   -0.2157   -1.9801 H   0  0  0  0  0  0  0  0  0  0  0  0
  1  2  1  0
  2  3  1  0
  3  4  1  0
  3  5  1  0
  5  6  1  0
  5  7  1  0
  7  8  1  0
  8  9  1  0
  9  5  1  0
  1 10  1  0
  1 11  1  0
  1 12  1  0
  3 13  1  0
  4 14  1  0
  4 15  1  0
  4 16  1  0
  6 17  1  0
  7 18  1  0
  7 19  1  0
  9 20  1  0
  9 21  1  0
M  END
