
     RDKit          3D

 23 23  0  0  0  0  0  0  0  0999 V2000
   -2.5959    1.0546    0.5256 C   0  0  0  0  0  0  0  0  0  0  0  0
   -1.2359    1.0417    0.6960 O   0  0  0  0  0  0  0  0  0  0  0  0
   -0.5924    0.0305    0.0114 C   0  0  0  0  0  0  0  0  0  0  0  0
   -0.8270    0.1430   -1.4592 C   0  0  0  0  0  0  0  0  0  0  0  0
   -1.1245   -1.3101    0.4671 C   0  0  0  0  0  0  0  0  0  0  0  0
    0.8862    0.0498    0.3620 C   0  0  0  0  0  0  0  0  0  0  0  0
    1.5334    1.3406    0.0034 O   0  0  0  0  0  0  0  0  0  0  0  0
    1.9325    0.0635   -0.6257 C   0  0  0  0  0  0  0  0  0  0  0  0
    3.3317   -0.2783   -0.1710 C   0  0  0  0  0  0  0  0  0  0  0  0
   -2.8714    1.1871   -0.5581 H   0  0  0  0  0  0  0  0  0  0  0  0
   -2.9834    1.9807    1.0222 H   0  0  0  0  0  0  0  0  0  0  0  0
   -3.1321    0.2137    0.9649 H   0  0  0  0  0  0  0  0  0  0  0  0
   -1.8307   -0.1961   -1.7726 H   0  0  0  0  0  0  0  0  0  0  0  0
   -0.7376    1.1983   -1.8366 H   0  0  0  0  0  0  0  0  0  0  0  0
   -0.1114   -0.5291   -1.9988 H   0  0  0  0  0  0  0  0  0  0  0  0
   -0.4901   -2.0906   -0.0186 H   0  0  0  0  0  0  0  0  0  0  0  0
   -2.1718   -1.4581    0.1333 H   0  0  0  0  0  0  0  0  0  0  0  0
   -0.9943   -1.4383    1.5565 H   0  0  0  0  0  0  0  0  0  0  0  0
    1.1652   -0.1652    1.4144 H   0  0  0  0  0  0  0  0  0  0  0  0
    1.7857    0.1479   -1.6996 H   0  0  0  0  0  0  0  0  0  0  0  0
    3.7643   -1.1005   -0.7541 H   0  0  0  0  0  0  0  0  0  0  0  0
    3.3618   -0.5367    0.9092 H   0  0  0  0  0  0  0  0  0  0  0  0
    3.9376    0.6518   -0.2892 H   0  0  0  0  0  0  0  0  0  0  0  0
  1  2  1  0
  2  3  1  0
  3  4  1  0
  3  5  1  0
  3  6  1  0
  6  7  1  0
  7  8  1  0
  8  9  1  0
  8  6  1  0
  1 10  1  0
  1 11  1  0
  1 12  1  0
  4 13  1  0
  4 14  1  0
  4 15  1  0
  5 16  1  0
  5 17  1  0
  5 18  1  0
  6 19  1  0
  8 20  1  0
  9 21  1  0
  9 22  1  0
  9 23  1  0
M  END
