
     RDKit          3D

 19 19  0  0  0  0  0  0  0  0999 V2000
    3.0174    0.8441   -0.3564 C   0  0  0  0  0  0  0  0  0  0  0  0
    1.7471    0.3118   -0.6966 O   0  0  0  0  0  0  0  0  0  0  0  0
    1.0600   -0.4747    0.2083 C   0  0  0  0  0  0  0  0  0  0  0  0
    1.6095   -0.6851    1.3182 O   0  0  0  0  0  0  0  0  0  0  0  0
   -0.2571   -1.0771   -0.0343 C   0  0  0  0  0  0  0  0  0  0  0  0
   -0.8130   -0.8079   -1.2800 O   0  0  0  0  0  0  0  0  0  0  0  0
   -2.0782   -0.9678   -0.6694 C   0  0  0  0  0  0  0  0  0  0  0  0
   -1.4364   -0.3695    0.5893 C   0  0  0  0  0  0  0  0  0  0  0  0
   -1.4109    1.1266    0.4898 C   0  0  0  0  0  0  0  0  0  0  0  0
    3.2662    0.6699    0.7118 H   0  0  0  0  0  0  0  0  0  0  0  0
    3.1108    1.9192   -0.6175 H   0  0  0  0  0  0  0  0  0  0  0  0
    3.7633    0.2246   -0.9320 H   0  0  0  0  0  0  0  0  0  0  0  0
   -0.2814   -2.1581    0.2580 H   0  0  0  0  0  0  0  0  0  0  0  0
   -2.8764   -0.3680   -1.1069 H   0  0  0  0  0  0  0  0  0  0  0  0
   -2.3261   -2.0361   -0.5803 H   0  0  0  0  0  0  0  0  0  0  0  0
   -1.8117   -0.7846    1.5327 H   0  0  0  0  0  0  0  0  0  0  0  0
   -2.0119    1.4948   -0.3872 H   0  0  0  0  0  0  0  0  0  0  0  0
   -1.8769    1.5833    1.4078 H   0  0  0  0  0  0  0  0  0  0  0  0
   -0.3943    1.5546    0.4318 H   0  0  0  0  0  0  0  0  0  0  0  0
  1  2  1  0
  2  3  1  0
  3  4  2  0
  3  5  1  0
  5  6  1  0
  6  7  1  0
  7  8  1  0
  8  9  1  0
  8  5  1  0
  1 10  1  0
  1 11  1  0
  1 12  1  0
  5 13  1  0
  7 14  1  0
  7 15  1  0
  8 16  1  0
  9 17  1  0
  9 18  1  0
  9 19  1  0
M  END
