
     RDKit          3D

 19 18  0  0  0  0  0  0  0  0999 V2000
   -1.6124   -2.2585   -0.4124 C   0  0  0  0  0  0  0  0  0  0  0  0
   -0.8191   -1.2945   -1.0528 O   0  0  0  0  0  0  0  0  0  0  0  0
   -0.2733   -0.4079   -0.1245 C   0  0  0  0  0  0  0  0  0  0  0  0
    1.2022   -0.3726   -0.2527 C   0  0  0  0  0  0  0  0  0  0  0  0
    2.1235    0.4277    0.5598 C   0  0  0  0  0  0  0  0  0  0  0  0
    1.7038   -1.0809   -1.1214 O   0  0  0  0  0  0  0  0  0  0  0  0
   -0.7963    0.9427   -0.4698 C   0  0  0  0  0  0  0  0  0  0  0  0
   -0.4084    2.1192    0.3591 C   0  0  0  0  0  0  0  0  0  0  0  0
   -1.5437    1.0778   -1.4345 O   0  0  0  0  0  0  0  0  0  0  0  0
   -0.9162   -2.7923    0.2946 H   0  0  0  0  0  0  0  0  0  0  0  0
   -1.9492   -2.9560   -1.2075 H   0  0  0  0  0  0  0  0  0  0  0  0
   -2.4498   -1.7907    0.1345 H   0  0  0  0  0  0  0  0  0  0  0  0
   -0.5908   -0.6666    0.9115 H   0  0  0  0  0  0  0  0  0  0  0  0
    2.6447    1.2017   -0.0785 H   0  0  0  0  0  0  0  0  0  0  0  0
    1.6963    0.8495    1.4706 H   0  0  0  0  0  0  0  0  0  0  0  0
    2.9712   -0.2677    0.8426 H   0  0  0  0  0  0  0  0  0  0  0  0
   -1.1231    2.9491    0.1059 H   0  0  0  0  0  0  0  0  0  0  0  0
   -0.4611    1.8797    1.4255 H   0  0  0  0  0  0  0  0  0  0  0  0
    0.6018    2.4404    0.0501 H   0  0  0  0  0  0  0  0  0  0  0  0
  1  2  1  0
  2  3  1  0
  3  4  1  0
  4  5  1  0
  4  6  2  0
  3  7  1  0
  7  8  1  0
  7  9  2  0
  1 10  1  0
  1 11  1  0
  1 12  1  0
  3 13  1  0
  5 14  1  0
  5 15  1  0
  5 16  1  0
  8 17  1  0
  8 18  1  0
  8 19  1  0
M  END
