
     RDKit          3D

 25 24  0  0  0  0  0  0  0  0999 V2000
    1.7463    1.7836    0.5556 C   0  0  0  0  0  0  0  0  0  0  0  0
    0.9707    1.1333   -0.4448 O   0  0  0  0  0  0  0  0  0  0  0  0
    0.8317   -0.1676   -0.0705 C   0  0  0  0  0  0  0  0  0  0  0  0
    1.9186   -0.9081   -0.9265 C   0  0  0  0  0  0  0  0  0  0  0  0
   -0.4576   -0.8310   -0.2191 C   0  0  0  0  0  0  0  0  0  0  0  0
   -0.4164   -2.2954    0.2600 C   0  0  0  0  0  0  0  0  0  0  0  0
   -1.6173   -0.2085    0.4140 C   0  0  0  0  0  0  0  0  0  0  0  0
   -2.0881    1.1314    0.0233 C   0  0  0  0  0  0  0  0  0  0  0  0
   -1.2814    2.2073    0.1764 O   0  0  0  0  0  0  0  0  0  0  0  0
    2.7275    1.3043    0.6357 H   0  0  0  0  0  0  0  0  0  0  0  0
    1.2170    1.7455    1.5372 H   0  0  0  0  0  0  0  0  0  0  0  0
    1.8789    2.8312    0.1905 H   0  0  0  0  0  0  0  0  0  0  0  0
    1.2894   -0.3022    0.9646 H   0  0  0  0  0  0  0  0  0  0  0  0
    2.8275   -0.2948   -0.7687 H   0  0  0  0  0  0  0  0  0  0  0  0
    2.1066   -1.9049   -0.5320 H   0  0  0  0  0  0  0  0  0  0  0  0
    1.6536   -0.8434   -1.9959 H   0  0  0  0  0  0  0  0  0  0  0  0
   -0.6219   -0.9527   -1.3555 H   0  0  0  0  0  0  0  0  0  0  0  0
    0.3300   -2.8788   -0.2920 H   0  0  0  0  0  0  0  0  0  0  0  0
   -0.2360   -2.2491    1.3541 H   0  0  0  0  0  0  0  0  0  0  0  0
   -1.4148   -2.7603    0.0317 H   0  0  0  0  0  0  0  0  0  0  0  0
   -2.5454   -0.8850    0.3433 H   0  0  0  0  0  0  0  0  0  0  0  0
   -1.4855   -0.1699    1.5507 H   0  0  0  0  0  0  0  0  0  0  0  0
   -2.5453    1.1464   -1.0116 H   0  0  0  0  0  0  0  0  0  0  0  0
   -3.0073    1.3384    0.6715 H   0  0  0  0  0  0  0  0  0  0  0  0
   -1.7808    3.0302    0.4734 H   0  0  0  0  0  0  0  0  0  0  0  0
  1  2  1  0
  2  3  1  0
  3  4  1  0
  3  5  1  0
  5  6  1  0
  5  7  1  0
  7  8  1  0
  8  9  1  0
  1 10  1  0
  1 11  1  0
  1 12  1  0
  3 13  1  0
  4 14  1  0
  4 15  1  0
  4 16  1  0
  5 17  1  0
  6 18  1  0
  6 19  1  0
  6 20  1  0
  7 21  1  0
  7 22  1  0
  8 23  1  0
  8 24  1  0
  9 25  1  0
M  END
