
     RDKit          3D

 23 22  0  0  0  0  0  0  0  0999 V2000
   -2.2783   -1.1146    0.2867 C   0  0  0  0  0  0  0  0  0  0  0  0
   -0.9661   -1.1557   -0.0947 O   0  0  0  0  0  0  0  0  0  0  0  0
   -0.2953    0.0245   -0.0792 C   0  0  0  0  0  0  0  0  0  0  0  0
   -0.9702    1.0024   -1.0203 C   0  0  0  0  0  0  0  0  0  0  0  0
   -0.1225    0.6544    1.2627 C   0  0  0  0  0  0  0  0  0  0  0  0
    1.1039   -0.2234   -0.6474 C   0  0  0  0  0  0  0  0  0  0  0  0
    1.8414   -1.2489    0.1987 C   0  0  0  0  0  0  0  0  0  0  0  0
    1.8135    1.0726   -0.5923 C   0  0  0  0  0  0  0  0  0  0  0  0
    2.1982    1.6788   -1.5687 O   0  0  0  0  0  0  0  0  0  0  0  0
   -2.4205   -0.7396    1.3400 H   0  0  0  0  0  0  0  0  0  0  0  0
   -2.6727   -2.1541    0.2983 H   0  0  0  0  0  0  0  0  0  0  0  0
   -2.9368   -0.5557   -0.4201 H   0  0  0  0  0  0  0  0  0  0  0  0
   -0.3323    1.9091   -1.0348 H   0  0  0  0  0  0  0  0  0  0  0  0
   -0.9797    0.5679   -2.0406 H   0  0  0  0  0  0  0  0  0  0  0  0
   -1.9774    1.2470   -0.6365 H   0  0  0  0  0  0  0  0  0  0  0  0
    0.8156    0.2861    1.7717 H   0  0  0  0  0  0  0  0  0  0  0  0
   -0.9452    0.5277    1.9556 H   0  0  0  0  0  0  0  0  0  0  0  0
    0.0498    1.7579    1.1421 H   0  0  0  0  0  0  0  0  0  0  0  0
    0.9508   -0.5696   -1.6863 H   0  0  0  0  0  0  0  0  0  0  0  0
    1.1508   -1.6659    0.9646 H   0  0  0  0  0  0  0  0  0  0  0  0
    2.2408   -2.0187   -0.4905 H   0  0  0  0  0  0  0  0  0  0  0  0
    2.7294   -0.7920    0.7126 H   0  0  0  0  0  0  0  0  0  0  0  0
    2.0028    1.5100    0.3783 H   0  0  0  0  0  0  0  0  0  0  0  0
  1  2  1  0
  2  3  1  0
  3  4  1  0
  3  5  1  0
  3  6  1  0
  6  7  1  0
  6  8  1  0
  8  9  2  0
  1 10  1  0
  1 11  1  0
  1 12  1  0
  4 13  1  0
  4 14  1  0
  4 15  1  0
  5 16  1  0
  5 17  1  0
  5 18  1  0
  6 19  1  0
  7 20  1  0
  7 21  1  0
  7 22  1  0
  8 23  1  0
M  END
