
     RDKit          3D

 18 17  0  0  0  0  0  0  0  0999 V2000
    2.8063   -1.0288    0.2250 C   0  0  0  0  0  0  0  0  0  0  0  0
    1.4209   -0.7519    0.4256 O   0  0  0  0  0  0  0  0  0  0  0  0
    0.7851    0.0411   -0.4890 C   0  0  0  0  0  0  0  0  0  0  0  0
    1.4335    0.5021   -1.4757 O   0  0  0  0  0  0  0  0  0  0  0  0
   -0.6533    0.4221   -0.4221 C   0  0  0  0  0  0  0  0  0  0  0  0
   -0.6914    1.9398   -0.4330 C   0  0  0  0  0  0  0  0  0  0  0  0
   -1.2938   -0.1129    0.6731 O   0  0  0  0  0  0  0  0  0  0  0  0
   -2.3123   -0.9889    0.3118 C   0  0  0  0  0  0  0  0  0  0  0  0
    3.2295   -1.6669    1.0090 H   0  0  0  0  0  0  0  0  0  0  0  0
    2.9685   -1.5325   -0.7690 H   0  0  0  0  0  0  0  0  0  0  0  0
    3.4069   -0.0825    0.2045 H   0  0  0  0  0  0  0  0  0  0  0  0
   -1.1369   -0.0028   -1.3341 H   0  0  0  0  0  0  0  0  0  0  0  0
   -0.9712    2.2476   -1.4501 H   0  0  0  0  0  0  0  0  0  0  0  0
   -1.4190    2.3413    0.2886 H   0  0  0  0  0  0  0  0  0  0  0  0
    0.2982    2.3753   -0.1612 H   0  0  0  0  0  0  0  0  0  0  0  0
   -1.9379   -1.8459   -0.2846 H   0  0  0  0  0  0  0  0  0  0  0  0
   -3.0735   -0.4730   -0.3443 H   0  0  0  0  0  0  0  0  0  0  0  0
   -2.8596   -1.3833    1.1873 H   0  0  0  0  0  0  0  0  0  0  0  0
  1  2  1  0
  2  3  1  0
  3  4  2  0
  3  5  1  0
  5  6  1  0
  5  7  1  0
  7  8  1  0
  1  9  1  0
  1 10  1  0
  1 11  1  0
  5 12  1  0
  6 13  1  0
  6 14  1  0
  6 15  1  0
  8 16  1  0
  8 17  1  0
  8 18  1  0
M  END
