
     RDKit          3D

 19 18  0  0  0  0  0  0  0  0999 V2000
    2.1896    0.7841    0.8343 C   0  0  0  0  0  0  0  0  0  0  0  0
    1.1670    0.6236   -0.0747 O   0  0  0  0  0  0  0  0  0  0  0  0
    0.2879   -0.3822    0.2101 C   0  0  0  0  0  0  0  0  0  0  0  0
    0.3397   -1.3898   -0.9260 C   0  0  0  0  0  0  0  0  0  0  0  0
   -1.1506    0.0888    0.2983 C   0  0  0  0  0  0  0  0  0  0  0  0
   -1.6709    0.5907   -1.0272 C   0  0  0  0  0  0  0  0  0  0  0  0
   -1.3060    1.0571    1.3055 O   0  0  0  0  0  0  0  0  0  0  0  0
    2.8322   -0.1116    0.9448 H   0  0  0  0  0  0  0  0  0  0  0  0
    2.8438    1.6032    0.4593 H   0  0  0  0  0  0  0  0  0  0  0  0
    1.8628    1.0682    1.8435 H   0  0  0  0  0  0  0  0  0  0  0  0
    0.5053   -0.9433    1.1349 H   0  0  0  0  0  0  0  0  0  0  0  0
   -0.6494   -1.8674   -1.1050 H   0  0  0  0  0  0  0  0  0  0  0  0
    1.0527   -2.2085   -0.6752 H   0  0  0  0  0  0  0  0  0  0  0  0
    0.6325   -0.9256   -1.8862 H   0  0  0  0  0  0  0  0  0  0  0  0
   -1.8039   -0.7608    0.5876 H   0  0  0  0  0  0  0  0  0  0  0  0
   -1.2749   -0.0608   -1.8174 H   0  0  0  0  0  0  0  0  0  0  0  0
   -1.3924    1.6375   -1.2333 H   0  0  0  0  0  0  0  0  0  0  0  0
   -2.7821    0.5164   -0.9923 H   0  0  0  0  0  0  0  0  0  0  0  0
   -1.6832    0.6802    2.1192 H   0  0  0  0  0  0  0  0  0  0  0  0
  1  2  1  0
  2  3  1  0
  3  4  1  0
  3  5  1  0
  5  6  1  0
  5  7  1  0
  1  8  1  0
  1  9  1  0
  1 10  1  0
  3 11  1  0
  4 12  1  0
  4 13  1  0
  4 14  1  0
  5 15  1  0
  6 16  1  0
  6 17  1  0
  6 18  1  0
  7 19  1  0
M  END
