
     RDKit          3D

 21 21  0  0  0  0  0  0  0  0999 V2000
    2.1818   -1.4178   -0.8686 C   0  0  0  0  0  0  0  0  0  0  0  0
    1.2764   -0.4996   -1.3333 O   0  0  0  0  0  0  0  0  0  0  0  0
    0.7405    0.3417   -0.3941 C   0  0  0  0  0  0  0  0  0  0  0  0
    1.0841    1.7983   -0.6458 C   0  0  0  0  0  0  0  0  0  0  0  0
   -0.7619    0.2299   -0.2659 C   0  0  0  0  0  0  0  0  0  0  0  0
   -1.0821   -1.0870    0.3201 C   0  0  0  0  0  0  0  0  0  0  0  0
   -1.9774   -0.9025    1.2767 C   0  0  0  0  0  0  0  0  0  0  0  0
   -2.2636    0.5518    1.3352 C   0  0  0  0  0  0  0  0  0  0  0  0
   -1.1653    1.1405    0.7213 O   0  0  0  0  0  0  0  0  0  0  0  0
    3.0713   -0.9588   -0.3872 H   0  0  0  0  0  0  0  0  0  0  0  0
    1.6948   -2.1715   -0.2303 H   0  0  0  0  0  0  0  0  0  0  0  0
    2.5817   -1.9626   -1.7618 H   0  0  0  0  0  0  0  0  0  0  0  0
    1.1892    0.0572    0.5961 H   0  0  0  0  0  0  0  0  0  0  0  0
    0.3232    2.4295   -0.1149 H   0  0  0  0  0  0  0  0  0  0  0  0
    2.1021    2.0573   -0.3470 H   0  0  0  0  0  0  0  0  0  0  0  0
    0.9442    2.0369   -1.7308 H   0  0  0  0  0  0  0  0  0  0  0  0
   -1.2784    0.3834   -1.2149 H   0  0  0  0  0  0  0  0  0  0  0  0
   -0.6752   -2.0314    0.0355 H   0  0  0  0  0  0  0  0  0  0  0  0
   -2.4127   -1.7016    1.8992 H   0  0  0  0  0  0  0  0  0  0  0  0
   -2.3949    0.8968    2.3853 H   0  0  0  0  0  0  0  0  0  0  0  0
   -3.1778    0.8096    0.7463 H   0  0  0  0  0  0  0  0  0  0  0  0
  1  2  1  0
  2  3  1  0
  3  4  1  0
  3  5  1  0
  5  6  1  0
  6  7  2  0
  7  8  1  0
  8  9  1  0
  9  5  1  0
  1 10  1  0
  1 11  1  0
  1 12  1  0
  3 13  1  0
  4 14  1  0
  4 15  1  0
  4 16  1  0
  5 17  1  0
  6 18  1  0
  7 19  1  0
  8 20  1  0
  8 21  1  0
M  END
