
     RDKit          3D

 18 18  0  0  0  0  0  0  0  0999 V2000
    2.8739   -0.4543    0.8058 C   0  0  0  0  0  0  0  0  0  0  0  0
    1.4252   -0.3561    0.9132 O   0  0  0  0  0  0  0  0  0  0  0  0
    0.7039   -0.0968   -0.2142 C   0  0  0  0  0  0  0  0  0  0  0  0
    1.3537    0.0397   -1.3262 O   0  0  0  0  0  0  0  0  0  0  0  0
   -0.7540    0.0563   -0.3398 C   0  0  0  0  0  0  0  0  0  0  0  0
   -1.5095   -1.2418   -0.1350 C   0  0  0  0  0  0  0  0  0  0  0  0
   -1.3937    1.2733    0.2487 C   0  0  0  0  0  0  0  0  0  0  0  0
   -1.2782    1.1424   -1.2516 C   0  0  0  0  0  0  0  0  0  0  0  0
    3.4131   -0.0706    1.6614 H   0  0  0  0  0  0  0  0  0  0  0  0
    3.1556    0.0309   -0.1604 H   0  0  0  0  0  0  0  0  0  0  0  0
    3.0301   -1.5605    0.6399 H   0  0  0  0  0  0  0  0  0  0  0  0
   -1.1784   -1.9494   -0.9865 H   0  0  0  0  0  0  0  0  0  0  0  0
   -1.2818   -1.6896    0.8226 H   0  0  0  0  0  0  0  0  0  0  0  0
   -2.5907   -1.0810   -0.2800 H   0  0  0  0  0  0  0  0  0  0  0  0
   -0.8565    2.0229    0.8231 H   0  0  0  0  0  0  0  0  0  0  0  0
   -2.4298    1.1203    0.6049 H   0  0  0  0  0  0  0  0  0  0  0  0
   -0.5123    1.8900   -1.6478 H   0  0  0  0  0  0  0  0  0  0  0  0
   -2.1706    0.9244   -1.8668 H   0  0  0  0  0  0  0  0  0  0  0  0
  1  2  1  0
  2  3  1  0
  3  4  2  0
  3  5  1  0
  5  6  1  0
  5  7  1  0
  7  8  1  0
  8  5  1  0
  1  9  1  0
  1 10  1  0
  1 11  1  0
  6 12  1  0
  6 13  1  0
  6 14  1  0
  7 15  1  0
  7 16  1  0
  8 17  1  0
  8 18  1  0
M  END
