
     RDKit          3D

 19 19  0  0  0  0  0  0  0  0999 V2000
    3.1071    0.3561    0.1122 C   0  0  0  0  0  0  0  0  0  0  0  0
    1.8828   -0.0302    0.7473 O   0  0  0  0  0  0  0  0  0  0  0  0
    0.8503   -0.4060   -0.1030 C   0  0  0  0  0  0  0  0  0  0  0  0
    0.9478   -0.4185   -1.3503 O   0  0  0  0  0  0  0  0  0  0  0  0
   -0.4454   -0.8170    0.5118 C   0  0  0  0  0  0  0  0  0  0  0  0
   -1.0286    0.2655    1.3337 C   0  0  0  0  0  0  0  0  0  0  0  0
   -1.7688    1.0237    0.5504 C   0  0  0  0  0  0  0  0  0  0  0  0
   -1.7455    0.5082   -0.8717 C   0  0  0  0  0  0  0  0  0  0  0  0
   -1.4486   -0.9838   -0.5954 C   0  0  0  0  0  0  0  0  0  0  0  0
    3.5735   -0.5467   -0.3652 H   0  0  0  0  0  0  0  0  0  0  0  0
    2.8134    1.0624   -0.6948 H   0  0  0  0  0  0  0  0  0  0  0  0
    3.7734    0.8107    0.8617 H   0  0  0  0  0  0  0  0  0  0  0  0
   -0.3024   -1.7549    1.0987 H   0  0  0  0  0  0  0  0  0  0  0  0
   -0.8690    0.4120    2.4218 H   0  0  0  0  0  0  0  0  0  0  0  0
   -2.3239    1.9047    0.8830 H   0  0  0  0  0  0  0  0  0  0  0  0
   -0.9585    0.9688   -1.4671 H   0  0  0  0  0  0  0  0  0  0  0  0
   -2.7464    0.5940   -1.2885 H   0  0  0  0  0  0  0  0  0  0  0  0
   -2.3499   -1.5135   -0.2953 H   0  0  0  0  0  0  0  0  0  0  0  0
   -0.9614   -1.4356   -1.4894 H   0  0  0  0  0  0  0  0  0  0  0  0
  1  2  1  0
  2  3  1  0
  3  4  2  0
  3  5  1  0
  5  6  1  0
  6  7  2  0
  7  8  1  0
  8  9  1  0
  9  5  1  0
  1 10  1  0
  1 11  1  0
  1 12  1  0
  5 13  1  0
  6 14  1  0
  7 15  1  0
  8 16  1  0
  8 17  1  0
  9 18  1  0
  9 19  1  0
M  END
