
     RDKit          3D

 25 24  0  0  0  0  0  0  0  0999 V2000
    2.5431   -0.5554    0.1869 C   0  0  0  0  0  0  0  0  0  0  0  0
    1.2130   -0.8879    0.3231 O   0  0  0  0  0  0  0  0  0  0  0  0
    0.3369    0.1570    0.1197 C   0  0  0  0  0  0  0  0  0  0  0  0
    0.5150    1.3041    1.0489 C   0  0  0  0  0  0  0  0  0  0  0  0
    0.5453    0.6559   -1.2951 C   0  0  0  0  0  0  0  0  0  0  0  0
   -1.0735   -0.4228    0.2827 C   0  0  0  0  0  0  0  0  0  0  0  0
   -2.1331    0.5749   -0.0459 C   0  0  0  0  0  0  0  0  0  0  0  0
   -1.2495   -1.6015   -0.6818 C   0  0  0  0  0  0  0  0  0  0  0  0
   -1.2121   -0.9464    1.5593 O   0  0  0  0  0  0  0  0  0  0  0  0
    3.1316   -1.4797    0.3751 H   0  0  0  0  0  0  0  0  0  0  0  0
    2.6892   -0.1925   -0.8539 H   0  0  0  0  0  0  0  0  0  0  0  0
    2.9035    0.1926    0.9133 H   0  0  0  0  0  0  0  0  0  0  0  0
    0.6882    2.2803    0.5126 H   0  0  0  0  0  0  0  0  0  0  0  0
    1.3468    1.1920    1.7720 H   0  0  0  0  0  0  0  0  0  0  0  0
   -0.4021    1.4500    1.6563 H   0  0  0  0  0  0  0  0  0  0  0  0
    0.7005   -0.1801   -2.0071 H   0  0  0  0  0  0  0  0  0  0  0  0
   -0.3386    1.2781   -1.5840 H   0  0  0  0  0  0  0  0  0  0  0  0
    1.4170    1.3511   -1.2535 H   0  0  0  0  0  0  0  0  0  0  0  0
   -1.9642    1.5796    0.3508 H   0  0  0  0  0  0  0  0  0  0  0  0
   -2.3102    0.5639   -1.1406 H   0  0  0  0  0  0  0  0  0  0  0  0
   -3.0893    0.2075    0.4106 H   0  0  0  0  0  0  0  0  0  0  0  0
   -0.4112   -2.3281   -0.5516 H   0  0  0  0  0  0  0  0  0  0  0  0
   -1.3107   -1.2371   -1.7322 H   0  0  0  0  0  0  0  0  0  0  0  0
   -2.1737   -2.1290   -0.4159 H   0  0  0  0  0  0  0  0  0  0  0  0
   -0.3621   -0.8264    2.0504 H   0  0  0  0  0  0  0  0  0  0  0  0
  1  2  1  0
  2  3  1  0
  3  4  1  0
  3  5  1  0
  3  6  1  0
  6  7  1  0
  6  8  1  0
  6  9  1  0
  1 10  1  0
  1 11  1  0
  1 12  1  0
  4 13  1  0
  4 14  1  0
  4 15  1  0
  5 16  1  0
  5 17  1  0
  5 18  1  0
  7 19  1  0
  7 20  1  0
  7 21  1  0
  8 22  1  0
  8 23  1  0
  8 24  1  0
  9 25  1  0
M  END
