
     RDKit          3D

 17 16  0  0  0  0  0  0  0  0999 V2000
    2.8229    0.2246   -0.0792 C   0  0  0  0  0  0  0  0  0  0  0  0
    1.4617    0.5838    0.1831 O   0  0  0  0  0  0  0  0  0  0  0  0
    0.4809   -0.3494    0.3905 C   0  0  0  0  0  0  0  0  0  0  0  0
    0.8435   -1.5631    0.3380 O   0  0  0  0  0  0  0  0  0  0  0  0
   -0.9363    0.0383    0.6633 C   0  0  0  0  0  0  0  0  0  0  0  0
   -1.7551   -1.1910    0.8435 C   0  0  0  0  0  0  0  0  0  0  0  0
   -2.6231   -1.2671    1.7163 O   0  0  0  0  0  0  0  0  0  0  0  0
   -1.4580    0.8388   -0.5060 C   0  0  0  0  0  0  0  0  0  0  0  0
   -1.4052    0.0902   -1.6638 O   0  0  0  0  0  0  0  0  0  0  0  0
    3.3794    1.1821   -0.1597 H   0  0  0  0  0  0  0  0  0  0  0  0
    2.8460   -0.3724   -1.0128 H   0  0  0  0  0  0  0  0  0  0  0  0
    3.2713   -0.3153    0.7834 H   0  0  0  0  0  0  0  0  0  0  0  0
   -1.0148    0.6378    1.5976 H   0  0  0  0  0  0  0  0  0  0  0  0
   -1.5445   -2.0157    0.1634 H   0  0  0  0  0  0  0  0  0  0  0  0
   -2.5155    1.1263   -0.2556 H   0  0  0  0  0  0  0  0  0  0  0  0
   -0.8679    1.7687   -0.5730 H   0  0  0  0  0  0  0  0  0  0  0  0
   -0.9854    0.5834   -2.4292 H   0  0  0  0  0  0  0  0  0  0  0  0
  1  2  1  0
  2  3  1  0
  3  4  2  0
  3  5  1  0
  5  6  1  0
  6  7  2  0
  5  8  1  0
  8  9  1  0
  1 10  1  0
  1 11  1  0
  1 12  1  0
  5 13  1  0
  6 14  1  0
  8 15  1  0
  8 16  1  0
  9 17  1  0
M  END
