
     RDKit          3D

 25 25  0  0  0  0  0  0  0  0999 V2000
    2.2528    1.3950    0.8497 C   0  0  0  0  0  0  0  0  0  0  0  0
    1.1909    1.0450   -0.0010 O   0  0  0  0  0  0  0  0  0  0  0  0
    0.9511   -0.3155    0.0069 C   0  0  0  0  0  0  0  0  0  0  0  0
    1.3175   -0.8406   -1.3569 C   0  0  0  0  0  0  0  0  0  0  0  0
   -0.4222   -0.6284    0.4398 C   0  0  0  0  0  0  0  0  0  0  0  0
   -0.7268   -2.1150    0.4645 C   0  0  0  0  0  0  0  0  0  0  0  0
   -1.4371    0.1224   -0.3855 C   0  0  0  0  0  0  0  0  0  0  0  0
   -1.3805    1.6583   -0.3405 C   0  0  0  0  0  0  0  0  0  0  0  0
   -2.5446    0.8911    0.1721 C   0  0  0  0  0  0  0  0  0  0  0  0
    2.3944    2.4859    0.8001 H   0  0  0  0  0  0  0  0  0  0  0  0
    3.1675    0.9357    0.4148 H   0  0  0  0  0  0  0  0  0  0  0  0
    2.0578    1.0238    1.8845 H   0  0  0  0  0  0  0  0  0  0  0  0
    1.6990   -0.7757    0.7163 H   0  0  0  0  0  0  0  0  0  0  0  0
    1.4032   -1.9363   -1.2837 H   0  0  0  0  0  0  0  0  0  0  0  0
    0.5979   -0.5662   -2.1392 H   0  0  0  0  0  0  0  0  0  0  0  0
    2.3379   -0.4564   -1.5853 H   0  0  0  0  0  0  0  0  0  0  0  0
   -0.5077   -0.3036    1.5196 H   0  0  0  0  0  0  0  0  0  0  0  0
   -1.8234   -2.2761    0.5417 H   0  0  0  0  0  0  0  0  0  0  0  0
   -0.1635   -2.5872    1.2776 H   0  0  0  0  0  0  0  0  0  0  0  0
   -0.3604   -2.5818   -0.4836 H   0  0  0  0  0  0  0  0  0  0  0  0
   -1.5563   -0.3018   -1.4348 H   0  0  0  0  0  0  0  0  0  0  0  0
   -1.4874    2.1925   -1.3127 H   0  0  0  0  0  0  0  0  0  0  0  0
   -0.7408    2.1605    0.4090 H   0  0  0  0  0  0  0  0  0  0  0  0
   -2.7489    0.7954    1.2576 H   0  0  0  0  0  0  0  0  0  0  0  0
   -3.4707    0.9790   -0.4312 H   0  0  0  0  0  0  0  0  0  0  0  0
  1  2  1  0
  2  3  1  0
  3  4  1  0
  3  5  1  0
  5  6  1  0
  5  7  1  0
  7  8  1  0
  8  9  1  0
  9  7  1  0
  1 10  1  0
  1 11  1  0
  1 12  1  0
  3 13  1  0
  4 14  1  0
  4 15  1  0
  4 16  1  0
  5 17  1  0
  6 18  1  0
  6 19  1  0
  6 20  1  0
  7 21  1  0
  8 22  1  0
  8 23  1  0
  9 24  1  0
  9 25  1  0
M  END
