
     RDKit          3D

 23 23  0  0  0  0  0  0  0  0999 V2000
    1.5797    1.4913   -0.8182 C   0  0  0  0  0  0  0  0  0  0  0  0
    1.2932    0.1759   -1.0169 O   0  0  0  0  0  0  0  0  0  0  0  0
    0.4741   -0.4507   -0.1368 C   0  0  0  0  0  0  0  0  0  0  0  0
    0.3352   -1.9045   -0.6091 C   0  0  0  0  0  0  0  0  0  0  0  0
    1.0087   -0.5337    1.2697 C   0  0  0  0  0  0  0  0  0  0  0  0
   -0.8971    0.1615   -0.1429 C   0  0  0  0  0  0  0  0  0  0  0  0
   -1.0921    1.4331    0.6253 C   0  0  0  0  0  0  0  0  0  0  0  0
   -2.0327   -0.7165   -0.2594 C   0  0  0  0  0  0  0  0  0  0  0  0
   -1.5917    0.1347   -1.3814 O   0  0  0  0  0  0  0  0  0  0  0  0
    2.0743    1.7318    0.1410 H   0  0  0  0  0  0  0  0  0  0  0  0
    0.7373    2.1847   -0.9902 H   0  0  0  0  0  0  0  0  0  0  0  0
    2.3402    1.7673   -1.6108 H   0  0  0  0  0  0  0  0  0  0  0  0
    1.3571   -2.3400   -0.6042 H   0  0  0  0  0  0  0  0  0  0  0  0
   -0.1652   -1.9383   -1.5799 H   0  0  0  0  0  0  0  0  0  0  0  0
   -0.2226   -2.4353    0.1939 H   0  0  0  0  0  0  0  0  0  0  0  0
    1.8165   -1.3117    1.2651 H   0  0  0  0  0  0  0  0  0  0  0  0
    0.1769   -0.9173    1.9059 H   0  0  0  0  0  0  0  0  0  0  0  0
    1.3373    0.4183    1.6812 H   0  0  0  0  0  0  0  0  0  0  0  0
   -1.4592    2.2303   -0.0429 H   0  0  0  0  0  0  0  0  0  0  0  0
   -1.9153    1.2710    1.3686 H   0  0  0  0  0  0  0  0  0  0  0  0
   -0.1623    1.7058    1.1769 H   0  0  0  0  0  0  0  0  0  0  0  0
   -1.9803   -1.7638   -0.6027 H   0  0  0  0  0  0  0  0  0  0  0  0
   -3.0121   -0.3937    0.1676 H   0  0  0  0  0  0  0  0  0  0  0  0
  1  2  1  0
  2  3  1  0
  3  4  1  0
  3  5  1  0
  3  6  1  0
  6  7  1  0
  6  8  1  0
  8  9  1  0
  9  6  1  0
  1 10  1  0
  1 11  1  0
  1 12  1  0
  4 13  1  0
  4 14  1  0
  4 15  1  0
  5 16  1  0
  5 17  1  0
  5 18  1  0
  7 19  1  0
  7 20  1  0
  7 21  1  0
  8 22  1  0
  8 23  1  0
M  END
