
     RDKit          3D

 21 20  0  0  0  0  0  0  0  0999 V2000
    3.1224    0.4915   -0.2266 C   0  0  0  0  0  0  0  0  0  0  0  0
    1.8897    0.3270    0.4517 O   0  0  0  0  0  0  0  0  0  0  0  0
    0.9541   -0.5709   -0.0661 C   0  0  0  0  0  0  0  0  0  0  0  0
    1.2512   -1.1921   -1.1121 O   0  0  0  0  0  0  0  0  0  0  0  0
   -0.3568   -0.8225    0.5528 C   0  0  0  0  0  0  0  0  0  0  0  0
   -1.0916   -1.8389   -0.2691 C   0  0  0  0  0  0  0  0  0  0  0  0
   -1.1533    0.4305    0.7858 C   0  0  0  0  0  0  0  0  0  0  0  0
   -1.4445    1.1876   -0.4776 C   0  0  0  0  0  0  0  0  0  0  0  0
   -2.1873    2.3231   -0.1110 O   0  0  0  0  0  0  0  0  0  0  0  0
    3.1145    0.0766   -1.2430 H   0  0  0  0  0  0  0  0  0  0  0  0
    3.4609    1.5369   -0.1971 H   0  0  0  0  0  0  0  0  0  0  0  0
    3.8725   -0.1015    0.3743 H   0  0  0  0  0  0  0  0  0  0  0  0
   -0.2085   -1.2859    1.5636 H   0  0  0  0  0  0  0  0  0  0  0  0
   -1.1153   -1.4750   -1.3290 H   0  0  0  0  0  0  0  0  0  0  0  0
   -0.4418   -2.7540   -0.3030 H   0  0  0  0  0  0  0  0  0  0  0  0
   -2.1011   -2.0714    0.1189 H   0  0  0  0  0  0  0  0  0  0  0  0
   -0.6522    1.0704    1.5113 H   0  0  0  0  0  0  0  0  0  0  0  0
   -2.1286    0.1151    1.2276 H   0  0  0  0  0  0  0  0  0  0  0  0
   -0.5241    1.4777   -1.0010 H   0  0  0  0  0  0  0  0  0  0  0  0
   -2.1348    0.5779   -1.1144 H   0  0  0  0  0  0  0  0  0  0  0  0
   -2.1255    2.4979    0.8641 H   0  0  0  0  0  0  0  0  0  0  0  0
  1  2  1  0
  2  3  1  0
  3  4  2  0
  3  5  1  0
  5  6  1  0
  5  7  1  0
  7  8  1  0
  8  9  1  0
  1 10  1  0
  1 11  1  0
  1 12  1  0
  5 13  1  0
  6 14  1  0
  6 15  1  0
  6 16  1  0
  7 17  1  0
  7 18  1  0
  8 19  1  0
  8 20  1  0
  9 21  1  0
M  END
