
     RDKit          3D

 23 23  0  0  0  0  0  0  0  0999 V2000
   -1.5154    1.5271    0.1851 C   0  0  0  0  0  0  0  0  0  0  0  0
   -0.8553    0.5188    0.8486 O   0  0  0  0  0  0  0  0  0  0  0  0
   -0.5250   -0.5786    0.1406 C   0  0  0  0  0  0  0  0  0  0  0  0
    0.1492   -1.5518    1.1342 C   0  0  0  0  0  0  0  0  0  0  0  0
   -1.6181   -1.3078   -0.5479 C   0  0  0  0  0  0  0  0  0  0  0  0
    0.5250   -0.2399   -0.9095 C   0  0  0  0  0  0  0  0  0  0  0  0
    1.8027    0.2789   -0.3609 C   0  0  0  0  0  0  0  0  0  0  0  0
    1.9600    1.4395    0.4146 C   0  0  0  0  0  0  0  0  0  0  0  0
    2.2103    1.5138   -1.0183 O   0  0  0  0  0  0  0  0  0  0  0  0
   -0.9063    1.9098   -0.6426 H   0  0  0  0  0  0  0  0  0  0  0  0
   -2.5576    1.2797   -0.0912 H   0  0  0  0  0  0  0  0  0  0  0  0
   -1.6014    2.3833    0.9180 H   0  0  0  0  0  0  0  0  0  0  0  0
   -0.6186   -1.9625    1.8190 H   0  0  0  0  0  0  0  0  0  0  0  0
    0.7001   -2.3246    0.5921 H   0  0  0  0  0  0  0  0  0  0  0  0
    0.8605   -0.9063    1.7131 H   0  0  0  0  0  0  0  0  0  0  0  0
   -1.2800   -2.3768   -0.6787 H   0  0  0  0  0  0  0  0  0  0  0  0
   -1.7742   -0.8858   -1.5480 H   0  0  0  0  0  0  0  0  0  0  0  0
   -2.5718   -1.3565   -0.0033 H   0  0  0  0  0  0  0  0  0  0  0  0
    0.7481   -1.1627   -1.5255 H   0  0  0  0  0  0  0  0  0  0  0  0
    0.0598    0.4529   -1.6588 H   0  0  0  0  0  0  0  0  0  0  0  0
    2.6661   -0.4607   -0.3795 H   0  0  0  0  0  0  0  0  0  0  0  0
    1.2035    2.1780    0.6663 H   0  0  0  0  0  0  0  0  0  0  0  0
    2.9383    1.6320    0.9324 H   0  0  0  0  0  0  0  0  0  0  0  0
  1  2  1  0
  2  3  1  0
  3  4  1  0
  3  5  1  0
  3  6  1  0
  6  7  1  0
  7  8  1  0
  8  9  1  0
  9  7  1  0
  1 10  1  0
  1 11  1  0
  1 12  1  0
  4 13  1  0
  4 14  1  0
  4 15  1  0
  5 16  1  0
  5 17  1  0
  5 18  1  0
  6 19  1  0
  6 20  1  0
  7 21  1  0
  8 22  1  0
  8 23  1  0
M  END
