
     RDKit          3D

 21 20  0  0  0  0  0  0  0  0999 V2000
    2.7094   -0.2554    0.2203 C   0  0  0  0  0  0  0  0  0  0  0  0
    1.6065    0.5751    0.2988 O   0  0  0  0  0  0  0  0  0  0  0  0
    0.4188   -0.0697    0.5095 C   0  0  0  0  0  0  0  0  0  0  0  0
   -0.1864    0.3024    1.8525 C   0  0  0  0  0  0  0  0  0  0  0  0
   -0.5739    0.1061   -0.6119 C   0  0  0  0  0  0  0  0  0  0  0  0
   -0.8786    1.5564   -0.8946 C   0  0  0  0  0  0  0  0  0  0  0  0
   -1.7847   -0.5642   -0.3736 O   0  0  0  0  0  0  0  0  0  0  0  0
   -2.2135   -1.5703   -1.2078 C   0  0  0  0  0  0  0  0  0  0  0  0
   -1.4857   -1.8680   -2.1882 O   0  0  0  0  0  0  0  0  0  0  0  0
    2.7569   -0.7964    1.2124 H   0  0  0  0  0  0  0  0  0  0  0  0
    3.6567    0.2739    0.1263 H   0  0  0  0  0  0  0  0  0  0  0  0
    2.6027   -1.0621   -0.5327 H   0  0  0  0  0  0  0  0  0  0  0  0
    0.6489   -1.1558    0.5679 H   0  0  0  0  0  0  0  0  0  0  0  0
   -0.7938   -0.5292    2.2712 H   0  0  0  0  0  0  0  0  0  0  0  0
   -0.9023    1.1667    1.7505 H   0  0  0  0  0  0  0  0  0  0  0  0
    0.6080    0.5386    2.5886 H   0  0  0  0  0  0  0  0  0  0  0  0
   -0.1177   -0.3281   -1.5223 H   0  0  0  0  0  0  0  0  0  0  0  0
   -1.2775    1.5862   -1.9489 H   0  0  0  0  0  0  0  0  0  0  0  0
   -1.6614    1.9690   -0.2185 H   0  0  0  0  0  0  0  0  0  0  0  0
    0.0263    2.1912   -0.9098 H   0  0  0  0  0  0  0  0  0  0  0  0
   -3.1586   -2.0665   -0.9895 H   0  0  0  0  0  0  0  0  0  0  0  0
  1  2  1  0
  2  3  1  0
  3  4  1  0
  3  5  1  0
  5  6  1  0
  5  7  1  0
  7  8  1  0
  8  9  2  0
  1 10  1  0
  1 11  1  0
  1 12  1  0
  3 13  1  0
  4 14  1  0
  4 15  1  0
  4 16  1  0
  5 17  1  0
  6 18  1  0
  6 19  1  0
  6 20  1  0
  8 21  1  0
M  END
