
     RDKit          3D

 19 18  0  0  0  0  0  0  0  0999 V2000
   -2.9009    0.5966   -0.0685 C   0  0  0  0  0  0  0  0  0  0  0  0
   -1.6024    0.3185   -0.5551 O   0  0  0  0  0  0  0  0  0  0  0  0
   -0.9359   -0.8711   -0.2171 C   0  0  0  0  0  0  0  0  0  0  0  0
   -1.5639   -1.6617    0.5374 O   0  0  0  0  0  0  0  0  0  0  0  0
    0.4277   -1.1821   -0.7168 C   0  0  0  0  0  0  0  0  0  0  0  0
    1.4903   -0.8917    0.3065 C   0  0  0  0  0  0  0  0  0  0  0  0
    1.5151    0.5555    0.7267 C   0  0  0  0  0  0  0  0  0  0  0  0
    1.7750    1.4632   -0.4173 C   0  0  0  0  0  0  0  0  0  0  0  0
    1.8152    2.6613   -0.1864 O   0  0  0  0  0  0  0  0  0  0  0  0
   -3.6921    0.1257   -0.6986 H   0  0  0  0  0  0  0  0  0  0  0  0
   -3.0630    1.6907   -0.1282 H   0  0  0  0  0  0  0  0  0  0  0  0
   -3.0279    0.1893    0.9521 H   0  0  0  0  0  0  0  0  0  0  0  0
    0.4557   -2.2806   -0.9093 H   0  0  0  0  0  0  0  0  0  0  0  0
    0.6669   -0.6612   -1.6492 H   0  0  0  0  0  0  0  0  0  0  0  0
    2.4662   -1.1288   -0.1323 H   0  0  0  0  0  0  0  0  0  0  0  0
    1.3370   -1.5332    1.1704 H   0  0  0  0  0  0  0  0  0  0  0  0
    2.3636    0.6769    1.4303 H   0  0  0  0  0  0  0  0  0  0  0  0
    0.5445    0.8116    1.1741 H   0  0  0  0  0  0  0  0  0  0  0  0
    1.9289    1.1212   -1.4319 H   0  0  0  0  0  0  0  0  0  0  0  0
  1  2  1  0
  2  3  1  0
  3  4  2  0
  3  5  1  0
  5  6  1  0
  6  7  1  0
  7  8  1  0
  8  9  2  0
  1 10  1  0
  1 11  1  0
  1 12  1  0
  5 13  1  0
  5 14  1  0
  6 15  1  0
  6 16  1  0
  7 17  1  0
  7 18  1  0
  8 19  1  0
M  END
