
     RDKit          3D

 19 19  0  0  0  0  0  0  0  0999 V2000
   -3.6865   -0.1878    0.1299 C   0  0  0  0  0  0  0  0  0  0  0  0
   -2.5004    0.2927    0.7157 O   0  0  0  0  0  0  0  0  0  0  0  0
   -1.2958    0.0430    0.0796 C   0  0  0  0  0  0  0  0  0  0  0  0
   -1.3208   -0.6037   -0.9949 O   0  0  0  0  0  0  0  0  0  0  0  0
   -0.0118    0.5288    0.6563 C   0  0  0  0  0  0  0  0  0  0  0  0
    1.1134    0.1069   -0.2528 C   0  0  0  0  0  0  0  0  0  0  0  0
    2.4742    0.5588    0.2534 C   0  0  0  0  0  0  0  0  0  0  0  0
    2.8323   -0.7560   -0.4446 C   0  0  0  0  0  0  0  0  0  0  0  0
    1.5562   -1.2138   -0.0427 O   0  0  0  0  0  0  0  0  0  0  0  0
   -3.5145   -0.6625   -0.8470 H   0  0  0  0  0  0  0  0  0  0  0  0
   -4.3410    0.6916   -0.0568 H   0  0  0  0  0  0  0  0  0  0  0  0
   -4.2631   -0.8560    0.8020 H   0  0  0  0  0  0  0  0  0  0  0  0
    0.1359    0.0618    1.6506 H   0  0  0  0  0  0  0  0  0  0  0  0
   -0.0062    1.6395    0.7201 H   0  0  0  0  0  0  0  0  0  0  0  0
    0.9530    0.2959   -1.3266 H   0  0  0  0  0  0  0  0  0  0  0  0
    2.8732    1.4574   -0.2148 H   0  0  0  0  0  0  0  0  0  0  0  0
    2.5122    0.5024    1.3563 H   0  0  0  0  0  0  0  0  0  0  0  0
    2.8141   -0.6086   -1.5328 H   0  0  0  0  0  0  0  0  0  0  0  0
    3.6755   -1.2906   -0.0081 H   0  0  0  0  0  0  0  0  0  0  0  0
  1  2  1  0
  2  3  1  0
  3  4  2  0
  3  5  1  0
  5  6  1  0
  6  7  1  0
  7  8  1  0
  8  9  1  0
  9  6  1  0
  1 10  1  0
  1 11  1  0
  1 12  1  0
  5 13  1  0
  5 14  1  0
  6 15  1  0
  7 16  1  0
  7 17  1  0
  8 18  1  0
  8 19  1  0
M  END
