
     RDKit          3D

 19 18  0  0  0  0  0  0  0  0999 V2000
   -0.9890    2.1782   -1.4166 C   0  0  0  0  0  0  0  0  0  0  0  0
   -0.4471    1.2489   -0.5689 O   0  0  0  0  0  0  0  0  0  0  0  0
   -0.6659   -0.0586   -0.8756 C   0  0  0  0  0  0  0  0  0  0  0  0
   -1.4845   -0.6435    0.2889 C   0  0  0  0  0  0  0  0  0  0  0  0
    0.5859   -0.9022   -0.9276 C   0  0  0  0  0  0  0  0  0  0  0  0
    1.2685   -0.8887    0.3845 C   0  0  0  0  0  0  0  0  0  0  0  0
    1.8280   -0.8848    1.5047 C   0  0  0  0  0  0  0  0  0  0  0  0
    2.4763   -0.8764    2.7487 C   0  0  0  0  0  0  0  0  0  0  0  0
    2.1128   -0.0723    3.6714 O   0  0  0  0  0  0  0  0  0  0  0  0
   -0.6135    2.0969   -2.4546 H   0  0  0  0  0  0  0  0  0  0  0  0
   -2.1109    2.2144   -1.3840 H   0  0  0  0  0  0  0  0  0  0  0  0
   -0.6587    3.1931   -1.0591 H   0  0  0  0  0  0  0  0  0  0  0  0
   -1.2644   -0.2419   -1.7793 H   0  0  0  0  0  0  0  0  0  0  0  0
   -1.2469   -1.7189    0.4180 H   0  0  0  0  0  0  0  0  0  0  0  0
   -2.5401   -0.4459    0.1048 H   0  0  0  0  0  0  0  0  0  0  0  0
   -1.1241   -0.1041    1.1883 H   0  0  0  0  0  0  0  0  0  0  0  0
    0.2689   -1.9477   -1.1269 H   0  0  0  0  0  0  0  0  0  0  0  0
    1.2896   -0.6050   -1.7219 H   0  0  0  0  0  0  0  0  0  0  0  0
    3.3152   -1.5413    3.0052 H   0  0  0  0  0  0  0  0  0  0  0  0
  1  2  1  0
  2  3  1  0
  3  4  1  0
  3  5  1  0
  5  6  1  0
  6  7  3  0
  7  8  1  0
  8  9  2  0
  1 10  1  0
  1 11  1  0
  1 12  1  0
  3 13  1  0
  4 14  1  0
  4 15  1  0
  4 16  1  0
  5 17  1  0
  5 18  1  0
  8 19  1  0
M  END
