
     RDKit          3D

 19 18  0  0  0  0  0  0  0  0999 V2000
    1.7020   -2.5867    2.2333 C   0  0  0  0  0  0  0  0  0  0  0  0
    2.0003   -1.5422    1.5695 O   0  0  0  0  0  0  0  0  0  0  0  0
    2.3825   -0.4519    0.8926 C   0  0  0  0  0  0  0  0  0  0  0  0
    3.4918   -0.0742    0.8591 O   0  0  0  0  0  0  0  0  0  0  0  0
    1.2162    0.2123    0.2019 C   0  0  0  0  0  0  0  0  0  0  0  0
    0.1345    0.8223   -0.4622 C   0  0  0  0  0  0  0  0  0  0  0  0
   -0.9365    1.4376   -1.1071 C   0  0  0  0  0  0  0  0  0  0  0  0
   -1.3069    0.8361   -2.3726 C   0  0  0  0  0  0  0  0  0  0  0  0
   -2.0223    1.4387   -0.0045 C   0  0  0  0  0  0  0  0  0  0  0  0
    2.2545   -2.9425    3.1320 H   0  0  0  0  0  0  0  0  0  0  0  0
    1.5670   -3.5064    1.5104 H   0  0  0  0  0  0  0  0  0  0  0  0
    0.6143   -2.5489    2.6263 H   0  0  0  0  0  0  0  0  0  0  0  0
   -0.6423    2.5290   -1.2168 H   0  0  0  0  0  0  0  0  0  0  0  0
   -2.2066    1.4590   -2.7835 H   0  0  0  0  0  0  0  0  0  0  0  0
   -0.4998    0.8576   -3.1467 H   0  0  0  0  0  0  0  0  0  0  0  0
   -1.6838   -0.2345   -2.3077 H   0  0  0  0  0  0  0  0  0  0  0  0
   -2.4943    0.5143    0.2673 H   0  0  0  0  0  0  0  0  0  0  0  0
   -2.4359    2.3973    0.2477 H   0  0  0  0  0  0  0  0  0  0  0  0
   -1.1347    1.3831    0.9685 H   0  0  0  0  0  0  0  0  0  0  0  0
  1  2  1  0
  2  3  1  0
  3  4  2  0
  3  5  1  0
  5  6  3  0
  6  7  1  0
  7  8  1  0
  7  9  1  0
  1 10  1  0
  1 11  1  0
  1 12  1  0
  7 13  1  0
  8 14  1  0
  8 15  1  0
  8 16  1  0
  9 17  1  0
  9 18  1  0
  9 19  1  0
M  END
