
     RDKit          3D

 19 19  0  0  0  0  0  0  0  0999 V2000
    3.2296    0.0920   -0.0863 C   0  0  0  0  0  0  0  0  0  0  0  0
    1.9525   -0.3538    0.3643 O   0  0  0  0  0  0  0  0  0  0  0  0
    0.7981   -0.2147   -0.3750 C   0  0  0  0  0  0  0  0  0  0  0  0
    0.8424    0.3265   -1.5024 O   0  0  0  0  0  0  0  0  0  0  0  0
   -0.4646   -0.7103    0.1866 C   0  0  0  0  0  0  0  0  0  0  0  0
   -1.5821   -0.4514   -0.7920 C   0  0  0  0  0  0  0  0  0  0  0  0
   -2.2029    0.8141   -0.2780 C   0  0  0  0  0  0  0  0  0  0  0  0
   -1.5267    1.1982    0.8568 O   0  0  0  0  0  0  0  0  0  0  0  0
   -0.9103    0.0815    1.3959 C   0  0  0  0  0  0  0  0  0  0  0  0
    3.2292    0.2880   -1.1583 H   0  0  0  0  0  0  0  0  0  0  0  0
    3.5952    0.9432    0.5301 H   0  0  0  0  0  0  0  0  0  0  0  0
    3.9317   -0.7582    0.1498 H   0  0  0  0  0  0  0  0  0  0  0  0
   -0.3523   -1.7525    0.4716 H   0  0  0  0  0  0  0  0  0  0  0  0
   -2.3292   -1.2663   -0.8096 H   0  0  0  0  0  0  0  0  0  0  0  0
   -1.1978   -0.3472   -1.8169 H   0  0  0  0  0  0  0  0  0  0  0  0
   -2.0582    1.6293   -1.0455 H   0  0  0  0  0  0  0  0  0  0  0  0
   -3.2836    0.6634   -0.0855 H   0  0  0  0  0  0  0  0  0  0  0  0
   -0.0523    0.3678    2.0268 H   0  0  0  0  0  0  0  0  0  0  0  0
   -1.6188   -0.5495    1.9676 H   0  0  0  0  0  0  0  0  0  0  0  0
  1  2  1  0
  2  3  1  0
  3  4  2  0
  3  5  1  0
  5  6  1  0
  6  7  1  0
  7  8  1  0
  8  9  1  0
  9  5  1  0
  1 10  1  0
  1 11  1  0
  1 12  1  0
  5 13  1  0
  6 14  1  0
  6 15  1  0
  7 16  1  0
  7 17  1  0
  9 18  1  0
  9 19  1  0
M  END
