
     RDKit          3D

 19 20  0  0  0  0  0  0  0  0999 V2000
    3.0610    0.2096    0.0757 C   0  0  0  0  0  0  0  0  0  0  0  0
    1.7676    0.6857   -0.2390 O   0  0  0  0  0  0  0  0  0  0  0  0
    0.7130   -0.1982   -0.3397 C   0  0  0  0  0  0  0  0  0  0  0  0
    0.9880   -1.4018   -0.1377 O   0  0  0  0  0  0  0  0  0  0  0  0
   -0.6820    0.1769   -0.6633 C   0  0  0  0  0  0  0  0  0  0  0  0
   -1.1833    1.2120    0.3101 C   0  0  0  0  0  0  0  0  0  0  0  0
   -1.1431   -0.0218    1.2311 C   0  0  0  0  0  0  0  0  0  0  0  0
   -1.8356   -0.6386    0.0549 C   0  0  0  0  0  0  0  0  0  0  0  0
   -1.4299   -0.8635   -1.2922 C   0  0  0  0  0  0  0  0  0  0  0  0
    3.2960   -0.6000   -0.6714 H   0  0  0  0  0  0  0  0  0  0  0  0
    3.1123   -0.2791    1.0673 H   0  0  0  0  0  0  0  0  0  0  0  0
    3.8005    0.9934   -0.0820 H   0  0  0  0  0  0  0  0  0  0  0  0
   -0.4467    1.9766    0.5384 H   0  0  0  0  0  0  0  0  0  0  0  0
   -2.2357    1.5160    0.2033 H   0  0  0  0  0  0  0  0  0  0  0  0
   -0.1724   -0.3615    1.5361 H   0  0  0  0  0  0  0  0  0  0  0  0
   -1.7830    0.1465    2.1139 H   0  0  0  0  0  0  0  0  0  0  0  0
   -2.8590   -0.1263    0.0216 H   0  0  0  0  0  0  0  0  0  0  0  0
   -1.9882   -0.5442   -2.2245 H   0  0  0  0  0  0  0  0  0  0  0  0
   -0.9795   -1.8818   -1.5026 H   0  0  0  0  0  0  0  0  0  0  0  0
  1  2  1  0
  2  3  1  0
  3  4  2  0
  3  5  1  0
  5  6  1  0
  6  7  1  0
  7  8  1  0
  8  9  1  0
  8  5  1  0
  9  5  1  0
  1 10  1  0
  1 11  1  0
  1 12  1  0
  6 13  1  0
  6 14  1  0
  7 15  1  0
  7 16  1  0
  8 17  1  0
  9 18  1  0
  9 19  1  0
M  END
