
     RDKit          3D

 18 17  0  0  0  0  0  0  0  0999 V2000
    1.8630   -1.1353    0.3408 C   0  0  0  0  0  0  0  0  0  0  0  0
    1.3314    0.1129    0.4149 O   0  0  0  0  0  0  0  0  0  0  0  0
    0.0940    0.3307   -0.0898 C   0  0  0  0  0  0  0  0  0  0  0  0
   -0.2163    1.8207    0.1368 C   0  0  0  0  0  0  0  0  0  0  0  0
   -0.0985   -0.0334   -1.5014 C   0  0  0  0  0  0  0  0  0  0  0  0
   -1.1984    0.1497   -1.9851 O   0  0  0  0  0  0  0  0  0  0  0  0
   -1.0020   -0.3999    0.6998 C   0  0  0  0  0  0  0  0  0  0  0  0
   -2.2443   -0.1243    0.1277 O   0  0  0  0  0  0  0  0  0  0  0  0
    1.2153   -1.8472    0.8902 H   0  0  0  0  0  0  0  0  0  0  0  0
    2.8297   -1.1208    0.9116 H   0  0  0  0  0  0  0  0  0  0  0  0
    2.0865   -1.4835   -0.6864 H   0  0  0  0  0  0  0  0  0  0  0  0
    0.7327    2.3968    0.1933 H   0  0  0  0  0  0  0  0  0  0  0  0
   -0.7307    1.9732    1.0981 H   0  0  0  0  0  0  0  0  0  0  0  0
   -0.8110    2.2403   -0.6832 H   0  0  0  0  0  0  0  0  0  0  0  0
    0.6470   -0.4519   -2.1596 H   0  0  0  0  0  0  0  0  0  0  0  0
   -0.7558   -1.4690    0.6727 H   0  0  0  0  0  0  0  0  0  0  0  0
   -1.0246    0.0121    1.7241 H   0  0  0  0  0  0  0  0  0  0  0  0
   -2.7182   -0.9710   -0.1044 H   0  0  0  0  0  0  0  0  0  0  0  0
  1  2  1  0
  2  3  1  0
  3  4  1  0
  3  5  1  0
  5  6  2  0
  3  7  1  0
  7  8  1  0
  1  9  1  0
  1 10  1  0
  1 11  1  0
  4 12  1  0
  4 13  1  0
  4 14  1  0
  5 15  1  0
  7 16  1  0
  7 17  1  0
  8 18  1  0
M  END
