
     RDKit          3D

 16 15  0  0  0  0  0  0  0  0999 V2000
    2.7974   -0.6136    0.3910 C   0  0  0  0  0  0  0  0  0  0  0  0
    1.7330    0.2591    0.6690 O   0  0  0  0  0  0  0  0  0  0  0  0
    0.5512    0.1107   -0.0370 C   0  0  0  0  0  0  0  0  0  0  0  0
    0.4885   -0.8011   -0.8953 O   0  0  0  0  0  0  0  0  0  0  0  0
   -0.6063    1.0109    0.2209 C   0  0  0  0  0  0  0  0  0  0  0  0
   -1.7688    0.6714   -0.6490 C   0  0  0  0  0  0  0  0  0  0  0  0
   -2.2695   -0.7005   -0.4633 C   0  0  0  0  0  0  0  0  0  0  0  0
   -1.8035   -1.5041    0.3150 O   0  0  0  0  0  0  0  0  0  0  0  0
    3.5359   -0.1673   -0.3065 H   0  0  0  0  0  0  0  0  0  0  0  0
    3.2911   -0.9556    1.3280 H   0  0  0  0  0  0  0  0  0  0  0  0
    2.4482   -1.5647   -0.1083 H   0  0  0  0  0  0  0  0  0  0  0  0
   -0.9029    1.0146    1.2801 H   0  0  0  0  0  0  0  0  0  0  0  0
   -0.2682    2.0381   -0.0544 H   0  0  0  0  0  0  0  0  0  0  0  0
   -1.5272    0.8103   -1.7235 H   0  0  0  0  0  0  0  0  0  0  0  0
   -2.5839    1.4058   -0.4192 H   0  0  0  0  0  0  0  0  0  0  0  0
   -3.1151   -1.0139   -1.0657 H   0  0  0  0  0  0  0  0  0  0  0  0
  1  2  1  0
  2  3  1  0
  3  4  2  0
  3  5  1  0
  5  6  1  0
  6  7  1  0
  7  8  2  0
  1  9  1  0
  1 10  1  0
  1 11  1  0
  5 12  1  0
  5 13  1  0
  6 14  1  0
  6 15  1  0
  7 16  1  0
M  END
