
     RDKit          3D

 17 17  0  0  0  0  0  0  0  0999 V2000
    3.1100   -0.3020   -0.4004 C   0  0  0  0  0  0  0  0  0  0  0  0
    1.8360   -0.2128   -1.0385 O   0  0  0  0  0  0  0  0  0  0  0  0
    0.6829    0.0298   -0.3132 C   0  0  0  0  0  0  0  0  0  0  0  0
    0.8001    0.1686    0.9284 O   0  0  0  0  0  0  0  0  0  0  0  0
   -0.6804    0.1382   -0.8921 C   0  0  0  0  0  0  0  0  0  0  0  0
   -1.7560   -0.5747   -0.0731 C   0  0  0  0  0  0  0  0  0  0  0  0
   -2.6782   -1.3570   -0.7663 O   0  0  0  0  0  0  0  0  0  0  0  0
   -1.7427    0.8984   -0.2200 C   0  0  0  0  0  0  0  0  0  0  0  0
   -1.4865    1.6129    0.9553 O   0  0  0  0  0  0  0  0  0  0  0  0
    3.8883   -0.0968   -1.1522 H   0  0  0  0  0  0  0  0  0  0  0  0
    3.2992   -1.3325   -0.0202 H   0  0  0  0  0  0  0  0  0  0  0  0
    3.1661    0.3631    0.4888 H   0  0  0  0  0  0  0  0  0  0  0  0
   -0.7802    0.0120   -2.0064 H   0  0  0  0  0  0  0  0  0  0  0  0
   -1.4675   -1.0115    0.9037 H   0  0  0  0  0  0  0  0  0  0  0  0
   -2.4417   -2.3076   -0.6072 H   0  0  0  0  0  0  0  0  0  0  0  0
   -2.4899    1.4059   -0.8640 H   0  0  0  0  0  0  0  0  0  0  0  0
   -1.2597    2.5660    0.7395 H   0  0  0  0  0  0  0  0  0  0  0  0
  1  2  1  0
  2  3  1  0
  3  4  2  0
  3  5  1  0
  5  6  1  0
  6  7  1  0
  6  8  1  0
  8  9  1  0
  8  5  1  0
  1 10  1  0
  1 11  1  0
  1 12  1  0
  5 13  1  0
  6 14  1  0
  7 15  1  0
  8 16  1  0
  9 17  1  0
M  END
