
     RDKit          3D

 14 13  0  0  0  0  0  0  0  0999 V2000
    2.8129   -0.0588    0.2515 C   0  0  0  0  0  0  0  0  0  0  0  0
    1.5550    0.5157    0.0024 O   0  0  0  0  0  0  0  0  0  0  0  0
    0.3626   -0.2003    0.1946 C   0  0  0  0  0  0  0  0  0  0  0  0
    0.4703   -1.3660    0.5953 O   0  0  0  0  0  0  0  0  0  0  0  0
   -0.9304    0.4351   -0.0766 C   0  0  0  0  0  0  0  0  0  0  0  0
   -1.0311    1.6068   -0.4790 O   0  0  0  0  0  0  0  0  0  0  0  0
   -2.1687   -0.3373    0.1329 C   0  0  0  0  0  0  0  0  0  0  0  0
   -3.2533    0.4594   -0.1842 O   0  0  0  0  0  0  0  0  0  0  0  0
    3.1907    0.1564    1.2685 H   0  0  0  0  0  0  0  0  0  0  0  0
    3.5505    0.4151   -0.4574 H   0  0  0  0  0  0  0  0  0  0  0  0
    2.8577   -1.1398    0.0892 H   0  0  0  0  0  0  0  0  0  0  0  0
   -2.2039   -0.7152    1.1796 H   0  0  0  0  0  0  0  0  0  0  0  0
   -2.1851   -1.1973   -0.5881 H   0  0  0  0  0  0  0  0  0  0  0  0
   -3.0271    1.4261   -0.2282 H   0  0  0  0  0  0  0  0  0  0  0  0
  1  2  1  0
  2  3  1  0
  3  4  2  0
  3  5  1  0
  5  6  2  0
  5  7  1  0
  7  8  1  0
  1  9  1  0
  1 10  1  0
  1 11  1  0
  7 12  1  0
  7 13  1  0
  8 14  1  0
M  END
