
     RDKit          3D

 20 19  0  0  0  0  0  0  0  0999 V2000
    1.8857   -0.9446    0.2398 C   0  0  0  0  0  0  0  0  0  0  0  0
    0.9624   -0.1873    0.9057 O   0  0  0  0  0  0  0  0  0  0  0  0
   -0.0162    0.3751    0.1333 C   0  0  0  0  0  0  0  0  0  0  0  0
   -0.9290    1.1664    1.0535 C   0  0  0  0  0  0  0  0  0  0  0  0
    0.5498    1.3957   -0.8603 C   0  0  0  0  0  0  0  0  0  0  0  0
   -0.8129   -0.6120   -0.6729 C   0  0  0  0  0  0  0  0  0  0  0  0
   -1.5139   -1.6096    0.1422 C   0  0  0  0  0  0  0  0  0  0  0  0
   -1.4885   -1.6789    1.3596 O   0  0  0  0  0  0  0  0  0  0  0  0
    1.4293   -1.8122   -0.2993 H   0  0  0  0  0  0  0  0  0  0  0  0
    2.5656   -1.3961    0.9945 H   0  0  0  0  0  0  0  0  0  0  0  0
    2.5360   -0.3637   -0.4455 H   0  0  0  0  0  0  0  0  0  0  0  0
   -1.1201    0.5681    1.9474 H   0  0  0  0  0  0  0  0  0  0  0  0
   -1.8250    1.4372    0.4788 H   0  0  0  0  0  0  0  0  0  0  0  0
   -0.4155    2.1302    1.3112 H   0  0  0  0  0  0  0  0  0  0  0  0
   -0.1662    2.2394   -0.9770 H   0  0  0  0  0  0  0  0  0  0  0  0
    1.4716    1.8387   -0.4298 H   0  0  0  0  0  0  0  0  0  0  0  0
    0.7040    0.9628   -1.8547 H   0  0  0  0  0  0  0  0  0  0  0  0
   -1.5551   -0.0243   -1.2651 H   0  0  0  0  0  0  0  0  0  0  0  0
   -0.1514   -1.1280   -1.3921 H   0  0  0  0  0  0  0  0  0  0  0  0
   -2.1106   -2.3569   -0.3693 H   0  0  0  0  0  0  0  0  0  0  0  0
  1  2  1  0
  2  3  1  0
  3  4  1  0
  3  5  1  0
  3  6  1  0
  6  7  1  0
  7  8  2  0
  1  9  1  0
  1 10  1  0
  1 11  1  0
  4 12  1  0
  4 13  1  0
  4 14  1  0
  5 15  1  0
  5 16  1  0
  5 17  1  0
  6 18  1  0
  6 19  1  0
  7 20  1  0
M  END
