
     RDKit          3D

 16 16  0  0  0  0  0  0  0  0999 V2000
    2.8108    0.1500   -0.3398 C   0  0  0  0  0  0  0  0  0  0  0  0
    1.4888   -0.1908   -0.7021 O   0  0  0  0  0  0  0  0  0  0  0  0
    0.4471    0.1157    0.1349 C   0  0  0  0  0  0  0  0  0  0  0  0
    0.7099    0.7000    1.2151 O   0  0  0  0  0  0  0  0  0  0  0  0
   -0.9515   -0.2302   -0.2198 C   0  0  0  0  0  0  0  0  0  0  0  0
   -1.1012   -0.8764   -1.4465 O   0  0  0  0  0  0  0  0  0  0  0  0
   -1.9883    0.7679    0.1386 C   0  0  0  0  0  0  0  0  0  0  0  0
   -1.8968   -0.5256    0.8939 C   0  0  0  0  0  0  0  0  0  0  0  0
    3.3641    0.4779   -1.2561 H   0  0  0  0  0  0  0  0  0  0  0  0
    3.3652   -0.7559    0.0266 H   0  0  0  0  0  0  0  0  0  0  0  0
    2.8772    0.9718    0.3789 H   0  0  0  0  0  0  0  0  0  0  0  0
   -0.3306   -1.4690   -1.6416 H   0  0  0  0  0  0  0  0  0  0  0  0
   -2.7841    0.9404   -0.5856 H   0  0  0  0  0  0  0  0  0  0  0  0
   -1.7444    1.6593    0.7535 H   0  0  0  0  0  0  0  0  0  0  0  0
   -1.5138   -0.5221    1.9316 H   0  0  0  0  0  0  0  0  0  0  0  0
   -2.7526   -1.2130    0.7184 H   0  0  0  0  0  0  0  0  0  0  0  0
  1  2  1  0
  2  3  1  0
  3  4  2  0
  3  5  1  0
  5  6  1  0
  5  7  1  0
  7  8  1  0
  8  5  1  0
  1  9  1  0
  1 10  1  0
  1 11  1  0
  6 12  1  0
  7 13  1  0
  7 14  1  0
  8 15  1  0
  8 16  1  0
M  END
