
     RDKit          3D

 23 24  0  0  0  0  0  0  0  0999 V2000
   -2.9908   -0.7514    0.3662 C   0  0  0  0  0  0  0  0  0  0  0  0
   -1.7861   -0.2426    0.8703 O   0  0  0  0  0  0  0  0  0  0  0  0
   -0.9368    0.1480   -0.1638 C   0  0  0  0  0  0  0  0  0  0  0  0
   -0.6726    1.6193   -0.1155 C   0  0  0  0  0  0  0  0  0  0  0  0
    0.2927   -0.7002   -0.0921 C   0  0  0  0  0  0  0  0  0  0  0  0
    1.0365   -0.5696    1.2010 C   0  0  0  0  0  0  0  0  0  0  0  0
    2.3171   -0.4983    0.3933 C   0  0  0  0  0  0  0  0  0  0  0  0
    2.4510    0.7104   -0.4611 C   0  0  0  0  0  0  0  0  0  0  0  0
    1.4676   -0.2852   -0.9014 C   0  0  0  0  0  0  0  0  0  0  0  0
   -3.5415   -0.0158   -0.2425 H   0  0  0  0  0  0  0  0  0  0  0  0
   -2.7896   -1.6189   -0.3267 H   0  0  0  0  0  0  0  0  0  0  0  0
   -3.5747   -1.1661    1.1972 H   0  0  0  0  0  0  0  0  0  0  0  0
   -1.4666   -0.0585   -1.1316 H   0  0  0  0  0  0  0  0  0  0  0  0
   -0.1328    1.9233   -1.0448 H   0  0  0  0  0  0  0  0  0  0  0  0
   -1.6542    2.1361   -0.1615 H   0  0  0  0  0  0  0  0  0  0  0  0
   -0.1705    1.9620    0.7911 H   0  0  0  0  0  0  0  0  0  0  0  0
    0.0211   -1.7668   -0.2638 H   0  0  0  0  0  0  0  0  0  0  0  0
    0.9474   -1.4353    1.8649 H   0  0  0  0  0  0  0  0  0  0  0  0
    0.8484    0.4227    1.6592 H   0  0  0  0  0  0  0  0  0  0  0  0
    3.0260   -1.3198    0.3907 H   0  0  0  0  0  0  0  0  0  0  0  0
    2.1663    1.6857   -0.0064 H   0  0  0  0  0  0  0  0  0  0  0  0
    3.3925    0.7736   -1.0362 H   0  0  0  0  0  0  0  0  0  0  0  0
    1.7495   -0.9527   -1.7424 H   0  0  0  0  0  0  0  0  0  0  0  0
  1  2  1  0
  2  3  1  0
  3  4  1  0
  3  5  1  0
  5  6  1  0
  6  7  1  0
  7  8  1  0
  8  9  1  0
  9  5  1  0
  9  7  1  0
  1 10  1  0
  1 11  1  0
  1 12  1  0
  3 13  1  0
  4 14  1  0
  4 15  1  0
  4 16  1  0
  5 17  1  0
  6 18  1  0
  6 19  1  0
  7 20  1  0
  8 21  1  0
  8 22  1  0
  9 23  1  0
M  END
