
     RDKit          3D

 20 19  0  0  0  0  0  0  0  0999 V2000
    2.3827    0.7648    0.2647 C   0  0  0  0  0  0  0  0  0  0  0  0
    1.2599    0.7636    1.0730 O   0  0  0  0  0  0  0  0  0  0  0  0
    0.3778   -0.2553    0.8188 C   0  0  0  0  0  0  0  0  0  0  0  0
    0.1490   -1.1511    1.9593 C   0  0  0  0  0  0  0  0  0  0  0  0
   -0.5981   -2.1077    1.9211 O   0  0  0  0  0  0  0  0  0  0  0  0
   -0.9486    0.2776    0.2677 C   0  0  0  0  0  0  0  0  0  0  0  0
   -0.6971    1.0246   -1.0198 C   0  0  0  0  0  0  0  0  0  0  0  0
   -1.8463   -0.8942    0.0065 C   0  0  0  0  0  0  0  0  0  0  0  0
    3.0031    1.6360    0.5787 H   0  0  0  0  0  0  0  0  0  0  0  0
    2.1597    0.9219   -0.8065 H   0  0  0  0  0  0  0  0  0  0  0  0
    3.0338   -0.1354    0.4367 H   0  0  0  0  0  0  0  0  0  0  0  0
    0.8164   -0.8615   -0.0273 H   0  0  0  0  0  0  0  0  0  0  0  0
    0.6653   -0.9629    2.8901 H   0  0  0  0  0  0  0  0  0  0  0  0
   -1.4383    0.9392    1.0092 H   0  0  0  0  0  0  0  0  0  0  0  0
   -1.6971    1.2018   -1.5038 H   0  0  0  0  0  0  0  0  0  0  0  0
   -0.2708    2.0396   -0.8296 H   0  0  0  0  0  0  0  0  0  0  0  0
   -0.0356    0.4757   -1.6895 H   0  0  0  0  0  0  0  0  0  0  0  0
   -2.5385   -0.6859   -0.8602 H   0  0  0  0  0  0  0  0  0  0  0  0
   -2.4746   -1.1739    0.8890 H   0  0  0  0  0  0  0  0  0  0  0  0
   -1.3026   -1.8168   -0.2872 H   0  0  0  0  0  0  0  0  0  0  0  0
  1  2  1  0
  2  3  1  0
  3  4  1  0
  4  5  2  0
  3  6  1  0
  6  7  1  0
  6  8  1  0
  1  9  1  0
  1 10  1  0
  1 11  1  0
  3 12  1  0
  4 13  1  0
  6 14  1  0
  7 15  1  0
  7 16  1  0
  7 17  1  0
  8 18  1  0
  8 19  1  0
  8 20  1  0
M  END
