
     RDKit          3D

 25 24  0  0  0  0  0  0  0  0999 V2000
   -1.7767    1.0507    1.5286 C   0  0  0  0  0  0  0  0  0  0  0  0
   -1.4424    0.8753    0.2063 O   0  0  0  0  0  0  0  0  0  0  0  0
   -1.2932   -0.4259   -0.1917 C   0  0  0  0  0  0  0  0  0  0  0  0
   -2.4152   -0.8663   -1.1394 C   0  0  0  0  0  0  0  0  0  0  0  0
   -0.0290   -0.5929   -0.9493 C   0  0  0  0  0  0  0  0  0  0  0  0
    1.2473   -0.2618   -0.2422 C   0  0  0  0  0  0  0  0  0  0  0  0
    2.3360   -0.5519   -1.3235 C   0  0  0  0  0  0  0  0  0  0  0  0
    1.3700    1.0233    0.2011 O   0  0  0  0  0  0  0  0  0  0  0  0
    1.8392    1.2070    1.4628 C   0  0  0  0  0  0  0  0  0  0  0  0
   -1.8540    2.1233    1.7415 H   0  0  0  0  0  0  0  0  0  0  0  0
   -1.0496    0.5938    2.2137 H   0  0  0  0  0  0  0  0  0  0  0  0
   -2.7663    0.6171    1.7923 H   0  0  0  0  0  0  0  0  0  0  0  0
   -1.4200   -1.0805    0.6909 H   0  0  0  0  0  0  0  0  0  0  0  0
   -2.3285   -0.3196   -2.0988 H   0  0  0  0  0  0  0  0  0  0  0  0
   -2.2075   -1.9354   -1.3579 H   0  0  0  0  0  0  0  0  0  0  0  0
   -3.3975   -0.7943   -0.6772 H   0  0  0  0  0  0  0  0  0  0  0  0
   -0.0194    0.0289   -1.8938 H   0  0  0  0  0  0  0  0  0  0  0  0
    0.0973   -1.6498   -1.3287 H   0  0  0  0  0  0  0  0  0  0  0  0
    1.4980   -1.0374    0.5336 H   0  0  0  0  0  0  0  0  0  0  0  0
    3.3220   -0.5988   -0.8698 H   0  0  0  0  0  0  0  0  0  0  0  0
    2.2169    0.1423   -2.1578 H   0  0  0  0  0  0  0  0  0  0  0  0
    2.0774   -1.5645   -1.6972 H   0  0  0  0  0  0  0  0  0  0  0  0
    1.2817    0.7634    2.2867 H   0  0  0  0  0  0  0  0  0  0  0  0
    1.8128    2.3205    1.6543 H   0  0  0  0  0  0  0  0  0  0  0  0
    2.9008    0.9333    1.6157 H   0  0  0  0  0  0  0  0  0  0  0  0
  1  2  1  0
  2  3  1  0
  3  4  1  0
  3  5  1  0
  5  6  1  0
  6  7  1  0
  6  8  1  0
  8  9  1  0
  1 10  1  0
  1 11  1  0
  1 12  1  0
  3 13  1  0
  4 14  1  0
  4 15  1  0
  4 16  1  0
  5 17  1  0
  5 18  1  0
  6 19  1  0
  7 20  1  0
  7 21  1  0
  7 22  1  0
  9 23  1  0
  9 24  1  0
  9 25  1  0
M  END
