
     RDKit          3D

 18 17  0  0  0  0  0  0  0  0999 V2000
   -2.4595   -0.0077    0.3653 C   0  0  0  0  0  0  0  0  0  0  0  0
   -1.4330   -0.2480   -0.5414 O   0  0  0  0  0  0  0  0  0  0  0  0
   -0.1805   -0.0872   -0.0032 C   0  0  0  0  0  0  0  0  0  0  0  0
    0.4580    1.1126   -0.7105 C   0  0  0  0  0  0  0  0  0  0  0  0
   -0.3775    2.2019   -0.4470 O   0  0  0  0  0  0  0  0  0  0  0  0
    0.6969   -1.2589   -0.1605 C   0  0  0  0  0  0  0  0  0  0  0  0
    2.0814   -1.2641    0.3583 C   0  0  0  0  0  0  0  0  0  0  0  0
    0.2757   -2.2413   -0.7276 O   0  0  0  0  0  0  0  0  0  0  0  0
   -3.4463   -0.1508   -0.1182 H   0  0  0  0  0  0  0  0  0  0  0  0
   -2.4283   -0.7520    1.2072 H   0  0  0  0  0  0  0  0  0  0  0  0
   -2.4377    1.0148    0.7579 H   0  0  0  0  0  0  0  0  0  0  0  0
   -0.2659    0.2094    1.0740 H   0  0  0  0  0  0  0  0  0  0  0  0
    1.4646    1.3253   -0.3123 H   0  0  0  0  0  0  0  0  0  0  0  0
    0.4141    0.9078   -1.7795 H   0  0  0  0  0  0  0  0  0  0  0  0
    0.1742    3.0162   -0.3430 H   0  0  0  0  0  0  0  0  0  0  0  0
    2.2564   -0.4790    1.1276 H   0  0  0  0  0  0  0  0  0  0  0  0
    2.3991   -2.2702    0.7245 H   0  0  0  0  0  0  0  0  0  0  0  0
    2.8085   -1.0287   -0.4715 H   0  0  0  0  0  0  0  0  0  0  0  0
  1  2  1  0
  2  3  1  0
  3  4  1  0
  4  5  1  0
  3  6  1  0
  6  7  1  0
  6  8  2  0
  1  9  1  0
  1 10  1  0
  1 11  1  0
  3 12  1  0
  4 13  1  0
  4 14  1  0
  5 15  1  0
  7 16  1  0
  7 17  1  0
  7 18  1  0
M  END
