
     RDKit          3D

 25 25  0  0  0  0  0  0  0  0999 V2000
    2.5062   -1.1741    0.2872 C   0  0  0  0  0  0  0  0  0  0  0  0
    1.6718   -0.1405    0.6405 O   0  0  0  0  0  0  0  0  0  0  0  0
    0.8808    0.3032   -0.4164 C   0  0  0  0  0  0  0  0  0  0  0  0
    1.2497    1.7672   -0.6373 C   0  0  0  0  0  0  0  0  0  0  0  0
   -0.5577    0.1538   -0.0116 C   0  0  0  0  0  0  0  0  0  0  0  0
   -0.9444    0.9306    1.2039 C   0  0  0  0  0  0  0  0  0  0  0  0
   -0.9103   -1.3134    0.1474 C   0  0  0  0  0  0  0  0  0  0  0  0
   -2.2982   -0.9300   -0.3921 C   0  0  0  0  0  0  0  0  0  0  0  0
   -1.5617    0.1864   -1.1449 C   0  0  0  0  0  0  0  0  0  0  0  0
    3.0894   -1.4520    1.1939 H   0  0  0  0  0  0  0  0  0  0  0  0
    3.2075   -0.7745   -0.4917 H   0  0  0  0  0  0  0  0  0  0  0  0
    1.9048   -2.0035   -0.1042 H   0  0  0  0  0  0  0  0  0  0  0  0
    1.0949   -0.2786   -1.3257 H   0  0  0  0  0  0  0  0  0  0  0  0
    2.2039    1.7919   -1.1997 H   0  0  0  0  0  0  0  0  0  0  0  0
    0.4624    2.3149   -1.1850 H   0  0  0  0  0  0  0  0  0  0  0  0
    1.4694    2.2324    0.3607 H   0  0  0  0  0  0  0  0  0  0  0  0
   -1.5268    0.3080    1.9347 H   0  0  0  0  0  0  0  0  0  0  0  0
   -0.0528    1.2949    1.7499 H   0  0  0  0  0  0  0  0  0  0  0  0
   -1.6312    1.7748    0.9425 H   0  0  0  0  0  0  0  0  0  0  0  0
   -0.9157   -1.6913    1.1726 H   0  0  0  0  0  0  0  0  0  0  0  0
   -0.4408   -1.9895   -0.6067 H   0  0  0  0  0  0  0  0  0  0  0  0
   -2.7502   -1.6902   -1.0249 H   0  0  0  0  0  0  0  0  0  0  0  0
   -2.9060   -0.4765    0.4012 H   0  0  0  0  0  0  0  0  0  0  0  0
   -2.1318    1.1039   -1.2679 H   0  0  0  0  0  0  0  0  0  0  0  0
   -1.1132   -0.2478   -2.0591 H   0  0  0  0  0  0  0  0  0  0  0  0
  1  2  1  0
  2  3  1  0
  3  4  1  0
  3  5  1  0
  5  6  1  0
  5  7  1  0
  7  8  1  0
  8  9  1  0
  9  5  1  0
  1 10  1  0
  1 11  1  0
  1 12  1  0
  3 13  1  0
  4 14  1  0
  4 15  1  0
  4 16  1  0
  6 17  1  0
  6 18  1  0
  6 19  1  0
  7 20  1  0
  7 21  1  0
  8 22  1  0
  8 23  1  0
  9 24  1  0
  9 25  1  0
M  END
