
     RDKit          3D

 21 21  0  0  0  0  0  0  0  0999 V2000
   -2.3968    1.2829   -0.6105 C   0  0  0  0  0  0  0  0  0  0  0  0
   -1.3925    0.4052   -1.0163 O   0  0  0  0  0  0  0  0  0  0  0  0
   -0.8685   -0.3089    0.0611 C   0  0  0  0  0  0  0  0  0  0  0  0
   -1.1803   -1.7714   -0.1993 C   0  0  0  0  0  0  0  0  0  0  0  0
    0.5914   -0.0586    0.0795 C   0  0  0  0  0  0  0  0  0  0  0  0
    1.6144   -0.8839   -0.0947 C   0  0  0  0  0  0  0  0  0  0  0  0
    2.8620   -0.1112    0.0262 C   0  0  0  0  0  0  0  0  0  0  0  0
    2.4759    1.1728   -0.3431 O   0  0  0  0  0  0  0  0  0  0  0  0
    1.2208    1.2709    0.3097 C   0  0  0  0  0  0  0  0  0  0  0  0
   -2.7693    1.8164   -1.5069 H   0  0  0  0  0  0  0  0  0  0  0  0
   -3.2693    0.6940   -0.2237 H   0  0  0  0  0  0  0  0  0  0  0  0
   -2.0756    1.9818    0.1683 H   0  0  0  0  0  0  0  0  0  0  0  0
   -1.3579   -0.0318    1.0171 H   0  0  0  0  0  0  0  0  0  0  0  0
   -0.8892   -2.0854   -1.2235 H   0  0  0  0  0  0  0  0  0  0  0  0
   -0.7422   -2.4281    0.5804 H   0  0  0  0  0  0  0  0  0  0  0  0
   -2.2894   -1.8682   -0.1286 H   0  0  0  0  0  0  0  0  0  0  0  0
    1.5211   -1.9652   -0.2955 H   0  0  0  0  0  0  0  0  0  0  0  0
    3.1619   -0.0611    1.1078 H   0  0  0  0  0  0  0  0  0  0  0  0
    3.6855   -0.5039   -0.6004 H   0  0  0  0  0  0  0  0  0  0  0  0
    1.4703    1.3486    1.3958 H   0  0  0  0  0  0  0  0  0  0  0  0
    0.6276    2.1052   -0.0564 H   0  0  0  0  0  0  0  0  0  0  0  0
  1  2  1  0
  2  3  1  0
  3  4  1  0
  3  5  1  0
  5  6  2  0
  6  7  1  0
  7  8  1  0
  8  9  1  0
  9  5  1  0
  1 10  1  0
  1 11  1  0
  1 12  1  0
  3 13  1  0
  4 14  1  0
  4 15  1  0
  4 16  1  0
  6 17  1  0
  7 18  1  0
  7 19  1  0
  9 20  1  0
  9 21  1  0
M  END
