
     RDKit          3D

 23 22  0  0  0  0  0  0  0  0999 V2000
    3.8284   -0.1090    0.3864 C   0  0  0  0  0  0  0  0  0  0  0  0
    2.4258   -0.1093    0.2958 O   0  0  0  0  0  0  0  0  0  0  0  0
    1.7462    0.5939   -0.6694 C   0  0  0  0  0  0  0  0  0  0  0  0
    2.3489    1.2758   -1.5233 O   0  0  0  0  0  0  0  0  0  0  0  0
    0.2768    0.5326   -0.6845 C   0  0  0  0  0  0  0  0  0  0  0  0
   -0.2066   -0.3377    0.4237 C   0  0  0  0  0  0  0  0  0  0  0  0
   -1.7061   -0.4570    0.4817 C   0  0  0  0  0  0  0  0  0  0  0  0
   -2.2670   -1.0454   -0.7956 C   0  0  0  0  0  0  0  0  0  0  0  0
   -2.3727    0.8617    0.8128 C   0  0  0  0  0  0  0  0  0  0  0  0
    4.1510   -0.6780    1.2756 H   0  0  0  0  0  0  0  0  0  0  0  0
    4.2099   -0.6611   -0.5143 H   0  0  0  0  0  0  0  0  0  0  0  0
    4.2018    0.9098    0.4624 H   0  0  0  0  0  0  0  0  0  0  0  0
   -0.0939    0.1649   -1.6747 H   0  0  0  0  0  0  0  0  0  0  0  0
   -0.0760    1.5929   -0.5129 H   0  0  0  0  0  0  0  0  0  0  0  0
    0.1043    0.1270    1.4024 H   0  0  0  0  0  0  0  0  0  0  0  0
    0.2148   -1.3457    0.4089 H   0  0  0  0  0  0  0  0  0  0  0  0
   -1.9511   -1.1584    1.3090 H   0  0  0  0  0  0  0  0  0  0  0  0
   -2.5930   -0.2655   -1.5143 H   0  0  0  0  0  0  0  0  0  0  0  0
   -1.4886   -1.6592   -1.2839 H   0  0  0  0  0  0  0  0  0  0  0  0
   -3.1262   -1.7106   -0.5628 H   0  0  0  0  0  0  0  0  0  0  0  0
   -3.4690    0.6786    0.8100 H   0  0  0  0  0  0  0  0  0  0  0  0
   -2.0736    1.1345    1.8403 H   0  0  0  0  0  0  0  0  0  0  0  0
   -2.0840    1.6650    0.1195 H   0  0  0  0  0  0  0  0  0  0  0  0
  1  2  1  0
  2  3  1  0
  3  4  2  0
  3  5  1  0
  5  6  1  0
  6  7  1  0
  7  8  1  0
  7  9  1  0
  1 10  1  0
  1 11  1  0
  1 12  1  0
  5 13  1  0
  5 14  1  0
  6 15  1  0
  6 16  1  0
  7 17  1  0
  8 18  1  0
  8 19  1  0
  8 20  1  0
  9 21  1  0
  9 22  1  0
  9 23  1  0
M  END
