
     RDKit          3D

 19 19  0  0  0  0  0  0  0  0999 V2000
    3.0416   -0.0069   -0.0095 C   0  0  0  0  0  0  0  0  0  0  0  0
    1.6909    0.3051   -0.1900 O   0  0  0  0  0  0  0  0  0  0  0  0
    0.6357   -0.3869    0.3740 C   0  0  0  0  0  0  0  0  0  0  0  0
    0.9003   -1.3684    1.1028 O   0  0  0  0  0  0  0  0  0  0  0  0
   -0.7343    0.0320    0.1137 C   0  0  0  0  0  0  0  0  0  0  0  0
   -1.0785    1.4336    0.5463 C   0  0  0  0  0  0  0  0  0  0  0  0
   -1.1387   -0.3080   -1.3107 C   0  0  0  0  0  0  0  0  0  0  0  0
   -1.4372   -1.6056   -0.8338 O   0  0  0  0  0  0  0  0  0  0  0  0
   -1.8092   -0.9735    0.3749 C   0  0  0  0  0  0  0  0  0  0  0  0
    3.2390   -1.0790    0.1695 H   0  0  0  0  0  0  0  0  0  0  0  0
    3.5752    0.2833   -0.9624 H   0  0  0  0  0  0  0  0  0  0  0  0
    3.5356    0.5634    0.7900 H   0  0  0  0  0  0  0  0  0  0  0  0
   -1.0735    1.4527    1.6541 H   0  0  0  0  0  0  0  0  0  0  0  0
   -2.0535    1.7129    0.1447 H   0  0  0  0  0  0  0  0  0  0  0  0
   -0.3380    2.1587    0.1922 H   0  0  0  0  0  0  0  0  0  0  0  0
   -2.1047    0.1571   -1.6334 H   0  0  0  0  0  0  0  0  0  0  0  0
   -0.3332   -0.2672   -2.0501 H   0  0  0  0  0  0  0  0  0  0  0  0
   -1.6981   -1.5833    1.2713 H   0  0  0  0  0  0  0  0  0  0  0  0
   -2.8193   -0.5201    0.2564 H   0  0  0  0  0  0  0  0  0  0  0  0
  1  2  1  0
  2  3  1  0
  3  4  2  0
  3  5  1  0
  5  6  1  0
  5  7  1  0
  7  8  1  0
  8  9  1  0
  9  5  1  0
  1 10  1  0
  1 11  1  0
  1 12  1  0
  6 13  1  0
  6 14  1  0
  6 15  1  0
  7 16  1  0
  7 17  1  0
  9 18  1  0
  9 19  1  0
M  END
