
     RDKit          3D

 19 19  0  0  0  0  0  0  0  0999 V2000
   -2.4894    1.0809    0.8878 C   0  0  0  0  0  0  0  0  0  0  0  0
   -1.7032    0.9112   -0.2446 O   0  0  0  0  0  0  0  0  0  0  0  0
   -0.7165   -0.0378   -0.0257 C   0  0  0  0  0  0  0  0  0  0  0  0
   -0.9792   -1.2542   -0.9066 C   0  0  0  0  0  0  0  0  0  0  0  0
    0.6513    0.4952   -0.2571 C   0  0  0  0  0  0  0  0  0  0  0  0
    0.7353    1.6660   -0.6005 O   0  0  0  0  0  0  0  0  0  0  0  0
    1.8151   -0.3745   -0.0712 C   0  0  0  0  0  0  0  0  0  0  0  0
    3.1562    0.0419   -0.2727 C   0  0  0  0  0  0  0  0  0  0  0  0
    2.6486    0.1947    1.0497 O   0  0  0  0  0  0  0  0  0  0  0  0
   -3.0038    0.1585    1.2071 H   0  0  0  0  0  0  0  0  0  0  0  0
   -3.2902    1.8072    0.6239 H   0  0  0  0  0  0  0  0  0  0  0  0
   -1.9141    1.5185    1.7390 H   0  0  0  0  0  0  0  0  0  0  0  0
   -0.8247   -0.4191    1.0320 H   0  0  0  0  0  0  0  0  0  0  0  0
   -1.7975   -1.8357   -0.4284 H   0  0  0  0  0  0  0  0  0  0  0  0
   -1.2211   -0.9180   -1.9207 H   0  0  0  0  0  0  0  0  0  0  0  0
   -0.0500   -1.8390   -0.9442 H   0  0  0  0  0  0  0  0  0  0  0  0
    1.5873   -1.4118    0.2416 H   0  0  0  0  0  0  0  0  0  0  0  0
    3.4295    0.9450   -0.8286 H   0  0  0  0  0  0  0  0  0  0  0  0
    3.9666   -0.7291   -0.2807 H   0  0  0  0  0  0  0  0  0  0  0  0
  1  2  1  0
  2  3  1  0
  3  4  1  0
  3  5  1  0
  5  6  2  0
  5  7  1  0
  7  8  1  0
  8  9  1  0
  9  7  1  0
  1 10  1  0
  1 11  1  0
  1 12  1  0
  3 13  1  0
  4 14  1  0
  4 15  1  0
  4 16  1  0
  7 17  1  0
  8 18  1  0
  8 19  1  0
M  END
