
     RDKit          3D

 21 21  0  0  0  0  0  0  0  0999 V2000
    2.4887    0.6710   -0.5966 C   0  0  0  0  0  0  0  0  0  0  0  0
    1.5479    0.2832    0.3528 O   0  0  0  0  0  0  0  0  0  0  0  0
    0.4511   -0.3045   -0.2888 C   0  0  0  0  0  0  0  0  0  0  0  0
    0.4295   -1.7521    0.1474 C   0  0  0  0  0  0  0  0  0  0  0  0
   -0.8088    0.4257    0.0822 C   0  0  0  0  0  0  0  0  0  0  0  0
   -0.8647    1.8651   -0.2675 C   0  0  0  0  0  0  0  0  0  0  0  0
   -1.8183    2.5787   -0.0287 O   0  0  0  0  0  0  0  0  0  0  0  0
   -1.4716   -0.0614    1.3322 C   0  0  0  0  0  0  0  0  0  0  0  0
   -2.1284   -0.2755    0.0182 C   0  0  0  0  0  0  0  0  0  0  0  0
    3.3583    1.1358   -0.1082 H   0  0  0  0  0  0  0  0  0  0  0  0
    2.0896    1.3587   -1.3602 H   0  0  0  0  0  0  0  0  0  0  0  0
    2.8054   -0.2823   -1.1092 H   0  0  0  0  0  0  0  0  0  0  0  0
    0.6174   -0.3046   -1.3783 H   0  0  0  0  0  0  0  0  0  0  0  0
   -0.4476   -2.3066   -0.1867 H   0  0  0  0  0  0  0  0  0  0  0  0
    1.3125   -2.2338   -0.3682 H   0  0  0  0  0  0  0  0  0  0  0  0
    0.6537   -1.8720    1.2351 H   0  0  0  0  0  0  0  0  0  0  0  0
   -0.0248    2.3152   -0.7586 H   0  0  0  0  0  0  0  0  0  0  0  0
   -1.0781   -0.9661    1.8168 H   0  0  0  0  0  0  0  0  0  0  0  0
   -1.8780    0.6825    2.0536 H   0  0  0  0  0  0  0  0  0  0  0  0
   -2.1909   -1.2808   -0.4384 H   0  0  0  0  0  0  0  0  0  0  0  0
   -3.0431    0.3239   -0.1491 H   0  0  0  0  0  0  0  0  0  0  0  0
  1  2  1  0
  2  3  1  0
  3  4  1  0
  3  5  1  0
  5  6  1  0
  6  7  2  0
  5  8  1  0
  8  9  1  0
  9  5  1  0
  1 10  1  0
  1 11  1  0
  1 12  1  0
  3 13  1  0
  4 14  1  0
  4 15  1  0
  4 16  1  0
  6 17  1  0
  8 18  1  0
  8 19  1  0
  9 20  1  0
  9 21  1  0
M  END
