
     RDKit          3D

 19 19  0  0  0  0  0  0  0  0999 V2000
    3.4638    0.2968   -0.1677 C   0  0  0  0  0  0  0  0  0  0  0  0
    2.2691   -0.2270   -0.7093 O   0  0  0  0  0  0  0  0  0  0  0  0
    1.0189    0.0142   -0.2159 C   0  0  0  0  0  0  0  0  0  0  0  0
    0.8832    0.7500    0.7909 O   0  0  0  0  0  0  0  0  0  0  0  0
   -0.1681   -0.5811   -0.8547 C   0  0  0  0  0  0  0  0  0  0  0  0
   -1.4522   -0.1920   -0.1601 C   0  0  0  0  0  0  0  0  0  0  0  0
   -1.8241    1.2689   -0.0703 C   0  0  0  0  0  0  0  0  0  0  0  0
   -2.2199   -1.2266    0.5422 C   0  0  0  0  0  0  0  0  0  0  0  0
   -2.5886   -0.9335   -0.7467 O   0  0  0  0  0  0  0  0  0  0  0  0
    3.3166    1.2083    0.4156 H   0  0  0  0  0  0  0  0  0  0  0  0
    4.2409    0.4644   -0.9484 H   0  0  0  0  0  0  0  0  0  0  0  0
    3.8758   -0.5146    0.4974 H   0  0  0  0  0  0  0  0  0  0  0  0
   -0.1790   -0.2170   -1.9179 H   0  0  0  0  0  0  0  0  0  0  0  0
   -0.1012   -1.6856   -0.8775 H   0  0  0  0  0  0  0  0  0  0  0  0
   -1.9210    1.6393   -1.1129 H   0  0  0  0  0  0  0  0  0  0  0  0
   -1.1616    1.8554    0.5618 H   0  0  0  0  0  0  0  0  0  0  0  0
   -2.8680    1.2932    0.3596 H   0  0  0  0  0  0  0  0  0  0  0  0
   -1.6894   -2.2072    0.6768 H   0  0  0  0  0  0  0  0  0  0  0  0
   -2.8953   -1.0058    1.3902 H   0  0  0  0  0  0  0  0  0  0  0  0
  1  2  1  0
  2  3  1  0
  3  4  2  0
  3  5  1  0
  5  6  1  0
  6  7  1  0
  6  8  1  0
  8  9  1  0
  9  6  1  0
  1 10  1  0
  1 11  1  0
  1 12  1  0
  5 13  1  0
  5 14  1  0
  7 15  1  0
  7 16  1  0
  7 17  1  0
  8 18  1  0
  8 19  1  0
M  END
