
     RDKit          3D

 23 23  0  0  0  0  0  0  0  0999 V2000
    2.4536    1.2404    0.5713 C   0  0  0  0  0  0  0  0  0  0  0  0
    1.7735    0.5827   -0.4219 O   0  0  0  0  0  0  0  0  0  0  0  0
    0.9637   -0.4474    0.0577 C   0  0  0  0  0  0  0  0  0  0  0  0
    1.4416   -1.7158   -0.6479 C   0  0  0  0  0  0  0  0  0  0  0  0
   -0.4407   -0.1629   -0.4211 C   0  0  0  0  0  0  0  0  0  0  0  0
   -1.4201   -1.1593    0.0006 C   0  0  0  0  0  0  0  0  0  0  0  0
   -2.5595   -0.5640    0.3093 C   0  0  0  0  0  0  0  0  0  0  0  0
   -2.4875    0.9069    0.1339 C   0  0  0  0  0  0  0  0  0  0  0  0
   -0.9842    1.1299    0.0976 C   0  0  0  0  0  0  0  0  0  0  0  0
    3.1315    0.5803    1.1567 H   0  0  0  0  0  0  0  0  0  0  0  0
    3.0496    2.0478    0.0775 H   0  0  0  0  0  0  0  0  0  0  0  0
    1.7738    1.7506    1.2695 H   0  0  0  0  0  0  0  0  0  0  0  0
    1.0080   -0.5535    1.1421 H   0  0  0  0  0  0  0  0  0  0  0  0
    2.4973   -1.5961   -0.9894 H   0  0  0  0  0  0  0  0  0  0  0  0
    1.3526   -2.5705    0.0296 H   0  0  0  0  0  0  0  0  0  0  0  0
    0.8199   -1.9157   -1.5570 H   0  0  0  0  0  0  0  0  0  0  0  0
   -0.4587   -0.1095   -1.5296 H   0  0  0  0  0  0  0  0  0  0  0  0
   -1.2854   -2.2663    0.0716 H   0  0  0  0  0  0  0  0  0  0  0  0
   -3.4834   -1.0779    0.6627 H   0  0  0  0  0  0  0  0  0  0  0  0
   -2.8744    1.3682    1.0517 H   0  0  0  0  0  0  0  0  0  0  0  0
   -2.9759    1.2559   -0.7941 H   0  0  0  0  0  0  0  0  0  0  0  0
   -0.5779    1.3110    1.1105 H   0  0  0  0  0  0  0  0  0  0  0  0
   -0.7171    1.9653   -0.5472 H   0  0  0  0  0  0  0  0  0  0  0  0
  1  2  1  0
  2  3  1  0
  3  4  1  0
  3  5  1  0
  5  6  1  0
  6  7  2  0
  7  8  1  0
  8  9  1  0
  9  5  1  0
  1 10  1  0
  1 11  1  0
  1 12  1  0
  3 13  1  0
  4 14  1  0
  4 15  1  0
  4 16  1  0
  5 17  1  0
  6 18  1  0
  7 19  1  0
  8 20  1  0
  8 21  1  0
  9 22  1  0
  9 23  1  0
M  END
