
     RDKit          3D

 23 22  0  0  0  0  0  0  0  0999 V2000
    2.5839   -1.5258    0.4720 C   0  0  0  0  0  0  0  0  0  0  0  0
    1.7452   -0.5667    1.0158 O   0  0  0  0  0  0  0  0  0  0  0  0
    0.9628    0.0674    0.0572 C   0  0  0  0  0  0  0  0  0  0  0  0
    1.2725    1.5423    0.1424 C   0  0  0  0  0  0  0  0  0  0  0  0
   -0.4970   -0.1905    0.4442 C   0  0  0  0  0  0  0  0  0  0  0  0
   -0.7986    0.3080    1.6920 O   0  0  0  0  0  0  0  0  0  0  0  0
   -1.3964    0.3908   -0.6421 C   0  0  0  0  0  0  0  0  0  0  0  0
   -2.8186   -0.0341   -0.3908 C   0  0  0  0  0  0  0  0  0  0  0  0
   -1.0014   -0.1832   -1.8578 O   0  0  0  0  0  0  0  0  0  0  0  0
    3.2454   -0.9818   -0.2582 H   0  0  0  0  0  0  0  0  0  0  0  0
    2.0706   -2.3664    0.0125 H   0  0  0  0  0  0  0  0  0  0  0  0
    3.2650   -1.8600    1.2913 H   0  0  0  0  0  0  0  0  0  0  0  0
    1.1271   -0.2818   -0.9566 H   0  0  0  0  0  0  0  0  0  0  0  0
    1.3355    1.8869    1.2035 H   0  0  0  0  0  0  0  0  0  0  0  0
    2.2936    1.6829   -0.2808 H   0  0  0  0  0  0  0  0  0  0  0  0
    0.5621    2.1744   -0.4025 H   0  0  0  0  0  0  0  0  0  0  0  0
   -0.7058   -1.2785    0.4602 H   0  0  0  0  0  0  0  0  0  0  0  0
   -1.0009    1.2690    1.7057 H   0  0  0  0  0  0  0  0  0  0  0  0
   -1.3708    1.4851   -0.6714 H   0  0  0  0  0  0  0  0  0  0  0  0
   -3.3169   -0.1879   -1.3780 H   0  0  0  0  0  0  0  0  0  0  0  0
   -2.8465   -1.0165    0.1319 H   0  0  0  0  0  0  0  0  0  0  0  0
   -3.3443    0.7615    0.1650 H   0  0  0  0  0  0  0  0  0  0  0  0
   -1.3665   -1.0950   -1.9553 H   0  0  0  0  0  0  0  0  0  0  0  0
  1  2  1  0
  2  3  1  0
  3  4  1  0
  3  5  1  0
  5  6  1  0
  5  7  1  0
  7  8  1  0
  7  9  1  0
  1 10  1  0
  1 11  1  0
  1 12  1  0
  3 13  1  0
  4 14  1  0
  4 15  1  0
  4 16  1  0
  5 17  1  0
  6 18  1  0
  7 19  1  0
  8 20  1  0
  8 21  1  0
  8 22  1  0
  9 23  1  0
M  END
