
     RDKit          3D

 25 24  0  0  0  0  0  0  0  0999 V2000
    2.5401   -0.3430   -1.0929 C   0  0  0  0  0  0  0  0  0  0  0  0
    1.6347   -0.4726   -0.0422 O   0  0  0  0  0  0  0  0  0  0  0  0
    0.5937    0.4630   -0.1525 C   0  0  0  0  0  0  0  0  0  0  0  0
    0.6588    1.3664    1.0753 C   0  0  0  0  0  0  0  0  0  0  0  0
   -0.6791   -0.3419   -0.1337 C   0  0  0  0  0  0  0  0  0  0  0  0
   -0.5724   -1.2820    1.0416 C   0  0  0  0  0  0  0  0  0  0  0  0
   -0.5683   -1.2792   -1.3622 C   0  0  0  0  0  0  0  0  0  0  0  0
   -1.8385    0.3015   -0.2677 O   0  0  0  0  0  0  0  0  0  0  0  0
   -2.2827    1.2481    0.5600 C   0  0  0  0  0  0  0  0  0  0  0  0
    2.0795   -0.4970   -2.0853 H   0  0  0  0  0  0  0  0  0  0  0  0
    3.3300   -1.1045   -0.9560 H   0  0  0  0  0  0  0  0  0  0  0  0
    3.0462    0.6500   -1.0567 H   0  0  0  0  0  0  0  0  0  0  0  0
    0.6929    1.1113   -1.0385 H   0  0  0  0  0  0  0  0  0  0  0  0
    1.6932    1.2544    1.5199 H   0  0  0  0  0  0  0  0  0  0  0  0
   -0.0951    1.0165    1.7958 H   0  0  0  0  0  0  0  0  0  0  0  0
    0.5911    2.4283    0.8155 H   0  0  0  0  0  0  0  0  0  0  0  0
   -1.1382   -2.2361    0.8298 H   0  0  0  0  0  0  0  0  0  0  0  0
    0.4925   -1.5859    1.1123 H   0  0  0  0  0  0  0  0  0  0  0  0
   -0.8534   -0.8591    2.0040 H   0  0  0  0  0  0  0  0  0  0  0  0
    0.1484   -2.0808   -1.1829 H   0  0  0  0  0  0  0  0  0  0  0  0
   -1.5793   -1.7349   -1.4545 H   0  0  0  0  0  0  0  0  0  0  0  0
   -0.3660   -0.6768   -2.2756 H   0  0  0  0  0  0  0  0  0  0  0  0
   -3.3109    1.5739    0.1823 H   0  0  0  0  0  0  0  0  0  0  0  0
   -2.4741    0.8657    1.5678 H   0  0  0  0  0  0  0  0  0  0  0  0
   -1.7431    2.2145    0.5963 H   0  0  0  0  0  0  0  0  0  0  0  0
  1  2  1  0
  2  3  1  0
  3  4  1  0
  3  5  1  0
  5  6  1  0
  5  7  1  0
  5  8  1  0
  8  9  1  0
  1 10  1  0
  1 11  1  0
  1 12  1  0
  3 13  1  0
  4 14  1  0
  4 15  1  0
  4 16  1  0
  6 17  1  0
  6 18  1  0
  6 19  1  0
  7 20  1  0
  7 21  1  0
  7 22  1  0
  9 23  1  0
  9 24  1  0
  9 25  1  0
M  END
