
     RDKit          3D

 21 20  0  0  0  0  0  0  0  0999 V2000
   -1.8280    2.0332   -0.0150 C   0  0  0  0  0  0  0  0  0  0  0  0
   -1.3587    0.9446   -0.7171 O   0  0  0  0  0  0  0  0  0  0  0  0
   -0.4332    0.1921    0.0214 C   0  0  0  0  0  0  0  0  0  0  0  0
   -0.9931   -1.2021    0.1027 C   0  0  0  0  0  0  0  0  0  0  0  0
   -0.1914   -2.1600    0.8421 C   0  0  0  0  0  0  0  0  0  0  0  0
    0.1853   -1.9722    1.9885 O   0  0  0  0  0  0  0  0  0  0  0  0
    0.8530    0.2626   -0.7613 C   0  0  0  0  0  0  0  0  0  0  0  0
    2.0024   -0.4749   -0.1675 C   0  0  0  0  0  0  0  0  0  0  0  0
    2.3133    0.0087    1.0831 O   0  0  0  0  0  0  0  0  0  0  0  0
   -2.5579    2.5791   -0.6707 H   0  0  0  0  0  0  0  0  0  0  0  0
   -1.0034    2.7130    0.2631 H   0  0  0  0  0  0  0  0  0  0  0  0
   -2.4280    1.7151    0.8684 H   0  0  0  0  0  0  0  0  0  0  0  0
   -0.2528    0.5964    1.0187 H   0  0  0  0  0  0  0  0  0  0  0  0
   -2.0135   -1.1014    0.5793 H   0  0  0  0  0  0  0  0  0  0  0  0
   -1.2069   -1.5929   -0.9067 H   0  0  0  0  0  0  0  0  0  0  0  0
    0.1099   -3.1099    0.3786 H   0  0  0  0  0  0  0  0  0  0  0  0
    1.1351    1.3461   -0.7606 H   0  0  0  0  0  0  0  0  0  0  0  0
    0.6632    0.0130   -1.8222 H   0  0  0  0  0  0  0  0  0  0  0  0
    2.8905   -0.2153   -0.8111 H   0  0  0  0  0  0  0  0  0  0  0  0
    1.9426   -1.5606   -0.1913 H   0  0  0  0  0  0  0  0  0  0  0  0
    2.1715    0.9853    1.0987 H   0  0  0  0  0  0  0  0  0  0  0  0
  1  2  1  0
  2  3  1  0
  3  4  1  0
  4  5  1  0
  5  6  2  0
  3  7  1  0
  7  8  1  0
  8  9  1  0
  1 10  1  0
  1 11  1  0
  1 12  1  0
  3 13  1  0
  4 14  1  0
  4 15  1  0
  5 16  1  0
  7 17  1  0
  7 18  1  0
  8 19  1  0
  8 20  1  0
  9 21  1  0
M  END
