
     RDKit          3D

 23 23  0  0  0  0  0  0  0  0999 V2000
    0.6156   -2.4507    0.8163 C   0  0  0  0  0  0  0  0  0  0  0  0
    0.7653   -1.5149   -0.2007 O   0  0  0  0  0  0  0  0  0  0  0  0
    0.4149   -0.2311    0.2138 C   0  0  0  0  0  0  0  0  0  0  0  0
   -0.7460    0.2081   -0.6023 C   0  0  0  0  0  0  0  0  0  0  0  0
   -1.8605   -0.7991   -0.3336 C   0  0  0  0  0  0  0  0  0  0  0  0
   -1.2843    1.5568   -0.2604 C   0  0  0  0  0  0  0  0  0  0  0  0
    1.6382    0.6181    0.1521 C   0  0  0  0  0  0  0  0  0  0  0  0
    1.7384    1.9430   -0.3617 C   0  0  0  0  0  0  0  0  0  0  0  0
    2.2922    0.7889   -1.0782 O   0  0  0  0  0  0  0  0  0  0  0  0
    1.2887   -2.1385    1.6671 H   0  0  0  0  0  0  0  0  0  0  0  0
    0.9237   -3.4542    0.5392 H   0  0  0  0  0  0  0  0  0  0  0  0
   -0.3968   -2.4827    1.2488 H   0  0  0  0  0  0  0  0  0  0  0  0
    0.0987   -0.3024    1.2726 H   0  0  0  0  0  0  0  0  0  0  0  0
   -0.5662    0.1557   -1.7005 H   0  0  0  0  0  0  0  0  0  0  0  0
   -2.0628   -0.8293    0.7565 H   0  0  0  0  0  0  0  0  0  0  0  0
   -1.6163   -1.8043   -0.7016 H   0  0  0  0  0  0  0  0  0  0  0  0
   -2.8066   -0.4442   -0.8026 H   0  0  0  0  0  0  0  0  0  0  0  0
   -1.3404    2.1961   -1.1798 H   0  0  0  0  0  0  0  0  0  0  0  0
   -2.3429    1.5222    0.1128 H   0  0  0  0  0  0  0  0  0  0  0  0
   -0.7167    2.0625    0.5515 H   0  0  0  0  0  0  0  0  0  0  0  0
    2.3551    0.3372    0.9579 H   0  0  0  0  0  0  0  0  0  0  0  0
    1.0408    2.4606   -1.0368 H   0  0  0  0  0  0  0  0  0  0  0  0
    2.5680    2.6022   -0.0305 H   0  0  0  0  0  0  0  0  0  0  0  0
  1  2  1  0
  2  3  1  0
  3  4  1  0
  4  5  1  0
  4  6  1  0
  3  7  1  0
  7  8  1  0
  8  9  1  0
  9  7  1  0
  1 10  1  0
  1 11  1  0
  1 12  1  0
  3 13  1  0
  4 14  1  0
  5 15  1  0
  5 16  1  0
  5 17  1  0
  6 18  1  0
  6 19  1  0
  6 20  1  0
  7 21  1  0
  8 22  1  0
  8 23  1  0
M  END
