
     RDKit          3D

 21 21  0  0  0  0  0  0  0  0999 V2000
    2.8582   -0.6607    0.4944 C   0  0  0  0  0  0  0  0  0  0  0  0
    1.6942    0.0152    0.8642 O   0  0  0  0  0  0  0  0  0  0  0  0
    0.7911    0.0890   -0.1945 C   0  0  0  0  0  0  0  0  0  0  0  0
    0.6509    1.5437   -0.5665 C   0  0  0  0  0  0  0  0  0  0  0  0
   -0.5295   -0.5483    0.1518 C   0  0  0  0  0  0  0  0  0  0  0  0
   -1.5416   -0.4873   -0.9793 C   0  0  0  0  0  0  0  0  0  0  0  0
   -1.7593    0.2399    0.3247 C   0  0  0  0  0  0  0  0  0  0  0  0
   -2.8315   -0.3670    1.1576 C   0  0  0  0  0  0  0  0  0  0  0  0
   -2.9030   -1.5746    1.3007 O   0  0  0  0  0  0  0  0  0  0  0  0
    3.3167   -0.0831   -0.3604 H   0  0  0  0  0  0  0  0  0  0  0  0
    2.6299   -1.6597    0.0936 H   0  0  0  0  0  0  0  0  0  0  0  0
    3.5971   -0.6407    1.2971 H   0  0  0  0  0  0  0  0  0  0  0  0
    1.2578   -0.4227   -1.0614 H   0  0  0  0  0  0  0  0  0  0  0  0
   -0.2663    1.7400   -1.1557 H   0  0  0  0  0  0  0  0  0  0  0  0
    0.7524    2.2111    0.3175 H   0  0  0  0  0  0  0  0  0  0  0  0
    1.5021    1.8206   -1.2398 H   0  0  0  0  0  0  0  0  0  0  0  0
   -0.4322   -1.4721    0.7457 H   0  0  0  0  0  0  0  0  0  0  0  0
   -1.3093    0.1041   -1.8823 H   0  0  0  0  0  0  0  0  0  0  0  0
   -2.1047   -1.4139   -1.1974 H   0  0  0  0  0  0  0  0  0  0  0  0
   -1.7965    1.3302    0.2703 H   0  0  0  0  0  0  0  0  0  0  0  0
   -3.5764    0.2362    1.6595 H   0  0  0  0  0  0  0  0  0  0  0  0
  1  2  1  0
  2  3  1  0
  3  4  1  0
  3  5  1  0
  5  6  1  0
  6  7  1  0
  7  8  1  0
  8  9  2  0
  7  5  1  0
  1 10  1  0
  1 11  1  0
  1 12  1  0
  3 13  1  0
  4 14  1  0
  4 15  1  0
  4 16  1  0
  5 17  1  0
  6 18  1  0
  6 19  1  0
  7 20  1  0
  8 21  1  0
M  END
