
     RDKit          3D

 21 21  0  0  0  0  0  0  0  0999 V2000
   -3.2957   -1.2078    0.4213 C   0  0  0  0  0  0  0  0  0  0  0  0
   -2.4298   -0.2446    0.9270 O   0  0  0  0  0  0  0  0  0  0  0  0
   -1.5672    0.1371   -0.0938 C   0  0  0  0  0  0  0  0  0  0  0  0
   -1.8271    1.6038   -0.3669 C   0  0  0  0  0  0  0  0  0  0  0  0
   -0.1764   -0.0406    0.3168 C   0  0  0  0  0  0  0  0  0  0  0  0
    0.9785   -0.1789    0.6551 C   0  0  0  0  0  0  0  0  0  0  0  0
    2.3810   -0.3362    1.0627 C   0  0  0  0  0  0  0  0  0  0  0  0
    3.3979   -0.7946    0.1017 C   0  0  0  0  0  0  0  0  0  0  0  0
    3.3988    0.6572    0.5535 C   0  0  0  0  0  0  0  0  0  0  0  0
   -2.6745   -2.0580    0.0812 H   0  0  0  0  0  0  0  0  0  0  0  0
   -3.9786   -1.5601    1.2053 H   0  0  0  0  0  0  0  0  0  0  0  0
   -3.8090   -0.8189   -0.4816 H   0  0  0  0  0  0  0  0  0  0  0  0
   -1.8015   -0.4220   -1.0185 H   0  0  0  0  0  0  0  0  0  0  0  0
   -2.6114    1.6891   -1.1654 H   0  0  0  0  0  0  0  0  0  0  0  0
   -2.2634    2.1153    0.5261 H   0  0  0  0  0  0  0  0  0  0  0  0
   -0.9029    2.1277   -0.6440 H   0  0  0  0  0  0  0  0  0  0  0  0
    2.5150   -0.7072    2.1122 H   0  0  0  0  0  0  0  0  0  0  0  0
    4.2520   -1.4293    0.4599 H   0  0  0  0  0  0  0  0  0  0  0  0
    3.1953   -0.9395   -0.9730 H   0  0  0  0  0  0  0  0  0  0  0  0
    4.2259    0.9804    1.2009 H   0  0  0  0  0  0  0  0  0  0  0  0
    2.9931    1.4272   -0.1475 H   0  0  0  0  0  0  0  0  0  0  0  0
  1  2  1  0
  2  3  1  0
  3  4  1  0
  3  5  1  0
  5  6  3  0
  6  7  1  0
  7  8  1  0
  8  9  1  0
  9  7  1  0
  1 10  1  0
  1 11  1  0
  1 12  1  0
  3 13  1  0
  4 14  1  0
  4 15  1  0
  4 16  1  0
  7 17  1  0
  8 18  1  0
  8 19  1  0
  9 20  1  0
  9 21  1  0
M  END
