
     RDKit          3D

 17 16  0  0  0  0  0  0  0  0999 V2000
   -1.8347   -1.0355   -0.3582 C   0  0  0  0  0  0  0  0  0  0  0  0
   -0.9231   -0.5217    0.5457 O   0  0  0  0  0  0  0  0  0  0  0  0
   -0.0515    0.3401   -0.1114 C   0  0  0  0  0  0  0  0  0  0  0  0
   -0.3565    1.7228    0.4881 C   0  0  0  0  0  0  0  0  0  0  0  0
    1.3924    0.1012    0.1627 C   0  0  0  0  0  0  0  0  0  0  0  0
    1.9190   -1.2111   -0.1934 C   0  0  0  0  0  0  0  0  0  0  0  0
    1.2531   -2.0941   -0.6887 O   0  0  0  0  0  0  0  0  0  0  0  0
   -2.5464   -1.7373    0.1492 H   0  0  0  0  0  0  0  0  0  0  0  0
   -1.3564   -1.5290   -1.1969 H   0  0  0  0  0  0  0  0  0  0  0  0
   -2.5003   -0.2408   -0.7796 H   0  0  0  0  0  0  0  0  0  0  0  0
   -0.2988    0.3632   -1.1880 H   0  0  0  0  0  0  0  0  0  0  0  0
   -1.4369    1.9066    0.5561 H   0  0  0  0  0  0  0  0  0  0  0  0
    0.0756    1.7166    1.4897 H   0  0  0  0  0  0  0  0  0  0  0  0
    0.0688    2.4622   -0.1958 H   0  0  0  0  0  0  0  0  0  0  0  0
    1.6576    0.3031    1.2190 H   0  0  0  0  0  0  0  0  0  0  0  0
    1.9729    0.8717   -0.4235 H   0  0  0  0  0  0  0  0  0  0  0  0
    2.9652   -1.4182   -0.0082 H   0  0  0  0  0  0  0  0  0  0  0  0
  1  2  1  0
  2  3  1  0
  3  4  1  0
  3  5  1  0
  5  6  1  0
  6  7  2  0
  1  8  1  0
  1  9  1  0
  1 10  1  0
  3 11  1  0
  4 12  1  0
  4 13  1  0
  4 14  1  0
  5 15  1  0
  5 16  1  0
  6 17  1  0
M  END
