
     RDKit          3D

 21 20  0  0  0  0  0  0  0  0999 V2000
   -1.4833   -1.4947    1.1208 C   0  0  0  0  0  0  0  0  0  0  0  0
   -0.9555   -1.1487    0.0520 O   0  0  0  0  0  0  0  0  0  0  0  0
   -0.3777   -0.8235   -0.9925 C   0  0  0  0  0  0  0  0  0  0  0  0
   -0.7970   -1.5109   -2.3073 C   0  0  0  0  0  0  0  0  0  0  0  0
   -0.3134    0.6986   -1.3244 C   0  0  0  0  0  0  0  0  0  0  0  0
    0.4092    1.2982   -0.1875 C   0  0  0  0  0  0  0  0  0  0  0  0
    1.0142    1.7745    0.7545 C   0  0  0  0  0  0  0  0  0  0  0  0
    1.7635    2.3409    1.8753 C   0  0  0  0  0  0  0  0  0  0  0  0
    2.8200    1.4852    2.1708 O   0  0  0  0  0  0  0  0  0  0  0  0
   -2.6121   -1.3250    1.2735 H   0  0  0  0  0  0  0  0  0  0  0  0
   -1.3433   -2.5787    1.4933 H   0  0  0  0  0  0  0  0  0  0  0  0
   -1.0364   -0.9357    2.0264 H   0  0  0  0  0  0  0  0  0  0  0  0
    0.7493   -1.0683   -0.9667 H   0  0  0  0  0  0  0  0  0  0  0  0
   -0.5823   -2.5902   -2.2260 H   0  0  0  0  0  0  0  0  0  0  0  0
   -1.8252   -1.2627   -2.5822 H   0  0  0  0  0  0  0  0  0  0  0  0
   -0.1261   -1.0953   -3.0834 H   0  0  0  0  0  0  0  0  0  0  0  0
   -1.3387    1.0923   -1.4148 H   0  0  0  0  0  0  0  0  0  0  0  0
    0.2694    0.7402   -2.2606 H   0  0  0  0  0  0  0  0  0  0  0  0
    1.1330    2.4724    2.7805 H   0  0  0  0  0  0  0  0  0  0  0  0
    2.1329    3.3614    1.6054 H   0  0  0  0  0  0  0  0  0  0  0  0
    2.4996    0.5700    2.1927 H   0  0  0  0  0  0  0  0  0  0  0  0
  1  2  1  0
  2  3  1  0
  3  4  1  0
  3  5  1  0
  5  6  1  0
  6  7  3  0
  7  8  1  0
  8  9  1  0
  1 10  1  0
  1 11  1  0
  1 12  1  0
  3 13  1  0
  4 14  1  0
  4 15  1  0
  4 16  1  0
  5 17  1  0
  5 18  1  0
  8 19  1  0
  8 20  1  0
  9 21  1  0
M  END
