
     RDKit          3D

 21 21  0  0  0  0  0  0  0  0999 V2000
    3.2652   -0.0371    0.0099 C   0  0  0  0  0  0  0  0  0  0  0  0
    2.0304   -0.6963    0.1365 O   0  0  0  0  0  0  0  0  0  0  0  0
    0.8561   -0.2706   -0.4690 C   0  0  0  0  0  0  0  0  0  0  0  0
    0.9607    0.7905   -1.1731 O   0  0  0  0  0  0  0  0  0  0  0  0
   -0.4329   -0.9906   -0.3148 C   0  0  0  0  0  0  0  0  0  0  0  0
   -1.4778   -0.2248   -1.1185 C   0  0  0  0  0  0  0  0  0  0  0  0
   -1.6831    1.0058   -0.2771 C   0  0  0  0  0  0  0  0  0  0  0  0
   -1.2182    0.6936    1.1129 C   0  0  0  0  0  0  0  0  0  0  0  0
   -1.0007   -0.8152    1.0984 C   0  0  0  0  0  0  0  0  0  0  0  0
    3.5830    0.4598    0.9400 H   0  0  0  0  0  0  0  0  0  0  0  0
    4.0593   -0.6980   -0.3911 H   0  0  0  0  0  0  0  0  0  0  0  0
    3.1529    0.7849   -0.7479 H   0  0  0  0  0  0  0  0  0  0  0  0
   -0.3941   -2.0382   -0.6202 H   0  0  0  0  0  0  0  0  0  0  0  0
   -2.3976   -0.8588   -1.1333 H   0  0  0  0  0  0  0  0  0  0  0  0
   -1.0827   -0.0158   -2.1248 H   0  0  0  0  0  0  0  0  0  0  0  0
   -1.0894    1.8245   -0.7366 H   0  0  0  0  0  0  0  0  0  0  0  0
   -2.7396    1.3201   -0.3255 H   0  0  0  0  0  0  0  0  0  0  0  0
   -0.2117    1.1793    1.2424 H   0  0  0  0  0  0  0  0  0  0  0  0
   -1.8844    1.0236    1.9082 H   0  0  0  0  0  0  0  0  0  0  0  0
   -1.9883   -1.2838    1.1131 H   0  0  0  0  0  0  0  0  0  0  0  0
   -0.3071   -1.1530    1.8703 H   0  0  0  0  0  0  0  0  0  0  0  0
  1  2  1  0
  2  3  1  0
  3  4  2  0
  3  5  1  0
  5  6  1  0
  6  7  1  0
  7  8  1  0
  8  9  1  0
  9  5  1  0
  1 10  1  0
  1 11  1  0
  1 12  1  0
  5 13  1  0
  6 14  1  0
  6 15  1  0
  7 16  1  0
  7 17  1  0
  8 18  1  0
  8 19  1  0
  9 20  1  0
  9 21  1  0
M  END
