
     RDKit          3D

 21 20  0  0  0  0  0  0  0  0999 V2000
    1.5798    1.5014    0.0085 C   0  0  0  0  0  0  0  0  0  0  0  0
    0.7842    0.7781   -0.8198 O   0  0  0  0  0  0  0  0  0  0  0  0
    0.2317   -0.3773   -0.3511 C   0  0  0  0  0  0  0  0  0  0  0  0
    1.2921   -1.3645    0.1029 C   0  0  0  0  0  0  0  0  0  0  0  0
   -0.4777   -1.0796   -1.4931 C   0  0  0  0  0  0  0  0  0  0  0  0
   -0.4692   -0.5774   -2.5997 O   0  0  0  0  0  0  0  0  0  0  0  0
   -0.8117   -0.1065    0.6718 C   0  0  0  0  0  0  0  0  0  0  0  0
   -1.9641    0.6182   -0.0264 C   0  0  0  0  0  0  0  0  0  0  0  0
   -0.4054    0.5428    1.8045 O   0  0  0  0  0  0  0  0  0  0  0  0
    2.4319    0.8374    0.3178 H   0  0  0  0  0  0  0  0  0  0  0  0
    1.9979    2.3731   -0.5814 H   0  0  0  0  0  0  0  0  0  0  0  0
    1.1498    1.9303    0.9065 H   0  0  0  0  0  0  0  0  0  0  0  0
    2.0191   -1.4492   -0.7312 H   0  0  0  0  0  0  0  0  0  0  0  0
    0.8285   -2.3597    0.2301 H   0  0  0  0  0  0  0  0  0  0  0  0
    1.8519   -1.0192    0.9834 H   0  0  0  0  0  0  0  0  0  0  0  0
   -0.9746   -2.0263   -1.2613 H   0  0  0  0  0  0  0  0  0  0  0  0
   -1.2492   -1.0915    0.9941 H   0  0  0  0  0  0  0  0  0  0  0  0
   -1.8933    1.7105    0.2048 H   0  0  0  0  0  0  0  0  0  0  0  0
   -1.8902    0.5470   -1.1308 H   0  0  0  0  0  0  0  0  0  0  0  0
   -2.9444    0.2024    0.2690 H   0  0  0  0  0  0  0  0  0  0  0  0
   -1.0872    0.4101    2.5014 H   0  0  0  0  0  0  0  0  0  0  0  0
  1  2  1  0
  2  3  1  0
  3  4  1  0
  3  5  1  0
  5  6  2  0
  3  7  1  0
  7  8  1  0
  7  9  1  0
  1 10  1  0
  1 11  1  0
  1 12  1  0
  4 13  1  0
  4 14  1  0
  4 15  1  0
  5 16  1  0
  7 17  1  0
  8 18  1  0
  8 19  1  0
  8 20  1  0
  9 21  1  0
M  END
