
     RDKit          3D

 17 16  0  0  0  0  0  0  0  0999 V2000
    3.5016   -0.4426   -0.1530 C   0  0  0  0  0  0  0  0  0  0  0  0
    2.1448   -0.8251   -0.0167 O   0  0  0  0  0  0  0  0  0  0  0  0
    1.1149    0.1112   -0.2093 C   0  0  0  0  0  0  0  0  0  0  0  0
    1.4910    1.2753   -0.5023 O   0  0  0  0  0  0  0  0  0  0  0  0
   -0.2840   -0.2616   -0.0740 C   0  0  0  0  0  0  0  0  0  0  0  0
   -0.5794   -1.4383    0.2195 O   0  0  0  0  0  0  0  0  0  0  0  0
   -1.3108    0.7823   -0.2925 C   0  0  0  0  0  0  0  0  0  0  0  0
   -2.7120    0.2413   -0.1164 C   0  0  0  0  0  0  0  0  0  0  0  0
   -2.9877   -0.7911   -1.0096 O   0  0  0  0  0  0  0  0  0  0  0  0
    4.0444   -1.0377   -0.9012 H   0  0  0  0  0  0  0  0  0  0  0  0
    3.5621    0.6251   -0.5144 H   0  0  0  0  0  0  0  0  0  0  0  0
    3.9648   -0.5281    0.8728 H   0  0  0  0  0  0  0  0  0  0  0  0
   -1.1682    1.5355    0.5275 H   0  0  0  0  0  0  0  0  0  0  0  0
   -1.1668    1.2738   -1.2602 H   0  0  0  0  0  0  0  0  0  0  0  0
   -2.8480   -0.0766    0.9375 H   0  0  0  0  0  0  0  0  0  0  0  0
   -3.3993    1.1175   -0.2702 H   0  0  0  0  0  0  0  0  0  0  0  0
   -3.3674   -1.5608   -0.4882 H   0  0  0  0  0  0  0  0  0  0  0  0
  1  2  1  0
  2  3  1  0
  3  4  2  0
  3  5  1  0
  5  6  2  0
  5  7  1  0
  7  8  1  0
  8  9  1  0
  1 10  1  0
  1 11  1  0
  1 12  1  0
  7 13  1  0
  7 14  1  0
  8 15  1  0
  8 16  1  0
  9 17  1  0
M  END
