
     RDKit          3D

 21 20  0  0  0  0  0  0  0  0999 V2000
    3.8155    0.6831    0.1924 C   0  0  0  0  0  0  0  0  0  0  0  0
    2.4581    0.6362   -0.2692 O   0  0  0  0  0  0  0  0  0  0  0  0
    1.6941   -0.5013   -0.0913 C   0  0  0  0  0  0  0  0  0  0  0  0
    2.2602   -1.4788    0.4940 O   0  0  0  0  0  0  0  0  0  0  0  0
    0.2989   -0.6518   -0.5264 C   0  0  0  0  0  0  0  0  0  0  0  0
   -0.6718    0.1383    0.3299 C   0  0  0  0  0  0  0  0  0  0  0  0
   -2.0660   -0.0981   -0.2100 C   0  0  0  0  0  0  0  0  0  0  0  0
   -3.0770    0.6889    0.6101 C   0  0  0  0  0  0  0  0  0  0  0  0
   -2.4132   -1.4508   -0.1325 O   0  0  0  0  0  0  0  0  0  0  0  0
    3.9714    1.4577    0.9537 H   0  0  0  0  0  0  0  0  0  0  0  0
    4.5369    0.8300   -0.6178 H   0  0  0  0  0  0  0  0  0  0  0  0
    4.0820   -0.3048    0.6798 H   0  0  0  0  0  0  0  0  0  0  0  0
    0.1654   -0.3090   -1.5768 H   0  0  0  0  0  0  0  0  0  0  0  0
   -0.0195   -1.7061   -0.4723 H   0  0  0  0  0  0  0  0  0  0  0  0
   -0.4473    1.2201    0.1424 H   0  0  0  0  0  0  0  0  0  0  0  0
   -0.6014   -0.0738    1.3979 H   0  0  0  0  0  0  0  0  0  0  0  0
   -2.0776    0.1918   -1.2703 H   0  0  0  0  0  0  0  0  0  0  0  0
   -2.6389    1.6204    1.0455 H   0  0  0  0  0  0  0  0  0  0  0  0
   -3.9141    0.9419   -0.0969 H   0  0  0  0  0  0  0  0  0  0  0  0
   -3.4614    0.0873    1.4702 H   0  0  0  0  0  0  0  0  0  0  0  0
   -1.8944   -1.9212    0.5775 H   0  0  0  0  0  0  0  0  0  0  0  0
  1  2  1  0
  2  3  1  0
  3  4  2  0
  3  5  1  0
  5  6  1  0
  6  7  1  0
  7  8  1  0
  7  9  1  0
  1 10  1  0
  1 11  1  0
  1 12  1  0
  5 13  1  0
  5 14  1  0
  6 15  1  0
  6 16  1  0
  7 17  1  0
  8 18  1  0
  8 19  1  0
  8 20  1  0
  9 21  1  0
M  END
