
     RDKit          3D

 17 16  0  0  0  0  0  0  0  0999 V2000
    3.0046   -0.1269    0.7254 C   0  0  0  0  0  0  0  0  0  0  0  0
    1.8240   -0.5511    0.0701 O   0  0  0  0  0  0  0  0  0  0  0  0
    0.8886    0.3623   -0.4145 C   0  0  0  0  0  0  0  0  0  0  0  0
    1.1025    1.5878   -0.2655 O   0  0  0  0  0  0  0  0  0  0  0  0
   -0.3522   -0.0739   -1.1022 C   0  0  0  0  0  0  0  0  0  0  0  0
   -1.2593   -0.8087   -0.2016 C   0  0  0  0  0  0  0  0  0  0  0  0
   -0.9216   -1.9412    0.1094 O   0  0  0  0  0  0  0  0  0  0  0  0
   -2.5217   -0.2517    0.3224 C   0  0  0  0  0  0  0  0  0  0  0  0
   -2.6493    1.0558   -0.1645 O   0  0  0  0  0  0  0  0  0  0  0  0
    2.8599    0.8447    1.2277 H   0  0  0  0  0  0  0  0  0  0  0  0
    3.7969   -0.0476   -0.0772 H   0  0  0  0  0  0  0  0  0  0  0  0
    3.3451   -0.8782    1.4475 H   0  0  0  0  0  0  0  0  0  0  0  0
   -0.0531   -0.6617   -2.0044 H   0  0  0  0  0  0  0  0  0  0  0  0
   -0.8764    0.8442   -1.4991 H   0  0  0  0  0  0  0  0  0  0  0  0
   -2.5775   -0.2613    1.4538 H   0  0  0  0  0  0  0  0  0  0  0  0
   -3.4137   -0.8031   -0.0383 H   0  0  0  0  0  0  0  0  0  0  0  0
   -2.1967    1.7106    0.4108 H   0  0  0  0  0  0  0  0  0  0  0  0
  1  2  1  0
  2  3  1  0
  3  4  2  0
  3  5  1  0
  5  6  1  0
  6  7  2  0
  6  8  1  0
  8  9  1  0
  1 10  1  0
  1 11  1  0
  1 12  1  0
  5 13  1  0
  5 14  1  0
  8 15  1  0
  8 16  1  0
  9 17  1  0
M  END
