
     RDKit          3D

 21 20  0  0  0  0  0  0  0  0999 V2000
    0.0299    2.7504   -0.5707 C   0  0  0  0  0  0  0  0  0  0  0  0
    0.0387    1.5176   -1.2176 O   0  0  0  0  0  0  0  0  0  0  0  0
    0.1907    0.4825   -0.2638 C   0  0  0  0  0  0  0  0  0  0  0  0
    1.3788   -0.3325   -0.5581 C   0  0  0  0  0  0  0  0  0  0  0  0
    1.8365   -1.4758    0.2597 C   0  0  0  0  0  0  0  0  0  0  0  0
    2.0442   -0.0595   -1.5408 O   0  0  0  0  0  0  0  0  0  0  0  0
   -1.1088   -0.3056   -0.3132 C   0  0  0  0  0  0  0  0  0  0  0  0
   -1.2185   -1.3121    0.7966 C   0  0  0  0  0  0  0  0  0  0  0  0
   -1.3638   -0.8595   -1.5448 O   0  0  0  0  0  0  0  0  0  0  0  0
   -0.0879    3.5793   -1.2937 H   0  0  0  0  0  0  0  0  0  0  0  0
    0.9465    2.8841    0.0694 H   0  0  0  0  0  0  0  0  0  0  0  0
   -0.8231    2.8179    0.1638 H   0  0  0  0  0  0  0  0  0  0  0  0
    0.2571    0.9616    0.7105 H   0  0  0  0  0  0  0  0  0  0  0  0
    1.1904   -2.3645    0.2065 H   0  0  0  0  0  0  0  0  0  0  0  0
    2.8457   -1.8191   -0.0959 H   0  0  0  0  0  0  0  0  0  0  0  0
    1.9569   -1.0845    1.3077 H   0  0  0  0  0  0  0  0  0  0  0  0
   -1.9589    0.4239   -0.1356 H   0  0  0  0  0  0  0  0  0  0  0  0
   -1.1933   -2.3391    0.3247 H   0  0  0  0  0  0  0  0  0  0  0  0
   -0.4154   -1.1806    1.5342 H   0  0  0  0  0  0  0  0  0  0  0  0
   -2.2248   -1.2825    1.2978 H   0  0  0  0  0  0  0  0  0  0  0  0
   -2.3209   -1.0020   -1.6599 H   0  0  0  0  0  0  0  0  0  0  0  0
  1  2  1  0
  2  3  1  0
  3  4  1  0
  4  5  1  0
  4  6  2  0
  3  7  1  0
  7  8  1  0
  7  9  1  0
  1 10  1  0
  1 11  1  0
  1 12  1  0
  3 13  1  0
  5 14  1  0
  5 15  1  0
  5 16  1  0
  7 17  1  0
  8 18  1  0
  8 19  1  0
  8 20  1  0
  9 21  1  0
M  END
