
     RDKit          3D

 19 19  0  0  0  0  0  0  0  0999 V2000
    3.0923    0.5654   -0.1263 C   0  0  0  0  0  0  0  0  0  0  0  0
    1.6896    0.5914   -0.2973 O   0  0  0  0  0  0  0  0  0  0  0  0
    0.8350   -0.3227    0.2709 C   0  0  0  0  0  0  0  0  0  0  0  0
    1.3337   -1.2291    0.9805 O   0  0  0  0  0  0  0  0  0  0  0  0
   -0.6158   -0.1856    0.0142 C   0  0  0  0  0  0  0  0  0  0  0  0
   -0.9958    0.9737   -0.8654 C   0  0  0  0  0  0  0  0  0  0  0  0
   -2.3532    1.0714   -1.0834 O   0  0  0  0  0  0  0  0  0  0  0  0
   -1.2894   -1.5243   -0.2201 C   0  0  0  0  0  0  0  0  0  0  0  0
   -1.6034   -0.7017    0.9973 C   0  0  0  0  0  0  0  0  0  0  0  0
    3.4460   -0.3152    0.4089 H   0  0  0  0  0  0  0  0  0  0  0  0
    3.5228    0.5109   -1.1678 H   0  0  0  0  0  0  0  0  0  0  0  0
    3.4855    1.4742    0.3372 H   0  0  0  0  0  0  0  0  0  0  0  0
   -0.4950    0.9247   -1.8607 H   0  0  0  0  0  0  0  0  0  0  0  0
   -0.6293    1.8978   -0.3549 H   0  0  0  0  0  0  0  0  0  0  0  0
   -2.8385    1.5297   -0.3545 H   0  0  0  0  0  0  0  0  0  0  0  0
   -2.0469   -1.6056   -1.0237 H   0  0  0  0  0  0  0  0  0  0  0  0
   -0.7292   -2.4619   -0.0573 H   0  0  0  0  0  0  0  0  0  0  0  0
   -1.2059   -0.9984    1.9831 H   0  0  0  0  0  0  0  0  0  0  0  0
   -2.6027   -0.1947    0.9491 H   0  0  0  0  0  0  0  0  0  0  0  0
  1  2  1  0
  2  3  1  0
  3  4  2  0
  3  5  1  0
  5  6  1  0
  6  7  1  0
  5  8  1  0
  8  9  1  0
  9  5  1  0
  1 10  1  0
  1 11  1  0
  1 12  1  0
  6 13  1  0
  6 14  1  0
  7 15  1  0
  8 16  1  0
  8 17  1  0
  9 18  1  0
  9 19  1  0
M  END
