
     RDKit          3D

 13 12  0  0  0  0  0  0  0  0999 V2000
    1.7293   -0.7448    0.2134 C   0  0  0  0  0  0  0  0  0  0  0  0
    0.4297   -0.5987    0.6643 O   0  0  0  0  0  0  0  0  0  0  0  0
   -0.3297    0.2849   -0.0341 C   0  0  0  0  0  0  0  0  0  0  0  0
   -0.9662    1.3426    0.7489 C   0  0  0  0  0  0  0  0  0  0  0  0
   -1.6669    2.1905    0.2455 O   0  0  0  0  0  0  0  0  0  0  0  0
   -1.3796   -0.4897   -0.7704 C   0  0  0  0  0  0  0  0  0  0  0  0
   -1.4529   -1.6819   -0.6912 O   0  0  0  0  0  0  0  0  0  0  0  0
    2.2987    0.1825    0.2423 H   0  0  0  0  0  0  0  0  0  0  0  0
    1.6445   -1.0370   -0.8752 H   0  0  0  0  0  0  0  0  0  0  0  0
    2.2829   -1.5494    0.6955 H   0  0  0  0  0  0  0  0  0  0  0  0
    0.3286    0.7021   -0.8543 H   0  0  0  0  0  0  0  0  0  0  0  0
   -0.8148    1.3808    1.8134 H   0  0  0  0  0  0  0  0  0  0  0  0
   -2.1036    0.0182   -1.3978 H   0  0  0  0  0  0  0  0  0  0  0  0
  1  2  1  0
  2  3  1  0
  3  4  1  0
  4  5  2  0
  3  6  1  0
  6  7  2  0
  1  8  1  0
  1  9  1  0
  1 10  1  0
  3 11  1  0
  4 12  1  0
  6 13  1  0
M  END
