
     RDKit          3D

 17 16  0  0  0  0  0  0  0  0999 V2000
    2.1964    0.5205    0.1659 C   0  0  0  0  0  0  0  0  0  0  0  0
    1.0946   -0.0311   -0.4770 O   0  0  0  0  0  0  0  0  0  0  0  0
   -0.0400   -0.0612    0.3060 C   0  0  0  0  0  0  0  0  0  0  0  0
   -1.1250    0.6994   -0.4450 C   0  0  0  0  0  0  0  0  0  0  0  0
   -0.6955    2.0024   -0.6467 O   0  0  0  0  0  0  0  0  0  0  0  0
   -0.5394   -1.5017    0.4209 C   0  0  0  0  0  0  0  0  0  0  0  0
   -0.8415   -2.0085   -0.8377 O   0  0  0  0  0  0  0  0  0  0  0  0
    2.3919   -0.1059    1.0574 H   0  0  0  0  0  0  0  0  0  0  0  0
    2.0528    1.5870    0.4366 H   0  0  0  0  0  0  0  0  0  0  0  0
    3.0664    0.3737   -0.5184 H   0  0  0  0  0  0  0  0  0  0  0  0
    0.1129    0.3570    1.3131 H   0  0  0  0  0  0  0  0  0  0  0  0
   -1.1888    0.2344   -1.4676 H   0  0  0  0  0  0  0  0  0  0  0  0
   -2.1015    0.6060    0.0199 H   0  0  0  0  0  0  0  0  0  0  0  0
   -1.3266    2.6572   -0.2461 H   0  0  0  0  0  0  0  0  0  0  0  0
   -1.4837   -1.5275    1.0071 H   0  0  0  0  0  0  0  0  0  0  0  0
    0.1886   -2.1196    0.9785 H   0  0  0  0  0  0  0  0  0  0  0  0
   -1.7615   -1.6822   -1.0669 H   0  0  0  0  0  0  0  0  0  0  0  0
  1  2  1  0
  2  3  1  0
  3  4  1  0
  4  5  1  0
  3  6  1  0
  6  7  1  0
  1  8  1  0
  1  9  1  0
  1 10  1  0
  3 11  1  0
  4 12  1  0
  4 13  1  0
  5 14  1  0
  6 15  1  0
  6 16  1  0
  7 17  1  0
M  END
