
     RDKit          3D

 25 24  0  0  0  0  0  0  0  0999 V2000
    0.1238    2.5570   -0.8597 C   0  0  0  0  0  0  0  0  0  0  0  0
    0.3250    1.7434    0.2210 O   0  0  0  0  0  0  0  0  0  0  0  0
    0.2620    0.3673   -0.0567 C   0  0  0  0  0  0  0  0  0  0  0  0
    1.6161   -0.1608    0.0796 C   0  0  0  0  0  0  0  0  0  0  0  0
    1.9358   -1.5738   -0.1385 C   0  0  0  0  0  0  0  0  0  0  0  0
    1.6390   -2.0464   -1.4246 O   0  0  0  0  0  0  0  0  0  0  0  0
   -0.9051   -0.1755    0.6070 C   0  0  0  0  0  0  0  0  0  0  0  0
   -1.2948   -1.5814    0.5431 C   0  0  0  0  0  0  0  0  0  0  0  0
   -2.1885    0.5671    0.1583 C   0  0  0  0  0  0  0  0  0  0  0  0
    0.1817    3.6184   -0.5946 H   0  0  0  0  0  0  0  0  0  0  0  0
    0.9430    2.3712   -1.5900 H   0  0  0  0  0  0  0  0  0  0  0  0
   -0.8153    2.3362   -1.3943 H   0  0  0  0  0  0  0  0  0  0  0  0
    0.0458    0.3620   -1.1556 H   0  0  0  0  0  0  0  0  0  0  0  0
    2.3456    0.4090   -0.5459 H   0  0  0  0  0  0  0  0  0  0  0  0
    1.9883    0.0765    1.1280 H   0  0  0  0  0  0  0  0  0  0  0  0
    3.0628   -1.6546   -0.1351 H   0  0  0  0  0  0  0  0  0  0  0  0
    1.6415   -2.2796    0.6549 H   0  0  0  0  0  0  0  0  0  0  0  0
    1.9849   -1.3322   -2.0439 H   0  0  0  0  0  0  0  0  0  0  0  0
   -0.8759    0.0955    1.7069 H   0  0  0  0  0  0  0  0  0  0  0  0
   -0.7011   -2.3045    1.1163 H   0  0  0  0  0  0  0  0  0  0  0  0
   -1.5056   -1.9262   -0.5072 H   0  0  0  0  0  0  0  0  0  0  0  0
   -2.3168   -1.6705    1.0140 H   0  0  0  0  0  0  0  0  0  0  0  0
   -3.0717    0.1116    0.6645 H   0  0  0  0  0  0  0  0  0  0  0  0
   -2.2555    0.4747   -0.9419 H   0  0  0  0  0  0  0  0  0  0  0  0
   -2.1651    1.6158    0.4508 H   0  0  0  0  0  0  0  0  0  0  0  0
  1  2  1  0
  2  3  1  0
  3  4  1  0
  4  5  1  0
  5  6  1  0
  3  7  1  0
  7  8  1  0
  7  9  1  0
  1 10  1  0
  1 11  1  0
  1 12  1  0
  3 13  1  0
  4 14  1  0
  4 15  1  0
  5 16  1  0
  5 17  1  0
  6 18  1  0
  7 19  1  0
  8 20  1  0
  8 21  1  0
  8 22  1  0
  9 23  1  0
  9 24  1  0
  9 25  1  0
M  END
