
     RDKit          3D

 21 20  0  0  0  0  0  0  0  0999 V2000
   -1.1519    2.1908    0.0326 C   0  0  0  0  0  0  0  0  0  0  0  0
   -1.0666    1.0573    0.7598 O   0  0  0  0  0  0  0  0  0  0  0  0
   -0.2611    0.0457    0.3647 C   0  0  0  0  0  0  0  0  0  0  0  0
   -0.4385   -1.0542    1.4330 C   0  0  0  0  0  0  0  0  0  0  0  0
   -0.8214   -0.5486   -0.9048 C   0  0  0  0  0  0  0  0  0  0  0  0
   -0.0375   -1.6113   -1.3668 O   0  0  0  0  0  0  0  0  0  0  0  0
    1.1751    0.3648    0.2422 C   0  0  0  0  0  0  0  0  0  0  0  0
    2.1993   -0.6051   -0.1846 C   0  0  0  0  0  0  0  0  0  0  0  0
    1.5487    1.4914    0.5063 O   0  0  0  0  0  0  0  0  0  0  0  0
   -1.5087    2.0301   -0.9956 H   0  0  0  0  0  0  0  0  0  0  0  0
   -0.2717    2.8599    0.0875 H   0  0  0  0  0  0  0  0  0  0  0  0
   -1.9783    2.8126    0.5007 H   0  0  0  0  0  0  0  0  0  0  0  0
   -1.5282   -1.2916    1.4221 H   0  0  0  0  0  0  0  0  0  0  0  0
   -0.2055   -0.6619    2.4228 H   0  0  0  0  0  0  0  0  0  0  0  0
    0.0983   -1.9619    1.1655 H   0  0  0  0  0  0  0  0  0  0  0  0
   -1.8657   -0.8218   -0.7222 H   0  0  0  0  0  0  0  0  0  0  0  0
   -0.8175    0.2646   -1.6773 H   0  0  0  0  0  0  0  0  0  0  0  0
   -0.5767   -2.0262   -2.1052 H   0  0  0  0  0  0  0  0  0  0  0  0
    2.4539   -0.4747   -1.2728 H   0  0  0  0  0  0  0  0  0  0  0  0
    1.9132   -1.6549   -0.0681 H   0  0  0  0  0  0  0  0  0  0  0  0
    3.1410   -0.4049    0.3602 H   0  0  0  0  0  0  0  0  0  0  0  0
  1  2  1  0
  2  3  1  0
  3  4  1  0
  3  5  1  0
  5  6  1  0
  3  7  1  0
  7  8  1  0
  7  9  2  0
  1 10  1  0
  1 11  1  0
  1 12  1  0
  4 13  1  0
  4 14  1  0
  4 15  1  0
  5 16  1  0
  5 17  1  0
  6 18  1  0
  8 19  1  0
  8 20  1  0
  8 21  1  0
M  END
