
     RDKit          3D

 17 16  0  0  0  0  0  0  0  0999 V2000
    2.6859   -0.5407    0.6709 C   0  0  0  0  0  0  0  0  0  0  0  0
    1.4662    0.0528    0.3451 O   0  0  0  0  0  0  0  0  0  0  0  0
    0.4568   -0.7244   -0.1979 C   0  0  0  0  0  0  0  0  0  0  0  0
    0.6868   -1.9415   -0.3746 O   0  0  0  0  0  0  0  0  0  0  0  0
   -0.8393   -0.0847   -0.5422 C   0  0  0  0  0  0  0  0  0  0  0  0
   -1.2165   -0.3089   -1.9865 C   0  0  0  0  0  0  0  0  0  0  0  0
   -0.8031    1.2920   -0.2323 O   0  0  0  0  0  0  0  0  0  0  0  0
   -1.6761    1.8834    0.6670 C   0  0  0  0  0  0  0  0  0  0  0  0
   -2.5266    1.1144    1.2099 O   0  0  0  0  0  0  0  0  0  0  0  0
    3.3878    0.2766    0.9853 H   0  0  0  0  0  0  0  0  0  0  0  0
    3.1404   -1.1200   -0.1529 H   0  0  0  0  0  0  0  0  0  0  0  0
    2.5496   -1.1720    1.5906 H   0  0  0  0  0  0  0  0  0  0  0  0
   -1.6742   -0.5281    0.0679 H   0  0  0  0  0  0  0  0  0  0  0  0
   -0.8907   -1.3014   -2.3507 H   0  0  0  0  0  0  0  0  0  0  0  0
   -2.3291   -0.2922   -2.1221 H   0  0  0  0  0  0  0  0  0  0  0  0
   -0.7585    0.4525   -2.6536 H   0  0  0  0  0  0  0  0  0  0  0  0
   -1.6593    2.9420    0.9149 H   0  0  0  0  0  0  0  0  0  0  0  0
  1  2  1  0
  2  3  1  0
  3  4  2  0
  3  5  1  0
  5  6  1  0
  5  7  1  0
  7  8  1  0
  8  9  2  0
  1 10  1  0
  1 11  1  0
  1 12  1  0
  5 13  1  0
  6 14  1  0
  6 15  1  0
  6 16  1  0
  8 17  1  0
M  END
