
     RDKit          3D

 25 24  0  0  0  0  0  0  0  0999 V2000
   -0.2496    2.6280    0.2455 C   0  0  0  0  0  0  0  0  0  0  0  0
   -0.1013    1.4621    0.9942 O   0  0  0  0  0  0  0  0  0  0  0  0
   -0.1818    0.3199    0.1490 C   0  0  0  0  0  0  0  0  0  0  0  0
    1.1157   -0.4286    0.2894 C   0  0  0  0  0  0  0  0  0  0  0  0
    2.2358    0.5557   -0.1298 C   0  0  0  0  0  0  0  0  0  0  0  0
    1.2754   -1.5934   -0.6410 C   0  0  0  0  0  0  0  0  0  0  0  0
   -1.4065   -0.4773    0.5444 C   0  0  0  0  0  0  0  0  0  0  0  0
   -1.7138   -1.6445   -0.3232 C   0  0  0  0  0  0  0  0  0  0  0  0
   -2.4767    0.4594    0.3909 O   0  0  0  0  0  0  0  0  0  0  0  0
   -0.1951    3.5292    0.8499 H   0  0  0  0  0  0  0  0  0  0  0  0
   -1.2322    2.5936   -0.2661 H   0  0  0  0  0  0  0  0  0  0  0  0
    0.5241    2.7110   -0.5504 H   0  0  0  0  0  0  0  0  0  0  0  0
   -0.3406    0.7011   -0.8675 H   0  0  0  0  0  0  0  0  0  0  0  0
    1.2402   -0.7601    1.3280 H   0  0  0  0  0  0  0  0  0  0  0  0
    1.9992    0.9100   -1.1427 H   0  0  0  0  0  0  0  0  0  0  0  0
    2.2563    1.3558    0.6333 H   0  0  0  0  0  0  0  0  0  0  0  0
    3.2025    0.0458   -0.1675 H   0  0  0  0  0  0  0  0  0  0  0  0
    2.3758   -1.8963   -0.6851 H   0  0  0  0  0  0  0  0  0  0  0  0
    0.7658   -2.5125   -0.3121 H   0  0  0  0  0  0  0  0  0  0  0  0
    1.0572   -1.3343   -1.6995 H   0  0  0  0  0  0  0  0  0  0  0  0
   -1.2963   -0.7319    1.6164 H   0  0  0  0  0  0  0  0  0  0  0  0
   -1.5241   -2.6292    0.1970 H   0  0  0  0  0  0  0  0  0  0  0  0
   -1.2285   -1.6691   -1.3073 H   0  0  0  0  0  0  0  0  0  0  0  0
   -2.8235   -1.6684   -0.5549 H   0  0  0  0  0  0  0  0  0  0  0  0
   -3.2779    0.0739    0.8119 H   0  0  0  0  0  0  0  0  0  0  0  0
  1  2  1  0
  2  3  1  0
  3  4  1  0
  4  5  1  0
  4  6  1  0
  3  7  1  0
  7  8  1  0
  7  9  1  0
  1 10  1  0
  1 11  1  0
  1 12  1  0
  3 13  1  0
  4 14  1  0
  5 15  1  0
  5 16  1  0
  5 17  1  0
  6 18  1  0
  6 19  1  0
  6 20  1  0
  7 21  1  0
  8 22  1  0
  8 23  1  0
  8 24  1  0
  9 25  1  0
M  END
