
     RDKit          3D

 18 17  0  0  0  0  0  0  0  0999 V2000
   -1.6522    1.6438   -0.7369 C   0  0  0  0  0  0  0  0  0  0  0  0
   -0.8442    0.5657   -1.0643 O   0  0  0  0  0  0  0  0  0  0  0  0
   -0.1296    0.0574   -0.0172 C   0  0  0  0  0  0  0  0  0  0  0  0
   -0.2904   -1.4582    0.1262 C   0  0  0  0  0  0  0  0  0  0  0  0
   -1.6151   -1.7999    0.3363 O   0  0  0  0  0  0  0  0  0  0  0  0
    1.3564    0.2692   -0.3490 C   0  0  0  0  0  0  0  0  0  0  0  0
    2.2294   -0.2371    0.7040 C   0  0  0  0  0  0  0  0  0  0  0  0
    2.3713    0.3894    1.7291 O   0  0  0  0  0  0  0  0  0  0  0  0
   -2.1964    1.9965   -1.6371 H   0  0  0  0  0  0  0  0  0  0  0  0
   -2.3428    1.4469    0.0860 H   0  0  0  0  0  0  0  0  0  0  0  0
   -0.9653    2.4842   -0.4565 H   0  0  0  0  0  0  0  0  0  0  0  0
   -0.2821    0.5637    0.9528 H   0  0  0  0  0  0  0  0  0  0  0  0
    0.0638   -1.9800   -0.7865 H   0  0  0  0  0  0  0  0  0  0  0  0
    0.3047   -1.7647    1.0144 H   0  0  0  0  0  0  0  0  0  0  0  0
   -1.7532   -2.1913    1.2487 H   0  0  0  0  0  0  0  0  0  0  0  0
    1.4750    1.3841   -0.4084 H   0  0  0  0  0  0  0  0  0  0  0  0
    1.5086   -0.2024   -1.3397 H   0  0  0  0  0  0  0  0  0  0  0  0
    2.7622   -1.1672    0.5981 H   0  0  0  0  0  0  0  0  0  0  0  0
  1  2  1  0
  2  3  1  0
  3  4  1  0
  4  5  1  0
  3  6  1  0
  6  7  1  0
  7  8  2  0
  1  9  1  0
  1 10  1  0
  1 11  1  0
  3 12  1  0
  4 13  1  0
  4 14  1  0
  5 15  1  0
  6 16  1  0
  6 17  1  0
  7 18  1  0
M  END
