
     RDKit          3D

 27 26  0  0  0  0  0  0  0  0999 V2000
   -0.2583    2.2614    0.8982 C   0  0  0  0  0  0  0  0  0  0  0  0
   -0.1694    0.8593    0.9908 O   0  0  0  0  0  0  0  0  0  0  0  0
   -0.0004    0.2701   -0.2351 C   0  0  0  0  0  0  0  0  0  0  0  0
   -1.1457   -0.6139   -0.6487 C   0  0  0  0  0  0  0  0  0  0  0  0
   -1.4203   -1.7507    0.2658 C   0  0  0  0  0  0  0  0  0  0  0  0
   -2.3739    0.2527   -0.8410 C   0  0  0  0  0  0  0  0  0  0  0  0
    1.3485   -0.4089   -0.3807 C   0  0  0  0  0  0  0  0  0  0  0  0
    1.5847   -1.4916    0.6168 C   0  0  0  0  0  0  0  0  0  0  0  0
    2.4060    0.6709   -0.1465 C   0  0  0  0  0  0  0  0  0  0  0  0
    0.6297    2.7180    0.4626 H   0  0  0  0  0  0  0  0  0  0  0  0
   -0.4709    2.7200    1.8711 H   0  0  0  0  0  0  0  0  0  0  0  0
   -1.1080    2.4900    0.2051 H   0  0  0  0  0  0  0  0  0  0  0  0
    0.0203    1.1047   -0.9987 H   0  0  0  0  0  0  0  0  0  0  0  0
   -0.8844   -1.0021   -1.6748 H   0  0  0  0  0  0  0  0  0  0  0  0
   -1.1727   -2.7252   -0.2499 H   0  0  0  0  0  0  0  0  0  0  0  0
   -0.9763   -1.6873    1.2593 H   0  0  0  0  0  0  0  0  0  0  0  0
   -2.5355   -1.8265    0.4341 H   0  0  0  0  0  0  0  0  0  0  0  0
   -3.1931   -0.3217   -1.3594 H   0  0  0  0  0  0  0  0  0  0  0  0
   -2.7640    0.6388    0.1232 H   0  0  0  0  0  0  0  0  0  0  0  0
   -2.0755    1.0926   -1.4895 H   0  0  0  0  0  0  0  0  0  0  0  0
    1.3932   -0.7741   -1.4351 H   0  0  0  0  0  0  0  0  0  0  0  0
    2.6983   -1.6822    0.6278 H   0  0  0  0  0  0  0  0  0  0  0  0
    1.3169   -1.0862    1.6226 H   0  0  0  0  0  0  0  0  0  0  0  0
    1.1236   -2.4540    0.3877 H   0  0  0  0  0  0  0  0  0  0  0  0
    3.4250    0.2681   -0.3593 H   0  0  0  0  0  0  0  0  0  0  0  0
    2.2439    1.5122   -0.8560 H   0  0  0  0  0  0  0  0  0  0  0  0
    2.3583    0.9653    0.9098 H   0  0  0  0  0  0  0  0  0  0  0  0
  1  2  1  0
  2  3  1  0
  3  4  1  0
  4  5  1  0
  4  6  1  0
  3  7  1  0
  7  8  1  0
  7  9  1  0
  1 10  1  0
  1 11  1  0
  1 12  1  0
  3 13  1  0
  4 14  1  0
  5 15  1  0
  5 16  1  0
  5 17  1  0
  6 18  1  0
  6 19  1  0
  6 20  1  0
  7 21  1  0
  8 22  1  0
  8 23  1  0
  8 24  1  0
  9 25  1  0
  9 26  1  0
  9 27  1  0
M  END
