
     RDKit          3D

 21 21  0  0  0  0  0  0  0  0999 V2000
   -0.6329    2.5836   -0.3329 C   0  0  0  0  0  0  0  0  0  0  0  0
   -0.1063    1.3456   -0.7565 O   0  0  0  0  0  0  0  0  0  0  0  0
   -0.3859    0.3449    0.1478 C   0  0  0  0  0  0  0  0  0  0  0  0
   -1.2469   -0.7096   -0.4684 C   0  0  0  0  0  0  0  0  0  0  0  0
   -1.6964   -1.9052    0.2923 C   0  0  0  0  0  0  0  0  0  0  0  0
   -1.5847   -0.5746   -1.6312 O   0  0  0  0  0  0  0  0  0  0  0  0
    0.8719   -0.3484    0.6271 C   0  0  0  0  0  0  0  0  0  0  0  0
    1.6601   -0.9960   -0.4893 C   0  0  0  0  0  0  0  0  0  0  0  0
    2.2101    0.1830    0.3086 C   0  0  0  0  0  0  0  0  0  0  0  0
   -1.7285    2.5335   -0.2200 H   0  0  0  0  0  0  0  0  0  0  0  0
   -0.3020    3.3636   -1.0434 H   0  0  0  0  0  0  0  0  0  0  0  0
   -0.2376    2.8014    0.7012 H   0  0  0  0  0  0  0  0  0  0  0  0
   -0.9686    0.7406    1.0156 H   0  0  0  0  0  0  0  0  0  0  0  0
   -2.7825   -1.8251    0.4966 H   0  0  0  0  0  0  0  0  0  0  0  0
   -1.1043   -2.0618    1.2107 H   0  0  0  0  0  0  0  0  0  0  0  0
   -1.5736   -2.8509   -0.3129 H   0  0  0  0  0  0  0  0  0  0  0  0
    0.7299   -0.9424    1.5483 H   0  0  0  0  0  0  0  0  0  0  0  0
    1.4094   -0.7514   -1.5392 H   0  0  0  0  0  0  0  0  0  0  0  0
    2.0752   -1.9969   -0.3289 H   0  0  0  0  0  0  0  0  0  0  0  0
    3.0323   -0.0734    1.0048 H   0  0  0  0  0  0  0  0  0  0  0  0
    2.3614    1.1393   -0.2303 H   0  0  0  0  0  0  0  0  0  0  0  0
  1  2  1  0
  2  3  1  0
  3  4  1  0
  4  5  1  0
  4  6  2  0
  3  7  1  0
  7  8  1  0
  8  9  1  0
  9  7  1  0
  1 10  1  0
  1 11  1  0
  1 12  1  0
  3 13  1  0
  5 14  1  0
  5 15  1  0
  5 16  1  0
  7 17  1  0
  8 18  1  0
  8 19  1  0
  9 20  1  0
  9 21  1  0
M  END
