
     RDKit          3D

 19 19  0  0  0  0  0  0  0  0999 V2000
    3.2990    0.4914    0.4414 C   0  0  0  0  0  0  0  0  0  0  0  0
    2.1541   -0.3252    0.6430 O   0  0  0  0  0  0  0  0  0  0  0  0
    0.9351   -0.0408    0.0417 C   0  0  0  0  0  0  0  0  0  0  0  0
    0.8764    0.9756   -0.6963 O   0  0  0  0  0  0  0  0  0  0  0  0
   -0.2909   -0.8495    0.2111 C   0  0  0  0  0  0  0  0  0  0  0  0
   -1.1048   -1.0491   -1.0561 C   0  0  0  0  0  0  0  0  0  0  0  0
   -1.6374   -0.2682    0.1175 C   0  0  0  0  0  0  0  0  0  0  0  0
   -1.8750    1.1871   -0.1253 C   0  0  0  0  0  0  0  0  0  0  0  0
   -2.6495   -0.9568    0.8133 O   0  0  0  0  0  0  0  0  0  0  0  0
    4.2361   -0.0899    0.5819 H   0  0  0  0  0  0  0  0  0  0  0  0
    3.3230    0.9242   -0.5885 H   0  0  0  0  0  0  0  0  0  0  0  0
    3.2727    1.3186    1.1634 H   0  0  0  0  0  0  0  0  0  0  0  0
   -0.1357   -1.7302    0.8849 H   0  0  0  0  0  0  0  0  0  0  0  0
   -1.4210   -2.1004   -1.2137 H   0  0  0  0  0  0  0  0  0  0  0  0
   -0.7999   -0.4885   -1.9659 H   0  0  0  0  0  0  0  0  0  0  0  0
   -2.8918    1.4742    0.2647 H   0  0  0  0  0  0  0  0  0  0  0  0
   -1.8520    1.4740   -1.1896 H   0  0  0  0  0  0  0  0  0  0  0  0
   -1.1400    1.8217    0.4151 H   0  0  0  0  0  0  0  0  0  0  0  0
   -2.2984   -1.7682    1.2577 H   0  0  0  0  0  0  0  0  0  0  0  0
  1  2  1  0
  2  3  1  0
  3  4  2  0
  3  5  1  0
  5  6  1  0
  6  7  1  0
  7  8  1  0
  7  9  1  0
  7  5  1  0
  1 10  1  0
  1 11  1  0
  1 12  1  0
  5 13  1  0
  6 14  1  0
  6 15  1  0
  8 16  1  0
  8 17  1  0
  8 18  1  0
  9 19  1  0
M  END
