
     RDKit          3D

 21 20  0  0  0  0  0  0  0  0999 V2000
    4.2149    0.1062   -0.0367 C   0  0  0  0  0  0  0  0  0  0  0  0
    2.9238    0.6071    0.2928 O   0  0  0  0  0  0  0  0  0  0  0  0
    1.7723   -0.0874    0.0355 C   0  0  0  0  0  0  0  0  0  0  0  0
    1.8734   -1.2155   -0.5162 O   0  0  0  0  0  0  0  0  0  0  0  0
    0.4165    0.4232    0.3740 C   0  0  0  0  0  0  0  0  0  0  0  0
   -0.5789   -0.4560    0.0169 O   0  0  0  0  0  0  0  0  0  0  0  0
   -1.7995    0.1147    0.3753 C   0  0  0  0  0  0  0  0  0  0  0  0
   -2.6441    0.3324   -0.8589 C   0  0  0  0  0  0  0  0  0  0  0  0
   -2.4620   -0.8628    1.3371 C   0  0  0  0  0  0  0  0  0  0  0  0
    4.1868   -0.4916   -0.9764 H   0  0  0  0  0  0  0  0  0  0  0  0
    4.8777    0.9976   -0.1451 H   0  0  0  0  0  0  0  0  0  0  0  0
    4.6436   -0.4885    0.8115 H   0  0  0  0  0  0  0  0  0  0  0  0
    0.3910    0.5606    1.4796 H   0  0  0  0  0  0  0  0  0  0  0  0
    0.2062    1.4014   -0.0750 H   0  0  0  0  0  0  0  0  0  0  0  0
   -1.6668    1.1170    0.8505 H   0  0  0  0  0  0  0  0  0  0  0  0
   -3.2970    1.2304   -0.7219 H   0  0  0  0  0  0  0  0  0  0  0  0
   -1.9426    0.5867   -1.6816 H   0  0  0  0  0  0  0  0  0  0  0  0
   -3.2349   -0.5670   -1.1355 H   0  0  0  0  0  0  0  0  0  0  0  0
   -2.7301   -0.3093    2.2703 H   0  0  0  0  0  0  0  0  0  0  0  0
   -3.3635   -1.3201    0.8996 H   0  0  0  0  0  0  0  0  0  0  0  0
   -1.7869   -1.6789    1.6408 H   0  0  0  0  0  0  0  0  0  0  0  0
  1  2  1  0
  2  3  1  0
  3  4  2  0
  3  5  1  0
  5  6  1  0
  6  7  1  0
  7  8  1  0
  7  9  1  0
  1 10  1  0
  1 11  1  0
  1 12  1  0
  5 13  1  0
  5 14  1  0
  7 15  1  0
  8 16  1  0
  8 17  1  0
  8 18  1  0
  9 19  1  0
  9 20  1  0
  9 21  1  0
M  END
