
     RDKit          3D

 23 23  0  0  0  0  0  0  0  0999 V2000
    1.5484   -1.5719   -0.5429 C   0  0  0  0  0  0  0  0  0  0  0  0
    1.4567   -0.2271   -0.8707 O   0  0  0  0  0  0  0  0  0  0  0  0
    0.4897    0.4436   -0.1418 C   0  0  0  0  0  0  0  0  0  0  0  0
    0.5219    1.8987   -0.6239 C   0  0  0  0  0  0  0  0  0  0  0  0
    0.8096    0.5099    1.3368 C   0  0  0  0  0  0  0  0  0  0  0  0
   -0.9057   -0.0658   -0.3945 C   0  0  0  0  0  0  0  0  0  0  0  0
   -1.3192    0.0391   -1.7225 O   0  0  0  0  0  0  0  0  0  0  0  0
   -1.9365    0.2259    0.6396 C   0  0  0  0  0  0  0  0  0  0  0  0
   -1.4590   -1.2110    0.3540 C   0  0  0  0  0  0  0  0  0  0  0  0
    1.8004   -1.7534    0.5057 H   0  0  0  0  0  0  0  0  0  0  0  0
    0.6272   -2.1224   -0.8595 H   0  0  0  0  0  0  0  0  0  0  0  0
    2.3664   -1.9920   -1.1816 H   0  0  0  0  0  0  0  0  0  0  0  0
    1.5444    2.2967   -0.6381 H   0  0  0  0  0  0  0  0  0  0  0  0
   -0.1109    2.4960    0.0565 H   0  0  0  0  0  0  0  0  0  0  0  0
    0.1045    1.9756   -1.6394 H   0  0  0  0  0  0  0  0  0  0  0  0
    1.8843    0.8476    1.3979 H   0  0  0  0  0  0  0  0  0  0  0  0
    0.2251    1.3457    1.7711 H   0  0  0  0  0  0  0  0  0  0  0  0
    0.6897   -0.4424    1.8534 H   0  0  0  0  0  0  0  0  0  0  0  0
   -0.5563   -0.2841   -2.2833 H   0  0  0  0  0  0  0  0  0  0  0  0
   -2.9491    0.4948    0.2929 H   0  0  0  0  0  0  0  0  0  0  0  0
   -1.6826    0.6358    1.6245 H   0  0  0  0  0  0  0  0  0  0  0  0
   -0.9270   -1.6924    1.1863 H   0  0  0  0  0  0  0  0  0  0  0  0
   -2.2219   -1.8469   -0.1206 H   0  0  0  0  0  0  0  0  0  0  0  0
  1  2  1  0
  2  3  1  0
  3  4  1  0
  3  5  1  0
  3  6  1  0
  6  7  1  0
  6  8  1  0
  8  9  1  0
  9  6  1  0
  1 10  1  0
  1 11  1  0
  1 12  1  0
  4 13  1  0
  4 14  1  0
  4 15  1  0
  5 16  1  0
  5 17  1  0
  5 18  1  0
  7 19  1  0
  8 20  1  0
  8 21  1  0
  9 22  1  0
  9 23  1  0
M  END
