
     RDKit          3D

 15 14  0  0  0  0  0  0  0  0999 V2000
   -2.2530    0.4028    0.1996 C   0  0  0  0  0  0  0  0  0  0  0  0
   -1.2637   -0.2667   -0.5066 O   0  0  0  0  0  0  0  0  0  0  0  0
   -0.0257   -0.2200    0.0859 C   0  0  0  0  0  0  0  0  0  0  0  0
    0.4192   -1.6049    0.3574 C   0  0  0  0  0  0  0  0  0  0  0  0
    1.5054   -1.8501    0.8946 O   0  0  0  0  0  0  0  0  0  0  0  0
    0.9171    0.5168   -0.8241 C   0  0  0  0  0  0  0  0  0  0  0  0
    0.4900    0.9486   -1.9431 O   0  0  0  0  0  0  0  0  0  0  0  0
    2.2915    0.7637   -0.4952 C   0  0  0  0  0  0  0  0  0  0  0  0
    2.8240    0.3902    0.5824 O   0  0  0  0  0  0  0  0  0  0  0  0
   -3.1957    0.2926   -0.3764 H   0  0  0  0  0  0  0  0  0  0  0  0
   -1.9761    1.4757    0.2857 H   0  0  0  0  0  0  0  0  0  0  0  0
   -2.4392   -0.0632    1.1905 H   0  0  0  0  0  0  0  0  0  0  0  0
   -0.0130    0.3477    1.0386 H   0  0  0  0  0  0  0  0  0  0  0  0
   -0.2191   -2.4229    0.0803 H   0  0  0  0  0  0  0  0  0  0  0  0
    2.9383    1.2896   -1.1703 H   0  0  0  0  0  0  0  0  0  0  0  0
  1  2  1  0
  2  3  1  0
  3  4  1  0
  4  5  2  0
  3  6  1  0
  6  7  2  0
  6  8  1  0
  8  9  2  0
  1 10  1  0
  1 11  1  0
  1 12  1  0
  3 13  1  0
  4 14  1  0
  8 15  1  0
M  END
