
     RDKit          3D

 21 21  0  0  0  0  0  0  0  0999 V2000
    2.2414   -0.5233   -0.4075 C   0  0  0  0  0  0  0  0  0  0  0  0
    1.3001    0.4602   -0.3760 O   0  0  0  0  0  0  0  0  0  0  0  0
    0.1244    0.1532    0.2600 C   0  0  0  0  0  0  0  0  0  0  0  0
    0.3749   -0.1997    1.6968 C   0  0  0  0  0  0  0  0  0  0  0  0
   -0.7104    1.4374    0.2728 C   0  0  0  0  0  0  0  0  0  0  0  0
   -0.9282    1.8160   -1.0494 O   0  0  0  0  0  0  0  0  0  0  0  0
   -0.6808   -0.9078   -0.4530 C   0  0  0  0  0  0  0  0  0  0  0  0
   -2.0598   -0.7361   -0.8446 C   0  0  0  0  0  0  0  0  0  0  0  0
   -1.0641   -0.5168   -1.8328 O   0  0  0  0  0  0  0  0  0  0  0  0
    1.8876   -1.4602   -0.9301 H   0  0  0  0  0  0  0  0  0  0  0  0
    2.7370   -0.7513    0.5450 H   0  0  0  0  0  0  0  0  0  0  0  0
    3.0691   -0.1544   -1.0858 H   0  0  0  0  0  0  0  0  0  0  0  0
   -0.5429   -0.5038    2.2374 H   0  0  0  0  0  0  0  0  0  0  0  0
    0.7902    0.6589    2.2621 H   0  0  0  0  0  0  0  0  0  0  0  0
    1.1408   -1.0149    1.7824 H   0  0  0  0  0  0  0  0  0  0  0  0
   -0.1998    2.2346    0.8472 H   0  0  0  0  0  0  0  0  0  0  0  0
   -1.6977    1.2295    0.7289 H   0  0  0  0  0  0  0  0  0  0  0  0
   -0.1675    2.2857   -1.4405 H   0  0  0  0  0  0  0  0  0  0  0  0
   -0.2451   -1.9287   -0.5316 H   0  0  0  0  0  0  0  0  0  0  0  0
   -2.7224    0.0937   -0.6039 H   0  0  0  0  0  0  0  0  0  0  0  0
   -2.6469   -1.6722   -1.0773 H   0  0  0  0  0  0  0  0  0  0  0  0
  1  2  1  0
  2  3  1  0
  3  4  1  0
  3  5  1  0
  5  6  1  0
  3  7  1  0
  7  8  1  0
  8  9  1  0
  9  7  1  0
  1 10  1  0
  1 11  1  0
  1 12  1  0
  4 13  1  0
  4 14  1  0
  4 15  1  0
  5 16  1  0
  5 17  1  0
  6 18  1  0
  7 19  1  0
  8 20  1  0
  8 21  1  0
M  END
