
     RDKit          3D

 17 17  0  0  0  0  0  0  0  0999 V2000
    2.9603    0.3178    0.6852 C   0  0  0  0  0  0  0  0  0  0  0  0
    1.5888    0.0041    0.5040 O   0  0  0  0  0  0  0  0  0  0  0  0
    0.9212    0.2943   -0.6742 C   0  0  0  0  0  0  0  0  0  0  0  0
    1.5572    0.8490   -1.5976 O   0  0  0  0  0  0  0  0  0  0  0  0
   -0.5045   -0.0467   -0.8259 C   0  0  0  0  0  0  0  0  0  0  0  0
   -1.0624   -1.2631   -0.1822 C   0  0  0  0  0  0  0  0  0  0  0  0
   -1.4420    0.1099    0.3264 C   0  0  0  0  0  0  0  0  0  0  0  0
   -2.8652    0.4798    0.0899 C   0  0  0  0  0  0  0  0  0  0  0  0
   -3.4753    0.1503   -0.9079 O   0  0  0  0  0  0  0  0  0  0  0  0
    3.3939   -0.5012    1.3065 H   0  0  0  0  0  0  0  0  0  0  0  0
    3.4906    0.2949   -0.2741 H   0  0  0  0  0  0  0  0  0  0  0  0
    3.0790    1.3087    1.1890 H   0  0  0  0  0  0  0  0  0  0  0  0
   -0.9493    0.2259   -1.8064 H   0  0  0  0  0  0  0  0  0  0  0  0
   -1.8361   -1.8564   -0.7423 H   0  0  0  0  0  0  0  0  0  0  0  0
   -0.4638   -1.8978    0.4948 H   0  0  0  0  0  0  0  0  0  0  0  0
   -0.9943    0.4665    1.2696 H   0  0  0  0  0  0  0  0  0  0  0  0
   -3.3982    1.0640    0.8199 H   0  0  0  0  0  0  0  0  0  0  0  0
  1  2  1  0
  2  3  1  0
  3  4  2  0
  3  5  1  0
  5  6  1  0
  6  7  1  0
  7  8  1  0
  8  9  2  0
  7  5  1  0
  1 10  1  0
  1 11  1  0
  1 12  1  0
  5 13  1  0
  6 14  1  0
  6 15  1  0
  7 16  1  0
  8 17  1  0
M  END
