
     RDKit          3D

 19 19  0  0  0  0  0  0  0  0999 V2000
    1.7118   -1.5330    0.0647 C   0  0  0  0  0  0  0  0  0  0  0  0
    0.6170   -0.9396    0.6878 O   0  0  0  0  0  0  0  0  0  0  0  0
    0.0860    0.0827   -0.0831 C   0  0  0  0  0  0  0  0  0  0  0  0
   -1.3305   -0.1935   -0.4039 C   0  0  0  0  0  0  0  0  0  0  0  0
   -2.0298   -1.4256    0.0709 C   0  0  0  0  0  0  0  0  0  0  0  0
   -1.9774    0.5917   -1.0769 O   0  0  0  0  0  0  0  0  0  0  0  0
    0.1329    1.3615    0.7232 C   0  0  0  0  0  0  0  0  0  0  0  0
    0.6662    2.5338    0.0752 C   0  0  0  0  0  0  0  0  0  0  0  0
    1.3331    1.8586    1.1716 O   0  0  0  0  0  0  0  0  0  0  0  0
    2.4756   -0.7358   -0.0800 H   0  0  0  0  0  0  0  0  0  0  0  0
    2.1458   -2.2636    0.7786 H   0  0  0  0  0  0  0  0  0  0  0  0
    1.4816   -1.9554   -0.9196 H   0  0  0  0  0  0  0  0  0  0  0  0
    0.6408    0.2209   -1.0401 H   0  0  0  0  0  0  0  0  0  0  0  0
   -1.3392   -2.2730    0.0918 H   0  0  0  0  0  0  0  0  0  0  0  0
   -2.4336   -1.1724    1.0887 H   0  0  0  0  0  0  0  0  0  0  0  0
   -2.9234   -1.6349   -0.5607 H   0  0  0  0  0  0  0  0  0  0  0  0
   -0.7209    1.4779    1.4128 H   0  0  0  0  0  0  0  0  0  0  0  0
    0.2465    3.5133    0.3003 H   0  0  0  0  0  0  0  0  0  0  0  0
    1.2176    2.4864   -0.8959 H   0  0  0  0  0  0  0  0  0  0  0  0
  1  2  1  0
  2  3  1  0
  3  4  1  0
  4  5  1  0
  4  6  2  0
  3  7  1  0
  7  8  1  0
  8  9  1  0
  9  7  1  0
  1 10  1  0
  1 11  1  0
  1 12  1  0
  3 13  1  0
  5 14  1  0
  5 15  1  0
  5 16  1  0
  7 17  1  0
  8 18  1  0
  8 19  1  0
M  END
