
     RDKit          3D

 21 21  0  0  0  0  0  0  0  0999 V2000
    3.4820    0.1015    0.4041 C   0  0  0  0  0  0  0  0  0  0  0  0
    2.1976    0.6206    0.0877 O   0  0  0  0  0  0  0  0  0  0  0  0
    1.0890   -0.1464    0.3160 C   0  0  0  0  0  0  0  0  0  0  0  0
    1.2339   -1.3638    0.8114 O   0  0  0  0  0  0  0  0  0  0  0  0
   -0.3496    0.2148    0.0670 C   0  0  0  0  0  0  0  0  0  0  0  0
   -0.8381    1.4296    0.7807 C   0  0  0  0  0  0  0  0  0  0  0  0
   -0.7141    0.3016   -1.4150 C   0  0  0  0  0  0  0  0  0  0  0  0
   -1.1210   -0.8557   -0.5781 C   0  0  0  0  0  0  0  0  0  0  0  0
   -2.5551   -1.1097   -0.1540 C   0  0  0  0  0  0  0  0  0  0  0  0
    3.5355   -0.9377   -0.0158 H   0  0  0  0  0  0  0  0  0  0  0  0
    4.2736    0.7522    0.0252 H   0  0  0  0  0  0  0  0  0  0  0  0
    3.4820   -0.0104    1.5091 H   0  0  0  0  0  0  0  0  0  0  0  0
   -1.9655    1.3982    0.9130 H   0  0  0  0  0  0  0  0  0  0  0  0
   -0.6631    2.3786    0.2459 H   0  0  0  0  0  0  0  0  0  0  0  0
   -0.3974    1.5566    1.7873 H   0  0  0  0  0  0  0  0  0  0  0  0
    0.1190    0.2360   -2.1445 H   0  0  0  0  0  0  0  0  0  0  0  0
   -1.4974    1.0334   -1.6716 H   0  0  0  0  0  0  0  0  0  0  0  0
   -0.5751   -1.8007   -0.8711 H   0  0  0  0  0  0  0  0  0  0  0  0
   -3.2930   -0.5781   -0.7487 H   0  0  0  0  0  0  0  0  0  0  0  0
   -2.6858   -1.0053    0.9574 H   0  0  0  0  0  0  0  0  0  0  0  0
   -2.7573   -2.2153   -0.3060 H   0  0  0  0  0  0  0  0  0  0  0  0
  1  2  1  0
  2  3  1  0
  3  4  2  0
  3  5  1  0
  5  6  1  0
  5  7  1  0
  7  8  1  0
  8  9  1  0
  8  5  1  0
  1 10  1  0
  1 11  1  0
  1 12  1  0
  6 13  1  0
  6 14  1  0
  6 15  1  0
  7 16  1  0
  7 17  1  0
  8 18  1  0
  9 19  1  0
  9 20  1  0
  9 21  1  0
M  END
