
     RDKit          3D

 22 22  0  0  0  0  0  0  0  0999 V2000
    2.7795    0.8680    0.3622 C   0  0  0  0  0  0  0  0  0  0  0  0
    1.7034    0.5901   -0.4615 O   0  0  0  0  0  0  0  0  0  0  0  0
    0.7954   -0.2332    0.1679 C   0  0  0  0  0  0  0  0  0  0  0  0
    0.6880   -1.5392   -0.5595 C   0  0  0  0  0  0  0  0  0  0  0  0
   -0.4910    0.4970    0.3254 C   0  0  0  0  0  0  0  0  0  0  0  0
   -1.5411   -0.3511    1.0130 C   0  0  0  0  0  0  0  0  0  0  0  0
   -2.5594    0.4220    0.1602 C   0  0  0  0  0  0  0  0  0  0  0  0
   -1.4094    0.5770   -0.8491 C   0  0  0  0  0  0  0  0  0  0  0  0
    2.4624    1.3840    1.3122 H   0  0  0  0  0  0  0  0  0  0  0  0
    3.4787    1.5660   -0.1287 H   0  0  0  0  0  0  0  0  0  0  0  0
    3.3177   -0.0765    0.5667 H   0  0  0  0  0  0  0  0  0  0  0  0
    1.1793   -0.4558    1.1855 H   0  0  0  0  0  0  0  0  0  0  0  0
    1.7486   -1.8890   -0.7363 H   0  0  0  0  0  0  0  0  0  0  0  0
    0.2240   -2.3046    0.0646 H   0  0  0  0  0  0  0  0  0  0  0  0
    0.2521   -1.4461   -1.5748 H   0  0  0  0  0  0  0  0  0  0  0  0
   -0.3750    1.4579    0.8163 H   0  0  0  0  0  0  0  0  0  0  0  0
   -1.5996   -0.1357    2.0843 H   0  0  0  0  0  0  0  0  0  0  0  0
   -1.4881   -1.4031    0.7102 H   0  0  0  0  0  0  0  0  0  0  0  0
   -3.4034   -0.1648   -0.1917 H   0  0  0  0  0  0  0  0  0  0  0  0
   -2.8096    1.3923    0.6296 H   0  0  0  0  0  0  0  0  0  0  0  0
   -1.5105    1.5565   -1.3379 H   0  0  0  0  0  0  0  0  0  0  0  0
   -1.4420   -0.3117   -1.5188 H   0  0  0  0  0  0  0  0  0  0  0  0
  1  2  1  0
  2  3  1  0
  3  4  1  0
  3  5  1  0
  5  6  1  0
  6  7  1  0
  7  8  1  0
  8  5  1  0
  1  9  1  0
  1 10  1  0
  1 11  1  0
  3 12  1  0
  4 13  1  0
  4 14  1  0
  4 15  1  0
  5 16  1  0
  6 17  1  0
  6 18  1  0
  7 19  1  0
  7 20  1  0
  8 21  1  0
  8 22  1  0
M  END
