
     RDKit          3D

 23 22  0  0  0  0  0  0  0  0999 V2000
    2.8958    1.3453    0.2235 C   0  0  0  0  0  0  0  0  0  0  0  0
    1.7197    0.7881   -0.3327 O   0  0  0  0  0  0  0  0  0  0  0  0
    1.1480   -0.3803    0.1413 C   0  0  0  0  0  0  0  0  0  0  0  0
    1.7045   -0.9607    1.1044 O   0  0  0  0  0  0  0  0  0  0  0  0
   -0.0678   -0.9690   -0.4231 C   0  0  0  0  0  0  0  0  0  0  0  0
   -0.4764   -2.2404    0.2769 C   0  0  0  0  0  0  0  0  0  0  0  0
   -1.2461   -0.0396   -0.4185 C   0  0  0  0  0  0  0  0  0  0  0  0
   -1.0181    1.2201   -1.2087 C   0  0  0  0  0  0  0  0  0  0  0  0
   -1.7309    0.2963    0.9610 C   0  0  0  0  0  0  0  0  0  0  0  0
    2.9620    2.4316    0.0633 H   0  0  0  0  0  0  0  0  0  0  0  0
    3.8144    0.9011   -0.2256 H   0  0  0  0  0  0  0  0  0  0  0  0
    2.9160    1.1463    1.3142 H   0  0  0  0  0  0  0  0  0  0  0  0
    0.1267   -1.2444   -1.4894 H   0  0  0  0  0  0  0  0  0  0  0  0
   -1.5351   -2.4398   -0.0137 H   0  0  0  0  0  0  0  0  0  0  0  0
    0.1801   -3.0726   -0.0201 H   0  0  0  0  0  0  0  0  0  0  0  0
   -0.4575   -2.0448    1.3724 H   0  0  0  0  0  0  0  0  0  0  0  0
   -2.0868   -0.5925   -0.9273 H   0  0  0  0  0  0  0  0  0  0  0  0
   -2.0220    1.6073   -1.5409 H   0  0  0  0  0  0  0  0  0  0  0  0
   -0.4520    1.0412   -2.1408 H   0  0  0  0  0  0  0  0  0  0  0  0
   -0.5814    2.0306   -0.5853 H   0  0  0  0  0  0  0  0  0  0  0  0
   -1.0885    0.9746    1.5142 H   0  0  0  0  0  0  0  0  0  0  0  0
   -1.9856   -0.6257    1.5276 H   0  0  0  0  0  0  0  0  0  0  0  0
   -2.7191    0.8274    0.8271 H   0  0  0  0  0  0  0  0  0  0  0  0
  1  2  1  0
  2  3  1  0
  3  4  2  0
  3  5  1  0
  5  6  1  0
  5  7  1  0
  7  8  1  0
  7  9  1  0
  1 10  1  0
  1 11  1  0
  1 12  1  0
  5 13  1  0
  6 14  1  0
  6 15  1  0
  6 16  1  0
  7 17  1  0
  8 18  1  0
  8 19  1  0
  8 20  1  0
  9 21  1  0
  9 22  1  0
  9 23  1  0
M  END
