
     RDKit          3D

 21 20  0  0  0  0  0  0  0  0999 V2000
    3.2953    0.2279    0.3610 C   0  0  0  0  0  0  0  0  0  0  0  0
    2.1246   -0.0848   -0.3755 O   0  0  0  0  0  0  0  0  0  0  0  0
    0.9734    0.6797   -0.3341 C   0  0  0  0  0  0  0  0  0  0  0  0
    0.9737    1.6992    0.3953 O   0  0  0  0  0  0  0  0  0  0  0  0
   -0.2306    0.3537   -1.0957 C   0  0  0  0  0  0  0  0  0  0  0  0
   -1.3089   -0.2980   -0.2672 C   0  0  0  0  0  0  0  0  0  0  0  0
   -0.8722   -1.5874    0.3564 C   0  0  0  0  0  0  0  0  0  0  0  0
   -1.8403    0.6009    0.8063 C   0  0  0  0  0  0  0  0  0  0  0  0
   -2.3750   -0.5708   -1.1387 O   0  0  0  0  0  0  0  0  0  0  0  0
    3.2280   -0.0619    1.4225 H   0  0  0  0  0  0  0  0  0  0  0  0
    4.1335   -0.2960   -0.1649 H   0  0  0  0  0  0  0  0  0  0  0  0
    3.5015    1.3089    0.3182 H   0  0  0  0  0  0  0  0  0  0  0  0
    0.0272   -0.2387   -1.9953 H   0  0  0  0  0  0  0  0  0  0  0  0
   -0.6872    1.3036   -1.4996 H   0  0  0  0  0  0  0  0  0  0  0  0
   -0.1811   -1.4378    1.1998 H   0  0  0  0  0  0  0  0  0  0  0  0
   -0.4987   -2.2742   -0.4202 H   0  0  0  0  0  0  0  0  0  0  0  0
   -1.7864   -2.0713    0.7802 H   0  0  0  0  0  0  0  0  0  0  0  0
   -2.9597    0.5958    0.8571 H   0  0  0  0  0  0  0  0  0  0  0  0
   -1.5418    1.6570    0.6965 H   0  0  0  0  0  0  0  0  0  0  0  0
   -1.5264    0.2670    1.8396 H   0  0  0  0  0  0  0  0  0  0  0  0
   -2.4488    0.2272   -1.7417 H   0  0  0  0  0  0  0  0  0  0  0  0
  1  2  1  0
  2  3  1  0
  3  4  2  0
  3  5  1  0
  5  6  1  0
  6  7  1  0
  6  8  1  0
  6  9  1  0
  1 10  1  0
  1 11  1  0
  1 12  1  0
  5 13  1  0
  5 14  1  0
  7 15  1  0
  7 16  1  0
  7 17  1  0
  8 18  1  0
  8 19  1  0
  8 20  1  0
  9 21  1  0
M  END
