
     RDKit          3D

 23 22  0  0  0  0  0  0  0  0999 V2000
    2.7088   -0.8846   -2.1600 C   0  0  0  0  0  0  0  0  0  0  0  0
    1.9737    0.1357   -1.5705 O   0  0  0  0  0  0  0  0  0  0  0  0
    1.8170   -0.1572   -0.2219 C   0  0  0  0  0  0  0  0  0  0  0  0
    2.4715    0.9093    0.6126 C   0  0  0  0  0  0  0  0  0  0  0  0
    0.3874   -0.2457    0.1368 C   0  0  0  0  0  0  0  0  0  0  0  0
   -0.7832   -0.3060    0.4241 C   0  0  0  0  0  0  0  0  0  0  0  0
   -2.2237   -0.3641    0.7577 C   0  0  0  0  0  0  0  0  0  0  0  0
   -3.0872   -0.0390   -0.4145 C   0  0  0  0  0  0  0  0  0  0  0  0
   -2.4185    0.6055    1.9072 C   0  0  0  0  0  0  0  0  0  0  0  0
    2.8109   -0.6068   -3.2462 H   0  0  0  0  0  0  0  0  0  0  0  0
    3.7396   -0.9306   -1.7642 H   0  0  0  0  0  0  0  0  0  0  0  0
    2.1867   -1.8575   -2.1573 H   0  0  0  0  0  0  0  0  0  0  0  0
    2.3322   -1.1258   -0.0280 H   0  0  0  0  0  0  0  0  0  0  0  0
    3.3494    0.5358    1.1751 H   0  0  0  0  0  0  0  0  0  0  0  0
    1.7169    1.3575    1.2752 H   0  0  0  0  0  0  0  0  0  0  0  0
    2.8205    1.7108   -0.0607 H   0  0  0  0  0  0  0  0  0  0  0  0
   -2.4847   -1.3667    1.1305 H   0  0  0  0  0  0  0  0  0  0  0  0
   -3.4619   -0.9745   -0.8618 H   0  0  0  0  0  0  0  0  0  0  0  0
   -2.4332    0.4593   -1.1871 H   0  0  0  0  0  0  0  0  0  0  0  0
   -3.8846    0.7015   -0.2013 H   0  0  0  0  0  0  0  0  0  0  0  0
   -3.5117    0.8385    1.9592 H   0  0  0  0  0  0  0  0  0  0  0  0
   -1.8531    1.5304    1.7931 H   0  0  0  0  0  0  0  0  0  0  0  0
   -2.1730    0.0743    2.8645 H   0  0  0  0  0  0  0  0  0  0  0  0
  1  2  1  0
  2  3  1  0
  3  4  1  0
  3  5  1  0
  5  6  3  0
  6  7  1  0
  7  8  1  0
  7  9  1  0
  1 10  1  0
  1 11  1  0
  1 12  1  0
  3 13  1  0
  4 14  1  0
  4 15  1  0
  4 16  1  0
  7 17  1  0
  8 18  1  0
  8 19  1  0
  8 20  1  0
  9 21  1  0
  9 22  1  0
  9 23  1  0
M  END
