
     RDKit          3D

 19 19  0  0  0  0  0  0  0  0999 V2000
    2.2606   -0.2506   -1.0731 C   0  0  0  0  0  0  0  0  0  0  0  0
    1.3201    0.7260   -0.7669 O   0  0  0  0  0  0  0  0  0  0  0  0
    0.5110    0.2729    0.2447 C   0  0  0  0  0  0  0  0  0  0  0  0
    0.5849    1.1160    1.4586 C   0  0  0  0  0  0  0  0  0  0  0  0
   -0.0674    0.8518    2.4387 O   0  0  0  0  0  0  0  0  0  0  0  0
   -0.9519    0.2226   -0.1516 C   0  0  0  0  0  0  0  0  0  0  0  0
   -1.4861    1.4400   -0.5189 O   0  0  0  0  0  0  0  0  0  0  0  0
   -1.8170   -0.6172    0.8135 C   0  0  0  0  0  0  0  0  0  0  0  0
   -1.5804   -1.0306   -0.6085 C   0  0  0  0  0  0  0  0  0  0  0  0
    2.9495    0.0343   -1.8760 H   0  0  0  0  0  0  0  0  0  0  0  0
    2.7879   -0.5409   -0.1294 H   0  0  0  0  0  0  0  0  0  0  0  0
    1.7576   -1.2016   -1.4144 H   0  0  0  0  0  0  0  0  0  0  0  0
    0.8372   -0.7538    0.5365 H   0  0  0  0  0  0  0  0  0  0  0  0
    1.2281    1.9724    1.4630 H   0  0  0  0  0  0  0  0  0  0  0  0
   -0.7972    1.9458   -1.0195 H   0  0  0  0  0  0  0  0  0  0  0  0
   -2.7859   -0.2080    1.1179 H   0  0  0  0  0  0  0  0  0  0  0  0
   -1.2975   -1.1731    1.6115 H   0  0  0  0  0  0  0  0  0  0  0  0
   -2.4808   -0.9064   -1.2617 H   0  0  0  0  0  0  0  0  0  0  0  0
   -0.9727   -1.8995   -0.8643 H   0  0  0  0  0  0  0  0  0  0  0  0
  1  2  1  0
  2  3  1  0
  3  4  1  0
  4  5  2  0
  3  6  1  0
  6  7  1  0
  6  8  1  0
  8  9  1  0
  9  6  1  0
  1 10  1  0
  1 11  1  0
  1 12  1  0
  3 13  1  0
  4 14  1  0
  7 15  1  0
  8 16  1  0
  8 17  1  0
  9 18  1  0
  9 19  1  0
M  END
