
     RDKit          3D

 17 17  0  0  0  0  0  0  0  0999 V2000
    3.8873    0.9476   -0.5262 C   0  0  0  0  0  0  0  0  0  0  0  0
    2.5059    0.6527   -0.5183 O   0  0  0  0  0  0  0  0  0  0  0  0
    1.9196   -0.2838    0.2998 C   0  0  0  0  0  0  0  0  0  0  0  0
    2.6554   -0.9230    1.0954 O   0  0  0  0  0  0  0  0  0  0  0  0
    0.5013   -0.4804    0.2012 C   0  0  0  0  0  0  0  0  0  0  0  0
   -0.6946   -0.6647    0.1083 C   0  0  0  0  0  0  0  0  0  0  0  0
   -2.1467   -0.9052    0.0150 C   0  0  0  0  0  0  0  0  0  0  0  0
   -3.0367   -0.3143    1.0676 C   0  0  0  0  0  0  0  0  0  0  0  0
   -3.0443    0.2194   -0.3324 C   0  0  0  0  0  0  0  0  0  0  0  0
    4.4228    0.4877    0.3229 H   0  0  0  0  0  0  0  0  0  0  0  0
    4.2879    0.6276   -1.5088 H   0  0  0  0  0  0  0  0  0  0  0  0
    4.0721    2.0514   -0.4456 H   0  0  0  0  0  0  0  0  0  0  0  0
   -2.3867   -1.8784   -0.4437 H   0  0  0  0  0  0  0  0  0  0  0  0
   -2.5117    0.2617    1.8795 H   0  0  0  0  0  0  0  0  0  0  0  0
   -3.8989   -0.9479    1.3935 H   0  0  0  0  0  0  0  0  0  0  0  0
   -2.5627    1.1689   -0.5779 H   0  0  0  0  0  0  0  0  0  0  0  0
   -3.9700   -0.0192   -0.9122 H   0  0  0  0  0  0  0  0  0  0  0  0
  1  2  1  0
  2  3  1  0
  3  4  2  0
  3  5  1  0
  5  6  3  0
  6  7  1  0
  7  8  1  0
  8  9  1  0
  9  7  1  0
  1 10  1  0
  1 11  1  0
  1 12  1  0
  7 13  1  0
  8 14  1  0
  8 15  1  0
  9 16  1  0
  9 17  1  0
M  END
