
     RDKit          3D

 18 18  0  0  0  0  0  0  0  0999 V2000
    3.1564    0.5642    0.1244 C   0  0  0  0  0  0  0  0  0  0  0  0
    1.9652   -0.1471   -0.1001 O   0  0  0  0  0  0  0  0  0  0  0  0
    0.7976    0.0629    0.6206 C   0  0  0  0  0  0  0  0  0  0  0  0
    0.8274    0.9416    1.5191 O   0  0  0  0  0  0  0  0  0  0  0  0
   -0.4293   -0.7292    0.3276 C   0  0  0  0  0  0  0  0  0  0  0  0
   -1.5598   -0.3305    1.2282 C   0  0  0  0  0  0  0  0  0  0  0  0
   -2.4043   -0.0222    0.0277 C   0  0  0  0  0  0  0  0  0  0  0  0
   -1.1877   -0.2158   -0.8689 C   0  0  0  0  0  0  0  0  0  0  0  0
    3.5585    0.4798    1.1317 H   0  0  0  0  0  0  0  0  0  0  0  0
    3.0765    1.6376   -0.1745 H   0  0  0  0  0  0  0  0  0  0  0  0
    3.9230    0.1178   -0.5711 H   0  0  0  0  0  0  0  0  0  0  0  0
   -0.2969   -1.8176    0.2822 H   0  0  0  0  0  0  0  0  0  0  0  0
   -1.3615    0.5414    1.8653 H   0  0  0  0  0  0  0  0  0  0  0  0
   -2.0260   -1.1320    1.8258 H   0  0  0  0  0  0  0  0  0  0  0  0
   -2.7584    1.0294    0.0322 H   0  0  0  0  0  0  0  0  0  0  0  0
   -3.1890   -0.7566   -0.1823 H   0  0  0  0  0  0  0  0  0  0  0  0
   -1.3207   -0.9498   -1.6777 H   0  0  0  0  0  0  0  0  0  0  0  0
   -0.7710    0.7261   -1.2644 H   0  0  0  0  0  0  0  0  0  0  0  0
  1  2  1  0
  2  3  1  0
  3  4  2  0
  3  5  1  0
  5  6  1  0
  6  7  1  0
  7  8  1  0
  8  5  1  0
  1  9  1  0
  1 10  1  0
  1 11  1  0
  5 12  1  0
  6 13  1  0
  6 14  1  0
  7 15  1  0
  7 16  1  0
  8 17  1  0
  8 18  1  0
M  END
