
     RDKit          3D

 21 20  0  0  0  0  0  0  0  0999 V2000
   -1.4639   -0.1244    1.7028 C   0  0  0  0  0  0  0  0  0  0  0  0
   -1.1459   -0.7899    0.5326 O   0  0  0  0  0  0  0  0  0  0  0  0
   -0.4730   -0.0192   -0.3999 C   0  0  0  0  0  0  0  0  0  0  0  0
   -0.2335   -0.9475   -1.6002 C   0  0  0  0  0  0  0  0  0  0  0  0
   -1.3602    1.0824   -0.8819 C   0  0  0  0  0  0  0  0  0  0  0  0
    0.8803    0.4593    0.0462 C   0  0  0  0  0  0  0  0  0  0  0  0
    1.7171   -0.6433    0.3435 O   0  0  0  0  0  0  0  0  0  0  0  0
    3.0187   -0.4689    0.7773 C   0  0  0  0  0  0  0  0  0  0  0  0
    3.4265    0.7248    0.8960 O   0  0  0  0  0  0  0  0  0  0  0  0
   -0.5316    0.2123    2.1729 H   0  0  0  0  0  0  0  0  0  0  0  0
   -2.0707   -0.7775    2.3692 H   0  0  0  0  0  0  0  0  0  0  0  0
   -2.1125    0.7676    1.5126 H   0  0  0  0  0  0  0  0  0  0  0  0
   -1.2384   -1.2978   -1.9116 H   0  0  0  0  0  0  0  0  0  0  0  0
    0.4303   -1.7836   -1.2938 H   0  0  0  0  0  0  0  0  0  0  0  0
    0.2530   -0.3611   -2.4067 H   0  0  0  0  0  0  0  0  0  0  0  0
   -1.0558    2.0885   -0.5508 H   0  0  0  0  0  0  0  0  0  0  0  0
   -2.4169    0.9385   -0.5222 H   0  0  0  0  0  0  0  0  0  0  0  0
   -1.4368    1.1187   -1.9954 H   0  0  0  0  0  0  0  0  0  0  0  0
    1.3789    1.0786   -0.7248 H   0  0  0  0  0  0  0  0  0  0  0  0
    0.7622    1.1206    0.9252 H   0  0  0  0  0  0  0  0  0  0  0  0
    3.6724   -1.3125    1.0092 H   0  0  0  0  0  0  0  0  0  0  0  0
  1  2  1  0
  2  3  1  0
  3  4  1  0
  3  5  1  0
  3  6  1  0
  6  7  1  0
  7  8  1  0
  8  9  2  0
  1 10  1  0
  1 11  1  0
  1 12  1  0
  4 13  1  0
  4 14  1  0
  4 15  1  0
  5 16  1  0
  5 17  1  0
  5 18  1  0
  6 19  1  0
  6 20  1  0
  8 21  1  0
M  END
