
     RDKit          3D

 21 20  0  0  0  0  0  0  0  0999 V2000
    2.5970    0.9770   -1.4839 C   0  0  0  0  0  0  0  0  0  0  0  0
    2.1475    0.4136   -0.3199 O   0  0  0  0  0  0  0  0  0  0  0  0
    0.9636   -0.3015   -0.4317 C   0  0  0  0  0  0  0  0  0  0  0  0
    1.1552   -1.7422   -0.1665 C   0  0  0  0  0  0  0  0  0  0  0  0
    0.3224   -2.6166   -0.2309 O   0  0  0  0  0  0  0  0  0  0  0  0
   -0.1544    0.2936    0.3362 C   0  0  0  0  0  0  0  0  0  0  0  0
   -1.4340   -0.4853    0.2053 C   0  0  0  0  0  0  0  0  0  0  0  0
   -2.5218    0.2494    1.0237 C   0  0  0  0  0  0  0  0  0  0  0  0
   -2.0720    0.2796    2.3314 O   0  0  0  0  0  0  0  0  0  0  0  0
    2.8060    0.2596   -2.2971 H   0  0  0  0  0  0  0  0  0  0  0  0
    3.5611    1.4799   -1.2577 H   0  0  0  0  0  0  0  0  0  0  0  0
    1.9274    1.7504   -1.9095 H   0  0  0  0  0  0  0  0  0  0  0  0
    0.6704   -0.2221   -1.5191 H   0  0  0  0  0  0  0  0  0  0  0  0
    2.1617   -2.0975    0.1266 H   0  0  0  0  0  0  0  0  0  0  0  0
   -0.3676    1.3354   -0.0456 H   0  0  0  0  0  0  0  0  0  0  0  0
    0.0270    0.4232    1.4141 H   0  0  0  0  0  0  0  0  0  0  0  0
   -1.7832   -0.5251   -0.8274 H   0  0  0  0  0  0  0  0  0  0  0  0
   -1.4023   -1.4888    0.6733 H   0  0  0  0  0  0  0  0  0  0  0  0
   -3.4677   -0.3331    0.9755 H   0  0  0  0  0  0  0  0  0  0  0  0
   -2.6731    1.2712    0.6419 H   0  0  0  0  0  0  0  0  0  0  0  0
   -2.4631    1.0795    2.7615 H   0  0  0  0  0  0  0  0  0  0  0  0
  1  2  1  0
  2  3  1  0
  3  4  1  0
  4  5  2  0
  3  6  1  0
  6  7  1  0
  7  8  1  0
  8  9  1  0
  1 10  1  0
  1 11  1  0
  1 12  1  0
  3 13  1  0
  4 14  1  0
  6 15  1  0
  6 16  1  0
  7 17  1  0
  7 18  1  0
  8 19  1  0
  8 20  1  0
  9 21  1  0
M  END
