
     RDKit          3D

 17 18  0  0  0  0  0  0  0  0999 V2000
    3.3519   -0.2330   -0.0120 C   0  0  0  0  0  0  0  0  0  0  0  0
    2.0497   -0.7070    0.2756 O   0  0  0  0  0  0  0  0  0  0  0  0
    0.9798   -0.0089   -0.2646 C   0  0  0  0  0  0  0  0  0  0  0  0
    1.1561    1.0204   -0.9925 O   0  0  0  0  0  0  0  0  0  0  0  0
   -0.3942   -0.4538   -0.0005 C   0  0  0  0  0  0  0  0  0  0  0  0
   -1.4645    0.5820    0.2467 C   0  0  0  0  0  0  0  0  0  0  0  0
   -2.8686    0.0866    0.3371 C   0  0  0  0  0  0  0  0  0  0  0  0
   -2.6837   -0.8013   -0.7345 O   0  0  0  0  0  0  0  0  0  0  0  0
   -1.4629   -0.2016   -1.0136 C   0  0  0  0  0  0  0  0  0  0  0  0
    4.1067   -1.0445    0.0860 H   0  0  0  0  0  0  0  0  0  0  0  0
    3.5798    0.6219    0.6842 H   0  0  0  0  0  0  0  0  0  0  0  0
    3.3366    0.1938   -1.0254 H   0  0  0  0  0  0  0  0  0  0  0  0
   -0.5139   -1.3562    0.6391 H   0  0  0  0  0  0  0  0  0  0  0  0
   -1.2165    1.6500    0.2723 H   0  0  0  0  0  0  0  0  0  0  0  0
   -3.6624    0.8149    0.0618 H   0  0  0  0  0  0  0  0  0  0  0  0
   -3.0410   -0.4068    1.3185 H   0  0  0  0  0  0  0  0  0  0  0  0
   -1.2532    0.2434   -1.9845 H   0  0  0  0  0  0  0  0  0  0  0  0
  1  2  1  0
  2  3  1  0
  3  4  2  0
  3  5  1  0
  5  6  1  0
  6  7  1  0
  7  8  1  0
  8  9  1  0
  9  5  1  0
  9  6  1  0
  1 10  1  0
  1 11  1  0
  1 12  1  0
  5 13  1  0
  6 14  1  0
  7 15  1  0
  7 16  1  0
  9 17  1  0
M  END
