
     RDKit          3D

 15 14  0  0  0  0  0  0  0  0999 V2000
    2.4370   -0.4854    0.7107 C   0  0  0  0  0  0  0  0  0  0  0  0
    1.0267   -0.5522    0.7699 O   0  0  0  0  0  0  0  0  0  0  0  0
    0.2834    0.4245    0.1117 C   0  0  0  0  0  0  0  0  0  0  0  0
    0.9212    1.3188   -0.5040 O   0  0  0  0  0  0  0  0  0  0  0  0
   -1.1733    0.4704    0.0946 C   0  0  0  0  0  0  0  0  0  0  0  0
   -1.8262   -0.8034   -0.3899 C   0  0  0  0  0  0  0  0  0  0  0  0
   -1.6160    1.5505   -0.6370 O   0  0  0  0  0  0  0  0  0  0  0  0
    2.7432   -0.8169   -0.2899 H   0  0  0  0  0  0  0  0  0  0  0  0
    2.9095   -1.1398    1.4693 H   0  0  0  0  0  0  0  0  0  0  0  0
    2.7903    0.5540    0.9232 H   0  0  0  0  0  0  0  0  0  0  0  0
   -1.5105    0.5885    1.1671 H   0  0  0  0  0  0  0  0  0  0  0  0
   -1.6070   -1.0277   -1.4429 H   0  0  0  0  0  0  0  0  0  0  0  0
   -2.9312   -0.6255   -0.3210 H   0  0  0  0  0  0  0  0  0  0  0  0
   -1.5903   -1.6121    0.3111 H   0  0  0  0  0  0  0  0  0  0  0  0
   -0.8568    2.1563   -0.8263 H   0  0  0  0  0  0  0  0  0  0  0  0
  1  2  1  0
  2  3  1  0
  3  4  2  0
  3  5  1  0
  5  6  1  0
  5  7  1  0
  1  8  1  0
  1  9  1  0
  1 10  1  0
  5 11  1  0
  6 12  1  0
  6 13  1  0
  6 14  1  0
  7 15  1  0
M  END
