
     RDKit          3D

 23 23  0  0  0  0  0  0  0  0999 V2000
    2.7556   -1.2329    0.6159 C   0  0  0  0  0  0  0  0  0  0  0  0
    1.8581   -0.9173   -0.3790 O   0  0  0  0  0  0  0  0  0  0  0  0
    1.1595    0.2432   -0.0935 C   0  0  0  0  0  0  0  0  0  0  0  0
    1.4733    1.3407   -1.1066 C   0  0  0  0  0  0  0  0  0  0  0  0
   -0.3056    0.0276   -0.0381 C   0  0  0  0  0  0  0  0  0  0  0  0
   -0.9293   -1.1035   -0.3094 C   0  0  0  0  0  0  0  0  0  0  0  0
   -2.3879   -0.9835   -0.1593 C   0  0  0  0  0  0  0  0  0  0  0  0
   -2.6128    0.3297    0.5222 C   0  0  0  0  0  0  0  0  0  0  0  0
   -1.3140    1.0459    0.3311 C   0  0  0  0  0  0  0  0  0  0  0  0
    2.2548   -1.3894    1.5896 H   0  0  0  0  0  0  0  0  0  0  0  0
    3.2603   -2.1833    0.3099 H   0  0  0  0  0  0  0  0  0  0  0  0
    3.5379   -0.4599    0.7760 H   0  0  0  0  0  0  0  0  0  0  0  0
    1.5022    0.6473    0.8947 H   0  0  0  0  0  0  0  0  0  0  0  0
    2.5499    1.3736   -1.3437 H   0  0  0  0  0  0  0  0  0  0  0  0
    1.1232    2.2952   -0.6180 H   0  0  0  0  0  0  0  0  0  0  0  0
    0.8356    1.2219   -2.0063 H   0  0  0  0  0  0  0  0  0  0  0  0
   -0.4712   -2.0673   -0.6194 H   0  0  0  0  0  0  0  0  0  0  0  0
   -2.9081   -0.9663   -1.1536 H   0  0  0  0  0  0  0  0  0  0  0  0
   -2.8218   -1.7863    0.4855 H   0  0  0  0  0  0  0  0  0  0  0  0
   -3.4061    0.9390   -0.0015 H   0  0  0  0  0  0  0  0  0  0  0  0
   -2.8128    0.2437    1.6093 H   0  0  0  0  0  0  0  0  0  0  0  0
   -1.3536    1.7723   -0.5329 H   0  0  0  0  0  0  0  0  0  0  0  0
   -0.9872    1.6096    1.2269 H   0  0  0  0  0  0  0  0  0  0  0  0
  1  2  1  0
  2  3  1  0
  3  4  1  0
  3  5  1  0
  5  6  2  0
  6  7  1  0
  7  8  1  0
  8  9  1  0
  9  5  1  0
  1 10  1  0
  1 11  1  0
  1 12  1  0
  3 13  1  0
  4 14  1  0
  4 15  1  0
  4 16  1  0
  6 17  1  0
  7 18  1  0
  7 19  1  0
  8 20  1  0
  8 21  1  0
  9 22  1  0
  9 23  1  0
M  END
