
     RDKit          3D

 17 16  0  0  0  0  0  0  0  0999 V2000
    3.7876   -1.5530    0.7004 C   0  0  0  0  0  0  0  0  0  0  0  0
    2.3816   -1.4252    0.5466 O   0  0  0  0  0  0  0  0  0  0  0  0
    1.8370   -0.3690   -0.1596 C   0  0  0  0  0  0  0  0  0  0  0  0
    2.6717    0.4638   -0.6521 O   0  0  0  0  0  0  0  0  0  0  0  0
    0.4262   -0.1841   -0.3504 C   0  0  0  0  0  0  0  0  0  0  0  0
   -0.7607   -0.0266   -0.4907 C   0  0  0  0  0  0  0  0  0  0  0  0
   -2.2024    0.1704   -0.6429 C   0  0  0  0  0  0  0  0  0  0  0  0
   -2.5575    1.6113   -0.2896 C   0  0  0  0  0  0  0  0  0  0  0  0
   -3.9546    1.7464   -0.4530 O   0  0  0  0  0  0  0  0  0  0  0  0
    4.0854   -1.5000    1.7738 H   0  0  0  0  0  0  0  0  0  0  0  0
    4.0970   -2.5754    0.3473 H   0  0  0  0  0  0  0  0  0  0  0  0
    4.2803   -0.7722    0.0878 H   0  0  0  0  0  0  0  0  0  0  0  0
   -2.5634   -0.0799   -1.6588 H   0  0  0  0  0  0  0  0  0  0  0  0
   -2.7747   -0.4589    0.0930 H   0  0  0  0  0  0  0  0  0  0  0  0
   -2.3747    1.7914    0.7888 H   0  0  0  0  0  0  0  0  0  0  0  0
   -2.0018    2.3051   -0.9513 H   0  0  0  0  0  0  0  0  0  0  0  0
   -4.3768    0.8557   -0.4875 H   0  0  0  0  0  0  0  0  0  0  0  0
  1  2  1  0
  2  3  1  0
  3  4  2  0
  3  5  1  0
  5  6  3  0
  6  7  1  0
  7  8  1  0
  8  9  1  0
  1 10  1  0
  1 11  1  0
  1 12  1  0
  7 13  1  0
  7 14  1  0
  8 15  1  0
  8 16  1  0
  9 17  1  0
M  END
