
     RDKit          3D

 20 20  0  0  0  0  0  0  0  0999 V2000
    2.1721    1.2901    0.2135 C   0  0  0  0  0  0  0  0  0  0  0  0
    1.2503    0.5468   -0.5209 O   0  0  0  0  0  0  0  0  0  0  0  0
    0.6495   -0.3754    0.2918 C   0  0  0  0  0  0  0  0  0  0  0  0
    1.0405   -1.7617   -0.2407 C   0  0  0  0  0  0  0  0  0  0  0  0
   -0.8400   -0.3273    0.2893 C   0  0  0  0  0  0  0  0  0  0  0  0
   -1.5007    1.0043    0.2792 C   0  0  0  0  0  0  0  0  0  0  0  0
   -2.5426    0.1131   -0.4178 C   0  0  0  0  0  0  0  0  0  0  0  0
   -1.4204   -0.5500   -0.9717 O   0  0  0  0  0  0  0  0  0  0  0  0
    1.6980    1.8263    1.0446 H   0  0  0  0  0  0  0  0  0  0  0  0
    2.6247    2.0478   -0.4721 H   0  0  0  0  0  0  0  0  0  0  0  0
    3.0109    0.6364    0.5709 H   0  0  0  0  0  0  0  0  0  0  0  0
    1.0364   -0.3009    1.3007 H   0  0  0  0  0  0  0  0  0  0  0  0
    0.2032   -2.4824   -0.1312 H   0  0  0  0  0  0  0  0  0  0  0  0
    1.9063   -2.1486    0.3260 H   0  0  0  0  0  0  0  0  0  0  0  0
    1.2505   -1.6989   -1.3295 H   0  0  0  0  0  0  0  0  0  0  0  0
   -1.2734   -0.9997    1.0253 H   0  0  0  0  0  0  0  0  0  0  0  0
   -1.1457    1.7424   -0.4508 H   0  0  0  0  0  0  0  0  0  0  0  0
   -1.9340    1.3705    1.2143 H   0  0  0  0  0  0  0  0  0  0  0  0
   -3.1812    0.6219   -1.1307 H   0  0  0  0  0  0  0  0  0  0  0  0
   -3.0044   -0.5546    0.3237 H   0  0  0  0  0  0  0  0  0  0  0  0
  1  2  1  0
  2  3  1  0
  3  4  1  0
  3  5  1  0
  5  6  1  0
  6  7  1  0
  7  8  1  0
  8  5  1  0
  1  9  1  0
  1 10  1  0
  1 11  1  0
  3 12  1  0
  4 13  1  0
  4 14  1  0
  4 15  1  0
  5 16  1  0
  6 17  1  0
  6 18  1  0
  7 19  1  0
  7 20  1  0
M  END
