
     RDKit          3D

 19 19  0  0  0  0  0  0  0  0999 V2000
   -2.1867   -1.0132   -0.2410 C   0  0  0  0  0  0  0  0  0  0  0  0
   -1.1970   -0.5017    0.5901 O   0  0  0  0  0  0  0  0  0  0  0  0
   -0.3864    0.4153   -0.1017 C   0  0  0  0  0  0  0  0  0  0  0  0
   -0.4175    1.7058    0.6454 C   0  0  0  0  0  0  0  0  0  0  0  0
    0.9990   -0.1487   -0.1134 C   0  0  0  0  0  0  0  0  0  0  0  0
    1.6200   -0.3548    1.2163 C   0  0  0  0  0  0  0  0  0  0  0  0
    2.7448   -0.8076    1.3497 O   0  0  0  0  0  0  0  0  0  0  0  0
    1.7679   -0.3906   -1.2824 C   0  0  0  0  0  0  0  0  0  0  0  0
    0.9603   -1.4703   -0.8092 O   0  0  0  0  0  0  0  0  0  0  0  0
   -1.6759   -1.5264   -1.0935 H   0  0  0  0  0  0  0  0  0  0  0  0
   -2.8177   -0.1809   -0.5723 H   0  0  0  0  0  0  0  0  0  0  0  0
   -2.7632   -1.7453    0.3647 H   0  0  0  0  0  0  0  0  0  0  0  0
   -0.7148    0.5276   -1.1541 H   0  0  0  0  0  0  0  0  0  0  0  0
   -1.0751    2.4306    0.0883 H   0  0  0  0  0  0  0  0  0  0  0  0
    0.5862    2.1640    0.7889 H   0  0  0  0  0  0  0  0  0  0  0  0
   -0.8672    1.6312    1.6614 H   0  0  0  0  0  0  0  0  0  0  0  0
    1.0860   -0.1057    2.1266 H   0  0  0  0  0  0  0  0  0  0  0  0
    1.4941   -0.0086   -2.2788 H   0  0  0  0  0  0  0  0  0  0  0  0
    2.8433   -0.6207   -1.1852 H   0  0  0  0  0  0  0  0  0  0  0  0
  1  2  1  0
  2  3  1  0
  3  4  1  0
  3  5  1  0
  5  6  1  0
  6  7  2  0
  5  8  1  0
  8  9  1  0
  9  5  1  0
  1 10  1  0
  1 11  1  0
  1 12  1  0
  3 13  1  0
  4 14  1  0
  4 15  1  0
  4 16  1  0
  6 17  1  0
  8 18  1  0
  8 19  1  0
M  END
