
     RDKit          3D

 23 23  0  0  0  0  0  0  0  0999 V2000
   -2.7494    1.1163    0.1964 C   0  0  0  0  0  0  0  0  0  0  0  0
   -1.6564    0.7598   -0.5837 O   0  0  0  0  0  0  0  0  0  0  0  0
   -0.8964   -0.2491    0.0092 C   0  0  0  0  0  0  0  0  0  0  0  0
   -0.9842   -1.4614   -0.8328 C   0  0  0  0  0  0  0  0  0  0  0  0
    0.4291    0.3097    0.3042 C   0  0  0  0  0  0  0  0  0  0  0  0
    1.2286    0.8277   -0.8785 C   0  0  0  0  0  0  0  0  0  0  0  0
    2.4457    0.5732    0.0207 C   0  0  0  0  0  0  0  0  0  0  0  0
    1.5869   -0.5451    0.6309 C   0  0  0  0  0  0  0  0  0  0  0  0
    1.8025   -1.6861   -0.1078 O   0  0  0  0  0  0  0  0  0  0  0  0
   -3.4488    0.2948    0.3895 H   0  0  0  0  0  0  0  0  0  0  0  0
   -2.3511    1.4505    1.1781 H   0  0  0  0  0  0  0  0  0  0  0  0
   -3.3135    1.9612   -0.2207 H   0  0  0  0  0  0  0  0  0  0  0  0
   -1.3978   -0.4926    0.9751 H   0  0  0  0  0  0  0  0  0  0  0  0
   -1.1021   -2.3958   -0.2085 H   0  0  0  0  0  0  0  0  0  0  0  0
   -1.9216   -1.4263   -1.4445 H   0  0  0  0  0  0  0  0  0  0  0  0
   -0.1691   -1.6395   -1.5264 H   0  0  0  0  0  0  0  0  0  0  0  0
    0.3561    1.1403    1.0410 H   0  0  0  0  0  0  0  0  0  0  0  0
    1.0953    1.8953   -1.1068 H   0  0  0  0  0  0  0  0  0  0  0  0
    1.1957    0.1953   -1.7814 H   0  0  0  0  0  0  0  0  0  0  0  0
    3.3358    0.2282   -0.5045 H   0  0  0  0  0  0  0  0  0  0  0  0
    2.5348    1.3980    0.7293 H   0  0  0  0  0  0  0  0  0  0  0  0
    1.8020   -0.7346    1.7007 H   0  0  0  0  0  0  0  0  0  0  0  0
    2.1778   -1.5199   -1.0067 H   0  0  0  0  0  0  0  0  0  0  0  0
  1  2  1  0
  2  3  1  0
  3  4  1  0
  3  5  1  0
  5  6  1  0
  6  7  1  0
  7  8  1  0
  8  9  1  0
  8  5  1  0
  1 10  1  0
  1 11  1  0
  1 12  1  0
  3 13  1  0
  4 14  1  0
  4 15  1  0
  4 16  1  0
  5 17  1  0
  6 18  1  0
  6 19  1  0
  7 20  1  0
  7 21  1  0
  8 22  1  0
  9 23  1  0
M  END
