
     RDKit          3D

 21 20  0  0  0  0  0  0  0  0999 V2000
   -1.7934   -1.5610   -0.7707 C   0  0  0  0  0  0  0  0  0  0  0  0
   -0.8795   -0.5441   -0.9773 O   0  0  0  0  0  0  0  0  0  0  0  0
   -0.5171    0.0519    0.2032 C   0  0  0  0  0  0  0  0  0  0  0  0
   -0.9439    1.5229    0.1042 C   0  0  0  0  0  0  0  0  0  0  0  0
   -0.5746    2.1149    1.2979 O   0  0  0  0  0  0  0  0  0  0  0  0
    0.9816    0.0828    0.4265 C   0  0  0  0  0  0  0  0  0  0  0  0
    1.6074   -1.2671    0.4644 C   0  0  0  0  0  0  0  0  0  0  0  0
    1.5691    0.8868   -0.6826 C   0  0  0  0  0  0  0  0  0  0  0  0
    2.4253    1.6873   -0.4319 O   0  0  0  0  0  0  0  0  0  0  0  0
   -2.0913   -2.0466   -1.7121 H   0  0  0  0  0  0  0  0  0  0  0  0
   -1.3937   -2.3686   -0.1152 H   0  0  0  0  0  0  0  0  0  0  0  0
   -2.7230   -1.2094   -0.2810 H   0  0  0  0  0  0  0  0  0  0  0  0
   -1.0561   -0.4417    1.0257 H   0  0  0  0  0  0  0  0  0  0  0  0
   -0.3324    1.9365   -0.7412 H   0  0  0  0  0  0  0  0  0  0  0  0
   -2.0006    1.6295   -0.1377 H   0  0  0  0  0  0  0  0  0  0  0  0
   -0.0897    2.9816    1.1278 H   0  0  0  0  0  0  0  0  0  0  0  0
    1.1284    0.6458    1.3927 H   0  0  0  0  0  0  0  0  0  0  0  0
    0.9104   -2.1104    0.5028 H   0  0  0  0  0  0  0  0  0  0  0  0
    2.3264   -1.3870   -0.3949 H   0  0  0  0  0  0  0  0  0  0  0  0
    2.2671   -1.3020    1.3771 H   0  0  0  0  0  0  0  0  0  0  0  0
    1.1797    0.6979   -1.6777 H   0  0  0  0  0  0  0  0  0  0  0  0
  1  2  1  0
  2  3  1  0
  3  4  1  0
  4  5  1  0
  3  6  1  0
  6  7  1  0
  6  8  1  0
  8  9  2  0
  1 10  1  0
  1 11  1  0
  1 12  1  0
  3 13  1  0
  4 14  1  0
  4 15  1  0
  5 16  1  0
  6 17  1  0
  7 18  1  0
  7 19  1  0
  7 20  1  0
  8 21  1  0
M  END
