
     RDKit          3D

 15 15  0  0  0  0  0  0  0  0999 V2000
    3.7269    0.0441   -0.2771 C   0  0  0  0  0  0  0  0  0  0  0  0
    2.4065    0.3495   -0.6116 O   0  0  0  0  0  0  0  0  0  0  0  0
    1.3312   -0.1352    0.1157 C   0  0  0  0  0  0  0  0  0  0  0  0
    1.5963   -0.8685    1.0989 O   0  0  0  0  0  0  0  0  0  0  0  0
   -0.0432    0.1479   -0.1851 C   0  0  0  0  0  0  0  0  0  0  0  0
   -1.2012    0.3673   -0.4476 C   0  0  0  0  0  0  0  0  0  0  0  0
   -2.6077    0.6386   -0.7518 C   0  0  0  0  0  0  0  0  0  0  0  0
   -3.5801   -0.3467   -0.3931 C   0  0  0  0  0  0  0  0  0  0  0  0
   -3.0487   -0.3014   -1.8025 O   0  0  0  0  0  0  0  0  0  0  0  0
    4.3277    0.9671   -0.0879 H   0  0  0  0  0  0  0  0  0  0  0  0
    4.2270   -0.6176   -1.0194 H   0  0  0  0  0  0  0  0  0  0  0  0
    3.7196   -0.5109    0.6875 H   0  0  0  0  0  0  0  0  0  0  0  0
   -2.9191    1.6778   -0.9911 H   0  0  0  0  0  0  0  0  0  0  0  0
   -3.2596   -1.2774    0.1146 H   0  0  0  0  0  0  0  0  0  0  0  0
   -4.6754   -0.1346   -0.5040 H   0  0  0  0  0  0  0  0  0  0  0  0
  1  2  1  0
  2  3  1  0
  3  4  2  0
  3  5  1  0
  5  6  3  0
  6  7  1  0
  7  8  1  0
  8  9  1  0
  9  7  1  0
  1 10  1  0
  1 11  1  0
  1 12  1  0
  7 13  1  0
  8 14  1  0
  8 15  1  0
M  END
