
     RDKit          3D

 21 21  0  0  0  0  0  0  0  0999 V2000
   -0.4723   -2.5142   -0.0483 C   0  0  0  0  0  0  0  0  0  0  0  0
    0.0340   -1.3613    0.5157 O   0  0  0  0  0  0  0  0  0  0  0  0
    0.3261   -0.3729   -0.3962 C   0  0  0  0  0  0  0  0  0  0  0  0
    1.8018   -0.0078   -0.2788 C   0  0  0  0  0  0  0  0  0  0  0  0
    2.1448    0.9925   -1.1860 O   0  0  0  0  0  0  0  0  0  0  0  0
   -0.4471    0.8738    0.0317 C   0  0  0  0  0  0  0  0  0  0  0  0
   -0.5906    1.0477    1.5403 C   0  0  0  0  0  0  0  0  0  0  0  0
   -1.5814    1.3538   -0.7654 C   0  0  0  0  0  0  0  0  0  0  0  0
   -0.3252    2.0240   -0.7283 O   0  0  0  0  0  0  0  0  0  0  0  0
   -0.6634   -3.2257    0.7974 H   0  0  0  0  0  0  0  0  0  0  0  0
    0.2427   -3.0148   -0.7362 H   0  0  0  0  0  0  0  0  0  0  0  0
   -1.4548   -2.3236   -0.5183 H   0  0  0  0  0  0  0  0  0  0  0  0
    0.1098   -0.6564   -1.4382 H   0  0  0  0  0  0  0  0  0  0  0  0
    1.9875    0.4059    0.7343 H   0  0  0  0  0  0  0  0  0  0  0  0
    2.4214   -0.9149   -0.4590 H   0  0  0  0  0  0  0  0  0  0  0  0
    2.6447    1.7354   -0.7614 H   0  0  0  0  0  0  0  0  0  0  0  0
    0.0765    0.3406    2.0859 H   0  0  0  0  0  0  0  0  0  0  0  0
   -0.4012    2.0788    1.8611 H   0  0  0  0  0  0  0  0  0  0  0  0
   -1.6296    0.7076    1.7784 H   0  0  0  0  0  0  0  0  0  0  0  0
   -1.8560    0.8951   -1.7438 H   0  0  0  0  0  0  0  0  0  0  0  0
   -2.3677    1.9365   -0.2850 H   0  0  0  0  0  0  0  0  0  0  0  0
  1  2  1  0
  2  3  1  0
  3  4  1  0
  4  5  1  0
  3  6  1  0
  6  7  1  0
  6  8  1  0
  8  9  1  0
  9  6  1  0
  1 10  1  0
  1 11  1  0
  1 12  1  0
  3 13  1  0
  4 14  1  0
  4 15  1  0
  5 16  1  0
  7 17  1  0
  7 18  1  0
  7 19  1  0
  8 20  1  0
  8 21  1  0
M  END
