
     RDKit          3D

 19 18  0  0  0  0  0  0  0  0999 V2000
   -2.0915    1.9209   -0.4194 C   0  0  0  0  0  0  0  0  0  0  0  0
   -1.4986    1.0926    0.5258 O   0  0  0  0  0  0  0  0  0  0  0  0
   -0.7759    0.1010   -0.1307 C   0  0  0  0  0  0  0  0  0  0  0  0
   -1.3120   -1.2782    0.2752 C   0  0  0  0  0  0  0  0  0  0  0  0
    0.6283    0.1715    0.3207 C   0  0  0  0  0  0  0  0  0  0  0  0
    0.9321    1.0414    1.1672 O   0  0  0  0  0  0  0  0  0  0  0  0
    1.6067   -0.7488   -0.2142 C   0  0  0  0  0  0  0  0  0  0  0  0
    3.0126   -0.6524    0.2633 C   0  0  0  0  0  0  0  0  0  0  0  0
    1.2615   -1.6147   -1.0714 O   0  0  0  0  0  0  0  0  0  0  0  0
   -2.7579    1.3000   -1.0354 H   0  0  0  0  0  0  0  0  0  0  0  0
   -2.6634    2.6919    0.1410 H   0  0  0  0  0  0  0  0  0  0  0  0
   -1.2844    2.4079   -1.0146 H   0  0  0  0  0  0  0  0  0  0  0  0
   -0.8492    0.2133   -1.2405 H   0  0  0  0  0  0  0  0  0  0  0  0
   -0.4570   -1.9563    0.4691 H   0  0  0  0  0  0  0  0  0  0  0  0
   -1.9874   -1.6282   -0.5148 H   0  0  0  0  0  0  0  0  0  0  0  0
   -1.8433   -1.1456    1.2606 H   0  0  0  0  0  0  0  0  0  0  0  0
    3.0416   -1.0549    1.3021 H   0  0  0  0  0  0  0  0  0  0  0  0
    3.7047   -1.2695   -0.3316 H   0  0  0  0  0  0  0  0  0  0  0  0
    3.3330    0.4081    0.2476 H   0  0  0  0  0  0  0  0  0  0  0  0
  1  2  1  0
  2  3  1  0
  3  4  1  0
  3  5  1  0
  5  6  2  0
  5  7  1  0
  7  8  1  0
  7  9  2  0
  1 10  1  0
  1 11  1  0
  1 12  1  0
  3 13  1  0
  4 14  1  0
  4 15  1  0
  4 16  1  0
  8 17  1  0
  8 18  1  0
  8 19  1  0
M  END
