
     RDKit          3D

 21 20  0  0  0  0  0  0  0  0999 V2000
    3.7631   -0.1857    0.3538 C   0  0  0  0  0  0  0  0  0  0  0  0
    2.5142   -0.5601   -0.1831 O   0  0  0  0  0  0  0  0  0  0  0  0
    1.3440    0.1146    0.0258 C   0  0  0  0  0  0  0  0  0  0  0  0
    1.3383    1.1462    0.7407 O   0  0  0  0  0  0  0  0  0  0  0  0
    0.0916   -0.3770   -0.5932 C   0  0  0  0  0  0  0  0  0  0  0  0
   -1.0921    0.4838   -0.2504 C   0  0  0  0  0  0  0  0  0  0  0  0
   -1.3162    0.5195    1.2445 C   0  0  0  0  0  0  0  0  0  0  0  0
   -2.3587   -0.0624   -0.8765 C   0  0  0  0  0  0  0  0  0  0  0  0
   -3.4651    0.7256   -0.5672 O   0  0  0  0  0  0  0  0  0  0  0  0
    4.0270    0.8648    0.1435 H   0  0  0  0  0  0  0  0  0  0  0  0
    4.5230   -0.8802   -0.0756 H   0  0  0  0  0  0  0  0  0  0  0  0
    3.7323   -0.4137    1.4412 H   0  0  0  0  0  0  0  0  0  0  0  0
   -0.1514   -1.4106   -0.2650 H   0  0  0  0  0  0  0  0  0  0  0  0
    0.2328   -0.3818   -1.6936 H   0  0  0  0  0  0  0  0  0  0  0  0
   -0.9499    1.5400   -0.5855 H   0  0  0  0  0  0  0  0  0  0  0  0
   -0.4387    0.0434    1.7731 H   0  0  0  0  0  0  0  0  0  0  0  0
   -2.1754   -0.1264    1.5129 H   0  0  0  0  0  0  0  0  0  0  0  0
   -1.4693    1.5539    1.6101 H   0  0  0  0  0  0  0  0  0  0  0  0
   -2.5217   -1.1269   -0.6134 H   0  0  0  0  0  0  0  0  0  0  0  0
   -2.2294   -0.0614   -1.9982 H   0  0  0  0  0  0  0  0  0  0  0  0
   -3.3985    1.5317   -1.1439 H   0  0  0  0  0  0  0  0  0  0  0  0
  1  2  1  0
  2  3  1  0
  3  4  2  0
  3  5  1  0
  5  6  1  0
  6  7  1  0
  6  8  1  0
  8  9  1  0
  1 10  1  0
  1 11  1  0
  1 12  1  0
  5 13  1  0
  5 14  1  0
  6 15  1  0
  7 16  1  0
  7 17  1  0
  7 18  1  0
  8 19  1  0
  8 20  1  0
  9 21  1  0
M  END
