
     RDKit          3D

 23 22  0  0  0  0  0  0  0  0999 V2000
   -0.9825    1.9841    0.0513 C   0  0  0  0  0  0  0  0  0  0  0  0
   -1.0338    0.8478    0.7811 O   0  0  0  0  0  0  0  0  0  0  0  0
   -0.5617   -0.3131    0.2473 C   0  0  0  0  0  0  0  0  0  0  0  0
   -1.2258   -0.6935   -1.0605 C   0  0  0  0  0  0  0  0  0  0  0  0
   -1.1359   -1.4009    1.2242 C   0  0  0  0  0  0  0  0  0  0  0  0
    0.8964   -0.5517    0.3133 C   0  0  0  0  0  0  0  0  0  0  0  0
    1.2628   -0.5687    1.6814 O   0  0  0  0  0  0  0  0  0  0  0  0
    1.8073    0.3970   -0.3653 C   0  0  0  0  0  0  0  0  0  0  0  0
    1.5715    0.5681   -1.7191 O   0  0  0  0  0  0  0  0  0  0  0  0
   -0.0330    2.3650   -0.2939 H   0  0  0  0  0  0  0  0  0  0  0  0
   -1.4182    2.8123    0.6917 H   0  0  0  0  0  0  0  0  0  0  0  0
   -1.6861    1.9750   -0.8309 H   0  0  0  0  0  0  0  0  0  0  0  0
   -0.5621   -0.4632   -1.9366 H   0  0  0  0  0  0  0  0  0  0  0  0
   -2.1624   -0.1502   -1.2285 H   0  0  0  0  0  0  0  0  0  0  0  0
   -1.4502   -1.7775   -1.1404 H   0  0  0  0  0  0  0  0  0  0  0  0
   -2.1873   -1.1479    1.4546 H   0  0  0  0  0  0  0  0  0  0  0  0
   -0.4798   -1.4212    2.1121 H   0  0  0  0  0  0  0  0  0  0  0  0
   -1.1609   -2.3735    0.6905 H   0  0  0  0  0  0  0  0  0  0  0  0
    1.0837   -1.5787   -0.0996 H   0  0  0  0  0  0  0  0  0  0  0  0
    2.2452   -0.5393    1.7769 H   0  0  0  0  0  0  0  0  0  0  0  0
    1.9948    1.3304    0.1821 H   0  0  0  0  0  0  0  0  0  0  0  0
    2.8338   -0.1143   -0.3416 H   0  0  0  0  0  0  0  0  0  0  0  0
    2.3840    0.8139   -2.1901 H   0  0  0  0  0  0  0  0  0  0  0  0
  1  2  1  0
  2  3  1  0
  3  4  1  0
  3  5  1  0
  3  6  1  0
  6  7  1  0
  6  8  1  0
  8  9  1  0
  1 10  1  0
  1 11  1  0
  1 12  1  0
  4 13  1  0
  4 14  1  0
  4 15  1  0
  5 16  1  0
  5 17  1  0
  5 18  1  0
  6 19  1  0
  7 20  1  0
  8 21  1  0
  8 22  1  0
  9 23  1  0
M  END
