
     RDKit          3D

 16 15  0  0  0  0  0  0  0  0999 V2000
    1.8856   -0.5252   -0.1576 C   0  0  0  0  0  0  0  0  0  0  0  0
    1.0156    0.4619   -0.5408 O   0  0  0  0  0  0  0  0  0  0  0  0
   -0.2506    0.3545   -0.0432 C   0  0  0  0  0  0  0  0  0  0  0  0
   -0.9070   -0.9396   -0.4702 C   0  0  0  0  0  0  0  0  0  0  0  0
   -1.0562    1.4940   -0.6117 C   0  0  0  0  0  0  0  0  0  0  0  0
   -0.5723    2.3132   -1.3720 O   0  0  0  0  0  0  0  0  0  0  0  0
   -0.3381    0.4669    1.4285 C   0  0  0  0  0  0  0  0  0  0  0  0
   -1.4433    0.3793    1.9340 O   0  0  0  0  0  0  0  0  0  0  0  0
    1.5924   -1.5454   -0.4451 H   0  0  0  0  0  0  0  0  0  0  0  0
    2.1270   -0.5199    0.9202 H   0  0  0  0  0  0  0  0  0  0  0  0
    2.8589   -0.3279   -0.6819 H   0  0  0  0  0  0  0  0  0  0  0  0
   -0.3100   -1.5218   -1.1810 H   0  0  0  0  0  0  0  0  0  0  0  0
   -1.9165   -0.7361   -0.9273 H   0  0  0  0  0  0  0  0  0  0  0  0
   -1.0942   -1.5981    0.4288 H   0  0  0  0  0  0  0  0  0  0  0  0
   -2.0995    1.6235   -0.3615 H   0  0  0  0  0  0  0  0  0  0  0  0
    0.5081    0.6207    2.0809 H   0  0  0  0  0  0  0  0  0  0  0  0
  1  2  1  0
  2  3  1  0
  3  4  1  0
  3  5  1  0
  5  6  2  0
  3  7  1  0
  7  8  2  0
  1  9  1  0
  1 10  1  0
  1 11  1  0
  4 12  1  0
  4 13  1  0
  4 14  1  0
  5 15  1  0
  7 16  1  0
M  END
