
     RDKit          3D

 23 23  0  0  0  0  0  0  0  0999 V2000
   -2.4960    1.3730    0.4378 C   0  0  0  0  0  0  0  0  0  0  0  0
   -1.4019    0.8387    1.0724 O   0  0  0  0  0  0  0  0  0  0  0  0
   -1.0240   -0.4078    0.6816 C   0  0  0  0  0  0  0  0  0  0  0  0
   -1.1075   -1.4517    1.7690 C   0  0  0  0  0  0  0  0  0  0  0  0
    0.3546   -0.4988    0.0946 C   0  0  0  0  0  0  0  0  0  0  0  0
    0.5451    0.3386   -1.1253 C   0  0  0  0  0  0  0  0  0  0  0  0
    1.9275    0.2017   -1.6527 C   0  0  0  0  0  0  0  0  0  0  0  0
    3.0691    0.5374   -0.8997 C   0  0  0  0  0  0  0  0  0  0  0  0
    2.6440   -0.9049   -1.0229 O   0  0  0  0  0  0  0  0  0  0  0  0
   -2.6617    2.3886    0.8786 H   0  0  0  0  0  0  0  0  0  0  0  0
   -3.4244    0.8165    0.5442 H   0  0  0  0  0  0  0  0  0  0  0  0
   -2.2564    1.5821   -0.6462 H   0  0  0  0  0  0  0  0  0  0  0  0
   -1.7364   -0.7306   -0.1170 H   0  0  0  0  0  0  0  0  0  0  0  0
   -0.3921   -2.2765    1.5589 H   0  0  0  0  0  0  0  0  0  0  0  0
   -2.1092   -1.8268    1.9561 H   0  0  0  0  0  0  0  0  0  0  0  0
   -0.7439   -0.9984    2.7365 H   0  0  0  0  0  0  0  0  0  0  0  0
    0.4811   -1.5664   -0.2398 H   0  0  0  0  0  0  0  0  0  0  0  0
    1.1535   -0.3524    0.8578 H   0  0  0  0  0  0  0  0  0  0  0  0
    0.2400    1.3962   -0.9835 H   0  0  0  0  0  0  0  0  0  0  0  0
   -0.1622   -0.0798   -1.9008 H   0  0  0  0  0  0  0  0  0  0  0  0
    1.9966    0.1801   -2.7797 H   0  0  0  0  0  0  0  0  0  0  0  0
    3.0290    0.8612    0.1488 H   0  0  0  0  0  0  0  0  0  0  0  0
    4.0753    0.5800   -1.3687 H   0  0  0  0  0  0  0  0  0  0  0  0
  1  2  1  0
  2  3  1  0
  3  4  1  0
  3  5  1  0
  5  6  1  0
  6  7  1  0
  7  8  1  0
  8  9  1  0
  9  7  1  0
  1 10  1  0
  1 11  1  0
  1 12  1  0
  3 13  1  0
  4 14  1  0
  4 15  1  0
  4 16  1  0
  5 17  1  0
  5 18  1  0
  6 19  1  0
  6 20  1  0
  7 21  1  0
  8 22  1  0
  8 23  1  0
M  END
