
     RDKit          3D

 23 23  0  0  0  0  0  0  0  0999 V2000
   -3.0808    0.8478    0.4109 C   0  0  0  0  0  0  0  0  0  0  0  0
   -2.0695    0.7474   -0.5691 O   0  0  0  0  0  0  0  0  0  0  0  0
   -1.0475   -0.0896   -0.1215 C   0  0  0  0  0  0  0  0  0  0  0  0
   -0.8983   -1.1995   -1.1098 C   0  0  0  0  0  0  0  0  0  0  0  0
    0.1881    0.7594    0.0276 C   0  0  0  0  0  0  0  0  0  0  0  0
    1.3837    0.0081    0.5032 C   0  0  0  0  0  0  0  0  0  0  0  0
    1.3405   -0.6427    1.7473 O   0  0  0  0  0  0  0  0  0  0  0  0
    2.7139    0.7451    0.2362 C   0  0  0  0  0  0  0  0  0  0  0  0
    2.3955   -0.5232   -0.4880 C   0  0  0  0  0  0  0  0  0  0  0  0
   -3.4528   -0.1842    0.5663 H   0  0  0  0  0  0  0  0  0  0  0  0
   -2.6460    1.2272    1.3661 H   0  0  0  0  0  0  0  0  0  0  0  0
   -3.8586    1.5518    0.1144 H   0  0  0  0  0  0  0  0  0  0  0  0
   -1.2994   -0.4634    0.9023 H   0  0  0  0  0  0  0  0  0  0  0  0
   -0.2424   -0.9494   -1.9413 H   0  0  0  0  0  0  0  0  0  0  0  0
   -1.9153   -1.4005   -1.5595 H   0  0  0  0  0  0  0  0  0  0  0  0
   -0.6414   -2.1446   -0.5889 H   0  0  0  0  0  0  0  0  0  0  0  0
   -0.0557    1.5406    0.7901 H   0  0  0  0  0  0  0  0  0  0  0  0
    0.4547    1.2912   -0.8973 H   0  0  0  0  0  0  0  0  0  0  0  0
    1.4978   -1.6013    1.5470 H   0  0  0  0  0  0  0  0  0  0  0  0
    2.6930    1.6560   -0.3607 H   0  0  0  0  0  0  0  0  0  0  0  0
    3.4719    0.7242    1.0390 H   0  0  0  0  0  0  0  0  0  0  0  0
    2.0784   -0.4789   -1.5509 H   0  0  0  0  0  0  0  0  0  0  0  0
    2.9900   -1.4215   -0.1974 H   0  0  0  0  0  0  0  0  0  0  0  0
  1  2  1  0
  2  3  1  0
  3  4  1  0
  3  5  1  0
  5  6  1  0
  6  7  1  0
  6  8  1  0
  8  9  1  0
  9  6  1  0
  1 10  1  0
  1 11  1  0
  1 12  1  0
  3 13  1  0
  4 14  1  0
  4 15  1  0
  4 16  1  0
  5 17  1  0
  5 18  1  0
  7 19  1  0
  8 20  1  0
  8 21  1  0
  9 22  1  0
  9 23  1  0
M  END
