
     RDKit          3D

 19 19  0  0  0  0  0  0  0  0999 V2000
    2.9810    1.1682    0.2270 C   0  0  0  0  0  0  0  0  0  0  0  0
    1.6619    0.6470    0.0717 O   0  0  0  0  0  0  0  0  0  0  0  0
    1.3165   -0.6340    0.4658 C   0  0  0  0  0  0  0  0  0  0  0  0
    2.2327   -1.3301    0.9756 O   0  0  0  0  0  0  0  0  0  0  0  0
   -0.0492   -1.1891    0.3108 C   0  0  0  0  0  0  0  0  0  0  0  0
   -0.5282   -1.0472   -1.0978 O   0  0  0  0  0  0  0  0  0  0  0  0
   -1.1963   -0.3687    0.0457 C   0  0  0  0  0  0  0  0  0  0  0  0
   -2.5657   -0.9851    0.1872 C   0  0  0  0  0  0  0  0  0  0  0  0
   -1.1807    1.1085   -0.1231 C   0  0  0  0  0  0  0  0  0  0  0  0
    3.5097    0.8961   -0.7283 H   0  0  0  0  0  0  0  0  0  0  0  0
    3.4391    0.6119    1.0606 H   0  0  0  0  0  0  0  0  0  0  0  0
    2.9555    2.2531    0.3751 H   0  0  0  0  0  0  0  0  0  0  0  0
   -0.2033   -2.2212    0.6615 H   0  0  0  0  0  0  0  0  0  0  0  0
   -2.4603   -2.0845    0.1100 H   0  0  0  0  0  0  0  0  0  0  0  0
   -3.1568   -0.6571   -0.6942 H   0  0  0  0  0  0  0  0  0  0  0  0
   -3.1014   -0.6589    1.0791 H   0  0  0  0  0  0  0  0  0  0  0  0
   -2.1269    1.4079   -0.6380 H   0  0  0  0  0  0  0  0  0  0  0  0
   -0.3592    1.5079   -0.7266 H   0  0  0  0  0  0  0  0  0  0  0  0
   -1.1685    1.5753    0.8855 H   0  0  0  0  0  0  0  0  0  0  0  0
  1  2  1  0
  2  3  1  0
  3  4  2  0
  3  5  1  0
  5  6  1  0
  6  7  1  0
  7  8  1  0
  7  9  1  0
  7  5  1  0
  1 10  1  0
  1 11  1  0
  1 12  1  0
  5 13  1  0
  8 14  1  0
  8 15  1  0
  8 16  1  0
  9 17  1  0
  9 18  1  0
  9 19  1  0
M  END
