
     RDKit          3D

 21 20  0  0  0  0  0  0  0  0999 V2000
    0.9641    1.6455   -1.1563 C   0  0  0  0  0  0  0  0  0  0  0  0
    0.6963    0.2961   -1.3215 O   0  0  0  0  0  0  0  0  0  0  0  0
    0.6634   -0.3045   -0.0952 C   0  0  0  0  0  0  0  0  0  0  0  0
    1.7990   -1.3150    0.0313 C   0  0  0  0  0  0  0  0  0  0  0  0
   -0.6674   -0.9607    0.2082 C   0  0  0  0  0  0  0  0  0  0  0  0
   -0.9143   -1.9145   -0.7698 O   0  0  0  0  0  0  0  0  0  0  0  0
   -1.8069   -0.0015    0.2627 C   0  0  0  0  0  0  0  0  0  0  0  0
   -1.7138    1.0521    1.2758 C   0  0  0  0  0  0  0  0  0  0  0  0
   -1.5309    0.7769    2.4446 O   0  0  0  0  0  0  0  0  0  0  0  0
    0.1950    2.1538   -0.5474 H   0  0  0  0  0  0  0  0  0  0  0  0
    0.9804    2.1828   -2.1253 H   0  0  0  0  0  0  0  0  0  0  0  0
    1.9368    1.8042   -0.5953 H   0  0  0  0  0  0  0  0  0  0  0  0
    0.8449    0.4422    0.6953 H   0  0  0  0  0  0  0  0  0  0  0  0
    2.2506   -1.5098   -0.9867 H   0  0  0  0  0  0  0  0  0  0  0  0
    2.6232   -0.9367    0.6754 H   0  0  0  0  0  0  0  0  0  0  0  0
    1.4633   -2.2990    0.4044 H   0  0  0  0  0  0  0  0  0  0  0  0
   -0.5826   -1.5540    1.1721 H   0  0  0  0  0  0  0  0  0  0  0  0
   -0.7600   -1.4860   -1.6749 H   0  0  0  0  0  0  0  0  0  0  0  0
   -2.7370   -0.5931    0.4451 H   0  0  0  0  0  0  0  0  0  0  0  0
   -1.8973    0.4336   -0.7777 H   0  0  0  0  0  0  0  0  0  0  0  0
   -1.8068    2.0877    0.9819 H   0  0  0  0  0  0  0  0  0  0  0  0
  1  2  1  0
  2  3  1  0
  3  4  1  0
  3  5  1  0
  5  6  1  0
  5  7  1  0
  7  8  1  0
  8  9  2  0
  1 10  1  0
  1 11  1  0
  1 12  1  0
  3 13  1  0
  4 14  1  0
  4 15  1  0
  4 16  1  0
  5 17  1  0
  6 18  1  0
  7 19  1  0
  7 20  1  0
  8 21  1  0
M  END
