
     RDKit          3D

 17 17  0  0  0  0  0  0  0  0999 V2000
    2.6420    0.6566    0.9874 C   0  0  0  0  0  0  0  0  0  0  0  0
    1.2975    0.5990    0.5801 O   0  0  0  0  0  0  0  0  0  0  0  0
    0.6564   -0.5433    0.1532 C   0  0  0  0  0  0  0  0  0  0  0  0
    1.2832   -1.6158    0.1138 O   0  0  0  0  0  0  0  0  0  0  0  0
   -0.7709   -0.4628   -0.2497 C   0  0  0  0  0  0  0  0  0  0  0  0
   -1.4176    0.8841   -0.1590 C   0  0  0  0  0  0  0  0  0  0  0  0
   -1.9582    1.0111    1.1227 O   0  0  0  0  0  0  0  0  0  0  0  0
   -1.1552   -1.4159   -1.3428 C   0  0  0  0  0  0  0  0  0  0  0  0
   -1.5972   -1.5565   -0.0498 O   0  0  0  0  0  0  0  0  0  0  0  0
    2.8993   -0.2766    1.5069 H   0  0  0  0  0  0  0  0  0  0  0  0
    3.2680    0.7951    0.0697 H   0  0  0  0  0  0  0  0  0  0  0  0
    2.7524    1.5609    1.6172 H   0  0  0  0  0  0  0  0  0  0  0  0
   -0.6304    1.6895   -0.2284 H   0  0  0  0  0  0  0  0  0  0  0  0
   -2.1390    1.1004   -0.9543 H   0  0  0  0  0  0  0  0  0  0  0  0
   -2.9068    0.7303    1.1266 H   0  0  0  0  0  0  0  0  0  0  0  0
   -0.4209   -2.1845   -1.6560 H   0  0  0  0  0  0  0  0  0  0  0  0
   -1.8025   -0.9715   -2.1260 H   0  0  0  0  0  0  0  0  0  0  0  0
  1  2  1  0
  2  3  1  0
  3  4  2  0
  3  5  1  0
  5  6  1  0
  6  7  1  0
  5  8  1  0
  8  9  1  0
  9  5  1  0
  1 10  1  0
  1 11  1  0
  1 12  1  0
  6 13  1  0
  6 14  1  0
  7 15  1  0
  8 16  1  0
  8 17  1  0
M  END
