
     RDKit          3D

 19 20  0  0  0  0  0  0  0  0999 V2000
    3.4378   -0.1475   -0.3369 C   0  0  0  0  0  0  0  0  0  0  0  0
    2.1457    0.4196   -0.2335 O   0  0  0  0  0  0  0  0  0  0  0  0
    1.0008   -0.1822   -0.7229 C   0  0  0  0  0  0  0  0  0  0  0  0
    1.1242   -1.2961   -1.2904 O   0  0  0  0  0  0  0  0  0  0  0  0
   -0.3426    0.4013   -0.6186 C   0  0  0  0  0  0  0  0  0  0  0  0
   -0.7765    0.6326    0.8503 C   0  0  0  0  0  0  0  0  0  0  0  0
   -2.1253    0.6509    0.1487 C   0  0  0  0  0  0  0  0  0  0  0  0
   -2.8455   -0.4450   -0.3948 C   0  0  0  0  0  0  0  0  0  0  0  0
   -1.4402   -0.6424   -0.4740 C   0  0  0  0  0  0  0  0  0  0  0  0
    3.4733   -1.2014   -0.0604 H   0  0  0  0  0  0  0  0  0  0  0  0
    3.8589   -0.0263   -1.3638 H   0  0  0  0  0  0  0  0  0  0  0  0
    4.1068    0.4507    0.3250 H   0  0  0  0  0  0  0  0  0  0  0  0
   -0.5763    1.2447   -1.2805 H   0  0  0  0  0  0  0  0  0  0  0  0
   -0.4473    1.6042    1.2040 H   0  0  0  0  0  0  0  0  0  0  0  0
   -0.5452   -0.2484    1.4419 H   0  0  0  0  0  0  0  0  0  0  0  0
   -2.0961    1.5522   -0.5482 H   0  0  0  0  0  0  0  0  0  0  0  0
   -3.4968   -1.0255    0.3272 H   0  0  0  0  0  0  0  0  0  0  0  0
   -3.4017   -0.3711   -1.3782 H   0  0  0  0  0  0  0  0  0  0  0  0
   -1.0539   -1.3704    0.3116 H   0  0  0  0  0  0  0  0  0  0  0  0
  1  2  1  0
  2  3  1  0
  3  4  2  0
  3  5  1  0
  5  6  1  0
  6  7  1  0
  7  8  1  0
  8  9  1  0
  9  5  1  0
  9  7  1  0
  1 10  1  0
  1 11  1  0
  1 12  1  0
  5 13  1  0
  6 14  1  0
  6 15  1  0
  7 16  1  0
  8 17  1  0
  8 18  1  0
  9 19  1  0
M  END
