
     RDKit          3D

 19 19  0  0  0  0  0  0  0  0999 V2000
   -2.4206   -1.3931    0.1982 C   0  0  0  0  0  0  0  0  0  0  0  0
   -1.4203   -0.6463    0.8153 O   0  0  0  0  0  0  0  0  0  0  0  0
   -0.6948    0.0946   -0.1102 C   0  0  0  0  0  0  0  0  0  0  0  0
   -0.8430    1.5683    0.1396 C   0  0  0  0  0  0  0  0  0  0  0  0
    0.7242   -0.3804   -0.0724 C   0  0  0  0  0  0  0  0  0  0  0  0
    1.3074   -0.2064    1.2366 O   0  0  0  0  0  0  0  0  0  0  0  0
    1.8830    0.4624    0.0375 C   0  0  0  0  0  0  0  0  0  0  0  0
    3.2056   -0.1245   -0.2358 C   0  0  0  0  0  0  0  0  0  0  0  0
    4.1759    0.5985   -0.3635 O   0  0  0  0  0  0  0  0  0  0  0  0
   -1.9416   -2.0761   -0.5174 H   0  0  0  0  0  0  0  0  0  0  0  0
   -3.0824   -0.6807   -0.3671 H   0  0  0  0  0  0  0  0  0  0  0  0
   -3.0263   -1.8895    0.9700 H   0  0  0  0  0  0  0  0  0  0  0  0
   -1.1252   -0.1185   -1.1207 H   0  0  0  0  0  0  0  0  0  0  0  0
   -0.0472    2.0122    0.7346 H   0  0  0  0  0  0  0  0  0  0  0  0
   -1.8509    1.7141    0.6145 H   0  0  0  0  0  0  0  0  0  0  0  0
   -0.8974    2.1162   -0.8435 H   0  0  0  0  0  0  0  0  0  0  0  0
    0.8585   -1.4064   -0.5017 H   0  0  0  0  0  0  0  0  0  0  0  0
    1.8439    1.5552    0.1135 H   0  0  0  0  0  0  0  0  0  0  0  0
    3.3514   -1.1995   -0.3298 H   0  0  0  0  0  0  0  0  0  0  0  0
  1  2  1  0
  2  3  1  0
  3  4  1  0
  3  5  1  0
  5  6  1  0
  6  7  1  0
  7  8  1  0
  8  9  2  0
  7  5  1  0
  1 10  1  0
  1 11  1  0
  1 12  1  0
  3 13  1  0
  4 14  1  0
  4 15  1  0
  4 16  1  0
  5 17  1  0
  7 18  1  0
  8 19  1  0
M  END
