
     RDKit          3D

 19 19  0  0  0  0  0  0  0  0999 V2000
    3.4775    0.1983    0.7114 C   0  0  0  0  0  0  0  0  0  0  0  0
    2.1360   -0.0694    1.0909 O   0  0  0  0  0  0  0  0  0  0  0  0
    1.1559   -0.4755    0.2199 C   0  0  0  0  0  0  0  0  0  0  0  0
    1.4786   -0.6159   -0.9886 O   0  0  0  0  0  0  0  0  0  0  0  0
   -0.2474   -0.7503    0.6450 C   0  0  0  0  0  0  0  0  0  0  0  0
   -1.1087   -1.6785   -0.0796 C   0  0  0  0  0  0  0  0  0  0  0  0
   -1.2883   -0.2494   -0.3644 C   0  0  0  0  0  0  0  0  0  0  0  0
   -2.2962    0.5047    0.2097 O   0  0  0  0  0  0  0  0  0  0  0  0
   -2.6364    1.5632   -0.6051 C   0  0  0  0  0  0  0  0  0  0  0  0
    3.5633    0.4459   -0.3649 H   0  0  0  0  0  0  0  0  0  0  0  0
    4.1812   -0.5808    1.0097 H   0  0  0  0  0  0  0  0  0  0  0  0
    3.7728    1.1233    1.2861 H   0  0  0  0  0  0  0  0  0  0  0  0
   -0.4632   -0.6067    1.7230 H   0  0  0  0  0  0  0  0  0  0  0  0
   -1.9228   -2.1871    0.4756 H   0  0  0  0  0  0  0  0  0  0  0  0
   -0.6821   -2.3277   -0.8809 H   0  0  0  0  0  0  0  0  0  0  0  0
   -0.9288    0.1034   -1.3495 H   0  0  0  0  0  0  0  0  0  0  0  0
   -3.4433    2.1360   -0.1069 H   0  0  0  0  0  0  0  0  0  0  0  0
   -1.7742    2.2506   -0.8016 H   0  0  0  0  0  0  0  0  0  0  0  0
   -2.9741    1.2160   -1.6048 H   0  0  0  0  0  0  0  0  0  0  0  0
  1  2  1  0
  2  3  1  0
  3  4  2  0
  3  5  1  0
  5  6  1  0
  6  7  1  0
  7  8  1  0
  8  9  1  0
  7  5  1  0
  1 10  1  0
  1 11  1  0
  1 12  1  0
  5 13  1  0
  6 14  1  0
  6 15  1  0
  7 16  1  0
  9 17  1  0
  9 18  1  0
  9 19  1  0
M  END
