
     RDKit          3D

 23 23  0  0  0  0  0  0  0  0999 V2000
   -2.3758   -1.5740   -0.4010 C   0  0  0  0  0  0  0  0  0  0  0  0
   -1.1565   -1.0405   -0.7772 O   0  0  0  0  0  0  0  0  0  0  0  0
   -0.8130   -0.0046    0.0637 C   0  0  0  0  0  0  0  0  0  0  0  0
   -0.7313    1.3157   -0.6583 C   0  0  0  0  0  0  0  0  0  0  0  0
    0.4371   -0.3294    0.8293 C   0  0  0  0  0  0  0  0  0  0  0  0
    0.7947    0.8442    1.7548 C   0  0  0  0  0  0  0  0  0  0  0  0
    1.4018    1.4151    0.6092 O   0  0  0  0  0  0  0  0  0  0  0  0
    1.7382    0.1099    0.2520 C   0  0  0  0  0  0  0  0  0  0  0  0
    2.0068   -0.1617   -1.1765 C   0  0  0  0  0  0  0  0  0  0  0  0
   -2.5875   -2.4098   -1.1303 H   0  0  0  0  0  0  0  0  0  0  0  0
   -3.2166   -0.8813   -0.4585 H   0  0  0  0  0  0  0  0  0  0  0  0
   -2.3566   -1.9883    0.6351 H   0  0  0  0  0  0  0  0  0  0  0  0
   -1.6210    0.1101    0.8135 H   0  0  0  0  0  0  0  0  0  0  0  0
   -1.6629    1.3908   -1.2811 H   0  0  0  0  0  0  0  0  0  0  0  0
    0.1094    1.4224   -1.3387 H   0  0  0  0  0  0  0  0  0  0  0  0
   -0.8232    2.1441    0.0894 H   0  0  0  0  0  0  0  0  0  0  0  0
    0.3833   -1.2911    1.3296 H   0  0  0  0  0  0  0  0  0  0  0  0
    1.5651    0.6079    2.5046 H   0  0  0  0  0  0  0  0  0  0  0  0
   -0.1100    1.3485    2.0875 H   0  0  0  0  0  0  0  0  0  0  0  0
    2.5685   -0.2176    0.9347 H   0  0  0  0  0  0  0  0  0  0  0  0
    1.1928   -0.6796   -1.7237 H   0  0  0  0  0  0  0  0  0  0  0  0
    2.3775    0.7471   -1.7234 H   0  0  0  0  0  0  0  0  0  0  0  0
    2.8790   -0.8779   -1.2346 H   0  0  0  0  0  0  0  0  0  0  0  0
  1  2  1  0
  2  3  1  0
  3  4  1  0
  3  5  1  0
  5  6  1  0
  6  7  1  0
  7  8  1  0
  8  9  1  0
  8  5  1  0
  1 10  1  0
  1 11  1  0
  1 12  1  0
  3 13  1  0
  4 14  1  0
  4 15  1  0
  4 16  1  0
  5 17  1  0
  6 18  1  0
  6 19  1  0
  8 20  1  0
  9 21  1  0
  9 22  1  0
  9 23  1  0
M  END
