
     RDKit          3D

 14 13  0  0  0  0  0  0  0  0999 V2000
   -2.4132    0.3117   -0.7500 C   0  0  0  0  0  0  0  0  0  0  0  0
   -1.2113   -0.0325   -0.1273 O   0  0  0  0  0  0  0  0  0  0  0  0
   -0.0576   -0.1988   -0.8508 C   0  0  0  0  0  0  0  0  0  0  0  0
   -0.0600   -0.0454   -2.0813 O   0  0  0  0  0  0  0  0  0  0  0  0
    1.1790   -0.5617   -0.1403 C   0  0  0  0  0  0  0  0  0  0  0  0
    2.2447   -0.6875   -1.0317 O   0  0  0  0  0  0  0  0  0  0  0  0
    1.4488    0.5001    0.8662 C   0  0  0  0  0  0  0  0  0  0  0  0
    2.4634    1.1611    0.8974 O   0  0  0  0  0  0  0  0  0  0  0  0
   -3.2430    0.1120   -0.0255 H   0  0  0  0  0  0  0  0  0  0  0  0
   -2.6041   -0.3518   -1.6188 H   0  0  0  0  0  0  0  0  0  0  0  0
   -2.4934    1.3904   -1.0013 H   0  0  0  0  0  0  0  0  0  0  0  0
    0.9716   -1.5477    0.3681 H   0  0  0  0  0  0  0  0  0  0  0  0
    3.0675   -0.7639   -0.4530 H   0  0  0  0  0  0  0  0  0  0  0  0
    0.7075    0.7138    1.6282 H   0  0  0  0  0  0  0  0  0  0  0  0
  1  2  1  0
  2  3  1  0
  3  4  2  0
  3  5  1  0
  5  6  1  0
  5  7  1  0
  7  8  2  0
  1  9  1  0
  1 10  1  0
  1 11  1  0
  5 12  1  0
  6 13  1  0
  7 14  1  0
M  END
