
     RDKit          3D

 23 23  0  0  0  0  0  0  0  0999 V2000
   -1.9774    1.7045   -1.4012 C   0  0  0  0  0  0  0  0  0  0  0  0
   -1.0599    1.1589   -0.4883 O   0  0  0  0  0  0  0  0  0  0  0  0
   -1.0277   -0.2064   -0.5778 C   0  0  0  0  0  0  0  0  0  0  0  0
   -1.5455   -0.8007    0.7226 C   0  0  0  0  0  0  0  0  0  0  0  0
    0.3089   -0.7705   -0.9557 C   0  0  0  0  0  0  0  0  0  0  0  0
    1.4056   -0.4344    0.0085 C   0  0  0  0  0  0  0  0  0  0  0  0
    1.6886    1.0403    0.2051 C   0  0  0  0  0  0  0  0  0  0  0  0
    2.1319   -1.3928    0.7858 C   0  0  0  0  0  0  0  0  0  0  0  0
    2.6527   -1.0522   -0.5277 O   0  0  0  0  0  0  0  0  0  0  0  0
   -1.6661    1.4108   -2.4458 H   0  0  0  0  0  0  0  0  0  0  0  0
   -1.9293    2.8123   -1.3949 H   0  0  0  0  0  0  0  0  0  0  0  0
   -3.0048    1.3206   -1.2196 H   0  0  0  0  0  0  0  0  0  0  0  0
   -1.7486   -0.5244   -1.3624 H   0  0  0  0  0  0  0  0  0  0  0  0
   -1.9020   -1.8445    0.5901 H   0  0  0  0  0  0  0  0  0  0  0  0
   -2.3828   -0.1329    1.0668 H   0  0  0  0  0  0  0  0  0  0  0  0
   -0.7410   -0.8543    1.4909 H   0  0  0  0  0  0  0  0  0  0  0  0
    0.6070   -0.3618   -1.9429 H   0  0  0  0  0  0  0  0  0  0  0  0
    0.1982   -1.8690   -1.0686 H   0  0  0  0  0  0  0  0  0  0  0  0
    1.6811    1.5860   -0.7832 H   0  0  0  0  0  0  0  0  0  0  0  0
    2.7170    1.1847    0.5967 H   0  0  0  0  0  0  0  0  0  0  0  0
    0.9273    1.5359    0.8315 H   0  0  0  0  0  0  0  0  0  0  0  0
    1.8302   -2.4677    0.7709 H   0  0  0  0  0  0  0  0  0  0  0  0
    2.8367   -1.0422    1.5471 H   0  0  0  0  0  0  0  0  0  0  0  0
  1  2  1  0
  2  3  1  0
  3  4  1  0
  3  5  1  0
  5  6  1  0
  6  7  1  0
  6  8  1  0
  8  9  1  0
  9  6  1  0
  1 10  1  0
  1 11  1  0
  1 12  1  0
  3 13  1  0
  4 14  1  0
  4 15  1  0
  4 16  1  0
  5 17  1  0
  5 18  1  0
  7 19  1  0
  7 20  1  0
  7 21  1  0
  8 22  1  0
  8 23  1  0
M  END
