
     RDKit          3D

 15 14  0  0  0  0  0  0  0  0999 V2000
    2.2262   -0.1170   -0.2175 C   0  0  0  0  0  0  0  0  0  0  0  0
    1.0875   -0.0257    0.5708 O   0  0  0  0  0  0  0  0  0  0  0  0
   -0.0700    0.1325   -0.1307 C   0  0  0  0  0  0  0  0  0  0  0  0
   -0.6989    1.4272    0.2346 C   0  0  0  0  0  0  0  0  0  0  0  0
   -0.1708    2.1393    1.0388 O   0  0  0  0  0  0  0  0  0  0  0  0
   -1.0962   -0.9501    0.1299 C   0  0  0  0  0  0  0  0  0  0  0  0
   -2.2344   -0.6903   -0.6353 O   0  0  0  0  0  0  0  0  0  0  0  0
    3.0893   -0.2431    0.4933 H   0  0  0  0  0  0  0  0  0  0  0  0
    2.3558    0.8699   -0.7143 H   0  0  0  0  0  0  0  0  0  0  0  0
    2.2283   -0.9669   -0.9033 H   0  0  0  0  0  0  0  0  0  0  0  0
    0.0829    0.1641   -1.2434 H   0  0  0  0  0  0  0  0  0  0  0  0
   -1.6485    1.6967   -0.2545 H   0  0  0  0  0  0  0  0  0  0  0  0
   -1.3890   -0.9271    1.2004 H   0  0  0  0  0  0  0  0  0  0  0  0
   -0.7254   -1.9409   -0.1862 H   0  0  0  0  0  0  0  0  0  0  0  0
   -3.0369   -0.5685   -0.0559 H   0  0  0  0  0  0  0  0  0  0  0  0
  1  2  1  0
  2  3  1  0
  3  4  1  0
  4  5  2  0
  3  6  1  0
  6  7  1  0
  1  8  1  0
  1  9  1  0
  1 10  1  0
  3 11  1  0
  4 12  1  0
  6 13  1  0
  6 14  1  0
  7 15  1  0
M  END
