
     RDKit          3D

 25 24  0  0  0  0  0  0  0  0999 V2000
    3.0632   -0.7996   -0.4510 C   0  0  0  0  0  0  0  0  0  0  0  0
    1.9753   -0.2514   -1.0809 O   0  0  0  0  0  0  0  0  0  0  0  0
    0.9866    0.1906   -0.1559 C   0  0  0  0  0  0  0  0  0  0  0  0
    0.9187    1.6700   -0.3618 C   0  0  0  0  0  0  0  0  0  0  0  0
   -0.2146   -0.5924   -0.4968 C   0  0  0  0  0  0  0  0  0  0  0  0
   -1.4565   -0.4237    0.2537 C   0  0  0  0  0  0  0  0  0  0  0  0
   -1.9657    0.9912    0.1591 C   0  0  0  0  0  0  0  0  0  0  0  0
   -1.4360   -0.9339    1.6717 C   0  0  0  0  0  0  0  0  0  0  0  0
   -2.4333   -1.2222   -0.4009 O   0  0  0  0  0  0  0  0  0  0  0  0
    3.7827   -1.1170   -1.2331 H   0  0  0  0  0  0  0  0  0  0  0  0
    2.8065   -1.6879    0.1703 H   0  0  0  0  0  0  0  0  0  0  0  0
    3.5701   -0.0047    0.1446 H   0  0  0  0  0  0  0  0  0  0  0  0
    1.4032   -0.0480    0.8412 H   0  0  0  0  0  0  0  0  0  0  0  0
    1.9991    2.0211   -0.2949 H   0  0  0  0  0  0  0  0  0  0  0  0
    0.6570    1.9081   -1.4262 H   0  0  0  0  0  0  0  0  0  0  0  0
    0.3913    2.2482    0.3879 H   0  0  0  0  0  0  0  0  0  0  0  0
    0.1012   -1.6806   -0.4648 H   0  0  0  0  0  0  0  0  0  0  0  0
   -0.4324   -0.4411   -1.5981 H   0  0  0  0  0  0  0  0  0  0  0  0
   -3.0934    0.9922    0.0492 H   0  0  0  0  0  0  0  0  0  0  0  0
   -1.5770    1.4936   -0.7396 H   0  0  0  0  0  0  0  0  0  0  0  0
   -1.7802    1.5887    1.0714 H   0  0  0  0  0  0  0  0  0  0  0  0
   -0.4020   -1.0096    2.0786 H   0  0  0  0  0  0  0  0  0  0  0  0
   -1.8740   -1.9490    1.7779 H   0  0  0  0  0  0  0  0  0  0  0  0
   -2.0790   -0.2622    2.2800 H   0  0  0  0  0  0  0  0  0  0  0  0
   -2.9109   -0.6802   -1.0800 H   0  0  0  0  0  0  0  0  0  0  0  0
  1  2  1  0
  2  3  1  0
  3  4  1  0
  3  5  1  0
  5  6  1  0
  6  7  1  0
  6  8  1  0
  6  9  1  0
  1 10  1  0
  1 11  1  0
  1 12  1  0
  3 13  1  0
  4 14  1  0
  4 15  1  0
  4 16  1  0
  5 17  1  0
  5 18  1  0
  7 19  1  0
  7 20  1  0
  7 21  1  0
  8 22  1  0
  8 23  1  0
  8 24  1  0
  9 25  1  0
M  END
