
     RDKit          3D

 17 17  0  0  0  0  0  0  0  0999 V2000
    3.1281    0.0252    0.6732 C   0  0  0  0  0  0  0  0  0  0  0  0
    1.7322    0.3559    0.6763 O   0  0  0  0  0  0  0  0  0  0  0  0
    0.9897   -0.0079   -0.4359 C   0  0  0  0  0  0  0  0  0  0  0  0
    1.5436   -0.6074   -1.4032 O   0  0  0  0  0  0  0  0  0  0  0  0
   -0.4623    0.2667   -0.5759 C   0  0  0  0  0  0  0  0  0  0  0  0
   -1.2694   -0.9851   -0.5944 C   0  0  0  0  0  0  0  0  0  0  0  0
   -2.4445   -0.6544   -0.0694 C   0  0  0  0  0  0  0  0  0  0  0  0
   -2.3669    0.8037    0.2751 C   0  0  0  0  0  0  0  0  0  0  0  0
   -0.9794    0.9230    0.5266 O   0  0  0  0  0  0  0  0  0  0  0  0
    3.4988    0.0558   -0.3844 H   0  0  0  0  0  0  0  0  0  0  0  0
    3.2923   -1.0171    1.0344 H   0  0  0  0  0  0  0  0  0  0  0  0
    3.7200    0.7676    1.2348 H   0  0  0  0  0  0  0  0  0  0  0  0
   -0.6498    0.9058   -1.4630 H   0  0  0  0  0  0  0  0  0  0  0  0
   -0.9299   -1.9444   -0.9674 H   0  0  0  0  0  0  0  0  0  0  0  0
   -3.2545   -1.3433    0.0574 H   0  0  0  0  0  0  0  0  0  0  0  0
   -2.9707    1.0672    1.1475 H   0  0  0  0  0  0  0  0  0  0  0  0
   -2.5775    1.3886   -0.6337 H   0  0  0  0  0  0  0  0  0  0  0  0
  1  2  1  0
  2  3  1  0
  3  4  2  0
  3  5  1  0
  5  6  1  0
  6  7  2  0
  7  8  1  0
  8  9  1  0
  9  5  1  0
  1 10  1  0
  1 11  1  0
  1 12  1  0
  5 13  1  0
  6 14  1  0
  7 15  1  0
  8 16  1  0
  8 17  1  0
M  END
