
     RDKit          3D

 21 21  0  0  0  0  0  0  0  0999 V2000
    2.1989   -1.1608   -0.7768 C   0  0  0  0  0  0  0  0  0  0  0  0
    1.1830   -0.3123   -1.1702 O   0  0  0  0  0  0  0  0  0  0  0  0
    0.8601    0.6188   -0.2109 C   0  0  0  0  0  0  0  0  0  0  0  0
    1.0508    2.0168   -0.6808 C   0  0  0  0  0  0  0  0  0  0  0  0
    0.8083    2.9556    0.0517 O   0  0  0  0  0  0  0  0  0  0  0  0
   -0.5391    0.4921    0.3108 C   0  0  0  0  0  0  0  0  0  0  0  0
   -0.9130   -0.7942    0.9636 C   0  0  0  0  0  0  0  0  0  0  0  0
   -2.2349   -0.7425    0.1972 C   0  0  0  0  0  0  0  0  0  0  0  0
   -1.6286    0.3352   -0.6931 C   0  0  0  0  0  0  0  0  0  0  0  0
    3.1415   -0.5833   -0.5499 H   0  0  0  0  0  0  0  0  0  0  0  0
    1.9902   -1.7615    0.1052 H   0  0  0  0  0  0  0  0  0  0  0  0
    2.4712   -1.8337   -1.6158 H   0  0  0  0  0  0  0  0  0  0  0  0
    1.5419    0.4234    0.6692 H   0  0  0  0  0  0  0  0  0  0  0  0
    1.4068    2.2217   -1.6772 H   0  0  0  0  0  0  0  0  0  0  0  0
   -0.7611    1.3545    0.9873 H   0  0  0  0  0  0  0  0  0  0  0  0
   -1.0528   -0.7035    2.0795 H   0  0  0  0  0  0  0  0  0  0  0  0
   -0.3322   -1.6913    0.7021 H   0  0  0  0  0  0  0  0  0  0  0  0
   -2.4434   -1.6471   -0.3997 H   0  0  0  0  0  0  0  0  0  0  0  0
   -3.0532   -0.3932    0.8418 H   0  0  0  0  0  0  0  0  0  0  0  0
   -2.3462    1.1991   -0.7438 H   0  0  0  0  0  0  0  0  0  0  0  0
   -1.3481    0.0063   -1.7031 H   0  0  0  0  0  0  0  0  0  0  0  0
  1  2  1  0
  2  3  1  0
  3  4  1  0
  4  5  2  0
  3  6  1  0
  6  7  1  0
  7  8  1  0
  8  9  1  0
  9  6  1  0
  1 10  1  0
  1 11  1  0
  1 12  1  0
  3 13  1  0
  4 14  1  0
  6 15  1  0
  7 16  1  0
  7 17  1  0
  8 18  1  0
  8 19  1  0
  9 20  1  0
  9 21  1  0
M  END
