
     RDKit          3D

 19 19  0  0  0  0  0  0  0  0999 V2000
    2.7027    1.0777   -0.0917 C   0  0  0  0  0  0  0  0  0  0  0  0
    1.3763    0.5896   -0.1688 O   0  0  0  0  0  0  0  0  0  0  0  0
    1.1282   -0.7655    0.0330 C   0  0  0  0  0  0  0  0  0  0  0  0
    2.1223   -1.4927    0.2779 O   0  0  0  0  0  0  0  0  0  0  0  0
   -0.1966   -1.3742   -0.0232 C   0  0  0  0  0  0  0  0  0  0  0  0
   -1.0161   -0.8999   -1.2487 C   0  0  0  0  0  0  0  0  0  0  0  0
   -1.4465   -0.6103    0.1490 C   0  0  0  0  0  0  0  0  0  0  0  0
   -1.4291    0.8090    0.6662 C   0  0  0  0  0  0  0  0  0  0  0  0
   -2.7183    1.3328    0.7479 O   0  0  0  0  0  0  0  0  0  0  0  0
    2.9553    1.5031    0.8831 H   0  0  0  0  0  0  0  0  0  0  0  0
    2.8835    1.7737   -0.9468 H   0  0  0  0  0  0  0  0  0  0  0  0
    3.4308    0.2315   -0.2599 H   0  0  0  0  0  0  0  0  0  0  0  0
   -0.2248   -2.4705    0.1609 H   0  0  0  0  0  0  0  0  0  0  0  0
   -1.4942   -1.7108   -1.8295 H   0  0  0  0  0  0  0  0  0  0  0  0
   -0.6331   -0.0706   -1.8460 H   0  0  0  0  0  0  0  0  0  0  0  0
   -2.3278   -1.1932    0.4874 H   0  0  0  0  0  0  0  0  0  0  0  0
   -0.9549    0.9222    1.6418 H   0  0  0  0  0  0  0  0  0  0  0  0
   -0.8779    1.4856   -0.0478 H   0  0  0  0  0  0  0  0  0  0  0  0
   -3.2800    0.8626    1.4151 H   0  0  0  0  0  0  0  0  0  0  0  0
  1  2  1  0
  2  3  1  0
  3  4  2  0
  3  5  1  0
  5  6  1  0
  6  7  1  0
  7  8  1  0
  8  9  1  0
  7  5  1  0
  1 10  1  0
  1 11  1  0
  1 12  1  0
  5 13  1  0
  6 14  1  0
  6 15  1  0
  7 16  1  0
  8 17  1  0
  8 18  1  0
  9 19  1  0
M  END
