
     RDKit          3D

 21 20  0  0  0  0  0  0  0  0999 V2000
    3.6525    0.8921   -0.1751 C   0  0  0  0  0  0  0  0  0  0  0  0
    2.6644   -0.0691    0.1371 O   0  0  0  0  0  0  0  0  0  0  0  0
    1.3222    0.1026   -0.1016 C   0  0  0  0  0  0  0  0  0  0  0  0
    0.9663    1.1797   -0.6277 O   0  0  0  0  0  0  0  0  0  0  0  0
    0.2980   -0.9086    0.2288 C   0  0  0  0  0  0  0  0  0  0  0  0
   -1.1026   -0.5411   -0.0893 C   0  0  0  0  0  0  0  0  0  0  0  0
   -1.9468   -1.7735    0.3534 C   0  0  0  0  0  0  0  0  0  0  0  0
   -1.5775    0.5099    0.6702 O   0  0  0  0  0  0  0  0  0  0  0  0
   -2.2056    1.5092   -0.0504 C   0  0  0  0  0  0  0  0  0  0  0  0
    4.5168    0.6983    0.5022 H   0  0  0  0  0  0  0  0  0  0  0  0
    3.2877    1.9340   -0.0828 H   0  0  0  0  0  0  0  0  0  0  0  0
    4.0369    0.7791   -1.2062 H   0  0  0  0  0  0  0  0  0  0  0  0
    0.4211   -1.3113    1.2607 H   0  0  0  0  0  0  0  0  0  0  0  0
    0.5495   -1.7927   -0.4371 H   0  0  0  0  0  0  0  0  0  0  0  0
   -1.2495   -0.4159   -1.1774 H   0  0  0  0  0  0  0  0  0  0  0  0
   -2.9965   -1.4822    0.4429 H   0  0  0  0  0  0  0  0  0  0  0  0
   -1.5535   -2.0215    1.3611 H   0  0  0  0  0  0  0  0  0  0  0  0
   -1.7667   -2.6142   -0.3485 H   0  0  0  0  0  0  0  0  0  0  0  0
   -1.5936    2.0053   -0.8074 H   0  0  0  0  0  0  0  0  0  0  0  0
   -2.6184    2.2394    0.6998 H   0  0  0  0  0  0  0  0  0  0  0  0
   -3.1049    1.0807   -0.5529 H   0  0  0  0  0  0  0  0  0  0  0  0
  1  2  1  0
  2  3  1  0
  3  4  2  0
  3  5  1  0
  5  6  1  0
  6  7  1  0
  6  8  1  0
  8  9  1  0
  1 10  1  0
  1 11  1  0
  1 12  1  0
  5 13  1  0
  5 14  1  0
  6 15  1  0
  7 16  1  0
  7 17  1  0
  7 18  1  0
  9 19  1  0
  9 20  1  0
  9 21  1  0
M  END
