
     RDKit          3D

 23 24  0  0  0  0  0  0  0  0999 V2000
   -0.4922    2.7879    0.2487 C   0  0  0  0  0  0  0  0  0  0  0  0
   -0.1826    1.5721    0.7836 O   0  0  0  0  0  0  0  0  0  0  0  0
   -0.1350    0.5469   -0.2182 C   0  0  0  0  0  0  0  0  0  0  0  0
    1.2652    0.2289   -0.3326 C   0  0  0  0  0  0  0  0  0  0  0  0
    1.9104   -0.7882   -1.1591 C   0  0  0  0  0  0  0  0  0  0  0  0
    1.8514   -0.9977    0.3281 C   0  0  0  0  0  0  0  0  0  0  0  0
   -1.2395   -0.3253    0.0298 C   0  0  0  0  0  0  0  0  0  0  0  0
   -1.5355   -1.1668    1.1840 C   0  0  0  0  0  0  0  0  0  0  0  0
   -1.3439   -1.7984   -0.1878 C   0  0  0  0  0  0  0  0  0  0  0  0
    0.3067    3.0372   -0.5043 H   0  0  0  0  0  0  0  0  0  0  0  0
   -0.5127    3.5439    1.0307 H   0  0  0  0  0  0  0  0  0  0  0  0
   -1.4948    2.7612   -0.2195 H   0  0  0  0  0  0  0  0  0  0  0  0
   -0.3897    1.1526   -1.1690 H   0  0  0  0  0  0  0  0  0  0  0  0
    1.9219    1.1636   -0.2183 H   0  0  0  0  0  0  0  0  0  0  0  0
    1.3736   -1.4691   -1.8429 H   0  0  0  0  0  0  0  0  0  0  0  0
    2.9345   -0.6000   -1.5309 H   0  0  0  0  0  0  0  0  0  0  0  0
    2.8290   -0.8424    0.9058 H   0  0  0  0  0  0  0  0  0  0  0  0
    1.2638   -1.7500    0.8260 H   0  0  0  0  0  0  0  0  0  0  0  0
   -2.2154    0.1891   -0.3462 H   0  0  0  0  0  0  0  0  0  0  0  0
   -0.8204   -1.4079    1.9874 H   0  0  0  0  0  0  0  0  0  0  0  0
   -2.5733   -1.2541    1.5498 H   0  0  0  0  0  0  0  0  0  0  0  0
   -0.4604   -2.3540   -0.4668 H   0  0  0  0  0  0  0  0  0  0  0  0
   -2.2613   -2.2296   -0.6783 H   0  0  0  0  0  0  0  0  0  0  0  0
  1  2  1  0
  2  3  1  0
  3  4  1  0
  4  5  1  0
  5  6  1  0
  3  7  1  0
  7  8  1  0
  8  9  1  0
  6  4  1  0
  9  7  1  0
  1 10  1  0
  1 11  1  0
  1 12  1  0
  3 13  1  0
  4 14  1  0
  5 15  1  0
  5 16  1  0
  6 17  1  0
  6 18  1  0
  7 19  1  0
  8 20  1  0
  8 21  1  0
  9 22  1  0
  9 23  1  0
M  END
