
     RDKit          3D

 25 24  0  0  0  0  0  0  0  0999 V2000
    2.3538    0.6799    1.1355 C   0  0  0  0  0  0  0  0  0  0  0  0
    1.8263    0.7088   -0.1196 O   0  0  0  0  0  0  0  0  0  0  0  0
    1.0435   -0.3463   -0.4795 C   0  0  0  0  0  0  0  0  0  0  0  0
    1.5582   -1.1215   -1.6705 C   0  0  0  0  0  0  0  0  0  0  0  0
   -0.3735    0.0594   -0.8410 C   0  0  0  0  0  0  0  0  0  0  0  0
   -1.1038   -1.0794   -1.1975 O   0  0  0  0  0  0  0  0  0  0  0  0
   -1.1056    0.7003    0.3100 C   0  0  0  0  0  0  0  0  0  0  0  0
   -1.2132   -0.2156    1.4788 C   0  0  0  0  0  0  0  0  0  0  0  0
   -2.4917    1.0466   -0.1931 C   0  0  0  0  0  0  0  0  0  0  0  0
    1.6279    0.6455    1.9620 H   0  0  0  0  0  0  0  0  0  0  0  0
    2.9340    1.6279    1.2793 H   0  0  0  0  0  0  0  0  0  0  0  0
    3.0696   -0.1523    1.2876 H   0  0  0  0  0  0  0  0  0  0  0  0
    0.9964   -1.0499    0.3785 H   0  0  0  0  0  0  0  0  0  0  0  0
    2.5485   -1.5528   -1.5183 H   0  0  0  0  0  0  0  0  0  0  0  0
    0.8468   -1.9419   -1.8799 H   0  0  0  0  0  0  0  0  0  0  0  0
    1.5907   -0.4847   -2.5835 H   0  0  0  0  0  0  0  0  0  0  0  0
   -0.3771    0.7322   -1.7098 H   0  0  0  0  0  0  0  0  0  0  0  0
   -0.8400   -1.8774   -0.6958 H   0  0  0  0  0  0  0  0  0  0  0  0
   -0.6415    1.6522    0.6310 H   0  0  0  0  0  0  0  0  0  0  0  0
   -2.2770   -0.3313    1.7633 H   0  0  0  0  0  0  0  0  0  0  0  0
   -0.8347   -1.2325    1.2585 H   0  0  0  0  0  0  0  0  0  0  0  0
   -0.6763    0.1317    2.3843 H   0  0  0  0  0  0  0  0  0  0  0  0
   -3.1754    1.1795    0.6593 H   0  0  0  0  0  0  0  0  0  0  0  0
   -2.8989    0.2314   -0.8417 H   0  0  0  0  0  0  0  0  0  0  0  0
   -2.3867    1.9901   -0.7977 H   0  0  0  0  0  0  0  0  0  0  0  0
  1  2  1  0
  2  3  1  0
  3  4  1  0
  3  5  1  0
  5  6  1  0
  5  7  1  0
  7  8  1  0
  7  9  1  0
  1 10  1  0
  1 11  1  0
  1 12  1  0
  3 13  1  0
  4 14  1  0
  4 15  1  0
  4 16  1  0
  5 17  1  0
  6 18  1  0
  7 19  1  0
  8 20  1  0
  8 21  1  0
  8 22  1  0
  9 23  1  0
  9 24  1  0
  9 25  1  0
M  END
