
     RDKit          3D

 25 24  0  0  0  0  0  0  0  0999 V2000
   -2.1456    1.2554   -0.1237 C   0  0  0  0  0  0  0  0  0  0  0  0
   -1.3985    0.5958    0.8141 O   0  0  0  0  0  0  0  0  0  0  0  0
   -0.5063   -0.3402    0.3239 C   0  0  0  0  0  0  0  0  0  0  0  0
   -1.1832   -1.4378   -0.4578 C   0  0  0  0  0  0  0  0  0  0  0  0
    0.1295   -1.0037    1.5384 C   0  0  0  0  0  0  0  0  0  0  0  0
    0.4987    0.3494   -0.5380 C   0  0  0  0  0  0  0  0  0  0  0  0
    1.5243   -0.6003   -1.1208 C   0  0  0  0  0  0  0  0  0  0  0  0
    1.1933    1.4870    0.1520 C   0  0  0  0  0  0  0  0  0  0  0  0
    1.8786    1.0494    1.2870 O   0  0  0  0  0  0  0  0  0  0  0  0
   -2.7472    0.5113   -0.7022 H   0  0  0  0  0  0  0  0  0  0  0  0
   -2.9210    1.8404    0.4580 H   0  0  0  0  0  0  0  0  0  0  0  0
   -1.5863    1.9178   -0.7806 H   0  0  0  0  0  0  0  0  0  0  0  0
   -1.1493   -1.1936   -1.5531 H   0  0  0  0  0  0  0  0  0  0  0  0
   -2.2276   -1.6295   -0.1120 H   0  0  0  0  0  0  0  0  0  0  0  0
   -0.6400   -2.3994   -0.3019 H   0  0  0  0  0  0  0  0  0  0  0  0
    1.0741   -1.4975    1.3145 H   0  0  0  0  0  0  0  0  0  0  0  0
    0.2050   -0.2785    2.3881 H   0  0  0  0  0  0  0  0  0  0  0  0
   -0.5868   -1.7807    1.8783 H   0  0  0  0  0  0  0  0  0  0  0  0
   -0.0459    0.7703   -1.4139 H   0  0  0  0  0  0  0  0  0  0  0  0
    1.2394   -1.6564   -0.9974 H   0  0  0  0  0  0  0  0  0  0  0  0
    1.6842   -0.4378   -2.2094 H   0  0  0  0  0  0  0  0  0  0  0  0
    2.4999   -0.4655   -0.6214 H   0  0  0  0  0  0  0  0  0  0  0  0
    1.9442    1.8975   -0.5740 H   0  0  0  0  0  0  0  0  0  0  0  0
    0.4903    2.2904    0.3597 H   0  0  0  0  0  0  0  0  0  0  0  0
    2.7761    0.7560    0.9923 H   0  0  0  0  0  0  0  0  0  0  0  0
  1  2  1  0
  2  3  1  0
  3  4  1  0
  3  5  1  0
  3  6  1  0
  6  7  1  0
  6  8  1  0
  8  9  1  0
  1 10  1  0
  1 11  1  0
  1 12  1  0
  4 13  1  0
  4 14  1  0
  4 15  1  0
  5 16  1  0
  5 17  1  0
  5 18  1  0
  6 19  1  0
  7 20  1  0
  7 21  1  0
  7 22  1  0
  8 23  1  0
  8 24  1  0
  9 25  1  0
M  END
