
     RDKit          3D

 19 19  0  0  0  0  0  0  0  0999 V2000
    3.1010    0.3897   -0.3403 C   0  0  0  0  0  0  0  0  0  0  0  0
    1.6767    0.3684   -0.4175 O   0  0  0  0  0  0  0  0  0  0  0  0
    1.0013   -0.5270    0.4069 C   0  0  0  0  0  0  0  0  0  0  0  0
    1.5922   -1.3108    1.1997 O   0  0  0  0  0  0  0  0  0  0  0  0
   -0.4765   -0.5683    0.3623 C   0  0  0  0  0  0  0  0  0  0  0  0
   -1.1227   -1.1794    1.4227 O   0  0  0  0  0  0  0  0  0  0  0  0
   -1.1356   -0.8477   -0.9880 C   0  0  0  0  0  0  0  0  0  0  0  0
   -1.1567    0.4926   -0.3978 C   0  0  0  0  0  0  0  0  0  0  0  0
   -2.3538    1.1321    0.2114 C   0  0  0  0  0  0  0  0  0  0  0  0
    3.4932   -0.5511   -0.7260 H   0  0  0  0  0  0  0  0  0  0  0  0
    3.3350    0.5221    0.7435 H   0  0  0  0  0  0  0  0  0  0  0  0
    3.4918    1.2756   -0.8599 H   0  0  0  0  0  0  0  0  0  0  0  0
   -0.4984   -1.7839    1.8924 H   0  0  0  0  0  0  0  0  0  0  0  0
   -0.4248   -1.1076   -1.7866 H   0  0  0  0  0  0  0  0  0  0  0  0
   -2.0624   -1.4241   -1.0205 H   0  0  0  0  0  0  0  0  0  0  0  0
   -0.4870    1.2276   -0.9624 H   0  0  0  0  0  0  0  0  0  0  0  0
   -3.2537    1.0752   -0.4300 H   0  0  0  0  0  0  0  0  0  0  0  0
   -2.0760    2.1647    0.4944 H   0  0  0  0  0  0  0  0  0  0  0  0
   -2.6434    0.6517    1.1957 H   0  0  0  0  0  0  0  0  0  0  0  0
  1  2  1  0
  2  3  1  0
  3  4  2  0
  3  5  1  0
  5  6  1  0
  5  7  1  0
  7  8  1  0
  8  9  1  0
  8  5  1  0
  1 10  1  0
  1 11  1  0
  1 12  1  0
  6 13  1  0
  7 14  1  0
  7 15  1  0
  8 16  1  0
  9 17  1  0
  9 18  1  0
  9 19  1  0
M  END
