
     RDKit          3D

 23 22  0  0  0  0  0  0  0  0999 V2000
    3.7920    0.3626    0.1484 C   0  0  0  0  0  0  0  0  0  0  0  0
    2.6224   -0.3558   -0.1159 O   0  0  0  0  0  0  0  0  0  0  0  0
    1.3404    0.1314    0.1038 C   0  0  0  0  0  0  0  0  0  0  0  0
    1.2473    1.2905    0.5688 O   0  0  0  0  0  0  0  0  0  0  0  0
    0.2082   -0.7450   -0.2243 C   0  0  0  0  0  0  0  0  0  0  0  0
   -1.1288   -0.1460    0.0413 C   0  0  0  0  0  0  0  0  0  0  0  0
   -2.1771   -1.1939   -0.3571 C   0  0  0  0  0  0  0  0  0  0  0  0
   -1.3539    0.1202    1.5148 C   0  0  0  0  0  0  0  0  0  0  0  0
   -1.4289    1.0918   -0.7224 C   0  0  0  0  0  0  0  0  0  0  0  0
    4.2855   -0.0340    1.0753 H   0  0  0  0  0  0  0  0  0  0  0  0
    3.6683    1.4469    0.1693 H   0  0  0  0  0  0  0  0  0  0  0  0
    4.5140    0.1219   -0.6820 H   0  0  0  0  0  0  0  0  0  0  0  0
    0.2960   -1.6758    0.3689 H   0  0  0  0  0  0  0  0  0  0  0  0
    0.2692   -0.9736   -1.3126 H   0  0  0  0  0  0  0  0  0  0  0  0
   -1.9049   -2.1209    0.2065 H   0  0  0  0  0  0  0  0  0  0  0  0
   -3.1530   -0.7932   -0.0187 H   0  0  0  0  0  0  0  0  0  0  0  0
   -2.1218   -1.3825   -1.4393 H   0  0  0  0  0  0  0  0  0  0  0  0
   -1.5432   -0.8609    2.0112 H   0  0  0  0  0  0  0  0  0  0  0  0
   -2.2509    0.7708    1.6305 H   0  0  0  0  0  0  0  0  0  0  0  0
   -0.4921    0.6148    1.9762 H   0  0  0  0  0  0  0  0  0  0  0  0
   -1.9626    0.8673   -1.6879 H   0  0  0  0  0  0  0  0  0  0  0  0
   -2.1514    1.7422   -0.1488 H   0  0  0  0  0  0  0  0  0  0  0  0
   -0.5747    1.7213   -0.9682 H   0  0  0  0  0  0  0  0  0  0  0  0
  1  2  1  0
  2  3  1  0
  3  4  2  0
  3  5  1  0
  5  6  1  0
  6  7  1  0
  6  8  1  0
  6  9  1  0
  1 10  1  0
  1 11  1  0
  1 12  1  0
  5 13  1  0
  5 14  1  0
  7 15  1  0
  7 16  1  0
  7 17  1  0
  8 18  1  0
  8 19  1  0
  8 20  1  0
  9 21  1  0
  9 22  1  0
  9 23  1  0
M  END
