
     RDKit          3D

 18 17  0  0  0  0  0  0  0  0999 V2000
    2.4277   -0.9685    0.2879 C   0  0  0  0  0  0  0  0  0  0  0  0
    1.5318   -0.3190   -0.5285 O   0  0  0  0  0  0  0  0  0  0  0  0
    0.4198    0.1653    0.1035 C   0  0  0  0  0  0  0  0  0  0  0  0
    0.4212    1.6827   -0.0647 C   0  0  0  0  0  0  0  0  0  0  0  0
   -0.8315   -0.3928   -0.4670 C   0  0  0  0  0  0  0  0  0  0  0  0
   -0.7390   -1.1828   -1.3905 O   0  0  0  0  0  0  0  0  0  0  0  0
   -2.1766   -0.0533    0.0110 C   0  0  0  0  0  0  0  0  0  0  0  0
   -3.1644   -0.7234   -0.7060 O   0  0  0  0  0  0  0  0  0  0  0  0
    2.8313   -0.3154    1.1071 H   0  0  0  0  0  0  0  0  0  0  0  0
    2.0876   -1.9423    0.6651 H   0  0  0  0  0  0  0  0  0  0  0  0
    3.3332   -1.1939   -0.3493 H   0  0  0  0  0  0  0  0  0  0  0  0
    0.4214   -0.0517    1.2081 H   0  0  0  0  0  0  0  0  0  0  0  0
   -0.5748    2.0539   -0.3798 H   0  0  0  0  0  0  0  0  0  0  0  0
    1.1363    1.9895   -0.8587 H   0  0  0  0  0  0  0  0  0  0  0  0
    0.7623    2.1642    0.8793 H   0  0  0  0  0  0  0  0  0  0  0  0
   -2.3900    1.0461   -0.1404 H   0  0  0  0  0  0  0  0  0  0  0  0
   -2.3366   -0.2688    1.0902 H   0  0  0  0  0  0  0  0  0  0  0  0
   -3.1595   -1.6897   -0.4672 H   0  0  0  0  0  0  0  0  0  0  0  0
  1  2  1  0
  2  3  1  0
  3  4  1  0
  3  5  1  0
  5  6  2  0
  5  7  1  0
  7  8  1  0
  1  9  1  0
  1 10  1  0
  1 11  1  0
  3 12  1  0
  4 13  1  0
  4 14  1  0
  4 15  1  0
  7 16  1  0
  7 17  1  0
  8 18  1  0
M  END
