
     RDKit          3D

 21 20  0  0  0  0  0  0  0  0999 V2000
   -2.1535   -1.5592    0.5969 C   0  0  0  0  0  0  0  0  0  0  0  0
   -1.6973   -0.5736   -0.2643 O   0  0  0  0  0  0  0  0  0  0  0  0
   -1.1900    0.5112    0.4207 C   0  0  0  0  0  0  0  0  0  0  0  0
   -2.0602    1.7104    0.0654 C   0  0  0  0  0  0  0  0  0  0  0  0
    0.2122    0.8461   -0.0262 C   0  0  0  0  0  0  0  0  0  0  0  0
    1.1123   -0.2263    0.1791 O   0  0  0  0  0  0  0  0  0  0  0  0
    2.4391   -0.0786   -0.1792 C   0  0  0  0  0  0  0  0  0  0  0  0
    3.4432   -1.1800    0.0135 C   0  0  0  0  0  0  0  0  0  0  0  0
    2.7875    1.0236   -0.6799 O   0  0  0  0  0  0  0  0  0  0  0  0
   -2.5459   -2.3978   -0.0068 H   0  0  0  0  0  0  0  0  0  0  0  0
   -1.2812   -1.9482    1.1836 H   0  0  0  0  0  0  0  0  0  0  0  0
   -2.9277   -1.1545    1.2547 H   0  0  0  0  0  0  0  0  0  0  0  0
   -1.2680    0.3365    1.4971 H   0  0  0  0  0  0  0  0  0  0  0  0
   -2.0590    1.9019   -1.0238 H   0  0  0  0  0  0  0  0  0  0  0  0
   -3.0821    1.6053    0.4785 H   0  0  0  0  0  0  0  0  0  0  0  0
   -1.5718    2.5907    0.5407 H   0  0  0  0  0  0  0  0  0  0  0  0
    0.2357    1.1786   -1.0654 H   0  0  0  0  0  0  0  0  0  0  0  0
    0.5544    1.6907    0.6400 H   0  0  0  0  0  0  0  0  0  0  0  0
    2.9429   -1.9606    0.5922 H   0  0  0  0  0  0  0  0  0  0  0  0
    3.7971   -1.4862   -0.9782 H   0  0  0  0  0  0  0  0  0  0  0  0
    4.3123   -0.8299    0.6153 H   0  0  0  0  0  0  0  0  0  0  0  0
  1  2  1  0
  2  3  1  0
  3  4  1  0
  3  5  1  0
  5  6  1  0
  6  7  1  0
  7  8  1  0
  7  9  2  0
  1 10  1  0
  1 11  1  0
  1 12  1  0
  3 13  1  0
  4 14  1  0
  4 15  1  0
  4 16  1  0
  5 17  1  0
  5 18  1  0
  8 19  1  0
  8 20  1  0
  8 21  1  0
M  END
