
     RDKit          3D

 23 22  0  0  0  0  0  0  0  0999 V2000
    2.0144    1.3503   -1.0963 C   0  0  0  0  0  0  0  0  0  0  0  0
    1.1605    0.3412   -1.4522 O   0  0  0  0  0  0  0  0  0  0  0  0
    0.9590   -0.6351   -0.5307 C   0  0  0  0  0  0  0  0  0  0  0  0
    1.3906   -2.0124   -0.9684 C   0  0  0  0  0  0  0  0  0  0  0  0
   -0.4915   -0.6801   -0.0841 C   0  0  0  0  0  0  0  0  0  0  0  0
   -1.3306   -0.9343   -1.1787 O   0  0  0  0  0  0  0  0  0  0  0  0
   -0.8328    0.6334    0.5801 C   0  0  0  0  0  0  0  0  0  0  0  0
   -2.2421    0.6974    1.0598 C   0  0  0  0  0  0  0  0  0  0  0  0
   -2.4412    1.9443    1.6501 O   0  0  0  0  0  0  0  0  0  0  0  0
    1.7390    1.9297   -0.2180 H   0  0  0  0  0  0  0  0  0  0  0  0
    2.0471    2.0723   -1.9570 H   0  0  0  0  0  0  0  0  0  0  0  0
    3.0717    0.9555   -1.0386 H   0  0  0  0  0  0  0  0  0  0  0  0
    1.5677   -0.3914    0.3746 H   0  0  0  0  0  0  0  0  0  0  0  0
    0.8918   -2.7896   -0.3505 H   0  0  0  0  0  0  0  0  0  0  0  0
    2.4711   -2.1878   -0.8748 H   0  0  0  0  0  0  0  0  0  0  0  0
    1.0670   -2.2284   -2.0227 H   0  0  0  0  0  0  0  0  0  0  0  0
   -0.6640   -1.4789    0.6604 H   0  0  0  0  0  0  0  0  0  0  0  0
   -1.4544   -1.9099   -1.2680 H   0  0  0  0  0  0  0  0  0  0  0  0
   -0.1569    0.7444    1.4486 H   0  0  0  0  0  0  0  0  0  0  0  0
   -0.6179    1.5002   -0.1016 H   0  0  0  0  0  0  0  0  0  0  0  0
   -2.9802    0.5297    0.2486 H   0  0  0  0  0  0  0  0  0  0  0  0
   -2.3899   -0.0533    1.8756 H   0  0  0  0  0  0  0  0  0  0  0  0
   -2.7783    2.6030    0.9930 H   0  0  0  0  0  0  0  0  0  0  0  0
  1  2  1  0
  2  3  1  0
  3  4  1  0
  3  5  1  0
  5  6  1  0
  5  7  1  0
  7  8  1  0
  8  9  1  0
  1 10  1  0
  1 11  1  0
  1 12  1  0
  3 13  1  0
  4 14  1  0
  4 15  1  0
  4 16  1  0
  5 17  1  0
  6 18  1  0
  7 19  1  0
  7 20  1  0
  8 21  1  0
  8 22  1  0
  9 23  1  0
M  END
