
     RDKit          3D

 19 18  0  0  0  0  0  0  0  0999 V2000
    3.2337   -0.5210    0.5023 C   0  0  0  0  0  0  0  0  0  0  0  0
    1.8279   -0.4498    0.5740 O   0  0  0  0  0  0  0  0  0  0  0  0
    1.1067    0.7087    0.3393 C   0  0  0  0  0  0  0  0  0  0  0  0
    1.7542    1.7466    0.0472 O   0  0  0  0  0  0  0  0  0  0  0  0
   -0.3786    0.6734    0.4419 C   0  0  0  0  0  0  0  0  0  0  0  0
   -0.9488    1.8933    0.1825 O   0  0  0  0  0  0  0  0  0  0  0  0
   -0.8705   -0.4161   -0.4635 C   0  0  0  0  0  0  0  0  0  0  0  0
   -2.3809   -0.5407   -0.4365 C   0  0  0  0  0  0  0  0  0  0  0  0
   -2.7756   -0.8291    0.8573 O   0  0  0  0  0  0  0  0  0  0  0  0
    3.7504    0.3736    0.8496 H   0  0  0  0  0  0  0  0  0  0  0  0
    3.4806   -0.7168   -0.5819 H   0  0  0  0  0  0  0  0  0  0  0  0
    3.5480   -1.4345    1.0604 H   0  0  0  0  0  0  0  0  0  0  0  0
   -0.6194    0.3680    1.4925 H   0  0  0  0  0  0  0  0  0  0  0  0
   -0.5444    2.3829   -0.5574 H   0  0  0  0  0  0  0  0  0  0  0  0
   -0.4873   -0.2672   -1.4896 H   0  0  0  0  0  0  0  0  0  0  0  0
   -0.4634   -1.3893   -0.1020 H   0  0  0  0  0  0  0  0  0  0  0  0
   -2.6388   -1.4413   -1.0531 H   0  0  0  0  0  0  0  0  0  0  0  0
   -2.8967    0.3095   -0.8913 H   0  0  0  0  0  0  0  0  0  0  0  0
   -3.6970   -0.4502    1.0203 H   0  0  0  0  0  0  0  0  0  0  0  0
  1  2  1  0
  2  3  1  0
  3  4  2  0
  3  5  1  0
  5  6  1  0
  5  7  1  0
  7  8  1  0
  8  9  1  0
  1 10  1  0
  1 11  1  0
  1 12  1  0
  5 13  1  0
  6 14  1  0
  7 15  1  0
  7 16  1  0
  8 17  1  0
  8 18  1  0
  9 19  1  0
M  END
