
     RDKit          3D

 21 21  0  0  0  0  0  0  0  0999 V2000
    3.2941    0.5397   -0.0551 C   0  0  0  0  0  0  0  0  0  0  0  0
    1.9654    0.2139    0.3855 O   0  0  0  0  0  0  0  0  0  0  0  0
    1.3621   -0.9721   -0.0510 C   0  0  0  0  0  0  0  0  0  0  0  0
    1.9922   -1.7188   -0.8087 O   0  0  0  0  0  0  0  0  0  0  0  0
   -0.0336   -1.2583    0.4453 C   0  0  0  0  0  0  0  0  0  0  0  0
   -0.9304   -0.3154   -0.2865 C   0  0  0  0  0  0  0  0  0  0  0  0
   -2.3884   -0.4030    0.0591 C   0  0  0  0  0  0  0  0  0  0  0  0
   -2.2470    0.8148    0.9537 C   0  0  0  0  0  0  0  0  0  0  0  0
   -0.8875    1.0656    0.3461 C   0  0  0  0  0  0  0  0  0  0  0  0
    3.7857   -0.2943   -0.5584 H   0  0  0  0  0  0  0  0  0  0  0  0
    3.8456    0.9024    0.8628 H   0  0  0  0  0  0  0  0  0  0  0  0
    3.2247    1.4303   -0.7177 H   0  0  0  0  0  0  0  0  0  0  0  0
   -0.1115   -1.1197    1.5443 H   0  0  0  0  0  0  0  0  0  0  0  0
   -0.2922   -2.3243    0.2500 H   0  0  0  0  0  0  0  0  0  0  0  0
   -0.7260   -0.3542   -1.3770 H   0  0  0  0  0  0  0  0  0  0  0  0
   -3.0345   -0.1682   -0.7949 H   0  0  0  0  0  0  0  0  0  0  0  0
   -2.6699   -1.3177    0.6121 H   0  0  0  0  0  0  0  0  0  0  0  0
   -2.2575    0.5427    2.0286 H   0  0  0  0  0  0  0  0  0  0  0  0
   -2.9283    1.6443    0.7495 H   0  0  0  0  0  0  0  0  0  0  0  0
   -0.0712    1.2037    1.0862 H   0  0  0  0  0  0  0  0  0  0  0  0
   -0.8916    1.8883   -0.3851 H   0  0  0  0  0  0  0  0  0  0  0  0
  1  2  1  0
  2  3  1  0
  3  4  2  0
  3  5  1  0
  5  6  1  0
  6  7  1  0
  7  8  1  0
  8  9  1  0
  9  6  1  0
  1 10  1  0
  1 11  1  0
  1 12  1  0
  5 13  1  0
  5 14  1  0
  6 15  1  0
  7 16  1  0
  7 17  1  0
  8 18  1  0
  8 19  1  0
  9 20  1  0
  9 21  1  0
M  END
