
     RDKit          3D

 21 21  0  0  0  0  0  0  0  0999 V2000
   -2.8683   -0.9484    0.4909 C   0  0  0  0  0  0  0  0  0  0  0  0
   -1.9825   -0.6321   -0.5188 O   0  0  0  0  0  0  0  0  0  0  0  0
   -0.9880    0.2070   -0.0266 C   0  0  0  0  0  0  0  0  0  0  0  0
   -1.1561    1.5411   -0.7193 C   0  0  0  0  0  0  0  0  0  0  0  0
    0.3256   -0.4031   -0.2692 C   0  0  0  0  0  0  0  0  0  0  0  0
    0.3912   -1.4799   -0.8250 O   0  0  0  0  0  0  0  0  0  0  0  0
    1.5818    0.2506    0.1415 C   0  0  0  0  0  0  0  0  0  0  0  0
    2.8568    0.0223   -0.5845 C   0  0  0  0  0  0  0  0  0  0  0  0
    2.6190   -0.7145    0.7111 C   0  0  0  0  0  0  0  0  0  0  0  0
   -3.3701   -0.0597    0.9275 H   0  0  0  0  0  0  0  0  0  0  0  0
   -2.3552   -1.4721    1.3403 H   0  0  0  0  0  0  0  0  0  0  0  0
   -3.6336   -1.6370    0.0436 H   0  0  0  0  0  0  0  0  0  0  0  0
   -1.1694    0.4046    1.0615 H   0  0  0  0  0  0  0  0  0  0  0  0
   -0.8296    2.3630   -0.0481 H   0  0  0  0  0  0  0  0  0  0  0  0
   -0.6668    1.5689   -1.7067 H   0  0  0  0  0  0  0  0  0  0  0  0
   -2.2409    1.6884   -0.8993 H   0  0  0  0  0  0  0  0  0  0  0  0
    1.4568    1.2336    0.6451 H   0  0  0  0  0  0  0  0  0  0  0  0
    2.9122   -0.5740   -1.5087 H   0  0  0  0  0  0  0  0  0  0  0  0
    3.6215    0.8189   -0.5146 H   0  0  0  0  0  0  0  0  0  0  0  0
    2.4259   -1.8023    0.6180 H   0  0  0  0  0  0  0  0  0  0  0  0
    3.0698   -0.3755    1.6413 H   0  0  0  0  0  0  0  0  0  0  0  0
  1  2  1  0
  2  3  1  0
  3  4  1  0
  3  5  1  0
  5  6  2  0
  5  7  1  0
  7  8  1  0
  8  9  1  0
  9  7  1  0
  1 10  1  0
  1 11  1  0
  1 12  1  0
  3 13  1  0
  4 14  1  0
  4 15  1  0
  4 16  1  0
  7 17  1  0
  8 18  1  0
  8 19  1  0
  9 20  1  0
  9 21  1  0
M  END
