
     RDKit          3D

 20 19  0  0  0  0  0  0  0  0999 V2000
    1.9840    0.7561    0.9620 C   0  0  0  0  0  0  0  0  0  0  0  0
    0.8255   -0.0051    0.8958 O   0  0  0  0  0  0  0  0  0  0  0  0
    0.5794   -0.2594   -0.4541 C   0  0  0  0  0  0  0  0  0  0  0  0
    0.5558   -1.7335   -0.6502 C   0  0  0  0  0  0  0  0  0  0  0  0
   -0.7273    0.4164   -0.7959 C   0  0  0  0  0  0  0  0  0  0  0  0
   -0.6701    1.7903   -0.5805 O   0  0  0  0  0  0  0  0  0  0  0  0
   -1.8773   -0.1344    0.0145 C   0  0  0  0  0  0  0  0  0  0  0  0
   -1.7037    0.1093    1.3518 O   0  0  0  0  0  0  0  0  0  0  0  0
    2.1821    0.9599    2.0354 H   0  0  0  0  0  0  0  0  0  0  0  0
    1.8165    1.7011    0.3808 H   0  0  0  0  0  0  0  0  0  0  0  0
    2.8452    0.2156    0.5049 H   0  0  0  0  0  0  0  0  0  0  0  0
    1.3533    0.2000   -1.1187 H   0  0  0  0  0  0  0  0  0  0  0  0
    1.6017   -2.0662   -0.8990 H   0  0  0  0  0  0  0  0  0  0  0  0
    0.3046   -2.2734    0.3080 H   0  0  0  0  0  0  0  0  0  0  0  0
   -0.0724   -2.0798   -1.4797 H   0  0  0  0  0  0  0  0  0  0  0  0
   -0.9945    0.2743   -1.8641 H   0  0  0  0  0  0  0  0  0  0  0  0
   -0.9346    2.0677    0.3136 H   0  0  0  0  0  0  0  0  0  0  0  0
   -2.7929    0.3839   -0.3343 H   0  0  0  0  0  0  0  0  0  0  0  0
   -2.0459   -1.2197   -0.2103 H   0  0  0  0  0  0  0  0  0  0  0  0
   -2.2294    0.8969    1.6199 H   0  0  0  0  0  0  0  0  0  0  0  0
  1  2  1  0
  2  3  1  0
  3  4  1  0
  3  5  1  0
  5  6  1  0
  5  7  1  0
  7  8  1  0
  1  9  1  0
  1 10  1  0
  1 11  1  0
  3 12  1  0
  4 13  1  0
  4 14  1  0
  4 15  1  0
  5 16  1  0
  6 17  1  0
  7 18  1  0
  7 19  1  0
  8 20  1  0
M  END
