
     RDKit          3D

 17 16  0  0  0  0  0  0  0  0999 V2000
    2.8694    0.1646    0.1374 C   0  0  0  0  0  0  0  0  0  0  0  0
    1.5477   -0.1608   -0.1584 O   0  0  0  0  0  0  0  0  0  0  0  0
    0.4347    0.4809    0.3703 C   0  0  0  0  0  0  0  0  0  0  0  0
    0.6598    1.4222    1.1731 O   0  0  0  0  0  0  0  0  0  0  0  0
   -0.8788    0.0011   -0.0565 C   0  0  0  0  0  0  0  0  0  0  0  0
   -1.0911   -1.4471    0.2977 C   0  0  0  0  0  0  0  0  0  0  0  0
   -2.0224    0.8700    0.4048 C   0  0  0  0  0  0  0  0  0  0  0  0
    3.5142   -0.6663   -0.2446 H   0  0  0  0  0  0  0  0  0  0  0  0
    3.0064    0.3496    1.2096 H   0  0  0  0  0  0  0  0  0  0  0  0
    3.1188    1.1113   -0.3965 H   0  0  0  0  0  0  0  0  0  0  0  0
   -0.8972    0.0484   -1.1862 H   0  0  0  0  0  0  0  0  0  0  0  0
   -2.0006   -1.7833   -0.2667 H   0  0  0  0  0  0  0  0  0  0  0  0
   -1.1398   -1.6472    1.3672 H   0  0  0  0  0  0  0  0  0  0  0  0
   -0.2352   -2.0115   -0.1465 H   0  0  0  0  0  0  0  0  0  0  0  0
   -1.7952    1.9092    0.0766 H   0  0  0  0  0  0  0  0  0  0  0  0
   -2.9319    0.4939   -0.1278 H   0  0  0  0  0  0  0  0  0  0  0  0
   -2.1589    0.8649    1.4967 H   0  0  0  0  0  0  0  0  0  0  0  0
  1  2  1  0
  2  3  1  0
  3  4  2  0
  3  5  1  0
  5  6  1  0
  5  7  1  0
  1  8  1  0
  1  9  1  0
  1 10  1  0
  5 11  1  0
  6 12  1  0
  6 13  1  0
  6 14  1  0
  7 15  1  0
  7 16  1  0
  7 17  1  0
M  END
