
     RDKit          3D

 21 21  0  0  0  0  0  0  0  0999 V2000
    2.1999    0.4214   -1.3746 C   0  0  0  0  0  0  0  0  0  0  0  0
    1.5323   -0.6588   -0.8092 O   0  0  0  0  0  0  0  0  0  0  0  0
    1.0977   -0.3687    0.4782 C   0  0  0  0  0  0  0  0  0  0  0  0
    1.7534   -1.3281    1.4043 C   0  0  0  0  0  0  0  0  0  0  0  0
    1.5368   -1.2888    2.6238 O   0  0  0  0  0  0  0  0  0  0  0  0
   -0.3943   -0.6008    0.5969 C   0  0  0  0  0  0  0  0  0  0  0  0
   -1.1792    0.2631   -0.3557 C   0  0  0  0  0  0  0  0  0  0  0  0
   -2.7029    0.0395   -0.2481 C   0  0  0  0  0  0  0  0  0  0  0  0
   -2.0529    1.3465    0.0879 C   0  0  0  0  0  0  0  0  0  0  0  0
    1.4981    1.2738   -1.4089 H   0  0  0  0  0  0  0  0  0  0  0  0
    3.1013    0.7200   -0.8077 H   0  0  0  0  0  0  0  0  0  0  0  0
    2.5260    0.1480   -2.3890 H   0  0  0  0  0  0  0  0  0  0  0  0
    1.3713    0.6625    0.7914 H   0  0  0  0  0  0  0  0  0  0  0  0
    2.4281   -2.0657    0.9844 H   0  0  0  0  0  0  0  0  0  0  0  0
   -0.6866   -0.3786    1.6332 H   0  0  0  0  0  0  0  0  0  0  0  0
   -0.5685   -1.6737    0.3720 H   0  0  0  0  0  0  0  0  0  0  0  0
   -0.7944    0.2573   -1.3967 H   0  0  0  0  0  0  0  0  0  0  0  0
   -3.2617   -0.0778   -1.2052 H   0  0  0  0  0  0  0  0  0  0  0  0
   -3.0815   -0.5766    0.5724 H   0  0  0  0  0  0  0  0  0  0  0  0
   -2.2588    2.1486   -0.6710 H   0  0  0  0  0  0  0  0  0  0  0  0
   -2.0642    1.7370    1.1218 H   0  0  0  0  0  0  0  0  0  0  0  0
  1  2  1  0
  2  3  1  0
  3  4  1  0
  4  5  2  0
  3  6  1  0
  6  7  1  0
  7  8  1  0
  8  9  1  0
  9  7  1  0
  1 10  1  0
  1 11  1  0
  1 12  1  0
  3 13  1  0
  4 14  1  0
  6 15  1  0
  6 16  1  0
  7 17  1  0
  8 18  1  0
  8 19  1  0
  9 20  1  0
  9 21  1  0
M  END
