
     RDKit          3D

 21 20  0  0  0  0  0  0  0  0999 V2000
   -2.8558    0.3210    0.7956 C   0  0  0  0  0  0  0  0  0  0  0  0
   -1.5588   -0.2129    0.4885 O   0  0  0  0  0  0  0  0  0  0  0  0
   -0.7897    0.3503   -0.5207 C   0  0  0  0  0  0  0  0  0  0  0  0
   -1.3006    1.3304   -1.1234 O   0  0  0  0  0  0  0  0  0  0  0  0
    0.5335   -0.1025   -0.9204 C   0  0  0  0  0  0  0  0  0  0  0  0
    0.3992   -1.5612   -1.3769 C   0  0  0  0  0  0  0  0  0  0  0  0
    1.5558   -0.0945    0.1797 C   0  0  0  0  0  0  0  0  0  0  0  0
    1.7794    1.2715    0.7670 C   0  0  0  0  0  0  0  0  0  0  0  0
    1.3144   -1.0044    1.1783 O   0  0  0  0  0  0  0  0  0  0  0  0
   -3.4736   -0.3928    1.3363 H   0  0  0  0  0  0  0  0  0  0  0  0
   -2.6923    1.2249    1.3868 H   0  0  0  0  0  0  0  0  0  0  0  0
   -3.3712    0.5502   -0.1799 H   0  0  0  0  0  0  0  0  0  0  0  0
    0.9313    0.4863   -1.7543 H   0  0  0  0  0  0  0  0  0  0  0  0
   -0.3669   -1.5577   -2.1847 H   0  0  0  0  0  0  0  0  0  0  0  0
    1.3796   -1.9184   -1.7005 H   0  0  0  0  0  0  0  0  0  0  0  0
    0.0375   -2.1634   -0.5138 H   0  0  0  0  0  0  0  0  0  0  0  0
    2.5337   -0.3962   -0.2984 H   0  0  0  0  0  0  0  0  0  0  0  0
    2.1901    1.9933    0.0496 H   0  0  0  0  0  0  0  0  0  0  0  0
    2.5063    1.1529    1.5993 H   0  0  0  0  0  0  0  0  0  0  0  0
    0.8344    1.6359    1.2582 H   0  0  0  0  0  0  0  0  0  0  0  0
    0.4137   -0.9130    1.5336 H   0  0  0  0  0  0  0  0  0  0  0  0
  1  2  1  0
  2  3  1  0
  3  4  2  0
  3  5  1  0
  5  6  1  0
  5  7  1  0
  7  8  1  0
  7  9  1  0
  1 10  1  0
  1 11  1  0
  1 12  1  0
  5 13  1  0
  6 14  1  0
  6 15  1  0
  6 16  1  0
  7 17  1  0
  8 18  1  0
  8 19  1  0
  8 20  1  0
  9 21  1  0
M  END
