
     RDKit          3D

 18 18  0  0  0  0  0  0  0  0999 V2000
    3.1580    0.5738    0.1370 C   0  0  0  0  0  0  0  0  0  0  0  0
    2.0363   -0.1512   -0.3013 O   0  0  0  0  0  0  0  0  0  0  0  0
    0.7814   -0.0828    0.2390 C   0  0  0  0  0  0  0  0  0  0  0  0
    0.5959    0.6905    1.2132 O   0  0  0  0  0  0  0  0  0  0  0  0
   -0.3851   -0.8725   -0.2587 C   0  0  0  0  0  0  0  0  0  0  0  0
   -1.2987   -1.4067    0.8342 C   0  0  0  0  0  0  0  0  0  0  0  0
   -1.7543   -0.3654   -0.1390 C   0  0  0  0  0  0  0  0  0  0  0  0
   -2.0288    1.0479    0.3535 C   0  0  0  0  0  0  0  0  0  0  0  0
    2.9195    1.5164    0.6239 H   0  0  0  0  0  0  0  0  0  0  0  0
    3.8370   -0.0625    0.7689 H   0  0  0  0  0  0  0  0  0  0  0  0
    3.7730    0.7922   -0.7844 H   0  0  0  0  0  0  0  0  0  0  0  0
   -0.1760   -1.5517   -1.1313 H   0  0  0  0  0  0  0  0  0  0  0  0
   -1.6269   -2.4584    0.6746 H   0  0  0  0  0  0  0  0  0  0  0  0
   -1.1335   -1.1042    1.8691 H   0  0  0  0  0  0  0  0  0  0  0  0
   -2.5041   -0.7178   -0.8712 H   0  0  0  0  0  0  0  0  0  0  0  0
   -1.9121    1.0535    1.4704 H   0  0  0  0  0  0  0  0  0  0  0  0
   -1.2492    1.7014   -0.1252 H   0  0  0  0  0  0  0  0  0  0  0  0
   -3.0324    1.3976    0.0606 H   0  0  0  0  0  0  0  0  0  0  0  0
  1  2  1  0
  2  3  1  0
  3  4  2  0
  3  5  1  0
  5  6  1  0
  6  7  1  0
  7  8  1  0
  7  5  1  0
  1  9  1  0
  1 10  1  0
  1 11  1  0
  5 12  1  0
  6 13  1  0
  6 14  1  0
  7 15  1  0
  8 16  1  0
  8 17  1  0
  8 18  1  0
M  END
