
     RDKit          3D

 19 18  0  0  0  0  0  0  0  0999 V2000
   -1.4194   -0.0054    1.7375 C   0  0  0  0  0  0  0  0  0  0  0  0
   -0.7506   -0.9577    1.0176 O   0  0  0  0  0  0  0  0  0  0  0  0
    0.3375   -0.5626    0.3080 C   0  0  0  0  0  0  0  0  0  0  0  0
    1.4452    0.0433    1.0821 C   0  0  0  0  0  0  0  0  0  0  0  0
    0.8872   -1.8271   -0.3737 C   0  0  0  0  0  0  0  0  0  0  0  0
   -0.1236    0.3608   -0.7348 C   0  0  0  0  0  0  0  0  0  0  0  0
   -0.5081    1.1661   -1.6494 C   0  0  0  0  0  0  0  0  0  0  0  0
   -0.8983    2.0213   -2.6377 C   0  0  0  0  0  0  0  0  0  0  0  0
   -2.0795    2.1091   -3.1285 O   0  0  0  0  0  0  0  0  0  0  0  0
   -1.8112    0.8059    1.1179 H   0  0  0  0  0  0  0  0  0  0  0  0
   -0.8610    0.3616    2.6309 H   0  0  0  0  0  0  0  0  0  0  0  0
   -2.3158   -0.5310    2.1828 H   0  0  0  0  0  0  0  0  0  0  0  0
    2.4140   -0.3081    0.6852 H   0  0  0  0  0  0  0  0  0  0  0  0
    1.3723   -0.3525    2.1424 H   0  0  0  0  0  0  0  0  0  0  0  0
    1.3991    1.1701    1.1229 H   0  0  0  0  0  0  0  0  0  0  0  0
    1.7421   -2.1922    0.2198 H   0  0  0  0  0  0  0  0  0  0  0  0
    1.2896   -1.4668   -1.3521 H   0  0  0  0  0  0  0  0  0  0  0  0
    0.0777   -2.5624   -0.5013 H   0  0  0  0  0  0  0  0  0  0  0  0
   -0.1974    2.7275   -3.1055 H   0  0  0  0  0  0  0  0  0  0  0  0
  1  2  1  0
  2  3  1  0
  3  4  1  0
  3  5  1  0
  3  6  1  0
  6  7  3  0
  7  8  1  0
  8  9  2  0
  1 10  1  0
  1 11  1  0
  1 12  1  0
  4 13  1  0
  4 14  1  0
  4 15  1  0
  5 16  1  0
  5 17  1  0
  5 18  1  0
  8 19  1  0
M  END
