
     RDKit          3D

 16 16  0  0  0  0  0  0  0  0999 V2000
    3.0698   -0.0478   -0.0177 C   0  0  0  0  0  0  0  0  0  0  0  0
    1.8260    0.2974   -0.6002 O   0  0  0  0  0  0  0  0  0  0  0  0
    0.6108    0.1483    0.0563 C   0  0  0  0  0  0  0  0  0  0  0  0
    0.6751   -0.3204    1.2226 O   0  0  0  0  0  0  0  0  0  0  0  0
   -0.6967    0.5085   -0.5494 C   0  0  0  0  0  0  0  0  0  0  0  0
   -1.8507    0.8752    0.2942 C   0  0  0  0  0  0  0  0  0  0  0  0
   -1.8264   -0.5130   -0.2613 C   0  0  0  0  0  0  0  0  0  0  0  0
   -2.6175   -0.8500   -1.3407 O   0  0  0  0  0  0  0  0  0  0  0  0
    2.9204   -0.7671    0.8082 H   0  0  0  0  0  0  0  0  0  0  0  0
    3.5976    0.8794    0.3028 H   0  0  0  0  0  0  0  0  0  0  0  0
    3.6578   -0.5452   -0.8322 H   0  0  0  0  0  0  0  0  0  0  0  0
   -0.6930    0.9171   -1.5796 H   0  0  0  0  0  0  0  0  0  0  0  0
   -1.6932    1.0093    1.3836 H   0  0  0  0  0  0  0  0  0  0  0  0
   -2.6223    1.5503   -0.1145 H   0  0  0  0  0  0  0  0  0  0  0  0
   -1.6032   -1.3039    0.4737 H   0  0  0  0  0  0  0  0  0  0  0  0
   -2.7546   -1.8381   -1.3530 H   0  0  0  0  0  0  0  0  0  0  0  0
  1  2  1  0
  2  3  1  0
  3  4  2  0
  3  5  1  0
  5  6  1  0
  6  7  1  0
  7  8  1  0
  7  5  1  0
  1  9  1  0
  1 10  1  0
  1 11  1  0
  5 12  1  0
  6 13  1  0
  6 14  1  0
  7 15  1  0
  8 16  1  0
M  END
