
     RDKit          3D

 21 21  0  0  0  0  0  0  0  0999 V2000
    3.6553   -0.0040   -0.5180 C   0  0  0  0  0  0  0  0  0  0  0  0
    2.2845    0.3923   -0.3967 O   0  0  0  0  0  0  0  0  0  0  0  0
    1.3365   -0.4055    0.2194 C   0  0  0  0  0  0  0  0  0  0  0  0
    1.7199   -1.5074    0.6778 O   0  0  0  0  0  0  0  0  0  0  0  0
   -0.0559    0.0402    0.3212 C   0  0  0  0  0  0  0  0  0  0  0  0
   -0.7086    0.2882   -1.0473 C   0  0  0  0  0  0  0  0  0  0  0  0
   -2.0021   -0.1592   -0.3596 C   0  0  0  0  0  0  0  0  0  0  0  0
   -2.5890    0.9487    0.4918 C   0  0  0  0  0  0  0  0  0  0  0  0
   -1.0908   -1.0525    0.4962 C   0  0  0  0  0  0  0  0  0  0  0  0
    3.7816   -0.9111   -1.1096 H   0  0  0  0  0  0  0  0  0  0  0  0
    4.1771    0.8310   -1.0407 H   0  0  0  0  0  0  0  0  0  0  0  0
    4.0211   -0.0969    0.5325 H   0  0  0  0  0  0  0  0  0  0  0  0
   -0.2354    0.8823    0.9964 H   0  0  0  0  0  0  0  0  0  0  0  0
   -0.6749    1.3330   -1.3437 H   0  0  0  0  0  0  0  0  0  0  0  0
   -0.3325   -0.4698   -1.7503 H   0  0  0  0  0  0  0  0  0  0  0  0
   -2.7031   -0.6962   -0.9868 H   0  0  0  0  0  0  0  0  0  0  0  0
   -3.6999    0.8361    0.5027 H   0  0  0  0  0  0  0  0  0  0  0  0
   -2.2025    0.9181    1.5394 H   0  0  0  0  0  0  0  0  0  0  0  0
   -2.3486    1.9627    0.0741 H   0  0  0  0  0  0  0  0  0  0  0  0
   -1.5277   -1.1483    1.4962 H   0  0  0  0  0  0  0  0  0  0  0  0
   -0.8051   -1.9815   -0.0239 H   0  0  0  0  0  0  0  0  0  0  0  0
  1  2  1  0
  2  3  1  0
  3  4  2  0
  3  5  1  0
  5  6  1  0
  6  7  1  0
  7  8  1  0
  7  9  1  0
  9  5  1  0
  1 10  1  0
  1 11  1  0
  1 12  1  0
  5 13  1  0
  6 14  1  0
  6 15  1  0
  7 16  1  0
  8 17  1  0
  8 18  1  0
  8 19  1  0
  9 20  1  0
  9 21  1  0
M  END
