
     RDKit          3D

 19 19  0  0  0  0  0  0  0  0999 V2000
    3.2789   -0.0634   -0.0565 C   0  0  0  0  0  0  0  0  0  0  0  0
    1.9651   -0.3496   -0.5129 O   0  0  0  0  0  0  0  0  0  0  0  0
    0.9108    0.3976   -0.0394 C   0  0  0  0  0  0  0  0  0  0  0  0
    1.1340    1.3090    0.7797 O   0  0  0  0  0  0  0  0  0  0  0  0
   -0.4369    0.1181   -0.4953 C   0  0  0  0  0  0  0  0  0  0  0  0
   -0.9243   -1.3022   -0.1859 C   0  0  0  0  0  0  0  0  0  0  0  0
   -2.3067   -0.6634   -0.0369 C   0  0  0  0  0  0  0  0  0  0  0  0
   -1.5642    0.5783    0.4380 C   0  0  0  0  0  0  0  0  0  0  0  0
   -2.1246    1.7715    0.0397 O   0  0  0  0  0  0  0  0  0  0  0  0
    3.5178    1.0004   -0.3112 H   0  0  0  0  0  0  0  0  0  0  0  0
    4.0372   -0.6815   -0.5560 H   0  0  0  0  0  0  0  0  0  0  0  0
    3.3253   -0.2242    1.0283 H   0  0  0  0  0  0  0  0  0  0  0  0
   -0.6935    0.4077   -1.5301 H   0  0  0  0  0  0  0  0  0  0  0  0
   -0.5757   -1.6658    0.7948 H   0  0  0  0  0  0  0  0  0  0  0  0
   -0.8230   -1.9844   -1.0392 H   0  0  0  0  0  0  0  0  0  0  0  0
   -2.8249   -0.5036   -1.0238 H   0  0  0  0  0  0  0  0  0  0  0  0
   -2.9528   -1.1367    0.6970 H   0  0  0  0  0  0  0  0  0  0  0  0
   -1.2962    0.4960    1.5030 H   0  0  0  0  0  0  0  0  0  0  0  0
   -1.6464    2.4961    0.5066 H   0  0  0  0  0  0  0  0  0  0  0  0
  1  2  1  0
  2  3  1  0
  3  4  2  0
  3  5  1  0
  5  6  1  0
  6  7  1  0
  7  8  1  0
  8  9  1  0
  8  5  1  0
  1 10  1  0
  1 11  1  0
  1 12  1  0
  5 13  1  0
  6 14  1  0
  6 15  1  0
  7 16  1  0
  7 17  1  0
  8 18  1  0
  9 19  1  0
M  END
