
     RDKit          3D

 23 22  0  0  0  0  0  0  0  0999 V2000
   -0.6887   -2.3359    0.6794 C   0  0  0  0  0  0  0  0  0  0  0  0
   -0.3027   -1.3662   -0.2368 O   0  0  0  0  0  0  0  0  0  0  0  0
   -0.5260   -0.0725    0.2571 C   0  0  0  0  0  0  0  0  0  0  0  0
   -1.4861    0.5765   -0.7127 C   0  0  0  0  0  0  0  0  0  0  0  0
   -1.8425    1.9683   -0.3392 C   0  0  0  0  0  0  0  0  0  0  0  0
   -1.3627    2.4376    0.6725 O   0  0  0  0  0  0  0  0  0  0  0  0
    0.8103    0.6309    0.1986 C   0  0  0  0  0  0  0  0  0  0  0  0
    1.2533    0.6433   -1.2494 C   0  0  0  0  0  0  0  0  0  0  0  0
    1.8730   -0.1397    0.9650 C   0  0  0  0  0  0  0  0  0  0  0  0
   -0.4783   -3.3187    0.2093 H   0  0  0  0  0  0  0  0  0  0  0  0
   -1.7533   -2.2692    0.9390 H   0  0  0  0  0  0  0  0  0  0  0  0
   -0.0183   -2.2416    1.5711 H   0  0  0  0  0  0  0  0  0  0  0  0
   -0.9598   -0.1171    1.2670 H   0  0  0  0  0  0  0  0  0  0  0  0
   -1.0589    0.5139   -1.7421 H   0  0  0  0  0  0  0  0  0  0  0  0
   -2.4380    0.0053   -0.7530 H   0  0  0  0  0  0  0  0  0  0  0  0
   -2.5108    2.5403   -0.9563 H   0  0  0  0  0  0  0  0  0  0  0  0
    0.8191    1.6485    0.5758 H   0  0  0  0  0  0  0  0  0  0  0  0
    2.3719    0.7434   -1.2462 H   0  0  0  0  0  0  0  0  0  0  0  0
    1.0078   -0.3681   -1.6818 H   0  0  0  0  0  0  0  0  0  0  0  0
    0.7528    1.4505   -1.7864 H   0  0  0  0  0  0  0  0  0  0  0  0
    2.8487    0.3494    0.7284 H   0  0  0  0  0  0  0  0  0  0  0  0
    1.9544   -1.1949    0.5959 H   0  0  0  0  0  0  0  0  0  0  0  0
    1.7349   -0.0840    2.0446 H   0  0  0  0  0  0  0  0  0  0  0  0
  1  2  1  0
  2  3  1  0
  3  4  1  0
  4  5  1  0
  5  6  2  0
  3  7  1  0
  7  8  1  0
  7  9  1  0
  1 10  1  0
  1 11  1  0
  1 12  1  0
  3 13  1  0
  4 14  1  0
  4 15  1  0
  5 16  1  0
  7 17  1  0
  8 18  1  0
  8 19  1  0
  8 20  1  0
  9 21  1  0
  9 22  1  0
  9 23  1  0
M  END
