
     RDKit          3D

 19 19  0  0  0  0  0  0  0  0999 V2000
    3.1513   -0.0982   -0.1951 C   0  0  0  0  0  0  0  0  0  0  0  0
    1.7334   -0.1451   -0.1749 O   0  0  0  0  0  0  0  0  0  0  0  0
    1.0000    1.0015   -0.3538 C   0  0  0  0  0  0  0  0  0  0  0  0
    1.6041    2.0770   -0.5331 O   0  0  0  0  0  0  0  0  0  0  0  0
   -0.5205    0.9878   -0.3380 C   0  0  0  0  0  0  0  0  0  0  0  0
   -1.0761   -0.3071   -0.1237 C   0  0  0  0  0  0  0  0  0  0  0  0
   -0.6027   -1.0608   -1.1680 O   0  0  0  0  0  0  0  0  0  0  0  0
   -2.1516   -0.0523    0.7873 C   0  0  0  0  0  0  0  0  0  0  0  0
   -1.9559   -1.3172    0.3756 C   0  0  0  0  0  0  0  0  0  0  0  0
    3.4887   -0.8920   -0.9043 H   0  0  0  0  0  0  0  0  0  0  0  0
    3.4722    0.8850   -0.5726 H   0  0  0  0  0  0  0  0  0  0  0  0
    3.5767   -0.3377    0.7973 H   0  0  0  0  0  0  0  0  0  0  0  0
   -0.7787    1.4067   -1.3603 H   0  0  0  0  0  0  0  0  0  0  0  0
   -0.7157    1.8482    0.3347 H   0  0  0  0  0  0  0  0  0  0  0  0
   -0.9994   -0.8617   -2.0448 H   0  0  0  0  0  0  0  0  0  0  0  0
   -3.0775    0.5498    0.5329 H   0  0  0  0  0  0  0  0  0  0  0  0
   -1.8301    0.2404    1.8385 H   0  0  0  0  0  0  0  0  0  0  0  0
   -2.8189   -1.8173   -0.1703 H   0  0  0  0  0  0  0  0  0  0  0  0
   -1.4994   -2.1072    1.0505 H   0  0  0  0  0  0  0  0  0  0  0  0
  1  2  1  0
  2  3  1  0
  3  4  2  0
  3  5  1  0
  5  6  1  0
  6  7  1  0
  6  8  1  0
  8  9  1  0
  9  6  1  0
  1 10  1  0
  1 11  1  0
  1 12  1  0
  5 13  1  0
  5 14  1  0
  7 15  1  0
  8 16  1  0
  8 17  1  0
  9 18  1  0
  9 19  1  0
M  END
