
     RDKit          3D

 23 23  0  0  0  0  0  0  0  0999 V2000
    2.8529   -1.2682    0.1629 C   0  0  0  0  0  0  0  0  0  0  0  0
    1.7665   -0.8202   -0.5759 O   0  0  0  0  0  0  0  0  0  0  0  0
    1.0180    0.1278    0.1135 C   0  0  0  0  0  0  0  0  0  0  0  0
    1.0960    1.4260   -0.6353 C   0  0  0  0  0  0  0  0  0  0  0  0
   -0.3668   -0.3943    0.2778 C   0  0  0  0  0  0  0  0  0  0  0  0
   -1.0842   -0.6845   -1.0572 C   0  0  0  0  0  0  0  0  0  0  0  0
   -1.5712    0.3591   -0.1017 C   0  0  0  0  0  0  0  0  0  0  0  0
   -2.8545    0.0005    0.6178 C   0  0  0  0  0  0  0  0  0  0  0  0
   -1.5135    1.7039   -0.4735 O   0  0  0  0  0  0  0  0  0  0  0  0
    2.5111   -1.7393    1.1192 H   0  0  0  0  0  0  0  0  0  0  0  0
    3.3426   -2.0623   -0.4315 H   0  0  0  0  0  0  0  0  0  0  0  0
    3.5875   -0.4689    0.3818 H   0  0  0  0  0  0  0  0  0  0  0  0
    1.4749    0.3117    1.1217 H   0  0  0  0  0  0  0  0  0  0  0  0
    0.6834    1.3576   -1.6546 H   0  0  0  0  0  0  0  0  0  0  0  0
    0.7102    2.2892   -0.0540 H   0  0  0  0  0  0  0  0  0  0  0  0
    2.1968    1.6439   -0.7721 H   0  0  0  0  0  0  0  0  0  0  0  0
   -0.4760   -1.1660    1.0769 H   0  0  0  0  0  0  0  0  0  0  0  0
   -1.6036   -1.6631   -1.1081 H   0  0  0  0  0  0  0  0  0  0  0  0
   -0.5704   -0.4089   -1.9883 H   0  0  0  0  0  0  0  0  0  0  0  0
   -3.4726    0.8875    0.8547 H   0  0  0  0  0  0  0  0  0  0  0  0
   -3.4179   -0.7130    0.0125 H   0  0  0  0  0  0  0  0  0  0  0  0
   -2.5950   -0.5099    1.5862 H   0  0  0  0  0  0  0  0  0  0  0  0
   -1.7140    1.7915   -1.4397 H   0  0  0  0  0  0  0  0  0  0  0  0
  1  2  1  0
  2  3  1  0
  3  4  1  0
  3  5  1  0
  5  6  1  0
  6  7  1  0
  7  8  1  0
  7  9  1  0
  7  5  1  0
  1 10  1  0
  1 11  1  0
  1 12  1  0
  3 13  1  0
  4 14  1  0
  4 15  1  0
  4 16  1  0
  5 17  1  0
  6 18  1  0
  6 19  1  0
  8 20  1  0
  8 21  1  0
  8 22  1  0
  9 23  1  0
M  END
