
     RDKit          3D

 17 17  0  0  0  0  0  0  0  0999 V2000
    2.7028   -0.1056    0.6545 C   0  0  0  0  0  0  0  0  0  0  0  0
    1.2803   -0.1588    0.6308 O   0  0  0  0  0  0  0  0  0  0  0  0
    0.5859    0.2025   -0.5110 C   0  0  0  0  0  0  0  0  0  0  0  0
    1.2763    0.5700   -1.4969 O   0  0  0  0  0  0  0  0  0  0  0  0
   -0.8731    0.1837   -0.6399 C   0  0  0  0  0  0  0  0  0  0  0  0
   -1.3373    0.5824   -1.8621 O   0  0  0  0  0  0  0  0  0  0  0  0
   -1.4372   -1.1897   -0.2805 C   0  0  0  0  0  0  0  0  0  0  0  0
   -2.4016   -0.6033    0.5605 O   0  0  0  0  0  0  0  0  0  0  0  0
   -1.6661    0.5978    0.5585 C   0  0  0  0  0  0  0  0  0  0  0  0
    3.0904   -0.5369   -0.2978 H   0  0  0  0  0  0  0  0  0  0  0  0
    3.0664    0.9364    0.7904 H   0  0  0  0  0  0  0  0  0  0  0  0
    3.1006   -0.7165    1.4894 H   0  0  0  0  0  0  0  0  0  0  0  0
   -1.2958    1.5579   -1.9497 H   0  0  0  0  0  0  0  0  0  0  0  0
   -1.9168   -1.7142   -1.1196 H   0  0  0  0  0  0  0  0  0  0  0  0
   -0.7007   -1.8216    0.2426 H   0  0  0  0  0  0  0  0  0  0  0  0
   -2.3630    1.4223    0.2767 H   0  0  0  0  0  0  0  0  0  0  0  0
   -1.1113    0.7936    1.4872 H   0  0  0  0  0  0  0  0  0  0  0  0
  1  2  1  0
  2  3  1  0
  3  4  2  0
  3  5  1  0
  5  6  1  0
  5  7  1  0
  7  8  1  0
  8  9  1  0
  9  5  1  0
  1 10  1  0
  1 11  1  0
  1 12  1  0
  6 13  1  0
  7 14  1  0
  7 15  1  0
  9 16  1  0
  9 17  1  0
M  END
