
     RDKit          3D

 23 22  0  0  0  0  0  0  0  0999 V2000
    0.7665    2.5166    0.0976 C   0  0  0  0  0  0  0  0  0  0  0  0
    0.2653    1.4632   -0.6429 O   0  0  0  0  0  0  0  0  0  0  0  0
    0.4783    0.2591   -0.0201 C   0  0  0  0  0  0  0  0  0  0  0  0
    1.3785   -0.6415   -0.8085 C   0  0  0  0  0  0  0  0  0  0  0  0
    1.7488   -1.9803   -0.3417 C   0  0  0  0  0  0  0  0  0  0  0  0
    1.7999   -0.2265   -1.8610 O   0  0  0  0  0  0  0  0  0  0  0  0
   -0.7928   -0.4771    0.3217 C   0  0  0  0  0  0  0  0  0  0  0  0
   -1.6545    0.3487    1.2542 C   0  0  0  0  0  0  0  0  0  0  0  0
   -1.6182   -0.8054   -0.8897 C   0  0  0  0  0  0  0  0  0  0  0  0
    0.5509    3.4502   -0.4796 H   0  0  0  0  0  0  0  0  0  0  0  0
    1.8720    2.4765    0.1935 H   0  0  0  0  0  0  0  0  0  0  0  0
    0.2907    2.6411    1.0841 H   0  0  0  0  0  0  0  0  0  0  0  0
    1.0101    0.4491    0.9388 H   0  0  0  0  0  0  0  0  0  0  0  0
    1.9944   -1.9111    0.7519 H   0  0  0  0  0  0  0  0  0  0  0  0
    2.6869   -2.2929   -0.8415 H   0  0  0  0  0  0  0  0  0  0  0  0
    0.9450   -2.7410   -0.5106 H   0  0  0  0  0  0  0  0  0  0  0  0
   -0.5497   -1.4079    0.8414 H   0  0  0  0  0  0  0  0  0  0  0  0
   -1.1921    0.3787    2.2656 H   0  0  0  0  0  0  0  0  0  0  0  0
   -2.6727   -0.1042    1.3104 H   0  0  0  0  0  0  0  0  0  0  0  0
   -1.7208    1.3628    0.7962 H   0  0  0  0  0  0  0  0  0  0  0  0
   -2.1134    0.1017   -1.2400 H   0  0  0  0  0  0  0  0  0  0  0  0
   -1.0546   -1.3437   -1.6706 H   0  0  0  0  0  0  0  0  0  0  0  0
   -2.4187   -1.5160   -0.5493 H   0  0  0  0  0  0  0  0  0  0  0  0
  1  2  1  0
  2  3  1  0
  3  4  1  0
  4  5  1  0
  4  6  2  0
  3  7  1  0
  7  8  1  0
  7  9  1  0
  1 10  1  0
  1 11  1  0
  1 12  1  0
  3 13  1  0
  5 14  1  0
  5 15  1  0
  5 16  1  0
  7 17  1  0
  8 18  1  0
  8 19  1  0
  8 20  1  0
  9 21  1  0
  9 22  1  0
  9 23  1  0
M  END
