
     RDKit          3D

 23 23  0  0  0  0  0  0  0  0999 V2000
   -2.8891   -0.9223   -0.1388 C   0  0  0  0  0  0  0  0  0  0  0  0
   -1.7400   -0.4120    0.4576 O   0  0  0  0  0  0  0  0  0  0  0  0
   -0.7578   -0.1241   -0.5231 C   0  0  0  0  0  0  0  0  0  0  0  0
   -0.6118    1.3469   -0.5188 C   0  0  0  0  0  0  0  0  0  0  0  0
   -0.2127    1.8646    0.7181 O   0  0  0  0  0  0  0  0  0  0  0  0
    0.4016   -0.9848   -0.2648 C   0  0  0  0  0  0  0  0  0  0  0  0
    1.1831   -0.9628    0.9976 C   0  0  0  0  0  0  0  0  0  0  0  0
    1.8149   -0.6968   -0.4004 C   0  0  0  0  0  0  0  0  0  0  0  0
    2.4775    0.6246   -0.4815 C   0  0  0  0  0  0  0  0  0  0  0  0
   -3.2418   -0.1123   -0.8433 H   0  0  0  0  0  0  0  0  0  0  0  0
   -3.6943   -1.0337    0.6104 H   0  0  0  0  0  0  0  0  0  0  0  0
   -2.6756   -1.8403   -0.6973 H   0  0  0  0  0  0  0  0  0  0  0  0
   -1.2098   -0.4010   -1.5201 H   0  0  0  0  0  0  0  0  0  0  0  0
   -0.0929    1.7937   -1.3759 H   0  0  0  0  0  0  0  0  0  0  0  0
   -1.6714    1.7470   -0.6286 H   0  0  0  0  0  0  0  0  0  0  0  0
   -0.5688    2.7880    0.8419 H   0  0  0  0  0  0  0  0  0  0  0  0
    0.1107   -2.0636   -0.5200 H   0  0  0  0  0  0  0  0  0  0  0  0
    1.1216   -0.1196    1.7020 H   0  0  0  0  0  0  0  0  0  0  0  0
    1.5435   -1.8928    1.4825 H   0  0  0  0  0  0  0  0  0  0  0  0
    2.4720   -1.5403   -0.7869 H   0  0  0  0  0  0  0  0  0  0  0  0
    2.4236    1.2250    0.4764 H   0  0  0  0  0  0  0  0  0  0  0  0
    2.2205    1.2363   -1.3726 H   0  0  0  0  0  0  0  0  0  0  0  0
    3.5971    0.4804   -0.5875 H   0  0  0  0  0  0  0  0  0  0  0  0
  1  2  1  0
  2  3  1  0
  3  4  1  0
  4  5  1  0
  3  6  1  0
  6  7  1  0
  7  8  1  0
  8  9  1  0
  8  6  1  0
  1 10  1  0
  1 11  1  0
  1 12  1  0
  3 13  1  0
  4 14  1  0
  4 15  1  0
  5 16  1  0
  6 17  1  0
  7 18  1  0
  7 19  1  0
  8 20  1  0
  9 21  1  0
  9 22  1  0
  9 23  1  0
M  END
