
     RDKit          3D

 22 21  0  0  0  0  0  0  0  0999 V2000
    2.1568    0.5267   -1.2914 C   0  0  0  0  0  0  0  0  0  0  0  0
    1.2222    1.0214   -0.3963 O   0  0  0  0  0  0  0  0  0  0  0  0
    0.7148   -0.0188    0.3364 C   0  0  0  0  0  0  0  0  0  0  0  0
    0.9716    0.2151    1.8201 C   0  0  0  0  0  0  0  0  0  0  0  0
   -0.7945   -0.1611    0.1747 C   0  0  0  0  0  0  0  0  0  0  0  0
   -1.1789   -1.3584    1.0558 C   0  0  0  0  0  0  0  0  0  0  0  0
   -1.1457   -0.3891   -1.1440 O   0  0  0  0  0  0  0  0  0  0  0  0
   -2.0117    0.6305   -1.5968 C   0  0  0  0  0  0  0  0  0  0  0  0
    3.0094    0.0093   -0.7738 H   0  0  0  0  0  0  0  0  0  0  0  0
    2.5689    1.3551   -1.8879 H   0  0  0  0  0  0  0  0  0  0  0  0
    1.6862   -0.2510   -1.9255 H   0  0  0  0  0  0  0  0  0  0  0  0
    1.1777   -0.9758    0.0271 H   0  0  0  0  0  0  0  0  0  0  0  0
    1.3475   -0.7149    2.2936 H   0  0  0  0  0  0  0  0  0  0  0  0
    0.0935    0.6183    2.3437 H   0  0  0  0  0  0  0  0  0  0  0  0
    1.8109    0.9586    1.9485 H   0  0  0  0  0  0  0  0  0  0  0  0
   -1.2807    0.7492    0.5187 H   0  0  0  0  0  0  0  0  0  0  0  0
   -0.5879   -1.2656    1.9668 H   0  0  0  0  0  0  0  0  0  0  0  0
   -2.2565   -1.4333    1.1932 H   0  0  0  0  0  0  0  0  0  0  0  0
   -0.7738   -2.2526    0.5030 H   0  0  0  0  0  0  0  0  0  0  0  0
   -2.2910    0.4454   -2.6524 H   0  0  0  0  0  0  0  0  0  0  0  0
   -1.5119    1.6278   -1.5506 H   0  0  0  0  0  0  0  0  0  0  0  0
   -2.9270    0.6632   -0.9630 H   0  0  0  0  0  0  0  0  0  0  0  0
  1  2  1  0
  2  3  1  0
  3  4  1  0
  3  5  1  0
  5  6  1  0
  5  7  1  0
  7  8  1  0
  1  9  1  0
  1 10  1  0
  1 11  1  0
  3 12  1  0
  4 13  1  0
  4 14  1  0
  4 15  1  0
  5 16  1  0
  6 17  1  0
  6 18  1  0
  6 19  1  0
  8 20  1  0
  8 21  1  0
  8 22  1  0
M  END
