
     RDKit          3D

 17 18  0  0  0  0  0  0  0  0999 V2000
    3.0735    0.2594   -0.3987 C   0  0  0  0  0  0  0  0  0  0  0  0
    1.7123    0.5994   -0.6320 O   0  0  0  0  0  0  0  0  0  0  0  0
    0.7008   -0.2204   -0.2009 C   0  0  0  0  0  0  0  0  0  0  0  0
    1.0082   -1.2780    0.4045 O   0  0  0  0  0  0  0  0  0  0  0  0
   -0.6917    0.1376   -0.4453 C   0  0  0  0  0  0  0  0  0  0  0  0
   -1.6371   -0.9403    0.1332 C   0  0  0  0  0  0  0  0  0  0  0  0
   -2.5950    0.2241    0.0875 C   0  0  0  0  0  0  0  0  0  0  0  0
   -2.5765    1.3357    0.7945 O   0  0  0  0  0  0  0  0  0  0  0  0
   -1.3276    0.9342    0.6649 C   0  0  0  0  0  0  0  0  0  0  0  0
    3.2656   -0.7675   -0.7713 H   0  0  0  0  0  0  0  0  0  0  0  0
    3.2987    0.3357    0.6712 H   0  0  0  0  0  0  0  0  0  0  0  0
    3.6821    1.0042   -0.9913 H   0  0  0  0  0  0  0  0  0  0  0  0
   -0.9764    0.4154   -1.4665 H   0  0  0  0  0  0  0  0  0  0  0  0
   -1.3328   -1.2801    1.1259 H   0  0  0  0  0  0  0  0  0  0  0  0
   -1.8481   -1.7133   -0.5918 H   0  0  0  0  0  0  0  0  0  0  0  0
   -2.8011    0.4592   -1.0063 H   0  0  0  0  0  0  0  0  0  0  0  0
   -0.9551    0.4947    1.6467 H   0  0  0  0  0  0  0  0  0  0  0  0
  1  2  1  0
  2  3  1  0
  3  4  2  0
  3  5  1  0
  5  6  1  0
  6  7  1  0
  7  8  1  0
  8  9  1  0
  9  5  1  0
  9  7  1  0
  1 10  1  0
  1 11  1  0
  1 12  1  0
  5 13  1  0
  6 14  1  0
  6 15  1  0
  7 16  1  0
  9 17  1  0
M  END
