
     RDKit          3D

 17 18  0  0  0  0  0  0  0  0999 V2000
    2.9677   -0.0539    0.3939 C   0  0  0  0  0  0  0  0  0  0  0  0
    1.5976    0.3045    0.3114 O   0  0  0  0  0  0  0  0  0  0  0  0
    0.7824   -0.1928   -0.7001 C   0  0  0  0  0  0  0  0  0  0  0  0
    1.3079   -0.9662   -1.5299 O   0  0  0  0  0  0  0  0  0  0  0  0
   -0.6296    0.2223   -0.7231 C   0  0  0  0  0  0  0  0  0  0  0  0
   -1.1801    0.9153    0.4666 C   0  0  0  0  0  0  0  0  0  0  0  0
   -2.4630    0.0894    0.4066 C   0  0  0  0  0  0  0  0  0  0  0  0
   -1.7106   -0.8415   -0.5099 C   0  0  0  0  0  0  0  0  0  0  0  0
   -1.3989   -0.2859   -1.7305 O   0  0  0  0  0  0  0  0  0  0  0  0
    3.3077   -0.0209    1.4550 H   0  0  0  0  0  0  0  0  0  0  0  0
    3.5466    0.7076   -0.1929 H   0  0  0  0  0  0  0  0  0  0  0  0
    3.1435   -1.0343   -0.0828 H   0  0  0  0  0  0  0  0  0  0  0  0
   -1.3210    1.9978    0.4281 H   0  0  0  0  0  0  0  0  0  0  0  0
   -0.6147    0.5798    1.3854 H   0  0  0  0  0  0  0  0  0  0  0  0
   -2.7922   -0.3217    1.3584 H   0  0  0  0  0  0  0  0  0  0  0  0
   -3.2240    0.6911   -0.1601 H   0  0  0  0  0  0  0  0  0  0  0  0
   -1.3192   -1.7907   -0.1715 H   0  0  0  0  0  0  0  0  0  0  0  0
  1  2  1  0
  2  3  1  0
  3  4  2  0
  3  5  1  0
  5  6  1  0
  6  7  1  0
  7  8  1  0
  8  9  1  0
  8  5  1  0
  9  5  1  0
  1 10  1  0
  1 11  1  0
  1 12  1  0
  6 13  1  0
  6 14  1  0
  7 15  1  0
  7 16  1  0
  8 17  1  0
M  END
