
     RDKit          3D

 21 21  0  0  0  0  0  0  0  0999 V2000
    3.4358    0.6052   -0.0750 C   0  0  0  0  0  0  0  0  0  0  0  0
    2.0658    0.7719   -0.3787 O   0  0  0  0  0  0  0  0  0  0  0  0
    1.2210   -0.3181   -0.2486 C   0  0  0  0  0  0  0  0  0  0  0  0
    1.7345   -1.3996    0.1364 O   0  0  0  0  0  0  0  0  0  0  0  0
   -0.2150   -0.2858   -0.5290 C   0  0  0  0  0  0  0  0  0  0  0  0
   -0.8751   -1.6259   -0.2976 C   0  0  0  0  0  0  0  0  0  0  0  0
   -2.0560   -0.8814    0.2838 C   0  0  0  0  0  0  0  0  0  0  0  0
   -1.1020    0.2752    0.5521 C   0  0  0  0  0  0  0  0  0  0  0  0
   -1.7911    1.5746    0.2062 C   0  0  0  0  0  0  0  0  0  0  0  0
    3.6977   -0.4865   -0.1018 H   0  0  0  0  0  0  0  0  0  0  0  0
    4.0074    1.0667   -0.8998 H   0  0  0  0  0  0  0  0  0  0  0  0
    3.7002    1.0066    0.9161 H   0  0  0  0  0  0  0  0  0  0  0  0
   -0.4289    0.1372   -1.5437 H   0  0  0  0  0  0  0  0  0  0  0  0
   -1.0706   -2.1857   -1.2283 H   0  0  0  0  0  0  0  0  0  0  0  0
   -0.3332   -2.2034    0.4847 H   0  0  0  0  0  0  0  0  0  0  0  0
   -2.4419   -1.2771    1.2408 H   0  0  0  0  0  0  0  0  0  0  0  0
   -2.8386   -0.6544   -0.4707 H   0  0  0  0  0  0  0  0  0  0  0  0
   -0.6604    0.2580    1.5485 H   0  0  0  0  0  0  0  0  0  0  0  0
   -2.0938    1.5656   -0.8651 H   0  0  0  0  0  0  0  0  0  0  0  0
   -1.2154    2.4641    0.4855 H   0  0  0  0  0  0  0  0  0  0  0  0
   -2.7405    1.5926    0.7842 H   0  0  0  0  0  0  0  0  0  0  0  0
  1  2  1  0
  2  3  1  0
  3  4  2  0
  3  5  1  0
  5  6  1  0
  6  7  1  0
  7  8  1  0
  8  9  1  0
  8  5  1  0
  1 10  1  0
  1 11  1  0
  1 12  1  0
  5 13  1  0
  6 14  1  0
  6 15  1  0
  7 16  1  0
  7 17  1  0
  8 18  1  0
  9 19  1  0
  9 20  1  0
  9 21  1  0
M  END
