
     RDKit          3D

 27 26  0  0  0  0  0  0  0  0999 V2000
    2.1267    0.6785   -1.2263 C   0  0  0  0  0  0  0  0  0  0  0  0
    1.7477    0.7048    0.1098 O   0  0  0  0  0  0  0  0  0  0  0  0
    1.2476   -0.4705    0.5819 C   0  0  0  0  0  0  0  0  0  0  0  0
    2.1618   -1.1318    1.6066 C   0  0  0  0  0  0  0  0  0  0  0  0
   -0.1275   -0.2854    1.1214 C   0  0  0  0  0  0  0  0  0  0  0  0
   -1.1621    0.2147    0.1847 C   0  0  0  0  0  0  0  0  0  0  0  0
   -0.9309    1.5492   -0.4249 C   0  0  0  0  0  0  0  0  0  0  0  0
   -1.4024   -0.8617   -0.8894 C   0  0  0  0  0  0  0  0  0  0  0  0
   -2.5012    0.2872    0.9361 C   0  0  0  0  0  0  0  0  0  0  0  0
    2.9385   -0.0964   -1.3889 H   0  0  0  0  0  0  0  0  0  0  0  0
    1.3164    0.5760   -1.9444 H   0  0  0  0  0  0  0  0  0  0  0  0
    2.6324    1.6466   -1.4339 H   0  0  0  0  0  0  0  0  0  0  0  0
    1.2204   -1.2035   -0.2591 H   0  0  0  0  0  0  0  0  0  0  0  0
    1.5178   -1.7205    2.2789 H   0  0  0  0  0  0  0  0  0  0  0  0
    2.7290   -0.4086    2.1988 H   0  0  0  0  0  0  0  0  0  0  0  0
    2.8807   -1.8318    1.1304 H   0  0  0  0  0  0  0  0  0  0  0  0
   -0.4681   -1.3159    1.4464 H   0  0  0  0  0  0  0  0  0  0  0  0
   -0.1446    0.2980    2.0717 H   0  0  0  0  0  0  0  0  0  0  0  0
   -1.8234    2.2360   -0.2972 H   0  0  0  0  0  0  0  0  0  0  0  0
   -0.0869    2.1232   -0.0538 H   0  0  0  0  0  0  0  0  0  0  0  0
   -0.8556    1.4731   -1.5497 H   0  0  0  0  0  0  0  0  0  0  0  0
   -0.5678   -0.9148   -1.5983 H   0  0  0  0  0  0  0  0  0  0  0  0
   -2.3926   -0.6902   -1.3820 H   0  0  0  0  0  0  0  0  0  0  0  0
   -1.5070   -1.8184   -0.3356 H   0  0  0  0  0  0  0  0  0  0  0  0
   -2.7166   -0.6515    1.4572 H   0  0  0  0  0  0  0  0  0  0  0  0
   -3.2720    0.4249    0.1309 H   0  0  0  0  0  0  0  0  0  0  0  0
   -2.5601    1.1888    1.5652 H   0  0  0  0  0  0  0  0  0  0  0  0
  1  2  1  0
  2  3  1  0
  3  4  1  0
  3  5  1  0
  5  6  1  0
  6  7  1  0
  6  8  1  0
  6  9  1  0
  1 10  1  0
  1 11  1  0
  1 12  1  0
  3 13  1  0
  4 14  1  0
  4 15  1  0
  4 16  1  0
  5 17  1  0
  5 18  1  0
  7 19  1  0
  7 20  1  0
  7 21  1  0
  8 22  1  0
  8 23  1  0
  8 24  1  0
  9 25  1  0
  9 26  1  0
  9 27  1  0
M  END
