
     RDKit          3D

 19 18  0  0  0  0  0  0  0  0999 V2000
    1.8248   -1.0936   -0.8218 C   0  0  0  0  0  0  0  0  0  0  0  0
    1.3749   -0.1271    0.0113 O   0  0  0  0  0  0  0  0  0  0  0  0
    0.0021    0.0069    0.1502 C   0  0  0  0  0  0  0  0  0  0  0  0
   -0.3753    1.2731   -0.6185 C   0  0  0  0  0  0  0  0  0  0  0  0
   -1.7891    1.5964   -0.6173 C   0  0  0  0  0  0  0  0  0  0  0  0
   -2.7076    0.9855   -0.1197 O   0  0  0  0  0  0  0  0  0  0  0  0
   -0.4560    0.0385    1.5508 C   0  0  0  0  0  0  0  0  0  0  0  0
   -0.0803   -1.2090    2.2548 C   0  0  0  0  0  0  0  0  0  0  0  0
    0.5124   -2.1335    1.7521 O   0  0  0  0  0  0  0  0  0  0  0  0
    2.9561   -1.0450   -0.7850 H   0  0  0  0  0  0  0  0  0  0  0  0
    1.6212   -0.7491   -1.8902 H   0  0  0  0  0  0  0  0  0  0  0  0
    1.5164   -2.1154   -0.6994 H   0  0  0  0  0  0  0  0  0  0  0  0
   -0.4746   -0.8065   -0.4138 H   0  0  0  0  0  0  0  0  0  0  0  0
   -0.0613    1.0662   -1.6810 H   0  0  0  0  0  0  0  0  0  0  0  0
    0.2181    2.1427   -0.3012 H   0  0  0  0  0  0  0  0  0  0  0  0
   -2.0786    2.5197   -1.1357 H   0  0  0  0  0  0  0  0  0  0  0  0
   -0.0925    0.9202    2.1303 H   0  0  0  0  0  0  0  0  0  0  0  0
   -1.5710    0.0728    1.6171 H   0  0  0  0  0  0  0  0  0  0  0  0
   -0.3397   -1.3429    3.3074 H   0  0  0  0  0  0  0  0  0  0  0  0
  1  2  1  0
  2  3  1  0
  3  4  1  0
  4  5  1  0
  5  6  2  0
  3  7  1  0
  7  8  1  0
  8  9  2  0
  1 10  1  0
  1 11  1  0
  1 12  1  0
  3 13  1  0
  4 14  1  0
  4 15  1  0
  5 16  1  0
  7 17  1  0
  7 18  1  0
  8 19  1  0
M  END
