
     RDKit          3D

 21 20  0  0  0  0  0  0  0  0999 V2000
    2.4990    0.8545    0.1806 C   0  0  0  0  0  0  0  0  0  0  0  0
    1.3635    0.3860    0.8327 O   0  0  0  0  0  0  0  0  0  0  0  0
    0.6057   -0.4255    0.0058 C   0  0  0  0  0  0  0  0  0  0  0  0
    0.4743   -1.7872    0.5383 C   0  0  0  0  0  0  0  0  0  0  0  0
    1.0146   -2.0505    1.5941 O   0  0  0  0  0  0  0  0  0  0  0  0
   -0.7329    0.2239   -0.2829 C   0  0  0  0  0  0  0  0  0  0  0  0
   -1.5571   -0.6603   -1.1831 C   0  0  0  0  0  0  0  0  0  0  0  0
   -1.5140    0.5091    0.9557 C   0  0  0  0  0  0  0  0  0  0  0  0
   -0.4599    1.4411   -0.9090 O   0  0  0  0  0  0  0  0  0  0  0  0
    3.1302   -0.0047   -0.1412 H   0  0  0  0  0  0  0  0  0  0  0  0
    2.2112    1.4207   -0.7527 H   0  0  0  0  0  0  0  0  0  0  0  0
    3.0522    1.5878    0.8024 H   0  0  0  0  0  0  0  0  0  0  0  0
    1.1340   -0.4752   -0.9747 H   0  0  0  0  0  0  0  0  0  0  0  0
   -0.0750   -2.5757    0.0496 H   0  0  0  0  0  0  0  0  0  0  0  0
   -2.1230   -1.4304   -0.6240 H   0  0  0  0  0  0  0  0  0  0  0  0
   -2.3402    0.0058   -1.6431 H   0  0  0  0  0  0  0  0  0  0  0  0
   -0.9135   -1.0816   -1.9783 H   0  0  0  0  0  0  0  0  0  0  0  0
   -0.9176    1.1342    1.6659 H   0  0  0  0  0  0  0  0  0  0  0  0
   -2.3860    1.1344    0.6719 H   0  0  0  0  0  0  0  0  0  0  0  0
   -1.9179   -0.3929    1.4536 H   0  0  0  0  0  0  0  0  0  0  0  0
   -0.5474    2.1866   -0.2614 H   0  0  0  0  0  0  0  0  0  0  0  0
  1  2  1  0
  2  3  1  0
  3  4  1  0
  4  5  2  0
  3  6  1  0
  6  7  1  0
  6  8  1  0
  6  9  1  0
  1 10  1  0
  1 11  1  0
  1 12  1  0
  3 13  1  0
  4 14  1  0
  7 15  1  0
  7 16  1  0
  7 17  1  0
  8 18  1  0
  8 19  1  0
  8 20  1  0
  9 21  1  0
M  END
