
     RDKit          3D

 21 21  0  0  0  0  0  0  0  0999 V2000
    3.2383    0.7611    0.1739 C   0  0  0  0  0  0  0  0  0  0  0  0
    1.8639    0.4152    0.2159 O   0  0  0  0  0  0  0  0  0  0  0  0
    1.2972   -0.4193   -0.7307 C   0  0  0  0  0  0  0  0  0  0  0  0
    2.0701   -0.8487   -1.6235 O   0  0  0  0  0  0  0  0  0  0  0  0
   -0.0985   -0.8265   -0.7661 C   0  0  0  0  0  0  0  0  0  0  0  0
   -0.6318   -1.2299    0.6276 C   0  0  0  0  0  0  0  0  0  0  0  0
   -1.2065   -0.0846   -0.1638 C   0  0  0  0  0  0  0  0  0  0  0  0
   -1.0600    1.3218    0.3517 C   0  0  0  0  0  0  0  0  0  0  0  0
   -2.6047   -0.3626   -0.6828 C   0  0  0  0  0  0  0  0  0  0  0  0
    3.7650   -0.0498    0.7538 H   0  0  0  0  0  0  0  0  0  0  0  0
    3.5637    0.6641   -0.8893 H   0  0  0  0  0  0  0  0  0  0  0  0
    3.4028    1.7593    0.5906 H   0  0  0  0  0  0  0  0  0  0  0  0
   -0.3752   -1.5051   -1.6060 H   0  0  0  0  0  0  0  0  0  0  0  0
   -1.1645   -2.2024    0.6513 H   0  0  0  0  0  0  0  0  0  0  0  0
   -0.0249   -1.0261    1.5066 H   0  0  0  0  0  0  0  0  0  0  0  0
   -0.0964    1.5501    0.7924 H   0  0  0  0  0  0  0  0  0  0  0  0
   -1.8250    1.4459    1.1677 H   0  0  0  0  0  0  0  0  0  0  0  0
   -1.2586    2.0119   -0.4840 H   0  0  0  0  0  0  0  0  0  0  0  0
   -3.2703   -0.3843    0.2262 H   0  0  0  0  0  0  0  0  0  0  0  0
   -2.6463   -1.3918   -1.1011 H   0  0  0  0  0  0  0  0  0  0  0  0
   -2.9384    0.4017   -1.4127 H   0  0  0  0  0  0  0  0  0  0  0  0
  1  2  1  0
  2  3  1  0
  3  4  2  0
  3  5  1  0
  5  6  1  0
  6  7  1  0
  7  8  1  0
  7  9  1  0
  7  5  1  0
  1 10  1  0
  1 11  1  0
  1 12  1  0
  5 13  1  0
  6 14  1  0
  6 15  1  0
  8 16  1  0
  8 17  1  0
  8 18  1  0
  9 19  1  0
  9 20  1  0
  9 21  1  0
M  END
