
     RDKit          3D

 22 21  0  0  0  0  0  0  0  0999 V2000
   -1.1978    1.8438   -0.0888 C   0  0  0  0  0  0  0  0  0  0  0  0
   -0.4951    0.9546   -0.8681 O   0  0  0  0  0  0  0  0  0  0  0  0
   -0.3675   -0.2562   -0.2412 C   0  0  0  0  0  0  0  0  0  0  0  0
   -1.7603   -0.7945    0.0141 C   0  0  0  0  0  0  0  0  0  0  0  0
    0.2979   -1.2679   -1.1805 C   0  0  0  0  0  0  0  0  0  0  0  0
    0.4601   -0.2054    1.0094 C   0  0  0  0  0  0  0  0  0  0  0  0
    1.8439    0.2707    0.6947 C   0  0  0  0  0  0  0  0  0  0  0  0
    2.5318   -0.5259   -0.1986 O   0  0  0  0  0  0  0  0  0  0  0  0
   -1.3156    2.8473   -0.5893 H   0  0  0  0  0  0  0  0  0  0  0  0
   -2.1990    1.5156    0.2065 H   0  0  0  0  0  0  0  0  0  0  0  0
   -0.6471    2.1041    0.8631 H   0  0  0  0  0  0  0  0  0  0  0  0
   -2.3998   -0.5023   -0.8446 H   0  0  0  0  0  0  0  0  0  0  0  0
   -1.7635   -1.9018    0.1021 H   0  0  0  0  0  0  0  0  0  0  0  0
   -2.1861   -0.3852    0.9638 H   0  0  0  0  0  0  0  0  0  0  0  0
   -0.4866   -1.7717   -1.8079 H   0  0  0  0  0  0  0  0  0  0  0  0
    0.8158   -2.0533   -0.6151 H   0  0  0  0  0  0  0  0  0  0  0  0
    0.9282   -0.7121   -1.8856 H   0  0  0  0  0  0  0  0  0  0  0  0
    0.5378   -1.2190    1.4509 H   0  0  0  0  0  0  0  0  0  0  0  0
    0.0488    0.4394    1.7997 H   0  0  0  0  0  0  0  0  0  0  0  0
    2.4175    0.2770    1.6652 H   0  0  0  0  0  0  0  0  0  0  0  0
    1.8388    1.3411    0.3699 H   0  0  0  0  0  0  0  0  0  0  0  0
    3.0978    0.0018   -0.8199 H   0  0  0  0  0  0  0  0  0  0  0  0
  1  2  1  0
  2  3  1  0
  3  4  1  0
  3  5  1  0
  3  6  1  0
  6  7  1  0
  7  8  1  0
  1  9  1  0
  1 10  1  0
  1 11  1  0
  4 12  1  0
  4 13  1  0
  4 14  1  0
  5 15  1  0
  5 16  1  0
  5 17  1  0
  6 18  1  0
  6 19  1  0
  7 20  1  0
  7 21  1  0
  8 22  1  0
M  END
