
     RDKit          3D

 21 20  0  0  0  0  0  0  0  0999 V2000
   -2.5149   -1.0829   -0.1224 C   0  0  0  0  0  0  0  0  0  0  0  0
   -1.5076   -0.4277    0.5768 O   0  0  0  0  0  0  0  0  0  0  0  0
   -0.9969    0.6597   -0.0765 C   0  0  0  0  0  0  0  0  0  0  0  0
   -1.2122    1.9578    0.6797 C   0  0  0  0  0  0  0  0  0  0  0  0
    0.4502    0.4570   -0.3191 C   0  0  0  0  0  0  0  0  0  0  0  0
    1.0856    1.3108   -0.8872 O   0  0  0  0  0  0  0  0  0  0  0  0
    1.0653   -0.7961    0.1492 C   0  0  0  0  0  0  0  0  0  0  0  0
    2.5372   -0.8855   -0.1544 C   0  0  0  0  0  0  0  0  0  0  0  0
    3.2548    0.1373    0.4379 O   0  0  0  0  0  0  0  0  0  0  0  0
   -2.8342   -1.9401    0.5226 H   0  0  0  0  0  0  0  0  0  0  0  0
   -3.3622   -0.3917   -0.3081 H   0  0  0  0  0  0  0  0  0  0  0  0
   -2.0995   -1.4949   -1.0705 H   0  0  0  0  0  0  0  0  0  0  0  0
   -1.5365    0.7661   -1.0617 H   0  0  0  0  0  0  0  0  0  0  0  0
   -0.2436    2.3112    1.1407 H   0  0  0  0  0  0  0  0  0  0  0  0
   -1.9695    1.8835    1.4641 H   0  0  0  0  0  0  0  0  0  0  0  0
   -1.5022    2.7660   -0.0214 H   0  0  0  0  0  0  0  0  0  0  0  0
    0.5914   -1.7078   -0.2763 H   0  0  0  0  0  0  0  0  0  0  0  0
    0.9515   -0.8422    1.2496 H   0  0  0  0  0  0  0  0  0  0  0  0
    2.7600   -0.9327   -1.2295 H   0  0  0  0  0  0  0  0  0  0  0  0
    2.8972   -1.8430    0.2997 H   0  0  0  0  0  0  0  0  0  0  0  0
    4.1861    0.0953    0.1678 H   0  0  0  0  0  0  0  0  0  0  0  0
  1  2  1  0
  2  3  1  0
  3  4  1  0
  3  5  1  0
  5  6  2  0
  5  7  1  0
  7  8  1  0
  8  9  1  0
  1 10  1  0
  1 11  1  0
  1 12  1  0
  3 13  1  0
  4 14  1  0
  4 15  1  0
  4 16  1  0
  7 17  1  0
  7 18  1  0
  8 19  1  0
  8 20  1  0
  9 21  1  0
M  END
