
     RDKit          3D

 25 25  0  0  0  0  0  0  0  0999 V2000
    1.9811    1.6898   -1.1092 C   0  0  0  0  0  0  0  0  0  0  0  0
    1.5418    0.4131   -1.3207 O   0  0  0  0  0  0  0  0  0  0  0  0
    1.0019   -0.2159   -0.2284 C   0  0  0  0  0  0  0  0  0  0  0  0
    1.8746   -1.4064    0.1788 C   0  0  0  0  0  0  0  0  0  0  0  0
   -0.3603   -0.7459   -0.5061 C   0  0  0  0  0  0  0  0  0  0  0  0
   -0.9208   -1.4371    0.7366 C   0  0  0  0  0  0  0  0  0  0  0  0
   -2.2574   -0.7656    0.4541 C   0  0  0  0  0  0  0  0  0  0  0  0
   -1.5145    0.1685   -0.4728 C   0  0  0  0  0  0  0  0  0  0  0  0
   -1.3528    1.5314    0.0937 C   0  0  0  0  0  0  0  0  0  0  0  0
    2.7858    1.7454   -0.3254 H   0  0  0  0  0  0  0  0  0  0  0  0
    1.1920    2.4434   -0.9534 H   0  0  0  0  0  0  0  0  0  0  0  0
    2.5103    2.0103   -2.0545 H   0  0  0  0  0  0  0  0  0  0  0  0
    1.0393    0.4849    0.6370 H   0  0  0  0  0  0  0  0  0  0  0  0
    1.5895   -2.3206   -0.3961 H   0  0  0  0  0  0  0  0  0  0  0  0
    1.7249   -1.6463    1.2512 H   0  0  0  0  0  0  0  0  0  0  0  0
    2.9390   -1.2233   -0.0563 H   0  0  0  0  0  0  0  0  0  0  0  0
   -0.3406   -1.4571   -1.3476 H   0  0  0  0  0  0  0  0  0  0  0  0
   -0.5067   -1.0584    1.6854 H   0  0  0  0  0  0  0  0  0  0  0  0
   -1.0245   -2.5223    0.6336 H   0  0  0  0  0  0  0  0  0  0  0  0
   -2.6883   -0.2560    1.3562 H   0  0  0  0  0  0  0  0  0  0  0  0
   -3.0086   -1.4131   -0.0331 H   0  0  0  0  0  0  0  0  0  0  0  0
   -2.0363    0.2308   -1.4707 H   0  0  0  0  0  0  0  0  0  0  0  0
   -2.3497    1.8231    0.5428 H   0  0  0  0  0  0  0  0  0  0  0  0
   -1.1908    2.3020   -0.7073 H   0  0  0  0  0  0  0  0  0  0  0  0
   -0.6288    1.6253    0.9106 H   0  0  0  0  0  0  0  0  0  0  0  0
  1  2  1  0
  2  3  1  0
  3  4  1  0
  3  5  1  0
  5  6  1  0
  6  7  1  0
  7  8  1  0
  8  9  1  0
  8  5  1  0
  1 10  1  0
  1 11  1  0
  1 12  1  0
  3 13  1  0
  4 14  1  0
  4 15  1  0
  4 16  1  0
  5 17  1  0
  6 18  1  0
  6 19  1  0
  7 20  1  0
  7 21  1  0
  8 22  1  0
  9 23  1  0
  9 24  1  0
  9 25  1  0
M  END
