
     RDKit          3D

 15 14  0  0  0  0  0  0  0  0999 V2000
    2.0197   -0.3578    0.3281 C   0  0  0  0  0  0  0  0  0  0  0  0
    0.7775    0.0087    0.8023 O   0  0  0  0  0  0  0  0  0  0  0  0
   -0.1933    0.0617   -0.1813 C   0  0  0  0  0  0  0  0  0  0  0  0
   -1.2646   -0.9585    0.1786 C   0  0  0  0  0  0  0  0  0  0  0  0
   -0.8544    1.3917   -0.3102 C   0  0  0  0  0  0  0  0  0  0  0  0
    2.4115    0.3405   -0.4389 H   0  0  0  0  0  0  0  0  0  0  0  0
    1.9571   -1.4028   -0.0867 H   0  0  0  0  0  0  0  0  0  0  0  0
    2.7020   -0.4090    1.2099 H   0  0  0  0  0  0  0  0  0  0  0  0
    0.2742   -0.2110   -1.1419 H   0  0  0  0  0  0  0  0  0  0  0  0
   -0.8107   -1.8428    0.6683 H   0  0  0  0  0  0  0  0  0  0  0  0
   -1.7764   -1.3264   -0.7315 H   0  0  0  0  0  0  0  0  0  0  0  0
   -2.0540   -0.5111    0.8255 H   0  0  0  0  0  0  0  0  0  0  0  0
   -0.8730    1.9767    0.6310 H   0  0  0  0  0  0  0  0  0  0  0  0
   -0.4051    2.0052   -1.1405 H   0  0  0  0  0  0  0  0  0  0  0  0
   -1.9106    1.2349   -0.6129 H   0  0  0  0  0  0  0  0  0  0  0  0
  1  2  1  0
  2  3  1  0
  3  4  1  0
  3  5  1  0
  1  6  1  0
  1  7  1  0
  1  8  1  0
  3  9  1  0
  4 10  1  0
  4 11  1  0
  4 12  1  0
  5 13  1  0
  5 14  1  0
  5 15  1  0
M  END
