
     RDKit          3D

 21 20  0  0  0  0  0  0  0  0999 V2000
    2.4584    0.5389   -0.6860 C   0  0  0  0  0  0  0  0  0  0  0  0
    1.3479    0.8167    0.0916 O   0  0  0  0  0  0  0  0  0  0  0  0
    0.5067   -0.2449    0.2696 C   0  0  0  0  0  0  0  0  0  0  0  0
    0.2437   -0.6440    1.6705 C   0  0  0  0  0  0  0  0  0  0  0  0
   -0.8234    0.1300   -0.4028 C   0  0  0  0  0  0  0  0  0  0  0  0
   -1.7441   -1.0872   -0.3314 C   0  0  0  0  0  0  0  0  0  0  0  0
   -0.6256    0.3730   -1.7602 O   0  0  0  0  0  0  0  0  0  0  0  0
   -1.4087    1.3147    0.2111 C   0  0  0  0  0  0  0  0  0  0  0  0
   -1.6457    2.3014   -0.4443 O   0  0  0  0  0  0  0  0  0  0  0  0
    2.1776    0.2064   -1.7064 H   0  0  0  0  0  0  0  0  0  0  0  0
    3.1631   -0.1723   -0.1880 H   0  0  0  0  0  0  0  0  0  0  0  0
    3.0165    1.4923   -0.8099 H   0  0  0  0  0  0  0  0  0  0  0  0
    0.9177   -1.1336   -0.2726 H   0  0  0  0  0  0  0  0  0  0  0  0
   -0.4933   -0.0652    2.2172 H   0  0  0  0  0  0  0  0  0  0  0  0
   -0.1373   -1.7065    1.6546 H   0  0  0  0  0  0  0  0  0  0  0  0
    1.1645   -0.6840    2.2849 H   0  0  0  0  0  0  0  0  0  0  0  0
   -1.2670   -1.8985   -0.9089 H   0  0  0  0  0  0  0  0  0  0  0  0
   -2.6650   -0.8014   -0.8861 H   0  0  0  0  0  0  0  0  0  0  0  0
   -1.9142   -1.4044    0.6944 H   0  0  0  0  0  0  0  0  0  0  0  0
   -0.6337    1.3443   -1.9587 H   0  0  0  0  0  0  0  0  0  0  0  0
   -1.6379    1.3242    1.2614 H   0  0  0  0  0  0  0  0  0  0  0  0
  1  2  1  0
  2  3  1  0
  3  4  1  0
  3  5  1  0
  5  6  1  0
  5  7  1  0
  5  8  1  0
  8  9  2  0
  1 10  1  0
  1 11  1  0
  1 12  1  0
  3 13  1  0
  4 14  1  0
  4 15  1  0
  4 16  1  0
  6 17  1  0
  6 18  1  0
  6 19  1  0
  7 20  1  0
  8 21  1  0
M  END
