
     RDKit          3D

 22 22  0  0  0  0  0  0  0  0999 V2000
   -1.8319   -1.4079    0.0093 C   0  0  0  0  0  0  0  0  0  0  0  0
   -0.4748   -1.1292   -0.0227 O   0  0  0  0  0  0  0  0  0  0  0  0
   -0.1887    0.2025   -0.2602 C   0  0  0  0  0  0  0  0  0  0  0  0
   -0.7688    1.1240    0.7977 C   0  0  0  0  0  0  0  0  0  0  0  0
   -0.6927    0.6807   -1.5947 C   0  0  0  0  0  0  0  0  0  0  0  0
    1.3144    0.3542   -0.1284 C   0  0  0  0  0  0  0  0  0  0  0  0
    1.8148   -0.0382    1.2644 C   0  0  0  0  0  0  0  0  0  0  0  0
    2.1992   -0.7984    0.0489 C   0  0  0  0  0  0  0  0  0  0  0  0
   -2.2424   -1.1184   -1.0009 H   0  0  0  0  0  0  0  0  0  0  0  0
   -1.9327   -2.5127    0.0610 H   0  0  0  0  0  0  0  0  0  0  0  0
   -2.3597   -0.8720    0.8062 H   0  0  0  0  0  0  0  0  0  0  0  0
   -0.3668    0.8164    1.7693 H   0  0  0  0  0  0  0  0  0  0  0  0
   -1.8757    1.1473    0.7617 H   0  0  0  0  0  0  0  0  0  0  0  0
   -0.3470    2.1418    0.5903 H   0  0  0  0  0  0  0  0  0  0  0  0
   -1.7510    1.0356   -1.4397 H   0  0  0  0  0  0  0  0  0  0  0  0
   -0.1423    1.5274   -1.9962 H   0  0  0  0  0  0  0  0  0  0  0  0
   -0.7049   -0.1208   -2.3606 H   0  0  0  0  0  0  0  0  0  0  0  0
    1.6830    1.3320   -0.5223 H   0  0  0  0  0  0  0  0  0  0  0  0
    1.1427   -0.5429    1.9553 H   0  0  0  0  0  0  0  0  0  0  0  0
    2.5108    0.6805    1.7431 H   0  0  0  0  0  0  0  0  0  0  0  0
    3.2255   -0.6904   -0.3964 H   0  0  0  0  0  0  0  0  0  0  0  0
    1.7892   -1.8114   -0.0848 H   0  0  0  0  0  0  0  0  0  0  0  0
  1  2  1  0
  2  3  1  0
  3  4  1  0
  3  5  1  0
  3  6  1  0
  6  7  1  0
  7  8  1  0
  8  6  1  0
  1  9  1  0
  1 10  1  0
  1 11  1  0
  4 12  1  0
  4 13  1  0
  4 14  1  0
  5 15  1  0
  5 16  1  0
  5 17  1  0
  6 18  1  0
  7 19  1  0
  7 20  1  0
  8 21  1  0
  8 22  1  0
M  END
