
     RDKit          3D

 23 23  0  0  0  0  0  0  0  0999 V2000
    2.5451   -0.5359   -0.6213 C   0  0  0  0  0  0  0  0  0  0  0  0
    1.5915   -0.4515    0.3892 O   0  0  0  0  0  0  0  0  0  0  0  0
    0.5847    0.4710    0.0595 C   0  0  0  0  0  0  0  0  0  0  0  0
    0.6221    1.5309    1.1522 C   0  0  0  0  0  0  0  0  0  0  0  0
   -0.7152   -0.2836    0.0774 C   0  0  0  0  0  0  0  0  0  0  0  0
   -1.0895   -0.9206    1.3845 C   0  0  0  0  0  0  0  0  0  0  0  0
   -0.9459   -1.1089   -1.2031 C   0  0  0  0  0  0  0  0  0  0  0  0
   -1.8177    0.0681   -0.8305 C   0  0  0  0  0  0  0  0  0  0  0  0
   -1.7899    1.2116   -1.6142 O   0  0  0  0  0  0  0  0  0  0  0  0
    2.0602   -0.8630   -1.5612 H   0  0  0  0  0  0  0  0  0  0  0  0
    3.0564    0.4483   -0.7467 H   0  0  0  0  0  0  0  0  0  0  0  0
    3.2794   -1.3039   -0.2983 H   0  0  0  0  0  0  0  0  0  0  0  0
    0.8318    0.8830   -0.9294 H   0  0  0  0  0  0  0  0  0  0  0  0
    1.6651    1.9101    1.2390 H   0  0  0  0  0  0  0  0  0  0  0  0
    0.3323    1.0467    2.0900 H   0  0  0  0  0  0  0  0  0  0  0  0
   -0.0341    2.3769    0.8587 H   0  0  0  0  0  0  0  0  0  0  0  0
   -1.3440   -0.1158    2.1059 H   0  0  0  0  0  0  0  0  0  0  0  0
   -2.0279   -1.5115    1.2331 H   0  0  0  0  0  0  0  0  0  0  0  0
   -0.2824   -1.5281    1.8331 H   0  0  0  0  0  0  0  0  0  0  0  0
   -0.2964   -0.9223   -2.0651 H   0  0  0  0  0  0  0  0  0  0  0  0
   -1.3075   -2.1402   -1.0048 H   0  0  0  0  0  0  0  0  0  0  0  0
   -2.8478   -0.2279   -0.5291 H   0  0  0  0  0  0  0  0  0  0  0  0
   -2.0704    1.9666   -1.0190 H   0  0  0  0  0  0  0  0  0  0  0  0
  1  2  1  0
  2  3  1  0
  3  4  1  0
  3  5  1  0
  5  6  1  0
  5  7  1  0
  7  8  1  0
  8  9  1  0
  8  5  1  0
  1 10  1  0
  1 11  1  0
  1 12  1  0
  3 13  1  0
  4 14  1  0
  4 15  1  0
  4 16  1  0
  6 17  1  0
  6 18  1  0
  6 19  1  0
  7 20  1  0
  7 21  1  0
  8 22  1  0
  9 23  1  0
M  END
