
     RDKit          3D

 23 23  0  0  0  0  0  0  0  0999 V2000
   -3.1431   -1.5296    0.5447 C   0  0  0  0  0  0  0  0  0  0  0  0
   -2.5586   -0.6226   -0.2993 O   0  0  0  0  0  0  0  0  0  0  0  0
   -1.4128   -0.0357    0.1274 C   0  0  0  0  0  0  0  0  0  0  0  0
   -1.5750    1.4705    0.3595 C   0  0  0  0  0  0  0  0  0  0  0  0
   -0.1990   -0.3255   -0.7160 C   0  0  0  0  0  0  0  0  0  0  0  0
    0.8727    0.3545   -0.1307 O   0  0  0  0  0  0  0  0  0  0  0  0
    2.0238    0.1009   -0.9005 C   0  0  0  0  0  0  0  0  0  0  0  0
    3.2631   -0.2641   -0.1055 C   0  0  0  0  0  0  0  0  0  0  0  0
    3.1500    1.0486   -0.8532 C   0  0  0  0  0  0  0  0  0  0  0  0
   -3.3844   -0.9737    1.4992 H   0  0  0  0  0  0  0  0  0  0  0  0
   -4.1250   -1.8786    0.1708 H   0  0  0  0  0  0  0  0  0  0  0  0
   -2.5441   -2.3880    0.8209 H   0  0  0  0  0  0  0  0  0  0  0  0
   -1.1929   -0.4535    1.1361 H   0  0  0  0  0  0  0  0  0  0  0  0
   -0.6478    1.8661    0.8160 H   0  0  0  0  0  0  0  0  0  0  0  0
   -2.3872    1.6002    1.1080 H   0  0  0  0  0  0  0  0  0  0  0  0
   -1.7616    2.0044   -0.5870 H   0  0  0  0  0  0  0  0  0  0  0  0
    0.0055   -1.3978   -0.6597 H   0  0  0  0  0  0  0  0  0  0  0  0
   -0.2850    0.0603   -1.7488 H   0  0  0  0  0  0  0  0  0  0  0  0
    1.8957   -0.5619   -1.7970 H   0  0  0  0  0  0  0  0  0  0  0  0
    3.9449   -1.0381   -0.4708 H   0  0  0  0  0  0  0  0  0  0  0  0
    3.2529   -0.1562    0.9958 H   0  0  0  0  0  0  0  0  0  0  0  0
    3.8192    1.1418   -1.7344 H   0  0  0  0  0  0  0  0  0  0  0  0
    2.9887    1.9781   -0.2534 H   0  0  0  0  0  0  0  0  0  0  0  0
  1  2  1  0
  2  3  1  0
  3  4  1  0
  3  5  1  0
  5  6  1  0
  6  7  1  0
  7  8  1  0
  8  9  1  0
  9  7  1  0
  1 10  1  0
  1 11  1  0
  1 12  1  0
  3 13  1  0
  4 14  1  0
  4 15  1  0
  4 16  1  0
  5 17  1  0
  5 18  1  0
  7 19  1  0
  8 20  1  0
  8 21  1  0
  9 22  1  0
  9 23  1  0
M  END
