
     RDKit          3D

 17 16  0  0  0  0  0  0  0  0999 V2000
    2.9906    0.3195   -0.5879 C   0  0  0  0  0  0  0  0  0  0  0  0
    1.6032    0.5512   -0.6875 O   0  0  0  0  0  0  0  0  0  0  0  0
    0.6572   -0.0179    0.1278 C   0  0  0  0  0  0  0  0  0  0  0  0
    1.0418   -0.7987    1.0260 O   0  0  0  0  0  0  0  0  0  0  0  0
   -0.7919    0.2533   -0.0118 C   0  0  0  0  0  0  0  0  0  0  0  0
   -1.0384    1.7010    0.1733 C   0  0  0  0  0  0  0  0  0  0  0  0
   -0.5485    2.4975   -0.5850 O   0  0  0  0  0  0  0  0  0  0  0  0
   -1.4530   -0.4884    0.9761 O   0  0  0  0  0  0  0  0  0  0  0  0
   -2.2990   -1.4396    0.4424 C   0  0  0  0  0  0  0  0  0  0  0  0
    3.2221   -0.5346    0.0921 H   0  0  0  0  0  0  0  0  0  0  0  0
    3.5533    1.1949   -0.2064 H   0  0  0  0  0  0  0  0  0  0  0  0
    3.3317   -0.0058   -1.5976 H   0  0  0  0  0  0  0  0  0  0  0  0
   -1.0974   -0.0912   -1.0307 H   0  0  0  0  0  0  0  0  0  0  0  0
   -1.6536    2.0277    0.9844 H   0  0  0  0  0  0  0  0  0  0  0  0
   -1.6852   -2.1322   -0.1778 H   0  0  0  0  0  0  0  0  0  0  0  0
   -2.7333   -2.0207    1.2524 H   0  0  0  0  0  0  0  0  0  0  0  0
   -3.0996   -1.0159   -0.1897 H   0  0  0  0  0  0  0  0  0  0  0  0
  1  2  1  0
  2  3  1  0
  3  4  2  0
  3  5  1  0
  5  6  1  0
  6  7  2  0
  5  8  1  0
  8  9  1  0
  1 10  1  0
  1 11  1  0
  1 12  1  0
  5 13  1  0
  6 14  1  0
  9 15  1  0
  9 16  1  0
  9 17  1  0
M  END
