
     RDKit          3D

 23 22  0  0  0  0  0  0  0  0999 V2000
   -2.8161    0.1827   -0.5326 C   0  0  0  0  0  0  0  0  0  0  0  0
   -1.5276    0.3182   -0.9657 O   0  0  0  0  0  0  0  0  0  0  0  0
   -0.5263    0.0951   -0.0711 C   0  0  0  0  0  0  0  0  0  0  0  0
   -0.5536    1.0096    1.1268 C   0  0  0  0  0  0  0  0  0  0  0  0
   -0.5547   -1.3325    0.4530 C   0  0  0  0  0  0  0  0  0  0  0  0
    0.8009    0.2168   -0.8210 C   0  0  0  0  0  0  0  0  0  0  0  0
    1.9270   -0.0034    0.1484 C   0  0  0  0  0  0  0  0  0  0  0  0
    3.2585    0.0950   -0.4888 C   0  0  0  0  0  0  0  0  0  0  0  0
    3.9666   -0.8793   -0.5992 O   0  0  0  0  0  0  0  0  0  0  0  0
   -3.0880   -0.8356   -0.1722 H   0  0  0  0  0  0  0  0  0  0  0  0
   -3.4662    0.3473   -1.4431 H   0  0  0  0  0  0  0  0  0  0  0  0
   -3.1499    0.9755    0.1786 H   0  0  0  0  0  0  0  0  0  0  0  0
    0.0864    0.5584    1.9244 H   0  0  0  0  0  0  0  0  0  0  0  0
   -1.5980    0.9622    1.5320 H   0  0  0  0  0  0  0  0  0  0  0  0
   -0.2443    2.0339    0.9355 H   0  0  0  0  0  0  0  0  0  0  0  0
   -1.5471   -1.6974    0.7006 H   0  0  0  0  0  0  0  0  0  0  0  0
    0.0205   -1.2920    1.4276 H   0  0  0  0  0  0  0  0  0  0  0  0
   -0.0032   -2.0123   -0.2443 H   0  0  0  0  0  0  0  0  0  0  0  0
    0.8061   -0.6742   -1.4955 H   0  0  0  0  0  0  0  0  0  0  0  0
    0.8862    1.1452   -1.3889 H   0  0  0  0  0  0  0  0  0  0  0  0
    1.8251   -1.0361    0.5819 H   0  0  0  0  0  0  0  0  0  0  0  0
    1.9133    0.7742    0.9651 H   0  0  0  0  0  0  0  0  0  0  0  0
    3.5844    1.0487   -0.8530 H   0  0  0  0  0  0  0  0  0  0  0  0
  1  2  1  0
  2  3  1  0
  3  4  1  0
  3  5  1  0
  3  6  1  0
  6  7  1  0
  7  8  1  0
  8  9  2  0
  1 10  1  0
  1 11  1  0
  1 12  1  0
  4 13  1  0
  4 14  1  0
  4 15  1  0
  5 16  1  0
  5 17  1  0
  5 18  1  0
  6 19  1  0
  6 20  1  0
  7 21  1  0
  7 22  1  0
  8 23  1  0
M  END
