
     RDKit          3D

 23 22  0  0  0  0  0  0  0  0999 V2000
    2.3778    1.2553    0.7876 C   0  0  0  0  0  0  0  0  0  0  0  0
    1.1647    0.5580    0.8509 O   0  0  0  0  0  0  0  0  0  0  0  0
    0.8929   -0.1618   -0.2924 C   0  0  0  0  0  0  0  0  0  0  0  0
    0.9378   -1.6586   -0.0865 C   0  0  0  0  0  0  0  0  0  0  0  0
   -0.2978    0.3026   -1.0460 C   0  0  0  0  0  0  0  0  0  0  0  0
   -1.5999    0.2814   -0.3185 C   0  0  0  0  0  0  0  0  0  0  0  0
   -2.0390   -1.0666    0.1682 C   0  0  0  0  0  0  0  0  0  0  0  0
   -1.6750    1.3217    0.7419 C   0  0  0  0  0  0  0  0  0  0  0  0
   -1.5416    0.9581    1.8935 O   0  0  0  0  0  0  0  0  0  0  0  0
    2.3676    1.9855   -0.0665 H   0  0  0  0  0  0  0  0  0  0  0  0
    2.5784    1.8301    1.6938 H   0  0  0  0  0  0  0  0  0  0  0  0
    3.2296    0.5608    0.5420 H   0  0  0  0  0  0  0  0  0  0  0  0
    1.7801    0.0358   -0.9804 H   0  0  0  0  0  0  0  0  0  0  0  0
    0.3829   -2.0286    0.7700 H   0  0  0  0  0  0  0  0  0  0  0  0
    0.6765   -2.1369   -1.0656 H   0  0  0  0  0  0  0  0  0  0  0  0
    2.0154   -1.9148    0.1193 H   0  0  0  0  0  0  0  0  0  0  0  0
   -0.3495   -0.2972   -1.9926 H   0  0  0  0  0  0  0  0  0  0  0  0
   -0.0771    1.3575   -1.3856 H   0  0  0  0  0  0  0  0  0  0  0  0
   -2.3747    0.6055   -1.0813 H   0  0  0  0  0  0  0  0  0  0  0  0
   -3.1706   -1.0875    0.1301 H   0  0  0  0  0  0  0  0  0  0  0  0
   -1.6259   -1.8299   -0.5210 H   0  0  0  0  0  0  0  0  0  0  0  0
   -1.8137   -1.2441    1.2378 H   0  0  0  0  0  0  0  0  0  0  0  0
   -1.8389    2.3737    0.5629 H   0  0  0  0  0  0  0  0  0  0  0  0
  1  2  1  0
  2  3  1  0
  3  4  1  0
  3  5  1  0
  5  6  1  0
  6  7  1  0
  6  8  1  0
  8  9  2  0
  1 10  1  0
  1 11  1  0
  1 12  1  0
  3 13  1  0
  4 14  1  0
  4 15  1  0
  4 16  1  0
  5 17  1  0
  5 18  1  0
  6 19  1  0
  7 20  1  0
  7 21  1  0
  7 22  1  0
  8 23  1  0
M  END
