
     RDKit          3D

 18 17  0  0  0  0  0  0  0  0999 V2000
    3.0304    0.4578    0.2012 C   0  0  0  0  0  0  0  0  0  0  0  0
    1.6568    0.7457   -0.0072 O   0  0  0  0  0  0  0  0  0  0  0  0
    0.6608   -0.1757    0.2853 C   0  0  0  0  0  0  0  0  0  0  0  0
    1.0386   -1.2833    0.7464 O   0  0  0  0  0  0  0  0  0  0  0  0
   -0.7354    0.2151    0.0349 C   0  0  0  0  0  0  0  0  0  0  0  0
   -0.8874    0.5261   -1.4203 C   0  0  0  0  0  0  0  0  0  0  0  0
   -1.7235   -0.8207    0.5187 C   0  0  0  0  0  0  0  0  0  0  0  0
   -3.0059   -0.3272    0.2209 O   0  0  0  0  0  0  0  0  0  0  0  0
    3.3902    1.2239    0.9387 H   0  0  0  0  0  0  0  0  0  0  0  0
    3.6067    0.6122   -0.7319 H   0  0  0  0  0  0  0  0  0  0  0  0
    3.1230   -0.5705    0.6036 H   0  0  0  0  0  0  0  0  0  0  0  0
   -0.9258    1.1609    0.6018 H   0  0  0  0  0  0  0  0  0  0  0  0
   -1.7840    1.1600   -1.5947 H   0  0  0  0  0  0  0  0  0  0  0  0
   -0.9239   -0.3978   -2.0369 H   0  0  0  0  0  0  0  0  0  0  0  0
    0.0332    1.0823   -1.7353 H   0  0  0  0  0  0  0  0  0  0  0  0
   -1.6352   -0.8979    1.6222 H   0  0  0  0  0  0  0  0  0  0  0  0
   -1.5467   -1.8112    0.1019 H   0  0  0  0  0  0  0  0  0  0  0  0
   -3.3719   -0.8999   -0.4945 H   0  0  0  0  0  0  0  0  0  0  0  0
  1  2  1  0
  2  3  1  0
  3  4  2  0
  3  5  1  0
  5  6  1  0
  5  7  1  0
  7  8  1  0
  1  9  1  0
  1 10  1  0
  1 11  1  0
  5 12  1  0
  6 13  1  0
  6 14  1  0
  6 15  1  0
  7 16  1  0
  7 17  1  0
  8 18  1  0
M  END
