
     RDKit          3D

 23 23  0  0  0  0  0  0  0  0999 V2000
   -0.5778    2.4001    0.2255 C   0  0  0  0  0  0  0  0  0  0  0  0
   -1.2227    1.2757    0.6285 O   0  0  0  0  0  0  0  0  0  0  0  0
   -0.7603    0.0765    0.1688 C   0  0  0  0  0  0  0  0  0  0  0  0
   -1.6890   -0.9782    0.7953 C   0  0  0  0  0  0  0  0  0  0  0  0
   -0.9254   -0.0825   -1.3325 C   0  0  0  0  0  0  0  0  0  0  0  0
    0.6308   -0.2817    0.6090 C   0  0  0  0  0  0  0  0  0  0  0  0
    1.2973   -1.3633   -0.2197 C   0  0  0  0  0  0  0  0  0  0  0  0
    2.5317   -0.5012   -0.0284 C   0  0  0  0  0  0  0  0  0  0  0  0
    1.6498    0.5617    0.2546 O   0  0  0  0  0  0  0  0  0  0  0  0
   -0.5608    2.5726   -0.8657 H   0  0  0  0  0  0  0  0  0  0  0  0
    0.4065    2.4759    0.7181 H   0  0  0  0  0  0  0  0  0  0  0  0
   -1.1667    3.2719    0.6419 H   0  0  0  0  0  0  0  0  0  0  0  0
   -1.8069   -0.7086    1.8736 H   0  0  0  0  0  0  0  0  0  0  0  0
   -2.6709   -0.8479    0.3235 H   0  0  0  0  0  0  0  0  0  0  0  0
   -1.2667   -1.9851    0.7242 H   0  0  0  0  0  0  0  0  0  0  0  0
   -1.0312   -1.1470   -1.5623 H   0  0  0  0  0  0  0  0  0  0  0  0
   -1.9183    0.3868   -1.5884 H   0  0  0  0  0  0  0  0  0  0  0  0
   -0.1652    0.4515   -1.9053 H   0  0  0  0  0  0  0  0  0  0  0  0
    0.7134   -0.5581    1.6810 H   0  0  0  0  0  0  0  0  0  0  0  0
    1.3830   -2.3434    0.2779 H   0  0  0  0  0  0  0  0  0  0  0  0
    0.9641   -1.4473   -1.2574 H   0  0  0  0  0  0  0  0  0  0  0  0
    3.0634   -0.3932   -0.9932 H   0  0  0  0  0  0  0  0  0  0  0  0
    3.1220   -0.8351    0.8312 H   0  0  0  0  0  0  0  0  0  0  0  0
  1  2  1  0
  2  3  1  0
  3  4  1  0
  3  5  1  0
  3  6  1  0
  6  7  1  0
  7  8  1  0
  8  9  1  0
  9  6  1  0
  1 10  1  0
  1 11  1  0
  1 12  1  0
  4 13  1  0
  4 14  1  0
  4 15  1  0
  5 16  1  0
  5 17  1  0
  5 18  1  0
  6 19  1  0
  7 20  1  0
  7 21  1  0
  8 22  1  0
  8 23  1  0
M  END
