
     RDKit          3D

 25 25  0  0  0  0  0  0  0  0999 V2000
    1.2569   -0.9862    1.8081 C   0  0  0  0  0  0  0  0  0  0  0  0
    0.9772    0.3003    1.4246 O   0  0  0  0  0  0  0  0  0  0  0  0
    0.6063    0.4713    0.1222 C   0  0  0  0  0  0  0  0  0  0  0  0
    1.6066    0.0461   -0.8944 C   0  0  0  0  0  0  0  0  0  0  0  0
    0.4359    1.9906   -0.0675 C   0  0  0  0  0  0  0  0  0  0  0  0
   -0.7844   -0.1110   -0.1655 C   0  0  0  0  0  0  0  0  0  0  0  0
   -1.9317    0.4740    0.6340 C   0  0  0  0  0  0  0  0  0  0  0  0
   -1.1233   -0.4922   -1.5682 C   0  0  0  0  0  0  0  0  0  0  0  0
   -0.9243   -1.5371   -0.5118 C   0  0  0  0  0  0  0  0  0  0  0  0
    2.1012   -1.3481    1.1724 H   0  0  0  0  0  0  0  0  0  0  0  0
    0.4461   -1.6983    1.7002 H   0  0  0  0  0  0  0  0  0  0  0  0
    1.6103   -0.9696    2.8529 H   0  0  0  0  0  0  0  0  0  0  0  0
    1.3281    0.5484   -1.8650 H   0  0  0  0  0  0  0  0  0  0  0  0
    1.6655   -1.0430   -1.0551 H   0  0  0  0  0  0  0  0  0  0  0  0
    2.5844    0.4276   -0.6204 H   0  0  0  0  0  0  0  0  0  0  0  0
    0.2269    2.4818    0.9010 H   0  0  0  0  0  0  0  0  0  0  0  0
    1.3998    2.4114   -0.4252 H   0  0  0  0  0  0  0  0  0  0  0  0
   -0.3113    2.2066   -0.8490 H   0  0  0  0  0  0  0  0  0  0  0  0
   -2.7939    0.6989   -0.0250 H   0  0  0  0  0  0  0  0  0  0  0  0
   -1.6310    1.3802    1.1922 H   0  0  0  0  0  0  0  0  0  0  0  0
   -2.2969   -0.2472    1.4150 H   0  0  0  0  0  0  0  0  0  0  0  0
   -2.1687   -0.2822   -1.9371 H   0  0  0  0  0  0  0  0  0  0  0  0
   -0.3874   -0.4269   -2.3829 H   0  0  0  0  0  0  0  0  0  0  0  0
   -1.8349   -2.0911   -0.1815 H   0  0  0  0  0  0  0  0  0  0  0  0
   -0.0575   -2.2041   -0.6740 H   0  0  0  0  0  0  0  0  0  0  0  0
  1  2  1  0
  2  3  1  0
  3  4  1  0
  3  5  1  0
  3  6  1  0
  6  7  1  0
  6  8  1  0
  8  9  1  0
  9  6  1  0
  1 10  1  0
  1 11  1  0
  1 12  1  0
  4 13  1  0
  4 14  1  0
  4 15  1  0
  5 16  1  0
  5 17  1  0
  5 18  1  0
  7 19  1  0
  7 20  1  0
  7 21  1  0
  8 22  1  0
  8 23  1  0
  9 24  1  0
  9 25  1  0
M  END
