
     RDKit          3D

 22 22  0  0  0  0  0  0  0  0999 V2000
    2.3217    0.6343   -1.1142 C   0  0  0  0  0  0  0  0  0  0  0  0
    1.3621    0.7944   -0.1672 O   0  0  0  0  0  0  0  0  0  0  0  0
    0.6876   -0.2887    0.2725 C   0  0  0  0  0  0  0  0  0  0  0  0
    0.7820   -0.6008    1.7274 C   0  0  0  0  0  0  0  0  0  0  0  0
   -0.7747   -0.1431   -0.0797 C   0  0  0  0  0  0  0  0  0  0  0  0
   -1.7280   -1.2510    0.3121 C   0  0  0  0  0  0  0  0  0  0  0  0
   -1.3888    1.2483    0.0845 C   0  0  0  0  0  0  0  0  0  0  0  0
   -1.0628    0.7205   -1.2631 C   0  0  0  0  0  0  0  0  0  0  0  0
    3.1640   -0.0229   -0.8331 H   0  0  0  0  0  0  0  0  0  0  0  0
    1.8564    0.2673   -2.0511 H   0  0  0  0  0  0  0  0  0  0  0  0
    2.7667    1.6244   -1.3431 H   0  0  0  0  0  0  0  0  0  0  0  0
    1.0506   -1.1778   -0.2874 H   0  0  0  0  0  0  0  0  0  0  0  0
    1.7778   -0.5405    2.1612 H   0  0  0  0  0  0  0  0  0  0  0  0
    0.0741    0.0206    2.3171 H   0  0  0  0  0  0  0  0  0  0  0  0
    0.4427   -1.6584    1.8782 H   0  0  0  0  0  0  0  0  0  0  0  0
   -1.6919   -1.4622    1.3934 H   0  0  0  0  0  0  0  0  0  0  0  0
   -2.7420   -0.9327    0.0231 H   0  0  0  0  0  0  0  0  0  0  0  0
   -1.5084   -2.1689   -0.2833 H   0  0  0  0  0  0  0  0  0  0  0  0
   -2.4324    1.3382    0.4256 H   0  0  0  0  0  0  0  0  0  0  0  0
   -0.7035    1.9918    0.5274 H   0  0  0  0  0  0  0  0  0  0  0  0
   -0.2985    1.2229   -1.8498 H   0  0  0  0  0  0  0  0  0  0  0  0
   -1.9547    0.3844   -1.8504 H   0  0  0  0  0  0  0  0  0  0  0  0
  1  2  1  0
  2  3  1  0
  3  4  1  0
  3  5  1  0
  5  6  1  0
  5  7  1  0
  7  8  1  0
  8  5  1  0
  1  9  1  0
  1 10  1  0
  1 11  1  0
  3 12  1  0
  4 13  1  0
  4 14  1  0
  4 15  1  0
  6 16  1  0
  6 17  1  0
  6 18  1  0
  7 19  1  0
  7 20  1  0
  8 21  1  0
  8 22  1  0
M  END
