
     RDKit          3D

 19 19  0  0  0  0  0  0  0  0999 V2000
    3.5838   -0.0863   -0.0961 C   0  0  0  0  0  0  0  0  0  0  0  0
    2.2302    0.3401   -0.2853 O   0  0  0  0  0  0  0  0  0  0  0  0
    1.1754   -0.4259    0.2196 C   0  0  0  0  0  0  0  0  0  0  0  0
    1.5021   -1.4765    0.8283 O   0  0  0  0  0  0  0  0  0  0  0  0
   -0.2110   -0.0276    0.0485 C   0  0  0  0  0  0  0  0  0  0  0  0
   -0.6201    1.0615   -0.5792 C   0  0  0  0  0  0  0  0  0  0  0  0
   -2.1045    1.1177   -0.5423 C   0  0  0  0  0  0  0  0  0  0  0  0
   -2.4591   -0.3477   -0.4153 C   0  0  0  0  0  0  0  0  0  0  0  0
   -1.3667   -0.8012    0.5622 C   0  0  0  0  0  0  0  0  0  0  0  0
    4.2856    0.7496   -0.1452 H   0  0  0  0  0  0  0  0  0  0  0  0
    3.8381   -0.9399   -0.7584 H   0  0  0  0  0  0  0  0  0  0  0  0
    3.6015   -0.5101    0.9460 H   0  0  0  0  0  0  0  0  0  0  0  0
    0.0549    1.7782   -1.0369 H   0  0  0  0  0  0  0  0  0  0  0  0
   -2.5389    1.5615   -1.4459 H   0  0  0  0  0  0  0  0  0  0  0  0
   -2.3778    1.6669    0.3821 H   0  0  0  0  0  0  0  0  0  0  0  0
   -3.4611   -0.5273   -0.0230 H   0  0  0  0  0  0  0  0  0  0  0  0
   -2.2551   -0.8431   -1.3895 H   0  0  0  0  0  0  0  0  0  0  0  0
   -1.2142   -1.8822    0.5411 H   0  0  0  0  0  0  0  0  0  0  0  0
   -1.6632   -0.4079    1.5667 H   0  0  0  0  0  0  0  0  0  0  0  0
  1  2  1  0
  2  3  1  0
  3  4  2  0
  3  5  1  0
  5  6  2  0
  6  7  1  0
  7  8  1  0
  8  9  1  0
  9  5  1  0
  1 10  1  0
  1 11  1  0
  1 12  1  0
  6 13  1  0
  7 14  1  0
  7 15  1  0
  8 16  1  0
  8 17  1  0
  9 18  1  0
  9 19  1  0
M  END
