
     RDKit          3D

 14 13  0  0  0  0  0  0  0  0999 V2000
    3.0762    0.2924   -0.0580 C   0  0  0  0  0  0  0  0  0  0  0  0
    1.8033   -0.1626    0.3795 O   0  0  0  0  0  0  0  0  0  0  0  0
    0.6773    0.1868   -0.3132 C   0  0  0  0  0  0  0  0  0  0  0  0
    0.8156    0.9129   -1.3322 O   0  0  0  0  0  0  0  0  0  0  0  0
   -0.6672   -0.2419    0.0744 C   0  0  0  0  0  0  0  0  0  0  0  0
   -0.8476   -0.9604    1.0754 O   0  0  0  0  0  0  0  0  0  0  0  0
   -1.7793    0.1363   -0.6573 O   0  0  0  0  0  0  0  0  0  0  0  0
   -3.0736   -0.2880   -0.2675 C   0  0  0  0  0  0  0  0  0  0  0  0
    3.6440   -0.5492   -0.5247 H   0  0  0  0  0  0  0  0  0  0  0  0
    3.6470    0.7075    0.8104 H   0  0  0  0  0  0  0  0  0  0  0  0
    2.9765    1.1554   -0.7736 H   0  0  0  0  0  0  0  0  0  0  0  0
   -3.6115   -0.5800   -1.1977 H   0  0  0  0  0  0  0  0  0  0  0  0
   -3.0361   -1.1535    0.4399 H   0  0  0  0  0  0  0  0  0  0  0  0
   -3.6245    0.5445    0.2290 H   0  0  0  0  0  0  0  0  0  0  0  0
  1  2  1  0
  2  3  1  0
  3  4  2  0
  3  5  1  0
  5  6  2  0
  5  7  1  0
  7  8  1  0
  1  9  1  0
  1 10  1  0
  1 11  1  0
  8 12  1  0
  8 13  1  0
  8 14  1  0
M  END
