
     RDKit          3D

 16 16  0  0  0  0  0  0  0  0999 V2000
   -2.9537   -0.0794   -0.1601 C   0  0  0  0  0  0  0  0  0  0  0  0
   -1.6018   -0.4168   -0.2780 O   0  0  0  0  0  0  0  0  0  0  0  0
   -0.5752    0.4763   -0.4951 C   0  0  0  0  0  0  0  0  0  0  0  0
   -0.8441    1.6901   -0.5989 O   0  0  0  0  0  0  0  0  0  0  0  0
    0.7946   -0.0941   -0.5892 C   0  0  0  0  0  0  0  0  0  0  0  0
    1.3375   -0.2917    0.8243 C   0  0  0  0  0  0  0  0  0  0  0  0
    2.6003    0.0647    0.0759 C   0  0  0  0  0  0  0  0  0  0  0  0
    1.8100    0.8082   -0.8060 O   0  0  0  0  0  0  0  0  0  0  0  0
   -3.5178   -1.0505   -0.0501 H   0  0  0  0  0  0  0  0  0  0  0  0
   -3.1543    0.4635    0.8029 H   0  0  0  0  0  0  0  0  0  0  0  0
   -3.3762    0.4444   -1.0263 H   0  0  0  0  0  0  0  0  0  0  0  0
    0.8276   -1.0289   -1.1833 H   0  0  0  0  0  0  0  0  0  0  0  0
    1.2660   -1.3181    1.2009 H   0  0  0  0  0  0  0  0  0  0  0  0
    0.9770    0.5114    1.4829 H   0  0  0  0  0  0  0  0  0  0  0  0
    3.0715   -0.8211   -0.4065 H   0  0  0  0  0  0  0  0  0  0  0  0
    3.3386    0.6420    0.6544 H   0  0  0  0  0  0  0  0  0  0  0  0
  1  2  1  0
  2  3  1  0
  3  4  2  0
  3  5  1  0
  5  6  1  0
  6  7  1  0
  7  8  1  0
  8  5  1  0
  1  9  1  0
  1 10  1  0
  1 11  1  0
  5 12  1  0
  6 13  1  0
  6 14  1  0
  7 15  1  0
  7 16  1  0
M  END
