
     RDKit          3D

 15 14  0  0  0  0  0  0  0  0999 V2000
    2.9336   -0.3370    0.1133 C   0  0  0  0  0  0  0  0  0  0  0  0
    1.6669   -0.1832    0.7513 O   0  0  0  0  0  0  0  0  0  0  0  0
    0.4900   -0.2940    0.0404 C   0  0  0  0  0  0  0  0  0  0  0  0
    0.4818   -0.5396   -1.1799 O   0  0  0  0  0  0  0  0  0  0  0  0
   -0.7809   -0.1173    0.7284 C   0  0  0  0  0  0  0  0  0  0  0  0
   -0.8049    0.1299    1.9414 O   0  0  0  0  0  0  0  0  0  0  0  0
   -2.0720   -0.2258   -0.0106 C   0  0  0  0  0  0  0  0  0  0  0  0
   -2.2160    0.9328   -0.9562 C   0  0  0  0  0  0  0  0  0  0  0  0
   -1.3853    1.8246   -1.0370 O   0  0  0  0  0  0  0  0  0  0  0  0
    3.5669   -1.0798    0.5874 H   0  0  0  0  0  0  0  0  0  0  0  0
    2.7689   -0.4475   -0.9764 H   0  0  0  0  0  0  0  0  0  0  0  0
    3.4217    0.6767    0.2223 H   0  0  0  0  0  0  0  0  0  0  0  0
   -2.0655   -1.1434   -0.5984 H   0  0  0  0  0  0  0  0  0  0  0  0
   -2.9129   -0.1454    0.7340 H   0  0  0  0  0  0  0  0  0  0  0  0
   -3.0922    0.9490   -1.5715 H   0  0  0  0  0  0  0  0  0  0  0  0
  1  2  1  0
  2  3  1  0
  3  4  2  0
  3  5  1  0
  5  6  2  0
  5  7  1  0
  7  8  1  0
  8  9  2  0
  1 10  1  0
  1 11  1  0
  1 12  1  0
  7 13  1  0
  7 14  1  0
  8 15  1  0
M  END
