
     RDKit          3D

 23 22  0  0  0  0  0  0  0  0999 V2000
    2.8162    0.7796   -0.0774 C   0  0  0  0  0  0  0  0  0  0  0  0
    1.7716    0.2588    0.6766 O   0  0  0  0  0  0  0  0  0  0  0  0
    0.8309   -0.3300   -0.1806 C   0  0  0  0  0  0  0  0  0  0  0  0
    0.7692   -1.7836    0.1502 C   0  0  0  0  0  0  0  0  0  0  0  0
   -0.4532    0.4014   -0.0184 C   0  0  0  0  0  0  0  0  0  0  0  0
   -0.9965    0.3533    1.3909 C   0  0  0  0  0  0  0  0  0  0  0  0
   -1.5362   -0.0526   -0.9496 C   0  0  0  0  0  0  0  0  0  0  0  0
   -2.7904    0.7174   -0.7358 C   0  0  0  0  0  0  0  0  0  0  0  0
   -2.7862    1.5782    0.1247 O   0  0  0  0  0  0  0  0  0  0  0  0
    2.3664    1.5407   -0.7621 H   0  0  0  0  0  0  0  0  0  0  0  0
    3.2852   -0.0457   -0.6361 H   0  0  0  0  0  0  0  0  0  0  0  0
    3.5420    1.2735    0.6025 H   0  0  0  0  0  0  0  0  0  0  0  0
    1.1664   -0.2250   -1.2223 H   0  0  0  0  0  0  0  0  0  0  0  0
    0.8315   -1.9002    1.2689 H   0  0  0  0  0  0  0  0  0  0  0  0
   -0.1094   -2.3063   -0.2723 H   0  0  0  0  0  0  0  0  0  0  0  0
    1.6764   -2.2791   -0.2637 H   0  0  0  0  0  0  0  0  0  0  0  0
   -0.2521    1.4816   -0.2336 H   0  0  0  0  0  0  0  0  0  0  0  0
   -1.1584    1.3613    1.8266 H   0  0  0  0  0  0  0  0  0  0  0  0
   -0.3055   -0.1701    2.0844 H   0  0  0  0  0  0  0  0  0  0  0  0
   -1.9605   -0.1948    1.4281 H   0  0  0  0  0  0  0  0  0  0  0  0
   -1.2581    0.1181   -2.0289 H   0  0  0  0  0  0  0  0  0  0  0  0
   -1.7701   -1.1184   -0.8686 H   0  0  0  0  0  0  0  0  0  0  0  0
   -3.6791    0.5419   -1.3034 H   0  0  0  0  0  0  0  0  0  0  0  0
  1  2  1  0
  2  3  1  0
  3  4  1  0
  3  5  1  0
  5  6  1  0
  5  7  1  0
  7  8  1  0
  8  9  2  0
  1 10  1  0
  1 11  1  0
  1 12  1  0
  3 13  1  0
  4 14  1  0
  4 15  1  0
  4 16  1  0
  5 17  1  0
  6 18  1  0
  6 19  1  0
  6 20  1  0
  7 21  1  0
  7 22  1  0
  8 23  1  0
M  END
