
     RDKit          3D

 21 22  0  0  0  0  0  0  0  0999 V2000
   -2.4845   -0.7968   -0.8216 C   0  0  0  0  0  0  0  0  0  0  0  0
   -1.5643   -0.6792    0.2017 O   0  0  0  0  0  0  0  0  0  0  0  0
   -0.6190    0.3325   -0.0172 C   0  0  0  0  0  0  0  0  0  0  0  0
   -0.9304    1.4211    0.9889 C   0  0  0  0  0  0  0  0  0  0  0  0
    0.6723   -0.1701   -0.0412 C   0  0  0  0  0  0  0  0  0  0  0  0
    1.3417   -0.9335    1.0683 C   0  0  0  0  0  0  0  0  0  0  0  0
    2.2911   -0.8607   -0.0902 C   0  0  0  0  0  0  0  0  0  0  0  0
    1.9427    0.5882   -0.2005 C   0  0  0  0  0  0  0  0  0  0  0  0
    1.1874   -1.1072   -0.8970 O   0  0  0  0  0  0  0  0  0  0  0  0
   -3.0177    0.1720   -0.9067 H   0  0  0  0  0  0  0  0  0  0  0  0
   -1.8910   -0.9957   -1.7611 H   0  0  0  0  0  0  0  0  0  0  0  0
   -3.1729   -1.6001   -0.5730 H   0  0  0  0  0  0  0  0  0  0  0  0
   -0.9036    0.7765   -1.0186 H   0  0  0  0  0  0  0  0  0  0  0  0
   -1.4883    2.2610    0.5732 H   0  0  0  0  0  0  0  0  0  0  0  0
    0.0272    1.8286    1.4163 H   0  0  0  0  0  0  0  0  0  0  0  0
   -1.5257    1.0331    1.8512 H   0  0  0  0  0  0  0  0  0  0  0  0
    1.5617   -0.2870    1.9314 H   0  0  0  0  0  0  0  0  0  0  0  0
    0.9644   -1.9366    1.2751 H   0  0  0  0  0  0  0  0  0  0  0  0
    3.2018   -1.2856   -0.1607 H   0  0  0  0  0  0  0  0  0  0  0  0
    2.1441    1.0184   -1.1939 H   0  0  0  0  0  0  0  0  0  0  0  0
    2.2631    1.2211    0.6454 H   0  0  0  0  0  0  0  0  0  0  0  0
  1  2  1  0
  2  3  1  0
  3  4  1  0
  3  5  1  0
  5  6  1  0
  6  7  1  0
  7  8  1  0
  7  9  1  0
  8  5  1  0
  9  5  1  0
  1 10  1  0
  1 11  1  0
  1 12  1  0
  3 13  1  0
  4 14  1  0
  4 15  1  0
  4 16  1  0
  6 17  1  0
  6 18  1  0
  7 19  1  0
  8 20  1  0
  8 21  1  0
M  END
