
     RDKit          3D

 20 20  0  0  0  0  0  0  0  0999 V2000
   -2.6560    0.9541    0.4183 C   0  0  0  0  0  0  0  0  0  0  0  0
   -1.6841    0.0914    0.8876 O   0  0  0  0  0  0  0  0  0  0  0  0
   -0.7850   -0.3006   -0.0977 C   0  0  0  0  0  0  0  0  0  0  0  0
   -0.9988   -1.8199   -0.2166 C   0  0  0  0  0  0  0  0  0  0  0  0
    0.6509   -0.1211    0.3226 C   0  0  0  0  0  0  0  0  0  0  0  0
    0.9174    1.3013    0.6289 O   0  0  0  0  0  0  0  0  0  0  0  0
    1.6079    0.6673   -0.4241 C   0  0  0  0  0  0  0  0  0  0  0  0
    3.0681    0.5083   -0.1410 C   0  0  0  0  0  0  0  0  0  0  0  0
   -2.2469    1.8842    0.0057 H   0  0  0  0  0  0  0  0  0  0  0  0
   -3.2373    0.3964   -0.3545 H   0  0  0  0  0  0  0  0  0  0  0  0
   -3.3541    1.2185    1.2371 H   0  0  0  0  0  0  0  0  0  0  0  0
   -1.0008    0.1444   -1.0870 H   0  0  0  0  0  0  0  0  0  0  0  0
   -0.1730   -2.1926   -0.8272 H   0  0  0  0  0  0  0  0  0  0  0  0
   -1.9999   -2.0486   -0.5734 H   0  0  0  0  0  0  0  0  0  0  0  0
   -0.9242   -2.1854    0.8477 H   0  0  0  0  0  0  0  0  0  0  0  0
    1.0571   -0.8174    1.0837 H   0  0  0  0  0  0  0  0  0  0  0  0
    1.3496    0.9713   -1.4481 H   0  0  0  0  0  0  0  0  0  0  0  0
    3.2830    0.0222    0.8235 H   0  0  0  0  0  0  0  0  0  0  0  0
    3.6128    1.4622   -0.1576 H   0  0  0  0  0  0  0  0  0  0  0  0
    3.5133   -0.1358   -0.9279 H   0  0  0  0  0  0  0  0  0  0  0  0
  1  2  1  0
  2  3  1  0
  3  4  1  0
  3  5  1  0
  5  6  1  0
  6  7  1  0
  7  8  1  0
  7  5  1  0
  1  9  1  0
  1 10  1  0
  1 11  1  0
  3 12  1  0
  4 13  1  0
  4 14  1  0
  4 15  1  0
  5 16  1  0
  7 17  1  0
  8 18  1  0
  8 19  1  0
  8 20  1  0
M  END
