
     RDKit          3D

 15 15  0  0  0  0  0  0  0  0999 V2000
    2.6514   -0.2526   -0.0765 C   0  0  0  0  0  0  0  0  0  0  0  0
    1.3912   -0.8043    0.2121 O   0  0  0  0  0  0  0  0  0  0  0  0
    0.4249    0.0744    0.7370 C   0  0  0  0  0  0  0  0  0  0  0  0
    0.7224    1.2829    0.9203 O   0  0  0  0  0  0  0  0  0  0  0  0
   -0.9273   -0.4016    1.0737 C   0  0  0  0  0  0  0  0  0  0  0  0
   -1.8135   -0.4099   -0.1265 C   0  0  0  0  0  0  0  0  0  0  0  0
   -2.1304    0.9817    0.2981 C   0  0  0  0  0  0  0  0  0  0  0  0
   -2.5599    1.9782   -0.3256 O   0  0  0  0  0  0  0  0  0  0  0  0
   -1.7448    0.6250    1.5837 O   0  0  0  0  0  0  0  0  0  0  0  0
    2.5462    0.5208   -0.8870 H   0  0  0  0  0  0  0  0  0  0  0  0
    3.4152   -1.0100   -0.3120 H   0  0  0  0  0  0  0  0  0  0  0  0
    2.9570    0.3385    0.8357 H   0  0  0  0  0  0  0  0  0  0  0  0
   -0.9771   -1.2883    1.7348 H   0  0  0  0  0  0  0  0  0  0  0  0
   -1.3085   -0.5058   -1.1023 H   0  0  0  0  0  0  0  0  0  0  0  0
   -2.6469   -1.1289   -0.0403 H   0  0  0  0  0  0  0  0  0  0  0  0
  1  2  1  0
  2  3  1  0
  3  4  2  0
  3  5  1  0
  5  6  1  0
  6  7  1  0
  7  8  2  0
  7  9  1  0
  9  5  1  0
  1 10  1  0
  1 11  1  0
  1 12  1  0
  5 13  1  0
  6 14  1  0
  6 15  1  0
M  END
