
     RDKit          3D

 19 18  0  0  0  0  0  0  0  0999 V2000
   -1.5882   -1.3847    2.5144 C   0  0  0  0  0  0  0  0  0  0  0  0
   -1.6397   -0.7205    1.2823 O   0  0  0  0  0  0  0  0  0  0  0  0
   -0.5923    0.1924    1.1603 C   0  0  0  0  0  0  0  0  0  0  0  0
   -1.1997    1.5517    0.9350 C   0  0  0  0  0  0  0  0  0  0  0  0
    0.2419   -0.1007   -0.0242 C   0  0  0  0  0  0  0  0  0  0  0  0
    0.9354   -0.3485   -0.9765 C   0  0  0  0  0  0  0  0  0  0  0  0
    1.7624   -0.6578   -2.1540 C   0  0  0  0  0  0  0  0  0  0  0  0
    2.2595    0.6158   -2.7200 C   0  0  0  0  0  0  0  0  0  0  0  0
    1.9811    1.6803   -2.2303 O   0  0  0  0  0  0  0  0  0  0  0  0
   -2.4384   -2.0863    2.5450 H   0  0  0  0  0  0  0  0  0  0  0  0
   -0.6614   -1.9784    2.6227 H   0  0  0  0  0  0  0  0  0  0  0  0
   -1.6136   -0.6584    3.3260 H   0  0  0  0  0  0  0  0  0  0  0  0
    0.0066    0.1494    2.0772 H   0  0  0  0  0  0  0  0  0  0  0  0
   -0.5004    2.3794    1.1606 H   0  0  0  0  0  0  0  0  0  0  0  0
   -1.6297    1.6198   -0.0847 H   0  0  0  0  0  0  0  0  0  0  0  0
   -2.0548    1.6558    1.6355 H   0  0  0  0  0  0  0  0  0  0  0  0
    2.6363   -1.2895   -1.8766 H   0  0  0  0  0  0  0  0  0  0  0  0
    1.1929   -1.2554   -2.9035 H   0  0  0  0  0  0  0  0  0  0  0  0
    2.9020    0.6354   -3.6095 H   0  0  0  0  0  0  0  0  0  0  0  0
  1  2  1  0
  2  3  1  0
  3  4  1  0
  3  5  1  0
  5  6  3  0
  6  7  1  0
  7  8  1  0
  8  9  2  0
  1 10  1  0
  1 11  1  0
  1 12  1  0
  3 13  1  0
  4 14  1  0
  4 15  1  0
  4 16  1  0
  7 17  1  0
  7 18  1  0
  8 19  1  0
M  END
