
     RDKit          3D

 18 18  0  0  0  0  0  0  0  0999 V2000
   -1.7987   -0.0011    1.4690 C   0  0  0  0  0  0  0  0  0  0  0  0
   -1.3423   -0.6093    0.3362 O   0  0  0  0  0  0  0  0  0  0  0  0
   -0.5303    0.1246   -0.4819 C   0  0  0  0  0  0  0  0  0  0  0  0
   -1.1444    0.4201   -1.8064 C   0  0  0  0  0  0  0  0  0  0  0  0
   -0.5104    1.0698   -2.6201 O   0  0  0  0  0  0  0  0  0  0  0  0
    0.8242   -0.4984   -0.6086 C   0  0  0  0  0  0  0  0  0  0  0  0
    1.6357   -0.6642    0.6916 C   0  0  0  0  0  0  0  0  0  0  0  0
    2.0704    0.2894   -0.3560 C   0  0  0  0  0  0  0  0  0  0  0  0
   -2.4012    0.9111    1.2874 H   0  0  0  0  0  0  0  0  0  0  0  0
   -1.0316    0.2388    2.2228 H   0  0  0  0  0  0  0  0  0  0  0  0
   -2.5188   -0.7255    1.9517 H   0  0  0  0  0  0  0  0  0  0  0  0
   -0.3961    1.1327    0.0032 H   0  0  0  0  0  0  0  0  0  0  0  0
   -2.1288    0.0982   -2.1119 H   0  0  0  0  0  0  0  0  0  0  0  0
    0.9588   -1.3404   -1.3534 H   0  0  0  0  0  0  0  0  0  0  0  0
    1.2201   -0.2550    1.6317 H   0  0  0  0  0  0  0  0  0  0  0  0
    2.1249   -1.6478    0.8212 H   0  0  0  0  0  0  0  0  0  0  0  0
    2.0059    1.3689   -0.0805 H   0  0  0  0  0  0  0  0  0  0  0  0
    2.9626    0.0881   -0.9961 H   0  0  0  0  0  0  0  0  0  0  0  0
  1  2  1  0
  2  3  1  0
  3  4  1  0
  4  5  2  0
  3  6  1  0
  6  7  1  0
  7  8  1  0
  8  6  1  0
  1  9  1  0
  1 10  1  0
  1 11  1  0
  3 12  1  0
  4 13  1  0
  6 14  1  0
  7 15  1  0
  7 16  1  0
  8 17  1  0
  8 18  1  0
M  END
