
     RDKit          3D

 19 18  0  0  0  0  0  0  0  0999 V2000
   -2.4299   -0.2139   -0.0491 C   0  0  0  0  0  0  0  0  0  0  0  0
   -1.1744    0.2402    0.3350 O   0  0  0  0  0  0  0  0  0  0  0  0
   -0.2086   -0.0523   -0.5924 C   0  0  0  0  0  0  0  0  0  0  0  0
    0.3848    1.1531   -1.2555 C   0  0  0  0  0  0  0  0  0  0  0  0
    0.7911   -1.0276   -0.0920 C   0  0  0  0  0  0  0  0  0  0  0  0
    1.5703   -0.6900    1.0750 C   0  0  0  0  0  0  0  0  0  0  0  0
    2.4070   -1.5865    1.4570 O   0  0  0  0  0  0  0  0  0  0  0  0
    1.5123    0.5090    1.8351 C   0  0  0  0  0  0  0  0  0  0  0  0
    0.7397    1.4385    1.5511 O   0  0  0  0  0  0  0  0  0  0  0  0
   -2.6759    0.2922   -1.0137 H   0  0  0  0  0  0  0  0  0  0  0  0
   -3.1412    0.1238    0.7507 H   0  0  0  0  0  0  0  0  0  0  0  0
   -2.4299   -1.3161   -0.1539 H   0  0  0  0  0  0  0  0  0  0  0  0
   -0.7661   -0.6009   -1.4241 H   0  0  0  0  0  0  0  0  0  0  0  0
   -0.1889    2.0383   -0.9455 H   0  0  0  0  0  0  0  0  0  0  0  0
    1.4654    1.3061   -1.0680 H   0  0  0  0  0  0  0  0  0  0  0  0
    0.2938    1.0658   -2.3675 H   0  0  0  0  0  0  0  0  0  0  0  0
    0.2086   -1.9638    0.1729 H   0  0  0  0  0  0  0  0  0  0  0  0
    1.4915   -1.3571   -0.9077 H   0  0  0  0  0  0  0  0  0  0  0  0
    2.1502    0.6414    2.6923 H   0  0  0  0  0  0  0  0  0  0  0  0
  1  2  1  0
  2  3  1  0
  3  4  1  0
  3  5  1  0
  5  6  1  0
  6  7  2  0
  6  8  1  0
  8  9  2  0
  1 10  1  0
  1 11  1  0
  1 12  1  0
  3 13  1  0
  4 14  1  0
  4 15  1  0
  4 16  1  0
  5 17  1  0
  5 18  1  0
  8 19  1  0
M  END
