
     RDKit          3D

 19 19  0  0  0  0  0  0  0  0999 V2000
    3.1850   -0.9264    0.3323 C   0  0  0  0  0  0  0  0  0  0  0  0
    1.8393   -0.6980    0.6526 O   0  0  0  0  0  0  0  0  0  0  0  0
    1.0488    0.2556    0.0197 C   0  0  0  0  0  0  0  0  0  0  0  0
    1.5866    0.9399   -0.8857 O   0  0  0  0  0  0  0  0  0  0  0  0
   -0.3492    0.3928    0.4528 C   0  0  0  0  0  0  0  0  0  0  0  0
   -1.1426   -0.8857    0.2726 C   0  0  0  0  0  0  0  0  0  0  0  0
   -2.5273   -0.3155    0.0838 C   0  0  0  0  0  0  0  0  0  0  0  0
   -2.4729    0.9172   -0.3705 C   0  0  0  0  0  0  0  0  0  0  0  0
   -1.0545    1.2937   -0.5317 C   0  0  0  0  0  0  0  0  0  0  0  0
    3.6368    0.0558    0.0681 H   0  0  0  0  0  0  0  0  0  0  0  0
    3.3335   -1.6031   -0.5247 H   0  0  0  0  0  0  0  0  0  0  0  0
    3.6734   -1.3187    1.2699 H   0  0  0  0  0  0  0  0  0  0  0  0
   -0.4717    0.7782    1.4638 H   0  0  0  0  0  0  0  0  0  0  0  0
   -1.1384   -1.5335    1.1529 H   0  0  0  0  0  0  0  0  0  0  0  0
   -0.8197   -1.4731   -0.6043 H   0  0  0  0  0  0  0  0  0  0  0  0
   -3.4513   -0.8375    0.2897 H   0  0  0  0  0  0  0  0  0  0  0  0
   -3.3247    1.5911   -0.6046 H   0  0  0  0  0  0  0  0  0  0  0  0
   -0.6846    0.9987   -1.5433 H   0  0  0  0  0  0  0  0  0  0  0  0
   -0.8664    2.3685   -0.3243 H   0  0  0  0  0  0  0  0  0  0  0  0
  1  2  1  0
  2  3  1  0
  3  4  2  0
  3  5  1  0
  5  6  1  0
  6  7  1  0
  7  8  2  0
  8  9  1  0
  9  5  1  0
  1 10  1  0
  1 11  1  0
  1 12  1  0
  5 13  1  0
  6 14  1  0
  6 15  1  0
  7 16  1  0
  8 17  1  0
  9 18  1  0
  9 19  1  0
M  END
