
     RDKit          3D

 21 20  0  0  0  0  0  0  0  0999 V2000
   -1.9913    0.0958    1.6983 C   0  0  0  0  0  0  0  0  0  0  0  0
   -1.0769    0.5210    0.7385 O   0  0  0  0  0  0  0  0  0  0  0  0
   -0.9298   -0.4467   -0.2223 C   0  0  0  0  0  0  0  0  0  0  0  0
   -1.4840    0.1216   -1.5265 C   0  0  0  0  0  0  0  0  0  0  0  0
    0.4556   -0.8730   -0.4677 C   0  0  0  0  0  0  0  0  0  0  0  0
    0.6012   -1.7321   -1.3187 O   0  0  0  0  0  0  0  0  0  0  0  0
    1.6595   -0.3858    0.1884 C   0  0  0  0  0  0  0  0  0  0  0  0
    1.9086    1.0901    0.0639 C   0  0  0  0  0  0  0  0  0  0  0  0
    2.7858   -1.0313   -0.3141 O   0  0  0  0  0  0  0  0  0  0  0  0
   -2.1333    0.8607    2.4941 H   0  0  0  0  0  0  0  0  0  0  0  0
   -1.6224   -0.8187    2.2432 H   0  0  0  0  0  0  0  0  0  0  0  0
   -2.9731   -0.1599    1.2983 H   0  0  0  0  0  0  0  0  0  0  0  0
   -1.5831   -1.3306    0.0121 H   0  0  0  0  0  0  0  0  0  0  0  0
   -1.1744   -0.5927   -2.3213 H   0  0  0  0  0  0  0  0  0  0  0  0
   -1.0030    1.0914   -1.7600 H   0  0  0  0  0  0  0  0  0  0  0  0
   -2.5745    0.1885   -1.5300 H   0  0  0  0  0  0  0  0  0  0  0  0
    1.6111   -0.6162    1.2749 H   0  0  0  0  0  0  0  0  0  0  0  0
    2.1309    1.4117   -0.9751 H   0  0  0  0  0  0  0  0  0  0  0  0
    2.8377    1.3053    0.6463 H   0  0  0  0  0  0  0  0  0  0  0  0
    1.1258    1.7168    0.5214 H   0  0  0  0  0  0  0  0  0  0  0  0
    3.4296   -0.4158   -0.7435 H   0  0  0  0  0  0  0  0  0  0  0  0
  1  2  1  0
  2  3  1  0
  3  4  1  0
  3  5  1  0
  5  6  2  0
  5  7  1  0
  7  8  1  0
  7  9  1  0
  1 10  1  0
  1 11  1  0
  1 12  1  0
  3 13  1  0
  4 14  1  0
  4 15  1  0
  4 16  1  0
  7 17  1  0
  8 18  1  0
  8 19  1  0
  8 20  1  0
  9 21  1  0
M  END
