
     RDKit          3D

 15 14  0  0  0  0  0  0  0  0999 V2000
    3.1075   -0.9266    0.6024 C   0  0  0  0  0  0  0  0  0  0  0  0
    1.9757   -0.1299    0.9016 O   0  0  0  0  0  0  0  0  0  0  0  0
    0.7555   -0.3439    0.2770 C   0  0  0  0  0  0  0  0  0  0  0  0
    0.7304   -1.2939   -0.5707 O   0  0  0  0  0  0  0  0  0  0  0  0
   -0.4241    0.4521    0.5587 C   0  0  0  0  0  0  0  0  0  0  0  0
   -0.3141    1.3723    1.4103 O   0  0  0  0  0  0  0  0  0  0  0  0
   -1.7036    0.2332   -0.0912 C   0  0  0  0  0  0  0  0  0  0  0  0
   -2.9078    1.0480    0.1984 C   0  0  0  0  0  0  0  0  0  0  0  0
   -1.8410   -0.6805   -0.9468 O   0  0  0  0  0  0  0  0  0  0  0  0
    3.7748   -0.4335   -0.1441 H   0  0  0  0  0  0  0  0  0  0  0  0
    3.6748   -1.0683    1.5651 H   0  0  0  0  0  0  0  0  0  0  0  0
    2.8337   -1.9291    0.2307 H   0  0  0  0  0  0  0  0  0  0  0  0
   -3.3972    1.2529   -0.7780 H   0  0  0  0  0  0  0  0  0  0  0  0
   -2.6661    1.9826    0.7411 H   0  0  0  0  0  0  0  0  0  0  0  0
   -3.5986    0.4647    0.8716 H   0  0  0  0  0  0  0  0  0  0  0  0
  1  2  1  0
  2  3  1  0
  3  4  2  0
  3  5  1  0
  5  6  2  0
  5  7  1  0
  7  8  1  0
  7  9  2  0
  1 10  1  0
  1 11  1  0
  1 12  1  0
  8 13  1  0
  8 14  1  0
  8 15  1  0
M  END
