
     RDKit          3D

 19 19  0  0  0  0  0  0  0  0999 V2000
    3.2396    0.2272   -0.1958 C   0  0  0  0  0  0  0  0  0  0  0  0
    1.9713   -0.0173    0.3568 O   0  0  0  0  0  0  0  0  0  0  0  0
    0.7849    0.1238   -0.3206 C   0  0  0  0  0  0  0  0  0  0  0  0
    0.8152    0.4968   -1.5197 O   0  0  0  0  0  0  0  0  0  0  0  0
   -0.4737   -0.1709    0.3960 C   0  0  0  0  0  0  0  0  0  0  0  0
   -0.2709   -0.5602    1.6906 O   0  0  0  0  0  0  0  0  0  0  0  0
   -1.4352    0.9853    0.2142 C   0  0  0  0  0  0  0  0  0  0  0  0
   -2.2136    0.1681   -0.7712 C   0  0  0  0  0  0  0  0  0  0  0  0
   -1.4446   -1.0534   -0.3498 C   0  0  0  0  0  0  0  0  0  0  0  0
    3.6932   -0.7245   -0.5148 H   0  0  0  0  0  0  0  0  0  0  0  0
    3.2430    1.0109   -0.9661 H   0  0  0  0  0  0  0  0  0  0  0  0
    3.8868    0.6033    0.6435 H   0  0  0  0  0  0  0  0  0  0  0  0
   -0.3316   -1.5577    1.7401 H   0  0  0  0  0  0  0  0  0  0  0  0
   -2.0076    1.2567    1.1453 H   0  0  0  0  0  0  0  0  0  0  0  0
   -0.9933    1.8980   -0.1969 H   0  0  0  0  0  0  0  0  0  0  0  0
   -2.0948    0.4602   -1.8456 H   0  0  0  0  0  0  0  0  0  0  0  0
   -3.2902    0.1580   -0.5016 H   0  0  0  0  0  0  0  0  0  0  0  0
   -2.0576   -1.6376    0.3781 H   0  0  0  0  0  0  0  0  0  0  0  0
   -1.0208   -1.6666   -1.1536 H   0  0  0  0  0  0  0  0  0  0  0  0
  1  2  1  0
  2  3  1  0
  3  4  2  0
  3  5  1  0
  5  6  1  0
  5  7  1  0
  7  8  1  0
  8  9  1  0
  9  5  1  0
  1 10  1  0
  1 11  1  0
  1 12  1  0
  6 13  1  0
  7 14  1  0
  7 15  1  0
  8 16  1  0
  8 17  1  0
  9 18  1  0
  9 19  1  0
M  END
