
     RDKit          3D

 19 18  0  0  0  0  0  0  0  0999 V2000
    2.9032    0.4670    0.0533 C   0  0  0  0  0  0  0  0  0  0  0  0
    1.6057    0.1588   -0.3395 O   0  0  0  0  0  0  0  0  0  0  0  0
    0.5073    0.1134    0.5069 C   0  0  0  0  0  0  0  0  0  0  0  0
    0.6700    0.3618    1.7032 O   0  0  0  0  0  0  0  0  0  0  0  0
   -0.7943   -0.2400   -0.1289 C   0  0  0  0  0  0  0  0  0  0  0  0
   -1.0451    0.8397   -1.1852 C   0  0  0  0  0  0  0  0  0  0  0  0
   -1.9418   -0.1856    0.8361 C   0  0  0  0  0  0  0  0  0  0  0  0
   -0.6136   -1.5608   -0.7523 C   0  0  0  0  0  0  0  0  0  0  0  0
   -0.3563   -2.5243   -0.0868 O   0  0  0  0  0  0  0  0  0  0  0  0
    3.5788    0.2199   -0.8177 H   0  0  0  0  0  0  0  0  0  0  0  0
    3.0164    1.5614    0.2084 H   0  0  0  0  0  0  0  0  0  0  0  0
    3.2689   -0.1113    0.9239 H   0  0  0  0  0  0  0  0  0  0  0  0
   -0.5657    0.5009   -2.1061 H   0  0  0  0  0  0  0  0  0  0  0  0
   -2.1295    0.9363   -1.3137 H   0  0  0  0  0  0  0  0  0  0  0  0
   -0.6157    1.8078   -0.7975 H   0  0  0  0  0  0  0  0  0  0  0  0
   -2.7829    0.4135    0.4431 H   0  0  0  0  0  0  0  0  0  0  0  0
   -1.6473    0.1241    1.8582 H   0  0  0  0  0  0  0  0  0  0  0  0
   -2.3420   -1.2390    0.9098 H   0  0  0  0  0  0  0  0  0  0  0  0
   -0.7161   -1.6435   -1.8092 H   0  0  0  0  0  0  0  0  0  0  0  0
  1  2  1  0
  2  3  1  0
  3  4  2  0
  3  5  1  0
  5  6  1  0
  5  7  1  0
  5  8  1  0
  8  9  2  0
  1 10  1  0
  1 11  1  0
  1 12  1  0
  6 13  1  0
  6 14  1  0
  6 15  1  0
  7 16  1  0
  7 17  1  0
  7 18  1  0
  8 19  1  0
M  END
