
     RDKit          3D

 21 21  0  0  0  0  0  0  0  0999 V2000
    2.3815    1.4165   -0.3237 C   0  0  0  0  0  0  0  0  0  0  0  0
    1.1452    1.2839    0.2852 O   0  0  0  0  0  0  0  0  0  0  0  0
    0.6699   -0.0201    0.2726 C   0  0  0  0  0  0  0  0  0  0  0  0
    0.5917   -0.5999    1.6821 C   0  0  0  0  0  0  0  0  0  0  0  0
   -0.6200   -0.1795   -0.4530 C   0  0  0  0  0  0  0  0  0  0  0  0
   -1.9229    0.2126    0.1968 C   0  0  0  0  0  0  0  0  0  0  0  0
   -3.0067   -0.3791   -0.4522 O   0  0  0  0  0  0  0  0  0  0  0  0
   -0.7015   -1.1781   -1.5207 C   0  0  0  0  0  0  0  0  0  0  0  0
   -0.5344    0.2053   -1.8185 O   0  0  0  0  0  0  0  0  0  0  0  0
    2.2734    1.0874   -1.3803 H   0  0  0  0  0  0  0  0  0  0  0  0
    2.6237    2.4983   -0.3685 H   0  0  0  0  0  0  0  0  0  0  0  0
    3.1578    0.8433    0.2185 H   0  0  0  0  0  0  0  0  0  0  0  0
    1.4468   -0.6227   -0.2452 H   0  0  0  0  0  0  0  0  0  0  0  0
    0.0984   -1.5721    1.6521 H   0  0  0  0  0  0  0  0  0  0  0  0
    0.1482    0.1266    2.3891 H   0  0  0  0  0  0  0  0  0  0  0  0
    1.6443   -0.7584    1.9953 H   0  0  0  0  0  0  0  0  0  0  0  0
   -1.9785   -0.0318    1.2557 H   0  0  0  0  0  0  0  0  0  0  0  0
   -2.0733    1.3246    0.0665 H   0  0  0  0  0  0  0  0  0  0  0  0
   -3.8088   -0.2244    0.1269 H   0  0  0  0  0  0  0  0  0  0  0  0
    0.1523   -1.8432   -1.7873 H   0  0  0  0  0  0  0  0  0  0  0  0
   -1.6872   -1.5889   -1.7914 H   0  0  0  0  0  0  0  0  0  0  0  0
  1  2  1  0
  2  3  1  0
  3  4  1  0
  3  5  1  0
  5  6  1  0
  6  7  1  0
  5  8  1  0
  8  9  1  0
  9  5  1  0
  1 10  1  0
  1 11  1  0
  1 12  1  0
  3 13  1  0
  4 14  1  0
  4 15  1  0
  4 16  1  0
  6 17  1  0
  6 18  1  0
  7 19  1  0
  8 20  1  0
  8 21  1  0
M  END
