
     RDKit          3D

 21 21  0  0  0  0  0  0  0  0999 V2000
   -1.7548   -1.3050   -0.9256 C   0  0  0  0  0  0  0  0  0  0  0  0
   -0.9431   -1.1929    0.1853 O   0  0  0  0  0  0  0  0  0  0  0  0
   -0.4402    0.0762    0.3765 C   0  0  0  0  0  0  0  0  0  0  0  0
   -0.9642    0.5888    1.7206 C   0  0  0  0  0  0  0  0  0  0  0  0
   -0.4855    1.8756    1.9688 O   0  0  0  0  0  0  0  0  0  0  0  0
    1.0660    0.1072    0.4477 C   0  0  0  0  0  0  0  0  0  0  0  0
    1.7215   -0.4044   -0.7915 C   0  0  0  0  0  0  0  0  0  0  0  0
    1.5336    0.1816   -2.1033 C   0  0  0  0  0  0  0  0  0  0  0  0
    2.7260    0.5555   -1.3239 O   0  0  0  0  0  0  0  0  0  0  0  0
   -1.2318   -1.0497   -1.8690 H   0  0  0  0  0  0  0  0  0  0  0  0
   -2.0613   -2.3686   -1.0125 H   0  0  0  0  0  0  0  0  0  0  0  0
   -2.6821   -0.6777   -0.7960 H   0  0  0  0  0  0  0  0  0  0  0  0
   -0.7975    0.7421   -0.4090 H   0  0  0  0  0  0  0  0  0  0  0  0
   -0.5957   -0.0781    2.5186 H   0  0  0  0  0  0  0  0  0  0  0  0
   -2.0630    0.6229    1.6599 H   0  0  0  0  0  0  0  0  0  0  0  0
   -0.6791    2.4954    1.2218 H   0  0  0  0  0  0  0  0  0  0  0  0
    1.3625    1.1491    0.7025 H   0  0  0  0  0  0  0  0  0  0  0  0
    1.4077   -0.5240    1.3030 H   0  0  0  0  0  0  0  0  0  0  0  0
    2.2252   -1.4126   -0.7432 H   0  0  0  0  0  0  0  0  0  0  0  0
    0.7946    1.0038   -2.1997 H   0  0  0  0  0  0  0  0  0  0  0  0
    1.8611   -0.3850   -2.9848 H   0  0  0  0  0  0  0  0  0  0  0  0
  1  2  1  0
  2  3  1  0
  3  4  1  0
  4  5  1  0
  3  6  1  0
  6  7  1  0
  7  8  1  0
  8  9  1  0
  9  7  1  0
  1 10  1  0
  1 11  1  0
  1 12  1  0
  3 13  1  0
  4 14  1  0
  4 15  1  0
  5 16  1  0
  6 17  1  0
  6 18  1  0
  7 19  1  0
  8 20  1  0
  8 21  1  0
M  END
