
     RDKit          3D

 21 20  0  0  0  0  0  0  0  0999 V2000
    2.3286    1.1075    0.1368 C   0  0  0  0  0  0  0  0  0  0  0  0
    1.4935    0.2808   -0.5939 O   0  0  0  0  0  0  0  0  0  0  0  0
    0.4924   -0.3011    0.1457 C   0  0  0  0  0  0  0  0  0  0  0  0
    0.6222   -1.8093    0.0425 C   0  0  0  0  0  0  0  0  0  0  0  0
   -0.8920   -0.0119   -0.4517 C   0  0  0  0  0  0  0  0  0  0  0  0
   -1.9304   -0.6765    0.4059 C   0  0  0  0  0  0  0  0  0  0  0  0
   -1.1388    1.4754   -0.5177 C   0  0  0  0  0  0  0  0  0  0  0  0
    3.0901    1.5167   -0.5576 H   0  0  0  0  0  0  0  0  0  0  0  0
    2.7989    0.6331    1.0006 H   0  0  0  0  0  0  0  0  0  0  0  0
    1.7743    2.0082    0.5291 H   0  0  0  0  0  0  0  0  0  0  0  0
    0.5220   -0.0094    1.2077 H   0  0  0  0  0  0  0  0  0  0  0  0
   -0.2857   -2.3377    0.4009 H   0  0  0  0  0  0  0  0  0  0  0  0
    1.5586   -2.1876    0.4738 H   0  0  0  0  0  0  0  0  0  0  0  0
    0.6843   -2.0300   -1.0597 H   0  0  0  0  0  0  0  0  0  0  0  0
   -0.9402   -0.4942   -1.4541 H   0  0  0  0  0  0  0  0  0  0  0  0
   -2.7747    0.0036    0.6383 H   0  0  0  0  0  0  0  0  0  0  0  0
   -2.3394   -1.6073   -0.0465 H   0  0  0  0  0  0  0  0  0  0  0  0
   -1.4717   -0.9985    1.3814 H   0  0  0  0  0  0  0  0  0  0  0  0
   -1.2376    1.8373    0.5185 H   0  0  0  0  0  0  0  0  0  0  0  0
   -0.3067    1.9725   -1.0670 H   0  0  0  0  0  0  0  0  0  0  0  0
   -2.0478    1.6285   -1.1330 H   0  0  0  0  0  0  0  0  0  0  0  0
  1  2  1  0
  2  3  1  0
  3  4  1  0
  3  5  1  0
  5  6  1  0
  5  7  1  0
  1  8  1  0
  1  9  1  0
  1 10  1  0
  3 11  1  0
  4 12  1  0
  4 13  1  0
  4 14  1  0
  5 15  1  0
  6 16  1  0
  6 17  1  0
  6 18  1  0
  7 19  1  0
  7 20  1  0
  7 21  1  0
M  END
