
     RDKit          3D

 21 20  0  0  0  0  0  0  0  0999 V2000
   -1.1463    1.8247    0.3746 C   0  0  0  0  0  0  0  0  0  0  0  0
   -0.0703    1.0442    0.0336 O   0  0  0  0  0  0  0  0  0  0  0  0
   -0.2839   -0.2934   -0.0333 C   0  0  0  0  0  0  0  0  0  0  0  0
   -1.3271   -0.7163   -1.0371 C   0  0  0  0  0  0  0  0  0  0  0  0
   -0.7093   -0.8991    1.3117 C   0  0  0  0  0  0  0  0  0  0  0  0
    1.0159   -0.9582   -0.3461 C   0  0  0  0  0  0  0  0  0  0  0  0
    1.0682   -2.1716   -0.4558 O   0  0  0  0  0  0  0  0  0  0  0  0
    2.2624   -0.1870   -0.5307 C   0  0  0  0  0  0  0  0  0  0  0  0
    2.0648    1.1744   -0.3798 O   0  0  0  0  0  0  0  0  0  0  0  0
   -0.7901    2.8864    0.3808 H   0  0  0  0  0  0  0  0  0  0  0  0
   -1.5033    1.6477    1.4299 H   0  0  0  0  0  0  0  0  0  0  0  0
   -1.9874    1.7831   -0.3198 H   0  0  0  0  0  0  0  0  0  0  0  0
   -0.9042   -1.5045   -1.6919 H   0  0  0  0  0  0  0  0  0  0  0  0
   -1.6189    0.1218   -1.7171 H   0  0  0  0  0  0  0  0  0  0  0  0
   -2.2239   -1.1724   -0.5555 H   0  0  0  0  0  0  0  0  0  0  0  0
    0.1044   -0.7482    2.0687 H   0  0  0  0  0  0  0  0  0  0  0  0
   -1.6438   -0.4219    1.6747 H   0  0  0  0  0  0  0  0  0  0  0  0
   -0.8526   -1.9812    1.1031 H   0  0  0  0  0  0  0  0  0  0  0  0
    3.0791   -0.5689    0.1380 H   0  0  0  0  0  0  0  0  0  0  0  0
    2.6048   -0.3772   -1.5813 H   0  0  0  0  0  0  0  0  0  0  0  0
    2.8615    1.5179    0.1334 H   0  0  0  0  0  0  0  0  0  0  0  0
  1  2  1  0
  2  3  1  0
  3  4  1  0
  3  5  1  0
  3  6  1  0
  6  7  2  0
  6  8  1  0
  8  9  1  0
  1 10  1  0
  1 11  1  0
  1 12  1  0
  4 13  1  0
  4 14  1  0
  4 15  1  0
  5 16  1  0
  5 17  1  0
  5 18  1  0
  8 19  1  0
  8 20  1  0
  9 21  1  0
M  END
