
     RDKit          3D

 23 22  0  0  0  0  0  0  0  0999 V2000
    2.4641   -0.5510   -0.7892 C   0  0  0  0  0  0  0  0  0  0  0  0
    1.6300    0.0052    0.1547 O   0  0  0  0  0  0  0  0  0  0  0  0
    0.5270    0.6418   -0.3503 C   0  0  0  0  0  0  0  0  0  0  0  0
    0.5165    2.0392    0.1444 C   0  0  0  0  0  0  0  0  0  0  0  0
    1.3946    2.4428    0.8734 O   0  0  0  0  0  0  0  0  0  0  0  0
   -0.7016   -0.1085    0.1521 C   0  0  0  0  0  0  0  0  0  0  0  0
   -0.6876   -0.0642    1.6648 C   0  0  0  0  0  0  0  0  0  0  0  0
   -1.9779    0.4534   -0.3770 C   0  0  0  0  0  0  0  0  0  0  0  0
   -0.5856   -1.5385   -0.2679 C   0  0  0  0  0  0  0  0  0  0  0  0
    1.9141   -1.3077   -1.3854 H   0  0  0  0  0  0  0  0  0  0  0  0
    2.8882    0.1747   -1.5040 H   0  0  0  0  0  0  0  0  0  0  0  0
    3.2512   -1.1178   -0.2382 H   0  0  0  0  0  0  0  0  0  0  0  0
    0.4624    0.6184   -1.4555 H   0  0  0  0  0  0  0  0  0  0  0  0
   -0.2737    2.7201   -0.1367 H   0  0  0  0  0  0  0  0  0  0  0  0
    0.3328   -0.2325    2.0657 H   0  0  0  0  0  0  0  0  0  0  0  0
   -1.1336    0.8903    1.9767 H   0  0  0  0  0  0  0  0  0  0  0  0
   -1.3346   -0.9061    2.0071 H   0  0  0  0  0  0  0  0  0  0  0  0
   -2.7672   -0.3382   -0.2426 H   0  0  0  0  0  0  0  0  0  0  0  0
   -2.3452    1.3447    0.1650 H   0  0  0  0  0  0  0  0  0  0  0  0
   -1.9386    0.6621   -1.4535 H   0  0  0  0  0  0  0  0  0  0  0  0
   -0.4565   -1.6808   -1.3521 H   0  0  0  0  0  0  0  0  0  0  0  0
   -1.4747   -2.1157    0.1157 H   0  0  0  0  0  0  0  0  0  0  0  0
    0.2961   -2.0314    0.2328 H   0  0  0  0  0  0  0  0  0  0  0  0
  1  2  1  0
  2  3  1  0
  3  4  1  0
  4  5  2  0
  3  6  1  0
  6  7  1  0
  6  8  1  0
  6  9  1  0
  1 10  1  0
  1 11  1  0
  1 12  1  0
  3 13  1  0
  4 14  1  0
  7 15  1  0
  7 16  1  0
  7 17  1  0
  8 18  1  0
  8 19  1  0
  8 20  1  0
  9 21  1  0
  9 22  1  0
  9 23  1  0
M  END
