
     RDKit          3D

 19 18  0  0  0  0  0  0  0  0999 V2000
    2.9805    0.2019    0.5926 C   0  0  0  0  0  0  0  0  0  0  0  0
    1.7251   -0.3063    0.9956 O   0  0  0  0  0  0  0  0  0  0  0  0
    0.6034    0.1346    0.3127 C   0  0  0  0  0  0  0  0  0  0  0  0
    0.7681    0.9553   -0.6187 O   0  0  0  0  0  0  0  0  0  0  0  0
   -0.7604   -0.3179    0.6346 C   0  0  0  0  0  0  0  0  0  0  0  0
   -0.7611   -1.8408    0.4396 C   0  0  0  0  0  0  0  0  0  0  0  0
   -1.7382    0.3308   -0.3245 C   0  0  0  0  0  0  0  0  0  0  0  0
   -1.7087    1.7973   -0.2426 C   0  0  0  0  0  0  0  0  0  0  0  0
   -2.4465    2.4506   -0.9605 O   0  0  0  0  0  0  0  0  0  0  0  0
    3.1880   -0.2511   -0.4161 H   0  0  0  0  0  0  0  0  0  0  0  0
    3.7981   -0.1620    1.2470 H   0  0  0  0  0  0  0  0  0  0  0  0
    2.8983    1.2990    0.5517 H   0  0  0  0  0  0  0  0  0  0  0  0
   -1.0222   -0.0896    1.6903 H   0  0  0  0  0  0  0  0  0  0  0  0
   -1.7839   -2.1958    0.3038 H   0  0  0  0  0  0  0  0  0  0  0  0
   -0.2948   -2.2500    1.3648 H   0  0  0  0  0  0  0  0  0  0  0  0
   -0.0822   -2.0944   -0.4059 H   0  0  0  0  0  0  0  0  0  0  0  0
   -2.7417   -0.0513   -0.0512 H   0  0  0  0  0  0  0  0  0  0  0  0
   -1.5553    0.0246   -1.3628 H   0  0  0  0  0  0  0  0  0  0  0  0
   -1.0663    2.3651    0.4230 H   0  0  0  0  0  0  0  0  0  0  0  0
  1  2  1  0
  2  3  1  0
  3  4  2  0
  3  5  1  0
  5  6  1  0
  5  7  1  0
  7  8  1  0
  8  9  2  0
  1 10  1  0
  1 11  1  0
  1 12  1  0
  5 13  1  0
  6 14  1  0
  6 15  1  0
  6 16  1  0
  7 17  1  0
  7 18  1  0
  8 19  1  0
M  END
