
     RDKit          3D

 21 20  0  0  0  0  0  0  0  0999 V2000
   -2.0481    0.8137    0.3801 C   0  0  0  0  0  0  0  0  0  0  0  0
   -0.9944    0.1394    0.9634 O   0  0  0  0  0  0  0  0  0  0  0  0
   -0.0296   -0.3162    0.0996 C   0  0  0  0  0  0  0  0  0  0  0  0
    1.0054   -1.0291    0.9700 C   0  0  0  0  0  0  0  0  0  0  0  0
   -0.5695   -1.3778   -0.8498 C   0  0  0  0  0  0  0  0  0  0  0  0
    0.5800    0.8280   -0.6472 C   0  0  0  0  0  0  0  0  0  0  0  0
    1.1176    1.7056    0.3232 O   0  0  0  0  0  0  0  0  0  0  0  0
    1.6884    0.4162   -1.5334 C   0  0  0  0  0  0  0  0  0  0  0  0
    2.7958    0.8328   -1.3427 O   0  0  0  0  0  0  0  0  0  0  0  0
   -2.7351    1.0679    1.2402 H   0  0  0  0  0  0  0  0  0  0  0  0
   -1.6613    1.7578   -0.0645 H   0  0  0  0  0  0  0  0  0  0  0  0
   -2.6218    0.2186   -0.3427 H   0  0  0  0  0  0  0  0  0  0  0  0
    0.4131   -1.6180    1.7073 H   0  0  0  0  0  0  0  0  0  0  0  0
    1.6629   -0.3255    1.4948 H   0  0  0  0  0  0  0  0  0  0  0  0
    1.5576   -1.7759    0.3567 H   0  0  0  0  0  0  0  0  0  0  0  0
   -1.4369   -1.8447   -0.3074 H   0  0  0  0  0  0  0  0  0  0  0  0
    0.1768   -2.1843   -0.9935 H   0  0  0  0  0  0  0  0  0  0  0  0
   -0.8717   -0.9644   -1.8198 H   0  0  0  0  0  0  0  0  0  0  0  0
   -0.1800    1.3397   -1.2574 H   0  0  0  0  0  0  0  0  0  0  0  0
    0.6479    2.5690    0.3176 H   0  0  0  0  0  0  0  0  0  0  0  0
    1.5028   -0.2529   -2.3444 H   0  0  0  0  0  0  0  0  0  0  0  0
  1  2  1  0
  2  3  1  0
  3  4  1  0
  3  5  1  0
  3  6  1  0
  6  7  1  0
  6  8  1  0
  8  9  2  0
  1 10  1  0
  1 11  1  0
  1 12  1  0
  4 13  1  0
  4 14  1  0
  4 15  1  0
  5 16  1  0
  5 17  1  0
  5 18  1  0
  6 19  1  0
  7 20  1  0
  8 21  1  0
M  END
