
     RDKit          3D

 21 21  0  0  0  0  0  0  0  0999 V2000
   -1.8276   -1.3147   -0.1160 C   0  0  0  0  0  0  0  0  0  0  0  0
   -1.1959   -0.2564   -0.6858 O   0  0  0  0  0  0  0  0  0  0  0  0
   -0.4056    0.5295    0.0848 C   0  0  0  0  0  0  0  0  0  0  0  0
   -0.0451    1.7349   -0.8581 C   0  0  0  0  0  0  0  0  0  0  0  0
   -1.0728    1.1043    1.2697 C   0  0  0  0  0  0  0  0  0  0  0  0
   -0.5002    1.8262    2.0540 O   0  0  0  0  0  0  0  0  0  0  0  0
    0.9568   -0.0086    0.4383 C   0  0  0  0  0  0  0  0  0  0  0  0
    1.9578   -0.3082   -0.6481 C   0  0  0  0  0  0  0  0  0  0  0  0
    1.3921   -1.3876    0.2858 C   0  0  0  0  0  0  0  0  0  0  0  0
   -1.2731   -2.0940    0.3711 H   0  0  0  0  0  0  0  0  0  0  0  0
   -2.4202   -1.8429   -0.9314 H   0  0  0  0  0  0  0  0  0  0  0  0
   -2.6744   -0.9865    0.5739 H   0  0  0  0  0  0  0  0  0  0  0  0
    0.2027    2.5958   -0.2168 H   0  0  0  0  0  0  0  0  0  0  0  0
    0.8185    1.4536   -1.4769 H   0  0  0  0  0  0  0  0  0  0  0  0
   -0.8983    1.9473   -1.5099 H   0  0  0  0  0  0  0  0  0  0  0  0
   -2.1090    0.8732    1.4444 H   0  0  0  0  0  0  0  0  0  0  0  0
    1.3920    0.5371    1.3361 H   0  0  0  0  0  0  0  0  0  0  0  0
    3.0157   -0.0236   -0.4717 H   0  0  0  0  0  0  0  0  0  0  0  0
    1.6700   -0.3678   -1.7053 H   0  0  0  0  0  0  0  0  0  0  0  0
    2.1442   -1.8162    1.0087 H   0  0  0  0  0  0  0  0  0  0  0  0
    0.8723   -2.1955   -0.2466 H   0  0  0  0  0  0  0  0  0  0  0  0
  1  2  1  0
  2  3  1  0
  3  4  1  0
  3  5  1  0
  5  6  2  0
  3  7  1  0
  7  8  1  0
  8  9  1  0
  9  7  1  0
  1 10  1  0
  1 11  1  0
  1 12  1  0
  4 13  1  0
  4 14  1  0
  4 15  1  0
  5 16  1  0
  7 17  1  0
  8 18  1  0
  8 19  1  0
  9 20  1  0
  9 21  1  0
M  END
