
     RDKit          3D

 25 24  0  0  0  0  0  0  0  0999 V2000
   -0.9521    1.8949    1.4631 C   0  0  0  0  0  0  0  0  0  0  0  0
   -1.0718    0.5452    1.6177 O   0  0  0  0  0  0  0  0  0  0  0  0
   -1.3553   -0.1827    0.4857 C   0  0  0  0  0  0  0  0  0  0  0  0
   -2.7901   -0.7611    0.5676 C   0  0  0  0  0  0  0  0  0  0  0  0
   -0.3815   -1.3266    0.3887 C   0  0  0  0  0  0  0  0  0  0  0  0
    0.9297   -1.0081    0.2833 O   0  0  0  0  0  0  0  0  0  0  0  0
    1.3567   -0.2877   -0.7832 C   0  0  0  0  0  0  0  0  0  0  0  0
    2.0523    1.0044   -0.4910 C   0  0  0  0  0  0  0  0  0  0  0  0
    2.2830   -1.0681   -1.7061 C   0  0  0  0  0  0  0  0  0  0  0  0
   -1.9086    2.3121    1.0660 H   0  0  0  0  0  0  0  0  0  0  0  0
   -0.8625    2.3285    2.4945 H   0  0  0  0  0  0  0  0  0  0  0  0
   -0.0930    2.2566    0.9090 H   0  0  0  0  0  0  0  0  0  0  0  0
   -1.4093    0.4482   -0.4325 H   0  0  0  0  0  0  0  0  0  0  0  0
   -2.9445   -1.1954    1.5685 H   0  0  0  0  0  0  0  0  0  0  0  0
   -3.4985    0.0270    0.3024 H   0  0  0  0  0  0  0  0  0  0  0  0
   -2.8078   -1.5549   -0.2083 H   0  0  0  0  0  0  0  0  0  0  0  0
   -0.4924   -1.8714    1.3786 H   0  0  0  0  0  0  0  0  0  0  0  0
   -0.7377   -2.0799   -0.3494 H   0  0  0  0  0  0  0  0  0  0  0  0
    0.4620   -0.0423   -1.4271 H   0  0  0  0  0  0  0  0  0  0  0  0
    1.4717    1.8945   -0.8752 H   0  0  0  0  0  0  0  0  0  0  0  0
    2.1447    1.1923    0.6030 H   0  0  0  0  0  0  0  0  0  0  0  0
    3.0461    1.0923   -0.9749 H   0  0  0  0  0  0  0  0  0  0  0  0
    1.7219   -1.7850   -2.3365 H   0  0  0  0  0  0  0  0  0  0  0  0
    2.7243   -0.3221   -2.4000 H   0  0  0  0  0  0  0  0  0  0  0  0
    3.1124   -1.5109   -1.1439 H   0  0  0  0  0  0  0  0  0  0  0  0
  1  2  1  0
  2  3  1  0
  3  4  1  0
  3  5  1  0
  5  6  1  0
  6  7  1  0
  7  8  1  0
  7  9  1  0
  1 10  1  0
  1 11  1  0
  1 12  1  0
  3 13  1  0
  4 14  1  0
  4 15  1  0
  4 16  1  0
  5 17  1  0
  5 18  1  0
  7 19  1  0
  8 20  1  0
  8 21  1  0
  8 22  1  0
  9 23  1  0
  9 24  1  0
  9 25  1  0
M  END
