
     RDKit          3D

 19 19  0  0  0  0  0  0  0  0999 V2000
   -0.4939    2.5527    1.6925 C   0  0  0  0  0  0  0  0  0  0  0  0
   -0.1862    1.1785    1.6623 O   0  0  0  0  0  0  0  0  0  0  0  0
   -0.8537    0.6741    0.4903 C   0  0  0  0  0  0  0  0  0  0  0  0
   -2.1280   -0.0980    1.0971 C   0  0  0  0  0  0  0  0  0  0  0  0
   -0.0935   -0.2462   -0.0864 C   0  0  0  0  0  0  0  0  0  0  0  0
    0.6751   -1.1480   -0.6696 C   0  0  0  0  0  0  0  0  0  0  0  0
    1.5461   -2.1599   -1.3557 C   0  0  0  0  0  0  0  0  0  0  0  0
    2.6689   -1.7008   -2.0942 C   0  0  0  0  0  0  0  0  0  0  0  0
    1.3881   -1.8852   -2.8605 O   0  0  0  0  0  0  0  0  0  0  0  0
   -1.6224    2.5433    1.8231 H   0  0  0  0  0  0  0  0  0  0  0  0
    0.0126    3.0911    2.4950 H   0  0  0  0  0  0  0  0  0  0  0  0
   -0.2480    3.0240    0.6828 H   0  0  0  0  0  0  0  0  0  0  0  0
   -1.3289    1.4523   -0.0902 H   0  0  0  0  0  0  0  0  0  0  0  0
   -1.6959   -1.1713    1.1817 H   0  0  0  0  0  0  0  0  0  0  0  0
   -2.3133    0.1627    2.1194 H   0  0  0  0  0  0  0  0  0  0  0  0
   -2.9272   -0.0432    0.3612 H   0  0  0  0  0  0  0  0  0  0  0  0
    1.2588   -3.2025   -1.1846 H   0  0  0  0  0  0  0  0  0  0  0  0
    3.3912   -2.4117   -2.5673 H   0  0  0  0  0  0  0  0  0  0  0  0
    2.9502   -0.6120   -2.0712 H   0  0  0  0  0  0  0  0  0  0  0  0
  1  2  1  0
  2  3  1  0
  3  4  1  0
  3  5  1  0
  5  6  3  0
  6  7  1  0
  7  8  1  0
  8  9  1  0
  9  7  1  0
  1 10  1  0
  1 11  1  0
  1 12  1  0
  3 13  1  0
  4 14  1  0
  4 15  1  0
  4 16  1  0
  7 17  1  0
  8 18  1  0
  8 19  1  0
M  END
