
     RDKit          3D

 25 25  0  0  0  0  0  0  0  0999 V2000
    2.1876    1.0739   -1.1132 C   0  0  0  0  0  0  0  0  0  0  0  0
    1.2497    0.0339   -1.1229 O   0  0  0  0  0  0  0  0  0  0  0  0
    1.1793   -0.5817    0.1043 C   0  0  0  0  0  0  0  0  0  0  0  0
    1.6802   -2.0030   -0.0407 C   0  0  0  0  0  0  0  0  0  0  0  0
   -0.2237   -0.5238    0.6414 C   0  0  0  0  0  0  0  0  0  0  0  0
   -1.3524   -1.1281   -0.0793 C   0  0  0  0  0  0  0  0  0  0  0  0
   -1.2568    0.3903    0.1314 C   0  0  0  0  0  0  0  0  0  0  0  0
   -1.1526    1.1474   -1.1515 C   0  0  0  0  0  0  0  0  0  0  0  0
   -2.2495    0.9696    1.1518 C   0  0  0  0  0  0  0  0  0  0  0  0
    1.8343    1.8016   -0.3264 H   0  0  0  0  0  0  0  0  0  0  0  0
    2.1342    1.6314   -2.0710 H   0  0  0  0  0  0  0  0  0  0  0  0
    3.1752    0.6704   -0.8866 H   0  0  0  0  0  0  0  0  0  0  0  0
    1.8958   -0.0780    0.7866 H   0  0  0  0  0  0  0  0  0  0  0  0
    2.7982   -1.9590   -0.1532 H   0  0  0  0  0  0  0  0  0  0  0  0
    1.2291   -2.4102   -0.9546 H   0  0  0  0  0  0  0  0  0  0  0  0
    1.4092   -2.5520    0.8755 H   0  0  0  0  0  0  0  0  0  0  0  0
   -0.2417   -0.6985    1.7595 H   0  0  0  0  0  0  0  0  0  0  0  0
   -1.1343   -1.5371   -1.0778 H   0  0  0  0  0  0  0  0  0  0  0  0
   -2.1930   -1.6154    0.4254 H   0  0  0  0  0  0  0  0  0  0  0  0
   -0.5339    2.0615   -1.0962 H   0  0  0  0  0  0  0  0  0  0  0  0
   -2.1984    1.5042   -1.3927 H   0  0  0  0  0  0  0  0  0  0  0  0
   -0.8379    0.5601   -2.0199 H   0  0  0  0  0  0  0  0  0  0  0  0
   -1.7242    0.9966    2.1486 H   0  0  0  0  0  0  0  0  0  0  0  0
   -3.1078    0.2836    1.2917 H   0  0  0  0  0  0  0  0  0  0  0  0
   -2.5666    1.9622    0.8383 H   0  0  0  0  0  0  0  0  0  0  0  0
  1  2  1  0
  2  3  1  0
  3  4  1  0
  3  5  1  0
  5  6  1  0
  6  7  1  0
  7  8  1  0
  7  9  1  0
  7  5  1  0
  1 10  1  0
  1 11  1  0
  1 12  1  0
  3 13  1  0
  4 14  1  0
  4 15  1  0
  4 16  1  0
  5 17  1  0
  6 18  1  0
  6 19  1  0
  8 20  1  0
  8 21  1  0
  8 22  1  0
  9 23  1  0
  9 24  1  0
  9 25  1  0
M  END
