
     RDKit          3D

 21 21  0  0  0  0  0  0  0  0999 V2000
   -2.0240   -1.0832   -1.0705 C   0  0  0  0  0  0  0  0  0  0  0  0
   -1.2141   -0.6941   -0.0343 O   0  0  0  0  0  0  0  0  0  0  0  0
   -0.5769    0.5092   -0.2113 C   0  0  0  0  0  0  0  0  0  0  0  0
   -0.8479    1.5089    0.8859 C   0  0  0  0  0  0  0  0  0  0  0  0
   -0.1377    2.6702    0.5669 O   0  0  0  0  0  0  0  0  0  0  0  0
    0.9249    0.2295   -0.1753 C   0  0  0  0  0  0  0  0  0  0  0  0
    1.4168   -0.3979    1.1538 C   0  0  0  0  0  0  0  0  0  0  0  0
    1.3864   -1.1595   -0.1276 C   0  0  0  0  0  0  0  0  0  0  0  0
    2.5985   -1.4758   -0.7583 O   0  0  0  0  0  0  0  0  0  0  0  0
   -1.4581   -1.1947   -2.0367 H   0  0  0  0  0  0  0  0  0  0  0  0
   -2.4077   -2.0981   -0.8378 H   0  0  0  0  0  0  0  0  0  0  0  0
   -2.9252   -0.4402   -1.1958 H   0  0  0  0  0  0  0  0  0  0  0  0
   -0.8010    1.0076   -1.1680 H   0  0  0  0  0  0  0  0  0  0  0  0
   -0.4687    1.1653    1.8744 H   0  0  0  0  0  0  0  0  0  0  0  0
   -1.9121    1.8100    0.9460 H   0  0  0  0  0  0  0  0  0  0  0  0
   -0.0816    2.7648   -0.4122 H   0  0  0  0  0  0  0  0  0  0  0  0
    1.5865    1.0485   -0.5472 H   0  0  0  0  0  0  0  0  0  0  0  0
    0.6203   -0.6383    1.9051 H   0  0  0  0  0  0  0  0  0  0  0  0
    2.3862   -0.0554    1.5421 H   0  0  0  0  0  0  0  0  0  0  0  0
    0.6376   -1.9791   -0.2400 H   0  0  0  0  0  0  0  0  0  0  0  0
    3.2979   -1.4979   -0.0594 H   0  0  0  0  0  0  0  0  0  0  0  0
  1  2  1  0
  2  3  1  0
  3  4  1  0
  4  5  1  0
  3  6  1  0
  6  7  1  0
  7  8  1  0
  8  9  1  0
  8  6  1  0
  1 10  1  0
  1 11  1  0
  1 12  1  0
  3 13  1  0
  4 14  1  0
  4 15  1  0
  5 16  1  0
  6 17  1  0
  7 18  1  0
  7 19  1  0
  8 20  1  0
  9 21  1  0
M  END
