
     RDKit          3D

 15 15  0  0  0  0  0  0  0  0999 V2000
    2.8361    0.0791   -0.0334 C   0  0  0  0  0  0  0  0  0  0  0  0
    1.4538    0.4307   -0.1538 O   0  0  0  0  0  0  0  0  0  0  0  0
    0.5382   -0.5500   -0.4943 C   0  0  0  0  0  0  0  0  0  0  0  0
    0.9600   -1.7068   -0.6831 O   0  0  0  0  0  0  0  0  0  0  0  0
   -0.8861   -0.1583   -0.6119 C   0  0  0  0  0  0  0  0  0  0  0  0
   -1.1264    1.1900   -0.3563 O   0  0  0  0  0  0  0  0  0  0  0  0
   -2.3960    0.7961    0.1211 C   0  0  0  0  0  0  0  0  0  0  0  0
   -1.7502   -0.4890    0.5270 C   0  0  0  0  0  0  0  0  0  0  0  0
   -1.9492   -1.3041    1.3957 O   0  0  0  0  0  0  0  0  0  0  0  0
    3.3372    0.8508    0.5820 H   0  0  0  0  0  0  0  0  0  0  0  0
    3.2590    0.1589   -1.0527 H   0  0  0  0  0  0  0  0  0  0  0  0
    2.9563   -0.9431    0.3816 H   0  0  0  0  0  0  0  0  0  0  0  0
   -1.3731   -0.4496   -1.5705 H   0  0  0  0  0  0  0  0  0  0  0  0
   -2.7852    1.4004    0.9407 H   0  0  0  0  0  0  0  0  0  0  0  0
   -3.0742    0.6949   -0.7641 H   0  0  0  0  0  0  0  0  0  0  0  0
  1  2  1  0
  2  3  1  0
  3  4  2  0
  3  5  1  0
  5  6  1  0
  6  7  1  0
  7  8  1  0
  8  9  2  0
  8  5  1  0
  1 10  1  0
  1 11  1  0
  1 12  1  0
  5 13  1  0
  7 14  1  0
  7 15  1  0
M  END
