
     RDKit          3D

 13 13  0  0  0  0  0  0  0  0999 V2000
    2.1864    0.4662   -0.1790 C   0  0  0  0  0  0  0  0  0  0  0  0
    0.7770    0.4383   -0.2072 O   0  0  0  0  0  0  0  0  0  0  0  0
    0.0614   -0.7432   -0.2500 C   0  0  0  0  0  0  0  0  0  0  0  0
    0.6867   -1.8229   -0.2642 O   0  0  0  0  0  0  0  0  0  0  0  0
   -1.4054   -0.6276   -0.2758 C   0  0  0  0  0  0  0  0  0  0  0  0
   -1.9605    0.4827    0.5851 C   0  0  0  0  0  0  0  0  0  0  0  0
   -1.9995    0.5076   -0.8035 O   0  0  0  0  0  0  0  0  0  0  0  0
    2.5280    1.4976   -0.3415 H   0  0  0  0  0  0  0  0  0  0  0  0
    2.5634    0.1418    0.8121 H   0  0  0  0  0  0  0  0  0  0  0  0
    2.6215   -0.1882   -0.9503 H   0  0  0  0  0  0  0  0  0  0  0  0
   -1.9367   -1.5946   -0.3094 H   0  0  0  0  0  0  0  0  0  0  0  0
   -2.8433    0.2146    1.1642 H   0  0  0  0  0  0  0  0  0  0  0  0
   -1.2791    1.2277    1.0196 H   0  0  0  0  0  0  0  0  0  0  0  0
  1  2  1  0
  2  3  1  0
  3  4  2  0
  3  5  1  0
  5  6  1  0
  6  7  1  0
  7  5  1  0
  1  8  1  0
  1  9  1  0
  1 10  1  0
  5 11  1  0
  6 12  1  0
  6 13  1  0
M  END
