
     RDKit          3D

 16 15  0  0  0  0  0  0  0  0999 V2000
    2.7901   -0.2371   -0.1264 C   0  0  0  0  0  0  0  0  0  0  0  0
    1.5044   -0.7512    0.0661 O   0  0  0  0  0  0  0  0  0  0  0  0
    0.4394    0.1039    0.3057 C   0  0  0  0  0  0  0  0  0  0  0  0
    0.6647    1.3416    0.3438 O   0  0  0  0  0  0  0  0  0  0  0  0
   -0.9513   -0.3674    0.5191 C   0  0  0  0  0  0  0  0  0  0  0  0
   -0.9925   -1.7429    0.4400 O   0  0  0  0  0  0  0  0  0  0  0  0
   -1.9207    0.2931   -0.4377 C   0  0  0  0  0  0  0  0  0  0  0  0
   -1.8663    1.6804   -0.3456 O   0  0  0  0  0  0  0  0  0  0  0  0
    3.2977   -0.2550    0.8768 H   0  0  0  0  0  0  0  0  0  0  0  0
    3.3895   -0.8813   -0.7940 H   0  0  0  0  0  0  0  0  0  0  0  0
    2.8147    0.8087   -0.4650 H   0  0  0  0  0  0  0  0  0  0  0  0
   -1.2601   -0.0783    1.5531 H   0  0  0  0  0  0  0  0  0  0  0  0
   -1.1515   -2.0563   -0.4999 H   0  0  0  0  0  0  0  0  0  0  0  0
   -1.6781    0.0369   -1.4893 H   0  0  0  0  0  0  0  0  0  0  0  0
   -2.9552   -0.0075   -0.1890 H   0  0  0  0  0  0  0  0  0  0  0  0
   -2.1247    2.1123   -1.2016 H   0  0  0  0  0  0  0  0  0  0  0  0
  1  2  1  0
  2  3  1  0
  3  4  2  0
  3  5  1  0
  5  6  1  0
  5  7  1  0
  7  8  1  0
  1  9  1  0
  1 10  1  0
  1 11  1  0
  5 12  1  0
  6 13  1  0
  7 14  1  0
  7 15  1  0
  8 16  1  0
M  END
