
     RDKit          3D

 17 16  0  0  0  0  0  0  0  0999 V2000
    2.2251   -0.6631   -0.7436 C   0  0  0  0  0  0  0  0  0  0  0  0
    0.8580   -0.8250   -0.5970 O   0  0  0  0  0  0  0  0  0  0  0  0
    0.3815    0.0674    0.3144 C   0  0  0  0  0  0  0  0  0  0  0  0
   -0.1850   -0.4778    1.5443 C   0  0  0  0  0  0  0  0  0  0  0  0
   -0.5533    0.2605    2.4708 O   0  0  0  0  0  0  0  0  0  0  0  0
   -0.5058    1.1264   -0.2872 C   0  0  0  0  0  0  0  0  0  0  0  0
   -1.5786    0.7262   -1.0141 O   0  0  0  0  0  0  0  0  0  0  0  0
   -2.6511   -0.0179   -0.6459 C   0  0  0  0  0  0  0  0  0  0  0  0
   -2.7237   -0.4306    0.5378 O   0  0  0  0  0  0  0  0  0  0  0  0
    2.7783   -0.8240    0.2093 H   0  0  0  0  0  0  0  0  0  0  0  0
    2.6431   -1.3497   -1.4922 H   0  0  0  0  0  0  0  0  0  0  0  0
    2.3966    0.4110   -1.0086 H   0  0  0  0  0  0  0  0  0  0  0  0
    1.3007    0.6701    0.6636 H   0  0  0  0  0  0  0  0  0  0  0  0
   -0.3183   -1.5422    1.7254 H   0  0  0  0  0  0  0  0  0  0  0  0
   -0.7554    1.7969    0.5931 H   0  0  0  0  0  0  0  0  0  0  0  0
    0.1581    1.7978   -0.9051 H   0  0  0  0  0  0  0  0  0  0  0  0
   -3.4701   -0.2732   -1.3649 H   0  0  0  0  0  0  0  0  0  0  0  0
  1  2  1  0
  2  3  1  0
  3  4  1  0
  4  5  2  0
  3  6  1  0
  6  7  1  0
  7  8  1  0
  8  9  2  0
  1 10  1  0
  1 11  1  0
  1 12  1  0
  3 13  1  0
  4 14  1  0
  6 15  1  0
  6 16  1  0
  8 17  1  0
M  END
