
     RDKit          3D

 21 21  0  0  0  0  0  0  0  0999 V2000
   -2.6719    1.2875    0.2537 C   0  0  0  0  0  0  0  0  0  0  0  0
   -1.8279    0.4251    0.9507 O   0  0  0  0  0  0  0  0  0  0  0  0
   -1.0446   -0.3542    0.1020 C   0  0  0  0  0  0  0  0  0  0  0  0
   -1.3856   -1.8166    0.3532 C   0  0  0  0  0  0  0  0  0  0  0  0
    0.3915   -0.1552    0.4764 C   0  0  0  0  0  0  0  0  0  0  0  0
    0.7731    1.2512    0.3385 O   0  0  0  0  0  0  0  0  0  0  0  0
    1.4120    0.2245   -0.4757 C   0  0  0  0  0  0  0  0  0  0  0  0
    2.8554    0.0650   -0.0652 C   0  0  0  0  0  0  0  0  0  0  0  0
    3.5924    1.2308   -0.2135 O   0  0  0  0  0  0  0  0  0  0  0  0
   -3.2419    1.8526    1.0203 H   0  0  0  0  0  0  0  0  0  0  0  0
   -3.4228    0.7514   -0.3561 H   0  0  0  0  0  0  0  0  0  0  0  0
   -2.1344    2.0087   -0.3799 H   0  0  0  0  0  0  0  0  0  0  0  0
   -1.2454   -0.1363   -0.9625 H   0  0  0  0  0  0  0  0  0  0  0  0
   -0.8381   -2.4150   -0.4111 H   0  0  0  0  0  0  0  0  0  0  0  0
   -1.0139   -2.0913    1.3667 H   0  0  0  0  0  0  0  0  0  0  0  0
   -2.4741   -1.9782    0.2409 H   0  0  0  0  0  0  0  0  0  0  0  0
    0.7162   -0.6221    1.4270 H   0  0  0  0  0  0  0  0  0  0  0  0
    1.2017    0.2709   -1.5412 H   0  0  0  0  0  0  0  0  0  0  0  0
    2.9149   -0.2096    1.0212 H   0  0  0  0  0  0  0  0  0  0  0  0
    3.3483   -0.7523   -0.6132 H   0  0  0  0  0  0  0  0  0  0  0  0
    4.0950    1.1629   -1.0685 H   0  0  0  0  0  0  0  0  0  0  0  0
  1  2  1  0
  2  3  1  0
  3  4  1  0
  3  5  1  0
  5  6  1  0
  6  7  1  0
  7  8  1  0
  8  9  1  0
  7  5  1  0
  1 10  1  0
  1 11  1  0
  1 12  1  0
  3 13  1  0
  4 14  1  0
  4 15  1  0
  4 16  1  0
  5 17  1  0
  7 18  1  0
  8 19  1  0
  8 20  1  0
  9 21  1  0
M  END
