
     RDKit          3D

 19 18  0  0  0  0  0  0  0  0999 V2000
   -0.8152    2.1950    1.0018 C   0  0  0  0  0  0  0  0  0  0  0  0
   -0.6489    0.8476    1.3344 O   0  0  0  0  0  0  0  0  0  0  0  0
   -0.5777    0.0387    0.2100 C   0  0  0  0  0  0  0  0  0  0  0  0
   -1.7005   -0.9629    0.1266 C   0  0  0  0  0  0  0  0  0  0  0  0
   -1.5075   -1.7032   -1.0404 O   0  0  0  0  0  0  0  0  0  0  0  0
    0.7743   -0.6335    0.1857 C   0  0  0  0  0  0  0  0  0  0  0  0
    1.8303    0.3045    0.1352 O   0  0  0  0  0  0  0  0  0  0  0  0
    3.1217   -0.2057    0.1092 C   0  0  0  0  0  0  0  0  0  0  0  0
    3.3329   -1.4576    0.1302 O   0  0  0  0  0  0  0  0  0  0  0  0
   -1.7756    2.2897    0.4185 H   0  0  0  0  0  0  0  0  0  0  0  0
   -0.0177    2.5468    0.3303 H   0  0  0  0  0  0  0  0  0  0  0  0
   -0.8477    2.7763    1.9317 H   0  0  0  0  0  0  0  0  0  0  0  0
   -0.6754    0.7043   -0.6723 H   0  0  0  0  0  0  0  0  0  0  0  0
   -1.7507   -1.6259    1.0099 H   0  0  0  0  0  0  0  0  0  0  0  0
   -2.6615   -0.4281    0.0406 H   0  0  0  0  0  0  0  0  0  0  0  0
   -1.8790   -2.6049   -0.9386 H   0  0  0  0  0  0  0  0  0  0  0  0
    0.8463   -1.2383   -0.7447 H   0  0  0  0  0  0  0  0  0  0  0  0
    0.9448   -1.2639    1.0805 H   0  0  0  0  0  0  0  0  0  0  0  0
    4.0071    0.4209    0.0703 H   0  0  0  0  0  0  0  0  0  0  0  0
  1  2  1  0
  2  3  1  0
  3  4  1  0
  4  5  1  0
  3  6  1  0
  6  7  1  0
  7  8  1  0
  8  9  2  0
  1 10  1  0
  1 11  1  0
  1 12  1  0
  3 13  1  0
  4 14  1  0
  4 15  1  0
  5 16  1  0
  6 17  1  0
  6 18  1  0
  8 19  1  0
M  END
