
     RDKit          3D

 14 13  0  0  0  0  0  0  0  0999 V2000
   -3.3189   -0.2393    0.1752 C   0  0  0  0  0  0  0  0  0  0  0  0
   -1.9490   -0.5278    0.2821 O   0  0  0  0  0  0  0  0  0  0  0  0
   -1.0253    0.4885    0.1383 C   0  0  0  0  0  0  0  0  0  0  0  0
   -1.4594    1.6434   -0.0852 O   0  0  0  0  0  0  0  0  0  0  0  0
    0.3697    0.1824    0.2493 C   0  0  0  0  0  0  0  0  0  0  0  0
    1.5460   -0.0764    0.3589 C   0  0  0  0  0  0  0  0  0  0  0  0
    2.9852   -0.3956    0.4777 C   0  0  0  0  0  0  0  0  0  0  0  0
    3.6634   -0.0596   -0.7115 O   0  0  0  0  0  0  0  0  0  0  0  0
   -3.5489    0.2197   -0.7965 H   0  0  0  0  0  0  0  0  0  0  0  0
   -3.6982    0.4307    0.9690 H   0  0  0  0  0  0  0  0  0  0  0  0
   -3.8489   -1.2331    0.1727 H   0  0  0  0  0  0  0  0  0  0  0  0
    3.4365    0.1227    1.3534 H   0  0  0  0  0  0  0  0  0  0  0  0
    3.0508   -1.4812    0.6756 H   0  0  0  0  0  0  0  0  0  0  0  0
    3.7969    0.9256   -0.7040 H   0  0  0  0  0  0  0  0  0  0  0  0
  1  2  1  0
  2  3  1  0
  3  4  2  0
  3  5  1  0
  5  6  3  0
  6  7  1  0
  7  8  1  0
  1  9  1  0
  1 10  1  0
  1 11  1  0
  7 12  1  0
  7 13  1  0
  8 14  1  0
M  END
