
     RDKit          3D

 27 26  0  0  0  0  0  0  0  0999 V2000
    1.9958    1.5187   -0.9392 C   0  0  0  0  0  0  0  0  0  0  0  0
    0.7860    0.8467   -0.8484 O   0  0  0  0  0  0  0  0  0  0  0  0
    0.8415   -0.2524   -0.0073 C   0  0  0  0  0  0  0  0  0  0  0  0
    1.8666   -1.2781   -0.4740 C   0  0  0  0  0  0  0  0  0  0  0  0
    1.2817    0.1776    1.3719 C   0  0  0  0  0  0  0  0  0  0  0  0
   -0.4884   -0.9452    0.0001 C   0  0  0  0  0  0  0  0  0  0  0  0
   -1.6151   -0.0555    0.4804 C   0  0  0  0  0  0  0  0  0  0  0  0
   -1.7297    1.1486   -0.4274 C   0  0  0  0  0  0  0  0  0  0  0  0
   -2.9045   -0.8536    0.3161 C   0  0  0  0  0  0  0  0  0  0  0  0
    2.3265    1.8963    0.0716 H   0  0  0  0  0  0  0  0  0  0  0  0
    2.7855    0.9231   -1.4312 H   0  0  0  0  0  0  0  0  0  0  0  0
    1.8370    2.4192   -1.5667 H   0  0  0  0  0  0  0  0  0  0  0  0
    2.9017   -0.9471   -0.3080 H   0  0  0  0  0  0  0  0  0  0  0  0
    1.7163   -2.1663    0.2075 H   0  0  0  0  0  0  0  0  0  0  0  0
    1.6659   -1.5985   -1.5090 H   0  0  0  0  0  0  0  0  0  0  0  0
    0.9733   -0.5628    2.1500 H   0  0  0  0  0  0  0  0  0  0  0  0
    2.3902    0.1922    1.3745 H   0  0  0  0  0  0  0  0  0  0  0  0
    0.9494    1.2026    1.6244 H   0  0  0  0  0  0  0  0  0  0  0  0
   -0.4053   -1.8697    0.5863 H   0  0  0  0  0  0  0  0  0  0  0  0
   -0.7104   -1.2462   -1.0438 H   0  0  0  0  0  0  0  0  0  0  0  0
   -1.5274    0.2184    1.5305 H   0  0  0  0  0  0  0  0  0  0  0  0
   -1.1338    2.0100   -0.0786 H   0  0  0  0  0  0  0  0  0  0  0  0
   -1.4650    0.8531   -1.4778 H   0  0  0  0  0  0  0  0  0  0  0  0
   -2.7983    1.5093   -0.4836 H   0  0  0  0  0  0  0  0  0  0  0  0
   -3.7362   -0.1567    0.4462 H   0  0  0  0  0  0  0  0  0  0  0  0
   -2.8818   -1.6230    1.1225 H   0  0  0  0  0  0  0  0  0  0  0  0
   -2.9218   -1.3606   -0.6868 H   0  0  0  0  0  0  0  0  0  0  0  0
  1  2  1  0
  2  3  1  0
  3  4  1  0
  3  5  1  0
  3  6  1  0
  6  7  1  0
  7  8  1  0
  7  9  1  0
  1 10  1  0
  1 11  1  0
  1 12  1  0
  4 13  1  0
  4 14  1  0
  4 15  1  0
  5 16  1  0
  5 17  1  0
  5 18  1  0
  6 19  1  0
  6 20  1  0
  7 21  1  0
  8 22  1  0
  8 23  1  0
  8 24  1  0
  9 25  1  0
  9 26  1  0
  9 27  1  0
M  END
