
     RDKit          3D

 25 25  0  0  0  0  0  0  0  0999 V2000
    3.1494   -0.2041    0.7218 C   0  0  0  0  0  0  0  0  0  0  0  0
    2.3201    0.8465    0.3557 O   0  0  0  0  0  0  0  0  0  0  0  0
    1.2381    0.4500   -0.4025 C   0  0  0  0  0  0  0  0  0  0  0  0
    1.2138    1.0703   -1.7725 C   0  0  0  0  0  0  0  0  0  0  0  0
   -0.0488    0.7260    0.3454 C   0  0  0  0  0  0  0  0  0  0  0  0
   -1.2505    0.3050   -0.4541 C   0  0  0  0  0  0  0  0  0  0  0  0
   -2.5683    0.5584    0.2473 C   0  0  0  0  0  0  0  0  0  0  0  0
   -2.1099   -0.8127   -0.0742 C   0  0  0  0  0  0  0  0  0  0  0  0
   -1.8109   -1.7245    1.0853 C   0  0  0  0  0  0  0  0  0  0  0  0
    3.5724   -0.7350   -0.1671 H   0  0  0  0  0  0  0  0  0  0  0  0
    3.9990    0.2418    1.2917 H   0  0  0  0  0  0  0  0  0  0  0  0
    2.6777   -0.9428    1.3710 H   0  0  0  0  0  0  0  0  0  0  0  0
    1.3116   -0.6506   -0.5300 H   0  0  0  0  0  0  0  0  0  0  0  0
    2.2518    1.2185   -2.0977 H   0  0  0  0  0  0  0  0  0  0  0  0
    0.6059    1.9971   -1.8120 H   0  0  0  0  0  0  0  0  0  0  0  0
    0.7164    0.3517   -2.4594 H   0  0  0  0  0  0  0  0  0  0  0  0
   -0.1208    1.8238    0.4920 H   0  0  0  0  0  0  0  0  0  0  0  0
    0.0249    0.2101    1.3224 H   0  0  0  0  0  0  0  0  0  0  0  0
   -1.1685    0.5650   -1.5364 H   0  0  0  0  0  0  0  0  0  0  0  0
   -2.5834    0.8467    1.2955 H   0  0  0  0  0  0  0  0  0  0  0  0
   -3.3347    1.0681   -0.3719 H   0  0  0  0  0  0  0  0  0  0  0  0
   -2.6776   -1.3076   -0.9046 H   0  0  0  0  0  0  0  0  0  0  0  0
   -1.2227   -2.6176    0.7964 H   0  0  0  0  0  0  0  0  0  0  0  0
   -2.8099   -2.1159    1.4374 H   0  0  0  0  0  0  0  0  0  0  0  0
   -1.3752   -1.1681    1.9359 H   0  0  0  0  0  0  0  0  0  0  0  0
  1  2  1  0
  2  3  1  0
  3  4  1  0
  3  5  1  0
  5  6  1  0
  6  7  1  0
  7  8  1  0
  8  9  1  0
  8  6  1  0
  1 10  1  0
  1 11  1  0
  1 12  1  0
  3 13  1  0
  4 14  1  0
  4 15  1  0
  4 16  1  0
  5 17  1  0
  5 18  1  0
  6 19  1  0
  7 20  1  0
  7 21  1  0
  8 22  1  0
  9 23  1  0
  9 24  1  0
  9 25  1  0
M  END
