
     RDKit          3D

 19 18  0  0  0  0  0  0  0  0999 V2000
   -2.5513    0.3074   -1.5423 C   0  0  0  0  0  0  0  0  0  0  0  0
   -1.3376   -0.3650   -1.4837 O   0  0  0  0  0  0  0  0  0  0  0  0
   -0.9286   -0.5258   -0.0718 C   0  0  0  0  0  0  0  0  0  0  0  0
   -1.1602   -2.1297    0.1178 C   0  0  0  0  0  0  0  0  0  0  0  0
   -0.1096   -0.0523    0.3516 C   0  0  0  0  0  0  0  0  0  0  0  0
    1.0671    0.6280    0.9744 C   0  0  0  0  0  0  0  0  0  0  0  0
    2.2297    1.3268    1.6003 C   0  0  0  0  0  0  0  0  0  0  0  0
    3.4570    1.3043    0.7009 C   0  0  0  0  0  0  0  0  0  0  0  0
    2.2150    1.8336    2.6722 O   0  0  0  0  0  0  0  0  0  0  0  0
   -3.3328   -0.1088   -0.9272 H   0  0  0  0  0  0  0  0  0  0  0  0
   -2.9795    0.0674   -2.6225 H   0  0  0  0  0  0  0  0  0  0  0  0
   -2.3581    1.4167   -1.6059 H   0  0  0  0  0  0  0  0  0  0  0  0
   -2.0953   -0.1960    0.3674 H   0  0  0  0  0  0  0  0  0  0  0  0
   -2.1453   -2.2731    0.4421 H   0  0  0  0  0  0  0  0  0  0  0  0
   -0.3472   -2.3846    0.7793 H   0  0  0  0  0  0  0  0  0  0  0  0
   -0.8942   -2.4957   -0.8984 H   0  0  0  0  0  0  0  0  0  0  0  0
    3.4064    0.2751    0.2452 H   0  0  0  0  0  0  0  0  0  0  0  0
    3.4787    2.0693   -0.0438 H   0  0  0  0  0  0  0  0  0  0  0  0
    4.3856    1.3024    1.3589 H   0  0  0  0  0  0  0  0  0  0  0  0
  1  2  1  0
  2  3  1  0
  3  4  1  0
  3  5  1  0
  5  6  3  0
  6  7  1  0
  7  8  1  0
  7  9  2  0
  1 10  1  0
  1 11  1  0
  1 12  1  0
  3 13  1  0
  4 14  1  0
  4 15  1  0
  4 16  1  0
  8 17  1  0
  8 18  1  0
  8 19  1  0
M  END
