
     RDKit          3D

 22 21  0  0  0  0  0  0  0  0999 V2000
    2.7996   -0.4745    0.3036 C   0  0  0  0  0  0  0  0  0  0  0  0
    1.6956   -0.1628   -0.4786 O   0  0  0  0  0  0  0  0  0  0  0  0
    0.6445    0.3563    0.2444 C   0  0  0  0  0  0  0  0  0  0  0  0
    0.3201    1.7195   -0.3220 C   0  0  0  0  0  0  0  0  0  0  0  0
   -0.5294   -0.5963    0.1206 C   0  0  0  0  0  0  0  0  0  0  0  0
   -0.9226   -0.7417   -1.3117 C   0  0  0  0  0  0  0  0  0  0  0  0
   -1.7264   -0.1171    0.9126 C   0  0  0  0  0  0  0  0  0  0  0  0
   -2.7420   -1.0361    0.7454 O   0  0  0  0  0  0  0  0  0  0  0  0
    3.5858   -0.8805   -0.3548 H   0  0  0  0  0  0  0  0  0  0  0  0
    2.4855   -1.3335    0.9584 H   0  0  0  0  0  0  0  0  0  0  0  0
    3.2024    0.3656    0.8642 H   0  0  0  0  0  0  0  0  0  0  0  0
    0.8599    0.4376    1.3348 H   0  0  0  0  0  0  0  0  0  0  0  0
   -0.7174    1.7860   -0.7097 H   0  0  0  0  0  0  0  0  0  0  0  0
    0.4727    2.4912    0.4429 H   0  0  0  0  0  0  0  0  0  0  0  0
    0.9835    1.9899   -1.1802 H   0  0  0  0  0  0  0  0  0  0  0  0
   -0.1743   -1.5810    0.5020 H   0  0  0  0  0  0  0  0  0  0  0  0
   -1.7737   -0.0704   -1.5476 H   0  0  0  0  0  0  0  0  0  0  0  0
   -1.2686   -1.7871   -1.4706 H   0  0  0  0  0  0  0  0  0  0  0  0
   -0.0556   -0.5931   -1.9955 H   0  0  0  0  0  0  0  0  0  0  0  0
   -1.5025   -0.0312    1.9936 H   0  0  0  0  0  0  0  0  0  0  0  0
   -2.0496    0.8560    0.5268 H   0  0  0  0  0  0  0  0  0  0  0  0
   -3.5874   -0.5967    0.4214 H   0  0  0  0  0  0  0  0  0  0  0  0
  1  2  1  0
  2  3  1  0
  3  4  1  0
  3  5  1  0
  5  6  1  0
  5  7  1  0
  7  8  1  0
  1  9  1  0
  1 10  1  0
  1 11  1  0
  3 12  1  0
  4 13  1  0
  4 14  1  0
  4 15  1  0
  5 16  1  0
  6 17  1  0
  6 18  1  0
  6 19  1  0
  7 20  1  0
  7 21  1  0
  8 22  1  0
M  END
