
     RDKit          3D

 20 19  0  0  0  0  0  0  0  0999 V2000
   -1.8552   -1.3117   -0.7960 C   0  0  0  0  0  0  0  0  0  0  0  0
   -0.9670   -0.2666   -0.9002 O   0  0  0  0  0  0  0  0  0  0  0  0
   -0.2650    0.0473    0.2179 C   0  0  0  0  0  0  0  0  0  0  0  0
   -0.5437    1.4082    0.7856 C   0  0  0  0  0  0  0  0  0  0  0  0
   -1.8783    1.5708    1.1477 O   0  0  0  0  0  0  0  0  0  0  0  0
    1.2156   -0.2303    0.0853 C   0  0  0  0  0  0  0  0  0  0  0  0
    1.8828    0.6131   -0.9619 C   0  0  0  0  0  0  0  0  0  0  0  0
    1.3662   -1.5843   -0.1678 O   0  0  0  0  0  0  0  0  0  0  0  0
   -2.6485   -1.1590   -0.0402 H   0  0  0  0  0  0  0  0  0  0  0  0
   -1.2537   -2.1819   -0.3913 H   0  0  0  0  0  0  0  0  0  0  0  0
   -2.2730   -1.6546   -1.7384 H   0  0  0  0  0  0  0  0  0  0  0  0
   -0.6007   -0.6755    1.0263 H   0  0  0  0  0  0  0  0  0  0  0  0
   -0.2850    2.2383    0.1153 H   0  0  0  0  0  0  0  0  0  0  0  0
    0.0729    1.5311    1.7016 H   0  0  0  0  0  0  0  0  0  0  0  0
   -1.9778    1.1147    2.0311 H   0  0  0  0  0  0  0  0  0  0  0  0
    1.6737    0.0596    1.0741 H   0  0  0  0  0  0  0  0  0  0  0  0
    1.4251    0.5491   -1.9519 H   0  0  0  0  0  0  0  0  0  0  0  0
    2.9243    0.2395   -1.0544 H   0  0  0  0  0  0  0  0  0  0  0  0
    1.9331    1.6632   -0.6313 H   0  0  0  0  0  0  0  0  0  0  0  0
    2.0542   -1.9711    0.4484 H   0  0  0  0  0  0  0  0  0  0  0  0
  1  2  1  0
  2  3  1  0
  3  4  1  0
  4  5  1  0
  3  6  1  0
  6  7  1  0
  6  8  1  0
  1  9  1  0
  1 10  1  0
  1 11  1  0
  3 12  1  0
  4 13  1  0
  4 14  1  0
  5 15  1  0
  6 16  1  0
  7 17  1  0
  7 18  1  0
  7 19  1  0
  8 20  1  0
M  END
