
     RDKit          3D

 19 18  0  0  0  0  0  0  0  0999 V2000
    2.2437   -0.7580    0.0779 C   0  0  0  0  0  0  0  0  0  0  0  0
    1.4649    0.3543    0.2376 O   0  0  0  0  0  0  0  0  0  0  0  0
    0.2213    0.3268   -0.3071 C   0  0  0  0  0  0  0  0  0  0  0  0
   -0.4030    1.6947    0.0324 C   0  0  0  0  0  0  0  0  0  0  0  0
    0.2408    0.2989   -1.8109 C   0  0  0  0  0  0  0  0  0  0  0  0
    1.2783    0.3018   -2.4512 O   0  0  0  0  0  0  0  0  0  0  0  0
   -0.6958   -0.6801    0.2559 C   0  0  0  0  0  0  0  0  0  0  0  0
   -2.0723   -0.7749   -0.2843 C   0  0  0  0  0  0  0  0  0  0  0  0
   -0.4104   -1.4596    1.1495 O   0  0  0  0  0  0  0  0  0  0  0  0
    3.2229   -0.5385    0.5947 H   0  0  0  0  0  0  0  0  0  0  0  0
    2.5118   -1.0055   -0.9583 H   0  0  0  0  0  0  0  0  0  0  0  0
    1.8588   -1.6618    0.6289 H   0  0  0  0  0  0  0  0  0  0  0  0
   -1.3036    1.8837   -0.5614 H   0  0  0  0  0  0  0  0  0  0  0  0
   -0.5285    1.8256    1.1098 H   0  0  0  0  0  0  0  0  0  0  0  0
    0.3807    2.4394   -0.2868 H   0  0  0  0  0  0  0  0  0  0  0  0
   -0.6751    0.2749   -2.3897 H   0  0  0  0  0  0  0  0  0  0  0  0
   -2.1154   -1.6197   -1.0009 H   0  0  0  0  0  0  0  0  0  0  0  0
   -2.4469    0.1579   -0.7211 H   0  0  0  0  0  0  0  0  0  0  0  0
   -2.7722   -1.0597    0.5505 H   0  0  0  0  0  0  0  0  0  0  0  0
  1  2  1  0
  2  3  1  0
  3  4  1  0
  3  5  1  0
  5  6  2  0
  3  7  1  0
  7  8  1  0
  7  9  2  0
  1 10  1  0
  1 11  1  0
  1 12  1  0
  4 13  1  0
  4 14  1  0
  4 15  1  0
  5 16  1  0
  8 17  1  0
  8 18  1  0
  8 19  1  0
M  END
