
     RDKit          3D

 23 23  0  0  0  0  0  0  0  0999 V2000
    2.9219   -0.4305    0.3229 C   0  0  0  0  0  0  0  0  0  0  0  0
    1.8241   -0.3391   -0.5335 O   0  0  0  0  0  0  0  0  0  0  0  0
    0.8268    0.4046    0.0465 C   0  0  0  0  0  0  0  0  0  0  0  0
    0.5804    1.6590   -0.7505 C   0  0  0  0  0  0  0  0  0  0  0  0
   -0.4110   -0.4127    0.2606 C   0  0  0  0  0  0  0  0  0  0  0  0
   -0.1427   -1.4925    1.0928 O   0  0  0  0  0  0  0  0  0  0  0  0
   -1.1570   -0.8244   -0.9747 C   0  0  0  0  0  0  0  0  0  0  0  0
   -2.4553   -0.5726   -0.1964 C   0  0  0  0  0  0  0  0  0  0  0  0
   -1.6213    0.3569    0.6989 C   0  0  0  0  0  0  0  0  0  0  0  0
    3.7450   -1.0109   -0.0872 H   0  0  0  0  0  0  0  0  0  0  0  0
    3.2596    0.6113    0.5102 H   0  0  0  0  0  0  0  0  0  0  0  0
    2.5287   -0.8276    1.2893 H   0  0  0  0  0  0  0  0  0  0  0  0
    1.1605    0.7476    1.0688 H   0  0  0  0  0  0  0  0  0  0  0  0
    0.0029    2.4025   -0.1405 H   0  0  0  0  0  0  0  0  0  0  0  0
    1.5819    2.1363   -0.9043 H   0  0  0  0  0  0  0  0  0  0  0  0
    0.1207    1.4701   -1.7231 H   0  0  0  0  0  0  0  0  0  0  0  0
   -1.0271   -1.8750    1.3686 H   0  0  0  0  0  0  0  0  0  0  0  0
   -1.0647   -0.1856   -1.8553 H   0  0  0  0  0  0  0  0  0  0  0  0
   -1.1050   -1.9095   -1.2063 H   0  0  0  0  0  0  0  0  0  0  0  0
   -3.2444   -0.0797   -0.7614 H   0  0  0  0  0  0  0  0  0  0  0  0
   -2.8009   -1.4292    0.3927 H   0  0  0  0  0  0  0  0  0  0  0  0
   -1.7206    1.3810    0.3118 H   0  0  0  0  0  0  0  0  0  0  0  0
   -1.8024    0.2203    1.7700 H   0  0  0  0  0  0  0  0  0  0  0  0
  1  2  1  0
  2  3  1  0
  3  4  1  0
  3  5  1  0
  5  6  1  0
  5  7  1  0
  7  8  1  0
  8  9  1  0
  9  5  1  0
  1 10  1  0
  1 11  1  0
  1 12  1  0
  3 13  1  0
  4 14  1  0
  4 15  1  0
  4 16  1  0
  6 17  1  0
  7 18  1  0
  7 19  1  0
  8 20  1  0
  8 21  1  0
  9 22  1  0
  9 23  1  0
M  END
