
     RDKit          3D

 23 22  0  0  0  0  0  0  0  0999 V2000
   -2.0456    2.3410    0.6184 C   0  0  0  0  0  0  0  0  0  0  0  0
   -1.8876    1.1799   -0.1105 O   0  0  0  0  0  0  0  0  0  0  0  0
   -1.0605    0.2474    0.4417 C   0  0  0  0  0  0  0  0  0  0  0  0
   -1.8608   -0.9978    0.7405 C   0  0  0  0  0  0  0  0  0  0  0  0
    0.1625   -0.0618   -0.3741 C   0  0  0  0  0  0  0  0  0  0  0  0
    1.0469   -1.0989    0.2813 C   0  0  0  0  0  0  0  0  0  0  0  0
    2.2387   -1.3014   -0.6628 C   0  0  0  0  0  0  0  0  0  0  0  0
    2.9413    0.0122   -0.8082 C   0  0  0  0  0  0  0  0  0  0  0  0
    3.6768    0.3295    0.1255 O   0  0  0  0  0  0  0  0  0  0  0  0
   -1.1179    2.8940    0.7949 H   0  0  0  0  0  0  0  0  0  0  0  0
   -2.7027    3.0091    0.0028 H   0  0  0  0  0  0  0  0  0  0  0  0
   -2.6160    2.1133    1.5306 H   0  0  0  0  0  0  0  0  0  0  0  0
   -0.6809    0.6599    1.4169 H   0  0  0  0  0  0  0  0  0  0  0  0
   -2.9328   -0.8716    0.4171 H   0  0  0  0  0  0  0  0  0  0  0  0
   -1.4604   -1.9108    0.2848 H   0  0  0  0  0  0  0  0  0  0  0  0
   -1.9301   -1.1415    1.8531 H   0  0  0  0  0  0  0  0  0  0  0  0
   -0.1271   -0.4964   -1.3756 H   0  0  0  0  0  0  0  0  0  0  0  0
    0.7827    0.8089   -0.5914 H   0  0  0  0  0  0  0  0  0  0  0  0
    1.4760   -0.6822    1.2416 H   0  0  0  0  0  0  0  0  0  0  0  0
    0.5561   -2.0399    0.5179 H   0  0  0  0  0  0  0  0  0  0  0  0
    1.8465   -1.5765   -1.6736 H   0  0  0  0  0  0  0  0  0  0  0  0
    2.8662   -2.0762   -0.2085 H   0  0  0  0  0  0  0  0  0  0  0  0
    2.8286    0.6598   -1.6656 H   0  0  0  0  0  0  0  0  0  0  0  0
  1  2  1  0
  2  3  1  0
  3  4  1  0
  3  5  1  0
  5  6  1  0
  6  7  1  0
  7  8  1  0
  8  9  2  0
  1 10  1  0
  1 11  1  0
  1 12  1  0
  3 13  1  0
  4 14  1  0
  4 15  1  0
  4 16  1  0
  5 17  1  0
  5 18  1  0
  6 19  1  0
  6 20  1  0
  7 21  1  0
  7 22  1  0
  8 23  1  0
M  END
