
     RDKit          3D

 19 20  0  0  0  0  0  0  0  0999 V2000
    3.2209   -0.1516   -0.2110 C   0  0  0  0  0  0  0  0  0  0  0  0
    1.8572    0.0745   -0.4784 O   0  0  0  0  0  0  0  0  0  0  0  0
    0.8415   -0.2791    0.4290 C   0  0  0  0  0  0  0  0  0  0  0  0
    1.2926   -0.8179    1.5009 O   0  0  0  0  0  0  0  0  0  0  0  0
   -0.4605   -0.0672    0.1824 C   0  0  0  0  0  0  0  0  0  0  0  0
   -1.2832   -0.6240   -0.9620 C   0  0  0  0  0  0  0  0  0  0  0  0
   -2.2416    0.2539   -0.2115 C   0  0  0  0  0  0  0  0  0  0  0  0
   -1.1113    1.2573   -0.1763 C   0  0  0  0  0  0  0  0  0  0  0  0
   -1.6360   -0.3040    1.0467 C   0  0  0  0  0  0  0  0  0  0  0  0
    3.5397    0.6443    0.5037 H   0  0  0  0  0  0  0  0  0  0  0  0
    3.7651   -0.0037   -1.1724 H   0  0  0  0  0  0  0  0  0  0  0  0
    3.4231   -1.1666    0.1373 H   0  0  0  0  0  0  0  0  0  0  0  0
   -1.4656   -1.6977   -0.9508 H   0  0  0  0  0  0  0  0  0  0  0  0
   -0.9681   -0.1562   -1.8993 H   0  0  0  0  0  0  0  0  0  0  0  0
   -3.2028    0.4352   -0.4066 H   0  0  0  0  0  0  0  0  0  0  0  0
   -1.1448    2.0019    0.6252 H   0  0  0  0  0  0  0  0  0  0  0  0
   -0.7610    1.5933   -1.1689 H   0  0  0  0  0  0  0  0  0  0  0  0
   -1.7854    0.3514    1.9155 H   0  0  0  0  0  0  0  0  0  0  0  0
   -1.8799   -1.3438    1.2966 H   0  0  0  0  0  0  0  0  0  0  0  0
  1  2  1  0
  2  3  1  0
  3  4  2  0
  3  5  1  0
  5  6  1  0
  6  7  1  0
  7  8  1  0
  7  9  1  0
  8  5  1  0
  9  5  1  0
  1 10  1  0
  1 11  1  0
  1 12  1  0
  6 13  1  0
  6 14  1  0
  7 15  1  0
  8 16  1  0
  8 17  1  0
  9 18  1  0
  9 19  1  0
M  END
