
     RDKit          3D

 21 21  0  0  0  0  0  0  0  0999 V2000
   -2.0015   -0.2059    1.3357 C   0  0  0  0  0  0  0  0  0  0  0  0
   -0.9042   -0.7501    0.6853 O   0  0  0  0  0  0  0  0  0  0  0  0
   -0.6117   -0.0490   -0.4715 C   0  0  0  0  0  0  0  0  0  0  0  0
   -0.8295   -0.9564   -1.6718 C   0  0  0  0  0  0  0  0  0  0  0  0
    0.7808    0.5178   -0.4517 C   0  0  0  0  0  0  0  0  0  0  0  0
    1.1539    1.2396   -1.5830 O   0  0  0  0  0  0  0  0  0  0  0  0
    1.1865    1.1152    0.8859 C   0  0  0  0  0  0  0  0  0  0  0  0
    1.8753   -0.1343    0.2935 C   0  0  0  0  0  0  0  0  0  0  0  0
    1.6927   -1.2693    1.0386 O   0  0  0  0  0  0  0  0  0  0  0  0
   -2.8969   -0.2466    0.6499 H   0  0  0  0  0  0  0  0  0  0  0  0
   -1.8213    0.8831    1.4890 H   0  0  0  0  0  0  0  0  0  0  0  0
   -2.1778   -0.6842    2.3000 H   0  0  0  0  0  0  0  0  0  0  0  0
   -1.3441    0.7774   -0.5746 H   0  0  0  0  0  0  0  0  0  0  0  0
   -0.9306   -2.0233   -1.3585 H   0  0  0  0  0  0  0  0  0  0  0  0
   -1.7644   -0.7072   -2.2184 H   0  0  0  0  0  0  0  0  0  0  0  0
    0.0326   -0.8168   -2.3693 H   0  0  0  0  0  0  0  0  0  0  0  0
    0.7975    2.1584   -1.4713 H   0  0  0  0  0  0  0  0  0  0  0  0
    0.5601    0.9826    1.7656 H   0  0  0  0  0  0  0  0  0  0  0  0
    1.8223    2.0431    0.8492 H   0  0  0  0  0  0  0  0  0  0  0  0
    2.9186    0.0132   -0.0776 H   0  0  0  0  0  0  0  0  0  0  0  0
    2.4617   -1.8873    0.9549 H   0  0  0  0  0  0  0  0  0  0  0  0
  1  2  1  0
  2  3  1  0
  3  4  1  0
  3  5  1  0
  5  6  1  0
  5  7  1  0
  7  8  1  0
  8  9  1  0
  8  5  1  0
  1 10  1  0
  1 11  1  0
  1 12  1  0
  3 13  1  0
  4 14  1  0
  4 15  1  0
  4 16  1  0
  6 17  1  0
  7 18  1  0
  7 19  1  0
  8 20  1  0
  9 21  1  0
M  END
