
     RDKit          3D

 17 16  0  0  0  0  0  0  0  0999 V2000
    3.6465   -1.1325   -0.9607 C   0  0  0  0  0  0  0  0  0  0  0  0
    2.2832   -0.9427   -0.5694 O   0  0  0  0  0  0  0  0  0  0  0  0
    1.7999    0.3258   -0.3149 C   0  0  0  0  0  0  0  0  0  0  0  0
    2.5770    1.2993   -0.4337 O   0  0  0  0  0  0  0  0  0  0  0  0
    0.4459    0.5590    0.0780 C   0  0  0  0  0  0  0  0  0  0  0  0
   -0.7023    0.7654    0.3925 C   0  0  0  0  0  0  0  0  0  0  0  0
   -2.1103    0.9928    0.7816 C   0  0  0  0  0  0  0  0  0  0  0  0
   -2.8019   -0.3522    0.7503 C   0  0  0  0  0  0  0  0  0  0  0  0
   -2.6382    1.8874   -0.1403 O   0  0  0  0  0  0  0  0  0  0  0  0
    3.8935   -0.2849   -1.6261 H   0  0  0  0  0  0  0  0  0  0  0  0
    3.6902   -2.1194   -1.4786 H   0  0  0  0  0  0  0  0  0  0  0  0
    4.3256   -1.1685   -0.0934 H   0  0  0  0  0  0  0  0  0  0  0  0
   -2.1644    1.3682    1.8235 H   0  0  0  0  0  0  0  0  0  0  0  0
   -3.7577   -0.3496    1.3137 H   0  0  0  0  0  0  0  0  0  0  0  0
   -2.1185   -1.0568    1.3040 H   0  0  0  0  0  0  0  0  0  0  0  0
   -2.9179   -0.7671   -0.2508 H   0  0  0  0  0  0  0  0  0  0  0  0
   -3.4505    1.5312   -0.5757 H   0  0  0  0  0  0  0  0  0  0  0  0
  1  2  1  0
  2  3  1  0
  3  4  2  0
  3  5  1  0
  5  6  3  0
  6  7  1  0
  7  8  1  0
  7  9  1  0
  1 10  1  0
  1 11  1  0
  1 12  1  0
  7 13  1  0
  8 14  1  0
  8 15  1  0
  8 16  1  0
  9 17  1  0
M  END
