
     RDKit          3D

 23 22  0  0  0  0  0  0  0  0999 V2000
   -0.3478    2.7897    0.5847 C   0  0  0  0  0  0  0  0  0  0  0  0
    0.0093    1.8236   -0.3249 O   0  0  0  0  0  0  0  0  0  0  0  0
   -0.1568    0.5211    0.1316 C   0  0  0  0  0  0  0  0  0  0  0  0
   -1.2318   -0.2147   -0.6200 C   0  0  0  0  0  0  0  0  0  0  0  0
   -1.3725   -1.6200   -0.0875 C   0  0  0  0  0  0  0  0  0  0  0  0
   -1.7007   -1.6363    1.2719 O   0  0  0  0  0  0  0  0  0  0  0  0
    1.1286   -0.2166    0.2865 C   0  0  0  0  0  0  0  0  0  0  0  0
    1.9422   -0.3804   -0.9430 C   0  0  0  0  0  0  0  0  0  0  0  0
    3.0982   -1.0946   -0.5820 O   0  0  0  0  0  0  0  0  0  0  0  0
   -0.2235    3.8105    0.2424 H   0  0  0  0  0  0  0  0  0  0  0  0
   -1.4409    2.6491    0.7978 H   0  0  0  0  0  0  0  0  0  0  0  0
    0.1608    2.5616    1.5503 H   0  0  0  0  0  0  0  0  0  0  0  0
   -0.5573    0.6508    1.1704 H   0  0  0  0  0  0  0  0  0  0  0  0
   -2.1857    0.3091   -0.5314 H   0  0  0  0  0  0  0  0  0  0  0  0
   -1.0146   -0.3085   -1.7026 H   0  0  0  0  0  0  0  0  0  0  0  0
   -2.2248   -2.1330   -0.5965 H   0  0  0  0  0  0  0  0  0  0  0  0
   -0.4874   -2.2530   -0.2221 H   0  0  0  0  0  0  0  0  0  0  0  0
   -2.6041   -1.9559    1.4568 H   0  0  0  0  0  0  0  0  0  0  0  0
    0.9269   -1.2089    0.7277 H   0  0  0  0  0  0  0  0  0  0  0  0
    1.7453    0.3760    1.0065 H   0  0  0  0  0  0  0  0  0  0  0  0
    2.2964    0.5602   -1.3906 H   0  0  0  0  0  0  0  0  0  0  0  0
    1.4568   -0.9819   -1.7355 H   0  0  0  0  0  0  0  0  0  0  0  0
    2.7833   -2.0477   -0.4906 H   0  0  0  0  0  0  0  0  0  0  0  0
  1  2  1  0
  2  3  1  0
  3  4  1  0
  4  5  1  0
  5  6  1  0
  3  7  1  0
  7  8  1  0
  8  9  1  0
  1 10  1  0
  1 11  1  0
  1 12  1  0
  3 13  1  0
  4 14  1  0
  4 15  1  0
  5 16  1  0
  5 17  1  0
  6 18  1  0
  7 19  1  0
  7 20  1  0
  8 21  1  0
  8 22  1  0
  9 23  1  0
M  END
