
     RDKit          3D

 21 21  0  0  0  0  0  0  0  0999 V2000
    3.3104   -0.0322    0.0266 C   0  0  0  0  0  0  0  0  0  0  0  0
    1.9683   -0.0196    0.4843 O   0  0  0  0  0  0  0  0  0  0  0  0
    0.9285    0.2008   -0.4082 C   0  0  0  0  0  0  0  0  0  0  0  0
    1.2396    0.3835   -1.6132 O   0  0  0  0  0  0  0  0  0  0  0  0
   -0.4719    0.2218    0.0231 C   0  0  0  0  0  0  0  0  0  0  0  0
   -0.7883    1.2854    1.0523 C   0  0  0  0  0  0  0  0  0  0  0  0
   -0.9400   -1.1790    0.4447 C   0  0  0  0  0  0  0  0  0  0  0  0
   -2.2470   -0.8502   -0.2481 C   0  0  0  0  0  0  0  0  0  0  0  0
   -1.4705    0.1204   -1.1125 C   0  0  0  0  0  0  0  0  0  0  0  0
    4.0205    0.0306    0.8625 H   0  0  0  0  0  0  0  0  0  0  0  0
    3.4962   -0.9030   -0.6442 H   0  0  0  0  0  0  0  0  0  0  0  0
    3.4766    0.8717   -0.5996 H   0  0  0  0  0  0  0  0  0  0  0  0
   -1.5486    0.8646    1.7482 H   0  0  0  0  0  0  0  0  0  0  0  0
   -1.2100    2.1993    0.5617 H   0  0  0  0  0  0  0  0  0  0  0  0
    0.1669    1.5169    1.5708 H   0  0  0  0  0  0  0  0  0  0  0  0
   -0.3277   -1.9588   -0.0565 H   0  0  0  0  0  0  0  0  0  0  0  0
   -1.0411   -1.3000    1.5411 H   0  0  0  0  0  0  0  0  0  0  0  0
   -2.6531   -1.7315   -0.7659 H   0  0  0  0  0  0  0  0  0  0  0  0
   -2.9227   -0.3533    0.4663 H   0  0  0  0  0  0  0  0  0  0  0  0
   -0.9921   -0.4199   -1.9627 H   0  0  0  0  0  0  0  0  0  0  0  0
   -1.9938    1.0523   -1.3707 H   0  0  0  0  0  0  0  0  0  0  0  0
  1  2  1  0
  2  3  1  0
  3  4  2  0
  3  5  1  0
  5  6  1  0
  5  7  1  0
  7  8  1  0
  8  9  1  0
  9  5  1  0
  1 10  1  0
  1 11  1  0
  1 12  1  0
  6 13  1  0
  6 14  1  0
  6 15  1  0
  7 16  1  0
  7 17  1  0
  8 18  1  0
  8 19  1  0
  9 20  1  0
  9 21  1  0
M  END
