
     RDKit          3D

 20 20  0  0  0  0  0  0  0  0999 V2000
   -1.4405    1.7822    0.4590 C   0  0  0  0  0  0  0  0  0  0  0  0
   -1.2113    0.6993   -0.3736 O   0  0  0  0  0  0  0  0  0  0  0  0
   -0.3403   -0.2293    0.1836 C   0  0  0  0  0  0  0  0  0  0  0  0
   -1.0738   -1.5508    0.2670 C   0  0  0  0  0  0  0  0  0  0  0  0
   -2.2148   -1.4759    1.0515 O   0  0  0  0  0  0  0  0  0  0  0  0
    0.8295   -0.4449   -0.7793 C   0  0  0  0  0  0  0  0  0  0  0  0
    1.6873    0.6992   -1.1495 C   0  0  0  0  0  0  0  0  0  0  0  0
    2.2141   -0.4726   -0.2566 C   0  0  0  0  0  0  0  0  0  0  0  0
   -0.4543    2.2712    0.6430 H   0  0  0  0  0  0  0  0  0  0  0  0
   -2.0417    2.5173   -0.1138 H   0  0  0  0  0  0  0  0  0  0  0  0
   -1.9542    1.5106    1.4031 H   0  0  0  0  0  0  0  0  0  0  0  0
    0.0210    0.0368    1.1756 H   0  0  0  0  0  0  0  0  0  0  0  0
   -0.3876   -2.3661    0.6348 H   0  0  0  0  0  0  0  0  0  0  0  0
   -1.3760   -1.8727   -0.7541 H   0  0  0  0  0  0  0  0  0  0  0  0
   -1.9882   -1.0730    1.9078 H   0  0  0  0  0  0  0  0  0  0  0  0
    0.6121   -1.1644   -1.5999 H   0  0  0  0  0  0  0  0  0  0  0  0
    1.5846    1.6815   -0.6203 H   0  0  0  0  0  0  0  0  0  0  0  0
    2.1202    0.7469   -2.1687 H   0  0  0  0  0  0  0  0  0  0  0  0
    2.4212   -0.1890    0.7911 H   0  0  0  0  0  0  0  0  0  0  0  0
    2.9926   -1.1064   -0.7006 H   0  0  0  0  0  0  0  0  0  0  0  0
  1  2  1  0
  2  3  1  0
  3  4  1  0
  4  5  1  0
  3  6  1  0
  6  7  1  0
  7  8  1  0
  8  6  1  0
  1  9  1  0
  1 10  1  0
  1 11  1  0
  3 12  1  0
  4 13  1  0
  4 14  1  0
  5 15  1  0
  6 16  1  0
  7 17  1  0
  7 18  1  0
  8 19  1  0
  8 20  1  0
M  END
