
     RDKit          3D

 21 20  0  0  0  0  0  0  0  0999 V2000
    3.5094   -0.4022    0.2168 C   0  0  0  0  0  0  0  0  0  0  0  0
    2.3088    0.2864    0.3503 O   0  0  0  0  0  0  0  0  0  0  0  0
    1.1185   -0.0359   -0.2702 C   0  0  0  0  0  0  0  0  0  0  0  0
    1.1249   -1.0431   -1.0228 O   0  0  0  0  0  0  0  0  0  0  0  0
   -0.1293    0.7186   -0.1023 C   0  0  0  0  0  0  0  0  0  0  0  0
    0.0046    1.8020    0.7521 O   0  0  0  0  0  0  0  0  0  0  0  0
   -1.2704   -0.1235    0.4099 C   0  0  0  0  0  0  0  0  0  0  0  0
   -1.6173   -1.2656   -0.4903 C   0  0  0  0  0  0  0  0  0  0  0  0
   -2.4909    0.8084    0.4468 C   0  0  0  0  0  0  0  0  0  0  0  0
    4.1296   -0.0494   -0.6500 H   0  0  0  0  0  0  0  0  0  0  0  0
    4.1335   -0.1694    1.1215 H   0  0  0  0  0  0  0  0  0  0  0  0
    3.4151   -1.5016    0.1838 H   0  0  0  0  0  0  0  0  0  0  0  0
   -0.4086    1.1282   -1.0956 H   0  0  0  0  0  0  0  0  0  0  0  0
    0.9144    1.7761    1.1545 H   0  0  0  0  0  0  0  0  0  0  0  0
   -1.1226   -0.4475    1.4577 H   0  0  0  0  0  0  0  0  0  0  0  0
   -1.8252   -0.8334   -1.5113 H   0  0  0  0  0  0  0  0  0  0  0  0
   -0.9039   -2.0847   -0.5045 H   0  0  0  0  0  0  0  0  0  0  0  0
   -2.6063   -1.6662   -0.1471 H   0  0  0  0  0  0  0  0  0  0  0  0
   -3.4174    0.2311    0.5026 H   0  0  0  0  0  0  0  0  0  0  0  0
   -2.4896    1.3094   -0.5636 H   0  0  0  0  0  0  0  0  0  0  0  0
   -2.3771    1.5626    1.2608 H   0  0  0  0  0  0  0  0  0  0  0  0
  1  2  1  0
  2  3  1  0
  3  4  2  0
  3  5  1  0
  5  6  1  0
  5  7  1  0
  7  8  1  0
  7  9  1  0
  1 10  1  0
  1 11  1  0
  1 12  1  0
  5 13  1  0
  6 14  1  0
  7 15  1  0
  8 16  1  0
  8 17  1  0
  8 18  1  0
  9 19  1  0
  9 20  1  0
  9 21  1  0
M  END
