
     RDKit          3D

 19 19  0  0  0  0  0  0  0  0999 V2000
    2.5201   -0.4397    0.8127 C   0  0  0  0  0  0  0  0  0  0  0  0
    1.3631   -0.7897    0.1267 O   0  0  0  0  0  0  0  0  0  0  0  0
    0.8131    0.3662   -0.4124 C   0  0  0  0  0  0  0  0  0  0  0  0
    0.7138    0.1877   -1.8686 C   0  0  0  0  0  0  0  0  0  0  0  0
    0.2568    1.0802   -2.5534 O   0  0  0  0  0  0  0  0  0  0  0  0
   -0.5265    0.6440    0.2324 C   0  0  0  0  0  0  0  0  0  0  0  0
   -1.5110   -0.4718    0.0228 C   0  0  0  0  0  0  0  0  0  0  0  0
   -2.8719   -0.2752    0.6334 C   0  0  0  0  0  0  0  0  0  0  0  0
   -2.6541   -0.2410   -0.7328 O   0  0  0  0  0  0  0  0  0  0  0  0
    3.0156   -1.3216    1.2726 H   0  0  0  0  0  0  0  0  0  0  0  0
    3.2055    0.0488    0.0813 H   0  0  0  0  0  0  0  0  0  0  0  0
    2.2057    0.3131    1.5840 H   0  0  0  0  0  0  0  0  0  0  0  0
    1.4695    1.2174   -0.1283 H   0  0  0  0  0  0  0  0  0  0  0  0
    1.0348   -0.7162   -2.3597 H   0  0  0  0  0  0  0  0  0  0  0  0
   -0.3928    0.7765    1.3243 H   0  0  0  0  0  0  0  0  0  0  0  0
   -0.9577    1.5871   -0.1602 H   0  0  0  0  0  0  0  0  0  0  0  0
   -1.1705   -1.5271    0.0377 H   0  0  0  0  0  0  0  0  0  0  0  0
   -3.0938    0.6916    1.1407 H   0  0  0  0  0  0  0  0  0  0  0  0
   -3.4196   -1.1305    1.0694 H   0  0  0  0  0  0  0  0  0  0  0  0
  1  2  1  0
  2  3  1  0
  3  4  1  0
  4  5  2  0
  3  6  1  0
  6  7  1  0
  7  8  1  0
  8  9  1  0
  9  7  1  0
  1 10  1  0
  1 11  1  0
  1 12  1  0
  3 13  1  0
  4 14  1  0
  6 15  1  0
  6 16  1  0
  7 17  1  0
  8 18  1  0
  8 19  1  0
M  END
