
     RDKit          3D

 17 16  0  0  0  0  0  0  0  0999 V2000
    3.2131    0.2920   -0.1069 C   0  0  0  0  0  0  0  0  0  0  0  0
    2.0591   -0.4422   -0.3904 O   0  0  0  0  0  0  0  0  0  0  0  0
    0.8145    0.1185   -0.2047 C   0  0  0  0  0  0  0  0  0  0  0  0
    0.7649    1.3008    0.2241 O   0  0  0  0  0  0  0  0  0  0  0  0
   -0.3634   -0.6641   -0.5061 C   0  0  0  0  0  0  0  0  0  0  0  0
   -0.2365   -1.8315   -0.9284 O   0  0  0  0  0  0  0  0  0  0  0  0
   -1.6921   -0.0426   -0.2996 C   0  0  0  0  0  0  0  0  0  0  0  0
   -1.9269    0.3407    1.1325 C   0  0  0  0  0  0  0  0  0  0  0  0
   -2.6917   -0.9647   -0.6490 O   0  0  0  0  0  0  0  0  0  0  0  0
    3.4332    0.2886    0.9882 H   0  0  0  0  0  0  0  0  0  0  0  0
    4.0542   -0.0916   -0.7118 H   0  0  0  0  0  0  0  0  0  0  0  0
    2.9786    1.3682   -0.3534 H   0  0  0  0  0  0  0  0  0  0  0  0
   -1.8479    0.8402   -0.9524 H   0  0  0  0  0  0  0  0  0  0  0  0
   -2.7215    1.1368    1.1270 H   0  0  0  0  0  0  0  0  0  0  0  0
   -1.0081    0.6702    1.6530 H   0  0  0  0  0  0  0  0  0  0  0  0
   -2.3600   -0.5245    1.6506 H   0  0  0  0  0  0  0  0  0  0  0  0
   -2.4694   -1.7948   -0.1599 H   0  0  0  0  0  0  0  0  0  0  0  0
  1  2  1  0
  2  3  1  0
  3  4  2  0
  3  5  1  0
  5  6  2  0
  5  7  1  0
  7  8  1  0
  7  9  1  0
  1 10  1  0
  1 11  1  0
  1 12  1  0
  7 13  1  0
  8 14  1  0
  8 15  1  0
  8 16  1  0
  9 17  1  0
M  END
