
     RDKit          3D

 18 18  0  0  0  0  0  0  0  0999 V2000
   -0.8898    2.2745   -0.0547 C   0  0  0  0  0  0  0  0  0  0  0  0
   -0.2696    1.1918   -0.6252 O   0  0  0  0  0  0  0  0  0  0  0  0
   -0.0078    0.1560    0.2302 C   0  0  0  0  0  0  0  0  0  0  0  0
   -0.8601   -1.0260   -0.1926 C   0  0  0  0  0  0  0  0  0  0  0  0
   -2.2141   -0.7235   -0.1419 O   0  0  0  0  0  0  0  0  0  0  0  0
    1.4309   -0.1888    0.3720 C   0  0  0  0  0  0  0  0  0  0  0  0
    2.0408   -1.3967   -0.0833 C   0  0  0  0  0  0  0  0  0  0  0  0
    1.6638   -1.2626    1.2629 O   0  0  0  0  0  0  0  0  0  0  0  0
   -0.2642    2.7055    0.7617 H   0  0  0  0  0  0  0  0  0  0  0  0
   -1.9235    2.0623    0.2586 H   0  0  0  0  0  0  0  0  0  0  0  0
   -0.9359    3.0781   -0.8352 H   0  0  0  0  0  0  0  0  0  0  0  0
   -0.3843    0.4605    1.2440 H   0  0  0  0  0  0  0  0  0  0  0  0
   -0.6453   -1.3330   -1.2418 H   0  0  0  0  0  0  0  0  0  0  0  0
   -0.6942   -1.9143    0.4647 H   0  0  0  0  0  0  0  0  0  0  0  0
   -2.7517   -1.2459   -0.7696 H   0  0  0  0  0  0  0  0  0  0  0  0
    2.0822    0.6762    0.6279 H   0  0  0  0  0  0  0  0  0  0  0  0
    3.1503   -1.4240   -0.2033 H   0  0  0  0  0  0  0  0  0  0  0  0
    1.4724   -2.0899   -0.7297 H   0  0  0  0  0  0  0  0  0  0  0  0
  1  2  1  0
  2  3  1  0
  3  4  1  0
  4  5  1  0
  3  6  1  0
  6  7  1  0
  7  8  1  0
  8  6  1  0
  1  9  1  0
  1 10  1  0
  1 11  1  0
  3 12  1  0
  4 13  1  0
  4 14  1  0
  5 15  1  0
  6 16  1  0
  7 17  1  0
  7 18  1  0
M  END
