
     RDKit          3D

 21 21  0  0  0  0  0  0  0  0999 V2000
   -2.5357    0.6558    0.2589 C   0  0  0  0  0  0  0  0  0  0  0  0
   -1.6337    0.9072   -0.7773 O   0  0  0  0  0  0  0  0  0  0  0  0
   -0.6191   -0.0446   -0.8043 C   0  0  0  0  0  0  0  0  0  0  0  0
   -0.7676   -0.8378   -2.0594 C   0  0  0  0  0  0  0  0  0  0  0  0
   -1.6658   -0.6088   -2.8640 O   0  0  0  0  0  0  0  0  0  0  0  0
    0.7306    0.6016   -0.6943 C   0  0  0  0  0  0  0  0  0  0  0  0
    1.8848   -0.3824   -0.7174 C   0  0  0  0  0  0  0  0  0  0  0  0
    1.5718    0.5139    0.4959 C   0  0  0  0  0  0  0  0  0  0  0  0
    1.1933   -0.2158    1.7373 C   0  0  0  0  0  0  0  0  0  0  0  0
   -1.9968    0.6811    1.2517 H   0  0  0  0  0  0  0  0  0  0  0  0
   -3.2844    1.4568    0.3142 H   0  0  0  0  0  0  0  0  0  0  0  0
   -3.0161   -0.3471    0.1608 H   0  0  0  0  0  0  0  0  0  0  0  0
   -0.8116   -0.7662    0.0329 H   0  0  0  0  0  0  0  0  0  0  0  0
   -0.0993   -1.6497   -2.3266 H   0  0  0  0  0  0  0  0  0  0  0  0
    0.8372    1.5120   -1.3362 H   0  0  0  0  0  0  0  0  0  0  0  0
    2.7898   -0.1152   -1.3156 H   0  0  0  0  0  0  0  0  0  0  0  0
    1.6874   -1.4523   -0.6096 H   0  0  0  0  0  0  0  0  0  0  0  0
    2.3116    1.3389    0.6639 H   0  0  0  0  0  0  0  0  0  0  0  0
    0.6902   -1.1912    1.5269 H   0  0  0  0  0  0  0  0  0  0  0  0
    0.5794    0.4266    2.3852 H   0  0  0  0  0  0  0  0  0  0  0  0
    2.1539   -0.4828    2.2686 H   0  0  0  0  0  0  0  0  0  0  0  0
  1  2  1  0
  2  3  1  0
  3  4  1  0
  4  5  2  0
  3  6  1  0
  6  7  1  0
  7  8  1  0
  8  9  1  0
  8  6  1  0
  1 10  1  0
  1 11  1  0
  1 12  1  0
  3 13  1  0
  4 14  1  0
  6 15  1  0
  7 16  1  0
  7 17  1  0
  8 18  1  0
  9 19  1  0
  9 20  1  0
  9 21  1  0
M  END
