
     RDKit          3D

 19 19  0  0  0  0  0  0  0  0999 V2000
   -2.4880   -0.6951   -0.1433 C   0  0  0  0  0  0  0  0  0  0  0  0
   -1.3345   -0.2486   -0.7764 O   0  0  0  0  0  0  0  0  0  0  0  0
   -0.7356    0.8072   -0.1399 C   0  0  0  0  0  0  0  0  0  0  0  0
   -0.6761    2.0342   -0.9729 C   0  0  0  0  0  0  0  0  0  0  0  0
   -0.1827    3.0634   -0.5756 O   0  0  0  0  0  0  0  0  0  0  0  0
    0.6591    0.4485    0.3552 C   0  0  0  0  0  0  0  0  0  0  0  0
    0.5181   -0.6813    1.3033 O   0  0  0  0  0  0  0  0  0  0  0  0
    1.2526   -0.7903    0.0108 C   0  0  0  0  0  0  0  0  0  0  0  0
    2.7050   -1.0413    0.3336 C   0  0  0  0  0  0  0  0  0  0  0  0
   -2.9388   -1.5473   -0.6898 H   0  0  0  0  0  0  0  0  0  0  0  0
   -2.2821   -1.0480    0.8882 H   0  0  0  0  0  0  0  0  0  0  0  0
   -3.2675    0.0850   -0.0721 H   0  0  0  0  0  0  0  0  0  0  0  0
   -1.3351    1.0623    0.7599 H   0  0  0  0  0  0  0  0  0  0  0  0
   -1.0903    1.9969   -1.9665 H   0  0  0  0  0  0  0  0  0  0  0  0
    1.2347    1.2912    0.7905 H   0  0  0  0  0  0  0  0  0  0  0  0
    0.7402   -1.4898   -0.6860 H   0  0  0  0  0  0  0  0  0  0  0  0
    2.8372   -2.0249    0.8711 H   0  0  0  0  0  0  0  0  0  0  0  0
    3.0239   -0.2585    1.0623 H   0  0  0  0  0  0  0  0  0  0  0  0
    3.3597   -0.9636   -0.5297 H   0  0  0  0  0  0  0  0  0  0  0  0
  1  2  1  0
  2  3  1  0
  3  4  1  0
  4  5  2  0
  3  6  1  0
  6  7  1  0
  7  8  1  0
  8  9  1  0
  8  6  1  0
  1 10  1  0
  1 11  1  0
  1 12  1  0
  3 13  1  0
  4 14  1  0
  6 15  1  0
  8 16  1  0
  9 17  1  0
  9 18  1  0
  9 19  1  0
M  END
