
     RDKit          3D

 23 22  0  0  0  0  0  0  0  0999 V2000
   -1.8496   -2.0391   -0.0981 C   0  0  0  0  0  0  0  0  0  0  0  0
   -0.9047   -1.3371    0.6459 O   0  0  0  0  0  0  0  0  0  0  0  0
   -0.6121   -0.0949    0.0844 C   0  0  0  0  0  0  0  0  0  0  0  0
   -1.0137    1.0210    0.9795 C   0  0  0  0  0  0  0  0  0  0  0  0
   -0.7314    2.2662    0.4305 O   0  0  0  0  0  0  0  0  0  0  0  0
    0.8188   -0.0670   -0.3602 C   0  0  0  0  0  0  0  0  0  0  0  0
    1.8082   -0.2840    0.7450 C   0  0  0  0  0  0  0  0  0  0  0  0
    1.1745    1.2373   -1.0453 C   0  0  0  0  0  0  0  0  0  0  0  0
    1.0467   -1.0704   -1.3174 O   0  0  0  0  0  0  0  0  0  0  0  0
   -2.8139   -1.4966   -0.1816 H   0  0  0  0  0  0  0  0  0  0  0  0
   -2.0772   -2.9911    0.4215 H   0  0  0  0  0  0  0  0  0  0  0  0
   -1.4984   -2.2267   -1.1342 H   0  0  0  0  0  0  0  0  0  0  0  0
   -1.2384   -0.0139   -0.8308 H   0  0  0  0  0  0  0  0  0  0  0  0
   -0.6070    0.9708    2.0024 H   0  0  0  0  0  0  0  0  0  0  0  0
   -2.1347    0.9798    1.0726 H   0  0  0  0  0  0  0  0  0  0  0  0
   -1.4790    2.9176    0.6022 H   0  0  0  0  0  0  0  0  0  0  0  0
    1.5875   -1.1633    1.3769 H   0  0  0  0  0  0  0  0  0  0  0  0
    1.9798    0.6337    1.3223 H   0  0  0  0  0  0  0  0  0  0  0  0
    2.7936   -0.5209    0.2452 H   0  0  0  0  0  0  0  0  0  0  0  0
    2.0059    1.0257   -1.7484 H   0  0  0  0  0  0  0  0  0  0  0  0
    1.4731    1.9400   -0.2423 H   0  0  0  0  0  0  0  0  0  0  0  0
    0.2573    1.5748   -1.5676 H   0  0  0  0  0  0  0  0  0  0  0  0
    2.0147   -1.2621   -1.4027 H   0  0  0  0  0  0  0  0  0  0  0  0
  1  2  1  0
  2  3  1  0
  3  4  1  0
  4  5  1  0
  3  6  1  0
  6  7  1  0
  6  8  1  0
  6  9  1  0
  1 10  1  0
  1 11  1  0
  1 12  1  0
  3 13  1  0
  4 14  1  0
  4 15  1  0
  5 16  1  0
  7 17  1  0
  7 18  1  0
  7 19  1  0
  8 20  1  0
  8 21  1  0
  8 22  1  0
  9 23  1  0
M  END
