
     RDKit          3D

 23 22  0  0  0  0  0  0  0  0999 V2000
    2.0533   -1.1363   -0.1335 C   0  0  0  0  0  0  0  0  0  0  0  0
    1.3663   -0.1041   -0.7652 O   0  0  0  0  0  0  0  0  0  0  0  0
    0.8526    0.8160    0.1398 C   0  0  0  0  0  0  0  0  0  0  0  0
    1.6425    2.0881   -0.0810 C   0  0  0  0  0  0  0  0  0  0  0  0
    2.5218    2.1895   -0.8996 O   0  0  0  0  0  0  0  0  0  0  0  0
   -0.5626    1.1424   -0.1082 C   0  0  0  0  0  0  0  0  0  0  0  0
   -1.5424    0.0308   -0.0506 C   0  0  0  0  0  0  0  0  0  0  0  0
   -1.2305   -1.0414   -1.0722 C   0  0  0  0  0  0  0  0  0  0  0  0
   -1.6713   -0.6404    1.2836 C   0  0  0  0  0  0  0  0  0  0  0  0
    2.9197   -0.7447    0.4655 H   0  0  0  0  0  0  0  0  0  0  0  0
    1.4192   -1.7719    0.5008 H   0  0  0  0  0  0  0  0  0  0  0  0
    2.4999   -1.7863   -0.9096 H   0  0  0  0  0  0  0  0  0  0  0  0
    1.1038    0.5167    1.1745 H   0  0  0  0  0  0  0  0  0  0  0  0
    1.4183    2.9672    0.5220 H   0  0  0  0  0  0  0  0  0  0  0  0
   -0.8750    1.9312    0.6261 H   0  0  0  0  0  0  0  0  0  0  0  0
   -0.6488    1.6258   -1.1038 H   0  0  0  0  0  0  0  0  0  0  0  0
   -2.5462    0.4269   -0.3141 H   0  0  0  0  0  0  0  0  0  0  0  0
   -0.6974   -1.9070   -0.6168 H   0  0  0  0  0  0  0  0  0  0  0  0
   -2.1700   -1.3987   -1.5364 H   0  0  0  0  0  0  0  0  0  0  0  0
   -0.6354   -0.5864   -1.9075 H   0  0  0  0  0  0  0  0  0  0  0  0
   -1.6932    0.0278    2.1395 H   0  0  0  0  0  0  0  0  0  0  0  0
   -0.8853   -1.4423    1.3609 H   0  0  0  0  0  0  0  0  0  0  0  0
   -2.6396   -1.2029    1.2857 H   0  0  0  0  0  0  0  0  0  0  0  0
  1  2  1  0
  2  3  1  0
  3  4  1  0
  4  5  2  0
  3  6  1  0
  6  7  1  0
  7  8  1  0
  7  9  1  0
  1 10  1  0
  1 11  1  0
  1 12  1  0
  3 13  1  0
  4 14  1  0
  6 15  1  0
  6 16  1  0
  7 17  1  0
  8 18  1  0
  8 19  1  0
  8 20  1  0
  9 21  1  0
  9 22  1  0
  9 23  1  0
M  END
