
     RDKit          3D

 20 20  0  0  0  0  0  0  0  0999 V2000
   -2.0257   -1.1818    0.7044 C   0  0  0  0  0  0  0  0  0  0  0  0
   -1.3744   -0.7054   -0.4017 O   0  0  0  0  0  0  0  0  0  0  0  0
   -0.7311    0.5060   -0.2154 C   0  0  0  0  0  0  0  0  0  0  0  0
   -1.3106    1.5656   -1.1657 C   0  0  0  0  0  0  0  0  0  0  0  0
    0.7342    0.4258   -0.5342 C   0  0  0  0  0  0  0  0  0  0  0  0
    1.4762   -0.5555    0.2980 C   0  0  0  0  0  0  0  0  0  0  0  0
    2.9436   -0.7506    0.1007 C   0  0  0  0  0  0  0  0  0  0  0  0
    2.4897    0.0897    1.1700 O   0  0  0  0  0  0  0  0  0  0  0  0
   -1.3997   -1.3649    1.5873 H   0  0  0  0  0  0  0  0  0  0  0  0
   -2.4596   -2.1753    0.4233 H   0  0  0  0  0  0  0  0  0  0  0  0
   -2.9263   -0.5592    0.9774 H   0  0  0  0  0  0  0  0  0  0  0  0
   -0.9013    0.8167    0.8452 H   0  0  0  0  0  0  0  0  0  0  0  0
   -0.6064    2.4404   -1.0731 H   0  0  0  0  0  0  0  0  0  0  0  0
   -2.3243    1.8536   -0.8847 H   0  0  0  0  0  0  0  0  0  0  0  0
   -1.2183    1.1639   -2.1883 H   0  0  0  0  0  0  0  0  0  0  0  0
    0.8130    0.1188   -1.6051 H   0  0  0  0  0  0  0  0  0  0  0  0
    1.1447    1.4468   -0.3951 H   0  0  0  0  0  0  0  0  0  0  0  0
    0.9057   -1.2524    0.9522 H   0  0  0  0  0  0  0  0  0  0  0  0
    3.3542   -0.1996   -0.7808 H   0  0  0  0  0  0  0  0  0  0  0  0
    3.4165   -1.6829    0.4204 H   0  0  0  0  0  0  0  0  0  0  0  0
  1  2  1  0
  2  3  1  0
  3  4  1  0
  3  5  1  0
  5  6  1  0
  6  7  1  0
  7  8  1  0
  8  6  1  0
  1  9  1  0
  1 10  1  0
  1 11  1  0
  3 12  1  0
  4 13  1  0
  4 14  1  0
  4 15  1  0
  5 16  1  0
  5 17  1  0
  6 18  1  0
  7 19  1  0
  7 20  1  0
M  END
