
     RDKit          3D

 19 19  0  0  0  0  0  0  0  0999 V2000
   -0.0384    2.1933    0.7797 C   0  0  0  0  0  0  0  0  0  0  0  0
   -0.1046    0.7830    0.8525 O   0  0  0  0  0  0  0  0  0  0  0  0
   -0.1883    0.2178   -0.4167 C   0  0  0  0  0  0  0  0  0  0  0  0
   -1.4576   -0.5304   -0.6387 C   0  0  0  0  0  0  0  0  0  0  0  0
   -1.6711   -1.6480    0.2886 C   0  0  0  0  0  0  0  0  0  0  0  0
   -0.9185   -1.9894    1.1840 O   0  0  0  0  0  0  0  0  0  0  0  0
    1.0364   -0.6213   -0.7178 C   0  0  0  0  0  0  0  0  0  0  0  0
    2.0723   -0.7880    0.3165 C   0  0  0  0  0  0  0  0  0  0  0  0
    2.2918    0.1510   -0.6793 O   0  0  0  0  0  0  0  0  0  0  0  0
   -0.9986    2.4833    0.2602 H   0  0  0  0  0  0  0  0  0  0  0  0
    0.8233    2.4885    0.1487 H   0  0  0  0  0  0  0  0  0  0  0  0
   -0.0391    2.6429    1.7806 H   0  0  0  0  0  0  0  0  0  0  0  0
   -0.1783    1.0687   -1.1434 H   0  0  0  0  0  0  0  0  0  0  0  0
   -2.3066    0.1774   -0.5917 H   0  0  0  0  0  0  0  0  0  0  0  0
   -1.4435   -0.9363   -1.6669 H   0  0  0  0  0  0  0  0  0  0  0  0
   -2.5792   -2.2292    0.1743 H   0  0  0  0  0  0  0  0  0  0  0  0
    1.0108   -1.3565   -1.5222 H   0  0  0  0  0  0  0  0  0  0  0  0
    1.9485   -0.4352    1.3533 H   0  0  0  0  0  0  0  0  0  0  0  0
    2.7409   -1.6717    0.2384 H   0  0  0  0  0  0  0  0  0  0  0  0
  1  2  1  0
  2  3  1  0
  3  4  1  0
  4  5  1  0
  5  6  2  0
  3  7  1  0
  7  8  1  0
  8  9  1  0
  9  7  1  0
  1 10  1  0
  1 11  1  0
  1 12  1  0
  3 13  1  0
  4 14  1  0
  4 15  1  0
  5 16  1  0
  7 17  1  0
  8 18  1  0
  8 19  1  0
M  END
