
     RDKit          3D

 21 20  0  0  0  0  0  0  0  0999 V2000
   -1.8547    1.9307    0.2464 C   0  0  0  0  0  0  0  0  0  0  0  0
   -0.7377    1.1889    0.6084 O   0  0  0  0  0  0  0  0  0  0  0  0
   -0.6297    0.0747   -0.2230 C   0  0  0  0  0  0  0  0  0  0  0  0
   -0.8607   -1.2306    0.4385 C   0  0  0  0  0  0  0  0  0  0  0  0
   -0.0735   -1.5566    1.5015 O   0  0  0  0  0  0  0  0  0  0  0  0
    0.5676    0.1289   -1.1184 C   0  0  0  0  0  0  0  0  0  0  0  0
    1.8933    0.2241   -0.4748 C   0  0  0  0  0  0  0  0  0  0  0  0
    2.3230   -0.8634    0.3957 C   0  0  0  0  0  0  0  0  0  0  0  0
    2.8251   -0.6635    1.4987 O   0  0  0  0  0  0  0  0  0  0  0  0
   -2.0070    2.8224    0.8518 H   0  0  0  0  0  0  0  0  0  0  0  0
   -1.8122    2.1287   -0.8427 H   0  0  0  0  0  0  0  0  0  0  0  0
   -2.7378    1.2503    0.3899 H   0  0  0  0  0  0  0  0  0  0  0  0
   -1.5416    0.1434   -0.9626 H   0  0  0  0  0  0  0  0  0  0  0  0
   -1.9434   -1.3223    0.6921 H   0  0  0  0  0  0  0  0  0  0  0  0
   -0.6734   -2.0208   -0.3539 H   0  0  0  0  0  0  0  0  0  0  0  0
   -0.5669   -2.2050    2.0708 H   0  0  0  0  0  0  0  0  0  0  0  0
    0.5265   -0.7523   -1.8140 H   0  0  0  0  0  0  0  0  0  0  0  0
    0.4733    1.0453   -1.7897 H   0  0  0  0  0  0  0  0  0  0  0  0
    1.9263    1.2176    0.0793 H   0  0  0  0  0  0  0  0  0  0  0  0
    2.6993    0.3438   -1.2692 H   0  0  0  0  0  0  0  0  0  0  0  0
    2.2041   -1.8841    0.0753 H   0  0  0  0  0  0  0  0  0  0  0  0
  1  2  1  0
  2  3  1  0
  3  4  1  0
  4  5  1  0
  3  6  1  0
  6  7  1  0
  7  8  1  0
  8  9  2  0
  1 10  1  0
  1 11  1  0
  1 12  1  0
  3 13  1  0
  4 14  1  0
  4 15  1  0
  5 16  1  0
  6 17  1  0
  6 18  1  0
  7 19  1  0
  7 20  1  0
  8 21  1  0
M  END
