
     RDKit          3D

 20 20  0  0  0  0  0  0  0  0999 V2000
    1.9768   -0.3454   -1.4025 C   0  0  0  0  0  0  0  0  0  0  0  0
    1.0215    0.5355   -0.9444 O   0  0  0  0  0  0  0  0  0  0  0  0
    0.5047    0.2140    0.2926 C   0  0  0  0  0  0  0  0  0  0  0  0
    0.7677    1.3626    1.2484 C   0  0  0  0  0  0  0  0  0  0  0  0
   -0.9906   -0.0231    0.1425 C   0  0  0  0  0  0  0  0  0  0  0  0
   -1.6170   -0.9669    1.1479 C   0  0  0  0  0  0  0  0  0  0  0  0
   -1.5168   -0.1409   -1.2393 C   0  0  0  0  0  0  0  0  0  0  0  0
   -1.7912    1.0021   -0.3266 O   0  0  0  0  0  0  0  0  0  0  0  0
    2.8574   -0.4321   -0.7536 H   0  0  0  0  0  0  0  0  0  0  0  0
    2.3385    0.0392   -2.3806 H   0  0  0  0  0  0  0  0  0  0  0  0
    1.5300   -1.3555   -1.6246 H   0  0  0  0  0  0  0  0  0  0  0  0
    0.9236   -0.6953    0.7402 H   0  0  0  0  0  0  0  0  0  0  0  0
    1.8896    1.4362    1.3229 H   0  0  0  0  0  0  0  0  0  0  0  0
    0.3629    2.3191    0.8735 H   0  0  0  0  0  0  0  0  0  0  0  0
    0.3489    1.1631    2.2558 H   0  0  0  0  0  0  0  0  0  0  0  0
   -1.6220   -2.0066    0.7198 H   0  0  0  0  0  0  0  0  0  0  0  0
   -0.9926   -0.8967    2.0600 H   0  0  0  0  0  0  0  0  0  0  0  0
   -2.6667   -0.7033    1.3766 H   0  0  0  0  0  0  0  0  0  0  0  0
   -2.4047   -0.7537   -1.4147 H   0  0  0  0  0  0  0  0  0  0  0  0
   -0.9199    0.2477   -2.0937 H   0  0  0  0  0  0  0  0  0  0  0  0
  1  2  1  0
  2  3  1  0
  3  4  1  0
  3  5  1  0
  5  6  1  0
  5  7  1  0
  7  8  1  0
  8  5  1  0
  1  9  1  0
  1 10  1  0
  1 11  1  0
  3 12  1  0
  4 13  1  0
  4 14  1  0
  4 15  1  0
  6 16  1  0
  6 17  1  0
  6 18  1  0
  7 19  1  0
  7 20  1  0
M  END
