
     RDKit          3D

 23 23  0  0  0  0  0  0  0  0999 V2000
    2.0027    0.7054    1.0407 C   0  0  0  0  0  0  0  0  0  0  0  0
    1.7479    0.0345   -0.1165 O   0  0  0  0  0  0  0  0  0  0  0  0
    0.4665   -0.3731   -0.3213 C   0  0  0  0  0  0  0  0  0  0  0  0
    0.0592   -1.3027    0.7898 C   0  0  0  0  0  0  0  0  0  0  0  0
    0.4686   -1.2007   -1.6100 C   0  0  0  0  0  0  0  0  0  0  0  0
   -0.5268    0.7400   -0.5096 C   0  0  0  0  0  0  0  0  0  0  0  0
   -1.9373    0.3180   -0.7360 C   0  0  0  0  0  0  0  0  0  0  0  0
   -2.4039    0.9104    0.4127 O   0  0  0  0  0  0  0  0  0  0  0  0
   -1.1004    1.3435    0.7306 C   0  0  0  0  0  0  0  0  0  0  0  0
    1.4047    1.6564    1.1408 H   0  0  0  0  0  0  0  0  0  0  0  0
    1.9673    0.0919    1.9572 H   0  0  0  0  0  0  0  0  0  0  0  0
    3.0698    1.0746    0.9791 H   0  0  0  0  0  0  0  0  0  0  0  0
   -0.9551   -1.7310    0.6292 H   0  0  0  0  0  0  0  0  0  0  0  0
    0.1703   -0.8592    1.7993 H   0  0  0  0  0  0  0  0  0  0  0  0
    0.7556   -2.1877    0.7300 H   0  0  0  0  0  0  0  0  0  0  0  0
   -0.3243   -1.9442   -1.6316 H   0  0  0  0  0  0  0  0  0  0  0  0
    0.4425   -0.4661   -2.4388 H   0  0  0  0  0  0  0  0  0  0  0  0
    1.4411   -1.7344   -1.6629 H   0  0  0  0  0  0  0  0  0  0  0  0
   -0.2323    1.5312   -1.2229 H   0  0  0  0  0  0  0  0  0  0  0  0
   -2.1482   -0.7657   -0.7411 H   0  0  0  0  0  0  0  0  0  0  0  0
   -2.4229    0.7619   -1.6539 H   0  0  0  0  0  0  0  0  0  0  0  0
   -0.8132    0.9244    1.6916 H   0  0  0  0  0  0  0  0  0  0  0  0
   -1.1322    2.4725    0.7434 H   0  0  0  0  0  0  0  0  0  0  0  0
  1  2  1  0
  2  3  1  0
  3  4  1  0
  3  5  1  0
  3  6  1  0
  6  7  1  0
  7  8  1  0
  8  9  1  0
  9  6  1  0
  1 10  1  0
  1 11  1  0
  1 12  1  0
  4 13  1  0
  4 14  1  0
  4 15  1  0
  5 16  1  0
  5 17  1  0
  5 18  1  0
  6 19  1  0
  7 20  1  0
  7 21  1  0
  9 22  1  0
  9 23  1  0
M  END
