
     RDKit          3D

 17 16  0  0  0  0  0  0  0  0999 V2000
    3.0063    0.2209   -0.5926 C   0  0  0  0  0  0  0  0  0  0  0  0
    1.7784    0.0530    0.1218 O   0  0  0  0  0  0  0  0  0  0  0  0
    0.7421   -0.6148   -0.4816 C   0  0  0  0  0  0  0  0  0  0  0  0
    0.9056   -1.0530   -1.6331 O   0  0  0  0  0  0  0  0  0  0  0  0
   -0.5279   -0.8003    0.2303 C   0  0  0  0  0  0  0  0  0  0  0  0
   -1.4037   -1.4901   -0.5675 O   0  0  0  0  0  0  0  0  0  0  0  0
   -1.0556    0.5768    0.5401 C   0  0  0  0  0  0  0  0  0  0  0  0
   -2.3671    0.9727   -0.0240 C   0  0  0  0  0  0  0  0  0  0  0  0
   -0.4204    1.3360    1.2325 O   0  0  0  0  0  0  0  0  0  0  0  0
    3.3460    1.2937   -0.5371 H   0  0  0  0  0  0  0  0  0  0  0  0
    2.9223   -0.1229   -1.6422 H   0  0  0  0  0  0  0  0  0  0  0  0
    3.7510   -0.4092   -0.0699 H   0  0  0  0  0  0  0  0  0  0  0  0
   -0.4212   -1.3514    1.1894 H   0  0  0  0  0  0  0  0  0  0  0  0
   -2.1689   -1.8897   -0.1216 H   0  0  0  0  0  0  0  0  0  0  0  0
   -2.3770    2.0714   -0.2802 H   0  0  0  0  0  0  0  0  0  0  0  0
   -2.5237    0.4114   -0.9704 H   0  0  0  0  0  0  0  0  0  0  0  0
   -3.1863    0.7955    0.6952 H   0  0  0  0  0  0  0  0  0  0  0  0
  1  2  1  0
  2  3  1  0
  3  4  2  0
  3  5  1  0
  5  6  1  0
  5  7  1  0
  7  8  1  0
  7  9  2  0
  1 10  1  0
  1 11  1  0
  1 12  1  0
  5 13  1  0
  6 14  1  0
  8 15  1  0
  8 16  1  0
  8 17  1  0
M  END
