
     RDKit          3D

 19 18  0  0  0  0  0  0  0  0999 V2000
    2.2131    0.2733    0.7002 C   0  0  0  0  0  0  0  0  0  0  0  0
    0.8401    0.4622    0.8947 O   0  0  0  0  0  0  0  0  0  0  0  0
    0.1648    0.3605   -0.3106 C   0  0  0  0  0  0  0  0  0  0  0  0
   -0.4914    1.6804   -0.6452 C   0  0  0  0  0  0  0  0  0  0  0  0
   -0.9010   -0.7151   -0.2735 C   0  0  0  0  0  0  0  0  0  0  0  0
   -1.8804   -0.3891    0.7845 C   0  0  0  0  0  0  0  0  0  0  0  0
   -3.0056   -0.8333    0.7642 O   0  0  0  0  0  0  0  0  0  0  0  0
   -0.3157   -2.0545    0.0094 C   0  0  0  0  0  0  0  0  0  0  0  0
   -0.6562   -2.7474    0.9547 O   0  0  0  0  0  0  0  0  0  0  0  0
    2.5717    1.0743   -0.0118 H   0  0  0  0  0  0  0  0  0  0  0  0
    2.7625    0.3891    1.6359 H   0  0  0  0  0  0  0  0  0  0  0  0
    2.4269   -0.7057    0.2558 H   0  0  0  0  0  0  0  0  0  0  0  0
    0.8820    0.1521   -1.1463 H   0  0  0  0  0  0  0  0  0  0  0  0
   -1.3224    1.4781   -1.3328 H   0  0  0  0  0  0  0  0  0  0  0  0
   -0.9100    2.1650    0.2731 H   0  0  0  0  0  0  0  0  0  0  0  0
    0.2012    2.3753   -1.1707 H   0  0  0  0  0  0  0  0  0  0  0  0
   -1.4379   -0.7653   -1.2278 H   0  0  0  0  0  0  0  0  0  0  0  0
   -1.5941    0.2577    1.5957 H   0  0  0  0  0  0  0  0  0  0  0  0
    0.4525   -2.4576   -0.6407 H   0  0  0  0  0  0  0  0  0  0  0  0
  1  2  1  0
  2  3  1  0
  3  4  1  0
  3  5  1  0
  5  6  1  0
  6  7  2  0
  5  8  1  0
  8  9  2  0
  1 10  1  0
  1 11  1  0
  1 12  1  0
  3 13  1  0
  4 14  1  0
  4 15  1  0
  4 16  1  0
  5 17  1  0
  6 18  1  0
  8 19  1  0
M  END
