
     RDKit          3D

 22 22  0  0  0  0  0  0  0  0999 V2000
   -1.7109    1.2250    1.0533 C   0  0  0  0  0  0  0  0  0  0  0  0
   -0.7291    0.9967    0.1228 O   0  0  0  0  0  0  0  0  0  0  0  0
   -0.8380   -0.1828   -0.5556 C   0  0  0  0  0  0  0  0  0  0  0  0
   -1.0493    0.1166   -2.0346 C   0  0  0  0  0  0  0  0  0  0  0  0
    0.3681   -1.0739   -0.4560 C   0  0  0  0  0  0  0  0  0  0  0  0
    0.8402   -1.5714    0.8793 C   0  0  0  0  0  0  0  0  0  0  0  0
    1.6676   -0.5967    0.0388 C   0  0  0  0  0  0  0  0  0  0  0  0
    1.8612    0.7321    0.6937 C   0  0  0  0  0  0  0  0  0  0  0  0
   -1.7807    0.4853    1.8526 H   0  0  0  0  0  0  0  0  0  0  0  0
   -1.4564    2.2024    1.5587 H   0  0  0  0  0  0  0  0  0  0  0  0
   -2.6794    1.4258    0.5355 H   0  0  0  0  0  0  0  0  0  0  0  0
   -1.7253   -0.7385   -0.2090 H   0  0  0  0  0  0  0  0  0  0  0  0
   -2.0978    0.3734   -2.2581 H   0  0  0  0  0  0  0  0  0  0  0  0
   -0.8138   -0.8184   -2.5830 H   0  0  0  0  0  0  0  0  0  0  0  0
   -0.3236    0.8746   -2.3538 H   0  0  0  0  0  0  0  0  0  0  0  0
    0.4078   -1.8488   -1.2548 H   0  0  0  0  0  0  0  0  0  0  0  0
    1.2579   -2.6090    0.9570 H   0  0  0  0  0  0  0  0  0  0  0  0
    0.3796   -1.2202    1.8012 H   0  0  0  0  0  0  0  0  0  0  0  0
    2.5992   -1.0053   -0.4381 H   0  0  0  0  0  0  0  0  0  0  0  0
    1.1792    0.8811    1.5601 H   0  0  0  0  0  0  0  0  0  0  0  0
    2.8901    0.7633    1.1136 H   0  0  0  0  0  0  0  0  0  0  0  0
    1.7535    1.5888   -0.0234 H   0  0  0  0  0  0  0  0  0  0  0  0
  1  2  1  0
  2  3  1  0
  3  4  1  0
  3  5  1  0
  5  6  1  0
  6  7  1  0
  7  8  1  0
  7  5  1  0
  1  9  1  0
  1 10  1  0
  1 11  1  0
  3 12  1  0
  4 13  1  0
  4 14  1  0
  4 15  1  0
  5 16  1  0
  6 17  1  0
  6 18  1  0
  7 19  1  0
  8 20  1  0
  8 21  1  0
  8 22  1  0
M  END
