
     RDKit          3D

 23 22  0  0  0  0  0  0  0  0999 V2000
    0.2037    2.1968   -0.3717 C   0  0  0  0  0  0  0  0  0  0  0  0
   -0.0037    1.0608    0.3791 O   0  0  0  0  0  0  0  0  0  0  0  0
   -0.1015   -0.0981   -0.3418 C   0  0  0  0  0  0  0  0  0  0  0  0
    0.9558   -1.0597    0.1896 C   0  0  0  0  0  0  0  0  0  0  0  0
    2.3428   -0.5039    0.0470 C   0  0  0  0  0  0  0  0  0  0  0  0
    3.2276   -1.4477    0.5562 O   0  0  0  0  0  0  0  0  0  0  0  0
   -1.4363   -0.7396    0.0111 C   0  0  0  0  0  0  0  0  0  0  0  0
   -2.6085    0.0477   -0.4453 C   0  0  0  0  0  0  0  0  0  0  0  0
   -1.4368   -0.9938    1.3855 O   0  0  0  0  0  0  0  0  0  0  0  0
    1.1335    2.1758   -0.9736 H   0  0  0  0  0  0  0  0  0  0  0  0
   -0.6245    2.4102   -1.0703 H   0  0  0  0  0  0  0  0  0  0  0  0
    0.2639    3.0529    0.3514 H   0  0  0  0  0  0  0  0  0  0  0  0
   -0.0007    0.0333   -1.4369 H   0  0  0  0  0  0  0  0  0  0  0  0
    0.7039   -1.2600    1.2344 H   0  0  0  0  0  0  0  0  0  0  0  0
    0.8714   -1.9762   -0.4292 H   0  0  0  0  0  0  0  0  0  0  0  0
    2.5792   -0.3529   -1.0154 H   0  0  0  0  0  0  0  0  0  0  0  0
    2.5127    0.4292    0.5781 H   0  0  0  0  0  0  0  0  0  0  0  0
    3.0980   -1.6519    1.5005 H   0  0  0  0  0  0  0  0  0  0  0  0
   -1.4119   -1.7558   -0.4765 H   0  0  0  0  0  0  0  0  0  0  0  0
   -3.1179    0.4599    0.4749 H   0  0  0  0  0  0  0  0  0  0  0  0
   -2.4096    0.8116   -1.1996 H   0  0  0  0  0  0  0  0  0  0  0  0
   -3.3640   -0.6853   -0.8574 H   0  0  0  0  0  0  0  0  0  0  0  0
   -1.3771   -0.1532    1.9098 H   0  0  0  0  0  0  0  0  0  0  0  0
  1  2  1  0
  2  3  1  0
  3  4  1  0
  4  5  1  0
  5  6  1  0
  3  7  1  0
  7  8  1  0
  7  9  1  0
  1 10  1  0
  1 11  1  0
  1 12  1  0
  3 13  1  0
  4 14  1  0
  4 15  1  0
  5 16  1  0
  5 17  1  0
  6 18  1  0
  7 19  1  0
  8 20  1  0
  8 21  1  0
  8 22  1  0
  9 23  1  0
M  END
