
     RDKit          3D

 23 23  0  0  0  0  0  0  0  0999 V2000
   -2.8701   -0.2182   -0.2469 C   0  0  0  0  0  0  0  0  0  0  0  0
   -1.6898    0.3628   -0.7109 O   0  0  0  0  0  0  0  0  0  0  0  0
   -0.6707    0.2619    0.2599 C   0  0  0  0  0  0  0  0  0  0  0  0
   -0.3281    1.6949    0.6009 C   0  0  0  0  0  0  0  0  0  0  0  0
    0.4470   -0.5344   -0.3001 C   0  0  0  0  0  0  0  0  0  0  0  0
    0.0556   -2.0214   -0.4742 C   0  0  0  0  0  0  0  0  0  0  0  0
    1.0058    0.0677   -1.4530 O   0  0  0  0  0  0  0  0  0  0  0  0
    1.8366   -0.2360   -0.3731 C   0  0  0  0  0  0  0  0  0  0  0  0
    2.5934    0.8255    0.3531 C   0  0  0  0  0  0  0  0  0  0  0  0
   -3.2574    0.2503    0.6702 H   0  0  0  0  0  0  0  0  0  0  0  0
   -2.6591   -1.2910    0.0339 H   0  0  0  0  0  0  0  0  0  0  0  0
   -3.5995   -0.2566   -1.0807 H   0  0  0  0  0  0  0  0  0  0  0  0
   -1.0538   -0.2604    1.1698 H   0  0  0  0  0  0  0  0  0  0  0  0
   -1.2390    2.2743    0.8716 H   0  0  0  0  0  0  0  0  0  0  0  0
    0.0591    2.1457   -0.3513 H   0  0  0  0  0  0  0  0  0  0  0  0
    0.3975    1.7981    1.4193 H   0  0  0  0  0  0  0  0  0  0  0  0
   -0.7580   -2.0816   -1.2007 H   0  0  0  0  0  0  0  0  0  0  0  0
    0.9428   -2.6117   -0.7679 H   0  0  0  0  0  0  0  0  0  0  0  0
   -0.3171   -2.3502    0.5201 H   0  0  0  0  0  0  0  0  0  0  0  0
    2.5177   -1.0998   -0.6652 H   0  0  0  0  0  0  0  0  0  0  0  0
    2.3724    1.8553    0.0793 H   0  0  0  0  0  0  0  0  0  0  0  0
    3.7116    0.7268    0.1801 H   0  0  0  0  0  0  0  0  0  0  0  0
    2.5027    0.6978    1.4659 H   0  0  0  0  0  0  0  0  0  0  0  0
  1  2  1  0
  2  3  1  0
  3  4  1  0
  3  5  1  0
  5  6  1  0
  5  7  1  0
  7  8  1  0
  8  9  1  0
  8  5  1  0
  1 10  1  0
  1 11  1  0
  1 12  1  0
  3 13  1  0
  4 14  1  0
  4 15  1  0
  4 16  1  0
  6 17  1  0
  6 18  1  0
  6 19  1  0
  8 20  1  0
  9 21  1  0
  9 22  1  0
  9 23  1  0
M  END
