
     RDKit          3D

 23 23  0  0  0  0  0  0  0  0999 V2000
    2.0378    1.1344   -1.2362 C   0  0  0  0  0  0  0  0  0  0  0  0
    1.2230    0.0063   -1.2281 O   0  0  0  0  0  0  0  0  0  0  0  0
    0.7390   -0.2073    0.0346 C   0  0  0  0  0  0  0  0  0  0  0  0
    1.3507   -1.5176    0.5413 C   0  0  0  0  0  0  0  0  0  0  0  0
   -0.7637   -0.2486    0.1117 C   0  0  0  0  0  0  0  0  0  0  0  0
   -1.4160   -1.2272   -0.8334 C   0  0  0  0  0  0  0  0  0  0  0  0
   -1.4624    1.0620    0.1265 C   0  0  0  0  0  0  0  0  0  0  0  0
   -1.5274    0.8686    1.6064 C   0  0  0  0  0  0  0  0  0  0  0  0
   -1.1833   -0.4697    1.4255 O   0  0  0  0  0  0  0  0  0  0  0  0
    1.4495    2.0186   -0.9147 H   0  0  0  0  0  0  0  0  0  0  0  0
    2.9190    1.0059   -0.5664 H   0  0  0  0  0  0  0  0  0  0  0  0
    2.4745    1.2983   -2.2584 H   0  0  0  0  0  0  0  0  0  0  0  0
    1.1289    0.5781    0.7076 H   0  0  0  0  0  0  0  0  0  0  0  0
    0.9810   -2.3479   -0.0712 H   0  0  0  0  0  0  0  0  0  0  0  0
    2.4484   -1.3888    0.4293 H   0  0  0  0  0  0  0  0  0  0  0  0
    1.1540   -1.6414    1.6230 H   0  0  0  0  0  0  0  0  0  0  0  0
   -1.3504   -2.2745   -0.4595 H   0  0  0  0  0  0  0  0  0  0  0  0
   -2.5113   -0.9889   -0.8709 H   0  0  0  0  0  0  0  0  0  0  0  0
   -0.9680   -1.1018   -1.8284 H   0  0  0  0  0  0  0  0  0  0  0  0
   -0.9003    1.9369   -0.2414 H   0  0  0  0  0  0  0  0  0  0  0  0
   -2.4939    1.0164   -0.3049 H   0  0  0  0  0  0  0  0  0  0  0  0
   -0.7821    1.4695    2.1644 H   0  0  0  0  0  0  0  0  0  0  0  0
   -2.5468    1.0189    2.0432 H   0  0  0  0  0  0  0  0  0  0  0  0
  1  2  1  0
  2  3  1  0
  3  4  1  0
  3  5  1  0
  5  6  1  0
  5  7  1  0
  7  8  1  0
  8  9  1  0
  9  5  1  0
  1 10  1  0
  1 11  1  0
  1 12  1  0
  3 13  1  0
  4 14  1  0
  4 15  1  0
  4 16  1  0
  6 17  1  0
  6 18  1  0
  6 19  1  0
  7 20  1  0
  7 21  1  0
  8 22  1  0
  8 23  1  0
M  END
