
     RDKit          3D

 10  9  0  0  0  0  0  0  0  0999 V2000
   -1.6697    0.4284   -0.0765 C   0  0  0  0  0  0  0  0  0  0  0  0
   -0.2738    0.5847   -0.1922 O   0  0  0  0  0  0  0  0  0  0  0  0
    0.6368   -0.4061    0.1124 C   0  0  0  0  0  0  0  0  0  0  0  0
    0.1703   -1.5083    0.5162 O   0  0  0  0  0  0  0  0  0  0  0  0
    2.0710   -0.2171   -0.0164 C   0  0  0  0  0  0  0  0  0  0  0  0
    2.5342    0.8735   -0.4161 O   0  0  0  0  0  0  0  0  0  0  0  0
   -2.0781    1.4060    0.2711 H   0  0  0  0  0  0  0  0  0  0  0  0
   -2.1636    0.1774   -1.0255 H   0  0  0  0  0  0  0  0  0  0  0  0
   -1.9673   -0.3202    0.6659 H   0  0  0  0  0  0  0  0  0  0  0  0
    2.7403   -1.0183    0.2329 H   0  0  0  0  0  0  0  0  0  0  0  0
  1  2  1  0
  2  3  1  0
  3  4  2  0
  3  5  1  0
  5  6  2  0
  1  7  1  0
  1  8  1  0
  1  9  1  0
  5 10  1  0
M  END
