
     RDKit          3D

 16 16  0  0  0  0  0  0  0  0999 V2000
    3.0738   -0.0597    0.1748 C   0  0  0  0  0  0  0  0  0  0  0  0
    1.9195    0.0161   -0.6539 O   0  0  0  0  0  0  0  0  0  0  0  0
    0.6383   -0.1497   -0.1650 C   0  0  0  0  0  0  0  0  0  0  0  0
    0.4874   -0.3761    1.0590 O   0  0  0  0  0  0  0  0  0  0  0  0
   -0.5174   -0.0612   -1.0662 C   0  0  0  0  0  0  0  0  0  0  0  0
   -1.4551   -1.1793   -0.9523 O   0  0  0  0  0  0  0  0  0  0  0  0
   -1.8681    0.1991   -0.5938 C   0  0  0  0  0  0  0  0  0  0  0  0
   -2.2558    0.2631    0.8440 C   0  0  0  0  0  0  0  0  0  0  0  0
    3.9355   -0.5049   -0.3789 H   0  0  0  0  0  0  0  0  0  0  0  0
    3.3965    0.9408    0.5199 H   0  0  0  0  0  0  0  0  0  0  0  0
    2.7687   -0.7103    1.0429 H   0  0  0  0  0  0  0  0  0  0  0  0
   -0.3026    0.1403   -2.1279 H   0  0  0  0  0  0  0  0  0  0  0  0
   -2.6008    0.6090   -1.2992 H   0  0  0  0  0  0  0  0  0  0  0  0
   -1.8120   -0.5489    1.4484 H   0  0  0  0  0  0  0  0  0  0  0  0
   -2.0306    1.2760    1.2547 H   0  0  0  0  0  0  0  0  0  0  0  0
   -3.3773    0.1456    0.8936 H   0  0  0  0  0  0  0  0  0  0  0  0
  1  2  1  0
  2  3  1  0
  3  4  2  0
  3  5  1  0
  5  6  1  0
  6  7  1  0
  7  8  1  0
  7  5  1  0
  1  9  1  0
  1 10  1  0
  1 11  1  0
  5 12  1  0
  7 13  1  0
  8 14  1  0
  8 15  1  0
  8 16  1  0
M  END
