
     RDKit          3D

 18 17  0  0  0  0  0  0  0  0999 V2000
    3.2724    0.4531   -0.2996 C   0  0  0  0  0  0  0  0  0  0  0  0
    1.9183    0.8004   -0.2355 O   0  0  0  0  0  0  0  0  0  0  0  0
    0.9573   -0.0269   -0.7887 C   0  0  0  0  0  0  0  0  0  0  0  0
    1.3517   -1.0802   -1.3382 O   0  0  0  0  0  0  0  0  0  0  0  0
   -0.4598    0.3930   -0.6901 C   0  0  0  0  0  0  0  0  0  0  0  0
   -1.1745   -0.3377    0.4370 C   0  0  0  0  0  0  0  0  0  0  0  0
   -2.5997    0.1143    0.5027 C   0  0  0  0  0  0  0  0  0  0  0  0
   -1.1572   -1.7111    0.2494 O   0  0  0  0  0  0  0  0  0  0  0  0
    3.7067    0.6586    0.7128 H   0  0  0  0  0  0  0  0  0  0  0  0
    3.7872    1.1364   -1.0114 H   0  0  0  0  0  0  0  0  0  0  0  0
    3.4535   -0.6095   -0.5186 H   0  0  0  0  0  0  0  0  0  0  0  0
   -1.0192    0.1367   -1.6292 H   0  0  0  0  0  0  0  0  0  0  0  0
   -0.5553    1.4807   -0.4994 H   0  0  0  0  0  0  0  0  0  0  0  0
   -0.6293   -0.0698    1.3728 H   0  0  0  0  0  0  0  0  0  0  0  0
   -2.9237    0.3766    1.5309 H   0  0  0  0  0  0  0  0  0  0  0  0
   -2.7673    1.0472   -0.1090 H   0  0  0  0  0  0  0  0  0  0  0  0
   -3.3146   -0.6670    0.1522 H   0  0  0  0  0  0  0  0  0  0  0  0
   -1.8468   -2.0946    0.8626 H   0  0  0  0  0  0  0  0  0  0  0  0
  1  2  1  0
  2  3  1  0
  3  4  2  0
  3  5  1  0
  5  6  1  0
  6  7  1  0
  6  8  1  0
  1  9  1  0
  1 10  1  0
  1 11  1  0
  5 12  1  0
  5 13  1  0
  6 14  1  0
  7 15  1  0
  7 16  1  0
  7 17  1  0
  8 18  1  0
M  END
