
     RDKit          3D

 23 22  0  0  0  0  0  0  0  0999 V2000
    1.8761    1.3444   -0.9483 C   0  0  0  0  0  0  0  0  0  0  0  0
    1.1316    0.1766   -0.8667 O   0  0  0  0  0  0  0  0  0  0  0  0
    0.7975   -0.1662    0.4250 C   0  0  0  0  0  0  0  0  0  0  0  0
    1.4170   -1.4889    0.8418 C   0  0  0  0  0  0  0  0  0  0  0  0
   -0.7070   -0.2586    0.5706 C   0  0  0  0  0  0  0  0  0  0  0  0
   -1.2495   -1.3012   -0.3626 C   0  0  0  0  0  0  0  0  0  0  0  0
   -1.0008   -1.0672   -1.6856 O   0  0  0  0  0  0  0  0  0  0  0  0
   -1.2721    1.1074    0.3353 C   0  0  0  0  0  0  0  0  0  0  0  0
   -2.6677    1.1324    0.4474 O   0  0  0  0  0  0  0  0  0  0  0  0
    2.0883    1.5251   -2.0269 H   0  0  0  0  0  0  0  0  0  0  0  0
    2.8229    1.1529   -0.3799 H   0  0  0  0  0  0  0  0  0  0  0  0
    1.3625    2.2324   -0.5606 H   0  0  0  0  0  0  0  0  0  0  0  0
    1.2202    0.6007    1.0986 H   0  0  0  0  0  0  0  0  0  0  0  0
    1.5297   -2.1112   -0.0497 H   0  0  0  0  0  0  0  0  0  0  0  0
    2.4426   -1.2932    1.2635 H   0  0  0  0  0  0  0  0  0  0  0  0
    0.7725   -2.0272    1.5685 H   0  0  0  0  0  0  0  0  0  0  0  0
   -0.9777   -0.5590    1.6034 H   0  0  0  0  0  0  0  0  0  0  0  0
   -2.3293   -1.4781   -0.1809 H   0  0  0  0  0  0  0  0  0  0  0  0
   -0.7452   -2.2655   -0.0916 H   0  0  0  0  0  0  0  0  0  0  0  0
   -1.7819   -0.6648   -2.1532 H   0  0  0  0  0  0  0  0  0  0  0  0
   -0.9405    1.5603   -0.6228 H   0  0  0  0  0  0  0  0  0  0  0  0
   -0.8877    1.7692    1.1437 H   0  0  0  0  0  0  0  0  0  0  0  0
   -2.9016    2.0797    0.6309 H   0  0  0  0  0  0  0  0  0  0  0  0
  1  2  1  0
  2  3  1  0
  3  4  1  0
  3  5  1  0
  5  6  1  0
  6  7  1  0
  5  8  1  0
  8  9  1  0
  1 10  1  0
  1 11  1  0
  1 12  1  0
  3 13  1  0
  4 14  1  0
  4 15  1  0
  4 16  1  0
  5 17  1  0
  6 18  1  0
  6 19  1  0
  7 20  1  0
  8 21  1  0
  8 22  1  0
  9 23  1  0
M  END
