
     RDKit          3D

 15 14  0  0  0  0  0  0  0  0999 V2000
    1.7966   -0.3351    0.6755 C   0  0  0  0  0  0  0  0  0  0  0  0
    0.8916   -0.7249   -0.2645 O   0  0  0  0  0  0  0  0  0  0  0  0
   -0.3251   -0.0753   -0.2530 C   0  0  0  0  0  0  0  0  0  0  0  0
   -1.0460   -0.2298    1.0339 C   0  0  0  0  0  0  0  0  0  0  0  0
   -2.1249    0.2989    1.1568 O   0  0  0  0  0  0  0  0  0  0  0  0
   -1.1887   -0.7218   -1.2856 C   0  0  0  0  0  0  0  0  0  0  0  0
   -2.3294   -0.3339   -1.4830 O   0  0  0  0  0  0  0  0  0  0  0  0
   -0.2318    1.3551   -0.6467 C   0  0  0  0  0  0  0  0  0  0  0  0
    0.7844    1.9334   -0.9600 O   0  0  0  0  0  0  0  0  0  0  0  0
    2.7159   -0.9730    0.5102 H   0  0  0  0  0  0  0  0  0  0  0  0
    1.4468   -0.4701    1.7221 H   0  0  0  0  0  0  0  0  0  0  0  0
    2.1347    0.6939    0.4680 H   0  0  0  0  0  0  0  0  0  0  0  0
   -0.6079   -0.8000    1.8272 H   0  0  0  0  0  0  0  0  0  0  0  0
   -0.7684   -1.5408   -1.8479 H   0  0  0  0  0  0  0  0  0  0  0  0
   -1.1476    1.9236   -0.6530 H   0  0  0  0  0  0  0  0  0  0  0  0
  1  2  1  0
  2  3  1  0
  3  4  1  0
  4  5  2  0
  3  6  1  0
  6  7  2  0
  3  8  1  0
  8  9  2  0
  1 10  1  0
  1 11  1  0
  1 12  1  0
  4 13  1  0
  6 14  1  0
  8 15  1  0
M  END
