
     RDKit          3D

 21 21  0  0  0  0  0  0  0  0999 V2000
    3.2384   -0.5546   -0.4657 C   0  0  0  0  0  0  0  0  0  0  0  0
    2.0786    0.2818   -0.5855 O   0  0  0  0  0  0  0  0  0  0  0  0
    0.8697   -0.1247   -0.0588 C   0  0  0  0  0  0  0  0  0  0  0  0
    0.8093   -1.2211    0.5160 O   0  0  0  0  0  0  0  0  0  0  0  0
   -0.3220    0.7144   -0.1716 C   0  0  0  0  0  0  0  0  0  0  0  0
   -0.1556    2.0677    0.4887 C   0  0  0  0  0  0  0  0  0  0  0  0
   -1.6181    0.1209    0.2079 C   0  0  0  0  0  0  0  0  0  0  0  0
   -2.0006   -1.1369   -0.6321 C   0  0  0  0  0  0  0  0  0  0  0  0
   -1.8922   -1.1435    0.8624 C   0  0  0  0  0  0  0  0  0  0  0  0
    3.3925   -0.8864    0.5753 H   0  0  0  0  0  0  0  0  0  0  0  0
    4.1060   -0.0525   -0.9118 H   0  0  0  0  0  0  0  0  0  0  0  0
    3.0731   -1.4833   -1.0709 H   0  0  0  0  0  0  0  0  0  0  0  0
   -0.4060    0.9617   -1.2784 H   0  0  0  0  0  0  0  0  0  0  0  0
   -1.1559    2.4311    0.8190 H   0  0  0  0  0  0  0  0  0  0  0  0
    0.5202    2.0226    1.3670 H   0  0  0  0  0  0  0  0  0  0  0  0
    0.2369    2.8378   -0.2072 H   0  0  0  0  0  0  0  0  0  0  0  0
   -2.4577    0.8902    0.1921 H   0  0  0  0  0  0  0  0  0  0  0  0
   -1.2044   -1.5806   -1.2517 H   0  0  0  0  0  0  0  0  0  0  0  0
   -2.9846   -1.1288   -1.1364 H   0  0  0  0  0  0  0  0  0  0  0  0
   -1.2069   -1.7953    1.3968 H   0  0  0  0  0  0  0  0  0  0  0  0
   -2.9208   -1.2207    1.3450 H   0  0  0  0  0  0  0  0  0  0  0  0
  1  2  1  0
  2  3  1  0
  3  4  2  0
  3  5  1  0
  5  6  1  0
  5  7  1  0
  7  8  1  0
  8  9  1  0
  9  7  1  0
  1 10  1  0
  1 11  1  0
  1 12  1  0
  5 13  1  0
  6 14  1  0
  6 15  1  0
  6 16  1  0
  7 17  1  0
  8 18  1  0
  8 19  1  0
  9 20  1  0
  9 21  1  0
M  END
