
     RDKit          3D

 20 20  0  0  0  0  0  0  0  0999 V2000
    2.4495    0.7747   -0.4989 C   0  0  0  0  0  0  0  0  0  0  0  0
    1.5423    0.6239    0.5228 O   0  0  0  0  0  0  0  0  0  0  0  0
    0.5246   -0.2088    0.1097 C   0  0  0  0  0  0  0  0  0  0  0  0
    0.4733   -1.4930    0.9485 C   0  0  0  0  0  0  0  0  0  0  0  0
   -0.8457    0.4177    0.2746 C   0  0  0  0  0  0  0  0  0  0  0  0
   -1.1479    0.7564    1.6032 O   0  0  0  0  0  0  0  0  0  0  0  0
   -1.5242    1.1232   -0.8005 C   0  0  0  0  0  0  0  0  0  0  0  0
   -1.9166   -0.2803   -0.5436 C   0  0  0  0  0  0  0  0  0  0  0  0
    1.9106    1.2245   -1.3795 H   0  0  0  0  0  0  0  0  0  0  0  0
    3.3272    1.3911   -0.2419 H   0  0  0  0  0  0  0  0  0  0  0  0
    2.8407   -0.2077   -0.8866 H   0  0  0  0  0  0  0  0  0  0  0  0
    0.6871   -0.5465   -0.9305 H   0  0  0  0  0  0  0  0  0  0  0  0
    1.3305   -2.1367    0.7808 H   0  0  0  0  0  0  0  0  0  0  0  0
   -0.4464   -2.0227    0.6232 H   0  0  0  0  0  0  0  0  0  0  0  0
    0.3451   -1.1521    1.9946 H   0  0  0  0  0  0  0  0  0  0  0  0
   -1.7554    0.0401    1.9542 H   0  0  0  0  0  0  0  0  0  0  0  0
   -2.2825    1.8958   -0.4801 H   0  0  0  0  0  0  0  0  0  0  0  0
   -1.0804    1.3752   -1.7754 H   0  0  0  0  0  0  0  0  0  0  0  0
   -1.6219   -1.0143   -1.3037 H   0  0  0  0  0  0  0  0  0  0  0  0
   -2.8099   -0.5605    0.0291 H   0  0  0  0  0  0  0  0  0  0  0  0
  1  2  1  0
  2  3  1  0
  3  4  1  0
  3  5  1  0
  5  6  1  0
  5  7  1  0
  7  8  1  0
  8  5  1  0
  1  9  1  0
  1 10  1  0
  1 11  1  0
  3 12  1  0
  4 13  1  0
  4 14  1  0
  4 15  1  0
  6 16  1  0
  7 17  1  0
  7 18  1  0
  8 19  1  0
  8 20  1  0
M  END
