
     RDKit          3D

 23 24  0  0  0  0  0  0  0  0999 V2000
    2.1606    1.8277   -0.4304 C   0  0  0  0  0  0  0  0  0  0  0  0
    1.3258    1.2377    0.5111 O   0  0  0  0  0  0  0  0  0  0  0  0
    0.9335   -0.0159    0.0790 C   0  0  0  0  0  0  0  0  0  0  0  0
    1.4518   -1.0731    1.0346 C   0  0  0  0  0  0  0  0  0  0  0  0
   -0.5362   -0.1808   -0.0487 C   0  0  0  0  0  0  0  0  0  0  0  0
   -1.4582   -0.0147    1.1126 C   0  0  0  0  0  0  0  0  0  0  0  0
   -2.4640    0.6946    0.2027 C   0  0  0  0  0  0  0  0  0  0  0  0
   -1.3965    0.6435   -0.8822 C   0  0  0  0  0  0  0  0  0  0  0  0
   -1.0918   -0.7260   -1.3590 C   0  0  0  0  0  0  0  0  0  0  0  0
    2.4955    2.8244   -0.1274 H   0  0  0  0  0  0  0  0  0  0  0  0
    3.0549    1.2217   -0.6600 H   0  0  0  0  0  0  0  0  0  0  0  0
    1.6262    1.9661   -1.4138 H   0  0  0  0  0  0  0  0  0  0  0  0
    1.3922   -0.2246   -0.9157 H   0  0  0  0  0  0  0  0  0  0  0  0
    0.7349   -1.9318    1.0436 H   0  0  0  0  0  0  0  0  0  0  0  0
    2.4273   -1.4850    0.7272 H   0  0  0  0  0  0  0  0  0  0  0  0
    1.5157   -0.6384    2.0478 H   0  0  0  0  0  0  0  0  0  0  0  0
   -1.7878   -0.9812    1.5023 H   0  0  0  0  0  0  0  0  0  0  0  0
   -1.0963    0.7115    1.8610 H   0  0  0  0  0  0  0  0  0  0  0  0
   -2.7674    1.6854    0.5291 H   0  0  0  0  0  0  0  0  0  0  0  0
   -3.2859   -0.0280   -0.0300 H   0  0  0  0  0  0  0  0  0  0  0  0
   -1.1048    1.5484   -1.4092 H   0  0  0  0  0  0  0  0  0  0  0  0
   -0.3298   -0.7986   -2.1674 H   0  0  0  0  0  0  0  0  0  0  0  0
   -1.7999   -1.5507   -1.2072 H   0  0  0  0  0  0  0  0  0  0  0  0
  1  2  1  0
  2  3  1  0
  3  4  1  0
  3  5  1  0
  5  6  1  0
  6  7  1  0
  7  8  1  0
  8  9  1  0
  8  5  1  0
  9  5  1  0
  1 10  1  0
  1 11  1  0
  1 12  1  0
  3 13  1  0
  4 14  1  0
  4 15  1  0
  4 16  1  0
  6 17  1  0
  6 18  1  0
  7 19  1  0
  7 20  1  0
  8 21  1  0
  9 22  1  0
  9 23  1  0
M  END
