
     RDKit          3D

 18 17  0  0  0  0  0  0  0  0999 V2000
    2.1510    0.9937   -0.2153 C   0  0  0  0  0  0  0  0  0  0  0  0
    0.9019    0.5022   -0.6147 O   0  0  0  0  0  0  0  0  0  0  0  0
    0.4808   -0.5524    0.1935 C   0  0  0  0  0  0  0  0  0  0  0  0
    0.3498   -1.8161   -0.5671 C   0  0  0  0  0  0  0  0  0  0  0  0
   -0.0131   -2.8109    0.0363 O   0  0  0  0  0  0  0  0  0  0  0  0
   -0.7906   -0.1583    0.8909 C   0  0  0  0  0  0  0  0  0  0  0  0
   -1.9112    0.1698   -0.0597 C   0  0  0  0  0  0  0  0  0  0  0  0
   -1.5983    1.2249   -0.9055 O   0  0  0  0  0  0  0  0  0  0  0  0
    2.4094    1.8228   -0.9043 H   0  0  0  0  0  0  0  0  0  0  0  0
    2.9220    0.1939   -0.2288 H   0  0  0  0  0  0  0  0  0  0  0  0
    2.0465    1.4549    0.7977 H   0  0  0  0  0  0  0  0  0  0  0  0
    1.2768   -0.7127    0.9501 H   0  0  0  0  0  0  0  0  0  0  0  0
    0.5563   -1.9101   -1.6249 H   0  0  0  0  0  0  0  0  0  0  0  0
   -0.5862    0.7204    1.5307 H   0  0  0  0  0  0  0  0  0  0  0  0
   -1.1132   -1.0033    1.5313 H   0  0  0  0  0  0  0  0  0  0  0  0
   -2.7963    0.4883    0.5299 H   0  0  0  0  0  0  0  0  0  0  0  0
   -2.2226   -0.6723   -0.6782 H   0  0  0  0  0  0  0  0  0  0  0  0
   -2.0629    2.0651   -0.6619 H   0  0  0  0  0  0  0  0  0  0  0  0
  1  2  1  0
  2  3  1  0
  3  4  1  0
  4  5  2  0
  3  6  1  0
  6  7  1  0
  7  8  1  0
  1  9  1  0
  1 10  1  0
  1 11  1  0
  3 12  1  0
  4 13  1  0
  6 14  1  0
  6 15  1  0
  7 16  1  0
  7 17  1  0
  8 18  1  0
M  END
