
     RDKit          3D

 17 17  0  0  0  0  0  0  0  0999 V2000
   -3.5891    0.0342    0.1572 C   0  0  0  0  0  0  0  0  0  0  0  0
   -2.2645   -0.4040    0.2462 O   0  0  0  0  0  0  0  0  0  0  0  0
   -1.1689    0.3117   -0.1876 C   0  0  0  0  0  0  0  0  0  0  0  0
   -1.3584    1.4377   -0.7006 O   0  0  0  0  0  0  0  0  0  0  0  0
    0.1762   -0.2710   -0.0325 C   0  0  0  0  0  0  0  0  0  0  0  0
    0.9049   -0.1523   -1.2769 O   0  0  0  0  0  0  0  0  0  0  0  0
    1.4002    0.4625   -0.1335 C   0  0  0  0  0  0  0  0  0  0  0  0
    2.6616   -0.1851    0.3942 C   0  0  0  0  0  0  0  0  0  0  0  0
    3.6962   -0.1444   -0.5661 O   0  0  0  0  0  0  0  0  0  0  0  0
   -4.2616   -0.8495    0.3471 H   0  0  0  0  0  0  0  0  0  0  0  0
   -3.8570    0.8061    0.9077 H   0  0  0  0  0  0  0  0  0  0  0  0
   -3.7430    0.4105   -0.8940 H   0  0  0  0  0  0  0  0  0  0  0  0
    0.2022   -1.2683    0.4345 H   0  0  0  0  0  0  0  0  0  0  0  0
    1.3700    1.5817   -0.0712 H   0  0  0  0  0  0  0  0  0  0  0  0
    2.5194   -1.2320    0.6778 H   0  0  0  0  0  0  0  0  0  0  0  0
    3.0545    0.4211    1.2607 H   0  0  0  0  0  0  0  0  0  0  0  0
    4.2572   -0.9589   -0.5114 H   0  0  0  0  0  0  0  0  0  0  0  0
  1  2  1  0
  2  3  1  0
  3  4  2  0
  3  5  1  0
  5  6  1  0
  6  7  1  0
  7  8  1  0
  8  9  1  0
  7  5  1  0
  1 10  1  0
  1 11  1  0
  1 12  1  0
  5 13  1  0
  7 14  1  0
  8 15  1  0
  8 16  1  0
  9 17  1  0
M  END
