
     RDKit          3D

 23 23  0  0  0  0  0  0  0  0999 V2000
    2.1491   -1.2966    0.3064 C   0  0  0  0  0  0  0  0  0  0  0  0
    1.4653   -0.2278    0.8821 O   0  0  0  0  0  0  0  0  0  0  0  0
    1.0405    0.6647   -0.0785 C   0  0  0  0  0  0  0  0  0  0  0  0
    1.6907    2.0299    0.1962 C   0  0  0  0  0  0  0  0  0  0  0  0
   -0.4330    0.9290   -0.0561 C   0  0  0  0  0  0  0  0  0  0  0  0
   -1.2955   -0.2596   -0.2711 C   0  0  0  0  0  0  0  0  0  0  0  0
   -1.2773   -1.4348    0.6150 C   0  0  0  0  0  0  0  0  0  0  0  0
   -2.3859   -0.4562    0.7956 C   0  0  0  0  0  0  0  0  0  0  0  0
   -3.6700   -0.7436    0.3672 O   0  0  0  0  0  0  0  0  0  0  0  0
    2.4657   -1.9766    1.1088 H   0  0  0  0  0  0  0  0  0  0  0  0
    3.0970   -0.9552   -0.1937 H   0  0  0  0  0  0  0  0  0  0  0  0
    1.5582   -1.8134   -0.4709 H   0  0  0  0  0  0  0  0  0  0  0  0
    1.3568    0.2909   -1.0742 H   0  0  0  0  0  0  0  0  0  0  0  0
    1.2943    2.3212    1.2054 H   0  0  0  0  0  0  0  0  0  0  0  0
    2.7725    1.9546    0.2637 H   0  0  0  0  0  0  0  0  0  0  0  0
    1.3727    2.7579   -0.5665 H   0  0  0  0  0  0  0  0  0  0  0  0
   -0.6528    1.7091   -0.8214 H   0  0  0  0  0  0  0  0  0  0  0  0
   -0.6605    1.4334    0.9222 H   0  0  0  0  0  0  0  0  0  0  0  0
   -1.6797   -0.3546   -1.3304 H   0  0  0  0  0  0  0  0  0  0  0  0
   -0.5180   -1.4311    1.4234 H   0  0  0  0  0  0  0  0  0  0  0  0
   -1.5953   -2.4136    0.1711 H   0  0  0  0  0  0  0  0  0  0  0  0
   -2.3614    0.2177    1.6814 H   0  0  0  0  0  0  0  0  0  0  0  0
   -3.7333   -0.9451   -0.5854 H   0  0  0  0  0  0  0  0  0  0  0  0
  1  2  1  0
  2  3  1  0
  3  4  1  0
  3  5  1  0
  5  6  1  0
  6  7  1  0
  7  8  1  0
  8  9  1  0
  8  6  1  0
  1 10  1  0
  1 11  1  0
  1 12  1  0
  3 13  1  0
  4 14  1  0
  4 15  1  0
  4 16  1  0
  5 17  1  0
  5 18  1  0
  6 19  1  0
  7 20  1  0
  7 21  1  0
  8 22  1  0
  9 23  1  0
M  END
