
     RDKit          3D

 18 17  0  0  0  0  0  0  0  0999 V2000
   -1.9654    1.1280   -0.5988 C   0  0  0  0  0  0  0  0  0  0  0  0
   -1.1544    0.0746   -0.9489 O   0  0  0  0  0  0  0  0  0  0  0  0
   -0.4555   -0.4828    0.0864 C   0  0  0  0  0  0  0  0  0  0  0  0
   -0.7446   -1.9597    0.2639 C   0  0  0  0  0  0  0  0  0  0  0  0
    1.0242   -0.3171   -0.2249 C   0  0  0  0  0  0  0  0  0  0  0  0
    1.2770    1.0715   -0.3354 O   0  0  0  0  0  0  0  0  0  0  0  0
    2.5647    1.5043   -0.6184 C   0  0  0  0  0  0  0  0  0  0  0  0
    3.4591    0.6329   -0.7656 O   0  0  0  0  0  0  0  0  0  0  0  0
   -2.4682    1.4772   -1.5414 H   0  0  0  0  0  0  0  0  0  0  0  0
   -2.7124    0.8753    0.1742 H   0  0  0  0  0  0  0  0  0  0  0  0
   -1.3611    1.9837   -0.2312 H   0  0  0  0  0  0  0  0  0  0  0  0
   -0.6443   -0.0025    1.0658 H   0  0  0  0  0  0  0  0  0  0  0  0
   -0.7415   -2.4890   -0.7166 H   0  0  0  0  0  0  0  0  0  0  0  0
   -1.7311   -2.0933    0.7449 H   0  0  0  0  0  0  0  0  0  0  0  0
    0.0043   -2.3854    0.9682 H   0  0  0  0  0  0  0  0  0  0  0  0
    1.1779   -0.8402   -1.2092 H   0  0  0  0  0  0  0  0  0  0  0  0
    1.6725   -0.7531    0.5426 H   0  0  0  0  0  0  0  0  0  0  0  0
    2.7988    2.5756   -0.7117 H   0  0  0  0  0  0  0  0  0  0  0  0
  1  2  1  0
  2  3  1  0
  3  4  1  0
  3  5  1  0
  5  6  1  0
  6  7  1  0
  7  8  2  0
  1  9  1  0
  1 10  1  0
  1 11  1  0
  3 12  1  0
  4 13  1  0
  4 14  1  0
  4 15  1  0
  5 16  1  0
  5 17  1  0
  7 18  1  0
M  END
