
     RDKit          3D

 23 22  0  0  0  0  0  0  0  0999 V2000
   -3.3097    0.9984   -0.9138 C   0  0  0  0  0  0  0  0  0  0  0  0
   -2.2014    1.1399   -0.0888 O   0  0  0  0  0  0  0  0  0  0  0  0
   -1.4011    0.0264   -0.0457 C   0  0  0  0  0  0  0  0  0  0  0  0
   -1.2481   -0.5707    1.3209 C   0  0  0  0  0  0  0  0  0  0  0  0
    0.0214    0.3283   -0.5501 C   0  0  0  0  0  0  0  0  0  0  0  0
    0.7003   -0.8649   -0.4502 O   0  0  0  0  0  0  0  0  0  0  0  0
    2.0027   -0.8607   -0.8605 C   0  0  0  0  0  0  0  0  0  0  0  0
    2.7797    0.1305   -0.0277 C   0  0  0  0  0  0  0  0  0  0  0  0
    4.1347    0.1465   -0.4353 O   0  0  0  0  0  0  0  0  0  0  0  0
   -3.8841    1.9458   -0.8773 H   0  0  0  0  0  0  0  0  0  0  0  0
   -3.8951    0.1154   -0.6446 H   0  0  0  0  0  0  0  0  0  0  0  0
   -2.9140    0.8543   -1.9518 H   0  0  0  0  0  0  0  0  0  0  0  0
   -1.8542   -0.7499   -0.7096 H   0  0  0  0  0  0  0  0  0  0  0  0
   -2.0675   -1.2670    1.5851 H   0  0  0  0  0  0  0  0  0  0  0  0
   -1.1128    0.2336    2.0988 H   0  0  0  0  0  0  0  0  0  0  0  0
   -0.3039   -1.1539    1.3351 H   0  0  0  0  0  0  0  0  0  0  0  0
    0.3971    1.0775    0.2042 H   0  0  0  0  0  0  0  0  0  0  0  0
    0.0070    0.7725   -1.5481 H   0  0  0  0  0  0  0  0  0  0  0  0
    2.1334   -0.6890   -1.9488 H   0  0  0  0  0  0  0  0  0  0  0  0
    2.4409   -1.8609   -0.6447 H   0  0  0  0  0  0  0  0  0  0  0  0
    2.3581    1.1412   -0.2029 H   0  0  0  0  0  0  0  0  0  0  0  0
    2.6781   -0.1646    1.0352 H   0  0  0  0  0  0  0  0  0  0  0  0
    4.5383   -0.7287   -0.2820 H   0  0  0  0  0  0  0  0  0  0  0  0
  1  2  1  0
  2  3  1  0
  3  4  1  0
  3  5  1  0
  5  6  1  0
  6  7  1  0
  7  8  1  0
  8  9  1  0
  1 10  1  0
  1 11  1  0
  1 12  1  0
  3 13  1  0
  4 14  1  0
  4 15  1  0
  4 16  1  0
  5 17  1  0
  5 18  1  0
  7 19  1  0
  7 20  1  0
  8 21  1  0
  8 22  1  0
  9 23  1  0
M  END
