
     RDKit          3D

 19 18  0  0  0  0  0  0  0  0999 V2000
   -2.2378   -0.4487    0.9733 C   0  0  0  0  0  0  0  0  0  0  0  0
   -1.4085    0.2721    0.1217 O   0  0  0  0  0  0  0  0  0  0  0  0
   -0.4274   -0.5202   -0.4536 C   0  0  0  0  0  0  0  0  0  0  0  0
   -0.6213   -0.4446   -1.9396 C   0  0  0  0  0  0  0  0  0  0  0  0
    0.1141   -1.0558   -2.7104 O   0  0  0  0  0  0  0  0  0  0  0  0
    0.9332    0.0737   -0.1476 C   0  0  0  0  0  0  0  0  0  0  0  0
    1.2190    0.1636    1.3161 C   0  0  0  0  0  0  0  0  0  0  0  0
    2.0153   -0.7055   -0.8013 C   0  0  0  0  0  0  0  0  0  0  0  0
    2.9930   -0.0770   -1.1570 O   0  0  0  0  0  0  0  0  0  0  0  0
   -1.6661   -0.9029    1.7960 H   0  0  0  0  0  0  0  0  0  0  0  0
   -2.8441   -1.2159    0.4260 H   0  0  0  0  0  0  0  0  0  0  0  0
   -2.9749    0.2365    1.4393 H   0  0  0  0  0  0  0  0  0  0  0  0
   -0.5442   -1.5465   -0.0906 H   0  0  0  0  0  0  0  0  0  0  0  0
   -1.4045    0.1413   -2.4012 H   0  0  0  0  0  0  0  0  0  0  0  0
    0.9039    1.1249   -0.5438 H   0  0  0  0  0  0  0  0  0  0  0  0
    1.9431    1.0140    1.4830 H   0  0  0  0  0  0  0  0  0  0  0  0
    1.7360   -0.7575    1.7105 H   0  0  0  0  0  0  0  0  0  0  0  0
    0.3330    0.4179    1.9312 H   0  0  0  0  0  0  0  0  0  0  0  0
    1.9382   -1.7693   -0.9521 H   0  0  0  0  0  0  0  0  0  0  0  0
  1  2  1  0
  2  3  1  0
  3  4  1  0
  4  5  2  0
  3  6  1  0
  6  7  1  0
  6  8  1  0
  8  9  2  0
  1 10  1  0
  1 11  1  0
  1 12  1  0
  3 13  1  0
  4 14  1  0
  6 15  1  0
  7 16  1  0
  7 17  1  0
  7 18  1  0
  8 19  1  0
M  END
