
     RDKit          3D

 18 17  0  0  0  0  0  0  0  0999 V2000
   -2.2534   -1.7257   -0.6523 C   0  0  0  0  0  0  0  0  0  0  0  0
   -1.4091   -0.7515   -1.1739 O   0  0  0  0  0  0  0  0  0  0  0  0
   -1.0419    0.0985   -0.1598 C   0  0  0  0  0  0  0  0  0  0  0  0
   -1.4374    1.5202   -0.5135 C   0  0  0  0  0  0  0  0  0  0  0  0
    0.4363    0.0539   -0.0360 C   0  0  0  0  0  0  0  0  0  0  0  0
    1.6357    0.0162    0.0718 C   0  0  0  0  0  0  0  0  0  0  0  0
    3.0947   -0.0162    0.1816 C   0  0  0  0  0  0  0  0  0  0  0  0
    3.6109    0.6767   -0.9021 O   0  0  0  0  0  0  0  0  0  0  0  0
   -2.5750   -2.4381   -1.4470 H   0  0  0  0  0  0  0  0  0  0  0  0
   -3.1875   -1.2678   -0.2139 H   0  0  0  0  0  0  0  0  0  0  0  0
   -1.7307   -2.3283    0.1370 H   0  0  0  0  0  0  0  0  0  0  0  0
   -1.5200   -0.2317    0.7797 H   0  0  0  0  0  0  0  0  0  0  0  0
   -2.4288    1.7492   -0.0793 H   0  0  0  0  0  0  0  0  0  0  0  0
   -0.6724    2.1817   -0.0480 H   0  0  0  0  0  0  0  0  0  0  0  0
   -1.4472    1.5974   -1.6226 H   0  0  0  0  0  0  0  0  0  0  0  0
    3.4742   -1.0785    0.1272 H   0  0  0  0  0  0  0  0  0  0  0  0
    3.4437    0.4115    1.1599 H   0  0  0  0  0  0  0  0  0  0  0  0
    4.0076    1.5326   -0.6360 H   0  0  0  0  0  0  0  0  0  0  0  0
  1  2  1  0
  2  3  1  0
  3  4  1  0
  3  5  1  0
  5  6  3  0
  6  7  1  0
  7  8  1  0
  1  9  1  0
  1 10  1  0
  1 11  1  0
  3 12  1  0
  4 13  1  0
  4 14  1  0
  4 15  1  0
  7 16  1  0
  7 17  1  0
  8 18  1  0
M  END
