
     RDKit          3D

 17 17  0  0  0  0  0  0  0  0999 V2000
    3.5562   -0.4141   -0.0641 C   0  0  0  0  0  0  0  0  0  0  0  0
    2.3413    0.1989    0.3738 O   0  0  0  0  0  0  0  0  0  0  0  0
    1.1009   -0.2723   -0.0311 C   0  0  0  0  0  0  0  0  0  0  0  0
    1.1137   -1.2660   -0.8024 O   0  0  0  0  0  0  0  0  0  0  0  0
   -0.1466    0.3400    0.4052 C   0  0  0  0  0  0  0  0  0  0  0  0
   -0.1800    1.3315    1.1741 O   0  0  0  0  0  0  0  0  0  0  0  0
   -1.4407   -0.2089   -0.0617 C   0  0  0  0  0  0  0  0  0  0  0  0
   -2.6719   -0.0345    0.7391 C   0  0  0  0  0  0  0  0  0  0  0  0
   -2.5046    0.8585   -0.4121 C   0  0  0  0  0  0  0  0  0  0  0  0
    4.3437   -0.2684    0.7086 H   0  0  0  0  0  0  0  0  0  0  0  0
    3.3717   -1.4975   -0.2201 H   0  0  0  0  0  0  0  0  0  0  0  0
    3.8166    0.0678   -1.0281 H   0  0  0  0  0  0  0  0  0  0  0  0
   -1.3743   -1.0715   -0.7294 H   0  0  0  0  0  0  0  0  0  0  0  0
   -2.6598    0.4539    1.7403 H   0  0  0  0  0  0  0  0  0  0  0  0
   -3.4380   -0.8401    0.6859 H   0  0  0  0  0  0  0  0  0  0  0  0
   -2.1987    1.9180   -0.2685 H   0  0  0  0  0  0  0  0  0  0  0  0
   -3.0295    0.7048   -1.3804 H   0  0  0  0  0  0  0  0  0  0  0  0
  1  2  1  0
  2  3  1  0
  3  4  2  0
  3  5  1  0
  5  6  2  0
  5  7  1  0
  7  8  1  0
  8  9  1  0
  9  7  1  0
  1 10  1  0
  1 11  1  0
  1 12  1  0
  7 13  1  0
  8 14  1  0
  8 15  1  0
  9 16  1  0
  9 17  1  0
M  END
