
     RDKit          3D

 21 21  0  0  0  0  0  0  0  0999 V2000
    1.5410    1.7019    0.3999 C   0  0  0  0  0  0  0  0  0  0  0  0
    0.8981    0.5456    0.8165 O   0  0  0  0  0  0  0  0  0  0  0  0
    0.8378   -0.3635   -0.2049 C   0  0  0  0  0  0  0  0  0  0  0  0
    1.6332   -1.5948    0.2392 C   0  0  0  0  0  0  0  0  0  0  0  0
   -0.5568   -0.8465   -0.5200 C   0  0  0  0  0  0  0  0  0  0  0  0
   -1.6374    0.0542   -0.9418 C   0  0  0  0  0  0  0  0  0  0  0  0
   -1.5778    1.4225   -0.8706 O   0  0  0  0  0  0  0  0  0  0  0  0
   -1.6726   -0.6853    0.4272 C   0  0  0  0  0  0  0  0  0  0  0  0
   -1.5916    0.1302    1.5398 O   0  0  0  0  0  0  0  0  0  0  0  0
    2.5806    1.5144    0.0637 H   0  0  0  0  0  0  0  0  0  0  0  0
    1.6135    2.4388    1.2263 H   0  0  0  0  0  0  0  0  0  0  0  0
    1.0262    2.1891   -0.4493 H   0  0  0  0  0  0  0  0  0  0  0  0
    1.3206    0.0702   -1.1041 H   0  0  0  0  0  0  0  0  0  0  0  0
    2.2971   -1.9350   -0.5874 H   0  0  0  0  0  0  0  0  0  0  0  0
    0.9638   -2.4510    0.4636 H   0  0  0  0  0  0  0  0  0  0  0  0
    2.1990   -1.3969    1.1726 H   0  0  0  0  0  0  0  0  0  0  0  0
   -0.5412   -1.8435   -1.0535 H   0  0  0  0  0  0  0  0  0  0  0  0
   -2.3914   -0.3131   -1.6976 H   0  0  0  0  0  0  0  0  0  0  0  0
   -2.4938    1.8269   -0.7449 H   0  0  0  0  0  0  0  0  0  0  0  0
   -2.4530   -1.4930    0.4973 H   0  0  0  0  0  0  0  0  0  0  0  0
   -1.9954    1.0290    1.3280 H   0  0  0  0  0  0  0  0  0  0  0  0
  1  2  1  0
  2  3  1  0
  3  4  1  0
  3  5  1  0
  5  6  1  0
  6  7  1  0
  6  8  1  0
  8  9  1  0
  8  5  1  0
  1 10  1  0
  1 11  1  0
  1 12  1  0
  3 13  1  0
  4 14  1  0
  4 15  1  0
  4 16  1  0
  5 17  1  0
  6 18  1  0
  7 19  1  0
  8 20  1  0
  9 21  1  0
M  END
