
     RDKit          3D

 19 19  0  0  0  0  0  0  0  0999 V2000
    1.4597   -1.6931   -1.0522 C   0  0  0  0  0  0  0  0  0  0  0  0
    1.5354   -0.4527   -0.4450 O   0  0  0  0  0  0  0  0  0  0  0  0
    0.2812    0.1349   -0.3737 C   0  0  0  0  0  0  0  0  0  0  0  0
    0.2986    1.3497   -1.2613 C   0  0  0  0  0  0  0  0  0  0  0  0
   -0.1262    0.3981    1.0237 C   0  0  0  0  0  0  0  0  0  0  0  0
   -1.3696    0.9992    1.4592 C   0  0  0  0  0  0  0  0  0  0  0  0
   -1.2818   -0.4761    1.5463 C   0  0  0  0  0  0  0  0  0  0  0  0
    2.5125   -2.0984   -1.0699 H   0  0  0  0  0  0  0  0  0  0  0  0
    0.7972   -2.3898   -0.5052 H   0  0  0  0  0  0  0  0  0  0  0  0
    1.1070   -1.5658   -2.0993 H   0  0  0  0  0  0  0  0  0  0  0  0
   -0.4390   -0.5713   -0.8332 H   0  0  0  0  0  0  0  0  0  0  0  0
    1.1650    2.0072   -1.0592 H   0  0  0  0  0  0  0  0  0  0  0  0
   -0.6063    1.9681   -1.1780 H   0  0  0  0  0  0  0  0  0  0  0  0
    0.3726    1.0310   -2.3213 H   0  0  0  0  0  0  0  0  0  0  0  0
    0.7502    0.5031    1.7307 H   0  0  0  0  0  0  0  0  0  0  0  0
   -2.1480    1.3957    0.7503 H   0  0  0  0  0  0  0  0  0  0  0  0
   -1.3944    1.5453    2.4243 H   0  0  0  0  0  0  0  0  0  0  0  0
   -1.8371   -1.0761    0.7860 H   0  0  0  0  0  0  0  0  0  0  0  0
   -1.0769   -1.0088    2.4778 H   0  0  0  0  0  0  0  0  0  0  0  0
  1  2  1  0
  2  3  1  0
  3  4  1  0
  3  5  1  0
  5  6  1  0
  6  7  1  0
  7  5  1  0
  1  8  1  0
  1  9  1  0
  1 10  1  0
  3 11  1  0
  4 12  1  0
  4 13  1  0
  4 14  1  0
  5 15  1  0
  6 16  1  0
  6 17  1  0
  7 18  1  0
  7 19  1  0
M  END
