
     RDKit          3D

 19 19  0  0  0  0  0  0  0  0999 V2000
    2.9303   -0.6696   -0.4617 C   0  0  0  0  0  0  0  0  0  0  0  0
    1.9133    0.1086    0.0888 O   0  0  0  0  0  0  0  0  0  0  0  0
    0.7294    0.3998   -0.5688 C   0  0  0  0  0  0  0  0  0  0  0  0
    0.5798   -0.0705   -1.7230 O   0  0  0  0  0  0  0  0  0  0  0  0
   -0.3620    1.2256    0.0023 C   0  0  0  0  0  0  0  0  0  0  0  0
    0.0841    1.6168    1.2837 O   0  0  0  0  0  0  0  0  0  0  0  0
   -1.6431    0.4528    0.1911 C   0  0  0  0  0  0  0  0  0  0  0  0
   -1.5532   -0.7158    1.0955 C   0  0  0  0  0  0  0  0  0  0  0  0
   -1.8956   -0.8519   -0.4088 C   0  0  0  0  0  0  0  0  0  0  0  0
    3.0108   -1.6563    0.0124 H   0  0  0  0  0  0  0  0  0  0  0  0
    3.8948   -0.1440   -0.3061 H   0  0  0  0  0  0  0  0  0  0  0  0
    2.7791   -0.7316   -1.5572 H   0  0  0  0  0  0  0  0  0  0  0  0
   -0.4841    2.1441   -0.5926 H   0  0  0  0  0  0  0  0  0  0  0  0
   -0.3376    2.4467    1.5791 H   0  0  0  0  0  0  0  0  0  0  0  0
   -2.5466    1.0980    0.3504 H   0  0  0  0  0  0  0  0  0  0  0  0
   -0.6011   -1.1221    1.4378 H   0  0  0  0  0  0  0  0  0  0  0  0
   -2.4090   -0.9460    1.7693 H   0  0  0  0  0  0  0  0  0  0  0  0
   -2.9441   -1.1387   -0.6550 H   0  0  0  0  0  0  0  0  0  0  0  0
   -1.1451   -1.4462   -0.9684 H   0  0  0  0  0  0  0  0  0  0  0  0
  1  2  1  0
  2  3  1  0
  3  4  2  0
  3  5  1  0
  5  6  1  0
  5  7  1  0
  7  8  1  0
  8  9  1  0
  9  7  1  0
  1 10  1  0
  1 11  1  0
  1 12  1  0
  5 13  1  0
  6 14  1  0
  7 15  1  0
  8 16  1  0
  8 17  1  0
  9 18  1  0
  9 19  1  0
M  END
