
     RDKit          3D

 17 17  0  0  0  0  0  0  0  0999 V2000
    2.9104    0.5013    0.9078 C   0  0  0  0  0  0  0  0  0  0  0  0
    1.5650    0.6091    0.5456 O   0  0  0  0  0  0  0  0  0  0  0  0
    0.9296   -0.1815   -0.3708 C   0  0  0  0  0  0  0  0  0  0  0  0
    1.5765   -1.0794   -0.9460 O   0  0  0  0  0  0  0  0  0  0  0  0
   -0.4913   -0.0159   -0.7076 C   0  0  0  0  0  0  0  0  0  0  0  0
   -1.3352   -1.2001   -0.2170 C   0  0  0  0  0  0  0  0  0  0  0  0
   -2.6140   -0.5982   -0.2704 O   0  0  0  0  0  0  0  0  0  0  0  0
   -2.4408    0.7271    0.0418 C   0  0  0  0  0  0  0  0  0  0  0  0
   -1.0941    1.0201    0.0051 O   0  0  0  0  0  0  0  0  0  0  0  0
    3.4432   -0.3157    0.3789 H   0  0  0  0  0  0  0  0  0  0  0  0
    3.4802    1.4363    0.6845 H   0  0  0  0  0  0  0  0  0  0  0  0
    3.0561    0.3024    2.0053 H   0  0  0  0  0  0  0  0  0  0  0  0
   -0.6883    0.0463   -1.8001 H   0  0  0  0  0  0  0  0  0  0  0  0
   -1.2537   -2.0662   -0.8756 H   0  0  0  0  0  0  0  0  0  0  0  0
   -1.1394   -1.4194    0.8494 H   0  0  0  0  0  0  0  0  0  0  0  0
   -3.0100    1.3375   -0.7155 H   0  0  0  0  0  0  0  0  0  0  0  0
   -2.8940    0.8962    1.0490 H   0  0  0  0  0  0  0  0  0  0  0  0
  1  2  1  0
  2  3  1  0
  3  4  2  0
  3  5  1  0
  5  6  1  0
  6  7  1  0
  7  8  1  0
  8  9  1  0
  9  5  1  0
  1 10  1  0
  1 11  1  0
  1 12  1  0
  5 13  1  0
  6 14  1  0
  6 15  1  0
  8 16  1  0
  8 17  1  0
M  END
