
     RDKit          3D

 25 25  0  0  0  0  0  0  0  0999 V2000
    3.3402   -0.3762    0.5530 C   0  0  0  0  0  0  0  0  0  0  0  0
    2.3601    0.5278    0.2495 O   0  0  0  0  0  0  0  0  0  0  0  0
    1.2039    0.0071   -0.2714 C   0  0  0  0  0  0  0  0  0  0  0  0
    0.9422    0.4684   -1.7022 C   0  0  0  0  0  0  0  0  0  0  0  0
    0.0487    0.4295    0.5698 C   0  0  0  0  0  0  0  0  0  0  0  0
   -1.2857   -0.0516    0.1418 C   0  0  0  0  0  0  0  0  0  0  0  0
   -1.6438   -1.4870    0.0330 C   0  0  0  0  0  0  0  0  0  0  0  0
   -2.0899    0.8645   -0.8129 C   0  0  0  0  0  0  0  0  0  0  0  0
   -2.4444    0.8232    0.6508 C   0  0  0  0  0  0  0  0  0  0  0  0
    2.9185   -1.0893    1.3194 H   0  0  0  0  0  0  0  0  0  0  0  0
    3.6987   -0.9910   -0.2729 H   0  0  0  0  0  0  0  0  0  0  0  0
    4.1568    0.1613    1.0722 H   0  0  0  0  0  0  0  0  0  0  0  0
    1.3427   -1.0879   -0.3276 H   0  0  0  0  0  0  0  0  0  0  0  0
    1.7147    0.0742   -2.3960 H   0  0  0  0  0  0  0  0  0  0  0  0
   -0.0114   -0.0161   -2.0003 H   0  0  0  0  0  0  0  0  0  0  0  0
    0.7930    1.5492   -1.7786 H   0  0  0  0  0  0  0  0  0  0  0  0
    0.0332    1.5386    0.5963 H   0  0  0  0  0  0  0  0  0  0  0  0
    0.2250    0.1003    1.6224 H   0  0  0  0  0  0  0  0  0  0  0  0
   -2.4410   -1.6768   -0.7149 H   0  0  0  0  0  0  0  0  0  0  0  0
   -0.8309   -2.1780   -0.1713 H   0  0  0  0  0  0  0  0  0  0  0  0
   -2.0909   -1.8053    1.0174 H   0  0  0  0  0  0  0  0  0  0  0  0
   -2.8266    0.4021   -1.4701 H   0  0  0  0  0  0  0  0  0  0  0  0
   -1.5313    1.7173   -1.2052 H   0  0  0  0  0  0  0  0  0  0  0  0
   -3.3750    0.3467    0.9585 H   0  0  0  0  0  0  0  0  0  0  0  0
   -2.2066    1.7492    1.1915 H   0  0  0  0  0  0  0  0  0  0  0  0
  1  2  1  0
  2  3  1  0
  3  4  1  0
  3  5  1  0
  5  6  1  0
  6  7  1  0
  6  8  1  0
  8  9  1  0
  9  6  1  0
  1 10  1  0
  1 11  1  0
  1 12  1  0
  3 13  1  0
  4 14  1  0
  4 15  1  0
  4 16  1  0
  5 17  1  0
  5 18  1  0
  7 19  1  0
  7 20  1  0
  7 21  1  0
  8 22  1  0
  8 23  1  0
  9 24  1  0
  9 25  1  0
M  END
