
     RDKit          3D

 19 18  0  0  0  0  0  0  0  0999 V2000
    2.2591   -0.0781   -0.5456 C   0  0  0  0  0  0  0  0  0  0  0  0
    1.0545   -0.6241   -0.8943 O   0  0  0  0  0  0  0  0  0  0  0  0
   -0.0324   -0.2443   -0.1521 C   0  0  0  0  0  0  0  0  0  0  0  0
    0.0941   -0.5647    1.3205 C   0  0  0  0  0  0  0  0  0  0  0  0
   -1.1963   -1.1233   -0.6516 C   0  0  0  0  0  0  0  0  0  0  0  0
   -0.4901    1.1483   -0.4080 C   0  0  0  0  0  0  0  0  0  0  0  0
    0.1646    1.7842   -1.2742 O   0  0  0  0  0  0  0  0  0  0  0  0
   -1.6021    1.7567    0.2717 C   0  0  0  0  0  0  0  0  0  0  0  0
   -2.3045    1.1977    1.1433 O   0  0  0  0  0  0  0  0  0  0  0  0
    3.0247   -0.4999   -1.2533 H   0  0  0  0  0  0  0  0  0  0  0  0
    2.6102   -0.3824    0.4652 H   0  0  0  0  0  0  0  0  0  0  0  0
    2.2690    1.0009   -0.7080 H   0  0  0  0  0  0  0  0  0  0  0  0
    0.6589    0.1972    1.8738 H   0  0  0  0  0  0  0  0  0  0  0  0
    0.6371   -1.5293    1.3871 H   0  0  0  0  0  0  0  0  0  0  0  0
   -0.9144   -0.7279    1.7280 H   0  0  0  0  0  0  0  0  0  0  0  0
   -1.1676   -2.1022   -0.1084 H   0  0  0  0  0  0  0  0  0  0  0  0
   -2.1408   -0.6013   -0.4954 H   0  0  0  0  0  0  0  0  0  0  0  0
   -1.0561   -1.3824   -1.7237 H   0  0  0  0  0  0  0  0  0  0  0  0
   -1.8680    2.7750    0.0249 H   0  0  0  0  0  0  0  0  0  0  0  0
  1  2  1  0
  2  3  1  0
  3  4  1  0
  3  5  1  0
  3  6  1  0
  6  7  2  0
  6  8  1  0
  8  9  2  0
  1 10  1  0
  1 11  1  0
  1 12  1  0
  4 13  1  0
  4 14  1  0
  4 15  1  0
  5 16  1  0
  5 17  1  0
  5 18  1  0
  8 19  1  0
M  END
