
     RDKit          3D

 23 23  0  0  0  0  0  0  0  0999 V2000
    2.5846    0.4638    1.2003 C   0  0  0  0  0  0  0  0  0  0  0  0
    1.5353   -0.4285    0.8900 O   0  0  0  0  0  0  0  0  0  0  0  0
    0.8053    0.0238   -0.1722 C   0  0  0  0  0  0  0  0  0  0  0  0
    1.0242   -0.9494   -1.3391 C   0  0  0  0  0  0  0  0  0  0  0  0
   -0.6668    0.1272    0.0791 C   0  0  0  0  0  0  0  0  0  0  0  0
   -1.4511    0.6367   -1.1317 C   0  0  0  0  0  0  0  0  0  0  0  0
   -2.8024    0.7141   -0.8495 O   0  0  0  0  0  0  0  0  0  0  0  0
   -1.2351    0.4877    1.3797 C   0  0  0  0  0  0  0  0  0  0  0  0
   -1.3522   -0.9381    0.8436 C   0  0  0  0  0  0  0  0  0  0  0  0
    3.1719    0.0924    2.0609 H   0  0  0  0  0  0  0  0  0  0  0  0
    2.1657    1.4771    1.3606 H   0  0  0  0  0  0  0  0  0  0  0  0
    3.2872    0.4456    0.3178 H   0  0  0  0  0  0  0  0  0  0  0  0
    1.2376    0.9866   -0.5135 H   0  0  0  0  0  0  0  0  0  0  0  0
    0.3822   -1.8497   -1.2009 H   0  0  0  0  0  0  0  0  0  0  0  0
    2.0967   -1.2269   -1.4016 H   0  0  0  0  0  0  0  0  0  0  0  0
    0.7572   -0.4860   -2.3047 H   0  0  0  0  0  0  0  0  0  0  0  0
   -1.2634   -0.0942   -1.9718 H   0  0  0  0  0  0  0  0  0  0  0  0
   -1.0047    1.6129   -1.4027 H   0  0  0  0  0  0  0  0  0  0  0  0
   -3.2962    0.2195   -1.5595 H   0  0  0  0  0  0  0  0  0  0  0  0
   -2.1776    1.0877    1.4473 H   0  0  0  0  0  0  0  0  0  0  0  0
   -0.6238    0.5894    2.3010 H   0  0  0  0  0  0  0  0  0  0  0  0
   -2.3865   -1.2699    0.5689 H   0  0  0  0  0  0  0  0  0  0  0  0
   -0.7882   -1.7217    1.3982 H   0  0  0  0  0  0  0  0  0  0  0  0
  1  2  1  0
  2  3  1  0
  3  4  1  0
  3  5  1  0
  5  6  1  0
  6  7  1  0
  5  8  1  0
  8  9  1  0
  9  5  1  0
  1 10  1  0
  1 11  1  0
  1 12  1  0
  3 13  1  0
  4 14  1  0
  4 15  1  0
  4 16  1  0
  6 17  1  0
  6 18  1  0
  7 19  1  0
  8 20  1  0
  8 21  1  0
  9 22  1  0
  9 23  1  0
M  END
