
     RDKit          3D

 21 21  0  0  0  0  0  0  0  0999 V2000
    3.4427   -0.7401   -0.0394 C   0  0  0  0  0  0  0  0  0  0  0  0
    2.1315   -0.8274   -0.6056 O   0  0  0  0  0  0  0  0  0  0  0  0
    1.0562   -0.1882   -0.0251 C   0  0  0  0  0  0  0  0  0  0  0  0
    1.2201    0.4973    1.0374 O   0  0  0  0  0  0  0  0  0  0  0  0
   -0.2676   -0.3106   -0.6473 C   0  0  0  0  0  0  0  0  0  0  0  0
   -1.4622   -0.2950    0.3009 C   0  0  0  0  0  0  0  0  0  0  0  0
   -2.5056   -1.3260   -0.0419 C   0  0  0  0  0  0  0  0  0  0  0  0
   -1.2307    0.8718   -0.5512 C   0  0  0  0  0  0  0  0  0  0  0  0
   -0.6046    2.1213   -0.0249 C   0  0  0  0  0  0  0  0  0  0  0  0
    3.6385    0.3408    0.1173 H   0  0  0  0  0  0  0  0  0  0  0  0
    3.4627   -1.3260    0.8885 H   0  0  0  0  0  0  0  0  0  0  0  0
    4.1223   -1.1737   -0.8015 H   0  0  0  0  0  0  0  0  0  0  0  0
   -0.3261   -0.9164   -1.5555 H   0  0  0  0  0  0  0  0  0  0  0  0
   -1.2203   -0.1901    1.3676 H   0  0  0  0  0  0  0  0  0  0  0  0
   -3.5189   -0.8839   -0.1469 H   0  0  0  0  0  0  0  0  0  0  0  0
   -2.2734   -1.8808   -0.9662 H   0  0  0  0  0  0  0  0  0  0  0  0
   -2.5442   -2.0677    0.7825 H   0  0  0  0  0  0  0  0  0  0  0  0
   -1.8903    1.0386   -1.4465 H   0  0  0  0  0  0  0  0  0  0  0  0
   -1.1527    3.0415   -0.3127 H   0  0  0  0  0  0  0  0  0  0  0  0
    0.4477    2.1646   -0.4057 H   0  0  0  0  0  0  0  0  0  0  0  0
   -0.5252    2.0498    1.0853 H   0  0  0  0  0  0  0  0  0  0  0  0
  1  2  1  0
  2  3  1  0
  3  4  2  0
  3  5  1  0
  5  6  1  0
  6  7  1  0
  6  8  1  0
  8  9  1  0
  8  5  1  0
  1 10  1  0
  1 11  1  0
  1 12  1  0
  5 13  1  0
  6 14  1  0
  7 15  1  0
  7 16  1  0
  7 17  1  0
  8 18  1  0
  9 19  1  0
  9 20  1  0
  9 21  1  0
M  END
