
     RDKit          3D

 21 20  0  0  0  0  0  0  0  0999 V2000
   -2.4416   -1.1243    0.4730 C   0  0  0  0  0  0  0  0  0  0  0  0
   -1.0569   -1.0581    0.5759 O   0  0  0  0  0  0  0  0  0  0  0  0
   -0.5665    0.0471   -0.0925 C   0  0  0  0  0  0  0  0  0  0  0  0
    0.3503   -0.3513   -1.2235 C   0  0  0  0  0  0  0  0  0  0  0  0
    1.5320   -1.1348   -0.7219 C   0  0  0  0  0  0  0  0  0  0  0  0
    2.2812   -0.3936    0.1829 O   0  0  0  0  0  0  0  0  0  0  0  0
    0.0729    0.9540    0.8739 C   0  0  0  0  0  0  0  0  0  0  0  0
    0.7109    2.2468    0.5049 C   0  0  0  0  0  0  0  0  0  0  0  0
    0.0864    0.6375    2.0483 O   0  0  0  0  0  0  0  0  0  0  0  0
   -2.6703   -1.1953   -0.6253 H   0  0  0  0  0  0  0  0  0  0  0  0
   -2.9408   -0.1884    0.8075 H   0  0  0  0  0  0  0  0  0  0  0  0
   -2.8328   -2.0111    1.0027 H   0  0  0  0  0  0  0  0  0  0  0  0
   -1.4375    0.6032   -0.5466 H   0  0  0  0  0  0  0  0  0  0  0  0
   -0.2394   -1.0024   -1.9069 H   0  0  0  0  0  0  0  0  0  0  0  0
    0.7168    0.4904   -1.8072 H   0  0  0  0  0  0  0  0  0  0  0  0
    2.1578   -1.3939   -1.6149 H   0  0  0  0  0  0  0  0  0  0  0  0
    1.1684   -2.0606   -0.2078 H   0  0  0  0  0  0  0  0  0  0  0  0
    2.6160   -0.9504    0.9440 H   0  0  0  0  0  0  0  0  0  0  0  0
    1.7933    2.2668    0.6799 H   0  0  0  0  0  0  0  0  0  0  0  0
    0.4227    2.5786   -0.5263 H   0  0  0  0  0  0  0  0  0  0  0  0
    0.2772    3.0396    1.1800 H   0  0  0  0  0  0  0  0  0  0  0  0
  1  2  1  0
  2  3  1  0
  3  4  1  0
  4  5  1  0
  5  6  1  0
  3  7  1  0
  7  8  1  0
  7  9  2  0
  1 10  1  0
  1 11  1  0
  1 12  1  0
  3 13  1  0
  4 14  1  0
  4 15  1  0
  5 16  1  0
  5 17  1  0
  6 18  1  0
  8 19  1  0
  8 20  1  0
  8 21  1  0
M  END
