
     RDKit          3D

 23 23  0  0  0  0  0  0  0  0999 V2000
   -2.4087   -0.7876    1.1804 C   0  0  0  0  0  0  0  0  0  0  0  0
   -2.1214   -0.4302   -0.1410 O   0  0  0  0  0  0  0  0  0  0  0  0
   -1.0618    0.4733   -0.2155 C   0  0  0  0  0  0  0  0  0  0  0  0
   -1.5635    1.7470   -0.7690 C   0  0  0  0  0  0  0  0  0  0  0  0
    0.0732   -0.1584   -0.9399 C   0  0  0  0  0  0  0  0  0  0  0  0
    1.4164    0.4331   -0.8658 C   0  0  0  0  0  0  0  0  0  0  0  0
    1.8926   -0.9259   -0.3742 C   0  0  0  0  0  0  0  0  0  0  0  0
    2.5878   -0.8798    0.9720 C   0  0  0  0  0  0  0  0  0  0  0  0
    0.5583   -1.3161   -0.3321 O   0  0  0  0  0  0  0  0  0  0  0  0
   -2.6840    0.1465    1.7452 H   0  0  0  0  0  0  0  0  0  0  0  0
   -3.3241   -1.4115    1.2000 H   0  0  0  0  0  0  0  0  0  0  0  0
   -1.5489   -1.2392    1.6810 H   0  0  0  0  0  0  0  0  0  0  0  0
   -0.7363    0.6579    0.8394 H   0  0  0  0  0  0  0  0  0  0  0  0
   -0.8918    2.2591   -1.4741 H   0  0  0  0  0  0  0  0  0  0  0  0
   -2.5364    1.6193   -1.3258 H   0  0  0  0  0  0  0  0  0  0  0  0
   -1.8096    2.5146    0.0200 H   0  0  0  0  0  0  0  0  0  0  0  0
   -0.2088   -0.4095   -1.9926 H   0  0  0  0  0  0  0  0  0  0  0  0
    1.6429    1.1905   -0.1214 H   0  0  0  0  0  0  0  0  0  0  0  0
    1.8886    0.6402   -1.8612 H   0  0  0  0  0  0  0  0  0  0  0  0
    2.5242   -1.4836   -1.0871 H   0  0  0  0  0  0  0  0  0  0  0  0
    2.9493   -1.8769    1.2138 H   0  0  0  0  0  0  0  0  0  0  0  0
    1.8858   -0.5556    1.7579 H   0  0  0  0  0  0  0  0  0  0  0  0
    3.4762   -0.2074    0.8902 H   0  0  0  0  0  0  0  0  0  0  0  0
  1  2  1  0
  2  3  1  0
  3  4  1  0
  3  5  1  0
  5  6  1  0
  6  7  1  0
  7  8  1  0
  7  9  1  0
  9  5  1  0
  1 10  1  0
  1 11  1  0
  1 12  1  0
  3 13  1  0
  4 14  1  0
  4 15  1  0
  4 16  1  0
  5 17  1  0
  6 18  1  0
  6 19  1  0
  7 20  1  0
  8 21  1  0
  8 22  1  0
  8 23  1  0
M  END
