
     RDKit          3D

 25 24  0  0  0  0  0  0  0  0999 V2000
   -2.0930   -1.8729    0.2627 C   0  0  0  0  0  0  0  0  0  0  0  0
   -1.8965   -0.7319   -0.5212 O   0  0  0  0  0  0  0  0  0  0  0  0
   -1.5475    0.3552    0.2767 C   0  0  0  0  0  0  0  0  0  0  0  0
   -2.6068    1.4078    0.1487 C   0  0  0  0  0  0  0  0  0  0  0  0
   -0.1801    0.8988   -0.1370 C   0  0  0  0  0  0  0  0  0  0  0  0
    0.8714   -0.1775    0.0176 C   0  0  0  0  0  0  0  0  0  0  0  0
    2.2358    0.2867   -0.3706 C   0  0  0  0  0  0  0  0  0  0  0  0
    3.2185   -0.8476   -0.1854 C   0  0  0  0  0  0  0  0  0  0  0  0
    2.6531    1.3978    0.3602 O   0  0  0  0  0  0  0  0  0  0  0  0
   -2.9116   -1.6415    0.9731 H   0  0  0  0  0  0  0  0  0  0  0  0
   -1.1921   -2.1405    0.8535 H   0  0  0  0  0  0  0  0  0  0  0  0
   -2.4543   -2.7135   -0.3608 H   0  0  0  0  0  0  0  0  0  0  0  0
   -1.5203    0.0176    1.3238 H   0  0  0  0  0  0  0  0  0  0  0  0
   -2.2125    2.2792   -0.4338 H   0  0  0  0  0  0  0  0  0  0  0  0
   -3.4954    1.0157   -0.4073 H   0  0  0  0  0  0  0  0  0  0  0  0
   -2.9876    1.7710    1.1171 H   0  0  0  0  0  0  0  0  0  0  0  0
   -0.2046    1.3193   -1.1432 H   0  0  0  0  0  0  0  0  0  0  0  0
    0.0743    1.7135    0.5714 H   0  0  0  0  0  0  0  0  0  0  0  0
    0.5844   -0.9952   -0.6848 H   0  0  0  0  0  0  0  0  0  0  0  0
    0.8947   -0.6027    1.0251 H   0  0  0  0  0  0  0  0  0  0  0  0
    2.2917    0.5799   -1.4404 H   0  0  0  0  0  0  0  0  0  0  0  0
    3.0007   -1.3844    0.7819 H   0  0  0  0  0  0  0  0  0  0  0  0
    3.1245   -1.6159   -0.9774 H   0  0  0  0  0  0  0  0  0  0  0  0
    4.2688   -0.4892   -0.2278 H   0  0  0  0  0  0  0  0  0  0  0  0
    2.0846    2.1702    0.2044 H   0  0  0  0  0  0  0  0  0  0  0  0
  1  2  1  0
  2  3  1  0
  3  4  1  0
  3  5  1  0
  5  6  1  0
  6  7  1  0
  7  8  1  0
  7  9  1  0
  1 10  1  0
  1 11  1  0
  1 12  1  0
  3 13  1  0
  4 14  1  0
  4 15  1  0
  4 16  1  0
  5 17  1  0
  5 18  1  0
  6 19  1  0
  6 20  1  0
  7 21  1  0
  8 22  1  0
  8 23  1  0
  8 24  1  0
  9 25  1  0
M  END
