
     RDKit          3D

 23 23  0  0  0  0  0  0  0  0999 V2000
   -2.9034   -0.2086   -1.3177 C   0  0  0  0  0  0  0  0  0  0  0  0
   -2.0288    0.3894   -0.4229 O   0  0  0  0  0  0  0  0  0  0  0  0
   -1.0408   -0.4919    0.0203 C   0  0  0  0  0  0  0  0  0  0  0  0
   -1.2099   -0.6763    1.4780 C   0  0  0  0  0  0  0  0  0  0  0  0
    0.2753    0.0227   -0.4303 C   0  0  0  0  0  0  0  0  0  0  0  0
    0.6149    1.4153    0.1039 C   0  0  0  0  0  0  0  0  0  0  0  0
    1.4499    0.2079    0.4004 C   0  0  0  0  0  0  0  0  0  0  0  0
    2.8129    0.2379   -0.3080 C   0  0  0  0  0  0  0  0  0  0  0  0
    3.8334    0.4210    0.6152 O   0  0  0  0  0  0  0  0  0  0  0  0
   -3.6578    0.5427   -1.6276 H   0  0  0  0  0  0  0  0  0  0  0  0
   -2.4106   -0.5871   -2.2270 H   0  0  0  0  0  0  0  0  0  0  0  0
   -3.3910   -1.0874   -0.8339 H   0  0  0  0  0  0  0  0  0  0  0  0
   -1.2333   -1.4714   -0.4858 H   0  0  0  0  0  0  0  0  0  0  0  0
   -0.3178   -0.5979    2.0919 H   0  0  0  0  0  0  0  0  0  0  0  0
   -1.9545    0.0524    1.9150 H   0  0  0  0  0  0  0  0  0  0  0  0
   -1.6649   -1.6827    1.7154 H   0  0  0  0  0  0  0  0  0  0  0  0
    0.4504   -0.1129   -1.5381 H   0  0  0  0  0  0  0  0  0  0  0  0
    0.0218    1.7948    0.9659 H   0  0  0  0  0  0  0  0  0  0  0  0
    0.9114    2.1591   -0.6374 H   0  0  0  0  0  0  0  0  0  0  0  0
    1.5516   -0.1042    1.4518 H   0  0  0  0  0  0  0  0  0  0  0  0
    2.8258    0.9805   -1.1261 H   0  0  0  0  0  0  0  0  0  0  0  0
    3.0028   -0.7554   -0.7935 H   0  0  0  0  0  0  0  0  0  0  0  0
    4.0626   -0.4481    0.9905 H   0  0  0  0  0  0  0  0  0  0  0  0
  1  2  1  0
  2  3  1  0
  3  4  1  0
  3  5  1  0
  5  6  1  0
  6  7  1  0
  7  8  1  0
  8  9  1  0
  7  5  1  0
  1 10  1  0
  1 11  1  0
  1 12  1  0
  3 13  1  0
  4 14  1  0
  4 15  1  0
  4 16  1  0
  5 17  1  0
  6 18  1  0
  6 19  1  0
  7 20  1  0
  8 21  1  0
  8 22  1  0
  9 23  1  0
M  END
