
     RDKit          3D

 21 20  0  0  0  0  0  0  0  0999 V2000
    1.8469    1.4719   -0.3802 C   0  0  0  0  0  0  0  0  0  0  0  0
    1.2744    0.3324   -0.8800 O   0  0  0  0  0  0  0  0  0  0  0  0
    0.8525   -0.5709    0.0523 C   0  0  0  0  0  0  0  0  0  0  0  0
    1.4803   -1.9310   -0.0662 C   0  0  0  0  0  0  0  0  0  0  0  0
   -0.6433   -0.7242   -0.0641 C   0  0  0  0  0  0  0  0  0  0  0  0
   -1.3881    0.5614    0.1637 C   0  0  0  0  0  0  0  0  0  0  0  0
   -1.1752    1.1081    1.4061 O   0  0  0  0  0  0  0  0  0  0  0  0
   -2.8387    0.2734    0.0030 C   0  0  0  0  0  0  0  0  0  0  0  0
   -3.6238    0.5224    0.8946 O   0  0  0  0  0  0  0  0  0  0  0  0
    2.1382    2.1069   -1.2600 H   0  0  0  0  0  0  0  0  0  0  0  0
    2.6801    1.2995    0.3116 H   0  0  0  0  0  0  0  0  0  0  0  0
    1.0797    2.0716    0.1616 H   0  0  0  0  0  0  0  0  0  0  0  0
    1.0509   -0.2184    1.1030 H   0  0  0  0  0  0  0  0  0  0  0  0
    2.5395   -1.9080   -0.3425 H   0  0  0  0  0  0  0  0  0  0  0  0
    1.4004   -2.4751    0.9059 H   0  0  0  0  0  0  0  0  0  0  0  0
    0.9628   -2.5727   -0.8094 H   0  0  0  0  0  0  0  0  0  0  0  0
   -1.0420   -1.4688    0.6506 H   0  0  0  0  0  0  0  0  0  0  0  0
   -0.9318   -1.0869   -1.0826 H   0  0  0  0  0  0  0  0  0  0  0  0
   -1.1303    1.2937   -0.6503 H   0  0  0  0  0  0  0  0  0  0  0  0
   -1.3028    2.0803    1.4341 H   0  0  0  0  0  0  0  0  0  0  0  0
   -3.2298   -0.1656   -0.9137 H   0  0  0  0  0  0  0  0  0  0  0  0
  1  2  1  0
  2  3  1  0
  3  4  1  0
  3  5  1  0
  5  6  1  0
  6  7  1  0
  6  8  1  0
  8  9  2  0
  1 10  1  0
  1 11  1  0
  1 12  1  0
  3 13  1  0
  4 14  1  0
  4 15  1  0
  4 16  1  0
  5 17  1  0
  5 18  1  0
  6 19  1  0
  7 20  1  0
  8 21  1  0
M  END
