
     RDKit          3D

 15 15  0  0  0  0  0  0  0  0999 V2000
    2.9461   -0.7327   -1.0872 C   0  0  0  0  0  0  0  0  0  0  0  0
    1.5467   -0.8535   -0.9229 O   0  0  0  0  0  0  0  0  0  0  0  0
    0.7851   -0.0426   -0.1298 C   0  0  0  0  0  0  0  0  0  0  0  0
    1.3711    0.8801    0.5018 O   0  0  0  0  0  0  0  0  0  0  0  0
   -0.6548   -0.2395   -0.0191 C   0  0  0  0  0  0  0  0  0  0  0  0
   -1.1959   -1.1712   -0.6662 O   0  0  0  0  0  0  0  0  0  0  0  0
   -1.4991    0.6093    0.8201 C   0  0  0  0  0  0  0  0  0  0  0  0
   -2.9264    0.6888    0.7632 C   0  0  0  0  0  0  0  0  0  0  0  0
   -2.2809   -0.1293    1.7964 O   0  0  0  0  0  0  0  0  0  0  0  0
    3.1177    0.2256   -1.6201 H   0  0  0  0  0  0  0  0  0  0  0  0
    3.3886   -0.6909   -0.0550 H   0  0  0  0  0  0  0  0  0  0  0  0
    3.3241   -1.6045   -1.6525 H   0  0  0  0  0  0  0  0  0  0  0  0
   -0.9456    1.4161    1.3648 H   0  0  0  0  0  0  0  0  0  0  0  0
   -3.4307    1.5817    1.1852 H   0  0  0  0  0  0  0  0  0  0  0  0
   -3.5458    0.0627    0.1225 H   0  0  0  0  0  0  0  0  0  0  0  0
  1  2  1  0
  2  3  1  0
  3  4  2  0
  3  5  1  0
  5  6  2  0
  5  7  1  0
  7  8  1  0
  8  9  1  0
  9  7  1  0
  1 10  1  0
  1 11  1  0
  1 12  1  0
  7 13  1  0
  8 14  1  0
  8 15  1  0
M  END
