
     RDKit          3D

 12 11  0  0  0  0  0  0  0  0999 V2000
   -2.0498   -0.2023   -0.4597 C   0  0  0  0  0  0  0  0  0  0  0  0
   -0.6419   -0.0455   -0.5971 O   0  0  0  0  0  0  0  0  0  0  0  0
    0.1885    0.1507    0.4953 C   0  0  0  0  0  0  0  0  0  0  0  0
   -0.3629    0.1844    1.6258 O   0  0  0  0  0  0  0  0  0  0  0  0
    1.6439    0.3156    0.3854 C   0  0  0  0  0  0  0  0  0  0  0  0
    2.0653    0.2505   -0.9256 O   0  0  0  0  0  0  0  0  0  0  0  0
   -2.3596    0.1244    0.5685 H   0  0  0  0  0  0  0  0  0  0  0  0
   -2.3556   -1.2596   -0.5379 H   0  0  0  0  0  0  0  0  0  0  0  0
   -2.6126    0.3761   -1.1988 H   0  0  0  0  0  0  0  0  0  0  0  0
    2.0124    1.2679    0.8122 H   0  0  0  0  0  0  0  0  0  0  0  0
    2.1247   -0.4948    0.9553 H   0  0  0  0  0  0  0  0  0  0  0  0
    2.3475   -0.6674   -1.1234 H   0  0  0  0  0  0  0  0  0  0  0  0
  1  2  1  0
  2  3  1  0
  3  4  2  0
  3  5  1  0
  5  6  1  0
  1  7  1  0
  1  8  1  0
  1  9  1  0
  5 10  1  0
  5 11  1  0
  6 12  1  0
M  END
