
     RDKit          3D

 17 17  0  0  0  0  0  0  0  0999 V2000
    2.8619   -0.1668   -0.5252 C   0  0  0  0  0  0  0  0  0  0  0  0
    1.4572   -0.3329   -0.6223 O   0  0  0  0  0  0  0  0  0  0  0  0
    0.5915    0.3659    0.2034 C   0  0  0  0  0  0  0  0  0  0  0  0
    1.1075    1.1470    1.0361 O   0  0  0  0  0  0  0  0  0  0  0  0
   -0.8715    0.2789    0.1947 C   0  0  0  0  0  0  0  0  0  0  0  0
   -1.5924    1.4123    0.8350 C   0  0  0  0  0  0  0  0  0  0  0  0
   -1.0576    2.1843    1.5982 O   0  0  0  0  0  0  0  0  0  0  0  0
   -1.3646   -1.1410    0.6160 C   0  0  0  0  0  0  0  0  0  0  0  0
   -1.6153   -0.5806   -0.7456 C   0  0  0  0  0  0  0  0  0  0  0  0
    3.1291    0.0344    0.5529 H   0  0  0  0  0  0  0  0  0  0  0  0
    3.1897    0.7402   -1.0702 H   0  0  0  0  0  0  0  0  0  0  0  0
    3.4238   -1.0627   -0.8509 H   0  0  0  0  0  0  0  0  0  0  0  0
   -2.6363    1.5431    0.6032 H   0  0  0  0  0  0  0  0  0  0  0  0
   -2.1621   -1.1502    1.3879 H   0  0  0  0  0  0  0  0  0  0  0  0
   -0.6235   -1.9577    0.6277 H   0  0  0  0  0  0  0  0  0  0  0  0
   -1.1592   -1.0373   -1.6371 H   0  0  0  0  0  0  0  0  0  0  0  0
   -2.6781   -0.2769   -0.9181 H   0  0  0  0  0  0  0  0  0  0  0  0
  1  2  1  0
  2  3  1  0
  3  4  2  0
  3  5  1  0
  5  6  1  0
  6  7  2  0
  5  8  1  0
  8  9  1  0
  9  5  1  0
  1 10  1  0
  1 11  1  0
  1 12  1  0
  6 13  1  0
  8 14  1  0
  8 15  1  0
  9 16  1  0
  9 17  1  0
M  END
