
     RDKit          3D

 21 22  0  0  0  0  0  0  0  0999 V2000
    1.8449    0.0155    1.9454 C   0  0  0  0  0  0  0  0  0  0  0  0
    1.7631   -0.0321    0.5676 O   0  0  0  0  0  0  0  0  0  0  0  0
    0.5603   -0.4547    0.0768 C   0  0  0  0  0  0  0  0  0  0  0  0
    0.6974   -1.7739   -0.6589 C   0  0  0  0  0  0  0  0  0  0  0  0
   -0.1066    0.5911   -0.8128 C   0  0  0  0  0  0  0  0  0  0  0  0
   -1.4293    0.1688   -1.3732 C   0  0  0  0  0  0  0  0  0  0  0  0
   -2.1719    0.8550   -0.2801 C   0  0  0  0  0  0  0  0  0  0  0  0
   -1.6754    0.9809    0.9867 O   0  0  0  0  0  0  0  0  0  0  0  0
   -0.8571    1.5683    0.0656 C   0  0  0  0  0  0  0  0  0  0  0  0
    2.8773    0.3760    2.1916 H   0  0  0  0  0  0  0  0  0  0  0  0
    1.1508    0.7327    2.4078 H   0  0  0  0  0  0  0  0  0  0  0  0
    1.7807   -1.0075    2.3419 H   0  0  0  0  0  0  0  0  0  0  0  0
   -0.1007   -0.6708    0.9578 H   0  0  0  0  0  0  0  0  0  0  0  0
   -0.2627   -2.2744   -0.7691 H   0  0  0  0  0  0  0  0  0  0  0  0
    1.2427   -1.6019   -1.6067 H   0  0  0  0  0  0  0  0  0  0  0  0
    1.3235   -2.4259    0.0063 H   0  0  0  0  0  0  0  0  0  0  0  0
    0.5511    1.0773   -1.5293 H   0  0  0  0  0  0  0  0  0  0  0  0
   -1.5961   -0.9142   -1.5000 H   0  0  0  0  0  0  0  0  0  0  0  0
   -1.6617    0.6723   -2.3574 H   0  0  0  0  0  0  0  0  0  0  0  0
   -3.0566    1.4865   -0.4971 H   0  0  0  0  0  0  0  0  0  0  0  0
   -0.8738    2.6310   -0.1629 H   0  0  0  0  0  0  0  0  0  0  0  0
  1  2  1  0
  2  3  1  0
  3  4  1  0
  3  5  1  0
  5  6  1  0
  6  7  1  0
  7  8  1  0
  8  9  1  0
  9  5  1  0
  9  7  1  0
  1 10  1  0
  1 11  1  0
  1 12  1  0
  3 13  1  0
  4 14  1  0
  4 15  1  0
  4 16  1  0
  5 17  1  0
  6 18  1  0
  6 19  1  0
  7 20  1  0
  9 21  1  0
M  END
