
     RDKit          3D

 19 19  0  0  0  0  0  0  0  0999 V2000
   -2.1619   -1.0871    0.3420 C   0  0  0  0  0  0  0  0  0  0  0  0
   -1.6012   -0.1409   -0.4948 O   0  0  0  0  0  0  0  0  0  0  0  0
   -0.6144    0.6087    0.1134 C   0  0  0  0  0  0  0  0  0  0  0  0
   -1.0179    2.0239    0.1102 C   0  0  0  0  0  0  0  0  0  0  0  0
   -2.0856    2.3256   -0.3893 O   0  0  0  0  0  0  0  0  0  0  0  0
    0.6721    0.3675   -0.6483 C   0  0  0  0  0  0  0  0  0  0  0  0
    1.2769   -0.9542   -0.2533 C   0  0  0  0  0  0  0  0  0  0  0  0
    2.5432   -0.1369   -0.1276 C   0  0  0  0  0  0  0  0  0  0  0  0
    1.7801    1.0511   -0.1673 O   0  0  0  0  0  0  0  0  0  0  0  0
   -2.9420   -1.6221   -0.2696 H   0  0  0  0  0  0  0  0  0  0  0  0
   -2.6650   -0.6248    1.2243 H   0  0  0  0  0  0  0  0  0  0  0  0
   -1.4390   -1.8795    0.6529 H   0  0  0  0  0  0  0  0  0  0  0  0
   -0.4457    0.3159    1.1741 H   0  0  0  0  0  0  0  0  0  0  0  0
   -0.4166    2.8280    0.5303 H   0  0  0  0  0  0  0  0  0  0  0  0
    0.5716    0.4550   -1.7466 H   0  0  0  0  0  0  0  0  0  0  0  0
    0.9103   -1.3901    0.6896 H   0  0  0  0  0  0  0  0  0  0  0  0
    1.3517   -1.7136   -1.0300 H   0  0  0  0  0  0  0  0  0  0  0  0
    3.2182   -0.1900   -1.0114 H   0  0  0  0  0  0  0  0  0  0  0  0
    3.0650   -0.2365    0.8444 H   0  0  0  0  0  0  0  0  0  0  0  0
  1  2  1  0
  2  3  1  0
  3  4  1  0
  4  5  2  0
  3  6  1  0
  6  7  1  0
  7  8  1  0
  8  9  1  0
  9  6  1  0
  1 10  1  0
  1 11  1  0
  1 12  1  0
  3 13  1  0
  4 14  1  0
  6 15  1  0
  7 16  1  0
  7 17  1  0
  8 18  1  0
  8 19  1  0
M  END
