
     RDKit          3D

 21 20  0  0  0  0  0  0  0  0999 V2000
    2.7938   -0.5330   -0.4096 C   0  0  0  0  0  0  0  0  0  0  0  0
    1.8301   -0.5223    0.5919 O   0  0  0  0  0  0  0  0  0  0  0  0
    0.9203    0.4882    0.3946 C   0  0  0  0  0  0  0  0  0  0  0  0
    0.9015    1.4699    1.5746 C   0  0  0  0  0  0  0  0  0  0  0  0
   -0.5087   -0.0178    0.2763 C   0  0  0  0  0  0  0  0  0  0  0  0
   -0.6818   -0.8858   -0.7679 O   0  0  0  0  0  0  0  0  0  0  0  0
   -2.0047   -1.2923   -0.7913 C   0  0  0  0  0  0  0  0  0  0  0  0
   -2.9717   -0.1893   -0.9787 C   0  0  0  0  0  0  0  0  0  0  0  0
   -4.1761   -0.4767   -1.0015 O   0  0  0  0  0  0  0  0  0  0  0  0
    2.3779   -0.6801   -1.4154 H   0  0  0  0  0  0  0  0  0  0  0  0
    3.3814    0.4249   -0.3624 H   0  0  0  0  0  0  0  0  0  0  0  0
    3.4603   -1.4050   -0.1916 H   0  0  0  0  0  0  0  0  0  0  0  0
    1.1963    1.0384   -0.5240 H   0  0  0  0  0  0  0  0  0  0  0  0
    0.9284    0.9306    2.5371 H   0  0  0  0  0  0  0  0  0  0  0  0
    1.6966    2.2128    1.4468 H   0  0  0  0  0  0  0  0  0  0  0  0
   -0.0699    2.0368    1.5125 H   0  0  0  0  0  0  0  0  0  0  0  0
   -1.1235    0.8841    0.0930 H   0  0  0  0  0  0  0  0  0  0  0  0
   -0.8064   -0.5111    1.2309 H   0  0  0  0  0  0  0  0  0  0  0  0
   -2.2142   -1.7176    0.2344 H   0  0  0  0  0  0  0  0  0  0  0  0
   -2.1761   -2.1024   -1.5318 H   0  0  0  0  0  0  0  0  0  0  0  0
   -2.7535    0.8476   -1.0997 H   0  0  0  0  0  0  0  0  0  0  0  0
  1  2  1  0
  2  3  1  0
  3  4  1  0
  3  5  1  0
  5  6  1  0
  6  7  1  0
  7  8  1  0
  8  9  2  0
  1 10  1  0
  1 11  1  0
  1 12  1  0
  3 13  1  0
  4 14  1  0
  4 15  1  0
  4 16  1  0
  5 17  1  0
  5 18  1  0
  7 19  1  0
  7 20  1  0
  8 21  1  0
M  END
