
     RDKit          3D

 16 16  0  0  0  0  0  0  0  0999 V2000
    2.8133    0.0846    0.4404 C   0  0  0  0  0  0  0  0  0  0  0  0
    1.4845   -0.2680    0.3449 O   0  0  0  0  0  0  0  0  0  0  0  0
    0.4009    0.4736   -0.0269 C   0  0  0  0  0  0  0  0  0  0  0  0
    0.6098    1.6704   -0.3451 O   0  0  0  0  0  0  0  0  0  0  0  0
   -0.9864   -0.0670   -0.0680 C   0  0  0  0  0  0  0  0  0  0  0  0
   -2.1124    0.9036   -0.1095 C   0  0  0  0  0  0  0  0  0  0  0  0
   -1.1171   -1.4684   -0.3923 C   0  0  0  0  0  0  0  0  0  0  0  0
   -1.2495   -1.0463    1.0184 O   0  0  0  0  0  0  0  0  0  0  0  0
    3.1925    0.8200   -0.2881 H   0  0  0  0  0  0  0  0  0  0  0  0
    3.0708    0.4605    1.4566 H   0  0  0  0  0  0  0  0  0  0  0  0
    3.4098   -0.8739    0.3360 H   0  0  0  0  0  0  0  0  0  0  0  0
   -2.1481    1.5177   -1.0229 H   0  0  0  0  0  0  0  0  0  0  0  0
   -3.0788    0.3410   -0.0306 H   0  0  0  0  0  0  0  0  0  0  0  0
   -2.0708    1.5338    0.8218 H   0  0  0  0  0  0  0  0  0  0  0  0
   -2.0253   -2.0193   -0.6574 H   0  0  0  0  0  0  0  0  0  0  0  0
   -0.1931   -2.0623   -0.5540 H   0  0  0  0  0  0  0  0  0  0  0  0
  1  2  1  0
  2  3  1  0
  3  4  2  0
  3  5  1  0
  5  6  1  0
  5  7  1  0
  7  8  1  0
  8  5  1  0
  1  9  1  0
  1 10  1  0
  1 11  1  0
  6 12  1  0
  6 13  1  0
  6 14  1  0
  7 15  1  0
  7 16  1  0
M  END
