
     RDKit          3D

 21 20  0  0  0  0  0  0  0  0999 V2000
   -0.9197   -1.8136    0.9337 C   0  0  0  0  0  0  0  0  0  0  0  0
   -1.1624   -0.4938    0.7017 O   0  0  0  0  0  0  0  0  0  0  0  0
   -0.2932    0.1964   -0.0867 C   0  0  0  0  0  0  0  0  0  0  0  0
   -0.1753   -0.3690   -1.4874 C   0  0  0  0  0  0  0  0  0  0  0  0
   -0.9585    1.5782   -0.2890 C   0  0  0  0  0  0  0  0  0  0  0  0
   -0.1471    2.3503   -1.0971 O   0  0  0  0  0  0  0  0  0  0  0  0
    1.0493    0.5033    0.4878 C   0  0  0  0  0  0  0  0  0  0  0  0
    1.8744   -0.6385    0.8691 C   0  0  0  0  0  0  0  0  0  0  0  0
    2.1321   -1.4914    0.0481 O   0  0  0  0  0  0  0  0  0  0  0  0
   -1.7743   -2.1681    1.5847 H   0  0  0  0  0  0  0  0  0  0  0  0
   -0.9097   -2.4706    0.0706 H   0  0  0  0  0  0  0  0  0  0  0  0
   -0.0264   -2.0081    1.5940 H   0  0  0  0  0  0  0  0  0  0  0  0
   -1.1862   -0.3003   -1.9733 H   0  0  0  0  0  0  0  0  0  0  0  0
    0.1362   -1.4094   -1.5123 H   0  0  0  0  0  0  0  0  0  0  0  0
    0.4755    0.3396   -2.0445 H   0  0  0  0  0  0  0  0  0  0  0  0
   -1.9333    1.4266   -0.7438 H   0  0  0  0  0  0  0  0  0  0  0  0
   -1.1047    2.0301    0.7298 H   0  0  0  0  0  0  0  0  0  0  0  0
    0.1310    3.1844   -0.6400 H   0  0  0  0  0  0  0  0  0  0  0  0
    0.9168    1.2378    1.3006 H   0  0  0  0  0  0  0  0  0  0  0  0
    1.6237    1.0301   -0.3376 H   0  0  0  0  0  0  0  0  0  0  0  0
    2.2517   -0.7139    1.8916 H   0  0  0  0  0  0  0  0  0  0  0  0
  1  2  1  0
  2  3  1  0
  3  4  1  0
  3  5  1  0
  5  6  1  0
  3  7  1  0
  7  8  1  0
  8  9  2  0
  1 10  1  0
  1 11  1  0
  1 12  1  0
  4 13  1  0
  4 14  1  0
  4 15  1  0
  5 16  1  0
  5 17  1  0
  6 18  1  0
  7 19  1  0
  7 20  1  0
  8 21  1  0
M  END
