
     RDKit          3D

 19 18  0  0  0  0  0  0  0  0999 V2000
    3.4522    0.1497   -0.1926 C   0  0  0  0  0  0  0  0  0  0  0  0
    2.2228    0.7444    0.1421 O   0  0  0  0  0  0  0  0  0  0  0  0
    0.9863    0.1650   -0.0912 C   0  0  0  0  0  0  0  0  0  0  0  0
    0.9850   -0.9581   -0.6348 O   0  0  0  0  0  0  0  0  0  0  0  0
   -0.2324    0.8717    0.2973 C   0  0  0  0  0  0  0  0  0  0  0  0
   -0.1274    2.0007    0.8438 O   0  0  0  0  0  0  0  0  0  0  0  0
   -1.5739    0.3364    0.0847 C   0  0  0  0  0  0  0  0  0  0  0  0
   -1.8185   -0.9812    0.7738 C   0  0  0  0  0  0  0  0  0  0  0  0
   -1.7650    0.1293   -1.4169 C   0  0  0  0  0  0  0  0  0  0  0  0
    3.4601   -0.9377    0.0898 H   0  0  0  0  0  0  0  0  0  0  0  0
    4.2354    0.6869    0.4075 H   0  0  0  0  0  0  0  0  0  0  0  0
    3.7299    0.3034   -1.2577 H   0  0  0  0  0  0  0  0  0  0  0  0
   -2.3380    1.0945    0.3677 H   0  0  0  0  0  0  0  0  0  0  0  0
   -1.1116   -1.1726    1.6058 H   0  0  0  0  0  0  0  0  0  0  0  0
   -2.8326   -0.9317    1.2237 H   0  0  0  0  0  0  0  0  0  0  0  0
   -1.8342   -1.8058    0.0326 H   0  0  0  0  0  0  0  0  0  0  0  0
   -0.8846   -0.3562   -1.8842 H   0  0  0  0  0  0  0  0  0  0  0  0
   -2.6886   -0.4760   -1.6215 H   0  0  0  0  0  0  0  0  0  0  0  0
   -1.8648    1.1374   -1.9054 H   0  0  0  0  0  0  0  0  0  0  0  0
  1  2  1  0
  2  3  1  0
  3  4  2  0
  3  5  1  0
  5  6  2  0
  5  7  1  0
  7  8  1  0
  7  9  1  0
  1 10  1  0
  1 11  1  0
  1 12  1  0
  7 13  1  0
  8 14  1  0
  8 15  1  0
  8 16  1  0
  9 17  1  0
  9 18  1  0
  9 19  1  0
M  END
