
     RDKit          3D

 19 19  0  0  0  0  0  0  0  0999 V2000
    2.8212   -0.8009   -0.1264 C   0  0  0  0  0  0  0  0  0  0  0  0
    1.5709   -0.3561    0.3605 O   0  0  0  0  0  0  0  0  0  0  0  0
    0.6916    0.4287   -0.3722 C   0  0  0  0  0  0  0  0  0  0  0  0
    1.0570    0.7448   -1.5292 O   0  0  0  0  0  0  0  0  0  0  0  0
   -0.6159    0.8594    0.2142 C   0  0  0  0  0  0  0  0  0  0  0  0
   -1.2439    2.0148   -0.5109 C   0  0  0  0  0  0  0  0  0  0  0  0
   -0.8239    0.6565    1.5513 O   0  0  0  0  0  0  0  0  0  0  0  0
   -1.5602   -0.1659    0.7250 C   0  0  0  0  0  0  0  0  0  0  0  0
   -1.1861   -1.6167    0.5398 C   0  0  0  0  0  0  0  0  0  0  0  0
    3.3535   -0.0313   -0.7192 H   0  0  0  0  0  0  0  0  0  0  0  0
    3.4938   -0.9924    0.7631 H   0  0  0  0  0  0  0  0  0  0  0  0
    2.7367   -1.6999   -0.7586 H   0  0  0  0  0  0  0  0  0  0  0  0
   -2.2520    2.2670   -0.1291 H   0  0  0  0  0  0  0  0  0  0  0  0
   -1.3662    1.6823   -1.5831 H   0  0  0  0  0  0  0  0  0  0  0  0
   -0.6203    2.9272   -0.4717 H   0  0  0  0  0  0  0  0  0  0  0  0
   -2.6482    0.0470    0.6827 H   0  0  0  0  0  0  0  0  0  0  0  0
   -1.1011   -1.7867   -0.5680 H   0  0  0  0  0  0  0  0  0  0  0  0
   -0.2797   -1.9157    1.0681 H   0  0  0  0  0  0  0  0  0  0  0  0
   -2.0272   -2.2621    0.8637 H   0  0  0  0  0  0  0  0  0  0  0  0
  1  2  1  0
  2  3  1  0
  3  4  2  0
  3  5  1  0
  5  6  1  0
  5  7  1  0
  7  8  1  0
  8  9  1  0
  8  5  1  0
  1 10  1  0
  1 11  1  0
  1 12  1  0
  6 13  1  0
  6 14  1  0
  6 15  1  0
  8 16  1  0
  9 17  1  0
  9 18  1  0
  9 19  1  0
M  END
