
     RDKit          3D

 15 15  0  0  0  0  0  0  0  0999 V2000
    3.0764    0.4857    0.5245 C   0  0  0  0  0  0  0  0  0  0  0  0
    1.7125    0.6659    0.2856 O   0  0  0  0  0  0  0  0  0  0  0  0
    0.7025   -0.1495    0.7244 C   0  0  0  0  0  0  0  0  0  0  0  0
    1.0258   -1.1568    1.4068 O   0  0  0  0  0  0  0  0  0  0  0  0
   -0.6934    0.1840    0.3833 C   0  0  0  0  0  0  0  0  0  0  0  0
   -1.4174    0.3200    1.7020 O   0  0  0  0  0  0  0  0  0  0  0  0
   -1.8076   -0.6342    0.7022 C   0  0  0  0  0  0  0  0  0  0  0  0
   -3.1352   -0.3143    0.1444 C   0  0  0  0  0  0  0  0  0  0  0  0
   -3.4652    0.7996   -0.2238 O   0  0  0  0  0  0  0  0  0  0  0  0
    3.2446    0.0271    1.5187 H   0  0  0  0  0  0  0  0  0  0  0  0
    3.5395    1.5038    0.5831 H   0  0  0  0  0  0  0  0  0  0  0  0
    3.6024   -0.0452   -0.2956 H   0  0  0  0  0  0  0  0  0  0  0  0
   -0.8532    1.0959   -0.2227 H   0  0  0  0  0  0  0  0  0  0  0  0
   -1.6464   -1.6916    0.9959 H   0  0  0  0  0  0  0  0  0  0  0  0
   -3.8854   -1.0904    0.0413 H   0  0  0  0  0  0  0  0  0  0  0  0
  1  2  1  0
  2  3  1  0
  3  4  2  0
  3  5  1  0
  5  6  1  0
  6  7  1  0
  7  8  1  0
  8  9  2  0
  7  5  1  0
  1 10  1  0
  1 11  1  0
  1 12  1  0
  5 13  1  0
  7 14  1  0
  8 15  1  0
M  END
