
     RDKit          3D

 25 24  0  0  0  0  0  0  0  0999 V2000
    2.3993   -1.2078    0.5863 C   0  0  0  0  0  0  0  0  0  0  0  0
    1.4693   -0.7900   -0.3485 O   0  0  0  0  0  0  0  0  0  0  0  0
    0.6963    0.2621    0.0756 C   0  0  0  0  0  0  0  0  0  0  0  0
    0.9017    1.4305   -0.8442 C   0  0  0  0  0  0  0  0  0  0  0  0
    0.1747    2.5458   -0.5155 O   0  0  0  0  0  0  0  0  0  0  0  0
   -0.7579   -0.1667    0.1097 C   0  0  0  0  0  0  0  0  0  0  0  0
   -0.9501   -1.3181    1.0462 C   0  0  0  0  0  0  0  0  0  0  0  0
   -1.6628    0.9564    0.5619 C   0  0  0  0  0  0  0  0  0  0  0  0
   -1.1078   -0.6345   -1.2878 C   0  0  0  0  0  0  0  0  0  0  0  0
    3.1202   -0.4251    0.8771 H   0  0  0  0  0  0  0  0  0  0  0  0
    1.9323   -1.6234    1.5098 H   0  0  0  0  0  0  0  0  0  0  0  0
    2.9674   -2.0454    0.1347 H   0  0  0  0  0  0  0  0  0  0  0  0
    0.9624    0.5914    1.1082 H   0  0  0  0  0  0  0  0  0  0  0  0
    0.6618    1.1434   -1.8986 H   0  0  0  0  0  0  0  0  0  0  0  0
    1.9755    1.7091   -0.8324 H   0  0  0  0  0  0  0  0  0  0  0  0
   -0.2807    2.9803   -1.2697 H   0  0  0  0  0  0  0  0  0  0  0  0
   -0.6209   -2.2602    0.5352 H   0  0  0  0  0  0  0  0  0  0  0  0
   -2.0397   -1.4416    1.2284 H   0  0  0  0  0  0  0  0  0  0  0  0
   -0.4440   -1.1767    2.0161 H   0  0  0  0  0  0  0  0  0  0  0  0
   -2.0574    1.5386   -0.2978 H   0  0  0  0  0  0  0  0  0  0  0  0
   -2.5578    0.5868    1.1090 H   0  0  0  0  0  0  0  0  0  0  0  0
   -1.1294    1.6205    1.3028 H   0  0  0  0  0  0  0  0  0  0  0  0
   -1.8787    0.0706   -1.6842 H   0  0  0  0  0  0  0  0  0  0  0  0
   -0.2172   -0.6977   -1.9498 H   0  0  0  0  0  0  0  0  0  0  0  0
   -1.5565   -1.6484   -1.2724 H   0  0  0  0  0  0  0  0  0  0  0  0
  1  2  1  0
  2  3  1  0
  3  4  1  0
  4  5  1  0
  3  6  1  0
  6  7  1  0
  6  8  1  0
  6  9  1  0
  1 10  1  0
  1 11  1  0
  1 12  1  0
  3 13  1  0
  4 14  1  0
  4 15  1  0
  5 16  1  0
  7 17  1  0
  7 18  1  0
  7 19  1  0
  8 20  1  0
  8 21  1  0
  8 22  1  0
  9 23  1  0
  9 24  1  0
  9 25  1  0
M  END
