
     RDKit          3D

 13 12  0  0  0  0  0  0  0  0999 V2000
    2.5552   -0.1905   -0.3304 C   0  0  0  0  0  0  0  0  0  0  0  0
    1.2721   -0.7510   -0.2316 O   0  0  0  0  0  0  0  0  0  0  0  0
    0.1433    0.0556   -0.1872 C   0  0  0  0  0  0  0  0  0  0  0  0
    0.3431    1.2959   -0.2403 O   0  0  0  0  0  0  0  0  0  0  0  0
   -1.2054   -0.5095   -0.0843 C   0  0  0  0  0  0  0  0  0  0  0  0
   -2.4058    0.3570   -0.0374 C   0  0  0  0  0  0  0  0  0  0  0  0
   -1.3941   -1.7494   -0.0319 O   0  0  0  0  0  0  0  0  0  0  0  0
    3.2415   -0.8683    0.2519 H   0  0  0  0  0  0  0  0  0  0  0  0
    2.9541   -0.1665   -1.3515 H   0  0  0  0  0  0  0  0  0  0  0  0
    2.6305    0.7944    0.1960 H   0  0  0  0  0  0  0  0  0  0  0  0
   -3.0761    0.1423   -0.9125 H   0  0  0  0  0  0  0  0  0  0  0  0
   -2.9722    0.1675    0.9190 H   0  0  0  0  0  0  0  0  0  0  0  0
   -2.0864    1.4225   -0.0270 H   0  0  0  0  0  0  0  0  0  0  0  0
  1  2  1  0
  2  3  1  0
  3  4  2  0
  3  5  1  0
  5  6  1  0
  5  7  2  0
  1  8  1  0
  1  9  1  0
  1 10  1  0
  6 11  1  0
  6 12  1  0
  6 13  1  0
M  END
