
     RDKit          3D

 17 16  0  0  0  0  0  0  0  0999 V2000
    2.0655    0.0662   -0.0715 C   0  0  0  0  0  0  0  0  0  0  0  0
    0.9497   -0.6498   -0.3716 O   0  0  0  0  0  0  0  0  0  0  0  0
   -0.2591   -0.1605    0.0190 C   0  0  0  0  0  0  0  0  0  0  0  0
   -1.3002   -1.1800   -0.4861 C   0  0  0  0  0  0  0  0  0  0  0  0
   -0.6289    1.1637   -0.5934 C   0  0  0  0  0  0  0  0  0  0  0  0
   -0.4848   -0.0916    1.4763 C   0  0  0  0  0  0  0  0  0  0  0  0
    0.3837   -0.4754    2.2341 O   0  0  0  0  0  0  0  0  0  0  0  0
    2.9395   -0.5186   -0.4879 H   0  0  0  0  0  0  0  0  0  0  0  0
    2.1307    1.0556   -0.5669 H   0  0  0  0  0  0  0  0  0  0  0  0
    2.2382    0.1572    1.0100 H   0  0  0  0  0  0  0  0  0  0  0  0
   -0.8898   -2.1716   -0.1848 H   0  0  0  0  0  0  0  0  0  0  0  0
   -2.2904   -0.9748   -0.0792 H   0  0  0  0  0  0  0  0  0  0  0  0
   -1.2301   -1.1395   -1.5865 H   0  0  0  0  0  0  0  0  0  0  0  0
   -0.7252    1.9543    0.1971 H   0  0  0  0  0  0  0  0  0  0  0  0
    0.1107    1.5328   -1.3214 H   0  0  0  0  0  0  0  0  0  0  0  0
   -1.6206    1.1468   -1.1016 H   0  0  0  0  0  0  0  0  0  0  0  0
   -1.3891    0.2852    1.9145 H   0  0  0  0  0  0  0  0  0  0  0  0
  1  2  1  0
  2  3  1  0
  3  4  1  0
  3  5  1  0
  3  6  1  0
  6  7  2  0
  1  8  1  0
  1  9  1  0
  1 10  1  0
  4 11  1  0
  4 12  1  0
  4 13  1  0
  5 14  1  0
  5 15  1  0
  5 16  1  0
  6 17  1  0
M  END
