
     RDKit          3D

 20 20  0  0  0  0  0  0  0  0999 V2000
    1.9932   -1.4157   -0.9633 C   0  0  0  0  0  0  0  0  0  0  0  0
    1.7214   -0.2762   -0.2554 O   0  0  0  0  0  0  0  0  0  0  0  0
    0.4598    0.2219   -0.4050 C   0  0  0  0  0  0  0  0  0  0  0  0
    0.4197    1.5914   -1.0479 C   0  0  0  0  0  0  0  0  0  0  0  0
   -0.3661    0.2270    0.8462 C   0  0  0  0  0  0  0  0  0  0  0  0
   -1.7469    0.7964    0.5811 C   0  0  0  0  0  0  0  0  0  0  0  0
   -2.2275   -0.1406    1.5066 O   0  0  0  0  0  0  0  0  0  0  0  0
   -1.2335   -1.0028    1.0312 C   0  0  0  0  0  0  0  0  0  0  0  0
    1.8881   -1.3154   -2.0601 H   0  0  0  0  0  0  0  0  0  0  0  0
    3.0827   -1.6526   -0.7960 H   0  0  0  0  0  0  0  0  0  0  0  0
    1.4353   -2.3057   -0.6450 H   0  0  0  0  0  0  0  0  0  0  0  0
   -0.0851   -0.4667   -1.1176 H   0  0  0  0  0  0  0  0  0  0  0  0
   -0.6690    1.8203   -1.2100 H   0  0  0  0  0  0  0  0  0  0  0  0
    0.8629    2.3611   -0.3822 H   0  0  0  0  0  0  0  0  0  0  0  0
    0.8674    1.5857   -2.0622 H   0  0  0  0  0  0  0  0  0  0  0  0
    0.0532    0.6717    1.7377 H   0  0  0  0  0  0  0  0  0  0  0  0
   -1.8861    1.8383    0.9577 H   0  0  0  0  0  0  0  0  0  0  0  0
   -2.1677    0.5908   -0.4064 H   0  0  0  0  0  0  0  0  0  0  0  0
   -1.5378   -1.3849    0.0403 H   0  0  0  0  0  0  0  0  0  0  0  0
   -0.8638   -1.7439    1.7535 H   0  0  0  0  0  0  0  0  0  0  0  0
  1  2  1  0
  2  3  1  0
  3  4  1  0
  3  5  1  0
  5  6  1  0
  6  7  1  0
  7  8  1  0
  8  5  1  0
  1  9  1  0
  1 10  1  0
  1 11  1  0
  3 12  1  0
  4 13  1  0
  4 14  1  0
  4 15  1  0
  5 16  1  0
  6 17  1  0
  6 18  1  0
  8 19  1  0
  8 20  1  0
M  END
