
     RDKit          3D

 20 20  0  0  0  0  0  0  0  0999 V2000
    2.2447    0.6189    0.3239 C   0  0  0  0  0  0  0  0  0  0  0  0
    1.1862    0.0091    0.9739 O   0  0  0  0  0  0  0  0  0  0  0  0
    0.1078   -0.2650    0.1761 C   0  0  0  0  0  0  0  0  0  0  0  0
   -0.9264   -0.9277    1.0921 C   0  0  0  0  0  0  0  0  0  0  0  0
    0.4066   -1.3088   -0.8920 C   0  0  0  0  0  0  0  0  0  0  0  0
   -0.4879    0.9497   -0.4793 C   0  0  0  0  0  0  0  0  0  0  0  0
   -1.9868    1.2012   -0.3129 C   0  0  0  0  0  0  0  0  0  0  0  0
   -0.9850    1.9825    0.2703 O   0  0  0  0  0  0  0  0  0  0  0  0
    1.9914    1.5865   -0.1300 H   0  0  0  0  0  0  0  0  0  0  0  0
    3.0201    0.8298    1.0983 H   0  0  0  0  0  0  0  0  0  0  0  0
    2.7402   -0.0452   -0.4207 H   0  0  0  0  0  0  0  0  0  0  0  0
   -1.2552   -0.2501    1.8941 H   0  0  0  0  0  0  0  0  0  0  0  0
   -1.7838   -1.3232    0.5228 H   0  0  0  0  0  0  0  0  0  0  0  0
   -0.3570   -1.7542    1.6101 H   0  0  0  0  0  0  0  0  0  0  0  0
    1.0508   -0.9019   -1.6948 H   0  0  0  0  0  0  0  0  0  0  0  0
   -0.5828   -1.5747   -1.3315 H   0  0  0  0  0  0  0  0  0  0  0  0
    0.8206   -2.2160   -0.4227 H   0  0  0  0  0  0  0  0  0  0  0  0
   -0.1136    1.1702   -1.4972 H   0  0  0  0  0  0  0  0  0  0  0  0
   -2.5556    0.5608    0.3868 H   0  0  0  0  0  0  0  0  0  0  0  0
   -2.5345    1.6582   -1.1673 H   0  0  0  0  0  0  0  0  0  0  0  0
  1  2  1  0
  2  3  1  0
  3  4  1  0
  3  5  1  0
  3  6  1  0
  6  7  1  0
  7  8  1  0
  8  6  1  0
  1  9  1  0
  1 10  1  0
  1 11  1  0
  4 12  1  0
  4 13  1  0
  4 14  1  0
  5 15  1  0
  5 16  1  0
  5 17  1  0
  6 18  1  0
  7 19  1  0
  7 20  1  0
M  END
