
     RDKit          3D

 17 16  0  0  0  0  0  0  0  0999 V2000
   -2.9571   -0.6434   -0.1058 C   0  0  0  0  0  0  0  0  0  0  0  0
   -1.8925    0.1916   -0.5171 O   0  0  0  0  0  0  0  0  0  0  0  0
   -0.9813    0.7520    0.3507 C   0  0  0  0  0  0  0  0  0  0  0  0
   -1.0978    0.5109    1.5822 O   0  0  0  0  0  0  0  0  0  0  0  0
    0.1145    1.6215   -0.1580 C   0  0  0  0  0  0  0  0  0  0  0  0
    1.3756    0.8115   -0.2132 C   0  0  0  0  0  0  0  0  0  0  0  0
    2.4558    1.2897   -0.6047 O   0  0  0  0  0  0  0  0  0  0  0  0
    1.3741   -0.5199    0.1787 O   0  0  0  0  0  0  0  0  0  0  0  0
    2.5676   -1.2741    0.1227 C   0  0  0  0  0  0  0  0  0  0  0  0
   -3.8916   -0.0786   -0.2464 H   0  0  0  0  0  0  0  0  0  0  0  0
   -2.9403   -1.5168   -0.8309 H   0  0  0  0  0  0  0  0  0  0  0  0
   -2.8508   -1.0167    0.9171 H   0  0  0  0  0  0  0  0  0  0  0  0
    0.2407    2.5089    0.4943 H   0  0  0  0  0  0  0  0  0  0  0  0
   -0.0965    1.9649   -1.1696 H   0  0  0  0  0  0  0  0  0  0  0  0
    3.2215   -0.9549   -0.7199 H   0  0  0  0  0  0  0  0  0  0  0  0
    3.1130   -1.3239    1.0649 H   0  0  0  0  0  0  0  0  0  0  0  0
    2.2452   -2.3226   -0.1451 H   0  0  0  0  0  0  0  0  0  0  0  0
  1  2  1  0
  2  3  1  0
  3  4  2  0
  3  5  1  0
  5  6  1  0
  6  7  2  0
  6  8  1  0
  8  9  1  0
  1 10  1  0
  1 11  1  0
  1 12  1  0
  5 13  1  0
  5 14  1  0
  9 15  1  0
  9 16  1  0
  9 17  1  0
M  END
