
     RDKit          3D

 20 19  0  0  0  0  0  0  0  0999 V2000
   -2.1083   -1.2580   -0.1685 C   0  0  0  0  0  0  0  0  0  0  0  0
   -1.3241   -0.4469   -0.9820 O   0  0  0  0  0  0  0  0  0  0  0  0
   -0.6705    0.4946   -0.2259 C   0  0  0  0  0  0  0  0  0  0  0  0
   -1.1233    1.8826   -0.6911 C   0  0  0  0  0  0  0  0  0  0  0  0
    0.8215    0.4609   -0.3647 C   0  0  0  0  0  0  0  0  0  0  0  0
    1.4406   -0.8407    0.0374 C   0  0  0  0  0  0  0  0  0  0  0  0
    2.9143   -0.7224   -0.1538 C   0  0  0  0  0  0  0  0  0  0  0  0
    3.4581    0.2865   -0.5689 O   0  0  0  0  0  0  0  0  0  0  0  0
   -1.5285   -1.8007    0.5936 H   0  0  0  0  0  0  0  0  0  0  0  0
   -2.8842   -0.6714    0.3862 H   0  0  0  0  0  0  0  0  0  0  0  0
   -2.6610   -2.0015   -0.7926 H   0  0  0  0  0  0  0  0  0  0  0  0
   -0.9294    0.3753    0.8437 H   0  0  0  0  0  0  0  0  0  0  0  0
   -1.0233    2.5492    0.1669 H   0  0  0  0  0  0  0  0  0  0  0  0
   -2.1407    1.8763   -1.0799 H   0  0  0  0  0  0  0  0  0  0  0  0
   -0.4407    2.2425   -1.5026 H   0  0  0  0  0  0  0  0  0  0  0  0
    1.2272    1.2482    0.3248 H   0  0  0  0  0  0  0  0  0  0  0  0
    1.1503    0.6926   -1.3961 H   0  0  0  0  0  0  0  0  0  0  0  0
    1.0786   -1.6797   -0.5988 H   0  0  0  0  0  0  0  0  0  0  0  0
    1.1881   -1.1223    1.0796 H   0  0  0  0  0  0  0  0  0  0  0  0
    3.5552   -1.5649    0.0822 H   0  0  0  0  0  0  0  0  0  0  0  0
  1  2  1  0
  2  3  1  0
  3  4  1  0
  3  5  1  0
  5  6  1  0
  6  7  1  0
  7  8  2  0
  1  9  1  0
  1 10  1  0
  1 11  1  0
  3 12  1  0
  4 13  1  0
  4 14  1  0
  4 15  1  0
  5 16  1  0
  5 17  1  0
  6 18  1  0
  6 19  1  0
  7 20  1  0
M  END
