
     RDKit          3D

 19 20  0  0  0  0  0  0  0  0999 V2000
    2.2088   -0.6547   -0.6197 C   0  0  0  0  0  0  0  0  0  0  0  0
    1.0292   -0.3106   -1.2222 O   0  0  0  0  0  0  0  0  0  0  0  0
    0.0714    0.0360   -0.2841 C   0  0  0  0  0  0  0  0  0  0  0  0
   -1.1287   -0.9166   -0.3846 C   0  0  0  0  0  0  0  0  0  0  0  0
   -1.3288   -1.8854    0.6985 C   0  0  0  0  0  0  0  0  0  0  0  0
   -2.1829   -0.6738    0.5205 O   0  0  0  0  0  0  0  0  0  0  0  0
   -0.4625    1.4231   -0.4895 C   0  0  0  0  0  0  0  0  0  0  0  0
   -0.3500    2.3215    0.7245 C   0  0  0  0  0  0  0  0  0  0  0  0
    0.3891    2.5130   -0.4353 O   0  0  0  0  0  0  0  0  0  0  0  0
    2.0919   -1.5280    0.0720 H   0  0  0  0  0  0  0  0  0  0  0  0
    2.6492    0.1643   -0.0010 H   0  0  0  0  0  0  0  0  0  0  0  0
    2.9837   -0.9113   -1.3678 H   0  0  0  0  0  0  0  0  0  0  0  0
    0.5241   -0.0596    0.7224 H   0  0  0  0  0  0  0  0  0  0  0  0
   -1.4043   -1.2665   -1.4061 H   0  0  0  0  0  0  0  0  0  0  0  0
   -0.7229   -1.8472    1.6063 H   0  0  0  0  0  0  0  0  0  0  0  0
   -1.9635   -2.7785    0.4885 H   0  0  0  0  0  0  0  0  0  0  0  0
   -1.3702    1.4651   -1.1219 H   0  0  0  0  0  0  0  0  0  0  0  0
    0.2293    1.9966    1.5892 H   0  0  0  0  0  0  0  0  0  0  0  0
   -1.2628    2.9125    0.9103 H   0  0  0  0  0  0  0  0  0  0  0  0
  1  2  1  0
  2  3  1  0
  3  4  1  0
  4  5  1  0
  5  6  1  0
  3  7  1  0
  7  8  1  0
  8  9  1  0
  6  4  1  0
  9  7  1  0
  1 10  1  0
  1 11  1  0
  1 12  1  0
  3 13  1  0
  4 14  1  0
  5 15  1  0
  5 16  1  0
  7 17  1  0
  8 18  1  0
  8 19  1  0
M  END
