
     RDKit          3D

 17 18  0  0  0  0  0  0  0  0999 V2000
    2.6142   -0.1048    1.1025 C   0  0  0  0  0  0  0  0  0  0  0  0
    1.2749   -0.3051    0.6907 O   0  0  0  0  0  0  0  0  0  0  0  0
    0.5290    0.6241    0.0048 C   0  0  0  0  0  0  0  0  0  0  0  0
    1.0534    1.7342   -0.2865 O   0  0  0  0  0  0  0  0  0  0  0  0
   -0.8723    0.4209   -0.4289 C   0  0  0  0  0  0  0  0  0  0  0  0
   -1.8429    0.1615    0.6708 C   0  0  0  0  0  0  0  0  0  0  0  0
   -2.5364   -0.7899   -0.0957 O   0  0  0  0  0  0  0  0  0  0  0  0
   -1.3553   -0.9259   -0.8476 C   0  0  0  0  0  0  0  0  0  0  0  0
   -1.1264    0.1277   -1.8413 C   0  0  0  0  0  0  0  0  0  0  0  0
    3.3124   -0.0392    0.2183 H   0  0  0  0  0  0  0  0  0  0  0  0
    2.9184   -1.0430    1.6276 H   0  0  0  0  0  0  0  0  0  0  0  0
    2.7201    0.7782    1.7654 H   0  0  0  0  0  0  0  0  0  0  0  0
   -2.4292    1.0179    1.0064 H   0  0  0  0  0  0  0  0  0  0  0  0
   -1.3292   -0.4028    1.5043 H   0  0  0  0  0  0  0  0  0  0  0  0
   -0.7479   -1.8225   -0.7322 H   0  0  0  0  0  0  0  0  0  0  0  0
   -0.2124   -0.0140   -2.4860 H   0  0  0  0  0  0  0  0  0  0  0  0
   -1.9703    0.5826   -2.4141 H   0  0  0  0  0  0  0  0  0  0  0  0
  1  2  1  0
  2  3  1  0
  3  4  2  0
  3  5  1  0
  5  6  1  0
  6  7  1  0
  7  8  1  0
  8  9  1  0
  8  5  1  0
  9  5  1  0
  1 10  1  0
  1 11  1  0
  1 12  1  0
  6 13  1  0
  6 14  1  0
  8 15  1  0
  9 16  1  0
  9 17  1  0
M  END
