
     RDKit          3D

 25 25  0  0  0  0  0  0  0  0999 V2000
    2.7031    0.9545    0.6894 C   0  0  0  0  0  0  0  0  0  0  0  0
    1.3533    1.1070    0.4914 O   0  0  0  0  0  0  0  0  0  0  0  0
    0.7314    0.0643   -0.1340 C   0  0  0  0  0  0  0  0  0  0  0  0
    1.3316   -0.1558   -1.5047 C   0  0  0  0  0  0  0  0  0  0  0  0
    0.8539   -1.2276    0.6263 C   0  0  0  0  0  0  0  0  0  0  0  0
   -0.7409    0.4620   -0.3145 C   0  0  0  0  0  0  0  0  0  0  0  0
   -1.6786   -0.4795   -0.9714 C   0  0  0  0  0  0  0  0  0  0  0  0
   -1.7813   -0.2000    0.5041 C   0  0  0  0  0  0  0  0  0  0  0  0
   -3.0268    0.6020    0.8732 C   0  0  0  0  0  0  0  0  0  0  0  0
    3.2920    0.8225   -0.2379 H   0  0  0  0  0  0  0  0  0  0  0  0
    2.9564    0.1618    1.4246 H   0  0  0  0  0  0  0  0  0  0  0  0
    3.0764    1.9112    1.1435 H   0  0  0  0  0  0  0  0  0  0  0  0
    2.3390   -0.5954   -1.3526 H   0  0  0  0  0  0  0  0  0  0  0  0
    1.4054    0.7812   -2.0910 H   0  0  0  0  0  0  0  0  0  0  0  0
    0.7454   -0.9416   -2.0542 H   0  0  0  0  0  0  0  0  0  0  0  0
    1.8816   -1.6197    0.4263 H   0  0  0  0  0  0  0  0  0  0  0  0
    0.1645   -1.9884    0.1895 H   0  0  0  0  0  0  0  0  0  0  0  0
    0.6530   -1.1195    1.7073 H   0  0  0  0  0  0  0  0  0  0  0  0
   -0.9312    1.5325   -0.5428 H   0  0  0  0  0  0  0  0  0  0  0  0
   -1.3852   -1.5289   -1.1978 H   0  0  0  0  0  0  0  0  0  0  0  0
   -2.4719   -0.1148   -1.6591 H   0  0  0  0  0  0  0  0  0  0  0  0
   -1.5138   -0.9787    1.2248 H   0  0  0  0  0  0  0  0  0  0  0  0
   -2.9299    1.6269    0.4077 H   0  0  0  0  0  0  0  0  0  0  0  0
   -3.1076    0.7687    1.9495 H   0  0  0  0  0  0  0  0  0  0  0  0
   -3.9198    0.1555    0.4026 H   0  0  0  0  0  0  0  0  0  0  0  0
  1  2  1  0
  2  3  1  0
  3  4  1  0
  3  5  1  0
  3  6  1  0
  6  7  1  0
  7  8  1  0
  8  9  1  0
  8  6  1  0
  1 10  1  0
  1 11  1  0
  1 12  1  0
  4 13  1  0
  4 14  1  0
  4 15  1  0
  5 16  1  0
  5 17  1  0
  5 18  1  0
  6 19  1  0
  7 20  1  0
  7 21  1  0
  8 22  1  0
  9 23  1  0
  9 24  1  0
  9 25  1  0
M  END
