
     RDKit          3D

 21 20  0  0  0  0  0  0  0  0999 V2000
    1.8685    0.7549   -1.5431 C   0  0  0  0  0  0  0  0  0  0  0  0
    1.1953   -0.2801   -0.9331 O   0  0  0  0  0  0  0  0  0  0  0  0
    0.6361    0.0104    0.2894 C   0  0  0  0  0  0  0  0  0  0  0  0
    1.2957   -0.7577    1.4224 C   0  0  0  0  0  0  0  0  0  0  0  0
    2.6374   -0.4826    1.5358 O   0  0  0  0  0  0  0  0  0  0  0  0
   -0.8321   -0.2927    0.4056 C   0  0  0  0  0  0  0  0  0  0  0  0
   -1.7075    0.4135   -0.5262 C   0  0  0  0  0  0  0  0  0  0  0  0
   -3.1734    0.1292   -0.4346 C   0  0  0  0  0  0  0  0  0  0  0  0
   -1.3735    1.2155   -1.3774 O   0  0  0  0  0  0  0  0  0  0  0  0
    1.2900    1.6523   -1.7648 H   0  0  0  0  0  0  0  0  0  0  0  0
    2.2520    0.3611   -2.5116 H   0  0  0  0  0  0  0  0  0  0  0  0
    2.7707    1.0817   -0.9800 H   0  0  0  0  0  0  0  0  0  0  0  0
    0.8506    1.0780    0.5061 H   0  0  0  0  0  0  0  0  0  0  0  0
    0.7606   -0.4996    2.3490 H   0  0  0  0  0  0  0  0  0  0  0  0
    1.1620   -1.8298    1.2204 H   0  0  0  0  0  0  0  0  0  0  0  0
    3.0748   -1.2919    1.9137 H   0  0  0  0  0  0  0  0  0  0  0  0
   -1.0110   -1.3938    0.2586 H   0  0  0  0  0  0  0  0  0  0  0  0
   -1.1034   -0.1171    1.4819 H   0  0  0  0  0  0  0  0  0  0  0  0
   -3.7159    1.1103   -0.5302 H   0  0  0  0  0  0  0  0  0  0  0  0
   -3.4538   -0.3413    0.5104 H   0  0  0  0  0  0  0  0  0  0  0  0
   -3.4232   -0.5202   -1.2922 H   0  0  0  0  0  0  0  0  0  0  0  0
  1  2  1  0
  2  3  1  0
  3  4  1  0
  4  5  1  0
  3  6  1  0
  6  7  1  0
  7  8  1  0
  7  9  2  0
  1 10  1  0
  1 11  1  0
  1 12  1  0
  3 13  1  0
  4 14  1  0
  4 15  1  0
  5 16  1  0
  6 17  1  0
  6 18  1  0
  8 19  1  0
  8 20  1  0
  8 21  1  0
M  END
