
     RDKit          3D

 23 22  0  0  0  0  0  0  0  0999 V2000
    2.1241    0.0991   -1.1028 C   0  0  0  0  0  0  0  0  0  0  0  0
    0.8121    0.4131   -0.8333 O   0  0  0  0  0  0  0  0  0  0  0  0
    0.3040   -0.2045    0.2831 C   0  0  0  0  0  0  0  0  0  0  0  0
    0.4023   -1.7131    0.0423 C   0  0  0  0  0  0  0  0  0  0  0  0
    1.0009    0.1850    1.5277 C   0  0  0  0  0  0  0  0  0  0  0  0
    0.7084   -0.2453    2.6257 O   0  0  0  0  0  0  0  0  0  0  0  0
   -1.1639    0.1989    0.4056 C   0  0  0  0  0  0  0  0  0  0  0  0
   -1.1988    1.6947    0.5381 C   0  0  0  0  0  0  0  0  0  0  0  0
   -1.9570   -0.2153   -0.7948 C   0  0  0  0  0  0  0  0  0  0  0  0
    2.4080    0.6664   -2.0308 H   0  0  0  0  0  0  0  0  0  0  0  0
    2.2857   -0.9717   -1.3402 H   0  0  0  0  0  0  0  0  0  0  0  0
    2.8355    0.4307   -0.3138 H   0  0  0  0  0  0  0  0  0  0  0  0
    1.4289   -2.0509    0.3177 H   0  0  0  0  0  0  0  0  0  0  0  0
    0.2690   -1.9348   -1.0391 H   0  0  0  0  0  0  0  0  0  0  0  0
   -0.3542   -2.2651    0.6510 H   0  0  0  0  0  0  0  0  0  0  0  0
    1.8185    0.8909    1.4753 H   0  0  0  0  0  0  0  0  0  0  0  0
   -1.6254   -0.2239    1.3248 H   0  0  0  0  0  0  0  0  0  0  0  0
   -2.2393    2.0586    0.4941 H   0  0  0  0  0  0  0  0  0  0  0  0
   -0.6614    2.1173   -0.3319 H   0  0  0  0  0  0  0  0  0  0  0  0
   -0.6476    2.0055    1.4383 H   0  0  0  0  0  0  0  0  0  0  0  0
   -2.6584    0.5975   -1.1089 H   0  0  0  0  0  0  0  0  0  0  0  0
   -1.3111   -0.4376   -1.6794 H   0  0  0  0  0  0  0  0  0  0  0  0
   -2.5805   -1.0954   -0.5484 H   0  0  0  0  0  0  0  0  0  0  0  0
  1  2  1  0
  2  3  1  0
  3  4  1  0
  3  5  1  0
  5  6  2  0
  3  7  1  0
  7  8  1  0
  7  9  1  0
  1 10  1  0
  1 11  1  0
  1 12  1  0
  4 13  1  0
  4 14  1  0
  4 15  1  0
  5 16  1  0
  7 17  1  0
  8 18  1  0
  8 19  1  0
  8 20  1  0
  9 21  1  0
  9 22  1  0
  9 23  1  0
M  END
