
     RDKit          3D

 21 20  0  0  0  0  0  0  0  0999 V2000
    2.8362    1.0375    0.0057 C   0  0  0  0  0  0  0  0  0  0  0  0
    1.4527    0.9000   -0.2427 O   0  0  0  0  0  0  0  0  0  0  0  0
    0.7741   -0.2639    0.0549 C   0  0  0  0  0  0  0  0  0  0  0  0
    1.4681   -1.1965    0.5627 O   0  0  0  0  0  0  0  0  0  0  0  0
   -0.6703   -0.4866   -0.1743 C   0  0  0  0  0  0  0  0  0  0  0  0
   -1.2545   -0.9977    1.1257 C   0  0  0  0  0  0  0  0  0  0  0  0
   -0.7685   -1.6549   -1.1643 C   0  0  0  0  0  0  0  0  0  0  0  0
   -1.3383    0.5604   -0.7157 O   0  0  0  0  0  0  0  0  0  0  0  0
   -1.3514    1.7332   -0.0180 C   0  0  0  0  0  0  0  0  0  0  0  0
    3.1516    0.5735    0.9592 H   0  0  0  0  0  0  0  0  0  0  0  0
    3.4359    0.5498   -0.8016 H   0  0  0  0  0  0  0  0  0  0  0  0
    3.0585    2.1425    0.0195 H   0  0  0  0  0  0  0  0  0  0  0  0
   -2.2257   -1.4830    0.8472 H   0  0  0  0  0  0  0  0  0  0  0  0
   -1.3464   -0.2365    1.8961 H   0  0  0  0  0  0  0  0  0  0  0  0
   -0.5355   -1.7647    1.5127 H   0  0  0  0  0  0  0  0  0  0  0  0
   -1.8036   -2.0480   -1.2148 H   0  0  0  0  0  0  0  0  0  0  0  0
   -0.0634   -2.4593   -0.9132 H   0  0  0  0  0  0  0  0  0  0  0  0
   -0.5459   -1.2630   -2.1918 H   0  0  0  0  0  0  0  0  0  0  0  0
   -1.8130    1.6453    1.0003 H   0  0  0  0  0  0  0  0  0  0  0  0
   -0.3996    2.2888    0.0187 H   0  0  0  0  0  0  0  0  0  0  0  0
   -2.0614    2.4232   -0.5662 H   0  0  0  0  0  0  0  0  0  0  0  0
  1  2  1  0
  2  3  1  0
  3  4  2  0
  3  5  1  0
  5  6  1  0
  5  7  1  0
  5  8  1  0
  8  9  1  0
  1 10  1  0
  1 11  1  0
  1 12  1  0
  6 13  1  0
  6 14  1  0
  6 15  1  0
  7 16  1  0
  7 17  1  0
  7 18  1  0
  9 19  1  0
  9 20  1  0
  9 21  1  0
M  END
