
     RDKit          3D

 21 20  0  0  0  0  0  0  0  0999 V2000
   -1.1652    1.9341   -0.1996 C   0  0  0  0  0  0  0  0  0  0  0  0
   -0.6103    0.8067   -0.8250 O   0  0  0  0  0  0  0  0  0  0  0  0
   -0.1468   -0.1193    0.0588 C   0  0  0  0  0  0  0  0  0  0  0  0
   -0.7922   -1.5024   -0.1245 C   0  0  0  0  0  0  0  0  0  0  0  0
   -2.2553   -1.4854    0.0348 C   0  0  0  0  0  0  0  0  0  0  0  0
   -2.9024   -0.6441   -0.5533 O   0  0  0  0  0  0  0  0  0  0  0  0
    1.3352   -0.4217   -0.1332 C   0  0  0  0  0  0  0  0  0  0  0  0
    2.2203    0.7525   -0.1489 C   0  0  0  0  0  0  0  0  0  0  0  0
    1.6689   -1.3637    0.8382 O   0  0  0  0  0  0  0  0  0  0  0  0
   -0.4081    2.4506    0.4569 H   0  0  0  0  0  0  0  0  0  0  0  0
   -2.0587    1.7298    0.3842 H   0  0  0  0  0  0  0  0  0  0  0  0
   -1.4296    2.6500   -0.9772 H   0  0  0  0  0  0  0  0  0  0  0  0
   -0.3146    0.1885    1.0970 H   0  0  0  0  0  0  0  0  0  0  0  0
   -0.2688   -2.1652    0.5782 H   0  0  0  0  0  0  0  0  0  0  0  0
   -0.4560   -1.7906   -1.1673 H   0  0  0  0  0  0  0  0  0  0  0  0
   -2.7569   -2.1937    0.6548 H   0  0  0  0  0  0  0  0  0  0  0  0
    1.3646   -0.9368   -1.1422 H   0  0  0  0  0  0  0  0  0  0  0  0
    2.9171    0.6738   -1.0342 H   0  0  0  0  0  0  0  0  0  0  0  0
    2.9370    0.7113    0.7231 H   0  0  0  0  0  0  0  0  0  0  0  0
    1.7430    1.7366   -0.2446 H   0  0  0  0  0  0  0  0  0  0  0  0
    1.3787   -1.0110    1.7241 H   0  0  0  0  0  0  0  0  0  0  0  0
  1  2  1  0
  2  3  1  0
  3  4  1  0
  4  5  1  0
  5  6  2  0
  3  7  1  0
  7  8  1  0
  7  9  1  0
  1 10  1  0
  1 11  1  0
  1 12  1  0
  3 13  1  0
  4 14  1  0
  4 15  1  0
  5 16  1  0
  7 17  1  0
  8 18  1  0
  8 19  1  0
  8 20  1  0
  9 21  1  0
M  END
