
     RDKit          3D

 21 21  0  0  0  0  0  0  0  0999 V2000
   -2.5942    0.8187    0.3148 C   0  0  0  0  0  0  0  0  0  0  0  0
   -1.5118    0.4484   -0.4957 O   0  0  0  0  0  0  0  0  0  0  0  0
   -0.4691   -0.0772    0.2666 C   0  0  0  0  0  0  0  0  0  0  0  0
   -0.2755   -1.4928   -0.1404 C   0  0  0  0  0  0  0  0  0  0  0  0
   -1.4616   -2.1869    0.0991 O   0  0  0  0  0  0  0  0  0  0  0  0
    0.7104    0.8114    0.1236 C   0  0  0  0  0  0  0  0  0  0  0  0
    2.0432    0.3324    0.5608 C   0  0  0  0  0  0  0  0  0  0  0  0
    2.4046    0.3580   -0.9041 C   0  0  0  0  0  0  0  0  0  0  0  0
    1.1996    0.9702   -1.1726 O   0  0  0  0  0  0  0  0  0  0  0  0
   -3.0147   -0.0111    0.8841 H   0  0  0  0  0  0  0  0  0  0  0  0
   -3.3544    1.3375   -0.2791 H   0  0  0  0  0  0  0  0  0  0  0  0
   -2.1667    1.5604    1.0497 H   0  0  0  0  0  0  0  0  0  0  0  0
   -0.7934   -0.0557    1.3275 H   0  0  0  0  0  0  0  0  0  0  0  0
   -0.0916   -1.5325   -1.2526 H   0  0  0  0  0  0  0  0  0  0  0  0
    0.5295   -2.0307    0.3423 H   0  0  0  0  0  0  0  0  0  0  0  0
   -2.1868   -1.8112   -0.4731 H   0  0  0  0  0  0  0  0  0  0  0  0
    0.4951    1.8144    0.5499 H   0  0  0  0  0  0  0  0  0  0  0  0
    2.1492   -0.6608    0.9789 H   0  0  0  0  0  0  0  0  0  0  0  0
    2.6237    1.0631    1.1864 H   0  0  0  0  0  0  0  0  0  0  0  0
    2.4599   -0.6437   -1.3784 H   0  0  0  0  0  0  0  0  0  0  0  0
    3.3048    0.9882   -1.0595 H   0  0  0  0  0  0  0  0  0  0  0  0
  1  2  1  0
  2  3  1  0
  3  4  1  0
  4  5  1  0
  3  6  1  0
  6  7  1  0
  7  8  1  0
  8  9  1  0
  9  6  1  0
  1 10  1  0
  1 11  1  0
  1 12  1  0
  3 13  1  0
  4 14  1  0
  4 15  1  0
  5 16  1  0
  6 17  1  0
  7 18  1  0
  7 19  1  0
  8 20  1  0
  8 21  1  0
M  END
