
     RDKit          3D

 19 18  0  0  0  0  0  0  0  0999 V2000
    2.7579    0.6564   -0.1785 C   0  0  0  0  0  0  0  0  0  0  0  0
    1.4067    0.6915    0.2319 O   0  0  0  0  0  0  0  0  0  0  0  0
    0.6924   -0.4973    0.1949 C   0  0  0  0  0  0  0  0  0  0  0  0
    1.2814   -1.5310   -0.1981 O   0  0  0  0  0  0  0  0  0  0  0  0
   -0.7278   -0.5489    0.6077 C   0  0  0  0  0  0  0  0  0  0  0  0
   -1.1852   -1.9811    0.4453 C   0  0  0  0  0  0  0  0  0  0  0  0
   -1.5137    0.3331   -0.2859 C   0  0  0  0  0  0  0  0  0  0  0  0
   -1.2704    1.7857   -0.4242 C   0  0  0  0  0  0  0  0  0  0  0  0
   -2.3986   -0.1985   -0.9252 O   0  0  0  0  0  0  0  0  0  0  0  0
    3.3225    0.0203    0.5555 H   0  0  0  0  0  0  0  0  0  0  0  0
    3.1953    1.6775   -0.2170 H   0  0  0  0  0  0  0  0  0  0  0  0
    2.8201    0.1821   -1.1815 H   0  0  0  0  0  0  0  0  0  0  0  0
   -0.8498   -0.2539    1.6840 H   0  0  0  0  0  0  0  0  0  0  0  0
   -1.4146   -2.1121   -0.6455 H   0  0  0  0  0  0  0  0  0  0  0  0
   -0.3375   -2.6331    0.7540 H   0  0  0  0  0  0  0  0  0  0  0  0
   -2.1109   -2.1919    0.9987 H   0  0  0  0  0  0  0  0  0  0  0  0
   -1.4843    2.3550    0.5098 H   0  0  0  0  0  0  0  0  0  0  0  0
   -1.9408    2.2047   -1.2003 H   0  0  0  0  0  0  0  0  0  0  0  0
   -0.2425    2.0413   -0.7257 H   0  0  0  0  0  0  0  0  0  0  0  0
  1  2  1  0
  2  3  1  0
  3  4  2  0
  3  5  1  0
  5  6  1  0
  5  7  1  0
  7  8  1  0
  7  9  2  0
  1 10  1  0
  1 11  1  0
  1 12  1  0
  5 13  1  0
  6 14  1  0
  6 15  1  0
  6 16  1  0
  8 17  1  0
  8 18  1  0
  8 19  1  0
M  END
