
     RDKit          3D

 21 20  0  0  0  0  0  0  0  0999 V2000
    1.7676   -1.5979   -0.0309 C   0  0  0  0  0  0  0  0  0  0  0  0
    0.6847   -0.9118   -0.5702 O   0  0  0  0  0  0  0  0  0  0  0  0
    0.4926    0.2389    0.1450 C   0  0  0  0  0  0  0  0  0  0  0  0
    0.6937    1.4427   -0.7453 C   0  0  0  0  0  0  0  0  0  0  0  0
    0.4974    2.6037   -0.0133 O   0  0  0  0  0  0  0  0  0  0  0  0
   -0.8629    0.2500    0.8120 C   0  0  0  0  0  0  0  0  0  0  0  0
   -0.9084   -0.8520    1.6683 O   0  0  0  0  0  0  0  0  0  0  0  0
   -1.9856    0.1409   -0.1913 C   0  0  0  0  0  0  0  0  0  0  0  0
   -1.8136   -1.0391   -0.9133 O   0  0  0  0  0  0  0  0  0  0  0  0
    1.9359   -2.5427   -0.6077 H   0  0  0  0  0  0  0  0  0  0  0  0
    1.5578   -1.9436    1.0159 H   0  0  0  0  0  0  0  0  0  0  0  0
    2.6645   -0.9436   -0.0674 H   0  0  0  0  0  0  0  0  0  0  0  0
    1.2446    0.3133    0.9536 H   0  0  0  0  0  0  0  0  0  0  0  0
    0.1086    1.3979   -1.6745 H   0  0  0  0  0  0  0  0  0  0  0  0
    1.7764    1.4408   -1.0419 H   0  0  0  0  0  0  0  0  0  0  0  0
    0.6884    2.3747    0.9314 H   0  0  0  0  0  0  0  0  0  0  0  0
   -0.9588    1.1464    1.4490 H   0  0  0  0  0  0  0  0  0  0  0  0
   -1.2528   -1.6643    1.2404 H   0  0  0  0  0  0  0  0  0  0  0  0
   -2.9352    0.0289    0.3716 H   0  0  0  0  0  0  0  0  0  0  0  0
   -2.0725    0.9938   -0.8554 H   0  0  0  0  0  0  0  0  0  0  0  0
   -1.3225   -0.8769   -1.7773 H   0  0  0  0  0  0  0  0  0  0  0  0
  1  2  1  0
  2  3  1  0
  3  4  1  0
  4  5  1  0
  3  6  1  0
  6  7  1  0
  6  8  1  0
  8  9  1  0
  1 10  1  0
  1 11  1  0
  1 12  1  0
  3 13  1  0
  4 14  1  0
  4 15  1  0
  5 16  1  0
  6 17  1  0
  7 18  1  0
  8 19  1  0
  8 20  1  0
  9 21  1  0
M  END
