
     RDKit          3D

 22 21  0  0  0  0  0  0  0  0999 V2000
    2.2940   -0.9704   -0.5379 C   0  0  0  0  0  0  0  0  0  0  0  0
    1.1300   -0.3146   -0.9183 O   0  0  0  0  0  0  0  0  0  0  0  0
    0.5349    0.3803    0.1049 C   0  0  0  0  0  0  0  0  0  0  0  0
    0.4913    1.8663   -0.2498 C   0  0  0  0  0  0  0  0  0  0  0  0
   -0.8796   -0.0395    0.3864 C   0  0  0  0  0  0  0  0  0  0  0  0
   -1.7279    0.2080   -0.8398 C   0  0  0  0  0  0  0  0  0  0  0  0
   -1.0035   -1.4984    0.7357 C   0  0  0  0  0  0  0  0  0  0  0  0
   -1.3570    0.7454    1.4431 O   0  0  0  0  0  0  0  0  0  0  0  0
    2.0843   -1.7008    0.2650 H   0  0  0  0  0  0  0  0  0  0  0  0
    3.0845   -0.2928   -0.1755 H   0  0  0  0  0  0  0  0  0  0  0  0
    2.6468   -1.5678   -1.4096 H   0  0  0  0  0  0  0  0  0  0  0  0
    1.1449    0.2525    1.0364 H   0  0  0  0  0  0  0  0  0  0  0  0
    0.5832    2.0182   -1.3468 H   0  0  0  0  0  0  0  0  0  0  0  0
    1.2771    2.4236    0.3054 H   0  0  0  0  0  0  0  0  0  0  0  0
   -0.4734    2.3274    0.0485 H   0  0  0  0  0  0  0  0  0  0  0  0
   -1.4359   -0.5107   -1.6399 H   0  0  0  0  0  0  0  0  0  0  0  0
   -1.6997    1.2586   -1.1824 H   0  0  0  0  0  0  0  0  0  0  0  0
   -2.7767   -0.0904   -0.5601 H   0  0  0  0  0  0  0  0  0  0  0  0
   -0.1157   -1.9317    1.1954 H   0  0  0  0  0  0  0  0  0  0  0  0
   -1.3803   -2.0971   -0.1326 H   0  0  0  0  0  0  0  0  0  0  0  0
   -1.8276   -1.5723    1.5046 H   0  0  0  0  0  0  0  0  0  0  0  0
   -0.5936    1.1062    1.9671 H   0  0  0  0  0  0  0  0  0  0  0  0
  1  2  1  0
  2  3  1  0
  3  4  1  0
  3  5  1  0
  5  6  1  0
  5  7  1  0
  5  8  1  0
  1  9  1  0
  1 10  1  0
  1 11  1  0
  3 12  1  0
  4 13  1  0
  4 14  1  0
  4 15  1  0
  6 16  1  0
  6 17  1  0
  6 18  1  0
  7 19  1  0
  7 20  1  0
  7 21  1  0
  8 22  1  0
M  END
