
     RDKit          3D

 19 20  0  0  0  0  0  0  0  0999 V2000
    3.3465   -0.0836    0.3760 C   0  0  0  0  0  0  0  0  0  0  0  0
    2.0734   -0.5334   -0.0517 O   0  0  0  0  0  0  0  0  0  0  0  0
    0.9858    0.2856   -0.2087 C   0  0  0  0  0  0  0  0  0  0  0  0
    1.1033    1.5098    0.0357 O   0  0  0  0  0  0  0  0  0  0  0  0
   -0.2998   -0.2516   -0.6561 C   0  0  0  0  0  0  0  0  0  0  0  0
   -1.4617    0.6881   -0.7255 C   0  0  0  0  0  0  0  0  0  0  0  0
   -2.2977   -0.5654   -0.7260 C   0  0  0  0  0  0  0  0  0  0  0  0
   -1.2420   -0.8222    0.3307 C   0  0  0  0  0  0  0  0  0  0  0  0
   -1.5342    0.5838    0.7591 C   0  0  0  0  0  0  0  0  0  0  0  0
    3.2537    0.9963    0.5957 H   0  0  0  0  0  0  0  0  0  0  0  0
    3.7296   -0.6358    1.2426 H   0  0  0  0  0  0  0  0  0  0  0  0
    4.0976   -0.2591   -0.4493 H   0  0  0  0  0  0  0  0  0  0  0  0
   -0.2551   -0.8225   -1.6314 H   0  0  0  0  0  0  0  0  0  0  0  0
   -1.5739    1.4915   -1.3048 H   0  0  0  0  0  0  0  0  0  0  0  0
   -3.3067   -0.4852   -0.3047 H   0  0  0  0  0  0  0  0  0  0  0  0
   -2.1905   -1.2037   -1.6314 H   0  0  0  0  0  0  0  0  0  0  0  0
   -1.1650   -1.6375    0.8997 H   0  0  0  0  0  0  0  0  0  0  0  0
   -0.7106    1.0022    1.3532 H   0  0  0  0  0  0  0  0  0  0  0  0
   -2.5527    0.7428    1.1793 H   0  0  0  0  0  0  0  0  0  0  0  0
  1  2  1  0
  2  3  1  0
  3  4  2  0
  3  5  1  0
  5  6  1  0
  6  7  1  0
  7  8  1  0
  8  9  1  0
  8  5  1  0
  9  6  1  0
  1 10  1  0
  1 11  1  0
  1 12  1  0
  5 13  1  0
  6 14  1  0
  7 15  1  0
  7 16  1  0
  8 17  1  0
  9 18  1  0
  9 19  1  0
M  END
