
     RDKit          3D

 15 14  0  0  0  0  0  0  0  0999 V2000
   -0.9752   -0.9127    2.3346 C   0  0  0  0  0  0  0  0  0  0  0  0
   -0.5223   -0.4830    1.0637 O   0  0  0  0  0  0  0  0  0  0  0  0
   -1.0555   -0.9712   -0.1213 C   0  0  0  0  0  0  0  0  0  0  0  0
   -1.9736   -1.8257   -0.0457 O   0  0  0  0  0  0  0  0  0  0  0  0
   -0.5902   -0.5295   -1.4656 C   0  0  0  0  0  0  0  0  0  0  0  0
    0.4796    0.4650   -1.3339 C   0  0  0  0  0  0  0  0  0  0  0  0
    1.3687    1.2929   -1.2320 C   0  0  0  0  0  0  0  0  0  0  0  0
    2.4221    2.2652   -1.1288 C   0  0  0  0  0  0  0  0  0  0  0  0
    3.3007    2.0403   -0.2362 O   0  0  0  0  0  0  0  0  0  0  0  0
   -0.2392   -0.6163    3.1029 H   0  0  0  0  0  0  0  0  0  0  0  0
   -1.1361   -2.0168    2.3670 H   0  0  0  0  0  0  0  0  0  0  0  0
   -1.9106   -0.3536    2.5514 H   0  0  0  0  0  0  0  0  0  0  0  0
   -0.1850   -1.3707   -2.0589 H   0  0  0  0  0  0  0  0  0  0  0  0
   -1.4597   -0.1314   -2.0258 H   0  0  0  0  0  0  0  0  0  0  0  0
    2.4762    3.1476   -1.7716 H   0  0  0  0  0  0  0  0  0  0  0  0
  1  2  1  0
  2  3  1  0
  3  4  2  0
  3  5  1  0
  5  6  1  0
  6  7  3  0
  7  8  1  0
  8  9  2  0
  1 10  1  0
  1 11  1  0
  1 12  1  0
  5 13  1  0
  5 14  1  0
  8 15  1  0
M  END
