
     RDKit          3D

  9  8  0  0  0  0  0  0  0  0999 V2000
    1.1439   -0.0558    0.6062 C   0  0  0  0  0  0  0  0  0  0  0  0
    0.1363   -0.4242   -0.2932 O   0  0  0  0  0  0  0  0  0  0  0  0
   -1.0821   -0.0122    0.2019 C   0  0  0  0  0  0  0  0  0  0  0  0
    2.1073   -0.3783    0.2209 H   0  0  0  0  0  0  0  0  0  0  0  0
    1.1310    1.0429    0.6783 H   0  0  0  0  0  0  0  0  0  0  0  0
    0.9146   -0.4559    1.6104 H   0  0  0  0  0  0  0  0  0  0  0  0
   -1.8530   -0.3242   -0.5420 H   0  0  0  0  0  0  0  0  0  0  0  0
   -1.1642    1.0821    0.3510 H   0  0  0  0  0  0  0  0  0  0  0  0
   -1.3339   -0.4745    1.1835 H   0  0  0  0  0  0  0  0  0  0  0  0
  1  2  1  0
  2  3  1  0
  1  4  1  0
  1  5  1  0
  1  6  1  0
  3  7  1  0
  3  8  1  0
  3  9  1  0
M  END
