
     RDKit          3D

 18 19  0  0  0  0  0  0  0  0999 V2000
    2.8790   -0.5906   -0.0547 C   0  0  0  0  0  0  0  0  0  0  0  0
    1.7592    0.1581   -0.2840 O   0  0  0  0  0  0  0  0  0  0  0  0
    0.5877   -0.3446    0.2945 C   0  0  0  0  0  0  0  0  0  0  0  0
   -0.4212    0.5048    0.7975 C   0  0  0  0  0  0  0  0  0  0  0  0
   -1.3261    1.5274    0.2464 C   0  0  0  0  0  0  0  0  0  0  0  0
   -2.4254    0.7936   -0.2104 O   0  0  0  0  0  0  0  0  0  0  0  0
   -2.0437   -0.5740   -0.1969 C   0  0  0  0  0  0  0  0  0  0  0  0
   -0.5966   -0.4254   -0.4773 C   0  0  0  0  0  0  0  0  0  0  0  0
    3.7418   -0.1103   -0.5508 H   0  0  0  0  0  0  0  0  0  0  0  0
    2.7624   -1.6607   -0.3145 H   0  0  0  0  0  0  0  0  0  0  0  0
    3.0941   -0.5389    1.0491 H   0  0  0  0  0  0  0  0  0  0  0  0
    0.8502   -1.3014    0.8455 H   0  0  0  0  0  0  0  0  0  0  0  0
   -0.9005    0.1110    1.7498 H   0  0  0  0  0  0  0  0  0  0  0  0
   -0.8841    2.1581   -0.5558 H   0  0  0  0  0  0  0  0  0  0  0  0
   -1.6992    2.2199    1.0161 H   0  0  0  0  0  0  0  0  0  0  0  0
   -2.5727   -1.1359   -0.9803 H   0  0  0  0  0  0  0  0  0  0  0  0
   -2.2852   -0.9122    0.8321 H   0  0  0  0  0  0  0  0  0  0  0  0
   -0.5198    0.1209   -1.4731 H   0  0  0  0  0  0  0  0  0  0  0  0
  1  2  1  0
  2  3  1  0
  3  4  1  0
  4  5  1  0
  5  6  1  0
  6  7  1  0
  7  8  1  0
  8  3  1  0
  8  4  1  0
  1  9  1  0
  1 10  1  0
  1 11  1  0
  3 12  1  0
  4 13  1  0
  5 14  1  0
  5 15  1  0
  7 16  1  0
  7 17  1  0
  8 18  1  0
M  END
