
     RDKit          3D

 18 18  0  0  0  0  0  0  0  0999 V2000
    2.6968    0.0765    0.6726 C   0  0  0  0  0  0  0  0  0  0  0  0
    1.7073   -0.0514   -0.2899 O   0  0  0  0  0  0  0  0  0  0  0  0
    0.4301   -0.0582    0.2387 C   0  0  0  0  0  0  0  0  0  0  0  0
   -0.4547   -1.1378   -0.3613 C   0  0  0  0  0  0  0  0  0  0  0  0
    0.0167   -1.8693   -1.4401 O   0  0  0  0  0  0  0  0  0  0  0  0
   -0.6602    0.3491   -0.6415 C   0  0  0  0  0  0  0  0  0  0  0  0
   -1.9765    0.8731   -0.1126 C   0  0  0  0  0  0  0  0  0  0  0  0
   -1.7997    2.0293    0.6556 O   0  0  0  0  0  0  0  0  0  0  0  0
    2.6797   -0.7559    1.4185 H   0  0  0  0  0  0  0  0  0  0  0  0
    2.7315    1.0669    1.1395 H   0  0  0  0  0  0  0  0  0  0  0  0
    3.6746   -0.0418    0.1262 H   0  0  0  0  0  0  0  0  0  0  0  0
    0.2889    0.0350    1.3470 H   0  0  0  0  0  0  0  0  0  0  0  0
   -1.1757   -1.6642    0.2736 H   0  0  0  0  0  0  0  0  0  0  0  0
   -0.1132   -2.8399   -1.3061 H   0  0  0  0  0  0  0  0  0  0  0  0
   -0.4065    0.7212   -1.6697 H   0  0  0  0  0  0  0  0  0  0  0  0
   -2.6480    1.1630   -0.9472 H   0  0  0  0  0  0  0  0  0  0  0  0
   -2.5308    0.1109    0.4730 H   0  0  0  0  0  0  0  0  0  0  0  0
   -2.4601    1.9937    1.3932 H   0  0  0  0  0  0  0  0  0  0  0  0
  1  2  1  0
  2  3  1  0
  3  4  1  0
  4  5  1  0
  4  6  1  0
  6  7  1  0
  7  8  1  0
  6  3  1  0
  1  9  1  0
  1 10  1  0
  1 11  1  0
  3 12  1  0
  4 13  1  0
  5 14  1  0
  6 15  1  0
  7 16  1  0
  7 17  1  0
  8 18  1  0
M  END
