
     RDKit          3D

 19 20  0  0  0  0  0  0  0  0999 V2000
    2.3726    0.5904   -0.1610 C   0  0  0  0  0  0  0  0  0  0  0  0
    1.1732    0.9531    0.3853 O   0  0  0  0  0  0  0  0  0  0  0  0
    0.2349    0.1480    0.2150 C   0  0  0  0  0  0  0  0  0  0  0  0
    0.1532   -1.2927    0.6607 C   0  0  0  0  0  0  0  0  0  0  0  0
   -1.1574   -1.0509   -0.0677 C   0  0  0  0  0  0  0  0  0  0  0  0
   -0.3435   -0.3392   -1.0948 C   0  0  0  0  0  0  0  0  0  0  0  0
   -1.1799    0.2446    0.6929 C   0  0  0  0  0  0  0  0  0  0  0  0
   -2.0063    1.3196    0.1394 C   0  0  0  0  0  0  0  0  0  0  0  0
   -2.2743    2.2688    0.8782 O   0  0  0  0  0  0  0  0  0  0  0  0
    3.1502    1.3710    0.0424 H   0  0  0  0  0  0  0  0  0  0  0  0
    2.3354    0.4723   -1.2749 H   0  0  0  0  0  0  0  0  0  0  0  0
    2.7734   -0.3612    0.2529 H   0  0  0  0  0  0  0  0  0  0  0  0
    0.8228   -1.9845    0.1556 H   0  0  0  0  0  0  0  0  0  0  0  0
    0.0268   -1.3851    1.7470 H   0  0  0  0  0  0  0  0  0  0  0  0
   -1.8971   -1.7098   -0.1859 H   0  0  0  0  0  0  0  0  0  0  0  0
   -0.8300    0.4009   -1.7240 H   0  0  0  0  0  0  0  0  0  0  0  0
    0.3640   -1.0437   -1.5883 H   0  0  0  0  0  0  0  0  0  0  0  0
   -1.3146    0.0363    1.7784 H   0  0  0  0  0  0  0  0  0  0  0  0
   -2.4032    1.3621   -0.8511 H   0  0  0  0  0  0  0  0  0  0  0  0
  1  2  1  0
  2  3  1  0
  3  4  1  0
  4  5  1  0
  5  6  1  0
  5  7  1  0
  7  8  1  0
  8  9  2  0
  6  3  1  0
  7  3  1  0
  1 10  1  0
  1 11  1  0
  1 12  1  0
  4 13  1  0
  4 14  1  0
  5 15  1  0
  6 16  1  0
  6 17  1  0
  7 18  1  0
  8 19  1  0
M  END
