
     RDKit          3D

 20 21  0  0  0  0  0  0  0  0999 V2000
    2.2664    0.9110    0.2068 C   0  0  0  0  0  0  0  0  0  0  0  0
    1.4596   -0.0579    0.7072 O   0  0  0  0  0  0  0  0  0  0  0  0
    0.7067   -0.7424   -0.2781 C   0  0  0  0  0  0  0  0  0  0  0  0
   -0.1753    0.2473   -1.0037 C   0  0  0  0  0  0  0  0  0  0  0  0
   -0.7836    0.3219    0.4086 C   0  0  0  0  0  0  0  0  0  0  0  0
   -2.1648    0.9071    0.3619 C   0  0  0  0  0  0  0  0  0  0  0  0
   -0.7442   -1.1721    0.2139 C   0  0  0  0  0  0  0  0  0  0  0  0
    0.3700   -2.0600    0.1424 C   0  0  0  0  0  0  0  0  0  0  0  0
    3.0259    0.5449   -0.5233 H   0  0  0  0  0  0  0  0  0  0  0  0
    1.7973    1.8117   -0.1822 H   0  0  0  0  0  0  0  0  0  0  0  0
    2.8976    1.2621    1.0806 H   0  0  0  0  0  0  0  0  0  0  0  0
   -0.8970   -0.2139   -1.6948 H   0  0  0  0  0  0  0  0  0  0  0  0
    0.2927    1.1371   -1.3687 H   0  0  0  0  0  0  0  0  0  0  0  0
   -0.1880    0.7752    1.1787 H   0  0  0  0  0  0  0  0  0  0  0  0
   -2.6156    0.5924   -0.6137 H   0  0  0  0  0  0  0  0  0  0  0  0
   -2.8339    0.4854    1.1451 H   0  0  0  0  0  0  0  0  0  0  0  0
   -2.1183    2.0063    0.3673 H   0  0  0  0  0  0  0  0  0  0  0  0
   -1.4743   -1.3785   -0.6373 H   0  0  0  0  0  0  0  0  0  0  0  0
    0.6922   -2.5079    1.1322 H   0  0  0  0  0  0  0  0  0  0  0  0
    0.4866   -2.8693   -0.6430 H   0  0  0  0  0  0  0  0  0  0  0  0
  1  2  1  0
  2  3  1  0
  3  4  1  0
  4  5  1  0
  5  6  1  0
  5  7  1  0
  7  8  1  0
  7  3  1  0
  8  3  1  0
  1  9  1  0
  1 10  1  0
  1 11  1  0
  4 12  1  0
  4 13  1  0
  5 14  1  0
  6 15  1  0
  6 16  1  0
  6 17  1  0
  7 18  1  0
  8 19  1  0
  8 20  1  0
M  END
