
     RDKit          3D

 21 21  0  0  0  0  0  0  0  0999 V2000
    2.2419   -0.4786    0.7996 C   0  0  0  0  0  0  0  0  0  0  0  0
    0.8943   -0.4568    1.1353 O   0  0  0  0  0  0  0  0  0  0  0  0
    0.0681    0.0832    0.1858 C   0  0  0  0  0  0  0  0  0  0  0  0
    0.3621    1.5057   -0.1615 C   0  0  0  0  0  0  0  0  0  0  0  0
   -0.5448    1.9644   -1.1400 O   0  0  0  0  0  0  0  0  0  0  0  0
   -0.2405   -0.8087   -0.9984 C   0  0  0  0  0  0  0  0  0  0  0  0
   -1.2876   -1.4790   -0.0988 C   0  0  0  0  0  0  0  0  0  0  0  0
   -1.3869   -0.1226    0.6170 C   0  0  0  0  0  0  0  0  0  0  0  0
   -1.5650   -0.2198    1.9768 O   0  0  0  0  0  0  0  0  0  0  0  0
    2.6566    0.5306    0.6155 H   0  0  0  0  0  0  0  0  0  0  0  0
    2.3345   -1.1175   -0.1257 H   0  0  0  0  0  0  0  0  0  0  0  0
    2.7631   -0.9852    1.6511 H   0  0  0  0  0  0  0  0  0  0  0  0
    1.3963    1.6144   -0.5426 H   0  0  0  0  0  0  0  0  0  0  0  0
    0.2571    2.1523    0.7335 H   0  0  0  0  0  0  0  0  0  0  0  0
   -0.1610    2.8374   -1.4713 H   0  0  0  0  0  0  0  0  0  0  0  0
    0.5596   -1.4599   -1.3419 H   0  0  0  0  0  0  0  0  0  0  0  0
   -0.7728   -0.2111   -1.7739 H   0  0  0  0  0  0  0  0  0  0  0  0
   -0.8508   -2.2028    0.6212 H   0  0  0  0  0  0  0  0  0  0  0  0
   -2.2048   -1.7759   -0.6053 H   0  0  0  0  0  0  0  0  0  0  0  0
   -2.0632    0.5202    0.0549 H   0  0  0  0  0  0  0  0  0  0  0  0
   -2.4560    0.1099    2.2241 H   0  0  0  0  0  0  0  0  0  0  0  0
  1  2  1  0
  2  3  1  0
  3  4  1  0
  4  5  1  0
  3  6  1  0
  6  7  1  0
  7  8  1  0
  8  9  1  0
  8  3  1  0
  1 10  1  0
  1 11  1  0
  1 12  1  0
  4 13  1  0
  4 14  1  0
  5 15  1  0
  6 16  1  0
  6 17  1  0
  7 18  1  0
  7 19  1  0
  8 20  1  0
  9 21  1  0
M  END
