
     RDKit          3D

 21 22  0  0  0  0  0  0  0  0999 V2000
    2.5706   -0.9340   -1.0144 C   0  0  0  0  0  0  0  0  0  0  0  0
    1.6523   -0.7374    0.0349 O   0  0  0  0  0  0  0  0  0  0  0  0
    0.7626    0.2898   -0.2429 C   0  0  0  0  0  0  0  0  0  0  0  0
    0.1647    0.9829    0.9115 C   0  0  0  0  0  0  0  0  0  0  0  0
   -0.7621    2.1385    0.5622 C   0  0  0  0  0  0  0  0  0  0  0  0
   -1.6996    1.1002   -0.0477 C   0  0  0  0  0  0  0  0  0  0  0  0
   -0.6597    0.0531    0.1487 C   0  0  0  0  0  0  0  0  0  0  0  0
   -1.0150   -1.3256    0.6052 C   0  0  0  0  0  0  0  0  0  0  0  0
   -0.7223   -2.1911   -0.4735 O   0  0  0  0  0  0  0  0  0  0  0  0
    2.0098   -1.1896   -1.9324 H   0  0  0  0  0  0  0  0  0  0  0  0
    3.2724   -1.6933   -0.6750 H   0  0  0  0  0  0  0  0  0  0  0  0
    3.1594   -0.0006   -1.1881 H   0  0  0  0  0  0  0  0  0  0  0  0
    0.8641    0.8210   -1.2144 H   0  0  0  0  0  0  0  0  0  0  0  0
    0.4854    0.8546    1.9438 H   0  0  0  0  0  0  0  0  0  0  0  0
   -0.3078    2.8331   -0.1734 H   0  0  0  0  0  0  0  0  0  0  0  0
   -1.2100    2.6051    1.4582 H   0  0  0  0  0  0  0  0  0  0  0  0
   -2.6087    0.9311    0.5629 H   0  0  0  0  0  0  0  0  0  0  0  0
   -1.9836    1.3517   -1.0841 H   0  0  0  0  0  0  0  0  0  0  0  0
   -0.4883   -1.6311    1.5266 H   0  0  0  0  0  0  0  0  0  0  0  0
   -2.1078   -1.3398    0.8143 H   0  0  0  0  0  0  0  0  0  0  0  0
   -1.3762   -2.9184   -0.5225 H   0  0  0  0  0  0  0  0  0  0  0  0
  1  2  1  0
  2  3  1  0
  3  4  1  0
  4  5  1  0
  5  6  1  0
  6  7  1  0
  7  8  1  0
  8  9  1  0
  7  3  1  0
  7  4  1  0
  1 10  1  0
  1 11  1  0
  1 12  1  0
  3 13  1  0
  4 14  1  0
  5 15  1  0
  5 16  1  0
  6 17  1  0
  6 18  1  0
  8 19  1  0
  8 20  1  0
  9 21  1  0
M  END
