
     RDKit          3D

 21 22  0  0  0  0  0  0  0  0999 V2000
    3.2068   -0.3632   -0.0735 C   0  0  0  0  0  0  0  0  0  0  0  0
    1.8947   -0.6749    0.2692 O   0  0  0  0  0  0  0  0  0  0  0  0
    0.9655    0.1970   -0.2417 C   0  0  0  0  0  0  0  0  0  0  0  0
   -0.1987   -0.5580   -0.9027 C   0  0  0  0  0  0  0  0  0  0  0  0
   -1.0933    0.0669    0.0764 C   0  0  0  0  0  0  0  0  0  0  0  0
   -2.2422    0.8708   -0.3475 C   0  0  0  0  0  0  0  0  0  0  0  0
   -2.9140    0.4517    0.8244 O   0  0  0  0  0  0  0  0  0  0  0  0
   -2.1211   -0.7072    0.7761 C   0  0  0  0  0  0  0  0  0  0  0  0
    0.0117    0.6903    0.8331 C   0  0  0  0  0  0  0  0  0  0  0  0
    3.2795   -0.3870   -1.1883 H   0  0  0  0  0  0  0  0  0  0  0  0
    3.5653    0.5782    0.3591 H   0  0  0  0  0  0  0  0  0  0  0  0
    3.8509   -1.1920    0.2874 H   0  0  0  0  0  0  0  0  0  0  0  0
    1.3389    1.0350   -0.8560 H   0  0  0  0  0  0  0  0  0  0  0  0
   -0.0874   -1.6579   -0.8262 H   0  0  0  0  0  0  0  0  0  0  0  0
   -0.2820   -0.2695   -1.9680 H   0  0  0  0  0  0  0  0  0  0  0  0
   -2.7348    0.5330   -1.2722 H   0  0  0  0  0  0  0  0  0  0  0  0
   -2.0329    1.9561   -0.3843 H   0  0  0  0  0  0  0  0  0  0  0  0
   -2.6410   -1.4427    0.1139 H   0  0  0  0  0  0  0  0  0  0  0  0
   -1.8439   -1.1078    1.7703 H   0  0  0  0  0  0  0  0  0  0  0  0
    0.1448    0.1986    1.8282 H   0  0  0  0  0  0  0  0  0  0  0  0
   -0.0668    1.7825    0.9305 H   0  0  0  0  0  0  0  0  0  0  0  0
  1  2  1  0
  2  3  1  0
  3  4  1  0
  4  5  1  0
  5  6  1  0
  6  7  1  0
  7  8  1  0
  5  9  1  0
  9  3  1  0
  8  5  1  0
  1 10  1  0
  1 11  1  0
  1 12  1  0
  3 13  1  0
  4 14  1  0
  4 15  1  0
  6 16  1  0
  6 17  1  0
  8 18  1  0
  8 19  1  0
  9 20  1  0
  9 21  1  0
M  END
