
     RDKit          3D

 19 19  0  0  0  0  0  0  0  0999 V2000
    2.3767   -0.3295    0.6657 C   0  0  0  0  0  0  0  0  0  0  0  0
    1.1180    0.2775    0.6729 O   0  0  0  0  0  0  0  0  0  0  0  0
    0.5542    0.1023   -0.5664 C   0  0  0  0  0  0  0  0  0  0  0  0
    0.3416    1.3646   -1.1653 O   0  0  0  0  0  0  0  0  0  0  0  0
   -0.8707    1.7817   -0.5708 C   0  0  0  0  0  0  0  0  0  0  0  0
   -1.7023    0.5805   -0.7842 C   0  0  0  0  0  0  0  0  0  0  0  0
   -2.8613    0.5596   -1.0975 O   0  0  0  0  0  0  0  0  0  0  0  0
   -0.8020   -0.5627   -0.5295 C   0  0  0  0  0  0  0  0  0  0  0  0
   -1.1145   -1.1431    0.8288 C   0  0  0  0  0  0  0  0  0  0  0  0
    3.0525    0.1053   -0.0967 H   0  0  0  0  0  0  0  0  0  0  0  0
    2.3147   -1.4155    0.4945 H   0  0  0  0  0  0  0  0  0  0  0  0
    2.8910   -0.1819    1.6495 H   0  0  0  0  0  0  0  0  0  0  0  0
    1.2186   -0.4639   -1.2532 H   0  0  0  0  0  0  0  0  0  0  0  0
   -1.2598    2.6859   -1.0286 H   0  0  0  0  0  0  0  0  0  0  0  0
   -0.6444    1.8797    0.5103 H   0  0  0  0  0  0  0  0  0  0  0  0
   -0.8826   -1.3741   -1.2658 H   0  0  0  0  0  0  0  0  0  0  0  0
   -1.0756   -2.2606    0.8251 H   0  0  0  0  0  0  0  0  0  0  0  0
   -0.4896   -0.7292    1.6348 H   0  0  0  0  0  0  0  0  0  0  0  0
   -2.1645   -0.8766    1.0764 H   0  0  0  0  0  0  0  0  0  0  0  0
  1  2  1  0
  2  3  1  0
  3  4  1  0
  4  5  1  0
  5  6  1  0
  6  7  2  0
  6  8  1  0
  8  9  1  0
  8  3  1  0
  1 10  1  0
  1 11  1  0
  1 12  1  0
  3 13  1  0
  5 14  1  0
  5 15  1  0
  8 16  1  0
  9 17  1  0
  9 18  1  0
  9 19  1  0
M  END
