
     RDKit          3D

 19 20  0  0  0  0  0  0  0  0999 V2000
    1.2069    2.1796   -0.5477 C   0  0  0  0  0  0  0  0  0  0  0  0
    0.2117    1.2590   -0.9314 O   0  0  0  0  0  0  0  0  0  0  0  0
    0.5460    0.0402   -0.4059 C   0  0  0  0  0  0  0  0  0  0  0  0
    0.3333   -1.1690   -1.2453 C   0  0  0  0  0  0  0  0  0  0  0  0
    0.2369   -1.9607    0.0374 C   0  0  0  0  0  0  0  0  0  0  0  0
   -0.5914   -0.7571    0.1923 C   0  0  0  0  0  0  0  0  0  0  0  0
   -1.3594   -0.3398    1.2652 C   0  0  0  0  0  0  0  0  0  0  0  0
   -1.9242    0.9372    1.0256 O   0  0  0  0  0  0  0  0  0  0  0  0
   -1.0298   -0.9486   -1.1065 O   0  0  0  0  0  0  0  0  0  0  0  0
    2.2070    1.8812   -0.9227 H   0  0  0  0  0  0  0  0  0  0  0  0
    0.9621    3.1626   -1.0150 H   0  0  0  0  0  0  0  0  0  0  0  0
    1.2020    2.3085    0.5639 H   0  0  0  0  0  0  0  0  0  0  0  0
    1.4750   -0.0173    0.1901 H   0  0  0  0  0  0  0  0  0  0  0  0
    0.8226   -1.4504   -2.0797 H   0  0  0  0  0  0  0  0  0  0  0  0
    1.1613   -1.9324    0.6525 H   0  0  0  0  0  0  0  0  0  0  0  0
   -0.2581   -2.9380   -0.0508 H   0  0  0  0  0  0  0  0  0  0  0  0
   -2.1677   -1.0096    1.5426 H   0  0  0  0  0  0  0  0  0  0  0  0
   -0.7401   -0.1898    2.1886 H   0  0  0  0  0  0  0  0  0  0  0  0
   -2.2941    0.9444    0.0899 H   0  0  0  0  0  0  0  0  0  0  0  0
  1  2  1  0
  2  3  1  0
  3  4  1  0
  4  5  1  0
  5  6  1  0
  6  7  1  0
  7  8  1  0
  6  9  1  0
  6  3  1  0
  9  4  1  0
  1 10  1  0
  1 11  1  0
  1 12  1  0
  3 13  1  0
  4 14  1  0
  5 15  1  0
  5 16  1  0
  7 17  1  0
  7 18  1  0
  8 19  1  0
M  END
