
     RDKit          3D

 23 24  0  0  0  0  0  0  0  0999 V2000
    3.6949   -0.1693   -0.2690 C   0  0  0  0  0  0  0  0  0  0  0  0
    2.4726    0.2888   -0.6711 O   0  0  0  0  0  0  0  0  0  0  0  0
    1.4645   -0.2188    0.1452 C   0  0  0  0  0  0  0  0  0  0  0  0
    0.2683   -0.5993   -0.5120 C   0  0  0  0  0  0  0  0  0  0  0  0
   -0.7070    0.0868   -1.3841 C   0  0  0  0  0  0  0  0  0  0  0  0
   -1.7389    0.5357   -0.3279 C   0  0  0  0  0  0  0  0  0  0  0  0
   -2.9847   -0.2610   -0.3851 C   0  0  0  0  0  0  0  0  0  0  0  0
   -1.0023    0.3832    1.0202 C   0  0  0  0  0  0  0  0  0  0  0  0
    0.3688    0.6013    0.5190 C   0  0  0  0  0  0  0  0  0  0  0  0
    3.8659    0.1626    0.7822 H   0  0  0  0  0  0  0  0  0  0  0  0
    3.7181   -1.2852   -0.2994 H   0  0  0  0  0  0  0  0  0  0  0  0
    4.4720    0.2451   -0.9490 H   0  0  0  0  0  0  0  0  0  0  0  0
    1.8810   -0.8828    0.9408 H   0  0  0  0  0  0  0  0  0  0  0  0
   -0.2161   -1.5402   -0.1042 H   0  0  0  0  0  0  0  0  0  0  0  0
   -1.2389   -0.6227   -2.0455 H   0  0  0  0  0  0  0  0  0  0  0  0
   -0.3066    0.9539   -1.9293 H   0  0  0  0  0  0  0  0  0  0  0  0
   -1.9230    1.6049   -0.4606 H   0  0  0  0  0  0  0  0  0  0  0  0
   -3.1310   -0.5901   -1.4544 H   0  0  0  0  0  0  0  0  0  0  0  0
   -3.8413    0.4049   -0.1381 H   0  0  0  0  0  0  0  0  0  0  0  0
   -2.9943   -1.1611    0.2613 H   0  0  0  0  0  0  0  0  0  0  0  0
   -1.3568    1.1036    1.7586 H   0  0  0  0  0  0  0  0  0  0  0  0
   -1.1626   -0.6739    1.3476 H   0  0  0  0  0  0  0  0  0  0  0  0
    0.3975    1.6337    0.0446 H   0  0  0  0  0  0  0  0  0  0  0  0
  1  2  1  0
  2  3  1  0
  3  4  1  0
  4  5  1  0
  5  6  1  0
  6  7  1  0
  6  8  1  0
  8  9  1  0
  9  3  1  0
  9  4  1  0
  1 10  1  0
  1 11  1  0
  1 12  1  0
  3 13  1  0
  4 14  1  0
  5 15  1  0
  5 16  1  0
  6 17  1  0
  7 18  1  0
  7 19  1  0
  7 20  1  0
  8 21  1  0
  8 22  1  0
  9 23  1  0
M  END
