
     RDKit          3D

 21 22  0  0  0  0  0  0  0  0999 V2000
    2.6831   -0.4412   -0.1819 C   0  0  0  0  0  0  0  0  0  0  0  0
    1.4042   -0.0531   -0.6347 O   0  0  0  0  0  0  0  0  0  0  0  0
    0.5929    0.1329    0.4730 C   0  0  0  0  0  0  0  0  0  0  0  0
   -0.8026   -0.4300    0.3420 C   0  0  0  0  0  0  0  0  0  0  0  0
   -0.9631   -1.5507   -0.6309 C   0  0  0  0  0  0  0  0  0  0  0  0
   -2.3032   -1.9392   -0.6187 O   0  0  0  0  0  0  0  0  0  0  0  0
   -1.3881    0.8856   -0.0168 C   0  0  0  0  0  0  0  0  0  0  0  0
   -0.6840    1.9292   -0.7641 C   0  0  0  0  0  0  0  0  0  0  0  0
   -0.0694    1.5166    0.5073 C   0  0  0  0  0  0  0  0  0  0  0  0
    3.3714   -0.6028   -1.0357 H   0  0  0  0  0  0  0  0  0  0  0  0
    2.6231   -1.3989    0.3609 H   0  0  0  0  0  0  0  0  0  0  0  0
    3.1299    0.3197    0.4812 H   0  0  0  0  0  0  0  0  0  0  0  0
    1.0843   -0.0508    1.4460 H   0  0  0  0  0  0  0  0  0  0  0  0
   -1.1493   -0.7613    1.3565 H   0  0  0  0  0  0  0  0  0  0  0  0
   -0.3630   -2.4185   -0.2280 H   0  0  0  0  0  0  0  0  0  0  0  0
   -0.6585   -1.3209   -1.6498 H   0  0  0  0  0  0  0  0  0  0  0  0
   -2.7773   -1.6325    0.1896 H   0  0  0  0  0  0  0  0  0  0  0  0
   -2.3190    1.1748    0.5062 H   0  0  0  0  0  0  0  0  0  0  0  0
   -1.1293    2.9228   -0.8027 H   0  0  0  0  0  0  0  0  0  0  0  0
   -0.0956    1.6850   -1.6917 H   0  0  0  0  0  0  0  0  0  0  0  0
   -0.1864    2.0333    1.4538 H   0  0  0  0  0  0  0  0  0  0  0  0
  1  2  1  0
  2  3  1  0
  3  4  1  0
  4  5  1  0
  5  6  1  0
  4  7  1  0
  7  8  1  0
  8  9  1  0
  9  3  1  0
  9  7  1  0
  1 10  1  0
  1 11  1  0
  1 12  1  0
  3 13  1  0
  4 14  1  0
  5 15  1  0
  5 16  1  0
  6 17  1  0
  7 18  1  0
  8 19  1  0
  8 20  1  0
  9 21  1  0
M  END
