
     RDKit          3D

 21 21  0  0  0  0  0  0  0  0999 V2000
    2.6989   -0.4287    0.0806 C   0  0  0  0  0  0  0  0  0  0  0  0
    1.5378   -0.5965   -0.6900 O   0  0  0  0  0  0  0  0  0  0  0  0
    0.5554    0.2271   -0.1986 C   0  0  0  0  0  0  0  0  0  0  0  0
   -0.1876    1.0495   -1.2294 C   0  0  0  0  0  0  0  0  0  0  0  0
   -1.4681    0.6267   -0.5661 C   0  0  0  0  0  0  0  0  0  0  0  0
   -1.9734    1.5043    0.3846 O   0  0  0  0  0  0  0  0  0  0  0  0
   -0.7310   -0.5647    0.0007 C   0  0  0  0  0  0  0  0  0  0  0  0
   -1.0162   -0.8077    1.4548 C   0  0  0  0  0  0  0  0  0  0  0  0
   -0.8196   -1.6842   -0.8201 O   0  0  0  0  0  0  0  0  0  0  0  0
    2.5279   -0.6810    1.1481 H   0  0  0  0  0  0  0  0  0  0  0  0
    3.5160   -1.0924   -0.2698 H   0  0  0  0  0  0  0  0  0  0  0  0
    2.9909    0.6457   -0.0579 H   0  0  0  0  0  0  0  0  0  0  0  0
    0.8213    0.8526    0.6732 H   0  0  0  0  0  0  0  0  0  0  0  0
   -0.0762    0.6058   -2.2507 H   0  0  0  0  0  0  0  0  0  0  0  0
    0.0218    2.1364   -1.2049 H   0  0  0  0  0  0  0  0  0  0  0  0
   -2.2260    0.3050   -1.2739 H   0  0  0  0  0  0  0  0  0  0  0  0
   -1.2750    2.0194    0.8487 H   0  0  0  0  0  0  0  0  0  0  0  0
   -0.1988   -0.4520    2.0970 H   0  0  0  0  0  0  0  0  0  0  0  0
   -1.2230   -1.8998    1.6145 H   0  0  0  0  0  0  0  0  0  0  0  0
   -1.9343   -0.2305    1.7218 H   0  0  0  0  0  0  0  0  0  0  0  0
   -1.5410   -1.5349   -1.4626 H   0  0  0  0  0  0  0  0  0  0  0  0
  1  2  1  0
  2  3  1  0
  3  4  1  0
  4  5  1  0
  5  6  1  0
  5  7  1  0
  7  8  1  0
  7  9  1  0
  7  3  1  0
  1 10  1  0
  1 11  1  0
  1 12  1  0
  3 13  1  0
  4 14  1  0
  4 15  1  0
  5 16  1  0
  6 17  1  0
  8 18  1  0
  8 19  1  0
  8 20  1  0
  9 21  1  0
M  END
