
     RDKit          3D

 21 22  0  0  0  0  0  0  0  0999 V2000
    2.7389   -0.3439    0.0680 C   0  0  0  0  0  0  0  0  0  0  0  0
    1.5853    0.1173   -0.5969 O   0  0  0  0  0  0  0  0  0  0  0  0
    0.5015    0.0909    0.2497 C   0  0  0  0  0  0  0  0  0  0  0  0
   -0.1979    1.4550    0.3763 C   0  0  0  0  0  0  0  0  0  0  0  0
    0.5228    2.4850   -0.2123 O   0  0  0  0  0  0  0  0  0  0  0  0
   -1.2529    0.9014   -0.5833 C   0  0  0  0  0  0  0  0  0  0  0  0
   -0.7711   -0.4431   -0.2203 C   0  0  0  0  0  0  0  0  0  0  0  0
   -1.6228   -1.3102    0.6732 C   0  0  0  0  0  0  0  0  0  0  0  0
   -1.1452   -1.7098   -0.7163 C   0  0  0  0  0  0  0  0  0  0  0  0
    2.8709    0.3678    0.9293 H   0  0  0  0  0  0  0  0  0  0  0  0
    2.5775   -1.3721    0.4458 H   0  0  0  0  0  0  0  0  0  0  0  0
    3.6200   -0.2778   -0.5735 H   0  0  0  0  0  0  0  0  0  0  0  0
    0.7805   -0.2857    1.2589 H   0  0  0  0  0  0  0  0  0  0  0  0
   -0.5607    1.6346    1.4010 H   0  0  0  0  0  0  0  0  0  0  0  0
   -0.0255    3.2936   -0.1725 H   0  0  0  0  0  0  0  0  0  0  0  0
   -2.2724    1.1483   -0.2096 H   0  0  0  0  0  0  0  0  0  0  0  0
   -1.1275    1.2564   -1.6083 H   0  0  0  0  0  0  0  0  0  0  0  0
   -2.6463   -0.9431    0.8052 H   0  0  0  0  0  0  0  0  0  0  0  0
   -1.1050   -1.7087    1.5526 H   0  0  0  0  0  0  0  0  0  0  0  0
   -0.4711   -2.5646   -0.7256 H   0  0  0  0  0  0  0  0  0  0  0  0
   -1.9991   -1.7913   -1.4418 H   0  0  0  0  0  0  0  0  0  0  0  0
  1  2  1  0
  2  3  1  0
  3  4  1  0
  4  5  1  0
  4  6  1  0
  6  7  1  0
  7  8  1  0
  8  9  1  0
  7  3  1  0
  9  7  1  0
  1 10  1  0
  1 11  1  0
  1 12  1  0
  3 13  1  0
  4 14  1  0
  5 15  1  0
  6 16  1  0
  6 17  1  0
  8 18  1  0
  8 19  1  0
  9 20  1  0
  9 21  1  0
M  END
