
     RDKit          3D

 23 24  0  0  0  0  0  0  0  0999 V2000
    2.4639   -1.3009   -0.7485 C   0  0  0  0  0  0  0  0  0  0  0  0
    1.5187   -0.3093   -1.0935 O   0  0  0  0  0  0  0  0  0  0  0  0
    0.8311    0.0077    0.0460 C   0  0  0  0  0  0  0  0  0  0  0  0
    0.0399   -1.0358    0.7959 C   0  0  0  0  0  0  0  0  0  0  0  0
   -1.0748   -0.0327    0.9288 C   0  0  0  0  0  0  0  0  0  0  0  0
   -2.3748   -0.4690    0.3008 C   0  0  0  0  0  0  0  0  0  0  0  0
   -0.2771    0.9490    0.1210 C   0  0  0  0  0  0  0  0  0  0  0  0
   -0.8905    1.6210   -1.0628 C   0  0  0  0  0  0  0  0  0  0  0  0
    1.0420    1.3506    0.6613 C   0  0  0  0  0  0  0  0  0  0  0  0
    3.0659   -1.6210   -1.5995 H   0  0  0  0  0  0  0  0  0  0  0  0
    3.1269   -0.9473    0.0756 H   0  0  0  0  0  0  0  0  0  0  0  0
    1.9449   -2.2109   -0.3371 H   0  0  0  0  0  0  0  0  0  0  0  0
    0.4919   -1.3717    1.7477 H   0  0  0  0  0  0  0  0  0  0  0  0
   -0.2127   -1.9093    0.1806 H   0  0  0  0  0  0  0  0  0  0  0  0
   -1.2436    0.2750    1.9704 H   0  0  0  0  0  0  0  0  0  0  0  0
   -2.2384   -0.9470   -0.6810 H   0  0  0  0  0  0  0  0  0  0  0  0
   -2.8162   -1.2346    0.9831 H   0  0  0  0  0  0  0  0  0  0  0  0
   -3.0735    0.3621    0.1936 H   0  0  0  0  0  0  0  0  0  0  0  0
   -0.2247    1.7480   -1.9225 H   0  0  0  0  0  0  0  0  0  0  0  0
   -1.8255    1.0529   -1.3171 H   0  0  0  0  0  0  0  0  0  0  0  0
   -1.2285    2.6444   -0.7292 H   0  0  0  0  0  0  0  0  0  0  0  0
    1.2711    1.3447    1.7367 H   0  0  0  0  0  0  0  0  0  0  0  0
    1.6837    2.0341    0.0796 H   0  0  0  0  0  0  0  0  0  0  0  0
  1  2  1  0
  2  3  1  0
  3  4  1  0
  4  5  1  0
  5  6  1  0
  5  7  1  0
  7  8  1  0
  7  9  1  0
  7  3  1  0
  9  3  1  0
  1 10  1  0
  1 11  1  0
  1 12  1  0
  4 13  1  0
  4 14  1  0
  5 15  1  0
  6 16  1  0
  6 17  1  0
  6 18  1  0
  8 19  1  0
  8 20  1  0
  8 21  1  0
  9 22  1  0
  9 23  1  0
M  END
