
     RDKit          3D

 21 22  0  0  0  0  0  0  0  0999 V2000
    2.1817    0.8276    0.8851 C   0  0  0  0  0  0  0  0  0  0  0  0
    0.8371    0.9989    0.7490 O   0  0  0  0  0  0  0  0  0  0  0  0
    0.1115    0.0746    0.1790 C   0  0  0  0  0  0  0  0  0  0  0  0
    0.3877   -0.3431   -1.2690 C   0  0  0  0  0  0  0  0  0  0  0  0
   -0.4318   -1.5655   -0.8267 C   0  0  0  0  0  0  0  0  0  0  0  0
    0.3327   -1.4035    0.4971 C   0  0  0  0  0  0  0  0  0  0  0  0
   -1.6585   -1.0012   -0.6549 O   0  0  0  0  0  0  0  0  0  0  0  0
   -1.3738    0.0864    0.2073 C   0  0  0  0  0  0  0  0  0  0  0  0
   -2.0279    1.3454   -0.1731 C   0  0  0  0  0  0  0  0  0  0  0  0
    2.4399   -0.0656    1.4860 H   0  0  0  0  0  0  0  0  0  0  0  0
    2.5721    1.7030    1.4843 H   0  0  0  0  0  0  0  0  0  0  0  0
    2.6844    0.8498   -0.1035 H   0  0  0  0  0  0  0  0  0  0  0  0
    1.4330   -0.6388   -1.4102 H   0  0  0  0  0  0  0  0  0  0  0  0
   -0.0938    0.2655   -2.0295 H   0  0  0  0  0  0  0  0  0  0  0  0
   -0.2882   -2.4666   -1.3637 H   0  0  0  0  0  0  0  0  0  0  0  0
   -0.2585   -1.7763    1.3590 H   0  0  0  0  0  0  0  0  0  0  0  0
    1.3512   -1.7598    0.3947 H   0  0  0  0  0  0  0  0  0  0  0  0
   -1.6918   -0.2894    1.2226 H   0  0  0  0  0  0  0  0  0  0  0  0
   -2.6784    1.3173   -1.0512 H   0  0  0  0  0  0  0  0  0  0  0  0
   -2.6063    1.7192    0.7244 H   0  0  0  0  0  0  0  0  0  0  0  0
   -1.2223    2.1223   -0.3066 H   0  0  0  0  0  0  0  0  0  0  0  0
  1  2  1  0
  2  3  1  0
  3  4  1  0
  4  5  1  0
  5  6  1  0
  5  7  1  0
  7  8  1  0
  8  9  1  0
  6  3  1  0
  8  3  1  0
  1 10  1  0
  1 11  1  0
  1 12  1  0
  4 13  1  0
  4 14  1  0
  5 15  1  0
  6 16  1  0
  6 17  1  0
  8 18  1  0
  9 19  1  0
  9 20  1  0
  9 21  1  0
M  END
