
     RDKit          3D

 23 24  0  0  0  0  0  0  0  0999 V2000
    2.0029    1.2379    0.8089 C   0  0  0  0  0  0  0  0  0  0  0  0
    0.9582    0.3530    1.0720 O   0  0  0  0  0  0  0  0  0  0  0  0
    0.5902   -0.3778   -0.0354 C   0  0  0  0  0  0  0  0  0  0  0  0
    1.6818   -1.2447   -0.6356 C   0  0  0  0  0  0  0  0  0  0  0  0
    0.0114    0.5029   -1.1404 C   0  0  0  0  0  0  0  0  0  0  0  0
   -1.1048   -0.4952   -1.2573 C   0  0  0  0  0  0  0  0  0  0  0  0
   -2.0112   -0.5380   -0.0750 C   0  0  0  0  0  0  0  0  0  0  0  0
   -2.3610    0.8317    0.4994 C   0  0  0  0  0  0  0  0  0  0  0  0
   -0.6886   -1.1308    0.1064 C   0  0  0  0  0  0  0  0  0  0  0  0
    2.2636    1.7999    1.7201 H   0  0  0  0  0  0  0  0  0  0  0  0
    2.9296    0.7074    0.4821 H   0  0  0  0  0  0  0  0  0  0  0  0
    1.6640    1.9906    0.0635 H   0  0  0  0  0  0  0  0  0  0  0  0
    1.9954   -0.8939   -1.6411 H   0  0  0  0  0  0  0  0  0  0  0  0
    2.5883   -1.2686   -0.0138 H   0  0  0  0  0  0  0  0  0  0  0  0
    1.3365   -2.3102   -0.7512 H   0  0  0  0  0  0  0  0  0  0  0  0
    0.6607    0.6161   -2.0267 H   0  0  0  0  0  0  0  0  0  0  0  0
   -0.3807    1.4569   -0.7396 H   0  0  0  0  0  0  0  0  0  0  0  0
   -1.1597   -1.2091   -2.0755 H   0  0  0  0  0  0  0  0  0  0  0  0
   -2.8635   -1.2271   -0.1670 H   0  0  0  0  0  0  0  0  0  0  0  0
   -3.1780    0.6619    1.2371 H   0  0  0  0  0  0  0  0  0  0  0  0
   -2.8315    1.4436   -0.3151 H   0  0  0  0  0  0  0  0  0  0  0  0
   -1.4968    1.3265    0.9636 H   0  0  0  0  0  0  0  0  0  0  0  0
   -0.6066   -2.2328    0.1222 H   0  0  0  0  0  0  0  0  0  0  0  0
  1  2  1  0
  2  3  1  0
  3  4  1  0
  3  5  1  0
  5  6  1  0
  6  7  1  0
  7  8  1  0
  7  9  1  0
  9  3  1  0
  9  6  1  0
  1 10  1  0
  1 11  1  0
  1 12  1  0
  4 13  1  0
  4 14  1  0
  4 15  1  0
  5 16  1  0
  5 17  1  0
  6 18  1  0
  7 19  1  0
  8 20  1  0
  8 21  1  0
  8 22  1  0
  9 23  1  0
M  END
