
     RDKit          3D

 21 22  0  0  0  0  0  0  0  0999 V2000
    2.7901   -0.0564    0.2037 C   0  0  0  0  0  0  0  0  0  0  0  0
    1.4129    0.2424    0.2685 O   0  0  0  0  0  0  0  0  0  0  0  0
    0.7218   -0.5571   -0.5967 C   0  0  0  0  0  0  0  0  0  0  0  0
   -0.2709    0.1453   -1.4892 C   0  0  0  0  0  0  0  0  0  0  0  0
   -0.8673    1.3196   -0.7428 C   0  0  0  0  0  0  0  0  0  0  0  0
   -1.9835    0.7345    0.1354 C   0  0  0  0  0  0  0  0  0  0  0  0
   -1.3109   -0.4314    0.8755 C   0  0  0  0  0  0  0  0  0  0  0  0
   -0.5188   -1.2175   -0.1168 C   0  0  0  0  0  0  0  0  0  0  0  0
   -1.0715   -0.9964   -1.3999 O   0  0  0  0  0  0  0  0  0  0  0  0
    3.3754    0.5637    0.8826 H   0  0  0  0  0  0  0  0  0  0  0  0
    3.1209    0.0567   -0.8663 H   0  0  0  0  0  0  0  0  0  0  0  0
    2.9571   -1.1268    0.4456 H   0  0  0  0  0  0  0  0  0  0  0  0
    1.3712   -1.2473   -1.1464 H   0  0  0  0  0  0  0  0  0  0  0  0
    0.0342    0.3243   -2.5152 H   0  0  0  0  0  0  0  0  0  0  0  0
   -0.1107    1.7079    0.0007 H   0  0  0  0  0  0  0  0  0  0  0  0
   -1.2569    2.1041   -1.3881 H   0  0  0  0  0  0  0  0  0  0  0  0
   -2.7486    0.2901   -0.5406 H   0  0  0  0  0  0  0  0  0  0  0  0
   -2.3641    1.4938    0.8134 H   0  0  0  0  0  0  0  0  0  0  0  0
   -2.1490   -1.0713    1.2248 H   0  0  0  0  0  0  0  0  0  0  0  0
   -0.7272    0.0155    1.6868 H   0  0  0  0  0  0  0  0  0  0  0  0
   -0.4044   -2.2938    0.1181 H   0  0  0  0  0  0  0  0  0  0  0  0
  1  2  1  0
  2  3  1  0
  3  4  1  0
  4  5  1  0
  5  6  1  0
  6  7  1  0
  7  8  1  0
  8  9  1  0
  8  3  1  0
  9  4  1  0
  1 10  1  0
  1 11  1  0
  1 12  1  0
  3 13  1  0
  4 14  1  0
  5 15  1  0
  5 16  1  0
  6 17  1  0
  6 18  1  0
  7 19  1  0
  7 20  1  0
  8 21  1  0
M  END
