
     RDKit          3D

 21 22  0  0  0  0  0  0  0  0999 V2000
    2.5273    0.4761   -0.9575 C   0  0  0  0  0  0  0  0  0  0  0  0
    1.1392    0.5010   -0.8635 O   0  0  0  0  0  0  0  0  0  0  0  0
    0.7380   -0.3461    0.1505 C   0  0  0  0  0  0  0  0  0  0  0  0
   -0.4163   -1.2710   -0.2215 C   0  0  0  0  0  0  0  0  0  0  0  0
   -1.3533   -0.5389   -1.1174 C   0  0  0  0  0  0  0  0  0  0  0  0
   -1.6451    0.7122   -0.7761 C   0  0  0  0  0  0  0  0  0  0  0  0
   -1.1649    1.2544    0.5245 C   0  0  0  0  0  0  0  0  0  0  0  0
   -0.2012    0.2796    1.1628 C   0  0  0  0  0  0  0  0  0  0  0  0
   -0.8899   -1.0836    1.2156 C   0  0  0  0  0  0  0  0  0  0  0  0
    2.9187   -0.5321   -1.1787 H   0  0  0  0  0  0  0  0  0  0  0  0
    2.8820    1.2399   -1.6900 H   0  0  0  0  0  0  0  0  0  0  0  0
    2.9042    0.7240    0.0756 H   0  0  0  0  0  0  0  0  0  0  0  0
    1.5574   -0.8481    0.6580 H   0  0  0  0  0  0  0  0  0  0  0  0
   -0.1457   -2.2825   -0.5089 H   0  0  0  0  0  0  0  0  0  0  0  0
   -1.7509   -1.0418   -1.9907 H   0  0  0  0  0  0  0  0  0  0  0  0
   -2.2256    1.3855   -1.3970 H   0  0  0  0  0  0  0  0  0  0  0  0
   -2.0587    1.3527    1.1784 H   0  0  0  0  0  0  0  0  0  0  0  0
   -0.7319    2.2528    0.4043 H   0  0  0  0  0  0  0  0  0  0  0  0
    0.2394    0.6221    2.0921 H   0  0  0  0  0  0  0  0  0  0  0  0
   -1.9719   -1.0463    1.3518 H   0  0  0  0  0  0  0  0  0  0  0  0
   -0.3504   -1.8100    1.8875 H   0  0  0  0  0  0  0  0  0  0  0  0
  1  2  1  0
  2  3  1  0
  3  4  1  0
  4  5  1  0
  5  6  2  0
  6  7  1  0
  7  8  1  0
  8  9  1  0
  8  3  1  0
  9  4  1  0
  1 10  1  0
  1 11  1  0
  1 12  1  0
  3 13  1  0
  4 14  1  0
  5 15  1  0
  6 16  1  0
  7 17  1  0
  7 18  1  0
  8 19  1  0
  9 20  1  0
  9 21  1  0
M  END
