
     RDKit          3D

 21 22  0  0  0  0  0  0  0  0999 V2000
   -0.5478    2.3296    0.5485 C   0  0  0  0  0  0  0  0  0  0  0  0
   -0.3866    1.1353    1.1815 O   0  0  0  0  0  0  0  0  0  0  0  0
    0.1494    0.1849    0.3135 C   0  0  0  0  0  0  0  0  0  0  0  0
   -0.7645   -0.0543   -0.8200 C   0  0  0  0  0  0  0  0  0  0  0  0
   -1.9186   -0.6626    0.0115 C   0  0  0  0  0  0  0  0  0  0  0  0
   -1.3047   -1.1192    1.2092 O   0  0  0  0  0  0  0  0  0  0  0  0
   -0.0140   -1.3146    0.8160 C   0  0  0  0  0  0  0  0  0  0  0  0
    1.1930   -0.5944    0.8798 C   0  0  0  0  0  0  0  0  0  0  0  0
    2.3453   -0.9517   -0.0701 C   0  0  0  0  0  0  0  0  0  0  0  0
    0.4689    2.6375    0.1686 H   0  0  0  0  0  0  0  0  0  0  0  0
   -1.2323    2.3053   -0.2908 H   0  0  0  0  0  0  0  0  0  0  0  0
   -0.8927    3.1411    1.2795 H   0  0  0  0  0  0  0  0  0  0  0  0
   -1.0665    0.7719   -1.4363 H   0  0  0  0  0  0  0  0  0  0  0  0
   -0.4302   -0.9493   -1.4409 H   0  0  0  0  0  0  0  0  0  0  0  0
   -2.5590    0.1813    0.3221 H   0  0  0  0  0  0  0  0  0  0  0  0
   -2.4223   -1.4615   -0.5181 H   0  0  0  0  0  0  0  0  0  0  0  0
   -0.0228   -2.1093    0.0074 H   0  0  0  0  0  0  0  0  0  0  0  0
    1.6055   -0.3328    1.8761 H   0  0  0  0  0  0  0  0  0  0  0  0
    3.1949   -0.2957    0.1177 H   0  0  0  0  0  0  0  0  0  0  0  0
    2.5818   -2.0394    0.0006 H   0  0  0  0  0  0  0  0  0  0  0  0
    2.0230   -0.8022   -1.1398 H   0  0  0  0  0  0  0  0  0  0  0  0
  1  2  1  0
  2  3  1  0
  3  4  1  0
  4  5  1  0
  5  6  1  0
  6  7  1  0
  7  8  1  0
  8  9  1  0
  7  3  1  0
  8  3  1  0
  1 10  1  0
  1 11  1  0
  1 12  1  0
  4 13  1  0
  4 14  1  0
  5 15  1  0
  5 16  1  0
  7 17  1  0
  8 18  1  0
  9 19  1  0
  9 20  1  0
  9 21  1  0
M  END
