
     RDKit          3D

 21 21  0  0  0  0  0  0  0  0999 V2000
   -1.6389   -2.2077    0.0215 C   0  0  0  0  0  0  0  0  0  0  0  0
   -0.5787   -1.4157   -0.3885 O   0  0  0  0  0  0  0  0  0  0  0  0
   -0.3931   -0.3000    0.4094 C   0  0  0  0  0  0  0  0  0  0  0  0
    1.0050   -0.4712    1.0245 C   0  0  0  0  0  0  0  0  0  0  0  0
    1.8705   -0.0039   -0.1306 C   0  0  0  0  0  0  0  0  0  0  0  0
    3.0849    0.4024    0.3734 O   0  0  0  0  0  0  0  0  0  0  0  0
    1.0643    1.1272   -0.6877 C   0  0  0  0  0  0  0  0  0  0  0  0
   -0.2136    0.9425   -0.3723 C   0  0  0  0  0  0  0  0  0  0  0  0
   -1.2975    1.8835   -0.7701 C   0  0  0  0  0  0  0  0  0  0  0  0
   -1.5163   -2.5915    1.0463 H   0  0  0  0  0  0  0  0  0  0  0  0
   -2.6113   -1.6759   -0.1161 H   0  0  0  0  0  0  0  0  0  0  0  0
   -1.6722   -3.0773   -0.6816 H   0  0  0  0  0  0  0  0  0  0  0  0
   -1.1055   -0.2147    1.2345 H   0  0  0  0  0  0  0  0  0  0  0  0
    1.1578    0.2021    1.8798 H   0  0  0  0  0  0  0  0  0  0  0  0
    1.2242   -1.5223    1.2053 H   0  0  0  0  0  0  0  0  0  0  0  0
    1.9417   -0.7724   -0.9251 H   0  0  0  0  0  0  0  0  0  0  0  0
    2.9995    1.3263    0.7383 H   0  0  0  0  0  0  0  0  0  0  0  0
    1.4756    1.9430   -1.2477 H   0  0  0  0  0  0  0  0  0  0  0  0
   -1.7816    2.3547    0.1275 H   0  0  0  0  0  0  0  0  0  0  0  0
   -2.0835    1.3549   -1.3565 H   0  0  0  0  0  0  0  0  0  0  0  0
   -0.9310    2.7160   -1.3844 H   0  0  0  0  0  0  0  0  0  0  0  0
  1  2  1  0
  2  3  1  0
  3  4  1  0
  4  5  1  0
  5  6  1  0
  5  7  1  0
  7  8  2  0
  8  9  1  0
  8  3  1  0
  1 10  1  0
  1 11  1  0
  1 12  1  0
  3 13  1  0
  4 14  1  0
  4 15  1  0
  5 16  1  0
  6 17  1  0
  7 18  1  0
  9 19  1  0
  9 20  1  0
  9 21  1  0
M  END
