
     RDKit          3D

 18 19  0  0  0  0  0  0  0  0999 V2000
    2.5126   -0.2906    0.5031 C   0  0  0  0  0  0  0  0  0  0  0  0
    1.1915   -0.0080    0.7519 O   0  0  0  0  0  0  0  0  0  0  0  0
    0.3902   -0.0309   -0.3714 C   0  0  0  0  0  0  0  0  0  0  0  0
   -0.6648   -1.1086   -0.1859 C   0  0  0  0  0  0  0  0  0  0  0  0
   -1.8124   -0.3263    0.4070 C   0  0  0  0  0  0  0  0  0  0  0  0
   -1.6909    1.0360   -0.2364 C   0  0  0  0  0  0  0  0  0  0  0  0
   -0.9058    1.9185    0.5209 O   0  0  0  0  0  0  0  0  0  0  0  0
   -0.3681    1.2601   -0.5752 C   0  0  0  0  0  0  0  0  0  0  0  0
    2.9942    0.4310   -0.2121 H   0  0  0  0  0  0  0  0  0  0  0  0
    3.0679   -0.1531    1.4600 H   0  0  0  0  0  0  0  0  0  0  0  0
    2.5975   -1.3367    0.1676 H   0  0  0  0  0  0  0  0  0  0  0  0
    0.9334   -0.2735   -1.3026 H   0  0  0  0  0  0  0  0  0  0  0  0
   -1.0033   -1.5343   -1.1396 H   0  0  0  0  0  0  0  0  0  0  0  0
   -0.3054   -1.8827    0.4989 H   0  0  0  0  0  0  0  0  0  0  0  0
   -2.7880   -0.7954    0.2747 H   0  0  0  0  0  0  0  0  0  0  0  0
   -1.6385   -0.2597    1.5190 H   0  0  0  0  0  0  0  0  0  0  0  0
   -2.5840    1.4180   -0.7568 H   0  0  0  0  0  0  0  0  0  0  0  0
    0.0741    1.9362   -1.3230 H   0  0  0  0  0  0  0  0  0  0  0  0
  1  2  1  0
  2  3  1  0
  3  4  1  0
  4  5  1  0
  5  6  1  0
  6  7  1  0
  7  8  1  0
  8  3  1  0
  8  6  1  0
  1  9  1  0
  1 10  1  0
  1 11  1  0
  3 12  1  0
  4 13  1  0
  4 14  1  0
  5 15  1  0
  5 16  1  0
  6 17  1  0
  8 18  1  0
M  END
