
     RDKit          3D

 21 22  0  0  0  0  0  0  0  0999 V2000
    2.1364   -0.3740   -0.9357 C   0  0  0  0  0  0  0  0  0  0  0  0
    1.6727    0.1983    0.1931 O   0  0  0  0  0  0  0  0  0  0  0  0
    0.4033    0.4806    0.3576 C   0  0  0  0  0  0  0  0  0  0  0  0
   -0.3252    1.4102   -0.5517 C   0  0  0  0  0  0  0  0  0  0  0  0
   -1.5848    0.5850   -0.3162 C   0  0  0  0  0  0  0  0  0  0  0  0
   -0.7203   -0.3841    0.4697 C   0  0  0  0  0  0  0  0  0  0  0  0
   -0.7857   -1.7435   -0.1108 C   0  0  0  0  0  0  0  0  0  0  0  0
   -0.9111   -0.2369    1.8145 O   0  0  0  0  0  0  0  0  0  0  0  0
    0.0600    0.7565    1.8183 C   0  0  0  0  0  0  0  0  0  0  0  0
    3.2517   -0.5104   -0.8259 H   0  0  0  0  0  0  0  0  0  0  0  0
    1.9935    0.1896   -1.8652 H   0  0  0  0  0  0  0  0  0  0  0  0
    1.7500   -1.4321   -1.0048 H   0  0  0  0  0  0  0  0  0  0  0  0
   -0.0498    1.4114   -1.6040 H   0  0  0  0  0  0  0  0  0  0  0  0
   -0.4648    2.4151   -0.1270 H   0  0  0  0  0  0  0  0  0  0  0  0
   -2.0339    0.1632   -1.2391 H   0  0  0  0  0  0  0  0  0  0  0  0
   -2.3633    1.1012    0.2847 H   0  0  0  0  0  0  0  0  0  0  0  0
   -0.1360   -2.4915    0.3459 H   0  0  0  0  0  0  0  0  0  0  0  0
   -1.8444   -2.1176    0.0230 H   0  0  0  0  0  0  0  0  0  0  0  0
   -0.6506   -1.6650   -1.2112 H   0  0  0  0  0  0  0  0  0  0  0  0
   -0.2754    1.7803    1.9531 H   0  0  0  0  0  0  0  0  0  0  0  0
    0.8778    0.4636    2.5319 H   0  0  0  0  0  0  0  0  0  0  0  0
  1  2  1  0
  2  3  1  0
  3  4  1  0
  4  5  1  0
  5  6  1  0
  6  7  1  0
  6  8  1  0
  8  9  1  0
  6  3  1  0
  9  3  1  0
  1 10  1  0
  1 11  1  0
  1 12  1  0
  4 13  1  0
  4 14  1  0
  5 15  1  0
  5 16  1  0
  7 17  1  0
  7 18  1  0
  7 19  1  0
  9 20  1  0
  9 21  1  0
M  END
