
     RDKit          3D

 23 23  0  0  0  0  0  0  0  0999 V2000
    2.6371   -0.2896    0.1712 C   0  0  0  0  0  0  0  0  0  0  0  0
    1.4845   -0.5944    0.8547 O   0  0  0  0  0  0  0  0  0  0  0  0
    0.3202   -0.2655    0.2282 C   0  0  0  0  0  0  0  0  0  0  0  0
    0.2459   -1.0037   -1.0927 C   0  0  0  0  0  0  0  0  0  0  0  0
   -0.8354   -0.6990    1.0993 C   0  0  0  0  0  0  0  0  0  0  0  0
   -2.0980   -0.4548    0.3690 C   0  0  0  0  0  0  0  0  0  0  0  0
   -2.2104    0.6847   -0.3253 O   0  0  0  0  0  0  0  0  0  0  0  0
   -1.2596    1.6268   -0.2568 C   0  0  0  0  0  0  0  0  0  0  0  0
    0.1502    1.1942   -0.0676 C   0  0  0  0  0  0  0  0  0  0  0  0
    3.4945   -0.6188    0.8123 H   0  0  0  0  0  0  0  0  0  0  0  0
    2.7202    0.8019    0.0899 H   0  0  0  0  0  0  0  0  0  0  0  0
    2.7582   -0.8225   -0.7880 H   0  0  0  0  0  0  0  0  0  0  0  0
   -0.7464   -0.8301   -1.5873 H   0  0  0  0  0  0  0  0  0  0  0  0
    0.4474   -2.0797   -0.9381 H   0  0  0  0  0  0  0  0  0  0  0  0
    0.9996   -0.6168   -1.8009 H   0  0  0  0  0  0  0  0  0  0  0  0
   -0.7406   -0.1658    2.0663 H   0  0  0  0  0  0  0  0  0  0  0  0
   -0.7201   -1.7976    1.2434 H   0  0  0  0  0  0  0  0  0  0  0  0
   -2.2709   -1.3281   -0.3260 H   0  0  0  0  0  0  0  0  0  0  0  0
   -2.9574   -0.5268    1.0991 H   0  0  0  0  0  0  0  0  0  0  0  0
   -1.5416    2.3826    0.5325 H   0  0  0  0  0  0  0  0  0  0  0  0
   -1.2901    2.2254   -1.2171 H   0  0  0  0  0  0  0  0  0  0  0  0
    0.6100    1.7512    0.7824 H   0  0  0  0  0  0  0  0  0  0  0  0
    0.8027    1.4266   -0.9488 H   0  0  0  0  0  0  0  0  0  0  0  0
  1  2  1  0
  2  3  1  0
  3  4  1  0
  3  5  1  0
  5  6  1  0
  6  7  1  0
  7  8  1  0
  8  9  1  0
  9  3  1  0
  1 10  1  0
  1 11  1  0
  1 12  1  0
  4 13  1  0
  4 14  1  0
  4 15  1  0
  5 16  1  0
  5 17  1  0
  6 18  1  0
  6 19  1  0
  8 20  1  0
  8 21  1  0
  9 22  1  0
  9 23  1  0
M  END
