
     RDKit          3D

 19 19  0  0  0  0  0  0  0  0999 V2000
   -2.4974    0.0028    0.4668 C   0  0  0  0  0  0  0  0  0  0  0  0
   -1.2847   -0.2492    1.1027 O   0  0  0  0  0  0  0  0  0  0  0  0
   -0.1958   -0.0004    0.2688 C   0  0  0  0  0  0  0  0  0  0  0  0
   -0.1343    1.4365   -0.2105 C   0  0  0  0  0  0  0  0  0  0  0  0
    0.3346   -1.0268   -0.6464 C   0  0  0  0  0  0  0  0  0  0  0  0
    0.9882   -0.6259   -1.7978 O   0  0  0  0  0  0  0  0  0  0  0  0
    1.0646   -0.6897    0.6668 C   0  0  0  0  0  0  0  0  0  0  0  0
    2.3709   -0.0402    0.5355 C   0  0  0  0  0  0  0  0  0  0  0  0
    3.2956   -0.4040    1.2426 O   0  0  0  0  0  0  0  0  0  0  0  0
   -3.2933   -0.2246    1.2110 H   0  0  0  0  0  0  0  0  0  0  0  0
   -2.5802    1.1061    0.2672 H   0  0  0  0  0  0  0  0  0  0  0  0
   -2.6205   -0.5230   -0.4804 H   0  0  0  0  0  0  0  0  0  0  0  0
    0.7861    1.6414   -0.7911 H   0  0  0  0  0  0  0  0  0  0  0  0
   -0.2515    2.1130    0.6488 H   0  0  0  0  0  0  0  0  0  0  0  0
   -0.9854    1.6138   -0.8992 H   0  0  0  0  0  0  0  0  0  0  0  0
   -0.1345   -2.0158   -0.7215 H   0  0  0  0  0  0  0  0  0  0  0  0
    1.5408   -1.3844   -2.1270 H   0  0  0  0  0  0  0  0  0  0  0  0
    0.9988   -1.4934    1.4226 H   0  0  0  0  0  0  0  0  0  0  0  0
    2.5981    0.7638   -0.1589 H   0  0  0  0  0  0  0  0  0  0  0  0
  1  2  1  0
  2  3  1  0
  3  4  1  0
  3  5  1  0
  5  6  1  0
  5  7  1  0
  7  8  1  0
  8  9  2  0
  7  3  1  0
  1 10  1  0
  1 11  1  0
  1 12  1  0
  4 13  1  0
  4 14  1  0
  4 15  1  0
  5 16  1  0
  6 17  1  0
  7 18  1  0
  8 19  1  0
M  END
