
     RDKit          3D

 21 21  0  0  0  0  0  0  0  0999 V2000
    2.6478    0.3288   -0.6078 C   0  0  0  0  0  0  0  0  0  0  0  0
    1.4210    0.8590   -0.3333 O   0  0  0  0  0  0  0  0  0  0  0  0
    0.5616    0.0749    0.3709 C   0  0  0  0  0  0  0  0  0  0  0  0
    1.0095   -0.3104    1.7410 C   0  0  0  0  0  0  0  0  0  0  0  0
    0.1103   -1.1450   -0.3463 C   0  0  0  0  0  0  0  0  0  0  0  0
   -1.0648   -0.8685   -0.8860 C   0  0  0  0  0  0  0  0  0  0  0  0
   -1.4114    0.5163   -0.5452 C   0  0  0  0  0  0  0  0  0  0  0  0
   -2.8951    0.6797   -0.2540 C   0  0  0  0  0  0  0  0  0  0  0  0
   -0.6329    0.8275    0.5334 O   0  0  0  0  0  0  0  0  0  0  0  0
    3.2503    0.0539    0.2755 H   0  0  0  0  0  0  0  0  0  0  0  0
    3.2283    1.0778   -1.1860 H   0  0  0  0  0  0  0  0  0  0  0  0
    2.6034   -0.5825   -1.2481 H   0  0  0  0  0  0  0  0  0  0  0  0
    0.1367   -0.8049    2.2445 H   0  0  0  0  0  0  0  0  0  0  0  0
    1.2151    0.6142    2.3396 H   0  0  0  0  0  0  0  0  0  0  0  0
    1.8404   -1.0167    1.7715 H   0  0  0  0  0  0  0  0  0  0  0  0
    0.6002   -2.0975   -0.4432 H   0  0  0  0  0  0  0  0  0  0  0  0
   -1.7000   -1.5409   -1.4931 H   0  0  0  0  0  0  0  0  0  0  0  0
   -1.1710    1.1527   -1.4317 H   0  0  0  0  0  0  0  0  0  0  0  0
   -3.4795    0.5666   -1.1694 H   0  0  0  0  0  0  0  0  0  0  0  0
   -3.0263    1.6888    0.1864 H   0  0  0  0  0  0  0  0  0  0  0  0
   -3.2435   -0.0739    0.4812 H   0  0  0  0  0  0  0  0  0  0  0  0
  1  2  1  0
  2  3  1  0
  3  4  1  0
  3  5  1  0
  5  6  2  0
  6  7  1  0
  7  8  1  0
  7  9  1  0
  9  3  1  0
  1 10  1  0
  1 11  1  0
  1 12  1  0
  4 13  1  0
  4 14  1  0
  4 15  1  0
  5 16  1  0
  6 17  1  0
  7 18  1  0
  8 19  1  0
  8 20  1  0
  8 21  1  0
M  END
