
     RDKit          3D

 18 18  0  0  0  0  0  0  0  0999 V2000
   -1.8553   -0.8943   -0.0170 C   0  0  0  0  0  0  0  0  0  0  0  0
   -0.7597   -0.6846   -0.8267 O   0  0  0  0  0  0  0  0  0  0  0  0
    0.0999    0.2469   -0.2659 C   0  0  0  0  0  0  0  0  0  0  0  0
   -0.5844    1.5675   -0.0624 C   0  0  0  0  0  0  0  0  0  0  0  0
    0.8520   -0.2949    0.9276 C   0  0  0  0  0  0  0  0  0  0  0  0
    1.8413   -0.8285   -0.1222 C   0  0  0  0  0  0  0  0  0  0  0  0
    1.3988    0.2952   -0.9797 C   0  0  0  0  0  0  0  0  0  0  0  0
    1.8626    0.9530   -1.8530 O   0  0  0  0  0  0  0  0  0  0  0  0
   -2.4972   -1.6505   -0.5317 H   0  0  0  0  0  0  0  0  0  0  0  0
   -1.6001   -1.2437    0.9911 H   0  0  0  0  0  0  0  0  0  0  0  0
   -2.4483    0.0394    0.1107 H   0  0  0  0  0  0  0  0  0  0  0  0
   -1.3416    1.6723   -0.8761 H   0  0  0  0  0  0  0  0  0  0  0  0
    0.0780    2.4323   -0.1368 H   0  0  0  0  0  0  0  0  0  0  0  0
   -1.1385    1.6329    0.8833 H   0  0  0  0  0  0  0  0  0  0  0  0
    1.3473    0.4721    1.5524 H   0  0  0  0  0  0  0  0  0  0  0  0
    0.3708   -1.0992    1.4707 H   0  0  0  0  0  0  0  0  0  0  0  0
    2.8674   -0.7942    0.2471 H   0  0  0  0  0  0  0  0  0  0  0  0
    1.5069   -1.8219   -0.5114 H   0  0  0  0  0  0  0  0  0  0  0  0
  1  2  1  0
  2  3  1  0
  3  4  1  0
  3  5  1  0
  5  6  1  0
  6  7  1  0
  7  8  2  0
  7  3  1  0
  1  9  1  0
  1 10  1  0
  1 11  1  0
  4 12  1  0
  4 13  1  0
  4 14  1  0
  5 15  1  0
  5 16  1  0
  6 17  1  0
  6 18  1  0
M  END
