
     RDKit          3D

 17 17  0  0  0  0  0  0  0  0999 V2000
    2.4459    0.1971    0.0049 C   0  0  0  0  0  0  0  0  0  0  0  0
    1.1256    0.5989    0.0386 O   0  0  0  0  0  0  0  0  0  0  0  0
    0.2538   -0.3842    0.4715 C   0  0  0  0  0  0  0  0  0  0  0  0
   -0.7376   -0.7803   -0.6021 C   0  0  0  0  0  0  0  0  0  0  0  0
   -2.0463   -0.5571   -0.2471 O   0  0  0  0  0  0  0  0  0  0  0  0
   -2.1642    0.7978    0.0947 C   0  0  0  0  0  0  0  0  0  0  0  0
   -1.6060    0.9012    1.4147 O   0  0  0  0  0  0  0  0  0  0  0  0
   -0.5186    0.0514    1.6554 C   0  0  0  0  0  0  0  0  0  0  0  0
   -0.1912   -0.3370    2.7955 O   0  0  0  0  0  0  0  0  0  0  0  0
    2.5446   -0.6672   -0.6893 H   0  0  0  0  0  0  0  0  0  0  0  0
    2.8530   -0.1127    0.9755 H   0  0  0  0  0  0  0  0  0  0  0  0
    3.0344    1.0387   -0.4140 H   0  0  0  0  0  0  0  0  0  0  0  0
    0.8607   -1.2973    0.6956 H   0  0  0  0  0  0  0  0  0  0  0  0
   -0.5247   -0.1225   -1.4940 H   0  0  0  0  0  0  0  0  0  0  0  0
   -0.5691   -1.8227   -0.9672 H   0  0  0  0  0  0  0  0  0  0  0  0
   -3.2117    1.1149    0.1492 H   0  0  0  0  0  0  0  0  0  0  0  0
   -1.5487    1.3809   -0.6214 H   0  0  0  0  0  0  0  0  0  0  0  0
  1  2  1  0
  2  3  1  0
  3  4  1  0
  4  5  1  0
  5  6  1  0
  6  7  1  0
  7  8  1  0
  8  9  2  0
  8  3  1  0
  1 10  1  0
  1 11  1  0
  1 12  1  0
  3 13  1  0
  4 14  1  0
  4 15  1  0
  6 16  1  0
  6 17  1  0
M  END
