
     RDKit          3D

 21 21  0  0  0  0  0  0  0  0999 V2000
   -2.6148   -1.3398    1.2199 C   0  0  0  0  0  0  0  0  0  0  0  0
   -1.4267   -0.6167    1.2935 O   0  0  0  0  0  0  0  0  0  0  0  0
   -0.8095   -0.4481    0.0586 C   0  0  0  0  0  0  0  0  0  0  0  0
    0.6532   -0.6625   -0.0039 C   0  0  0  0  0  0  0  0  0  0  0  0
    1.2840   -1.3444   -1.2010 C   0  0  0  0  0  0  0  0  0  0  0  0
    2.6644   -1.4249   -1.0182 O   0  0  0  0  0  0  0  0  0  0  0  0
    0.0002    0.7115   -0.2836 C   0  0  0  0  0  0  0  0  0  0  0  0
    0.4583    1.6684    0.5691 O   0  0  0  0  0  0  0  0  0  0  0  0
    0.8229    2.8628    0.0587 C   0  0  0  0  0  0  0  0  0  0  0  0
   -2.3769   -2.3314    0.8098 H   0  0  0  0  0  0  0  0  0  0  0  0
   -3.0134   -1.4230    2.2342 H   0  0  0  0  0  0  0  0  0  0  0  0
   -3.3614   -0.8497    0.5599 H   0  0  0  0  0  0  0  0  0  0  0  0
   -1.3900   -0.9284   -0.7570 H   0  0  0  0  0  0  0  0  0  0  0  0
    1.1637   -0.8248    0.9432 H   0  0  0  0  0  0  0  0  0  0  0  0
    0.9213   -2.3721   -1.3483 H   0  0  0  0  0  0  0  0  0  0  0  0
    1.1189   -0.7177   -2.1006 H   0  0  0  0  0  0  0  0  0  0  0  0
    2.9707   -0.6201   -0.5159 H   0  0  0  0  0  0  0  0  0  0  0  0
   -0.0156    1.0514   -1.3456 H   0  0  0  0  0  0  0  0  0  0  0  0
    1.1677    3.5175    0.8810 H   0  0  0  0  0  0  0  0  0  0  0  0
    1.7083    2.6960   -0.6167 H   0  0  0  0  0  0  0  0  0  0  0  0
    0.0746    3.3960   -0.5445 H   0  0  0  0  0  0  0  0  0  0  0  0
  1  2  1  0
  2  3  1  0
  3  4  1  0
  4  5  1  0
  5  6  1  0
  4  7  1  0
  7  8  1  0
  8  9  1  0
  7  3  1  0
  1 10  1  0
  1 11  1  0
  1 12  1  0
  3 13  1  0
  4 14  1  0
  5 15  1  0
  5 16  1  0
  6 17  1  0
  7 18  1  0
  9 19  1  0
  9 20  1  0
  9 21  1  0
M  END
