
     RDKit          3D

 21 21  0  0  0  0  0  0  0  0999 V2000
    2.3524    1.1127   -0.0528 C   0  0  0  0  0  0  0  0  0  0  0  0
    1.4928    0.2128   -0.6470 O   0  0  0  0  0  0  0  0  0  0  0  0
    0.5606   -0.3190    0.2239 C   0  0  0  0  0  0  0  0  0  0  0  0
    0.6976   -1.8480    0.2666 C   0  0  0  0  0  0  0  0  0  0  0  0
   -0.5564   -2.2820    0.6238 O   0  0  0  0  0  0  0  0  0  0  0  0
   -1.4953   -1.4464    0.0825 C   0  0  0  0  0  0  0  0  0  0  0  0
   -0.7977   -0.2011   -0.3970 C   0  0  0  0  0  0  0  0  0  0  0  0
   -1.5392    1.0427    0.0294 C   0  0  0  0  0  0  0  0  0  0  0  0
   -0.8558    2.1759   -0.3141 O   0  0  0  0  0  0  0  0  0  0  0  0
    2.9496    0.6783    0.7778 H   0  0  0  0  0  0  0  0  0  0  0  0
    1.8629    2.0738    0.2312 H   0  0  0  0  0  0  0  0  0  0  0  0
    3.1091    1.3926   -0.8354 H   0  0  0  0  0  0  0  0  0  0  0  0
    0.6345    0.0434    1.2480 H   0  0  0  0  0  0  0  0  0  0  0  0
    0.8723   -2.1476   -0.7871 H   0  0  0  0  0  0  0  0  0  0  0  0
    1.4802   -2.1697    0.9491 H   0  0  0  0  0  0  0  0  0  0  0  0
   -2.2721   -1.1199    0.8338 H   0  0  0  0  0  0  0  0  0  0  0  0
   -2.0990   -1.9223   -0.7382 H   0  0  0  0  0  0  0  0  0  0  0  0
   -0.6965   -0.2609   -1.4827 H   0  0  0  0  0  0  0  0  0  0  0  0
   -1.6920    1.0278    1.1207 H   0  0  0  0  0  0  0  0  0  0  0  0
   -2.5362    0.9992   -0.4863 H   0  0  0  0  0  0  0  0  0  0  0  0
   -1.4720    2.9579   -0.4775 H   0  0  0  0  0  0  0  0  0  0  0  0
  1  2  1  0
  2  3  1  0
  3  4  1  0
  4  5  1  0
  5  6  1  0
  6  7  1  0
  7  8  1  0
  8  9  1  0
  7  3  1  0
  1 10  1  0
  1 11  1  0
  1 12  1  0
  3 13  1  0
  4 14  1  0
  4 15  1  0
  6 16  1  0
  6 17  1  0
  7 18  1  0
  8 19  1  0
  8 20  1  0
  9 21  1  0
M  END
