
     RDKit          3D

 17 17  0  0  0  0  0  0  0  0999 V2000
   -2.6323    0.0967    0.5487 C   0  0  0  0  0  0  0  0  0  0  0  0
   -1.3453    0.6194    0.4765 O   0  0  0  0  0  0  0  0  0  0  0  0
   -0.6811   -0.0081   -0.5523 C   0  0  0  0  0  0  0  0  0  0  0  0
    0.1746    0.9738   -1.3799 C   0  0  0  0  0  0  0  0  0  0  0  0
    0.8215   -0.0578   -0.5704 C   0  0  0  0  0  0  0  0  0  0  0  0
    1.4254    0.2991    0.6386 O   0  0  0  0  0  0  0  0  0  0  0  0
    2.4891   -0.5818    0.9371 C   0  0  0  0  0  0  0  0  0  0  0  0
   -2.5806   -1.0139    0.7439 H   0  0  0  0  0  0  0  0  0  0  0  0
   -3.1951    0.2878   -0.3867 H   0  0  0  0  0  0  0  0  0  0  0  0
   -3.1427    0.5155    1.4423 H   0  0  0  0  0  0  0  0  0  0  0  0
   -1.2502   -0.7658   -1.1025 H   0  0  0  0  0  0  0  0  0  0  0  0
    0.0761    0.8301   -2.4726 H   0  0  0  0  0  0  0  0  0  0  0  0
    0.2638    2.0094   -1.0519 H   0  0  0  0  0  0  0  0  0  0  0  0
    1.2304   -0.9414   -1.1167 H   0  0  0  0  0  0  0  0  0  0  0  0
    2.9091   -0.2304    1.9029 H   0  0  0  0  0  0  0  0  0  0  0  0
    3.2725   -0.4043    0.1522 H   0  0  0  0  0  0  0  0  0  0  0  0
    2.1648   -1.6282    0.9660 H   0  0  0  0  0  0  0  0  0  0  0  0
  1  2  1  0
  2  3  1  0
  3  4  1  0
  4  5  1  0
  5  6  1  0
  6  7  1  0
  5  3  1  0
  1  8  1  0
  1  9  1  0
  1 10  1  0
  3 11  1  0
  4 12  1  0
  4 13  1  0
  5 14  1  0
  7 15  1  0
  7 16  1  0
  7 17  1  0
M  END
