
     RDKit          3D

 15 16  0  0  0  0  0  0  0  0999 V2000
    1.9734   -0.2915   -0.2296 C   0  0  0  0  0  0  0  0  0  0  0  0
    0.7589   -0.9435   -0.3557 O   0  0  0  0  0  0  0  0  0  0  0  0
   -0.3202   -0.0846   -0.3878 C   0  0  0  0  0  0  0  0  0  0  0  0
   -1.6619   -0.7674   -0.5194 C   0  0  0  0  0  0  0  0  0  0  0  0
   -2.2719    0.0947    0.3849 O   0  0  0  0  0  0  0  0  0  0  0  0
   -1.0071    0.3239    0.9241 C   0  0  0  0  0  0  0  0  0  0  0  0
   -0.1671    1.2584    0.1439 C   0  0  0  0  0  0  0  0  0  0  0  0
    2.1165    0.4194   -1.0876 H   0  0  0  0  0  0  0  0  0  0  0  0
    2.7543   -1.1088   -0.2906 H   0  0  0  0  0  0  0  0  0  0  0  0
    2.1551    0.1803    0.7469 H   0  0  0  0  0  0  0  0  0  0  0  0
   -1.6368   -1.7985   -0.0590 H   0  0  0  0  0  0  0  0  0  0  0  0
   -2.0893   -0.8058   -1.5273 H   0  0  0  0  0  0  0  0  0  0  0  0
   -0.6600   -0.2214    1.7941 H   0  0  0  0  0  0  0  0  0  0  0  0
    0.7595    1.5960    0.6382 H   0  0  0  0  0  0  0  0  0  0  0  0
   -0.7034    2.1487   -0.2981 H   0  0  0  0  0  0  0  0  0  0  0  0
  1  2  1  0
  2  3  1  0
  3  4  1  0
  4  5  1  0
  5  6  1  0
  6  7  1  0
  6  3  1  0
  7  3  1  0
  1  8  1  0
  1  9  1  0
  1 10  1  0
  4 11  1  0
  4 12  1  0
  6 13  1  0
  7 14  1  0
  7 15  1  0
M  END
