
     RDKit          3D

 19 20  0  0  0  0  0  0  0  0999 V2000
    2.7626   -0.0274    0.2994 C   0  0  0  0  0  0  0  0  0  0  0  0
    1.7160   -0.5940    0.9780 O   0  0  0  0  0  0  0  0  0  0  0  0
    0.5775   -0.2733    0.5614 C   0  0  0  0  0  0  0  0  0  0  0  0
   -0.7547   -0.7225    1.0901 C   0  0  0  0  0  0  0  0  0  0  0  0
   -1.0919    0.1561   -0.0921 C   0  0  0  0  0  0  0  0  0  0  0  0
   -2.3366    0.4616   -0.5642 C   0  0  0  0  0  0  0  0  0  0  0  0
   -0.0011   -0.6062   -0.8077 C   0  0  0  0  0  0  0  0  0  0  0  0
   -0.0282    1.0322    0.3802 C   0  0  0  0  0  0  0  0  0  0  0  0
    0.1961    2.1911    0.5271 O   0  0  0  0  0  0  0  0  0  0  0  0
    3.7234   -0.3659    0.7346 H   0  0  0  0  0  0  0  0  0  0  0  0
    2.7454    1.0915    0.3327 H   0  0  0  0  0  0  0  0  0  0  0  0
    2.6796   -0.2920   -0.7738 H   0  0  0  0  0  0  0  0  0  0  0  0
   -1.1008   -0.2461    2.0218 H   0  0  0  0  0  0  0  0  0  0  0  0
   -0.9594   -1.7889    0.9607 H   0  0  0  0  0  0  0  0  0  0  0  0
   -2.6850   -0.1541   -1.4456 H   0  0  0  0  0  0  0  0  0  0  0  0
   -3.1789    0.3412    0.1807 H   0  0  0  0  0  0  0  0  0  0  0  0
   -2.4619    1.5274   -0.9203 H   0  0  0  0  0  0  0  0  0  0  0  0
   -0.2870   -1.6478   -0.9596 H   0  0  0  0  0  0  0  0  0  0  0  0
    0.4849   -0.0830   -1.6338 H   0  0  0  0  0  0  0  0  0  0  0  0
  1  2  1  0
  2  3  1  0
  3  4  1  0
  4  5  1  0
  5  6  1  0
  5  7  1  0
  5  8  1  0
  8  9  2  0
  7  3  1  0
  8  3  1  0
  1 10  1  0
  1 11  1  0
  1 12  1  0
  4 13  1  0
  4 14  1  0
  6 15  1  0
  6 16  1  0
  6 17  1  0
  7 18  1  0
  7 19  1  0
M  END
