
     RDKit          3D

 17 18  0  0  0  0  0  0  0  0999 V2000
    2.2808    0.0339    0.2901 C   0  0  0  0  0  0  0  0  0  0  0  0
    1.2648    0.8296   -0.1697 O   0  0  0  0  0  0  0  0  0  0  0  0
    0.1152    0.1787   -0.5071 C   0  0  0  0  0  0  0  0  0  0  0  0
   -1.0062    1.0441   -1.0130 C   0  0  0  0  0  0  0  0  0  0  0  0
   -1.1451    0.3443    0.2987 C   0  0  0  0  0  0  0  0  0  0  0  0
   -0.9976    0.9872    1.4928 O   0  0  0  0  0  0  0  0  0  0  0  0
   -1.4233   -1.1167    0.2009 C   0  0  0  0  0  0  0  0  0  0  0  0
   -0.0432   -1.2677   -0.3931 C   0  0  0  0  0  0  0  0  0  0  0  0
    0.5523   -2.3183   -0.6186 O   0  0  0  0  0  0  0  0  0  0  0  0
    3.1483    0.7141    0.5225 H   0  0  0  0  0  0  0  0  0  0  0  0
    2.6804   -0.6658   -0.4857 H   0  0  0  0  0  0  0  0  0  0  0  0
    2.0399   -0.5021    1.2384 H   0  0  0  0  0  0  0  0  0  0  0  0
   -1.6754    0.6514   -1.8231 H   0  0  0  0  0  0  0  0  0  0  0  0
   -0.8777    2.1221   -0.9571 H   0  0  0  0  0  0  0  0  0  0  0  0
   -1.1370    1.9440    1.4305 H   0  0  0  0  0  0  0  0  0  0  0  0
   -1.6006   -1.6750    1.1131 H   0  0  0  0  0  0  0  0  0  0  0  0
   -2.1758   -1.3039   -0.6196 H   0  0  0  0  0  0  0  0  0  0  0  0
  1  2  1  0
  2  3  1  0
  3  4  1  0
  4  5  1  0
  5  6  1  0
  5  7  1  0
  7  8  1  0
  8  9  2  0
  5  3  1  0
  8  3  1  0
  1 10  1  0
  1 11  1  0
  1 12  1  0
  4 13  1  0
  4 14  1  0
  6 15  1  0
  7 16  1  0
  7 17  1  0
M  END
