
     RDKit          3D

 19 19  0  0  0  0  0  0  0  0999 V2000
    3.0239   -0.2205    0.0647 C   0  0  0  0  0  0  0  0  0  0  0  0
    1.8729   -0.7379   -0.5579 O   0  0  0  0  0  0  0  0  0  0  0  0
    0.7965   -0.0627   -0.0478 C   0  0  0  0  0  0  0  0  0  0  0  0
   -0.3790   -0.9492    0.3857 C   0  0  0  0  0  0  0  0  0  0  0  0
   -1.2146    0.2512   -0.0490 C   0  0  0  0  0  0  0  0  0  0  0  0
   -2.5703   -0.0850   -0.5866 C   0  0  0  0  0  0  0  0  0  0  0  0
   -1.2173    1.1974    0.9410 O   0  0  0  0  0  0  0  0  0  0  0  0
   -0.1598    0.4865   -1.0799 C   0  0  0  0  0  0  0  0  0  0  0  0
   -0.1163    0.9152   -2.2032 O   0  0  0  0  0  0  0  0  0  0  0  0
    3.9451   -0.7099   -0.2884 H   0  0  0  0  0  0  0  0  0  0  0  0
    3.0326    0.8611   -0.1821 H   0  0  0  0  0  0  0  0  0  0  0  0
    2.9824   -0.3391    1.1553 H   0  0  0  0  0  0  0  0  0  0  0  0
    0.9925    0.7135    0.7067 H   0  0  0  0  0  0  0  0  0  0  0  0
   -0.5193   -1.7867   -0.3251 H   0  0  0  0  0  0  0  0  0  0  0  0
   -0.4091   -1.1857    1.4491 H   0  0  0  0  0  0  0  0  0  0  0  0
   -2.5354   -0.9355   -1.2887 H   0  0  0  0  0  0  0  0  0  0  0  0
   -3.2156   -0.3615    0.2583 H   0  0  0  0  0  0  0  0  0  0  0  0
   -2.9837    0.8275   -1.0539 H   0  0  0  0  0  0  0  0  0  0  0  0
   -1.3258    2.1214    0.6541 H   0  0  0  0  0  0  0  0  0  0  0  0
  1  2  1  0
  2  3  1  0
  3  4  1  0
  4  5  1  0
  5  6  1  0
  5  7  1  0
  5  8  1  0
  8  9  2  0
  8  3  1  0
  1 10  1  0
  1 11  1  0
  1 12  1  0
  3 13  1  0
  4 14  1  0
  4 15  1  0
  6 16  1  0
  6 17  1  0
  6 18  1  0
  7 19  1  0
M  END
