
     RDKit          3D

 17 18  0  0  0  0  0  0  0  0999 V2000
    1.9190    0.8344   -0.0838 C   0  0  0  0  0  0  0  0  0  0  0  0
    1.4461   -0.4371   -0.0997 O   0  0  0  0  0  0  0  0  0  0  0  0
    0.1441   -0.5766    0.2459 C   0  0  0  0  0  0  0  0  0  0  0  0
   -0.5103   -1.9244    0.2716 C   0  0  0  0  0  0  0  0  0  0  0  0
   -0.7527   -1.0803   -0.9214 C   0  0  0  0  0  0  0  0  0  0  0  0
   -1.4181    0.2232   -0.8441 C   0  0  0  0  0  0  0  0  0  0  0  0
   -2.1685    0.8366   -1.5699 O   0  0  0  0  0  0  0  0  0  0  0  0
   -0.8190    0.5329    0.4937 C   0  0  0  0  0  0  0  0  0  0  0  0
   -0.3700    1.8121    0.6476 O   0  0  0  0  0  0  0  0  0  0  0  0
    3.0005    0.7767   -0.3905 H   0  0  0  0  0  0  0  0  0  0  0  0
    1.8377    1.2828    0.9376 H   0  0  0  0  0  0  0  0  0  0  0  0
    1.3613    1.4774   -0.8103 H   0  0  0  0  0  0  0  0  0  0  0  0
   -1.2732   -2.0544    1.0582 H   0  0  0  0  0  0  0  0  0  0  0  0
    0.1668   -2.7693    0.1630 H   0  0  0  0  0  0  0  0  0  0  0  0
   -0.2430   -1.3876   -1.8569 H   0  0  0  0  0  0  0  0  0  0  0  0
   -1.5121    0.2164    1.3377 H   0  0  0  0  0  0  0  0  0  0  0  0
   -0.8084    2.2371    1.4213 H   0  0  0  0  0  0  0  0  0  0  0  0
  1  2  1  0
  2  3  1  0
  3  4  1  0
  4  5  1  0
  5  6  1  0
  6  7  2  0
  6  8  1  0
  8  9  1  0
  5  3  1  0
  8  3  1  0
  1 10  1  0
  1 11  1  0
  1 12  1  0
  4 13  1  0
  4 14  1  0
  5 15  1  0
  8 16  1  0
  9 17  1  0
M  END
