
     RDKit          3D

 21 23  0  0  0  0  0  0  0  0999 V2000
    2.2843   -1.3563    0.5626 C   0  0  0  0  0  0  0  0  0  0  0  0
    1.6738   -0.1993    0.1816 O   0  0  0  0  0  0  0  0  0  0  0  0
    0.3350   -0.2590    0.5243 C   0  0  0  0  0  0  0  0  0  0  0  0
   -0.2147   -1.3846   -0.1945 C   0  0  0  0  0  0  0  0  0  0  0  0
   -0.8137   -0.1445   -0.4923 C   0  0  0  0  0  0  0  0  0  0  0  0
   -2.2347   -0.1186    0.1265 C   0  0  0  0  0  0  0  0  0  0  0  0
   -0.3477    1.2048   -0.7543 C   0  0  0  0  0  0  0  0  0  0  0  0
    0.4736    2.1890   -0.0425 C   0  0  0  0  0  0  0  0  0  0  0  0
   -0.1808    1.1530    0.7108 C   0  0  0  0  0  0  0  0  0  0  0  0
    1.8379   -2.2344    0.0718 H   0  0  0  0  0  0  0  0  0  0  0  0
    3.3592   -1.3194    0.2537 H   0  0  0  0  0  0  0  0  0  0  0  0
    2.3046   -1.5017    1.6684 H   0  0  0  0  0  0  0  0  0  0  0  0
   -0.6159   -2.1880    0.4897 H   0  0  0  0  0  0  0  0  0  0  0  0
    0.2221   -1.9085   -1.0984 H   0  0  0  0  0  0  0  0  0  0  0  0
   -2.7684   -1.0736   -0.1659 H   0  0  0  0  0  0  0  0  0  0  0  0
   -2.2272   -0.1059    1.2039 H   0  0  0  0  0  0  0  0  0  0  0  0
   -2.8053    0.6757   -0.3849 H   0  0  0  0  0  0  0  0  0  0  0  0
   -1.1425    1.7998   -1.3095 H   0  0  0  0  0  0  0  0  0  0  0  0
    0.1827    3.2332    0.1746 H   0  0  0  0  0  0  0  0  0  0  0  0
    1.5797    2.1312   -0.2753 H   0  0  0  0  0  0  0  0  0  0  0  0
   -0.9021    1.4070    1.4591 H   0  0  0  0  0  0  0  0  0  0  0  0
  1  2  1  0
  2  3  1  0
  3  4  1  0
  4  5  1  0
  5  6  1  0
  5  7  1  0
  7  8  1  0
  8  9  1  0
  5  3  1  0
  9  7  1  0
  9  3  1  0
  1 10  1  0
  1 11  1  0
  1 12  1  0
  4 13  1  0
  4 14  1  0
  6 15  1  0
  6 16  1  0
  6 17  1  0
  7 18  1  0
  8 19  1  0
  8 20  1  0
  9 21  1  0
M  END
