
     RDKit          3D

 19 20  0  0  0  0  0  0  0  0999 V2000
    2.5175   -0.2298   -0.0754 C   0  0  0  0  0  0  0  0  0  0  0  0
    1.5690   -0.2828   -1.0868 O   0  0  0  0  0  0  0  0  0  0  0  0
    0.3439   -0.0452   -0.5713 C   0  0  0  0  0  0  0  0  0  0  0  0
    0.1502    1.3226   -0.0097 C   0  0  0  0  0  0  0  0  0  0  0  0
   -1.1656    1.5414   -0.0680 C   0  0  0  0  0  0  0  0  0  0  0  0
   -1.7441    0.2996   -0.6518 C   0  0  0  0  0  0  0  0  0  0  0  0
   -1.6626   -0.7733    0.3901 C   0  0  0  0  0  0  0  0  0  0  0  0
   -0.1558   -1.0734    0.4133 C   0  0  0  0  0  0  0  0  0  0  0  0
   -0.6939   -0.0774   -1.5242 O   0  0  0  0  0  0  0  0  0  0  0  0
    2.2795   -1.0094    0.7010 H   0  0  0  0  0  0  0  0  0  0  0  0
    3.5571   -0.3172   -0.4450 H   0  0  0  0  0  0  0  0  0  0  0  0
    2.4499    0.7425    0.4954 H   0  0  0  0  0  0  0  0  0  0  0  0
    0.8727    2.0306    0.3760 H   0  0  0  0  0  0  0  0  0  0  0  0
   -1.6507    2.4553    0.2581 H   0  0  0  0  0  0  0  0  0  0  0  0
   -2.6911    0.4211   -1.1424 H   0  0  0  0  0  0  0  0  0  0  0  0
   -1.9591   -0.2987    1.3663 H   0  0  0  0  0  0  0  0  0  0  0  0
   -2.2523   -1.6598    0.1596 H   0  0  0  0  0  0  0  0  0  0  0  0
   -0.0292   -2.0871   -0.0084 H   0  0  0  0  0  0  0  0  0  0  0  0
    0.2648   -0.9590    1.4230 H   0  0  0  0  0  0  0  0  0  0  0  0
  1  2  1  0
  2  3  1  0
  3  4  1  0
  4  5  2  0
  5  6  1  0
  6  7  1  0
  7  8  1  0
  6  9  1  0
  8  3  1  0
  9  3  1  0
  1 10  1  0
  1 11  1  0
  1 12  1  0
  4 13  1  0
  5 14  1  0
  6 15  1  0
  7 16  1  0
  7 17  1  0
  8 18  1  0
  8 19  1  0
M  END
