
     RDKit          3D

 21 23  0  0  0  0  0  0  0  0999 V2000
    3.1872    0.2453    0.0902 C   0  0  0  0  0  0  0  0  0  0  0  0
    1.9101    0.1295    0.6237 O   0  0  0  0  0  0  0  0  0  0  0  0
    0.9302    0.4721   -0.3086 C   0  0  0  0  0  0  0  0  0  0  0  0
   -0.2521    1.0822    0.1895 C   0  0  0  0  0  0  0  0  0  0  0  0
   -1.4785    0.5200    0.8360 C   0  0  0  0  0  0  0  0  0  0  0  0
   -2.6776   -0.1454    0.3008 C   0  0  0  0  0  0  0  0  0  0  0  0
   -1.7043    0.2600   -0.6031 C   0  0  0  0  0  0  0  0  0  0  0  0
   -0.2784   -0.3155   -0.5398 C   0  0  0  0  0  0  0  0  0  0  0  0
   -0.2534   -1.5577    0.3026 C   0  0  0  0  0  0  0  0  0  0  0  0
    3.2769   -0.4334   -0.7844 H   0  0  0  0  0  0  0  0  0  0  0  0
    3.4178    1.2913   -0.1922 H   0  0  0  0  0  0  0  0  0  0  0  0
    3.8900   -0.0569    0.9176 H   0  0  0  0  0  0  0  0  0  0  0  0
    1.4102    0.7681   -1.2914 H   0  0  0  0  0  0  0  0  0  0  0  0
   -0.5632    1.9554   -0.4765 H   0  0  0  0  0  0  0  0  0  0  0  0
   -1.8560    1.3159    1.5083 H   0  0  0  0  0  0  0  0  0  0  0  0
   -3.6902    0.3522    0.1959 H   0  0  0  0  0  0  0  0  0  0  0  0
   -2.9008   -1.1992    0.6511 H   0  0  0  0  0  0  0  0  0  0  0  0
   -1.8309    1.0507   -1.3345 H   0  0  0  0  0  0  0  0  0  0  0  0
    0.0192   -1.3748    1.3585 H   0  0  0  0  0  0  0  0  0  0  0  0
    0.5844   -2.1949   -0.1084 H   0  0  0  0  0  0  0  0  0  0  0  0
   -1.1408   -2.1649    0.2777 H   0  0  0  0  0  0  0  0  0  0  0  0
  1  2  1  0
  2  3  1  0
  3  4  1  0
  4  5  1  0
  5  6  1  0
  6  7  1  0
  7  8  1  0
  8  9  1  0
  8  3  1  0
  8  4  1  0
  7  5  1  0
  1 10  1  0
  1 11  1  0
  1 12  1  0
  3 13  1  0
  4 14  1  0
  5 15  1  0
  6 16  1  0
  6 17  1  0
  7 18  1  0
  9 19  1  0
  9 20  1  0
  9 21  1  0
M  END
