
     RDKit          3D

 19 20  0  0  0  0  0  0  0  0999 V2000
    2.5795    0.2834   -0.3829 C   0  0  0  0  0  0  0  0  0  0  0  0
    1.3134   -0.0988   -0.8355 O   0  0  0  0  0  0  0  0  0  0  0  0
    0.5092   -0.2446    0.2754 C   0  0  0  0  0  0  0  0  0  0  0  0
   -0.3221   -1.5122    0.2634 C   0  0  0  0  0  0  0  0  0  0  0  0
   -1.0848   -0.8797   -0.8572 C   0  0  0  0  0  0  0  0  0  0  0  0
   -0.9017    0.2252    0.1533 C   0  0  0  0  0  0  0  0  0  0  0  0
   -1.3710    1.5103    0.0582 C   0  0  0  0  0  0  0  0  0  0  0  0
   -1.2361   -0.7900    1.1651 C   0  0  0  0  0  0  0  0  0  0  0  0
   -1.8471   -1.0437    2.1602 O   0  0  0  0  0  0  0  0  0  0  0  0
    2.5273    1.2452    0.1769 H   0  0  0  0  0  0  0  0  0  0  0  0
    3.3006    0.4262   -1.1973 H   0  0  0  0  0  0  0  0  0  0  0  0
    2.9196   -0.4806    0.3621 H   0  0  0  0  0  0  0  0  0  0  0  0
    0.9737   -0.0480    1.2565 H   0  0  0  0  0  0  0  0  0  0  0  0
    0.0200   -2.4463    0.3382 H   0  0  0  0  0  0  0  0  0  0  0  0
   -2.1442   -1.1935   -0.8733 H   0  0  0  0  0  0  0  0  0  0  0  0
   -0.5822   -0.7501   -1.8116 H   0  0  0  0  0  0  0  0  0  0  0  0
   -2.3709    1.6588    0.5648 H   0  0  0  0  0  0  0  0  0  0  0  0
   -0.7180    2.2860    0.5046 H   0  0  0  0  0  0  0  0  0  0  0  0
   -1.5650    1.8524   -0.9976 H   0  0  0  0  0  0  0  0  0  0  0  0
  1  2  1  0
  2  3  1  0
  3  4  1  0
  4  5  1  0
  5  6  1  0
  6  7  1  0
  6  8  1  0
  8  9  2  0
  6  3  1  0
  8  4  1  0
  1 10  1  0
  1 11  1  0
  1 12  1  0
  3 13  1  0
  4 14  1  0
  5 15  1  0
  5 16  1  0
  7 17  1  0
  7 18  1  0
  7 19  1  0
M  END
