
     RDKit          3D

 19 20  0  0  0  0  0  0  0  0999 V2000
    2.3807    0.2800   -0.3220 C   0  0  0  0  0  0  0  0  0  0  0  0
    1.1214    0.5452   -0.8564 O   0  0  0  0  0  0  0  0  0  0  0  0
    0.1833    0.0034   -0.0094 C   0  0  0  0  0  0  0  0  0  0  0  0
    0.1529    0.4926    1.3675 C   0  0  0  0  0  0  0  0  0  0  0  0
   -0.9703    0.8734    0.4950 C   0  0  0  0  0  0  0  0  0  0  0  0
   -1.0794    2.0700   -0.1415 O   0  0  0  0  0  0  0  0  0  0  0  0
   -1.9578   -0.2481    0.2314 C   0  0  0  0  0  0  0  0  0  0  0  0
   -0.8554   -0.9119   -0.5821 C   0  0  0  0  0  0  0  0  0  0  0  0
   -0.6323   -2.2383   -0.3068 O   0  0  0  0  0  0  0  0  0  0  0  0
    2.5593   -0.8285   -0.2240 H   0  0  0  0  0  0  0  0  0  0  0  0
    3.1338    0.6219   -1.0620 H   0  0  0  0  0  0  0  0  0  0  0  0
    2.5405    0.6981    0.6808 H   0  0  0  0  0  0  0  0  0  0  0  0
    0.8552    1.2648    1.6713 H   0  0  0  0  0  0  0  0  0  0  0  0
   -0.0808   -0.2467    2.1636 H   0  0  0  0  0  0  0  0  0  0  0  0
   -0.9999    1.9071   -1.1238 H   0  0  0  0  0  0  0  0  0  0  0  0
   -2.1226   -0.8724    1.1505 H   0  0  0  0  0  0  0  0  0  0  0  0
   -2.8577    0.0193   -0.3202 H   0  0  0  0  0  0  0  0  0  0  0  0
   -1.0930   -0.7523   -1.6702 H   0  0  0  0  0  0  0  0  0  0  0  0
   -0.2780   -2.6778   -1.1416 H   0  0  0  0  0  0  0  0  0  0  0  0
  1  2  1  0
  2  3  1  0
  3  4  1  0
  4  5  1  0
  5  6  1  0
  5  7  1  0
  7  8  1  0
  8  9  1  0
  5  3  1  0
  8  3  1  0
  1 10  1  0
  1 11  1  0
  1 12  1  0
  4 13  1  0
  4 14  1  0
  6 15  1  0
  7 16  1  0
  7 17  1  0
  8 18  1  0
  9 19  1  0
M  END
