
     RDKit          3D

 21 21  0  0  0  0  0  0  0  0999 V2000
    2.1296   -0.7261   -0.8938 C   0  0  0  0  0  0  0  0  0  0  0  0
    0.7672   -0.7595   -1.1382 O   0  0  0  0  0  0  0  0  0  0  0  0
    0.0986   -0.2011   -0.0478 C   0  0  0  0  0  0  0  0  0  0  0  0
    0.3752   -0.9531    1.2233 C   0  0  0  0  0  0  0  0  0  0  0  0
    0.3668    1.2723    0.0712 C   0  0  0  0  0  0  0  0  0  0  0  0
   -0.8259    1.9174    0.2621 O   0  0  0  0  0  0  0  0  0  0  0  0
   -1.8001    0.9980    0.5553 C   0  0  0  0  0  0  0  0  0  0  0  0
   -1.4032   -0.1849   -0.3088 C   0  0  0  0  0  0  0  0  0  0  0  0
   -1.5660    0.1992   -1.6278 O   0  0  0  0  0  0  0  0  0  0  0  0
    2.7012   -1.1616   -1.7381 H   0  0  0  0  0  0  0  0  0  0  0  0
    2.3459   -1.2921    0.0564 H   0  0  0  0  0  0  0  0  0  0  0  0
    2.4865    0.3326   -0.8003 H   0  0  0  0  0  0  0  0  0  0  0  0
   -0.4894   -0.9256    1.9308 H   0  0  0  0  0  0  0  0  0  0  0  0
    1.3145   -0.6190    1.6989 H   0  0  0  0  0  0  0  0  0  0  0  0
    0.4940   -2.0254    0.9460 H   0  0  0  0  0  0  0  0  0  0  0  0
    0.7571    1.6018   -0.9367 H   0  0  0  0  0  0  0  0  0  0  0  0
    1.1519    1.5193    0.7918 H   0  0  0  0  0  0  0  0  0  0  0  0
   -2.8040    1.3348    0.2856 H   0  0  0  0  0  0  0  0  0  0  0  0
   -1.7335    0.7517    1.6417 H   0  0  0  0  0  0  0  0  0  0  0  0
   -1.8943   -1.1134   -0.0357 H   0  0  0  0  0  0  0  0  0  0  0  0
   -2.4721    0.0348   -1.9359 H   0  0  0  0  0  0  0  0  0  0  0  0
  1  2  1  0
  2  3  1  0
  3  4  1  0
  3  5  1  0
  5  6  1  0
  6  7  1  0
  7  8  1  0
  8  9  1  0
  8  3  1  0
  1 10  1  0
  1 11  1  0
  1 12  1  0
  4 13  1  0
  4 14  1  0
  4 15  1  0
  5 16  1  0
  5 17  1  0
  7 18  1  0
  7 19  1  0
  8 20  1  0
  9 21  1  0
M  END
