
     RDKit          3D

 19 20  0  0  0  0  0  0  0  0999 V2000
    3.0684    0.2577   -0.1036 C   0  0  0  0  0  0  0  0  0  0  0  0
    1.7648    0.6687   -0.1841 O   0  0  0  0  0  0  0  0  0  0  0  0
    0.8432   -0.3016    0.2728 C   0  0  0  0  0  0  0  0  0  0  0  0
   -0.3222   -0.4361   -0.4998 C   0  0  0  0  0  0  0  0  0  0  0  0
   -1.4122    0.4903   -0.9176 C   0  0  0  0  0  0  0  0  0  0  0  0
   -2.3969    0.1999    0.1688 C   0  0  0  0  0  0  0  0  0  0  0  0
   -3.5647    0.4704    0.1037 O   0  0  0  0  0  0  0  0  0  0  0  0
   -1.6393   -0.4586    1.2742 C   0  0  0  0  0  0  0  0  0  0  0  0
   -0.2859    0.0998    0.9926 C   0  0  0  0  0  0  0  0  0  0  0  0
    3.3400    0.0224    0.9570 H   0  0  0  0  0  0  0  0  0  0  0  0
    3.3128   -0.5930   -0.7826 H   0  0  0  0  0  0  0  0  0  0  0  0
    3.7031    1.1212   -0.3835 H   0  0  0  0  0  0  0  0  0  0  0  0
    1.3962   -1.2123    0.6036 H   0  0  0  0  0  0  0  0  0  0  0  0
   -0.7016   -1.4982   -0.6164 H   0  0  0  0  0  0  0  0  0  0  0  0
   -1.8598    0.1572   -1.8668 H   0  0  0  0  0  0  0  0  0  0  0  0
   -1.1077    1.5520   -0.9345 H   0  0  0  0  0  0  0  0  0  0  0  0
   -2.0311   -0.2164    2.2625 H   0  0  0  0  0  0  0  0  0  0  0  0
   -1.7173   -1.5505    1.0952 H   0  0  0  0  0  0  0  0  0  0  0  0
   -0.3900    1.2272    1.0967 H   0  0  0  0  0  0  0  0  0  0  0  0
  1  2  1  0
  2  3  1  0
  3  4  1  0
  4  5  1  0
  5  6  1  0
  6  7  2  0
  6  8  1  0
  8  9  1  0
  9  3  1  0
  9  4  1  0
  1 10  1  0
  1 11  1  0
  1 12  1  0
  3 13  1  0
  4 14  1  0
  5 15  1  0
  5 16  1  0
  8 17  1  0
  8 18  1  0
  9 19  1  0
M  END
