
     RDKit          3D

 21 21  0  0  0  0  0  0  0  0999 V2000
    1.7175   -1.2275   -0.4112 C   0  0  0  0  0  0  0  0  0  0  0  0
    0.6877   -0.5286   -1.0256 O   0  0  0  0  0  0  0  0  0  0  0  0
    0.3344    0.5273   -0.1652 C   0  0  0  0  0  0  0  0  0  0  0  0
    1.4377    1.5158    0.1482 C   0  0  0  0  0  0  0  0  0  0  0  0
   -0.5920    0.1157    0.9706 C   0  0  0  0  0  0  0  0  0  0  0  0
   -1.1535   -1.3125    0.9221 C   0  0  0  0  0  0  0  0  0  0  0  0
   -1.0641    1.0266   -0.1597 C   0  0  0  0  0  0  0  0  0  0  0  0
   -2.0718    0.4759   -1.0831 C   0  0  0  0  0  0  0  0  0  0  0  0
   -2.9571    1.1544   -1.5251 O   0  0  0  0  0  0  0  0  0  0  0  0
    2.6156   -0.6027   -0.2202 H   0  0  0  0  0  0  0  0  0  0  0  0
    1.4079   -1.6010    0.6070 H   0  0  0  0  0  0  0  0  0  0  0  0
    2.0520   -2.0892   -1.0289 H   0  0  0  0  0  0  0  0  0  0  0  0
    2.3225    1.3981   -0.4870 H   0  0  0  0  0  0  0  0  0  0  0  0
    1.0316    2.5623    0.0271 H   0  0  0  0  0  0  0  0  0  0  0  0
    1.7089    1.4296    1.2205 H   0  0  0  0  0  0  0  0  0  0  0  0
   -0.3715    0.5526    1.9474 H   0  0  0  0  0  0  0  0  0  0  0  0
   -0.7093   -1.9158    1.7320 H   0  0  0  0  0  0  0  0  0  0  0  0
   -0.8891   -1.7287   -0.0819 H   0  0  0  0  0  0  0  0  0  0  0  0
   -2.2693   -1.2771    0.9940 H   0  0  0  0  0  0  0  0  0  0  0  0
   -1.1848    2.0990    0.0914 H   0  0  0  0  0  0  0  0  0  0  0  0
   -2.0532   -0.5743   -1.4029 H   0  0  0  0  0  0  0  0  0  0  0  0
  1  2  1  0
  2  3  1  0
  3  4  1  0
  3  5  1  0
  5  6  1  0
  5  7  1  0
  7  8  1  0
  8  9  2  0
  7  3  1  0
  1 10  1  0
  1 11  1  0
  1 12  1  0
  4 13  1  0
  4 14  1  0
  4 15  1  0
  5 16  1  0
  6 17  1  0
  6 18  1  0
  6 19  1  0
  7 20  1  0
  8 21  1  0
M  END
