
     RDKit          3D

 23 23  0  0  0  0  0  0  0  0999 V2000
    2.7903    0.5340    0.2252 C   0  0  0  0  0  0  0  0  0  0  0  0
    1.6927    0.4308   -0.6163 O   0  0  0  0  0  0  0  0  0  0  0  0
    0.7337   -0.4458   -0.1330 C   0  0  0  0  0  0  0  0  0  0  0  0
    0.4916   -1.5097   -0.9572 O   0  0  0  0  0  0  0  0  0  0  0  0
   -0.8380   -1.8090   -0.9612 C   0  0  0  0  0  0  0  0  0  0  0  0
   -1.4909   -1.0109    0.1682 C   0  0  0  0  0  0  0  0  0  0  0  0
   -0.5867    0.2204    0.1282 C   0  0  0  0  0  0  0  0  0  0  0  0
   -0.6369    0.9422    1.4462 C   0  0  0  0  0  0  0  0  0  0  0  0
   -0.9946    1.0811   -1.0207 C   0  0  0  0  0  0  0  0  0  0  0  0
    3.4964    1.2545   -0.2467 H   0  0  0  0  0  0  0  0  0  0  0  0
    2.5060    0.8360    1.2580 H   0  0  0  0  0  0  0  0  0  0  0  0
    3.3460   -0.4352    0.2740 H   0  0  0  0  0  0  0  0  0  0  0  0
    1.1146   -0.8524    0.8448 H   0  0  0  0  0  0  0  0  0  0  0  0
   -1.0577   -2.8813   -0.8787 H   0  0  0  0  0  0  0  0  0  0  0  0
   -1.2767   -1.3670   -1.9026 H   0  0  0  0  0  0  0  0  0  0  0  0
   -1.3214   -1.4928    1.1357 H   0  0  0  0  0  0  0  0  0  0  0  0
   -2.5379   -0.7684   -0.0480 H   0  0  0  0  0  0  0  0  0  0  0  0
   -0.3066    0.2793    2.2486 H   0  0  0  0  0  0  0  0  0  0  0  0
   -0.1170    1.8974    1.3861 H   0  0  0  0  0  0  0  0  0  0  0  0
   -1.7257    1.1633    1.6410 H   0  0  0  0  0  0  0  0  0  0  0  0
   -1.2675    2.0857   -0.6220 H   0  0  0  0  0  0  0  0  0  0  0  0
   -1.8403    0.6275   -1.5965 H   0  0  0  0  0  0  0  0  0  0  0  0
   -0.1736    1.2203   -1.7736 H   0  0  0  0  0  0  0  0  0  0  0  0
  1  2  1  0
  2  3  1  0
  3  4  1  0
  4  5  1  0
  5  6  1  0
  6  7  1  0
  7  8  1  0
  7  9  1  0
  7  3  1  0
  1 10  1  0
  1 11  1  0
  1 12  1  0
  3 13  1  0
  5 14  1  0
  5 15  1  0
  6 16  1  0
  6 17  1  0
  8 18  1  0
  8 19  1  0
  8 20  1  0
  9 21  1  0
  9 22  1  0
  9 23  1  0
M  END
