
     RDKit          3D

 21 23  0  0  0  0  0  0  0  0999 V2000
   -3.0279    0.0203    0.3831 C   0  0  0  0  0  0  0  0  0  0  0  0
   -1.9798   -0.1710   -0.5061 O   0  0  0  0  0  0  0  0  0  0  0  0
   -0.7822   -0.1651    0.2050 C   0  0  0  0  0  0  0  0  0  0  0  0
    0.1607    0.8487   -0.4394 C   0  0  0  0  0  0  0  0  0  0  0  0
    1.2633    1.1938    0.5277 C   0  0  0  0  0  0  0  0  0  0  0  0
    2.2497    0.0570    0.4615 C   0  0  0  0  0  0  0  0  0  0  0  0
    1.5829   -1.0166   -0.4030 C   0  0  0  0  0  0  0  0  0  0  0  0
    0.6981   -0.2672   -1.2681 C   0  0  0  0  0  0  0  0  0  0  0  0
    0.1310   -1.2503   -0.2865 C   0  0  0  0  0  0  0  0  0  0  0  0
   -2.9905   -0.8259    1.1165 H   0  0  0  0  0  0  0  0  0  0  0  0
   -4.0113   -0.0214   -0.0983 H   0  0  0  0  0  0  0  0  0  0  0  0
   -2.8649    0.9541    0.9458 H   0  0  0  0  0  0  0  0  0  0  0  0
   -0.8500   -0.0203    1.2813 H   0  0  0  0  0  0  0  0  0  0  0  0
   -0.3188    1.6699   -0.9644 H   0  0  0  0  0  0  0  0  0  0  0  0
    0.8393    1.2333    1.5528 H   0  0  0  0  0  0  0  0  0  0  0  0
    1.7273    2.1643    0.2298 H   0  0  0  0  0  0  0  0  0  0  0  0
    2.4624   -0.4037    1.4380 H   0  0  0  0  0  0  0  0  0  0  0  0
    3.1942    0.3719   -0.0677 H   0  0  0  0  0  0  0  0  0  0  0  0
    2.2085   -1.8008   -0.8138 H   0  0  0  0  0  0  0  0  0  0  0  0
    0.5651   -0.3549   -2.3271 H   0  0  0  0  0  0  0  0  0  0  0  0
   -0.2570   -2.2161   -0.6165 H   0  0  0  0  0  0  0  0  0  0  0  0
  1  2  1  0
  2  3  1  0
  3  4  1  0
  4  5  1  0
  5  6  1  0
  6  7  1  0
  7  8  1  0
  8  9  1  0
  9  3  1  0
  8  4  1  0
  9  7  1  0
  1 10  1  0
  1 11  1  0
  1 12  1  0
  3 13  1  0
  4 14  1  0
  5 15  1  0
  5 16  1  0
  6 17  1  0
  6 18  1  0
  7 19  1  0
  8 20  1  0
  9 21  1  0
M  END
