
     RDKit          3D

 17 18  0  0  0  0  0  0  0  0999 V2000
    2.7827   -0.0562    0.4166 C   0  0  0  0  0  0  0  0  0  0  0  0
    1.7978   -0.4756   -0.5079 O   0  0  0  0  0  0  0  0  0  0  0  0
    0.5947   -0.0331   -0.0461 C   0  0  0  0  0  0  0  0  0  0  0  0
   -0.5689   -0.9770   -0.1108 C   0  0  0  0  0  0  0  0  0  0  0  0
   -0.5783   -0.7762   -1.4801 O   0  0  0  0  0  0  0  0  0  0  0  0
   -0.3854    0.5158   -1.0190 C   0  0  0  0  0  0  0  0  0  0  0  0
   -1.4509    0.2208    0.0014 C   0  0  0  0  0  0  0  0  0  0  0  0
   -2.8052    0.1271   -0.5220 C   0  0  0  0  0  0  0  0  0  0  0  0
   -3.4161    1.1351   -0.8095 O   0  0  0  0  0  0  0  0  0  0  0  0
    2.5901   -0.4753    1.4197 H   0  0  0  0  0  0  0  0  0  0  0  0
    3.7969   -0.2373    0.0483 H   0  0  0  0  0  0  0  0  0  0  0  0
    2.6061    1.0539    0.5180 H   0  0  0  0  0  0  0  0  0  0  0  0
    0.5930    0.5377    0.9046 H   0  0  0  0  0  0  0  0  0  0  0  0
   -0.6602   -1.8552    0.3753 H   0  0  0  0  0  0  0  0  0  0  0  0
   -0.3105    1.3525   -1.5751 H   0  0  0  0  0  0  0  0  0  0  0  0
   -1.3035    0.7673    0.9565 H   0  0  0  0  0  0  0  0  0  0  0  0
   -3.2823   -0.8243   -0.6616 H   0  0  0  0  0  0  0  0  0  0  0  0
  1  2  1  0
  2  3  1  0
  3  4  1  0
  4  5  1  0
  5  6  1  0
  6  7  1  0
  7  8  1  0
  8  9  2  0
  6  3  1  0
  7  4  1  0
  1 10  1  0
  1 11  1  0
  1 12  1  0
  3 13  1  0
  4 14  1  0
  6 15  1  0
  7 16  1  0
  8 17  1  0
M  END
