
     RDKit          3D

 23 23  0  0  0  0  0  0  0  0999 V2000
    2.9244    0.1809    0.4105 C   0  0  0  0  0  0  0  0  0  0  0  0
    1.8463    0.5924   -0.3671 O   0  0  0  0  0  0  0  0  0  0  0  0
    0.7852   -0.2606   -0.0877 C   0  0  0  0  0  0  0  0  0  0  0  0
    0.2717   -0.9361   -1.2959 C   0  0  0  0  0  0  0  0  0  0  0  0
   -1.0380   -0.8807   -1.2853 C   0  0  0  0  0  0  0  0  0  0  0  0
   -1.5358   -0.1623   -0.0694 C   0  0  0  0  0  0  0  0  0  0  0  0
   -2.0542   -1.1707    0.9084 C   0  0  0  0  0  0  0  0  0  0  0  0
   -0.3405    0.6025    0.4352 C   0  0  0  0  0  0  0  0  0  0  0  0
   -0.2841    1.9251   -0.2967 C   0  0  0  0  0  0  0  0  0  0  0  0
    2.6862    0.2270    1.4761 H   0  0  0  0  0  0  0  0  0  0  0  0
    3.8364    0.7661    0.2185 H   0  0  0  0  0  0  0  0  0  0  0  0
    3.0844   -0.9056    0.1670 H   0  0  0  0  0  0  0  0  0  0  0  0
    1.0715   -1.0396    0.6748 H   0  0  0  0  0  0  0  0  0  0  0  0
    0.8794   -1.3940   -2.0523 H   0  0  0  0  0  0  0  0  0  0  0  0
   -1.7332   -1.2863   -2.0358 H   0  0  0  0  0  0  0  0  0  0  0  0
   -2.3603    0.5127   -0.3456 H   0  0  0  0  0  0  0  0  0  0  0  0
   -1.3982   -2.0411    1.0528 H   0  0  0  0  0  0  0  0  0  0  0  0
   -2.3136   -0.6614    1.8765 H   0  0  0  0  0  0  0  0  0  0  0  0
   -3.0196   -1.5527    0.5110 H   0  0  0  0  0  0  0  0  0  0  0  0
   -0.3001    0.7131    1.5167 H   0  0  0  0  0  0  0  0  0  0  0  0
    0.7360    2.2596   -0.5088 H   0  0  0  0  0  0  0  0  0  0  0  0
   -0.8863    1.8546   -1.2459 H   0  0  0  0  0  0  0  0  0  0  0  0
   -0.8575    2.6570    0.3430 H   0  0  0  0  0  0  0  0  0  0  0  0
  1  2  1  0
  2  3  1  0
  3  4  1  0
  4  5  2  0
  5  6  1  0
  6  7  1  0
  6  8  1  0
  8  9  1  0
  8  3  1  0
  1 10  1  0
  1 11  1  0
  1 12  1  0
  3 13  1  0
  4 14  1  0
  5 15  1  0
  6 16  1  0
  7 17  1  0
  7 18  1  0
  7 19  1  0
  8 20  1  0
  9 21  1  0
  9 22  1  0
  9 23  1  0
M  END
