
     RDKit          3D

 23 24  0  0  0  0  0  0  0  0999 V2000
    3.0346    0.1429    0.0801 C   0  0  0  0  0  0  0  0  0  0  0  0
    1.7340   -0.0862   -0.3606 O   0  0  0  0  0  0  0  0  0  0  0  0
    0.8054   -0.0021    0.6618 C   0  0  0  0  0  0  0  0  0  0  0  0
   -0.3846    0.8361    0.2597 C   0  0  0  0  0  0  0  0  0  0  0  0
   -0.1932    1.7120   -0.9409 C   0  0  0  0  0  0  0  0  0  0  0  0
   -1.1934   -0.3803   -0.0801 C   0  0  0  0  0  0  0  0  0  0  0  0
   -2.6088   -0.4583    0.4155 C   0  0  0  0  0  0  0  0  0  0  0  0
   -0.6025   -1.5479   -0.7514 C   0  0  0  0  0  0  0  0  0  0  0  0
   -0.1229   -1.2143    0.5988 C   0  0  0  0  0  0  0  0  0  0  0  0
    3.3485   -0.5927    0.8547 H   0  0  0  0  0  0  0  0  0  0  0  0
    3.1419    1.1725    0.4799 H   0  0  0  0  0  0  0  0  0  0  0  0
    3.7591    0.0392   -0.7484 H   0  0  0  0  0  0  0  0  0  0  0  0
    1.1934    0.2262    1.6567 H   0  0  0  0  0  0  0  0  0  0  0  0
   -0.8587    1.4069    1.0785 H   0  0  0  0  0  0  0  0  0  0  0  0
    0.2054    2.7133   -0.6654 H   0  0  0  0  0  0  0  0  0  0  0  0
    0.4375    1.1792   -1.6640 H   0  0  0  0  0  0  0  0  0  0  0  0
   -1.2076    1.8202   -1.4252 H   0  0  0  0  0  0  0  0  0  0  0  0
   -2.7884   -1.3014    1.1076 H   0  0  0  0  0  0  0  0  0  0  0  0
   -2.9302    0.5171    0.8379 H   0  0  0  0  0  0  0  0  0  0  0  0
   -3.2630   -0.6122   -0.4863 H   0  0  0  0  0  0  0  0  0  0  0  0
    0.1662   -1.4296   -1.5684 H   0  0  0  0  0  0  0  0  0  0  0  0
   -1.2334   -2.4352   -0.8519 H   0  0  0  0  0  0  0  0  0  0  0  0
   -0.4393   -1.7054    1.5114 H   0  0  0  0  0  0  0  0  0  0  0  0
  1  2  1  0
  2  3  1  0
  3  4  1  0
  4  5  1  0
  4  6  1  0
  6  7  1  0
  6  8  1  0
  8  9  1  0
  9  3  1  0
  9  6  1  0
  1 10  1  0
  1 11  1  0
  1 12  1  0
  3 13  1  0
  4 14  1  0
  5 15  1  0
  5 16  1  0
  5 17  1  0
  7 18  1  0
  7 19  1  0
  7 20  1  0
  8 21  1  0
  8 22  1  0
  9 23  1  0
M  END
