
     RDKit          3D

 18 19  0  0  0  0  0  0  0  0999 V2000
    2.4384    0.2928    0.0200 C   0  0  0  0  0  0  0  0  0  0  0  0
    1.3726    0.2143   -0.8229 O   0  0  0  0  0  0  0  0  0  0  0  0
    0.1833   -0.0515   -0.3522 C   0  0  0  0  0  0  0  0  0  0  0  0
   -0.1464   -1.2974    0.3796 C   0  0  0  0  0  0  0  0  0  0  0  0
   -1.4430   -1.1357    0.6577 C   0  0  0  0  0  0  0  0  0  0  0  0
   -1.7621    0.1752    0.0704 C   0  0  0  0  0  0  0  0  0  0  0  0
   -0.5345    0.9771    0.5391 C   0  0  0  0  0  0  0  0  0  0  0  0
   -1.0332    0.0919   -1.2491 C   0  0  0  0  0  0  0  0  0  0  0  0
    2.3396    1.0864    0.8134 H   0  0  0  0  0  0  0  0  0  0  0  0
    2.7578   -0.6666    0.4718 H   0  0  0  0  0  0  0  0  0  0  0  0
    3.3291    0.6347   -0.5854 H   0  0  0  0  0  0  0  0  0  0  0  0
    0.4452   -2.1595    0.6575 H   0  0  0  0  0  0  0  0  0  0  0  0
   -2.1498   -1.7603    1.1771 H   0  0  0  0  0  0  0  0  0  0  0  0
   -2.7081    0.6165    0.1432 H   0  0  0  0  0  0  0  0  0  0  0  0
   -0.5175    1.9988    0.1490 H   0  0  0  0  0  0  0  0  0  0  0  0
   -0.3048    0.8167    1.5927 H   0  0  0  0  0  0  0  0  0  0  0  0
   -1.2719   -0.8386   -1.8147 H   0  0  0  0  0  0  0  0  0  0  0  0
   -0.9948    1.0052   -1.8472 H   0  0  0  0  0  0  0  0  0  0  0  0
  1  2  1  0
  2  3  1  0
  3  4  1  0
  4  5  2  0
  5  6  1  0
  6  7  1  0
  6  8  1  0
  7  3  1  0
  8  3  1  0
  1  9  1  0
  1 10  1  0
  1 11  1  0
  4 12  1  0
  5 13  1  0
  6 14  1  0
  7 15  1  0
  7 16  1  0
  8 17  1  0
  8 18  1  0
M  END
