
     RDKit          3D

 21 23  0  0  0  0  0  0  0  0999 V2000
    2.6674   -0.5253   -0.1506 C   0  0  0  0  0  0  0  0  0  0  0  0
    1.7433   -0.7395    0.8661 O   0  0  0  0  0  0  0  0  0  0  0  0
    0.5282   -0.2526    0.4435 C   0  0  0  0  0  0  0  0  0  0  0  0
    0.4645    1.1955    0.1198 C   0  0  0  0  0  0  0  0  0  0  0  0
   -1.0021    1.4850   -0.1792 C   0  0  0  0  0  0  0  0  0  0  0  0
   -1.7381    0.2721    0.3422 C   0  0  0  0  0  0  0  0  0  0  0  0
   -1.7216   -0.8050   -0.7469 C   0  0  0  0  0  0  0  0  0  0  0  0
   -0.3905   -1.2437   -0.1580 C   0  0  0  0  0  0  0  0  0  0  0  0
   -0.7457   -0.5540    1.0808 C   0  0  0  0  0  0  0  0  0  0  0  0
    3.6700   -0.9248    0.1348 H   0  0  0  0  0  0  0  0  0  0  0  0
    2.7957    0.5891   -0.2835 H   0  0  0  0  0  0  0  0  0  0  0  0
    2.3140   -0.9627   -1.1059 H   0  0  0  0  0  0  0  0  0  0  0  0
    1.1000    1.5127   -0.7312 H   0  0  0  0  0  0  0  0  0  0  0  0
    0.6989    1.7678    1.0564 H   0  0  0  0  0  0  0  0  0  0  0  0
   -1.3477    2.4206    0.2910 H   0  0  0  0  0  0  0  0  0  0  0  0
   -1.1053    1.5466   -1.3012 H   0  0  0  0  0  0  0  0  0  0  0  0
   -2.7096    0.4514    0.8034 H   0  0  0  0  0  0  0  0  0  0  0  0
   -1.6592   -0.3765   -1.7692 H   0  0  0  0  0  0  0  0  0  0  0  0
   -2.5229   -1.5589   -0.6510 H   0  0  0  0  0  0  0  0  0  0  0  0
   -0.1279   -2.2969   -0.0994 H   0  0  0  0  0  0  0  0  0  0  0  0
   -0.9115   -1.0007    2.0381 H   0  0  0  0  0  0  0  0  0  0  0  0
  1  2  1  0
  2  3  1  0
  3  4  1  0
  4  5  1  0
  5  6  1  0
  6  7  1  0
  7  8  1  0
  8  9  1  0
  8  3  1  0
  9  3  1  0
  9  6  1  0
  1 10  1  0
  1 11  1  0
  1 12  1  0
  4 13  1  0
  4 14  1  0
  5 15  1  0
  5 16  1  0
  6 17  1  0
  7 18  1  0
  7 19  1  0
  8 20  1  0
  9 21  1  0
M  END
