
     RDKit          3D

 21 22  0  0  0  0  0  0  0  0999 V2000
   -2.1372   -1.2163   -0.0757 C   0  0  0  0  0  0  0  0  0  0  0  0
   -1.0508   -0.7895   -0.8364 O   0  0  0  0  0  0  0  0  0  0  0  0
   -0.4356    0.2386   -0.1702 C   0  0  0  0  0  0  0  0  0  0  0  0
   -1.2509    1.4452    0.1034 C   0  0  0  0  0  0  0  0  0  0  0  0
   -0.0668    1.5163   -0.7964 C   0  0  0  0  0  0  0  0  0  0  0  0
    1.1590    1.5842   -0.1258 O   0  0  0  0  0  0  0  0  0  0  0  0
    1.0416    0.2123    0.0989 C   0  0  0  0  0  0  0  0  0  0  0  0
    1.8749   -0.5299   -0.9245 C   0  0  0  0  0  0  0  0  0  0  0  0
    1.3338   -0.2546    1.4862 C   0  0  0  0  0  0  0  0  0  0  0  0
   -2.8513   -0.3787    0.0659 H   0  0  0  0  0  0  0  0  0  0  0  0
   -2.6660   -2.0534   -0.5959 H   0  0  0  0  0  0  0  0  0  0  0  0
   -1.8153   -1.6307    0.9152 H   0  0  0  0  0  0  0  0  0  0  0  0
   -1.1439    2.0174    1.0591 H   0  0  0  0  0  0  0  0  0  0  0  0
   -2.2362    1.5211   -0.3509 H   0  0  0  0  0  0  0  0  0  0  0  0
   -0.1350    1.7224   -1.8600 H   0  0  0  0  0  0  0  0  0  0  0  0
    2.1764    0.1319   -1.7783 H   0  0  0  0  0  0  0  0  0  0  0  0
    2.8225   -0.8545   -0.4508 H   0  0  0  0  0  0  0  0  0  0  0  0
    1.2737   -1.3643   -1.3067 H   0  0  0  0  0  0  0  0  0  0  0  0
    0.9758    0.4397    2.2746 H   0  0  0  0  0  0  0  0  0  0  0  0
    2.3912   -0.5572    1.6219 H   0  0  0  0  0  0  0  0  0  0  0  0
    0.7400   -1.1999    1.6464 H   0  0  0  0  0  0  0  0  0  0  0  0
  1  2  1  0
  2  3  1  0
  3  4  1  0
  4  5  1  0
  5  6  1  0
  6  7  1  0
  7  8  1  0
  7  9  1  0
  5  3  1  0
  7  3  1  0
  1 10  1  0
  1 11  1  0
  1 12  1  0
  4 13  1  0
  4 14  1  0
  5 15  1  0
  8 16  1  0
  8 17  1  0
  8 18  1  0
  9 19  1  0
  9 20  1  0
  9 21  1  0
M  END
