
     RDKit          3D

 17 17  0  0  0  0  0  0  0  0999 V2000
    2.8906   -0.7247    0.1044 C   0  0  0  0  0  0  0  0  0  0  0  0
    1.6448   -0.4294    0.6535 O   0  0  0  0  0  0  0  0  0  0  0  0
    0.8903    0.3926   -0.1772 C   0  0  0  0  0  0  0  0  0  0  0  0
   -0.3231   -0.3658   -0.5517 C   0  0  0  0  0  0  0  0  0  0  0  0
   -1.4107    0.2626   -0.1463 C   0  0  0  0  0  0  0  0  0  0  0  0
   -2.7928   -0.2423   -0.3695 C   0  0  0  0  0  0  0  0  0  0  0  0
   -0.9856    1.4801    0.5241 C   0  0  0  0  0  0  0  0  0  0  0  0
   -1.7726    2.3234    1.0376 O   0  0  0  0  0  0  0  0  0  0  0  0
    0.3917    1.5207    0.4845 O   0  0  0  0  0  0  0  0  0  0  0  0
    3.4075   -1.3829    0.8455 H   0  0  0  0  0  0  0  0  0  0  0  0
    2.8441   -1.2192   -0.8645 H   0  0  0  0  0  0  0  0  0  0  0  0
    3.4627    0.2293    0.1011 H   0  0  0  0  0  0  0  0  0  0  0  0
    1.4355    0.6473   -1.1120 H   0  0  0  0  0  0  0  0  0  0  0  0
   -0.3409   -1.3258   -1.0947 H   0  0  0  0  0  0  0  0  0  0  0  0
   -3.0223   -0.9561    0.4492 H   0  0  0  0  0  0  0  0  0  0  0  0
   -3.5146    0.5955   -0.4334 H   0  0  0  0  0  0  0  0  0  0  0  0
   -2.8047   -0.8052   -1.3176 H   0  0  0  0  0  0  0  0  0  0  0  0
  1  2  1  0
  2  3  1  0
  3  4  1  0
  4  5  2  0
  5  6  1  0
  5  7  1  0
  7  8  2  0
  7  9  1  0
  9  3  1  0
  1 10  1  0
  1 11  1  0
  1 12  1  0
  3 13  1  0
  4 14  1  0
  6 15  1  0
  6 16  1  0
  6 17  1  0
M  END
