
     RDKit          3D

 21 22  0  0  0  0  0  0  0  0999 V2000
    3.1187    0.4586    0.6345 C   0  0  0  0  0  0  0  0  0  0  0  0
    1.7554    0.5348    0.9222 O   0  0  0  0  0  0  0  0  0  0  0  0
    0.9643    0.0711   -0.0994 C   0  0  0  0  0  0  0  0  0  0  0  0
   -0.1368    1.0586   -0.5104 C   0  0  0  0  0  0  0  0  0  0  0  0
   -1.1237    0.0916    0.0098 C   0  0  0  0  0  0  0  0  0  0  0  0
   -2.3705   -0.2837   -0.6276 C   0  0  0  0  0  0  0  0  0  0  0  0
   -2.3218    0.4011    0.7524 C   0  0  0  0  0  0  0  0  0  0  0  0
   -0.0837   -0.8974    0.4146 C   0  0  0  0  0  0  0  0  0  0  0  0
   -0.2005   -2.0569   -0.3854 O   0  0  0  0  0  0  0  0  0  0  0  0
    3.4682   -0.5590    0.4360 H   0  0  0  0  0  0  0  0  0  0  0  0
    3.6424    0.8786    1.5371 H   0  0  0  0  0  0  0  0  0  0  0  0
    3.3759    1.1681   -0.2020 H   0  0  0  0  0  0  0  0  0  0  0  0
    1.5103   -0.2938   -0.9973 H   0  0  0  0  0  0  0  0  0  0  0  0
   -0.0125    2.0060    0.0334 H   0  0  0  0  0  0  0  0  0  0  0  0
   -0.1833    1.2032   -1.6245 H   0  0  0  0  0  0  0  0  0  0  0  0
   -2.6293   -1.3795   -0.6145 H   0  0  0  0  0  0  0  0  0  0  0  0
   -2.7479    0.3076   -1.4794 H   0  0  0  0  0  0  0  0  0  0  0  0
   -2.6699   -0.2019    1.6223 H   0  0  0  0  0  0  0  0  0  0  0  0
   -2.7424    1.4334    0.7434 H   0  0  0  0  0  0  0  0  0  0  0  0
   -0.0058   -1.1474    1.4812 H   0  0  0  0  0  0  0  0  0  0  0  0
   -0.6068   -2.7933    0.1054 H   0  0  0  0  0  0  0  0  0  0  0  0
  1  2  1  0
  2  3  1  0
  3  4  1  0
  4  5  1  0
  5  6  1  0
  6  7  1  0
  5  8  1  0
  8  9  1  0
  8  3  1  0
  7  5  1  0
  1 10  1  0
  1 11  1  0
  1 12  1  0
  3 13  1  0
  4 14  1  0
  4 15  1  0
  6 16  1  0
  6 17  1  0
  7 18  1  0
  7 19  1  0
  8 20  1  0
  9 21  1  0
M  END
