
     RDKit          3D

 19 21  0  0  0  0  0  0  0  0999 V2000
    2.3977    0.3857    0.6095 C   0  0  0  0  0  0  0  0  0  0  0  0
    1.0748    0.1296    1.0378 O   0  0  0  0  0  0  0  0  0  0  0  0
    0.3779   -0.3242   -0.0410 C   0  0  0  0  0  0  0  0  0  0  0  0
    0.1849    0.4411   -1.2789 C   0  0  0  0  0  0  0  0  0  0  0  0
   -0.9661    0.1161   -0.4165 C   0  0  0  0  0  0  0  0  0  0  0  0
   -1.7164    1.2023    0.2544 C   0  0  0  0  0  0  0  0  0  0  0  0
   -1.4379   -1.3222   -0.3276 C   0  0  0  0  0  0  0  0  0  0  0  0
   -0.7759   -2.2330   -1.1029 O   0  0  0  0  0  0  0  0  0  0  0  0
   -0.1239   -1.7580    0.0182 C   0  0  0  0  0  0  0  0  0  0  0  0
    2.8674   -0.5582    0.2129 H   0  0  0  0  0  0  0  0  0  0  0  0
    3.0397    0.7199    1.4277 H   0  0  0  0  0  0  0  0  0  0  0  0
    2.3366    1.0773   -0.2393 H   0  0  0  0  0  0  0  0  0  0  0  0
    0.1869    0.0133   -2.2819 H   0  0  0  0  0  0  0  0  0  0  0  0
    0.5177    1.5045   -1.2463 H   0  0  0  0  0  0  0  0  0  0  0  0
   -2.8079    0.9948    0.2344 H   0  0  0  0  0  0  0  0  0  0  0  0
   -1.5901    2.1557   -0.3213 H   0  0  0  0  0  0  0  0  0  0  0  0
   -1.3622    1.4247    1.2834 H   0  0  0  0  0  0  0  0  0  0  0  0
   -2.3844   -1.5542    0.1583 H   0  0  0  0  0  0  0  0  0  0  0  0
    0.1811   -2.4152    0.8319 H   0  0  0  0  0  0  0  0  0  0  0  0
  1  2  1  0
  2  3  1  0
  3  4  1  0
  4  5  1  0
  5  6  1  0
  5  7  1  0
  7  8  1  0
  8  9  1  0
  5  3  1  0
  9  7  1  0
  9  3  1  0
  1 10  1  0
  1 11  1  0
  1 12  1  0
  4 13  1  0
  4 14  1  0
  6 15  1  0
  6 16  1  0
  6 17  1  0
  7 18  1  0
  9 19  1  0
M  END
