
     RDKit          3D

 18 19  0  0  0  0  0  0  0  0999 V2000
    2.7432   -0.6568    0.0134 C   0  0  0  0  0  0  0  0  0  0  0  0
    1.7430    0.1027    0.6419 O   0  0  0  0  0  0  0  0  0  0  0  0
    0.5578    0.0250   -0.0486 C   0  0  0  0  0  0  0  0  0  0  0  0
   -0.0492    1.3657   -0.3544 C   0  0  0  0  0  0  0  0  0  0  0  0
   -1.3916    0.9434    0.1622 C   0  0  0  0  0  0  0  0  0  0  0  0
   -1.9135   -0.4268   -0.0184 C   0  0  0  0  0  0  0  0  0  0  0  0
   -3.1165   -0.7086    0.5925 O   0  0  0  0  0  0  0  0  0  0  0  0
   -0.6676   -0.2970    0.7714 C   0  0  0  0  0  0  0  0  0  0  0  0
    2.9331   -0.3016   -1.0223 H   0  0  0  0  0  0  0  0  0  0  0  0
    3.6780   -0.4546    0.5913 H   0  0  0  0  0  0  0  0  0  0  0  0
    2.4622   -1.7189    0.0202 H   0  0  0  0  0  0  0  0  0  0  0  0
    0.5618   -0.6007   -0.9652 H   0  0  0  0  0  0  0  0  0  0  0  0
    0.4078    2.1776    0.2841 H   0  0  0  0  0  0  0  0  0  0  0  0
   -0.0108    1.6671   -1.4139 H   0  0  0  0  0  0  0  0  0  0  0  0
   -1.8976    1.6151    0.8553 H   0  0  0  0  0  0  0  0  0  0  0  0
   -1.7782   -0.9550   -1.0055 H   0  0  0  0  0  0  0  0  0  0  0  0
   -3.6328   -1.4258    0.1071 H   0  0  0  0  0  0  0  0  0  0  0  0
   -0.6291   -0.3509    1.8549 H   0  0  0  0  0  0  0  0  0  0  0  0
  1  2  1  0
  2  3  1  0
  3  4  1  0
  4  5  1  0
  5  6  1  0
  6  7  1  0
  6  8  1  0
  8  3  1  0
  8  5  1  0
  1  9  1  0
  1 10  1  0
  1 11  1  0
  3 12  1  0
  4 13  1  0
  4 14  1  0
  5 15  1  0
  6 16  1  0
  7 17  1  0
  8 18  1  0
M  END
