
     RDKit          3D

 19 20  0  0  0  0  0  0  0  0999 V2000
    2.5903   -0.2545    0.0455 C   0  0  0  0  0  0  0  0  0  0  0  0
    1.5885    0.1857   -0.7975 O   0  0  0  0  0  0  0  0  0  0  0  0
    0.3764    0.2761   -0.3034 C   0  0  0  0  0  0  0  0  0  0  0  0
    0.0433    1.1517    0.8461 C   0  0  0  0  0  0  0  0  0  0  0  0
   -1.2686    0.9179    1.0180 C   0  0  0  0  0  0  0  0  0  0  0  0
   -1.5786   -0.0797   -0.0118 C   0  0  0  0  0  0  0  0  0  0  0  0
   -2.7706   -0.5943   -0.1869 O   0  0  0  0  0  0  0  0  0  0  0  0
   -0.8140    0.4983   -1.2129 C   0  0  0  0  0  0  0  0  0  0  0  0
   -0.3601   -1.0083    0.1145 C   0  0  0  0  0  0  0  0  0  0  0  0
    2.3748   -1.2825    0.4324 H   0  0  0  0  0  0  0  0  0  0  0  0
    3.5735   -0.2477   -0.5006 H   0  0  0  0  0  0  0  0  0  0  0  0
    2.6681    0.4256    0.9334 H   0  0  0  0  0  0  0  0  0  0  0  0
    0.6866    1.8146    1.4101 H   0  0  0  0  0  0  0  0  0  0  0  0
   -1.9738    1.3314    1.7228 H   0  0  0  0  0  0  0  0  0  0  0  0
   -2.7574   -1.4805   -0.5927 H   0  0  0  0  0  0  0  0  0  0  0  0
   -0.8375   -0.1446   -2.1017 H   0  0  0  0  0  0  0  0  0  0  0  0
   -1.0031    1.5662   -1.3831 H   0  0  0  0  0  0  0  0  0  0  0  0
   -0.3226   -1.8152   -0.6117 H   0  0  0  0  0  0  0  0  0  0  0  0
   -0.2152   -1.2602    1.1795 H   0  0  0  0  0  0  0  0  0  0  0  0
  1  2  1  0
  2  3  1  0
  3  4  1  0
  4  5  2  0
  5  6  1  0
  6  7  1  0
  6  8  1  0
  6  9  1  0
  8  3  1  0
  9  3  1  0
  1 10  1  0
  1 11  1  0
  1 12  1  0
  4 13  1  0
  5 14  1  0
  7 15  1  0
  8 16  1  0
  8 17  1  0
  9 18  1  0
  9 19  1  0
M  END
