
     RDKit          3D

 17 18  0  0  0  0  0  0  0  0999 V2000
    2.4152    0.0188   -0.5453 C   0  0  0  0  0  0  0  0  0  0  0  0
    1.0781    0.3348   -0.7569 O   0  0  0  0  0  0  0  0  0  0  0  0
    0.3151   -0.3371    0.1644 C   0  0  0  0  0  0  0  0  0  0  0  0
   -0.6659    0.5886    0.8847 C   0  0  0  0  0  0  0  0  0  0  0  0
   -1.3040    1.2591   -0.2823 C   0  0  0  0  0  0  0  0  0  0  0  0
   -1.5444    0.2359   -1.1058 C   0  0  0  0  0  0  0  0  0  0  0  0
   -0.9933   -0.9159   -0.3645 C   0  0  0  0  0  0  0  0  0  0  0  0
   -1.4968   -0.6308    1.0013 C   0  0  0  0  0  0  0  0  0  0  0  0
   -2.2173   -1.1282    1.8107 O   0  0  0  0  0  0  0  0  0  0  0  0
    3.0934    0.5356   -1.2660 H   0  0  0  0  0  0  0  0  0  0  0  0
    2.7614    0.3324    0.4735 H   0  0  0  0  0  0  0  0  0  0  0  0
    2.6180   -1.0742   -0.6662 H   0  0  0  0  0  0  0  0  0  0  0  0
    0.8279   -0.9828    0.8869 H   0  0  0  0  0  0  0  0  0  0  0  0
   -0.3519    1.1284    1.7210 H   0  0  0  0  0  0  0  0  0  0  0  0
   -1.5117    2.3178   -0.4095 H   0  0  0  0  0  0  0  0  0  0  0  0
   -2.0158    0.2057   -2.0727 H   0  0  0  0  0  0  0  0  0  0  0  0
   -1.0082   -1.8882   -0.7561 H   0  0  0  0  0  0  0  0  0  0  0  0
  1  2  1  0
  2  3  1  0
  3  4  1  0
  4  5  1  0
  5  6  2  0
  6  7  1  0
  7  8  1  0
  8  9  2  0
  7  3  1  0
  8  4  1  0
  1 10  1  0
  1 11  1  0
  1 12  1  0
  3 13  1  0
  4 14  1  0
  5 15  1  0
  6 16  1  0
  7 17  1  0
M  END
