
     RDKit          3D

 21 22  0  0  0  0  0  0  0  0999 V2000
   -2.8153   -1.1299    0.2280 C   0  0  0  0  0  0  0  0  0  0  0  0
   -1.6320   -0.8224   -0.4338 O   0  0  0  0  0  0  0  0  0  0  0  0
   -1.0577    0.3506    0.0257 C   0  0  0  0  0  0  0  0  0  0  0  0
   -0.4181    1.2806   -1.0444 C   0  0  0  0  0  0  0  0  0  0  0  0
    0.3714    0.5119   -0.0753 C   0  0  0  0  0  0  0  0  0  0  0  0
    1.2450    1.1382    0.9579 C   0  0  0  0  0  0  0  0  0  0  0  0
    2.3256    0.1457    0.5660 C   0  0  0  0  0  0  0  0  0  0  0  0
    1.3609   -0.5192   -0.4181 C   0  0  0  0  0  0  0  0  0  0  0  0
    1.0168   -1.8203   -0.0815 O   0  0  0  0  0  0  0  0  0  0  0  0
   -3.5606   -0.3231    0.0912 H   0  0  0  0  0  0  0  0  0  0  0  0
   -3.2097   -2.0719   -0.1761 H   0  0  0  0  0  0  0  0  0  0  0  0
   -2.5842   -1.2895    1.3024 H   0  0  0  0  0  0  0  0  0  0  0  0
   -1.5876    0.9067    0.8511 H   0  0  0  0  0  0  0  0  0  0  0  0
   -0.4993    2.3699   -0.8411 H   0  0  0  0  0  0  0  0  0  0  0  0
   -0.4660    0.9259   -2.0897 H   0  0  0  0  0  0  0  0  0  0  0  0
    0.8406    1.0105    1.9738 H   0  0  0  0  0  0  0  0  0  0  0  0
    1.4570    2.1881    0.7124 H   0  0  0  0  0  0  0  0  0  0  0  0
    2.5328   -0.5390    1.4018 H   0  0  0  0  0  0  0  0  0  0  0  0
    3.1708    0.5624    0.0237 H   0  0  0  0  0  0  0  0  0  0  0  0
    1.6874   -0.4535   -1.4818 H   0  0  0  0  0  0  0  0  0  0  0  0
    1.8221   -2.4218   -0.0690 H   0  0  0  0  0  0  0  0  0  0  0  0
  1  2  1  0
  2  3  1  0
  3  4  1  0
  4  5  1  0
  5  6  1  0
  6  7  1  0
  7  8  1  0
  8  9  1  0
  5  3  1  0
  8  5  1  0
  1 10  1  0
  1 11  1  0
  1 12  1  0
  3 13  1  0
  4 14  1  0
  4 15  1  0
  6 16  1  0
  6 17  1  0
  7 18  1  0
  7 19  1  0
  8 20  1  0
  9 21  1  0
M  END
