
     RDKit          3D

 19 19  0  0  0  0  0  0  0  0999 V2000
    2.3179    0.5177    0.1812 C   0  0  0  0  0  0  0  0  0  0  0  0
    1.1161   -0.0786    0.4968 O   0  0  0  0  0  0  0  0  0  0  0  0
    0.3125   -0.2882   -0.6186 C   0  0  0  0  0  0  0  0  0  0  0  0
   -0.3003   -1.6775   -0.5572 C   0  0  0  0  0  0  0  0  0  0  0  0
   -1.2995   -1.0680    0.4392 C   0  0  0  0  0  0  0  0  0  0  0  0
   -1.0961    0.2338   -0.2994 C   0  0  0  0  0  0  0  0  0  0  0  0
   -1.0871    1.4653    0.5628 C   0  0  0  0  0  0  0  0  0  0  0  0
    2.1182    1.5159   -0.2975 H   0  0  0  0  0  0  0  0  0  0  0  0
    2.8419   -0.0900   -0.5795 H   0  0  0  0  0  0  0  0  0  0  0  0
    2.8918    0.6230    1.1276 H   0  0  0  0  0  0  0  0  0  0  0  0
    0.7008    0.0271   -1.5808 H   0  0  0  0  0  0  0  0  0  0  0  0
   -0.8161   -1.8979   -1.5194 H   0  0  0  0  0  0  0  0  0  0  0  0
    0.3375   -2.4596   -0.1458 H   0  0  0  0  0  0  0  0  0  0  0  0
   -0.8644   -1.0606    1.4546 H   0  0  0  0  0  0  0  0  0  0  0  0
   -2.2876   -1.5198    0.3793 H   0  0  0  0  0  0  0  0  0  0  0  0
   -1.6890    0.3504   -1.2027 H   0  0  0  0  0  0  0  0  0  0  0  0
   -0.3274    1.4215    1.3651 H   0  0  0  0  0  0  0  0  0  0  0  0
   -2.1016    1.6717    0.8967 H   0  0  0  0  0  0  0  0  0  0  0  0
   -0.7675    2.3137   -0.1024 H   0  0  0  0  0  0  0  0  0  0  0  0
  1  2  1  0
  2  3  1  0
  3  4  1  0
  4  5  1  0
  5  6  1  0
  6  7  1  0
  6  3  1  0
  1  8  1  0
  1  9  1  0
  1 10  1  0
  3 11  1  0
  4 12  1  0
  4 13  1  0
  5 14  1  0
  5 15  1  0
  6 16  1  0
  7 17  1  0
  7 18  1  0
  7 19  1  0
M  END
