
     RDKit          3D

 21 22  0  0  0  0  0  0  0  0999 V2000
   -2.2688    0.0508   -0.9926 C   0  0  0  0  0  0  0  0  0  0  0  0
   -1.0298    0.5863   -0.7612 O   0  0  0  0  0  0  0  0  0  0  0  0
   -0.2737   -0.0632    0.1689 C   0  0  0  0  0  0  0  0  0  0  0  0
   -0.8101   -0.1712    1.5603 C   0  0  0  0  0  0  0  0  0  0  0  0
    0.3850   -1.3386   -0.2569 C   0  0  0  0  0  0  0  0  0  0  0  0
    1.2199   -0.5545   -1.1926 C   0  0  0  0  0  0  0  0  0  0  0  0
    1.1984    0.1776    0.1205 C   0  0  0  0  0  0  0  0  0  0  0  0
    1.8694    1.3429    0.4225 C   0  0  0  0  0  0  0  0  0  0  0  0
    1.3482   -1.0598    0.7288 O   0  0  0  0  0  0  0  0  0  0  0  0
   -2.9212    0.0220   -0.0957 H   0  0  0  0  0  0  0  0  0  0  0  0
   -2.7920    0.7240   -1.7226 H   0  0  0  0  0  0  0  0  0  0  0  0
   -2.2398   -0.9491   -1.4752 H   0  0  0  0  0  0  0  0  0  0  0  0
    0.0368   -0.3793    2.2539 H   0  0  0  0  0  0  0  0  0  0  0  0
   -1.2913    0.7544    1.9265 H   0  0  0  0  0  0  0  0  0  0  0  0
   -1.4887   -1.0631    1.6522 H   0  0  0  0  0  0  0  0  0  0  0  0
   -0.0547   -2.2339   -0.3907 H   0  0  0  0  0  0  0  0  0  0  0  0
    2.1447   -1.0710   -1.4603 H   0  0  0  0  0  0  0  0  0  0  0  0
    0.7084    0.0095   -1.9882 H   0  0  0  0  0  0  0  0  0  0  0  0
    1.2294    2.2666    0.3067 H   0  0  0  0  0  0  0  0  0  0  0  0
    2.7510    1.5481   -0.2530 H   0  0  0  0  0  0  0  0  0  0  0  0
    2.2790    1.4017    1.4488 H   0  0  0  0  0  0  0  0  0  0  0  0
  1  2  1  0
  2  3  1  0
  3  4  1  0
  3  5  1  0
  5  6  1  0
  6  7  1  0
  7  8  1  0
  7  9  1  0
  7  3  1  0
  9  5  1  0
  1 10  1  0
  1 11  1  0
  1 12  1  0
  4 13  1  0
  4 14  1  0
  4 15  1  0
  5 16  1  0
  6 17  1  0
  6 18  1  0
  8 19  1  0
  8 20  1  0
  8 21  1  0
M  END
