
     RDKit          3D

 19 19  0  0  0  0  0  0  0  0999 V2000
    2.5467   -0.6151   -0.0311 C   0  0  0  0  0  0  0  0  0  0  0  0
    1.5294    0.0292    0.6571 O   0  0  0  0  0  0  0  0  0  0  0  0
    0.4046    0.0549   -0.1222 C   0  0  0  0  0  0  0  0  0  0  0  0
   -0.0866    1.4884   -0.3558 C   0  0  0  0  0  0  0  0  0  0  0  0
   -1.5185    1.4408   -0.0210 C   0  0  0  0  0  0  0  0  0  0  0  0
   -2.2253    2.3564    0.2918 O   0  0  0  0  0  0  0  0  0  0  0  0
   -1.9387    0.0318   -0.1420 C   0  0  0  0  0  0  0  0  0  0  0  0
   -0.7742   -0.6604    0.5365 C   0  0  0  0  0  0  0  0  0  0  0  0
   -0.7313   -2.0180    0.2570 O   0  0  0  0  0  0  0  0  0  0  0  0
    3.4523   -0.6283    0.6131 H   0  0  0  0  0  0  0  0  0  0  0  0
    2.2416   -1.6409   -0.2718 H   0  0  0  0  0  0  0  0  0  0  0  0
    2.8437   -0.0689   -0.9551 H   0  0  0  0  0  0  0  0  0  0  0  0
    0.5930   -0.4405   -1.0932 H   0  0  0  0  0  0  0  0  0  0  0  0
    0.4931    2.2100    0.2506 H   0  0  0  0  0  0  0  0  0  0  0  0
    0.0106    1.7384   -1.4393 H   0  0  0  0  0  0  0  0  0  0  0  0
   -2.8970   -0.1633    0.3779 H   0  0  0  0  0  0  0  0  0  0  0  0
   -1.9972   -0.2041   -1.2249 H   0  0  0  0  0  0  0  0  0  0  0  0
   -0.8475   -0.4313    1.6093 H   0  0  0  0  0  0  0  0  0  0  0  0
   -1.0986   -2.4792    1.0631 H   0  0  0  0  0  0  0  0  0  0  0  0
  1  2  1  0
  2  3  1  0
  3  4  1  0
  4  5  1  0
  5  6  2  0
  5  7  1  0
  7  8  1  0
  8  9  1  0
  8  3  1  0
  1 10  1  0
  1 11  1  0
  1 12  1  0
  3 13  1  0
  4 14  1  0
  4 15  1  0
  7 16  1  0
  7 17  1  0
  8 18  1  0
  9 19  1  0
M  END
