
     RDKit          3D

 16 16  0  0  0  0  0  0  0  0999 V2000
    2.4013    0.1776   -0.0999 C   0  0  0  0  0  0  0  0  0  0  0  0
    1.0852    0.3329   -0.5441 O   0  0  0  0  0  0  0  0  0  0  0  0
    0.1759   -0.1614    0.3838 C   0  0  0  0  0  0  0  0  0  0  0  0
   -0.9173   -1.0094   -0.1799 C   0  0  0  0  0  0  0  0  0  0  0  0
   -1.9656    0.0159    0.1880 C   0  0  0  0  0  0  0  0  0  0  0  0
   -0.8689    0.8299    0.8383 C   0  0  0  0  0  0  0  0  0  0  0  0
    2.4659    0.7577    0.8643 H   0  0  0  0  0  0  0  0  0  0  0  0
    3.0751    0.6944   -0.7984 H   0  0  0  0  0  0  0  0  0  0  0  0
    2.6689   -0.8528    0.1326 H   0  0  0  0  0  0  0  0  0  0  0  0
    0.7158   -0.5670    1.2681 H   0  0  0  0  0  0  0  0  0  0  0  0
   -1.0522   -1.9411    0.4087 H   0  0  0  0  0  0  0  0  0  0  0  0
   -0.8588   -1.2584   -1.2511 H   0  0  0  0  0  0  0  0  0  0  0  0
   -2.7563   -0.3335    0.8777 H   0  0  0  0  0  0  0  0  0  0  0  0
   -2.4034    0.5786   -0.6566 H   0  0  0  0  0  0  0  0  0  0  0  0
   -0.7559    1.8537    0.4298 H   0  0  0  0  0  0  0  0  0  0  0  0
   -1.0098    0.8829    1.9405 H   0  0  0  0  0  0  0  0  0  0  0  0
  1  2  1  0
  2  3  1  0
  3  4  1  0
  4  5  1  0
  5  6  1  0
  6  3  1  0
  1  7  1  0
  1  8  1  0
  1  9  1  0
  3 10  1  0
  4 11  1  0
  4 12  1  0
  5 13  1  0
  5 14  1  0
  6 15  1  0
  6 16  1  0
M  END
