
     RDKit          3D

 21 22  0  0  0  0  0  0  0  0999 V2000
    3.1000   -0.5599   -0.0240 C   0  0  0  0  0  0  0  0  0  0  0  0
    1.8301   -0.2484    0.4956 O   0  0  0  0  0  0  0  0  0  0  0  0
    0.9139   -0.0597   -0.5343 C   0  0  0  0  0  0  0  0  0  0  0  0
    0.1309    1.2451   -0.3585 C   0  0  0  0  0  0  0  0  0  0  0  0
   -1.0449    0.4726    0.1171 C   0  0  0  0  0  0  0  0  0  0  0  0
   -2.4312    0.7968   -0.3294 C   0  0  0  0  0  0  0  0  0  0  0  0
   -0.8992   -0.5665    1.1549 C   0  0  0  0  0  0  0  0  0  0  0  0
   -1.9987   -1.3246    1.5025 O   0  0  0  0  0  0  0  0  0  0  0  0
   -0.3670   -0.7915   -0.2236 C   0  0  0  0  0  0  0  0  0  0  0  0
    3.0477   -1.4929   -0.6282 H   0  0  0  0  0  0  0  0  0  0  0  0
    3.8181   -0.7695    0.7941 H   0  0  0  0  0  0  0  0  0  0  0  0
    3.5220    0.2428   -0.6316 H   0  0  0  0  0  0  0  0  0  0  0  0
    1.2965   -0.1757   -1.5565 H   0  0  0  0  0  0  0  0  0  0  0  0
   -0.0267    1.8036   -1.2981 H   0  0  0  0  0  0  0  0  0  0  0  0
    0.5937    1.8837    0.4178 H   0  0  0  0  0  0  0  0  0  0  0  0
   -2.8129    1.6557    0.2586 H   0  0  0  0  0  0  0  0  0  0  0  0
   -3.1102   -0.0600   -0.0837 H   0  0  0  0  0  0  0  0  0  0  0  0
   -2.5200    1.0627   -1.3975 H   0  0  0  0  0  0  0  0  0  0  0  0
   -0.1310   -0.3607    1.9342 H   0  0  0  0  0  0  0  0  0  0  0  0
   -2.1244   -1.2291    2.4921 H   0  0  0  0  0  0  0  0  0  0  0  0
   -0.7869   -1.5245   -0.9055 H   0  0  0  0  0  0  0  0  0  0  0  0
  1  2  1  0
  2  3  1  0
  3  4  1  0
  4  5  1  0
  5  6  1  0
  5  7  1  0
  7  8  1  0
  7  9  1  0
  9  3  1  0
  9  5  1  0
  1 10  1  0
  1 11  1  0
  1 12  1  0
  3 13  1  0
  4 14  1  0
  4 15  1  0
  6 16  1  0
  6 17  1  0
  6 18  1  0
  7 19  1  0
  8 20  1  0
  9 21  1  0
M  END
