
     RDKit          3D

 19 20  0  0  0  0  0  0  0  0999 V2000
   -2.2189   -0.5212    0.2730 C   0  0  0  0  0  0  0  0  0  0  0  0
   -1.0841   -0.7354   -0.4499 O   0  0  0  0  0  0  0  0  0  0  0  0
   -0.0729    0.1484   -0.2944 C   0  0  0  0  0  0  0  0  0  0  0  0
   -0.3655    1.5658   -0.6390 C   0  0  0  0  0  0  0  0  0  0  0  0
    0.3910    0.0891    1.1322 C   0  0  0  0  0  0  0  0  0  0  0  0
    1.5597   -0.5117    1.2094 C   0  0  0  0  0  0  0  0  0  0  0  0
    2.0099   -0.9197   -0.1365 C   0  0  0  0  0  0  0  0  0  0  0  0
    1.2336   -1.8240   -0.8725 O   0  0  0  0  0  0  0  0  0  0  0  0
    1.1379   -0.3551   -1.0708 C   0  0  0  0  0  0  0  0  0  0  0  0
   -2.7216    0.4544    0.0685 H   0  0  0  0  0  0  0  0  0  0  0  0
   -2.9498   -1.3263    0.0011 H   0  0  0  0  0  0  0  0  0  0  0  0
   -2.0857   -0.6156    1.3761 H   0  0  0  0  0  0  0  0  0  0  0  0
   -0.1435    1.7225   -1.7266 H   0  0  0  0  0  0  0  0  0  0  0  0
   -1.3829    1.9014   -0.4648 H   0  0  0  0  0  0  0  0  0  0  0  0
    0.3676    2.2391   -0.1099 H   0  0  0  0  0  0  0  0  0  0  0  0
   -0.1603    0.4850    1.9724 H   0  0  0  0  0  0  0  0  0  0  0  0
    2.0905   -0.6695    2.1409 H   0  0  0  0  0  0  0  0  0  0  0  0
    3.1061   -1.0840   -0.3027 H   0  0  0  0  0  0  0  0  0  0  0  0
    1.2890   -0.0431   -2.1067 H   0  0  0  0  0  0  0  0  0  0  0  0
  1  2  1  0
  2  3  1  0
  3  4  1  0
  3  5  1  0
  5  6  2  0
  6  7  1  0
  7  8  1  0
  8  9  1  0
  9  3  1  0
  9  7  1  0
  1 10  1  0
  1 11  1  0
  1 12  1  0
  4 13  1  0
  4 14  1  0
  4 15  1  0
  5 16  1  0
  6 17  1  0
  7 18  1  0
  9 19  1  0
M  END
