
     RDKit          3D

 19 21  0  0  0  0  0  0  0  0999 V2000
    2.6272    0.0494   -0.3341 C   0  0  0  0  0  0  0  0  0  0  0  0
    1.6773    0.9562    0.0900 O   0  0  0  0  0  0  0  0  0  0  0  0
    0.3991    0.5109    0.0907 C   0  0  0  0  0  0  0  0  0  0  0  0
   -0.0051   -0.6982    0.9400 C   0  0  0  0  0  0  0  0  0  0  0  0
   -1.1518   -0.8774   -0.0364 C   0  0  0  0  0  0  0  0  0  0  0  0
   -2.2740    0.0680    0.3406 C   0  0  0  0  0  0  0  0  0  0  0  0
   -1.9668    1.3046   -0.1755 O   0  0  0  0  0  0  0  0  0  0  0  0
   -0.6476    1.3433   -0.5367 C   0  0  0  0  0  0  0  0  0  0  0  0
   -0.3621   -0.0293   -0.9957 C   0  0  0  0  0  0  0  0  0  0  0  0
    2.6184   -0.8546    0.3255 H   0  0  0  0  0  0  0  0  0  0  0  0
    3.6098    0.5606   -0.3208 H   0  0  0  0  0  0  0  0  0  0  0  0
    2.4590   -0.3190   -1.3584 H   0  0  0  0  0  0  0  0  0  0  0  0
   -0.3360   -0.3626    1.9462 H   0  0  0  0  0  0  0  0  0  0  0  0
    0.7448   -1.5111    0.9405 H   0  0  0  0  0  0  0  0  0  0  0  0
   -1.4118   -1.8799   -0.3263 H   0  0  0  0  0  0  0  0  0  0  0  0
   -2.3266    0.1934    1.4622 H   0  0  0  0  0  0  0  0  0  0  0  0
   -3.2494   -0.3331    0.0362 H   0  0  0  0  0  0  0  0  0  0  0  0
   -0.3205    2.2107   -1.0927 H   0  0  0  0  0  0  0  0  0  0  0  0
   -0.0838   -0.3319   -1.9745 H   0  0  0  0  0  0  0  0  0  0  0  0
  1  2  1  0
  2  3  1  0
  3  4  1  0
  4  5  1  0
  5  6  1  0
  6  7  1  0
  7  8  1  0
  8  9  1  0
  8  3  1  0
  9  3  1  0
  9  5  1  0
  1 10  1  0
  1 11  1  0
  1 12  1  0
  4 13  1  0
  4 14  1  0
  5 15  1  0
  6 16  1  0
  6 17  1  0
  8 18  1  0
  9 19  1  0
M  END
