
     RDKit          3D

 17 17  0  0  0  0  0  0  0  0999 V2000
    1.9274    0.5882    0.5175 C   0  0  0  0  0  0  0  0  0  0  0  0
    0.7741    1.0211   -0.1031 O   0  0  0  0  0  0  0  0  0  0  0  0
   -0.2203    0.0827   -0.1672 C   0  0  0  0  0  0  0  0  0  0  0  0
    0.0988   -1.1905   -0.9064 C   0  0  0  0  0  0  0  0  0  0  0  0
   -1.0911   -0.0872    1.0364 C   0  0  0  0  0  0  0  0  0  0  0  0
   -2.2015    0.0269    0.2102 O   0  0  0  0  0  0  0  0  0  0  0  0
   -1.4818    0.7024   -0.7620 C   0  0  0  0  0  0  0  0  0  0  0  0
    1.7990    0.2726    1.5524 H   0  0  0  0  0  0  0  0  0  0  0  0
    2.6403    1.4648    0.5000 H   0  0  0  0  0  0  0  0  0  0  0  0
    2.4657   -0.2054   -0.0669 H   0  0  0  0  0  0  0  0  0  0  0  0
    0.2290   -2.0192   -0.1499 H   0  0  0  0  0  0  0  0  0  0  0  0
   -0.7381   -1.5353   -1.5543 H   0  0  0  0  0  0  0  0  0  0  0  0
    0.9940   -1.0693   -1.5311 H   0  0  0  0  0  0  0  0  0  0  0  0
   -1.0503    0.8034    1.7118 H   0  0  0  0  0  0  0  0  0  0  0  0
   -0.9984   -1.0548    1.5741 H   0  0  0  0  0  0  0  0  0  0  0  0
   -1.6593    0.3913   -1.8019 H   0  0  0  0  0  0  0  0  0  0  0  0
   -1.4875    1.8081   -0.6923 H   0  0  0  0  0  0  0  0  0  0  0  0
  1  2  1  0
  2  3  1  0
  3  4  1  0
  3  5  1  0
  5  6  1  0
  6  7  1  0
  7  3  1  0
  1  8  1  0
  1  9  1  0
  1 10  1  0
  4 11  1  0
  4 12  1  0
  4 13  1  0
  5 14  1  0
  5 15  1  0
  7 16  1  0
  7 17  1  0
M  END
