
     RDKit          3D

 21 21  0  0  0  0  0  0  0  0999 V2000
    2.4831   -0.6203    1.2507 C   0  0  0  0  0  0  0  0  0  0  0  0
    1.8061   -0.7561    0.0474 O   0  0  0  0  0  0  0  0  0  0  0  0
    0.7937    0.1944   -0.1061 C   0  0  0  0  0  0  0  0  0  0  0  0
    1.0525    0.8765   -1.2945 O   0  0  0  0  0  0  0  0  0  0  0  0
   -0.1636    1.3937   -1.7109 C   0  0  0  0  0  0  0  0  0  0  0  0
   -1.2398    0.4467   -1.2482 C   0  0  0  0  0  0  0  0  0  0  0  0
   -0.4726   -0.5415   -0.4213 C   0  0  0  0  0  0  0  0  0  0  0  0
   -1.2709   -0.9013    0.8057 C   0  0  0  0  0  0  0  0  0  0  0  0
   -1.6286    0.2503    1.5048 O   0  0  0  0  0  0  0  0  0  0  0  0
    1.7383   -0.7475    2.0611 H   0  0  0  0  0  0  0  0  0  0  0  0
    3.1756   -1.4805    1.3291 H   0  0  0  0  0  0  0  0  0  0  0  0
    2.9734    0.3538    1.3804 H   0  0  0  0  0  0  0  0  0  0  0  0
    0.7182    0.8747    0.7523 H   0  0  0  0  0  0  0  0  0  0  0  0
   -0.3061    2.4100   -1.3038 H   0  0  0  0  0  0  0  0  0  0  0  0
   -0.2252    1.4836   -2.8252 H   0  0  0  0  0  0  0  0  0  0  0  0
   -1.7302   -0.1010   -2.0708 H   0  0  0  0  0  0  0  0  0  0  0  0
   -1.9653    0.9598   -0.5814 H   0  0  0  0  0  0  0  0  0  0  0  0
   -0.2097   -1.4711   -0.9675 H   0  0  0  0  0  0  0  0  0  0  0  0
   -0.7233   -1.5806    1.4774 H   0  0  0  0  0  0  0  0  0  0  0  0
   -2.1785   -1.4409    0.4604 H   0  0  0  0  0  0  0  0  0  0  0  0
   -2.6271    0.3972    1.4605 H   0  0  0  0  0  0  0  0  0  0  0  0
  1  2  1  0
  2  3  1  0
  3  4  1  0
  4  5  1  0
  5  6  1  0
  6  7  1  0
  7  8  1  0
  8  9  1  0
  7  3  1  0
  1 10  1  0
  1 11  1  0
  1 12  1  0
  3 13  1  0
  5 14  1  0
  5 15  1  0
  6 16  1  0
  6 17  1  0
  7 18  1  0
  8 19  1  0
  8 20  1  0
  9 21  1  0
M  END
