
     RDKit          3D

 19 19  0  0  0  0  0  0  0  0999 V2000
    2.2851   -0.8266   -0.1857 C   0  0  0  0  0  0  0  0  0  0  0  0
    1.4226   -0.0498   -0.8837 O   0  0  0  0  0  0  0  0  0  0  0  0
    0.1915    0.2085   -0.3441 C   0  0  0  0  0  0  0  0  0  0  0  0
   -0.9801   -0.3984   -0.9685 C   0  0  0  0  0  0  0  0  0  0  0  0
   -1.9135   -1.3046   -0.2602 C   0  0  0  0  0  0  0  0  0  0  0  0
   -1.1693   -0.1054   -2.1742 O   0  0  0  0  0  0  0  0  0  0  0  0
    0.0422    0.4202    1.1289 C   0  0  0  0  0  0  0  0  0  0  0  0
    0.1105    1.6308    0.2405 C   0  0  0  0  0  0  0  0  0  0  0  0
   -1.0128    2.2749   -0.1904 O   0  0  0  0  0  0  0  0  0  0  0  0
    3.2188   -0.9146   -0.8096 H   0  0  0  0  0  0  0  0  0  0  0  0
    2.5252   -0.3510    0.7928 H   0  0  0  0  0  0  0  0  0  0  0  0
    1.9415   -1.8584   -0.0230 H   0  0  0  0  0  0  0  0  0  0  0  0
   -1.4265   -1.9682    0.4389 H   0  0  0  0  0  0  0  0  0  0  0  0
   -2.4653   -1.9150   -1.0000 H   0  0  0  0  0  0  0  0  0  0  0  0
   -2.6730   -0.7158    0.3352 H   0  0  0  0  0  0  0  0  0  0  0  0
    0.8567    0.2268    1.8439 H   0  0  0  0  0  0  0  0  0  0  0  0
   -0.9493    0.2697    1.5843 H   0  0  0  0  0  0  0  0  0  0  0  0
    1.0746    2.1842    0.3321 H   0  0  0  0  0  0  0  0  0  0  0  0
   -1.0789    3.1929    0.1429 H   0  0  0  0  0  0  0  0  0  0  0  0
  1  2  1  0
  2  3  1  0
  3  4  1  0
  4  5  1  0
  4  6  2  0
  3  7  1  0
  7  8  1  0
  8  9  1  0
  8  3  1  0
  1 10  1  0
  1 11  1  0
  1 12  1  0
  5 13  1  0
  5 14  1  0
  5 15  1  0
  7 16  1  0
  7 17  1  0
  8 18  1  0
  9 19  1  0
M  END
