
     RDKit          3D

 21 22  0  0  0  0  0  0  0  0999 V2000
    2.4300    0.7637   -0.7500 C   0  0  0  0  0  0  0  0  0  0  0  0
    1.2863    1.2816   -0.1492 O   0  0  0  0  0  0  0  0  0  0  0  0
    0.4166    0.2337    0.2453 C   0  0  0  0  0  0  0  0  0  0  0  0
    1.1569   -0.6727    1.2507 C   0  0  0  0  0  0  0  0  0  0  0  0
   -0.3937   -0.4718   -0.6841 C   0  0  0  0  0  0  0  0  0  0  0  0
   -1.8261   -0.9358   -0.5611 C   0  0  0  0  0  0  0  0  0  0  0  0
   -2.0449    0.5884   -0.6919 C   0  0  0  0  0  0  0  0  0  0  0  0
   -0.9544    0.5794    0.3635 C   0  0  0  0  0  0  0  0  0  0  0  0
   -1.5208   -0.0049    1.5322 O   0  0  0  0  0  0  0  0  0  0  0  0
    2.9223    0.1077    0.0246 H   0  0  0  0  0  0  0  0  0  0  0  0
    2.2410    0.2408   -1.6917 H   0  0  0  0  0  0  0  0  0  0  0  0
    3.1527    1.5842   -0.9266 H   0  0  0  0  0  0  0  0  0  0  0  0
    1.7749   -1.4164    0.7468 H   0  0  0  0  0  0  0  0  0  0  0  0
    0.3224   -1.2513    1.7482 H   0  0  0  0  0  0  0  0  0  0  0  0
    1.6396   -0.0951    2.0362 H   0  0  0  0  0  0  0  0  0  0  0  0
   -0.2935   -0.0488   -1.7375 H   0  0  0  0  0  0  0  0  0  0  0  0
   -2.1724   -1.5137   -1.4206 H   0  0  0  0  0  0  0  0  0  0  0  0
   -2.1486   -1.3813    0.3716 H   0  0  0  0  0  0  0  0  0  0  0  0
   -2.9973    0.9443   -0.3137 H   0  0  0  0  0  0  0  0  0  0  0  0
   -1.7204    0.9047   -1.6887 H   0  0  0  0  0  0  0  0  0  0  0  0
   -1.2707    0.5634    2.2959 H   0  0  0  0  0  0  0  0  0  0  0  0
  1  2  1  0
  2  3  1  0
  3  4  1  0
  3  5  1  0
  5  6  1  0
  6  7  1  0
  7  8  1  0
  8  9  1  0
  8  3  1  0
  8  5  1  0
  1 10  1  0
  1 11  1  0
  1 12  1  0
  4 13  1  0
  4 14  1  0
  4 15  1  0
  5 16  1  0
  6 17  1  0
  6 18  1  0
  7 19  1  0
  7 20  1  0
  9 21  1  0
M  END
