
     RDKit          3D

 14 14  0  0  0  0  0  0  0  0999 V2000
    2.0628    0.0742   -0.9424 C   0  0  0  0  0  0  0  0  0  0  0  0
    1.2898   -0.2433    0.1813 O   0  0  0  0  0  0  0  0  0  0  0  0
   -0.0308    0.1074    0.0176 C   0  0  0  0  0  0  0  0  0  0  0  0
   -0.9992   -1.0096    0.2718 C   0  0  0  0  0  0  0  0  0  0  0  0
   -2.0955   -0.4362    0.9942 O   0  0  0  0  0  0  0  0  0  0  0  0
   -1.7604    0.8775    1.2817 C   0  0  0  0  0  0  0  0  0  0  0  0
   -2.5953    1.7073    1.7257 O   0  0  0  0  0  0  0  0  0  0  0  0
   -0.4151    1.0766    1.0007 O   0  0  0  0  0  0  0  0  0  0  0  0
    1.9790    1.1722   -1.0773 H   0  0  0  0  0  0  0  0  0  0  0  0
    3.1096   -0.1840   -0.7491 H   0  0  0  0  0  0  0  0  0  0  0  0
    1.6917   -0.4647   -1.8531 H   0  0  0  0  0  0  0  0  0  0  0  0
   -0.1896    0.5685   -0.9793 H   0  0  0  0  0  0  0  0  0  0  0  0
   -1.4506   -1.3867   -0.6840 H   0  0  0  0  0  0  0  0  0  0  0  0
   -0.5965   -1.8591    0.8122 H   0  0  0  0  0  0  0  0  0  0  0  0
  1  2  1  0
  2  3  1  0
  3  4  1  0
  4  5  1  0
  5  6  1  0
  6  7  2  0
  6  8  1  0
  8  3  1  0
  1  9  1  0
  1 10  1  0
  1 11  1  0
  3 12  1  0
  4 13  1  0
  4 14  1  0
M  END
