
     RDKit          3D

 23 24  0  0  0  0  0  0  0  0999 V2000
   -1.9152   -2.4619   -0.3273 C   0  0  0  0  0  0  0  0  0  0  0  0
   -1.5807   -1.3031   -1.0004 O   0  0  0  0  0  0  0  0  0  0  0  0
   -0.6716   -0.5155   -0.3246 C   0  0  0  0  0  0  0  0  0  0  0  0
   -1.0188    0.9745   -0.3325 C   0  0  0  0  0  0  0  0  0  0  0  0
   -1.0136    1.6414    1.0009 C   0  0  0  0  0  0  0  0  0  0  0  0
    0.1506    0.4857   -1.0516 C   0  0  0  0  0  0  0  0  0  0  0  0
    1.5752    0.6874   -0.7172 C   0  0  0  0  0  0  0  0  0  0  0  0
    2.1219    1.0499    0.5942 C   0  0  0  0  0  0  0  0  0  0  0  0
    2.2250   -0.3973    0.1428 C   0  0  0  0  0  0  0  0  0  0  0  0
   -2.3669   -2.3005    0.6533 H   0  0  0  0  0  0  0  0  0  0  0  0
   -2.6916   -2.9784   -0.9512 H   0  0  0  0  0  0  0  0  0  0  0  0
   -1.0634   -3.1982   -0.2861 H   0  0  0  0  0  0  0  0  0  0  0  0
   -0.3509   -0.9288    0.6467 H   0  0  0  0  0  0  0  0  0  0  0  0
   -1.9252    1.2750   -0.9558 H   0  0  0  0  0  0  0  0  0  0  0  0
   -0.4005    2.5385    1.0634 H   0  0  0  0  0  0  0  0  0  0  0  0
   -0.7372    0.9602    1.8342 H   0  0  0  0  0  0  0  0  0  0  0  0
   -2.0697    2.0002    1.2070 H   0  0  0  0  0  0  0  0  0  0  0  0
   -0.0067    0.4546   -2.1939 H   0  0  0  0  0  0  0  0  0  0  0  0
    2.2007    1.0156   -1.6199 H   0  0  0  0  0  0  0  0  0  0  0  0
    1.5684    1.2961    1.4921 H   0  0  0  0  0  0  0  0  0  0  0  0
    3.1314    1.5639    0.5819 H   0  0  0  0  0  0  0  0  0  0  0  0
    3.2121   -0.7834   -0.2007 H   0  0  0  0  0  0  0  0  0  0  0  0
    1.6266   -1.0760    0.7447 H   0  0  0  0  0  0  0  0  0  0  0  0
  1  2  1  0
  2  3  1  0
  3  4  1  0
  4  5  1  0
  4  6  1  0
  6  7  1  0
  7  8  1  0
  8  9  1  0
  6  3  1  0
  9  7  1  0
  1 10  1  0
  1 11  1  0
  1 12  1  0
  3 13  1  0
  4 14  1  0
  5 15  1  0
  5 16  1  0
  5 17  1  0
  6 18  1  0
  7 19  1  0
  8 20  1  0
  8 21  1  0
  9 22  1  0
  9 23  1  0
M  END
