
     RDKit          3D

 21 22  0  0  0  0  0  0  0  0999 V2000
    2.8313   -0.1454    0.7218 C   0  0  0  0  0  0  0  0  0  0  0  0
    1.5459   -0.6363    0.5215 O   0  0  0  0  0  0  0  0  0  0  0  0
    0.8398    0.2751   -0.2294 C   0  0  0  0  0  0  0  0  0  0  0  0
   -0.1268   -0.2868   -1.2421 C   0  0  0  0  0  0  0  0  0  0  0  0
   -0.4154   -1.6177   -1.1157 O   0  0  0  0  0  0  0  0  0  0  0  0
   -1.2195   -1.8240   -0.0356 C   0  0  0  0  0  0  0  0  0  0  0  0
   -1.4754   -0.5309    0.6578 C   0  0  0  0  0  0  0  0  0  0  0  0
   -0.6199    0.4554   -0.0824 C   0  0  0  0  0  0  0  0  0  0  0  0
   -1.2136    1.8374   -0.2536 C   0  0  0  0  0  0  0  0  0  0  0  0
    3.2736   -0.0210   -0.3057 H   0  0  0  0  0  0  0  0  0  0  0  0
    2.7634    0.8867    1.1690 H   0  0  0  0  0  0  0  0  0  0  0  0
    3.4615   -0.8127    1.3402 H   0  0  0  0  0  0  0  0  0  0  0  0
    1.3854    1.1956   -0.5307 H   0  0  0  0  0  0  0  0  0  0  0  0
   -0.2338    0.2246   -2.2305 H   0  0  0  0  0  0  0  0  0  0  0  0
   -0.7148   -2.5088    0.7040 H   0  0  0  0  0  0  0  0  0  0  0  0
   -2.1747   -2.3327   -0.3521 H   0  0  0  0  0  0  0  0  0  0  0  0
   -1.3407   -0.5367    1.7384 H   0  0  0  0  0  0  0  0  0  0  0  0
   -2.5486   -0.2457    0.4635 H   0  0  0  0  0  0  0  0  0  0  0  0
   -1.8971    2.0833    0.5747 H   0  0  0  0  0  0  0  0  0  0  0  0
   -0.4080    2.6096   -0.2514 H   0  0  0  0  0  0  0  0  0  0  0  0
   -1.7124    1.9308   -1.2617 H   0  0  0  0  0  0  0  0  0  0  0  0
  1  2  1  0
  2  3  1  0
  3  4  1  0
  4  5  1  0
  5  6  1  0
  6  7  1  0
  7  8  1  0
  8  9  1  0
  8  3  1  0
  8  4  1  0
  1 10  1  0
  1 11  1  0
  1 12  1  0
  3 13  1  0
  4 14  1  0
  6 15  1  0
  6 16  1  0
  7 17  1  0
  7 18  1  0
  9 19  1  0
  9 20  1  0
  9 21  1  0
M  END
