
     RDKit          3D

 19 20  0  0  0  0  0  0  0  0999 V2000
    2.5208   -0.4528    0.0480 C   0  0  0  0  0  0  0  0  0  0  0  0
    1.3379   -0.9056   -0.4868 O   0  0  0  0  0  0  0  0  0  0  0  0
    0.2825   -0.1469   -0.0432 C   0  0  0  0  0  0  0  0  0  0  0  0
    0.2085    1.3256   -0.3069 C   0  0  0  0  0  0  0  0  0  0  0  0
   -0.8633    1.5022   -1.2110 O   0  0  0  0  0  0  0  0  0  0  0  0
   -1.8647    0.6923   -0.7068 C   0  0  0  0  0  0  0  0  0  0  0  0
   -1.1218   -0.6021   -0.4310 C   0  0  0  0  0  0  0  0  0  0  0  0
   -1.2009   -1.6308   -1.3375 O   0  0  0  0  0  0  0  0  0  0  0  0
   -0.6211   -0.7813    0.9429 C   0  0  0  0  0  0  0  0  0  0  0  0
    2.6947    0.6013   -0.2499 H   0  0  0  0  0  0  0  0  0  0  0  0
    2.5017   -0.4504    1.1667 H   0  0  0  0  0  0  0  0  0  0  0  0
    3.3832   -1.0716   -0.3228 H   0  0  0  0  0  0  0  0  0  0  0  0
   -0.0182    1.9223    0.5915 H   0  0  0  0  0  0  0  0  0  0  0  0
    1.0902    1.7358   -0.7963 H   0  0  0  0  0  0  0  0  0  0  0  0
   -2.2612    1.0885    0.2607 H   0  0  0  0  0  0  0  0  0  0  0  0
   -2.6550    0.5178   -1.4495 H   0  0  0  0  0  0  0  0  0  0  0  0
   -1.8726   -1.3657   -2.0273 H   0  0  0  0  0  0  0  0  0  0  0  0
   -0.4003   -1.8006    1.2630 H   0  0  0  0  0  0  0  0  0  0  0  0
   -1.1403   -0.1779    1.7316 H   0  0  0  0  0  0  0  0  0  0  0  0
  1  2  1  0
  2  3  1  0
  3  4  1  0
  4  5  1  0
  5  6  1  0
  6  7  1  0
  7  8  1  0
  7  9  1  0
  7  3  1  0
  9  3  1  0
  1 10  1  0
  1 11  1  0
  1 12  1  0
  4 13  1  0
  4 14  1  0
  6 15  1  0
  6 16  1  0
  8 17  1  0
  9 18  1  0
  9 19  1  0
M  END
