
     RDKit          3D

 21 21  0  0  0  0  0  0  0  0999 V2000
    2.7116    0.7457   -0.0299 C   0  0  0  0  0  0  0  0  0  0  0  0
    1.3784    0.9727    0.3848 O   0  0  0  0  0  0  0  0  0  0  0  0
    0.6375   -0.0918   -0.0420 C   0  0  0  0  0  0  0  0  0  0  0  0
   -0.6381    0.1903   -0.7659 C   0  0  0  0  0  0  0  0  0  0  0  0
   -1.3535    1.4489   -0.4532 C   0  0  0  0  0  0  0  0  0  0  0  0
   -1.1991   -1.0725   -0.1009 C   0  0  0  0  0  0  0  0  0  0  0  0
   -0.7659   -2.2048   -0.7822 O   0  0  0  0  0  0  0  0  0  0  0  0
   -0.2018   -0.7821    1.0295 C   0  0  0  0  0  0  0  0  0  0  0  0
   -0.7382    0.0604    1.9745 O   0  0  0  0  0  0  0  0  0  0  0  0
    3.1127   -0.1946    0.4093 H   0  0  0  0  0  0  0  0  0  0  0  0
    2.7798    0.6412   -1.1307 H   0  0  0  0  0  0  0  0  0  0  0  0
    3.3802    1.5719    0.3110 H   0  0  0  0  0  0  0  0  0  0  0  0
    1.2076   -0.8876   -0.6050 H   0  0  0  0  0  0  0  0  0  0  0  0
   -0.5784    0.0135   -1.8733 H   0  0  0  0  0  0  0  0  0  0  0  0
   -2.1740    1.3370    0.2968 H   0  0  0  0  0  0  0  0  0  0  0  0
   -0.6214    2.2373   -0.1326 H   0  0  0  0  0  0  0  0  0  0  0  0
   -1.8653    1.8904   -1.3577 H   0  0  0  0  0  0  0  0  0  0  0  0
   -2.2449   -1.0272    0.1797 H   0  0  0  0  0  0  0  0  0  0  0  0
   -1.4840   -2.8203   -1.0289 H   0  0  0  0  0  0  0  0  0  0  0  0
    0.2512   -1.7138    1.4272 H   0  0  0  0  0  0  0  0  0  0  0  0
   -1.5945   -0.3148    2.2895 H   0  0  0  0  0  0  0  0  0  0  0  0
  1  2  1  0
  2  3  1  0
  3  4  1  0
  4  5  1  0
  4  6  1  0
  6  7  1  0
  6  8  1  0
  8  9  1  0
  8  3  1  0
  1 10  1  0
  1 11  1  0
  1 12  1  0
  3 13  1  0
  4 14  1  0
  5 15  1  0
  5 16  1  0
  5 17  1  0
  6 18  1  0
  7 19  1  0
  8 20  1  0
  9 21  1  0
M  END
