
     RDKit          3D

 21 22  0  0  0  0  0  0  0  0999 V2000
    2.7800   -0.1406   -0.7199 C   0  0  0  0  0  0  0  0  0  0  0  0
    1.4469    0.1103   -1.0400 O   0  0  0  0  0  0  0  0  0  0  0  0
    0.5899   -0.2501   -0.0099 C   0  0  0  0  0  0  0  0  0  0  0  0
   -0.3921    0.7960    0.4198 C   0  0  0  0  0  0  0  0  0  0  0  0
   -0.2961    2.1327   -0.2271 C   0  0  0  0  0  0  0  0  0  0  0  0
   -1.4896   -0.0658   -0.1584 C   0  0  0  0  0  0  0  0  0  0  0  0
   -1.6361   -1.4061    0.4345 C   0  0  0  0  0  0  0  0  0  0  0  0
   -2.7244   -2.1513    0.0388 O   0  0  0  0  0  0  0  0  0  0  0  0
   -0.5146   -1.1620   -0.4966 C   0  0  0  0  0  0  0  0  0  0  0  0
    3.0110    0.4593    0.1846 H   0  0  0  0  0  0  0  0  0  0  0  0
    3.4115    0.1188   -1.5908 H   0  0  0  0  0  0  0  0  0  0  0  0
    2.9209   -1.2114   -0.4220 H   0  0  0  0  0  0  0  0  0  0  0  0
    1.1817   -0.6570    0.8321 H   0  0  0  0  0  0  0  0  0  0  0  0
   -0.4900    0.8336    1.5277 H   0  0  0  0  0  0  0  0  0  0  0  0
    0.7221    2.5137   -0.3646 H   0  0  0  0  0  0  0  0  0  0  0  0
   -0.8773    2.1875   -1.1939 H   0  0  0  0  0  0  0  0  0  0  0  0
   -0.8281    2.8756    0.4364 H   0  0  0  0  0  0  0  0  0  0  0  0
   -2.1639    0.3326   -0.9289 H   0  0  0  0  0  0  0  0  0  0  0  0
   -1.4018   -1.5127    1.5264 H   0  0  0  0  0  0  0  0  0  0  0  0
   -2.7951   -2.2298   -0.9527 H   0  0  0  0  0  0  0  0  0  0  0  0
   -0.4549   -1.5732   -1.4997 H   0  0  0  0  0  0  0  0  0  0  0  0
  1  2  1  0
  2  3  1  0
  3  4  1  0
  4  5  1  0
  4  6  1  0
  6  7  1  0
  7  8  1  0
  7  9  1  0
  9  3  1  0
  9  6  1  0
  1 10  1  0
  1 11  1  0
  1 12  1  0
  3 13  1  0
  4 14  1  0
  5 15  1  0
  5 16  1  0
  5 17  1  0
  6 18  1  0
  7 19  1  0
  8 20  1  0
  9 21  1  0
M  END
