
     RDKit          3D

 17 18  0  0  0  0  0  0  0  0999 V2000
    2.6348   -0.4021    0.2717 C   0  0  0  0  0  0  0  0  0  0  0  0
    1.3521   -0.2314    0.7624 O   0  0  0  0  0  0  0  0  0  0  0  0
    0.4379    0.1825   -0.1739 C   0  0  0  0  0  0  0  0  0  0  0  0
   -0.1395    1.4054    0.2579 O   0  0  0  0  0  0  0  0  0  0  0  0
   -1.4820    1.0932    0.3036 C   0  0  0  0  0  0  0  0  0  0  0  0
   -1.4753   -0.2354    1.0711 C   0  0  0  0  0  0  0  0  0  0  0  0
   -0.7922   -0.6743   -0.2252 C   0  0  0  0  0  0  0  0  0  0  0  0
   -1.7451    0.2492   -0.8953 C   0  0  0  0  0  0  0  0  0  0  0  0
   -2.4365    0.3879   -1.8717 O   0  0  0  0  0  0  0  0  0  0  0  0
    3.0708    0.5216   -0.1563 H   0  0  0  0  0  0  0  0  0  0  0  0
    2.7160   -1.2197   -0.4667 H   0  0  0  0  0  0  0  0  0  0  0  0
    3.2790   -0.6517    1.1566 H   0  0  0  0  0  0  0  0  0  0  0  0
    0.8207    0.3271   -1.1812 H   0  0  0  0  0  0  0  0  0  0  0  0
   -2.1996    1.8192    0.5913 H   0  0  0  0  0  0  0  0  0  0  0  0
   -0.8269   -0.2065    1.9512 H   0  0  0  0  0  0  0  0  0  0  0  0
   -2.4560   -0.6737    1.2382 H   0  0  0  0  0  0  0  0  0  0  0  0
   -0.7583   -1.6912   -0.4711 H   0  0  0  0  0  0  0  0  0  0  0  0
  1  2  1  0
  2  3  1  0
  3  4  1  0
  4  5  1  0
  5  6  1  0
  6  7  1  0
  7  8  1  0
  8  9  2  0
  7  3  1  0
  8  5  1  0
  1 10  1  0
  1 11  1  0
  1 12  1  0
  3 13  1  0
  5 14  1  0
  6 15  1  0
  6 16  1  0
  7 17  1  0
M  END
