
     RDKit          3D

 21 22  0  0  0  0  0  0  0  0999 V2000
    2.5493    0.6832   -0.0270 C   0  0  0  0  0  0  0  0  0  0  0  0
    1.2415    0.7319    0.4516 O   0  0  0  0  0  0  0  0  0  0  0  0
    0.3396    0.1464   -0.4034 C   0  0  0  0  0  0  0  0  0  0  0  0
   -0.5487   -0.9263    0.2442 C   0  0  0  0  0  0  0  0  0  0  0  0
   -0.1595   -2.3338   -0.0847 C   0  0  0  0  0  0  0  0  0  0  0  0
   -1.6666   -0.3529   -0.6239 C   0  0  0  0  0  0  0  0  0  0  0  0
   -0.9291    0.9356   -0.5526 C   0  0  0  0  0  0  0  0  0  0  0  0
   -1.2348    2.1301    0.0197 C   0  0  0  0  0  0  0  0  0  0  0  0
   -1.0658    1.9403   -1.4469 O   0  0  0  0  0  0  0  0  0  0  0  0
    2.8035   -0.3983   -0.1497 H   0  0  0  0  0  0  0  0  0  0  0  0
    2.6879    1.2007   -0.9836 H   0  0  0  0  0  0  0  0  0  0  0  0
    3.1992    1.1849    0.7154 H   0  0  0  0  0  0  0  0  0  0  0  0
    0.7553   -0.2783   -1.3386 H   0  0  0  0  0  0  0  0  0  0  0  0
   -0.6696   -0.6725    1.3068 H   0  0  0  0  0  0  0  0  0  0  0  0
    0.4786   -2.7063    0.7436 H   0  0  0  0  0  0  0  0  0  0  0  0
   -1.0843   -2.9541   -0.0547 H   0  0  0  0  0  0  0  0  0  0  0  0
    0.3381   -2.3868   -1.0566 H   0  0  0  0  0  0  0  0  0  0  0  0
   -2.6697   -0.3890   -0.1671 H   0  0  0  0  0  0  0  0  0  0  0  0
   -1.5915   -0.8371   -1.6390 H   0  0  0  0  0  0  0  0  0  0  0  0
   -0.4890    2.8303    0.4444 H   0  0  0  0  0  0  0  0  0  0  0  0
   -2.2844    2.4521    0.2721 H   0  0  0  0  0  0  0  0  0  0  0  0
  1  2  1  0
  2  3  1  0
  3  4  1  0
  4  5  1  0
  4  6  1  0
  6  7  1  0
  7  8  1  0
  8  9  1  0
  7  3  1  0
  9  7  1  0
  1 10  1  0
  1 11  1  0
  1 12  1  0
  3 13  1  0
  4 14  1  0
  5 15  1  0
  5 16  1  0
  5 17  1  0
  6 18  1  0
  6 19  1  0
  8 20  1  0
  8 21  1  0
M  END
