
     RDKit          3D

 17 19  0  0  0  0  0  0  0  0999 V2000
    2.5262    0.6009    0.6675 C   0  0  0  0  0  0  0  0  0  0  0  0
    1.2170    0.9534    0.3004 O   0  0  0  0  0  0  0  0  0  0  0  0
    0.5161   -0.1925   -0.0419 C   0  0  0  0  0  0  0  0  0  0  0  0
    0.1111   -0.0072   -1.3884 O   0  0  0  0  0  0  0  0  0  0  0  0
   -1.2591   -0.0031   -1.3041 C   0  0  0  0  0  0  0  0  0  0  0  0
   -1.6530    0.6748   -0.0221 C   0  0  0  0  0  0  0  0  0  0  0  0
   -2.6878   -0.2380    0.0649 O   0  0  0  0  0  0  0  0  0  0  0  0
   -1.6426   -1.0592   -0.3274 C   0  0  0  0  0  0  0  0  0  0  0  0
   -0.7908   -0.3185    0.6481 C   0  0  0  0  0  0  0  0  0  0  0  0
    3.0601    0.0944   -0.1639 H   0  0  0  0  0  0  0  0  0  0  0  0
    2.4477   -0.1771    1.4766 H   0  0  0  0  0  0  0  0  0  0  0  0
    3.0918    1.4843    1.0175 H   0  0  0  0  0  0  0  0  0  0  0  0
    1.1601   -1.0712    0.0616 H   0  0  0  0  0  0  0  0  0  0  0  0
   -1.8508    0.1601   -2.1806 H   0  0  0  0  0  0  0  0  0  0  0  0
   -1.7091    1.6709    0.1288 H   0  0  0  0  0  0  0  0  0  0  0  0
   -1.6793   -2.0561   -0.4764 H   0  0  0  0  0  0  0  0  0  0  0  0
   -0.8576   -0.5159    1.6895 H   0  0  0  0  0  0  0  0  0  0  0  0
  1  2  1  0
  2  3  1  0
  3  4  1  0
  4  5  1  0
  5  6  1  0
  6  7  1  0
  7  8  1  0
  8  9  1  0
  9  3  1  0
  8  5  1  0
  9  6  1  0
  1 10  1  0
  1 11  1  0
  1 12  1  0
  3 13  1  0
  5 14  1  0
  6 15  1  0
  8 16  1  0
  9 17  1  0
M  END
