
     RDKit          3D

 21 22  0  0  0  0  0  0  0  0999 V2000
    2.7638   -0.9646   -0.7936 C   0  0  0  0  0  0  0  0  0  0  0  0
    1.6377   -0.9128    0.0304 O   0  0  0  0  0  0  0  0  0  0  0  0
    1.1636    0.3873    0.1398 C   0  0  0  0  0  0  0  0  0  0  0  0
    0.5480    0.7294    1.4439 C   0  0  0  0  0  0  0  0  0  0  0  0
    0.8778    2.0233    1.9088 O   0  0  0  0  0  0  0  0  0  0  0  0
   -0.3038    0.6366    0.2597 C   0  0  0  0  0  0  0  0  0  0  0  0
   -1.2572   -0.5172    0.0523 C   0  0  0  0  0  0  0  0  0  0  0  0
   -2.7075   -0.3469    0.1546 C   0  0  0  0  0  0  0  0  0  0  0  0
   -2.1499   -0.4651   -1.1936 C   0  0  0  0  0  0  0  0  0  0  0  0
    2.5315   -0.6024   -1.8114 H   0  0  0  0  0  0  0  0  0  0  0  0
    3.5892   -0.3154   -0.4195 H   0  0  0  0  0  0  0  0  0  0  0  0
    3.1737   -1.9854   -0.8692 H   0  0  0  0  0  0  0  0  0  0  0  0
    1.7519    1.1325   -0.4339 H   0  0  0  0  0  0  0  0  0  0  0  0
    0.5647   -0.0135    2.2483 H   0  0  0  0  0  0  0  0  0  0  0  0
    0.0609    2.5683    1.7250 H   0  0  0  0  0  0  0  0  0  0  0  0
   -0.6746    1.5897   -0.1646 H   0  0  0  0  0  0  0  0  0  0  0  0
   -0.7777   -1.5071    0.2651 H   0  0  0  0  0  0  0  0  0  0  0  0
   -3.0712    0.6654    0.4757 H   0  0  0  0  0  0  0  0  0  0  0  0
   -3.3555   -1.1502    0.5922 H   0  0  0  0  0  0  0  0  0  0  0  0
   -2.1042    0.4448   -1.8239 H   0  0  0  0  0  0  0  0  0  0  0  0
   -2.2612   -1.3966   -1.7861 H   0  0  0  0  0  0  0  0  0  0  0  0
  1  2  1  0
  2  3  1  0
  3  4  1  0
  4  5  1  0
  4  6  1  0
  6  7  1  0
  7  8  1  0
  8  9  1  0
  6  3  1  0
  9  7  1  0
  1 10  1  0
  1 11  1  0
  1 12  1  0
  3 13  1  0
  4 14  1  0
  5 15  1  0
  6 16  1  0
  7 17  1  0
  8 18  1  0
  8 19  1  0
  9 20  1  0
  9 21  1  0
M  END
