
     RDKit          3D

 23 24  0  0  0  0  0  0  0  0999 V2000
    2.7853    0.2058    1.0159 C   0  0  0  0  0  0  0  0  0  0  0  0
    1.6191    0.6120    0.3822 O   0  0  0  0  0  0  0  0  0  0  0  0
    0.5861   -0.2531    0.6277 C   0  0  0  0  0  0  0  0  0  0  0  0
    0.0259   -0.6761   -0.7394 C   0  0  0  0  0  0  0  0  0  0  0  0
   -1.1938   -1.4454   -0.2995 C   0  0  0  0  0  0  0  0  0  0  0  0
   -1.7162   -0.5764    0.8531 C   0  0  0  0  0  0  0  0  0  0  0  0
   -0.6824    0.4896    1.0786 C   0  0  0  0  0  0  0  0  0  0  0  0
   -0.8023    1.4958   -0.0307 C   0  0  0  0  0  0  0  0  0  0  0  0
   -0.4570    0.6496   -1.2601 C   0  0  0  0  0  0  0  0  0  0  0  0
    3.5726    0.9240    0.7901 H   0  0  0  0  0  0  0  0  0  0  0  0
    3.1324   -0.7974    0.6669 H   0  0  0  0  0  0  0  0  0  0  0  0
    2.6065    0.0908    2.1083 H   0  0  0  0  0  0  0  0  0  0  0  0
    0.8136   -1.1050    1.2602 H   0  0  0  0  0  0  0  0  0  0  0  0
    0.7250   -1.2051   -1.3512 H   0  0  0  0  0  0  0  0  0  0  0  0
   -1.9211   -1.4211   -1.1207 H   0  0  0  0  0  0  0  0  0  0  0  0
   -0.9150   -2.4487    0.0434 H   0  0  0  0  0  0  0  0  0  0  0  0
   -2.6497   -0.0413    0.5133 H   0  0  0  0  0  0  0  0  0  0  0  0
   -1.9391   -1.1705    1.7450 H   0  0  0  0  0  0  0  0  0  0  0  0
   -0.6166    0.8848    2.0725 H   0  0  0  0  0  0  0  0  0  0  0  0
   -0.0288    2.2739    0.1355 H   0  0  0  0  0  0  0  0  0  0  0  0
   -1.8067    1.8990   -0.1734 H   0  0  0  0  0  0  0  0  0  0  0  0
   -1.3880    0.4403   -1.8483 H   0  0  0  0  0  0  0  0  0  0  0  0
    0.2501    1.1746   -1.8928 H   0  0  0  0  0  0  0  0  0  0  0  0
  1  2  1  0
  2  3  1  0
  3  4  1  0
  4  5  1  0
  5  6  1  0
  6  7  1  0
  7  8  1  0
  8  9  1  0
  7  3  1  0
  9  4  1  0
  1 10  1  0
  1 11  1  0
  1 12  1  0
  3 13  1  0
  4 14  1  0
  5 15  1  0
  5 16  1  0
  6 17  1  0
  6 18  1  0
  7 19  1  0
  8 20  1  0
  8 21  1  0
  9 22  1  0
  9 23  1  0
M  END
