
     RDKit          3D

 20 20  0  0  0  0  0  0  0  0999 V2000
   -1.8113   -1.0357    0.6929 C   0  0  0  0  0  0  0  0  0  0  0  0
   -0.7012   -0.3137    1.1107 O   0  0  0  0  0  0  0  0  0  0  0  0
   -0.0975    0.3337    0.0665 C   0  0  0  0  0  0  0  0  0  0  0  0
   -1.0043    1.2954   -0.6471 C   0  0  0  0  0  0  0  0  0  0  0  0
    0.6422   -0.6173   -0.8143 C   0  0  0  0  0  0  0  0  0  0  0  0
    1.9351   -0.8323   -0.0158 C   0  0  0  0  0  0  0  0  0  0  0  0
    1.8498   -0.0355    1.0967 O   0  0  0  0  0  0  0  0  0  0  0  0
    1.1018    1.0778    0.6899 C   0  0  0  0  0  0  0  0  0  0  0  0
   -1.6197   -1.8118   -0.0407 H   0  0  0  0  0  0  0  0  0  0  0  0
   -2.1924   -1.5538    1.6232 H   0  0  0  0  0  0  0  0  0  0  0  0
   -2.6467   -0.3441    0.3906 H   0  0  0  0  0  0  0  0  0  0  0  0
   -1.4803    0.8437   -1.5557 H   0  0  0  0  0  0  0  0  0  0  0  0
   -1.7875    1.6066    0.0847 H   0  0  0  0  0  0  0  0  0  0  0  0
   -0.4757    2.2036   -1.0052 H   0  0  0  0  0  0  0  0  0  0  0  0
    0.1407   -1.5637   -0.9691 H   0  0  0  0  0  0  0  0  0  0  0  0
    0.8723   -0.1407   -1.7932 H   0  0  0  0  0  0  0  0  0  0  0  0
    2.0512   -1.8752    0.3036 H   0  0  0  0  0  0  0  0  0  0  0  0
    2.8252   -0.5397   -0.5985 H   0  0  0  0  0  0  0  0  0  0  0  0
    1.6071    1.5867   -0.1343 H   0  0  0  0  0  0  0  0  0  0  0  0
    0.7914    1.7162    1.5151 H   0  0  0  0  0  0  0  0  0  0  0  0
  1  2  1  0
  2  3  1  0
  3  4  1  0
  3  5  1  0
  5  6  1  0
  6  7  1  0
  7  8  1  0
  8  3  1  0
  1  9  1  0
  1 10  1  0
  1 11  1  0
  4 12  1  0
  4 13  1  0
  4 14  1  0
  5 15  1  0
  5 16  1  0
  6 17  1  0
  6 18  1  0
  8 19  1  0
  8 20  1  0
M  END
