
     RDKit          3D

 21 23  0  0  0  0  0  0  0  0999 V2000
    2.4640    0.7232   -0.3539 C   0  0  0  0  0  0  0  0  0  0  0  0
    1.7428   -0.1738    0.3349 O   0  0  0  0  0  0  0  0  0  0  0  0
    0.4987   -0.4168    0.1469 C   0  0  0  0  0  0  0  0  0  0  0  0
   -0.1418   -1.4962    1.0569 C   0  0  0  0  0  0  0  0  0  0  0  0
   -1.1538   -0.3903    1.4061 C   0  0  0  0  0  0  0  0  0  0  0  0
   -0.7700    0.2075    0.0431 C   0  0  0  0  0  0  0  0  0  0  0  0
   -1.0798    1.5854   -0.2167 C   0  0  0  0  0  0  0  0  0  0  0  0
   -1.1188   -0.7910   -1.0780 C   0  0  0  0  0  0  0  0  0  0  0  0
   -0.0586   -1.6740   -0.3995 C   0  0  0  0  0  0  0  0  0  0  0  0
    3.5214    0.7033    0.0448 H   0  0  0  0  0  0  0  0  0  0  0  0
    2.5693    0.5545   -1.4362 H   0  0  0  0  0  0  0  0  0  0  0  0
    2.1359    1.7905   -0.1779 H   0  0  0  0  0  0  0  0  0  0  0  0
    0.4801   -1.9379    1.8087 H   0  0  0  0  0  0  0  0  0  0  0  0
   -2.1522   -0.8296    1.4249 H   0  0  0  0  0  0  0  0  0  0  0  0
   -0.8267    0.2081    2.2539 H   0  0  0  0  0  0  0  0  0  0  0  0
   -1.7236    2.0163    0.6063 H   0  0  0  0  0  0  0  0  0  0  0  0
   -1.7372    1.6697   -1.1314 H   0  0  0  0  0  0  0  0  0  0  0  0
   -0.2694    2.3031   -0.3662 H   0  0  0  0  0  0  0  0  0  0  0  0
   -2.1016   -1.2651   -0.9420 H   0  0  0  0  0  0  0  0  0  0  0  0
   -0.8472   -0.4569   -2.0723 H   0  0  0  0  0  0  0  0  0  0  0  0
    0.5685   -2.3300   -0.9523 H   0  0  0  0  0  0  0  0  0  0  0  0
  1  2  1  0
  2  3  1  0
  3  4  1  0
  4  5  1  0
  5  6  1  0
  6  7  1  0
  6  8  1  0
  8  9  1  0
  6  3  1  0
  9  3  1  0
  9  4  1  0
  1 10  1  0
  1 11  1  0
  1 12  1  0
  4 13  1  0
  5 14  1  0
  5 15  1  0
  7 16  1  0
  7 17  1  0
  7 18  1  0
  8 19  1  0
  8 20  1  0
  9 21  1  0
M  END
