
     RDKit          3D

 21 23  0  0  0  0  0  0  0  0999 V2000
    3.3371    0.5541   -0.1721 C   0  0  0  0  0  0  0  0  0  0  0  0
    2.3496   -0.3446   -0.6107 O   0  0  0  0  0  0  0  0  0  0  0  0
    1.0990   -0.0283   -0.0927 C   0  0  0  0  0  0  0  0  0  0  0  0
    0.2117   -1.2089    0.1333 C   0  0  0  0  0  0  0  0  0  0  0  0
   -1.1393   -1.0058    0.7319 C   0  0  0  0  0  0  0  0  0  0  0  0
   -2.3718   -1.1553   -0.0970 C   0  0  0  0  0  0  0  0  0  0  0  0
   -1.4523   -0.0458   -0.4280 C   0  0  0  0  0  0  0  0  0  0  0  0
   -1.8281    1.3795   -0.0445 C   0  0  0  0  0  0  0  0  0  0  0  0
   -0.0833   -0.2790   -0.9708 C   0  0  0  0  0  0  0  0  0  0  0  0
    3.4502    0.5721    0.9126 H   0  0  0  0  0  0  0  0  0  0  0  0
    4.2891    0.1951   -0.6482 H   0  0  0  0  0  0  0  0  0  0  0  0
    3.1501    1.5743   -0.6144 H   0  0  0  0  0  0  0  0  0  0  0  0
    1.0021    0.8430    0.5724 H   0  0  0  0  0  0  0  0  0  0  0  0
    0.5770   -2.2272   -0.1041 H   0  0  0  0  0  0  0  0  0  0  0  0
   -1.1878   -0.5494    1.7332 H   0  0  0  0  0  0  0  0  0  0  0  0
   -2.5044   -2.0266   -0.7631 H   0  0  0  0  0  0  0  0  0  0  0  0
   -3.3144   -0.8549    0.4049 H   0  0  0  0  0  0  0  0  0  0  0  0
   -1.1836    1.6385    0.8298 H   0  0  0  0  0  0  0  0  0  0  0  0
   -2.9017    1.4559    0.1821 H   0  0  0  0  0  0  0  0  0  0  0  0
   -1.5212    2.0466   -0.8807 H   0  0  0  0  0  0  0  0  0  0  0  0
    0.0220   -0.5333   -2.0268 H   0  0  0  0  0  0  0  0  0  0  0  0
  1  2  1  0
  2  3  1  0
  3  4  1  0
  4  5  1  0
  5  6  1  0
  6  7  1  0
  7  8  1  0
  7  9  1  0
  9  3  1  0
  9  4  1  0
  7  5  1  0
  1 10  1  0
  1 11  1  0
  1 12  1  0
  3 13  1  0
  4 14  1  0
  5 15  1  0
  6 16  1  0
  6 17  1  0
  8 18  1  0
  8 19  1  0
  8 20  1  0
  9 21  1  0
M  END
