
     RDKit          3D

 19 20  0  0  0  0  0  0  0  0999 V2000
    2.9423    0.3259    0.2152 C   0  0  0  0  0  0  0  0  0  0  0  0
    1.7837   -0.2404    0.6914 O   0  0  0  0  0  0  0  0  0  0  0  0
    0.6870   -0.0632   -0.1782 C   0  0  0  0  0  0  0  0  0  0  0  0
   -0.2752   -1.0771   -0.4733 C   0  0  0  0  0  0  0  0  0  0  0  0
   -1.7790   -1.0590   -0.4572 C   0  0  0  0  0  0  0  0  0  0  0  0
   -1.5299   -0.8240    0.9937 C   0  0  0  0  0  0  0  0  0  0  0  0
   -1.9439   -1.2535    2.0281 O   0  0  0  0  0  0  0  0  0  0  0  0
   -0.5724    0.1480    0.4893 C   0  0  0  0  0  0  0  0  0  0  0  0
   -1.3181    1.3263   -0.1442 C   0  0  0  0  0  0  0  0  0  0  0  0
    2.7610    1.4121    0.0905 H   0  0  0  0  0  0  0  0  0  0  0  0
    3.7261    0.1655    0.9699 H   0  0  0  0  0  0  0  0  0  0  0  0
    3.2777   -0.1641   -0.7325 H   0  0  0  0  0  0  0  0  0  0  0  0
    1.0237    0.5206   -1.0875 H   0  0  0  0  0  0  0  0  0  0  0  0
    0.0158   -2.0329    0.0780 H   0  0  0  0  0  0  0  0  0  0  0  0
   -2.2768   -0.2459   -1.0002 H   0  0  0  0  0  0  0  0  0  0  0  0
   -2.2405   -2.0057   -0.7138 H   0  0  0  0  0  0  0  0  0  0  0  0
   -1.1277    1.4124   -1.2287 H   0  0  0  0  0  0  0  0  0  0  0  0
   -0.7979    2.2335    0.2951 H   0  0  0  0  0  0  0  0  0  0  0  0
   -2.3559    1.4216    0.1644 H   0  0  0  0  0  0  0  0  0  0  0  0
  1  2  1  0
  2  3  1  0
  3  4  1  0
  4  5  1  0
  5  6  1  0
  6  7  2  0
  6  8  1  0
  8  9  1  0
  8  3  1  0
  8  4  1  0
  1 10  1  0
  1 11  1  0
  1 12  1  0
  3 13  1  0
  4 14  1  0
  5 15  1  0
  5 16  1  0
  9 17  1  0
  9 18  1  0
  9 19  1  0
M  END
