
     RDKit          3D

 21 22  0  0  0  0  0  0  0  0999 V2000
   -2.7233    0.2582    1.1454 C   0  0  0  0  0  0  0  0  0  0  0  0
   -1.4646    0.3371    0.5922 O   0  0  0  0  0  0  0  0  0  0  0  0
   -1.3594   -0.5183   -0.4712 C   0  0  0  0  0  0  0  0  0  0  0  0
   -0.7134    0.0985   -1.7330 C   0  0  0  0  0  0  0  0  0  0  0  0
   -0.0925   -1.0564   -0.9630 C   0  0  0  0  0  0  0  0  0  0  0  0
    1.2389   -0.7244   -0.3535 C   0  0  0  0  0  0  0  0  0  0  0  0
    1.3770   -1.0760    0.9874 O   0  0  0  0  0  0  0  0  0  0  0  0
    1.4742    0.3155    0.6098 C   0  0  0  0  0  0  0  0  0  0  0  0
    2.8930    0.8641    0.7328 C   0  0  0  0  0  0  0  0  0  0  0  0
   -2.8861    0.9170    2.0062 H   0  0  0  0  0  0  0  0  0  0  0  0
   -3.4841    0.5539    0.3643 H   0  0  0  0  0  0  0  0  0  0  0  0
   -3.0041   -0.7865    1.4448 H   0  0  0  0  0  0  0  0  0  0  0  0
   -2.2775   -1.1269   -0.7180 H   0  0  0  0  0  0  0  0  0  0  0  0
   -0.2709    1.1099   -1.6121 H   0  0  0  0  0  0  0  0  0  0  0  0
   -1.1904   -0.0951   -2.7012 H   0  0  0  0  0  0  0  0  0  0  0  0
   -0.1081   -2.0204   -1.5262 H   0  0  0  0  0  0  0  0  0  0  0  0
    2.0894   -0.9695   -1.0570 H   0  0  0  0  0  0  0  0  0  0  0  0
    0.7336    0.9074    1.1373 H   0  0  0  0  0  0  0  0  0  0  0  0
    2.9063    1.8867    1.1506 H   0  0  0  0  0  0  0  0  0  0  0  0
    3.5350    0.1617    1.2667 H   0  0  0  0  0  0  0  0  0  0  0  0
    3.3270    0.9638   -0.3023 H   0  0  0  0  0  0  0  0  0  0  0  0
  1  2  1  0
  2  3  1  0
  3  4  1  0
  4  5  1  0
  5  6  1  0
  6  7  1  0
  7  8  1  0
  8  9  1  0
  5  3  1  0
  8  6  1  0
  1 10  1  0
  1 11  1  0
  1 12  1  0
  3 13  1  0
  4 14  1  0
  4 15  1  0
  5 16  1  0
  6 17  1  0
  8 18  1  0
  9 19  1  0
  9 20  1  0
  9 21  1  0
M  END
