
     RDKit          3D

 17 19  0  0  0  0  0  0  0  0999 V2000
    2.3631   -0.2435    0.2601 C   0  0  0  0  0  0  0  0  0  0  0  0
    1.3717   -0.3302   -0.6765 O   0  0  0  0  0  0  0  0  0  0  0  0
    0.1413    0.0280   -0.2950 C   0  0  0  0  0  0  0  0  0  0  0  0
   -1.0751    0.0166   -1.1296 C   0  0  0  0  0  0  0  0  0  0  0  0
   -2.0165   -0.7688   -0.2048 C   0  0  0  0  0  0  0  0  0  0  0  0
   -1.6786   -0.3925    1.0686 O   0  0  0  0  0  0  0  0  0  0  0  0
   -0.3857    0.1328    1.0643 C   0  0  0  0  0  0  0  0  0  0  0  0
   -0.2922    1.3560    0.1511 C   0  0  0  0  0  0  0  0  0  0  0  0
   -1.1799    1.4092   -0.9015 O   0  0  0  0  0  0  0  0  0  0  0  0
    2.1022   -0.9128    1.1317 H   0  0  0  0  0  0  0  0  0  0  0  0
    3.3256   -0.5699   -0.2017 H   0  0  0  0  0  0  0  0  0  0  0  0
    2.4984    0.7868    0.6773 H   0  0  0  0  0  0  0  0  0  0  0  0
   -1.0426   -0.3011   -2.1566 H   0  0  0  0  0  0  0  0  0  0  0  0
   -3.0748   -0.5743   -0.4636 H   0  0  0  0  0  0  0  0  0  0  0  0
   -1.7361   -1.8431   -0.3226 H   0  0  0  0  0  0  0  0  0  0  0  0
    0.1995    0.1074    1.9776 H   0  0  0  0  0  0  0  0  0  0  0  0
    0.4797    2.0994    0.3134 H   0  0  0  0  0  0  0  0  0  0  0  0
  1  2  1  0
  2  3  1  0
  3  4  1  0
  4  5  1  0
  5  6  1  0
  6  7  1  0
  7  8  1  0
  8  9  1  0
  7  3  1  0
  8  3  1  0
  9  4  1  0
  1 10  1  0
  1 11  1  0
  1 12  1  0
  4 13  1  0
  5 14  1  0
  5 15  1  0
  7 16  1  0
  8 17  1  0
M  END
