
     RDKit          3D

 21 21  0  0  0  0  0  0  0  0999 V2000
    3.1528    0.2621    0.0145 C   0  0  0  0  0  0  0  0  0  0  0  0
    2.0127    0.0254   -0.7470 O   0  0  0  0  0  0  0  0  0  0  0  0
    0.9597   -0.1871    0.1227 C   0  0  0  0  0  0  0  0  0  0  0  0
   -0.1372    0.7741   -0.0879 C   0  0  0  0  0  0  0  0  0  0  0  0
   -1.3098    0.2070    0.0858 C   0  0  0  0  0  0  0  0  0  0  0  0
   -2.6705    0.8122   -0.0280 C   0  0  0  0  0  0  0  0  0  0  0  0
   -2.6147    2.1552   -0.3647 O   0  0  0  0  0  0  0  0  0  0  0  0
   -1.0959   -1.2338    0.4319 C   0  0  0  0  0  0  0  0  0  0  0  0
    0.3113   -1.5351   -0.0668 C   0  0  0  0  0  0  0  0  0  0  0  0
    3.3501   -0.6126    0.6495 H   0  0  0  0  0  0  0  0  0  0  0  0
    4.0273    0.5521   -0.6068 H   0  0  0  0  0  0  0  0  0  0  0  0
    2.9843    1.1325    0.7039 H   0  0  0  0  0  0  0  0  0  0  0  0
    1.3153   -0.1101    1.1876 H   0  0  0  0  0  0  0  0  0  0  0  0
    0.0232    1.8136   -0.3522 H   0  0  0  0  0  0  0  0  0  0  0  0
   -3.2526    0.6484    0.9023 H   0  0  0  0  0  0  0  0  0  0  0  0
   -3.1988    0.2949   -0.8555 H   0  0  0  0  0  0  0  0  0  0  0  0
   -1.8480    2.3887   -0.9227 H   0  0  0  0  0  0  0  0  0  0  0  0
   -1.8584   -1.8086   -0.1392 H   0  0  0  0  0  0  0  0  0  0  0  0
   -1.2069   -1.4024    1.5117 H   0  0  0  0  0  0  0  0  0  0  0  0
    0.3219   -1.8856   -1.1121 H   0  0  0  0  0  0  0  0  0  0  0  0
    0.7342   -2.2909    0.6345 H   0  0  0  0  0  0  0  0  0  0  0  0
  1  2  1  0
  2  3  1  0
  3  4  1  0
  4  5  2  0
  5  6  1  0
  6  7  1  0
  5  8  1  0
  8  9  1  0
  9  3  1  0
  1 10  1  0
  1 11  1  0
  1 12  1  0
  3 13  1  0
  4 14  1  0
  6 15  1  0
  6 16  1  0
  7 17  1  0
  8 18  1  0
  8 19  1  0
  9 20  1  0
  9 21  1  0
M  END
