
     RDKit          3D

 21 23  0  0  0  0  0  0  0  0999 V2000
    2.5524   -0.6970    0.0181 C   0  0  0  0  0  0  0  0  0  0  0  0
    2.1740    0.5754    0.3543 O   0  0  0  0  0  0  0  0  0  0  0  0
    0.8049    0.7416    0.4619 C   0  0  0  0  0  0  0  0  0  0  0  0
    0.2383    2.0810    0.8241 C   0  0  0  0  0  0  0  0  0  0  0  0
    0.0665    1.5735   -0.5427 C   0  0  0  0  0  0  0  0  0  0  0  0
   -0.8082    0.4027   -0.8409 C   0  0  0  0  0  0  0  0  0  0  0  0
   -1.5604   -0.2457    0.2374 C   0  0  0  0  0  0  0  0  0  0  0  0
   -2.3688   -1.4716   -0.1677 C   0  0  0  0  0  0  0  0  0  0  0  0
   -0.1164   -0.4163    0.2839 C   0  0  0  0  0  0  0  0  0  0  0  0
    2.2199   -1.4726    0.7669 H   0  0  0  0  0  0  0  0  0  0  0  0
    3.6682   -0.7364    0.0599 H   0  0  0  0  0  0  0  0  0  0  0  0
    2.2858   -0.9949   -1.0217 H   0  0  0  0  0  0  0  0  0  0  0  0
   -0.6131    2.1290    1.5492 H   0  0  0  0  0  0  0  0  0  0  0  0
    0.9880    2.8624    0.9990 H   0  0  0  0  0  0  0  0  0  0  0  0
    0.6213    2.0514   -1.3776 H   0  0  0  0  0  0  0  0  0  0  0  0
   -0.7189   -0.0538   -1.8417 H   0  0  0  0  0  0  0  0  0  0  0  0
   -2.1212    0.3869    0.9764 H   0  0  0  0  0  0  0  0  0  0  0  0
   -3.3718   -1.1809   -0.5061 H   0  0  0  0  0  0  0  0  0  0  0  0
   -2.4103   -2.1174    0.7563 H   0  0  0  0  0  0  0  0  0  0  0  0
   -1.8711   -2.0447   -0.9691 H   0  0  0  0  0  0  0  0  0  0  0  0
    0.3410   -1.3727   -0.0199 H   0  0  0  0  0  0  0  0  0  0  0  0
  1  2  1  0
  2  3  1  0
  3  4  1  0
  4  5  1  0
  5  6  1  0
  6  7  1  0
  7  8  1  0
  7  9  1  0
  5  3  1  0
  9  6  1  0
  9  3  1  0
  1 10  1  0
  1 11  1  0
  1 12  1  0
  4 13  1  0
  4 14  1  0
  5 15  1  0
  6 16  1  0
  7 17  1  0
  8 18  1  0
  8 19  1  0
  8 20  1  0
  9 21  1  0
M  END
