
     RDKit          3D

 23 24  0  0  0  0  0  0  0  0999 V2000
   -2.4472   -0.2395    0.4739 C   0  0  0  0  0  0  0  0  0  0  0  0
   -1.6442    0.3612   -0.4060 O   0  0  0  0  0  0  0  0  0  0  0  0
   -0.5186   -0.1068   -0.9028 C   0  0  0  0  0  0  0  0  0  0  0  0
   -0.5851   -1.4072   -1.5034 C   0  0  0  0  0  0  0  0  0  0  0  0
    0.3814   -1.2582   -0.4412 C   0  0  0  0  0  0  0  0  0  0  0  0
    0.6845   -0.2896    0.6236 C   0  0  0  0  0  0  0  0  0  0  0  0
    2.0729   -0.4393    1.2379 C   0  0  0  0  0  0  0  0  0  0  0  0
    0.6950    0.6954   -0.5666 C   0  0  0  0  0  0  0  0  0  0  0  0
    0.4248    2.1071   -0.1567 C   0  0  0  0  0  0  0  0  0  0  0  0
   -2.1309   -0.5256    1.4648 H   0  0  0  0  0  0  0  0  0  0  0  0
   -3.2891    0.5131    0.6752 H   0  0  0  0  0  0  0  0  0  0  0  0
   -3.0650   -1.0842   -0.0043 H   0  0  0  0  0  0  0  0  0  0  0  0
   -1.4499   -2.0942   -1.2600 H   0  0  0  0  0  0  0  0  0  0  0  0
   -0.3720   -1.4577   -2.5907 H   0  0  0  0  0  0  0  0  0  0  0  0
    1.4109   -1.3759   -0.9735 H   0  0  0  0  0  0  0  0  0  0  0  0
    0.0127   -0.0221    1.4129 H   0  0  0  0  0  0  0  0  0  0  0  0
    2.2112    0.4331    1.9071 H   0  0  0  0  0  0  0  0  0  0  0  0
    2.8527   -0.3781    0.4659 H   0  0  0  0  0  0  0  0  0  0  0  0
    2.1270   -1.3441    1.8442 H   0  0  0  0  0  0  0  0  0  0  0  0
    1.6038    0.5107   -1.1545 H   0  0  0  0  0  0  0  0  0  0  0  0
    0.3963    2.7320   -1.0501 H   0  0  0  0  0  0  0  0  0  0  0  0
   -0.5485    2.1566    0.3458 H   0  0  0  0  0  0  0  0  0  0  0  0
    1.1772    2.5132    0.5584 H   0  0  0  0  0  0  0  0  0  0  0  0
  1  2  1  0
  2  3  1  0
  3  4  1  0
  4  5  1  0
  5  6  1  0
  6  7  1  0
  6  8  1  0
  8  9  1  0
  5  3  1  0
  8  3  1  0
  1 10  1  0
  1 11  1  0
  1 12  1  0
  4 13  1  0
  4 14  1  0
  5 15  1  0
  6 16  1  0
  7 17  1  0
  7 18  1  0
  7 19  1  0
  8 20  1  0
  9 21  1  0
  9 22  1  0
  9 23  1  0
M  END
