
     RDKit          3D

 21 21  0  0  0  0  0  0  0  0999 V2000
    3.1249    0.2914   -0.1188 C   0  0  0  0  0  0  0  0  0  0  0  0
    1.9342    0.0288   -0.7702 O   0  0  0  0  0  0  0  0  0  0  0  0
    0.9139    0.0130    0.1492 C   0  0  0  0  0  0  0  0  0  0  0  0
   -0.2084    0.9687   -0.2041 C   0  0  0  0  0  0  0  0  0  0  0  0
   -1.4580    0.3502    0.3387 C   0  0  0  0  0  0  0  0  0  0  0  0
   -2.4948    0.0950   -0.7347 C   0  0  0  0  0  0  0  0  0  0  0  0
   -1.0585   -0.9868    0.9428 C   0  0  0  0  0  0  0  0  0  0  0  0
    0.1934   -1.2828    0.2046 C   0  0  0  0  0  0  0  0  0  0  0  0
    0.4934   -2.3577   -0.2254 O   0  0  0  0  0  0  0  0  0  0  0  0
    3.3264   -0.4919    0.6398 H   0  0  0  0  0  0  0  0  0  0  0  0
    3.1552    1.2872    0.3693 H   0  0  0  0  0  0  0  0  0  0  0  0
    3.9722    0.2141   -0.8589 H   0  0  0  0  0  0  0  0  0  0  0  0
    1.2911    0.2122    1.1745 H   0  0  0  0  0  0  0  0  0  0  0  0
   -0.0085    1.9341    0.3205 H   0  0  0  0  0  0  0  0  0  0  0  0
   -0.2298    1.1685   -1.2758 H   0  0  0  0  0  0  0  0  0  0  0  0
   -1.9170    0.9878    1.1060 H   0  0  0  0  0  0  0  0  0  0  0  0
   -2.9634   -0.8941   -0.5473 H   0  0  0  0  0  0  0  0  0  0  0  0
   -2.0638    0.1353   -1.7517 H   0  0  0  0  0  0  0  0  0  0  0  0
   -3.3217    0.8405   -0.6700 H   0  0  0  0  0  0  0  0  0  0  0  0
   -1.8369   -1.7437    0.8261 H   0  0  0  0  0  0  0  0  0  0  0  0
   -0.8439   -0.7699    2.0255 H   0  0  0  0  0  0  0  0  0  0  0  0
  1  2  1  0
  2  3  1  0
  3  4  1  0
  4  5  1  0
  5  6  1  0
  5  7  1  0
  7  8  1  0
  8  9  2  0
  8  3  1  0
  1 10  1  0
  1 11  1  0
  1 12  1  0
  3 13  1  0
  4 14  1  0
  4 15  1  0
  5 16  1  0
  6 17  1  0
  6 18  1  0
  6 19  1  0
  7 20  1  0
  7 21  1  0
M  END
