
     RDKit          3D

 16 16  0  0  0  0  0  0  0  0999 V2000
    2.3573    0.5896    0.5390 C   0  0  0  0  0  0  0  0  0  0  0  0
    1.2639    0.4886   -0.3128 O   0  0  0  0  0  0  0  0  0  0  0  0
    0.2133   -0.2251    0.2321 C   0  0  0  0  0  0  0  0  0  0  0  0
   -0.4476   -1.1853   -0.7384 C   0  0  0  0  0  0  0  0  0  0  0  0
   -1.1835   -0.0045   -0.1805 C   0  0  0  0  0  0  0  0  0  0  0  0
   -2.1596   -0.3328    0.7553 O   0  0  0  0  0  0  0  0  0  0  0  0
   -1.5590    1.0355   -1.1572 C   0  0  0  0  0  0  0  0  0  0  0  0
   -0.8063    1.4168   -2.0256 O   0  0  0  0  0  0  0  0  0  0  0  0
    2.1350    1.0894    1.4904 H   0  0  0  0  0  0  0  0  0  0  0  0
    2.7317   -0.4318    0.7704 H   0  0  0  0  0  0  0  0  0  0  0  0
    3.1390    1.1574   -0.0323 H   0  0  0  0  0  0  0  0  0  0  0  0
    0.3964   -0.6068    1.2560 H   0  0  0  0  0  0  0  0  0  0  0  0
   -0.7141   -2.1957   -0.3797 H   0  0  0  0  0  0  0  0  0  0  0  0
   -0.1095   -1.1839   -1.7976 H   0  0  0  0  0  0  0  0  0  0  0  0
   -2.7218   -1.0856    0.4508 H   0  0  0  0  0  0  0  0  0  0  0  0
   -2.5353    1.4742   -1.1003 H   0  0  0  0  0  0  0  0  0  0  0  0
  1  2  1  0
  2  3  1  0
  3  4  1  0
  4  5  1  0
  5  6  1  0
  5  7  1  0
  7  8  2  0
  5  3  1  0
  1  9  1  0
  1 10  1  0
  1 11  1  0
  3 12  1  0
  4 13  1  0
  4 14  1  0
  6 15  1  0
  7 16  1  0
M  END
