
     RDKit          3D

 23 24  0  0  0  0  0  0  0  0999 V2000
    2.5179   -0.2997   -0.6236 C   0  0  0  0  0  0  0  0  0  0  0  0
    1.9402    0.1714    0.5136 O   0  0  0  0  0  0  0  0  0  0  0  0
    0.5665    0.2664    0.4842 C   0  0  0  0  0  0  0  0  0  0  0  0
   -0.1834    0.7747    1.6826 C   0  0  0  0  0  0  0  0  0  0  0  0
   -0.1053   -0.6730    1.4843 C   0  0  0  0  0  0  0  0  0  0  0  0
   -1.1415   -1.4431    0.7170 C   0  0  0  0  0  0  0  0  0  0  0  0
   -1.4317   -0.6576   -0.5377 C   0  0  0  0  0  0  0  0  0  0  0  0
   -0.2110    0.2045   -0.7769 C   0  0  0  0  0  0  0  0  0  0  0  0
   -0.7447    1.6041   -1.1056 C   0  0  0  0  0  0  0  0  0  0  0  0
    2.3341    0.2978   -1.5368 H   0  0  0  0  0  0  0  0  0  0  0  0
    2.1790   -1.3644   -0.7618 H   0  0  0  0  0  0  0  0  0  0  0  0
    3.6130   -0.3706   -0.4545 H   0  0  0  0  0  0  0  0  0  0  0  0
   -1.1316    1.3455    1.5021 H   0  0  0  0  0  0  0  0  0  0  0  0
    0.4281    1.2158    2.4760 H   0  0  0  0  0  0  0  0  0  0  0  0
    0.4997   -1.2530    2.1791 H   0  0  0  0  0  0  0  0  0  0  0  0
   -2.0447   -1.6845    1.3004 H   0  0  0  0  0  0  0  0  0  0  0  0
   -0.6860   -2.4065    0.4024 H   0  0  0  0  0  0  0  0  0  0  0  0
   -1.6250   -1.3172   -1.4206 H   0  0  0  0  0  0  0  0  0  0  0  0
   -2.3489   -0.0767   -0.3659 H   0  0  0  0  0  0  0  0  0  0  0  0
    0.3457   -0.1290   -1.6644 H   0  0  0  0  0  0  0  0  0  0  0  0
   -0.0158    2.3786   -0.8389 H   0  0  0  0  0  0  0  0  0  0  0  0
   -1.0741    1.6557   -2.1599 H   0  0  0  0  0  0  0  0  0  0  0  0
   -1.6806    1.7609   -0.4953 H   0  0  0  0  0  0  0  0  0  0  0  0
  1  2  1  0
  2  3  1  0
  3  4  1  0
  4  5  1  0
  5  6  1  0
  6  7  1  0
  7  8  1  0
  8  9  1  0
  5  3  1  0
  8  3  1  0
  1 10  1  0
  1 11  1  0
  1 12  1  0
  4 13  1  0
  4 14  1  0
  5 15  1  0
  6 16  1  0
  6 17  1  0
  7 18  1  0
  7 19  1  0
  8 20  1  0
  9 21  1  0
  9 22  1  0
  9 23  1  0
M  END
