
     RDKit          3D

 23 24  0  0  0  0  0  0  0  0999 V2000
    3.0258   -0.4819    0.2794 C   0  0  0  0  0  0  0  0  0  0  0  0
    1.8615    0.0405    0.8609 O   0  0  0  0  0  0  0  0  0  0  0  0
    0.8382    0.1514   -0.0469 C   0  0  0  0  0  0  0  0  0  0  0  0
    0.2465    1.5606   -0.1847 C   0  0  0  0  0  0  0  0  0  0  0  0
   -1.1411    0.9707   -0.0188 C   0  0  0  0  0  0  0  0  0  0  0  0
   -2.0105    1.0083   -1.2357 C   0  0  0  0  0  0  0  0  0  0  0  0
   -0.5028   -0.3171    0.3189 C   0  0  0  0  0  0  0  0  0  0  0  0
   -0.9600   -1.6447    0.0173 C   0  0  0  0  0  0  0  0  0  0  0  0
   -0.8915   -1.1304    1.4426 C   0  0  0  0  0  0  0  0  0  0  0  0
    3.7986   -0.5398    1.0701 H   0  0  0  0  0  0  0  0  0  0  0  0
    2.8125   -1.4677   -0.1886 H   0  0  0  0  0  0  0  0  0  0  0  0
    3.4133    0.1920   -0.5181 H   0  0  0  0  0  0  0  0  0  0  0  0
    1.1422   -0.1990   -1.0708 H   0  0  0  0  0  0  0  0  0  0  0  0
    0.4378    2.0364   -1.1621 H   0  0  0  0  0  0  0  0  0  0  0  0
    0.6029    2.1562    0.6840 H   0  0  0  0  0  0  0  0  0  0  0  0
   -1.6185    1.4271    0.8862 H   0  0  0  0  0  0  0  0  0  0  0  0
   -1.4471    1.2536   -2.1558 H   0  0  0  0  0  0  0  0  0  0  0  0
   -2.8309    1.7541   -1.0820 H   0  0  0  0  0  0  0  0  0  0  0  0
   -2.5214    0.0238   -1.3056 H   0  0  0  0  0  0  0  0  0  0  0  0
   -1.9448   -1.8425   -0.4434 H   0  0  0  0  0  0  0  0  0  0  0  0
   -0.1778   -2.4214   -0.1839 H   0  0  0  0  0  0  0  0  0  0  0  0
   -1.9177   -0.9438    1.8756 H   0  0  0  0  0  0  0  0  0  0  0  0
   -0.2154   -1.5864    2.1615 H   0  0  0  0  0  0  0  0  0  0  0  0
  1  2  1  0
  2  3  1  0
  3  4  1  0
  4  5  1  0
  5  6  1  0
  5  7  1  0
  7  8  1  0
  8  9  1  0
  7  3  1  0
  9  7  1  0
  1 10  1  0
  1 11  1  0
  1 12  1  0
  3 13  1  0
  4 14  1  0
  4 15  1  0
  5 16  1  0
  6 17  1  0
  6 18  1  0
  6 19  1  0
  8 20  1  0
  8 21  1  0
  9 22  1  0
  9 23  1  0
M  END
