
     RDKit          3D

 19 21  0  0  0  0  0  0  0  0999 V2000
    2.6054    0.1229    0.2738 C   0  0  0  0  0  0  0  0  0  0  0  0
    1.3474   -0.2590    0.7167 O   0  0  0  0  0  0  0  0  0  0  0  0
    0.3390    0.0090   -0.1540 C   0  0  0  0  0  0  0  0  0  0  0  0
    0.2151   -0.5048   -1.5087 C   0  0  0  0  0  0  0  0  0  0  0  0
   -0.6040   -1.1352   -0.4312 C   0  0  0  0  0  0  0  0  0  0  0  0
   -1.7392   -0.4171    0.2166 C   0  0  0  0  0  0  0  0  0  0  0  0
   -1.5226    0.1765    1.5513 C   0  0  0  0  0  0  0  0  0  0  0  0
   -0.8267    0.7866    0.3976 C   0  0  0  0  0  0  0  0  0  0  0  0
   -1.2659    1.9323   -0.2187 O   0  0  0  0  0  0  0  0  0  0  0  0
    3.3561   -0.1360    1.0488 H   0  0  0  0  0  0  0  0  0  0  0  0
    2.9130   -0.4045   -0.6543 H   0  0  0  0  0  0  0  0  0  0  0  0
    2.5581    1.2209    0.0932 H   0  0  0  0  0  0  0  0  0  0  0  0
   -0.3181    0.1705   -2.2414 H   0  0  0  0  0  0  0  0  0  0  0  0
    0.9360   -1.1610   -2.0024 H   0  0  0  0  0  0  0  0  0  0  0  0
   -0.3124   -2.1505   -0.0931 H   0  0  0  0  0  0  0  0  0  0  0  0
   -2.7085   -0.3068   -0.2626 H   0  0  0  0  0  0  0  0  0  0  0  0
   -0.8536   -0.4218    2.2305 H   0  0  0  0  0  0  0  0  0  0  0  0
   -2.2916    0.7933    2.0325 H   0  0  0  0  0  0  0  0  0  0  0  0
   -1.8276    1.6845   -0.9945 H   0  0  0  0  0  0  0  0  0  0  0  0
  1  2  1  0
  2  3  1  0
  3  4  1  0
  4  5  1  0
  5  6  1  0
  6  7  1  0
  7  8  1  0
  8  9  1  0
  5  3  1  0
  8  6  1  0
  8  3  1  0
  1 10  1  0
  1 11  1  0
  1 12  1  0
  4 13  1  0
  4 14  1  0
  5 15  1  0
  6 16  1  0
  7 17  1  0
  7 18  1  0
  9 19  1  0
M  END
