
     RDKit          3D

 17 17  0  0  0  0  0  0  0  0999 V2000
    2.5651   -0.2773    0.2915 C   0  0  0  0  0  0  0  0  0  0  0  0
    1.3373    0.0461    0.8576 O   0  0  0  0  0  0  0  0  0  0  0  0
    0.3125    0.0998   -0.0661 C   0  0  0  0  0  0  0  0  0  0  0  0
   -0.4469    1.3718    0.0936 C   0  0  0  0  0  0  0  0  0  0  0  0
   -0.1209    2.5228    0.2372 O   0  0  0  0  0  0  0  0  0  0  0  0
   -1.7044    0.6111   -0.0004 C   0  0  0  0  0  0  0  0  0  0  0  0
   -2.1250    0.5209   -1.3202 O   0  0  0  0  0  0  0  0  0  0  0  0
   -0.9108   -0.6225    0.4364 C   0  0  0  0  0  0  0  0  0  0  0  0
   -1.3221   -1.7113   -0.3010 O   0  0  0  0  0  0  0  0  0  0  0  0
    2.5607   -1.2680   -0.2124 H   0  0  0  0  0  0  0  0  0  0  0  0
    2.9114    0.5267   -0.4106 H   0  0  0  0  0  0  0  0  0  0  0  0
    3.2947   -0.3093    1.1495 H   0  0  0  0  0  0  0  0  0  0  0  0
    0.6062   -0.1177   -1.1064 H   0  0  0  0  0  0  0  0  0  0  0  0
   -2.4680    0.8601    0.7331 H   0  0  0  0  0  0  0  0  0  0  0  0
   -1.3219    0.4503   -1.9027 H   0  0  0  0  0  0  0  0  0  0  0  0
   -0.8993   -0.7966    1.5254 H   0  0  0  0  0  0  0  0  0  0  0  0
   -2.2687   -1.9069   -0.0045 H   0  0  0  0  0  0  0  0  0  0  0  0
  1  2  1  0
  2  3  1  0
  3  4  1  0
  4  5  2  0
  4  6  1  0
  6  7  1  0
  6  8  1  0
  8  9  1  0
  8  3  1  0
  1 10  1  0
  1 11  1  0
  1 12  1  0
  3 13  1  0
  6 14  1  0
  7 15  1  0
  8 16  1  0
  9 17  1  0
M  END
