
     RDKit          3D

 19 20  0  0  0  0  0  0  0  0999 V2000
    2.6173    0.7904   -0.1392 C   0  0  0  0  0  0  0  0  0  0  0  0
    1.5430    0.0859   -0.6733 O   0  0  0  0  0  0  0  0  0  0  0  0
    0.5115   -0.0847    0.2178 C   0  0  0  0  0  0  0  0  0  0  0  0
   -0.0287   -1.4675    0.3879 C   0  0  0  0  0  0  0  0  0  0  0  0
   -1.4419   -0.9220    0.1892 C   0  0  0  0  0  0  0  0  0  0  0  0
   -2.1679   -1.6375   -0.7395 O   0  0  0  0  0  0  0  0  0  0  0  0
   -0.8467    0.3625   -0.2417 C   0  0  0  0  0  0  0  0  0  0  0  0
   -1.3884    1.6161   -0.1990 C   0  0  0  0  0  0  0  0  0  0  0  0
   -1.0508    0.9193   -1.4664 O   0  0  0  0  0  0  0  0  0  0  0  0
    3.3818    0.8695   -0.9312 H   0  0  0  0  0  0  0  0  0  0  0  0
    3.0345    0.3503    0.7676 H   0  0  0  0  0  0  0  0  0  0  0  0
    2.2779    1.8436    0.0655 H   0  0  0  0  0  0  0  0  0  0  0  0
    0.7466    0.3803    1.1980 H   0  0  0  0  0  0  0  0  0  0  0  0
    0.2574   -2.2023   -0.4058 H   0  0  0  0  0  0  0  0  0  0  0  0
    0.0471   -1.8825    1.4214 H   0  0  0  0  0  0  0  0  0  0  0  0
   -2.0139   -0.7982    1.1414 H   0  0  0  0  0  0  0  0  0  0  0  0
   -2.2098   -2.5897   -0.4154 H   0  0  0  0  0  0  0  0  0  0  0  0
   -2.4792    1.8165   -0.1044 H   0  0  0  0  0  0  0  0  0  0  0  0
   -0.7900    2.5500   -0.0729 H   0  0  0  0  0  0  0  0  0  0  0  0
  1  2  1  0
  2  3  1  0
  3  4  1  0
  4  5  1  0
  5  6  1  0
  5  7  1  0
  7  8  1  0
  8  9  1  0
  7  3  1  0
  9  7  1  0
  1 10  1  0
  1 11  1  0
  1 12  1  0
  3 13  1  0
  4 14  1  0
  4 15  1  0
  5 16  1  0
  6 17  1  0
  8 18  1  0
  8 19  1  0
M  END
