
     RDKit          3D

 19 19  0  0  0  0  0  0  0  0999 V2000
    2.7223   -0.1044   -1.0846 C   0  0  0  0  0  0  0  0  0  0  0  0
    1.3458   -0.0580   -1.0205 O   0  0  0  0  0  0  0  0  0  0  0  0
    0.8961    0.3784    0.2131 C   0  0  0  0  0  0  0  0  0  0  0  0
   -0.0812   -0.6656    0.7255 C   0  0  0  0  0  0  0  0  0  0  0  0
   -1.3993   -0.1329    0.3145 C   0  0  0  0  0  0  0  0  0  0  0  0
   -2.6414   -0.9842    0.3168 C   0  0  0  0  0  0  0  0  0  0  0  0
   -1.3498    1.1332   -0.0404 C   0  0  0  0  0  0  0  0  0  0  0  0
    0.0239    1.5775    0.1002 C   0  0  0  0  0  0  0  0  0  0  0  0
    0.3811    2.7869    0.1193 O   0  0  0  0  0  0  0  0  0  0  0  0
    3.1510   -0.8056   -0.3104 H   0  0  0  0  0  0  0  0  0  0  0  0
    3.1896    0.8837   -0.8435 H   0  0  0  0  0  0  0  0  0  0  0  0
    3.0283   -0.3951   -2.1096 H   0  0  0  0  0  0  0  0  0  0  0  0
    1.6820    0.6139    0.9310 H   0  0  0  0  0  0  0  0  0  0  0  0
   -0.0393   -0.6617    1.8358 H   0  0  0  0  0  0  0  0  0  0  0  0
    0.0578   -1.6497    0.2739 H   0  0  0  0  0  0  0  0  0  0  0  0
   -3.5207   -0.3477    0.4854 H   0  0  0  0  0  0  0  0  0  0  0  0
   -2.6631   -1.5311   -0.6440 H   0  0  0  0  0  0  0  0  0  0  0  0
   -2.5632   -1.7451    1.1133 H   0  0  0  0  0  0  0  0  0  0  0  0
   -2.2200    1.7072   -0.3758 H   0  0  0  0  0  0  0  0  0  0  0  0
  1  2  1  0
  2  3  1  0
  3  4  1  0
  4  5  1  0
  5  6  1  0
  5  7  2  0
  7  8  1  0
  8  9  2  0
  8  3  1  0
  1 10  1  0
  1 11  1  0
  1 12  1  0
  3 13  1  0
  4 14  1  0
  4 15  1  0
  6 16  1  0
  6 17  1  0
  6 18  1  0
  7 19  1  0
M  END
