
     RDKit          3D

 21 21  0  0  0  0  0  0  0  0999 V2000
    3.3013    0.0336   -0.1196 C   0  0  0  0  0  0  0  0  0  0  0  0
    2.0786   -0.5604    0.1695 O   0  0  0  0  0  0  0  0  0  0  0  0
    1.0458    0.2690   -0.2521 C   0  0  0  0  0  0  0  0  0  0  0  0
   -0.0188   -0.3584   -1.0794 C   0  0  0  0  0  0  0  0  0  0  0  0
   -1.0023   -0.2718    0.0676 C   0  0  0  0  0  0  0  0  0  0  0  0
   -2.0804    0.5504   -0.1326 O   0  0  0  0  0  0  0  0  0  0  0  0
   -3.2258   -0.1196    0.2847 C   0  0  0  0  0  0  0  0  0  0  0  0
    0.0598    0.4642    0.8585 C   0  0  0  0  0  0  0  0  0  0  0  0
   -0.1891    1.8157    1.0480 O   0  0  0  0  0  0  0  0  0  0  0  0
    4.1093   -0.6563    0.2308 H   0  0  0  0  0  0  0  0  0  0  0  0
    3.4551    0.9800    0.4405 H   0  0  0  0  0  0  0  0  0  0  0  0
    3.3799    0.2671   -1.1822 H   0  0  0  0  0  0  0  0  0  0  0  0
    1.4286    1.2119   -0.7212 H   0  0  0  0  0  0  0  0  0  0  0  0
   -0.3201    0.1616   -2.0071 H   0  0  0  0  0  0  0  0  0  0  0  0
    0.2190   -1.4390   -1.2911 H   0  0  0  0  0  0  0  0  0  0  0  0
   -1.2930   -1.2469    0.5021 H   0  0  0  0  0  0  0  0  0  0  0  0
   -3.3765   -1.0718   -0.2940 H   0  0  0  0  0  0  0  0  0  0  0  0
   -3.1957   -0.4125    1.3412 H   0  0  0  0  0  0  0  0  0  0  0  0
   -4.1380    0.4789    0.1240 H   0  0  0  0  0  0  0  0  0  0  0  0
    0.2505   -0.0516    1.7957 H   0  0  0  0  0  0  0  0  0  0  0  0
   -0.4879    2.2434    0.2167 H   0  0  0  0  0  0  0  0  0  0  0  0
  1  2  1  0
  2  3  1  0
  3  4  1  0
  4  5  1  0
  5  6  1  0
  6  7  1  0
  5  8  1  0
  8  9  1  0
  8  3  1  0
  1 10  1  0
  1 11  1  0
  1 12  1  0
  3 13  1  0
  4 14  1  0
  4 15  1  0
  5 16  1  0
  7 17  1  0
  7 18  1  0
  7 19  1  0
  8 20  1  0
  9 21  1  0
M  END
