
     RDKit          3D

 15 16  0  0  0  0  0  0  0  0999 V2000
    2.2728   -0.0781    0.4591 C   0  0  0  0  0  0  0  0  0  0  0  0
    0.9822    0.1467    0.8961 O   0  0  0  0  0  0  0  0  0  0  0  0
    0.0230   -0.0890   -0.0557 C   0  0  0  0  0  0  0  0  0  0  0  0
   -1.1140   -0.9786    0.3260 C   0  0  0  0  0  0  0  0  0  0  0  0
   -1.9750    0.2755    0.4411 C   0  0  0  0  0  0  0  0  0  0  0  0
   -2.1631    0.9340   -0.7357 O   0  0  0  0  0  0  0  0  0  0  0  0
   -0.9066    1.0982   -0.1804 C   0  0  0  0  0  0  0  0  0  0  0  0
    2.4423   -1.1298    0.1265 H   0  0  0  0  0  0  0  0  0  0  0  0
    2.9587    0.1684    1.3058 H   0  0  0  0  0  0  0  0  0  0  0  0
    2.5561    0.5808   -0.3880 H   0  0  0  0  0  0  0  0  0  0  0  0
    0.4790   -0.4228   -1.0161 H   0  0  0  0  0  0  0  0  0  0  0  0
   -1.5138   -1.5837   -0.5177 H   0  0  0  0  0  0  0  0  0  0  0  0
   -1.0140   -1.5250    1.2928 H   0  0  0  0  0  0  0  0  0  0  0  0
   -2.4407    0.5408    1.3786 H   0  0  0  0  0  0  0  0  0  0  0  0
   -0.5867    2.0627    0.2265 H   0  0  0  0  0  0  0  0  0  0  0  0
  1  2  1  0
  2  3  1  0
  3  4  1  0
  4  5  1  0
  5  6  1  0
  6  7  1  0
  7  3  1  0
  7  5  1  0
  1  8  1  0
  1  9  1  0
  1 10  1  0
  3 11  1  0
  4 12  1  0
  4 13  1  0
  5 14  1  0
  7 15  1  0
M  END
