
     RDKit          3D

 19 19  0  0  0  0  0  0  0  0999 V2000
    2.7174    0.7741    0.2011 C   0  0  0  0  0  0  0  0  0  0  0  0
    1.3467    0.7062    0.3803 O   0  0  0  0  0  0  0  0  0  0  0  0
    0.7329   -0.2353   -0.4191 C   0  0  0  0  0  0  0  0  0  0  0  0
   -0.4566    0.3333   -1.1762 C   0  0  0  0  0  0  0  0  0  0  0  0
   -1.4089   -0.5735   -0.4031 C   0  0  0  0  0  0  0  0  0  0  0  0
   -2.3785    0.2288    0.4198 C   0  0  0  0  0  0  0  0  0  0  0  0
   -0.2283   -1.1278    0.3387 C   0  0  0  0  0  0  0  0  0  0  0  0
    3.0095    1.0343   -0.8338 H   0  0  0  0  0  0  0  0  0  0  0  0
    3.1132    1.5268    0.9099 H   0  0  0  0  0  0  0  0  0  0  0  0
    3.1232   -0.2419    0.4619 H   0  0  0  0  0  0  0  0  0  0  0  0
    1.4570   -0.7815   -1.0754 H   0  0  0  0  0  0  0  0  0  0  0  0
   -0.5913    1.4160   -0.9801 H   0  0  0  0  0  0  0  0  0  0  0  0
   -0.4362    0.0502   -2.2542 H   0  0  0  0  0  0  0  0  0  0  0  0
   -1.9046   -1.3493   -1.0119 H   0  0  0  0  0  0  0  0  0  0  0  0
   -3.2480    0.4834   -0.2089 H   0  0  0  0  0  0  0  0  0  0  0  0
   -1.8973    1.2090    0.6937 H   0  0  0  0  0  0  0  0  0  0  0  0
   -2.7189   -0.2869    1.3338 H   0  0  0  0  0  0  0  0  0  0  0  0
   -0.2322   -0.9708    1.4401 H   0  0  0  0  0  0  0  0  0  0  0  0
    0.0009   -2.1950    0.1319 H   0  0  0  0  0  0  0  0  0  0  0  0
  1  2  1  0
  2  3  1  0
  3  4  1  0
  4  5  1  0
  5  6  1  0
  5  7  1  0
  7  3  1  0
  1  8  1  0
  1  9  1  0
  1 10  1  0
  3 11  1  0
  4 12  1  0
  4 13  1  0
  5 14  1  0
  6 15  1  0
  6 16  1  0
  6 17  1  0
  7 18  1  0
  7 19  1  0
M  END
