
     RDKit          3D

 23 23  0  0  0  0  0  0  0  0999 V2000
    2.7382   -0.5496   -0.0557 C   0  0  0  0  0  0  0  0  0  0  0  0
    1.8880    0.3382    0.5745 O   0  0  0  0  0  0  0  0  0  0  0  0
    0.5606   -0.0123    0.5143 C   0  0  0  0  0  0  0  0  0  0  0  0
    0.0027   -0.2506    1.7718 O   0  0  0  0  0  0  0  0  0  0  0  0
   -1.1450   -1.0128    1.6150 C   0  0  0  0  0  0  0  0  0  0  0  0
   -1.7238   -0.9516    0.2388 C   0  0  0  0  0  0  0  0  0  0  0  0
   -1.6195    0.3884   -0.4156 C   0  0  0  0  0  0  0  0  0  0  0  0
   -0.3035    1.0779   -0.1165 C   0  0  0  0  0  0  0  0  0  0  0  0
    0.3317    1.6289   -1.3705 C   0  0  0  0  0  0  0  0  0  0  0  0
    3.7716   -0.1585    0.0622 H   0  0  0  0  0  0  0  0  0  0  0  0
    2.7220   -1.5522    0.4148 H   0  0  0  0  0  0  0  0  0  0  0  0
    2.5452   -0.6877   -1.1248 H   0  0  0  0  0  0  0  0  0  0  0  0
    0.4776   -0.9627   -0.0476 H   0  0  0  0  0  0  0  0  0  0  0  0
   -0.8524   -2.0718    1.8071 H   0  0  0  0  0  0  0  0  0  0  0  0
   -1.9214   -0.7480    2.3598 H   0  0  0  0  0  0  0  0  0  0  0  0
   -1.3514   -1.7801   -0.4308 H   0  0  0  0  0  0  0  0  0  0  0  0
   -2.8268   -1.1747    0.3399 H   0  0  0  0  0  0  0  0  0  0  0  0
   -1.6430    0.2388   -1.5276 H   0  0  0  0  0  0  0  0  0  0  0  0
   -2.4714    1.0671   -0.1423 H   0  0  0  0  0  0  0  0  0  0  0  0
   -0.4763    1.8894    0.6054 H   0  0  0  0  0  0  0  0  0  0  0  0
   -0.5162    2.0346   -1.9936 H   0  0  0  0  0  0  0  0  0  0  0  0
    1.0071    2.4721   -1.1802 H   0  0  0  0  0  0  0  0  0  0  0  0
    0.8061    0.7774   -1.8981 H   0  0  0  0  0  0  0  0  0  0  0  0
  1  2  1  0
  2  3  1  0
  3  4  1  0
  4  5  1  0
  5  6  1  0
  6  7  1  0
  7  8  1  0
  8  9  1  0
  8  3  1  0
  1 10  1  0
  1 11  1  0
  1 12  1  0
  3 13  1  0
  5 14  1  0
  5 15  1  0
  6 16  1  0
  6 17  1  0
  7 18  1  0
  7 19  1  0
  8 20  1  0
  9 21  1  0
  9 22  1  0
  9 23  1  0
M  END
