
     RDKit          3D

 21 22  0  0  0  0  0  0  0  0999 V2000
    2.4801   -0.2947    0.3044 C   0  0  0  0  0  0  0  0  0  0  0  0
    1.5650   -0.7085   -0.6273 O   0  0  0  0  0  0  0  0  0  0  0  0
    0.3220   -0.3849   -0.2987 C   0  0  0  0  0  0  0  0  0  0  0  0
   -0.2945   -0.8955    0.9779 C   0  0  0  0  0  0  0  0  0  0  0  0
   -1.6684   -0.2021    0.8842 C   0  0  0  0  0  0  0  0  0  0  0  0
   -1.5160    0.4381   -0.4507 C   0  0  0  0  0  0  0  0  0  0  0  0
   -0.7987   -0.6378   -1.2808 C   0  0  0  0  0  0  0  0  0  0  0  0
   -0.1184    1.0597   -0.3165 C   0  0  0  0  0  0  0  0  0  0  0  0
    0.2786    1.7912   -1.4126 O   0  0  0  0  0  0  0  0  0  0  0  0
    2.4889    0.8031    0.4611 H   0  0  0  0  0  0  0  0  0  0  0  0
    3.5335   -0.5840    0.0342 H   0  0  0  0  0  0  0  0  0  0  0  0
    2.2682   -0.7580    1.2899 H   0  0  0  0  0  0  0  0  0  0  0  0
   -0.4956   -1.9724    0.8447 H   0  0  0  0  0  0  0  0  0  0  0  0
    0.2405   -0.6259    1.8815 H   0  0  0  0  0  0  0  0  0  0  0  0
   -1.7145    0.5968    1.6752 H   0  0  0  0  0  0  0  0  0  0  0  0
   -2.4891   -0.9128    0.9366 H   0  0  0  0  0  0  0  0  0  0  0  0
   -2.2759    1.0017   -0.9072 H   0  0  0  0  0  0  0  0  0  0  0  0
   -1.2421   -1.6296   -1.1067 H   0  0  0  0  0  0  0  0  0  0  0  0
   -0.6022   -0.3511   -2.3182 H   0  0  0  0  0  0  0  0  0  0  0  0
    0.0122    1.5321    0.6744 H   0  0  0  0  0  0  0  0  0  0  0  0
    0.0265    2.7346   -1.2455 H   0  0  0  0  0  0  0  0  0  0  0  0
  1  2  1  0
  2  3  1  0
  3  4  1  0
  4  5  1  0
  5  6  1  0
  6  7  1  0
  6  8  1  0
  8  9  1  0
  7  3  1  0
  8  3  1  0
  1 10  1  0
  1 11  1  0
  1 12  1  0
  4 13  1  0
  4 14  1  0
  5 15  1  0
  5 16  1  0
  6 17  1  0
  7 18  1  0
  7 19  1  0
  8 20  1  0
  9 21  1  0
M  END
