
     RDKit          3D

 21 21  0  0  0  0  0  0  0  0999 V2000
    2.2810   -0.9394    0.1961 C   0  0  0  0  0  0  0  0  0  0  0  0
    1.2430   -0.4158    0.9368 O   0  0  0  0  0  0  0  0  0  0  0  0
    0.3626    0.3236    0.1904 C   0  0  0  0  0  0  0  0  0  0  0  0
    0.9962    1.4716   -0.4575 C   0  0  0  0  0  0  0  0  0  0  0  0
    0.3723    2.2402   -1.1659 O   0  0  0  0  0  0  0  0  0  0  0  0
   -0.2534   -0.6222   -0.8443 C   0  0  0  0  0  0  0  0  0  0  0  0
   -1.7261   -0.2597   -0.7545 C   0  0  0  0  0  0  0  0  0  0  0  0
   -1.8705   -0.1707    0.7720 C   0  0  0  0  0  0  0  0  0  0  0  0
   -0.7545    0.8089    1.0673 C   0  0  0  0  0  0  0  0  0  0  0  0
    2.9327   -1.5169    0.8863 H   0  0  0  0  0  0  0  0  0  0  0  0
    1.8430   -1.6432   -0.5633 H   0  0  0  0  0  0  0  0  0  0  0  0
    2.8573   -0.2015   -0.3904 H   0  0  0  0  0  0  0  0  0  0  0  0
    2.0500    1.6583   -0.3137 H   0  0  0  0  0  0  0  0  0  0  0  0
    0.1682   -0.4872   -1.8400 H   0  0  0  0  0  0  0  0  0  0  0  0
   -0.1933   -1.6877   -0.4770 H   0  0  0  0  0  0  0  0  0  0  0  0
   -2.3815   -1.0156   -1.1886 H   0  0  0  0  0  0  0  0  0  0  0  0
   -1.8340    0.7537   -1.1871 H   0  0  0  0  0  0  0  0  0  0  0  0
   -1.6198   -1.1423    1.2210 H   0  0  0  0  0  0  0  0  0  0  0  0
   -2.8597    0.2059    1.0369 H   0  0  0  0  0  0  0  0  0  0  0  0
   -1.1257    1.8148    0.7274 H   0  0  0  0  0  0  0  0  0  0  0  0
   -0.4878    0.8251    2.1481 H   0  0  0  0  0  0  0  0  0  0  0  0
  1  2  1  0
  2  3  1  0
  3  4  1  0
  4  5  2  0
  3  6  1  0
  6  7  1  0
  7  8  1  0
  8  9  1  0
  9  3  1  0
  1 10  1  0
  1 11  1  0
  1 12  1  0
  4 13  1  0
  6 14  1  0
  6 15  1  0
  7 16  1  0
  7 17  1  0
  8 18  1  0
  8 19  1  0
  9 20  1  0
  9 21  1  0
M  END
