
     RDKit          3D

 21 22  0  0  0  0  0  0  0  0999 V2000
    2.8013   -0.1492    0.2041 C   0  0  0  0  0  0  0  0  0  0  0  0
    1.8434   -0.3735   -0.7893 O   0  0  0  0  0  0  0  0  0  0  0  0
    0.6057   -0.1497   -0.2555 C   0  0  0  0  0  0  0  0  0  0  0  0
   -0.1670    0.9550   -0.9499 C   0  0  0  0  0  0  0  0  0  0  0  0
   -1.3192    1.3320   -0.0808 C   0  0  0  0  0  0  0  0  0  0  0  0
   -1.8540    0.2480    0.7764 C   0  0  0  0  0  0  0  0  0  0  0  0
   -2.6689   -0.6723    0.0569 O   0  0  0  0  0  0  0  0  0  0  0  0
   -1.4684   -1.0890    0.5758 C   0  0  0  0  0  0  0  0  0  0  0  0
   -0.3068   -1.3793   -0.3544 C   0  0  0  0  0  0  0  0  0  0  0  0
    3.8333   -0.3261   -0.2073 H   0  0  0  0  0  0  0  0  0  0  0  0
    2.7838    0.8965    0.5721 H   0  0  0  0  0  0  0  0  0  0  0  0
    2.6583   -0.8140    1.0788 H   0  0  0  0  0  0  0  0  0  0  0  0
    0.6635    0.1525    0.8259 H   0  0  0  0  0  0  0  0  0  0  0  0
    0.5320    1.7836   -1.1526 H   0  0  0  0  0  0  0  0  0  0  0  0
   -0.5936    0.5371   -1.9020 H   0  0  0  0  0  0  0  0  0  0  0  0
   -0.9752    2.1656    0.5847 H   0  0  0  0  0  0  0  0  0  0  0  0
   -2.1410    1.7999   -0.6989 H   0  0  0  0  0  0  0  0  0  0  0  0
   -2.2539    0.5677    1.7820 H   0  0  0  0  0  0  0  0  0  0  0  0
   -1.4856   -1.8016    1.4471 H   0  0  0  0  0  0  0  0  0  0  0  0
    0.2244   -2.2988   -0.1211 H   0  0  0  0  0  0  0  0  0  0  0  0
   -0.7121   -1.3844   -1.3921 H   0  0  0  0  0  0  0  0  0  0  0  0
  1  2  1  0
  2  3  1  0
  3  4  1  0
  4  5  1  0
  5  6  1  0
  6  7  1  0
  7  8  1  0
  8  9  1  0
  9  3  1  0
  8  6  1  0
  1 10  1  0
  1 11  1  0
  1 12  1  0
  3 13  1  0
  4 14  1  0
  4 15  1  0
  5 16  1  0
  5 17  1  0
  6 18  1  0
  8 19  1  0
  9 20  1  0
  9 21  1  0
M  END
