
     RDKit          3D

 18 19  0  0  0  0  0  0  0  0999 V2000
    1.8308    1.4126    0.0659 C   0  0  0  0  0  0  0  0  0  0  0  0
    0.8667    0.8581    0.8731 O   0  0  0  0  0  0  0  0  0  0  0  0
    0.1960   -0.2144    0.2509 C   0  0  0  0  0  0  0  0  0  0  0  0
    1.1806   -1.3382   -0.1193 C   0  0  0  0  0  0  0  0  0  0  0  0
   -0.9143    0.1386   -0.5930 C   0  0  0  0  0  0  0  0  0  0  0  0
   -2.3823    0.2280   -0.1428 C   0  0  0  0  0  0  0  0  0  0  0  0
   -2.1625   -1.1546    0.1131 O   0  0  0  0  0  0  0  0  0  0  0  0
   -1.0505   -0.6294    0.7824 C   0  0  0  0  0  0  0  0  0  0  0  0
    2.6283    0.7153   -0.2444 H   0  0  0  0  0  0  0  0  0  0  0  0
    2.3159    2.2246    0.6448 H   0  0  0  0  0  0  0  0  0  0  0  0
    1.3905    1.9148   -0.8341 H   0  0  0  0  0  0  0  0  0  0  0  0
    1.8816   -1.5186    0.7024 H   0  0  0  0  0  0  0  0  0  0  0  0
    0.6068   -2.2783   -0.2840 H   0  0  0  0  0  0  0  0  0  0  0  0
    1.6749   -1.1134   -1.0858 H   0  0  0  0  0  0  0  0  0  0  0  0
   -0.9521   -0.5339   -1.5095 H   0  0  0  0  0  0  0  0  0  0  0  0
   -2.5760    0.8481    0.7191 H   0  0  0  0  0  0  0  0  0  0  0  0
   -3.0708    0.4340   -0.9647 H   0  0  0  0  0  0  0  0  0  0  0  0
   -1.4635    0.0067    1.6259 H   0  0  0  0  0  0  0  0  0  0  0  0
  1  2  1  0
  2  3  1  0
  3  4  1  0
  3  5  1  0
  5  6  1  0
  6  7  1  0
  7  8  1  0
  8  3  1  0
  8  5  1  0
  1  9  1  0
  1 10  1  0
  1 11  1  0
  4 12  1  0
  4 13  1  0
  4 14  1  0
  5 15  1  0
  6 16  1  0
  6 17  1  0
  8 18  1  0
M  END
