
     RDKit          3D

 17 19  0  0  0  0  0  0  0  0999 V2000
    2.4940   -0.5221   -0.3917 C   0  0  0  0  0  0  0  0  0  0  0  0
    1.3837   -0.2793    0.4201 O   0  0  0  0  0  0  0  0  0  0  0  0
    0.2319   -0.1174   -0.3092 C   0  0  0  0  0  0  0  0  0  0  0  0
   -0.3243    1.2800   -0.0363 C   0  0  0  0  0  0  0  0  0  0  0  0
   -0.5853    1.4016    1.4009 O   0  0  0  0  0  0  0  0  0  0  0  0
   -1.6104    1.1643    0.3727 C   0  0  0  0  0  0  0  0  0  0  0  0
   -2.0243   -0.2980    0.3526 C   0  0  0  0  0  0  0  0  0  0  0  0
   -1.9641   -1.0063   -0.8312 O   0  0  0  0  0  0  0  0  0  0  0  0
   -0.8572   -1.0547    0.1535 C   0  0  0  0  0  0  0  0  0  0  0  0
    2.6593    0.3403   -1.1020 H   0  0  0  0  0  0  0  0  0  0  0  0
    3.3740   -0.5955    0.2839 H   0  0  0  0  0  0  0  0  0  0  0  0
    2.3878   -1.4827   -0.9515 H   0  0  0  0  0  0  0  0  0  0  0  0
    0.4556   -0.2190   -1.3916 H   0  0  0  0  0  0  0  0  0  0  0  0
    0.2992    2.0784   -0.4322 H   0  0  0  0  0  0  0  0  0  0  0  0
   -2.3939    1.9240    0.3512 H   0  0  0  0  0  0  0  0  0  0  0  0
   -2.9069   -0.5397    0.9724 H   0  0  0  0  0  0  0  0  0  0  0  0
   -0.6191   -2.0740    0.4721 H   0  0  0  0  0  0  0  0  0  0  0  0
  1  2  1  0
  2  3  1  0
  3  4  1  0
  4  5  1  0
  5  6  1  0
  6  7  1  0
  7  8  1  0
  8  9  1  0
  9  3  1  0
  6  4  1  0
  9  7  1  0
  1 10  1  0
  1 11  1  0
  1 12  1  0
  3 13  1  0
  4 14  1  0
  6 15  1  0
  7 16  1  0
  9 17  1  0
M  END
