
     RDKit          3D

 21 21  0  0  0  0  0  0  0  0999 V2000
    2.2534   -0.5961   -0.0842 C   0  0  0  0  0  0  0  0  0  0  0  0
    1.0821   -0.2983   -0.7347 O   0  0  0  0  0  0  0  0  0  0  0  0
    0.0752    0.1588    0.0674 C   0  0  0  0  0  0  0  0  0  0  0  0
    0.4299    1.4338    0.8078 C   0  0  0  0  0  0  0  0  0  0  0  0
    0.7307    2.4717   -0.0618 O   0  0  0  0  0  0  0  0  0  0  0  0
   -0.4756   -0.8710    0.9863 C   0  0  0  0  0  0  0  0  0  0  0  0
   -1.5603   -1.4281    0.4613 C   0  0  0  0  0  0  0  0  0  0  0  0
   -1.8676   -0.8421   -0.8692 C   0  0  0  0  0  0  0  0  0  0  0  0
   -1.1289    0.4652   -0.8295 C   0  0  0  0  0  0  0  0  0  0  0  0
    2.7130    0.2576    0.4509 H   0  0  0  0  0  0  0  0  0  0  0  0
    3.0012   -0.8834   -0.8772 H   0  0  0  0  0  0  0  0  0  0  0  0
    2.1648   -1.4596    0.6146 H   0  0  0  0  0  0  0  0  0  0  0  0
   -0.4220    1.7777    1.4300 H   0  0  0  0  0  0  0  0  0  0  0  0
    1.2823    1.2670    1.4964 H   0  0  0  0  0  0  0  0  0  0  0  0
    0.8210    2.0903   -0.9713 H   0  0  0  0  0  0  0  0  0  0  0  0
   -0.0585   -1.1400    1.9556 H   0  0  0  0  0  0  0  0  0  0  0  0
   -2.1350   -2.2168    0.9668 H   0  0  0  0  0  0  0  0  0  0  0  0
   -1.4060   -1.4865   -1.6394 H   0  0  0  0  0  0  0  0  0  0  0  0
   -2.9584   -0.7147   -1.0250 H   0  0  0  0  0  0  0  0  0  0  0  0
   -1.7249    1.2385   -0.3057 H   0  0  0  0  0  0  0  0  0  0  0  0
   -0.8164    0.7761   -1.8390 H   0  0  0  0  0  0  0  0  0  0  0  0
  1  2  1  0
  2  3  1  0
  3  4  1  0
  4  5  1  0
  3  6  1  0
  6  7  2  0
  7  8  1  0
  8  9  1  0
  9  3  1  0
  1 10  1  0
  1 11  1  0
  1 12  1  0
  4 13  1  0
  4 14  1  0
  5 15  1  0
  6 16  1  0
  7 17  1  0
  8 18  1  0
  8 19  1  0
  9 20  1  0
  9 21  1  0
M  END
