
     RDKit          3D

 23 24  0  0  0  0  0  0  0  0999 V2000
    2.9872   -1.0740    0.1646 C   0  0  0  0  0  0  0  0  0  0  0  0
    1.6523   -0.9381   -0.2013 O   0  0  0  0  0  0  0  0  0  0  0  0
    1.2383    0.3315    0.0788 C   0  0  0  0  0  0  0  0  0  0  0  0
    0.6306    0.9824   -1.1441 C   0  0  0  0  0  0  0  0  0  0  0  0
   -0.6666    1.1576   -0.4284 C   0  0  0  0  0  0  0  0  0  0  0  0
   -0.0544    0.4903    0.8239 C   0  0  0  0  0  0  0  0  0  0  0  0
   -1.3469    0.0617    0.2686 C   0  0  0  0  0  0  0  0  0  0  0  0
   -2.5675    0.4437    1.0773 C   0  0  0  0  0  0  0  0  0  0  0  0
   -1.4921   -1.3051   -0.3981 C   0  0  0  0  0  0  0  0  0  0  0  0
    3.6499   -0.3611   -0.3832 H   0  0  0  0  0  0  0  0  0  0  0  0
    3.0653   -0.9535    1.2656 H   0  0  0  0  0  0  0  0  0  0  0  0
    3.3816   -2.0917   -0.1072 H   0  0  0  0  0  0  0  0  0  0  0  0
    2.0521    0.9360    0.5222 H   0  0  0  0  0  0  0  0  0  0  0  0
    1.1263    1.9527   -1.3695 H   0  0  0  0  0  0  0  0  0  0  0  0
    0.6300    0.3462   -2.0342 H   0  0  0  0  0  0  0  0  0  0  0  0
   -1.0305    2.2100   -0.2995 H   0  0  0  0  0  0  0  0  0  0  0  0
   -0.0274    1.1217    1.7361 H   0  0  0  0  0  0  0  0  0  0  0  0
   -2.8614    1.4963    0.9165 H   0  0  0  0  0  0  0  0  0  0  0  0
   -3.4347   -0.1895    0.8865 H   0  0  0  0  0  0  0  0  0  0  0  0
   -2.2581    0.3672    2.1528 H   0  0  0  0  0  0  0  0  0  0  0  0
   -0.5308   -1.6772   -0.7871 H   0  0  0  0  0  0  0  0  0  0  0  0
   -2.2830   -1.2612   -1.1892 H   0  0  0  0  0  0  0  0  0  0  0  0
   -1.8604   -2.0459    0.3446 H   0  0  0  0  0  0  0  0  0  0  0  0
  1  2  1  0
  2  3  1  0
  3  4  1  0
  4  5  1  0
  5  6  1  0
  6  7  1  0
  7  8  1  0
  7  9  1  0
  6  3  1  0
  7  5  1  0
  1 10  1  0
  1 11  1  0
  1 12  1  0
  3 13  1  0
  4 14  1  0
  4 15  1  0
  5 16  1  0
  6 17  1  0
  8 18  1  0
  8 19  1  0
  8 20  1  0
  9 21  1  0
  9 22  1  0
  9 23  1  0
M  END
