
     RDKit          3D

 21 22  0  0  0  0  0  0  0  0999 V2000
    2.0038   -0.9632    0.2601 C   0  0  0  0  0  0  0  0  0  0  0  0
    0.9506   -0.6885   -0.5654 O   0  0  0  0  0  0  0  0  0  0  0  0
    0.2017    0.3975   -0.2863 C   0  0  0  0  0  0  0  0  0  0  0  0
    0.8937    1.7152   -0.2817 C   0  0  0  0  0  0  0  0  0  0  0  0
   -0.5321    0.1806    1.0249 C   0  0  0  0  0  0  0  0  0  0  0  0
   -1.3589   -1.0386    0.6526 C   0  0  0  0  0  0  0  0  0  0  0  0
   -1.8280   -0.6856   -0.7282 C   0  0  0  0  0  0  0  0  0  0  0  0
   -2.2364    0.6659   -0.8057 O   0  0  0  0  0  0  0  0  0  0  0  0
   -0.9708    0.4127   -1.2533 C   0  0  0  0  0  0  0  0  0  0  0  0
    2.7685   -0.1655    0.3163 H   0  0  0  0  0  0  0  0  0  0  0  0
    2.5358   -1.8563   -0.1597 H   0  0  0  0  0  0  0  0  0  0  0  0
    1.6252   -1.2842    1.2508 H   0  0  0  0  0  0  0  0  0  0  0  0
    1.2775    1.9672   -1.2893 H   0  0  0  0  0  0  0  0  0  0  0  0
    0.1011    2.4936   -0.0717 H   0  0  0  0  0  0  0  0  0  0  0  0
    1.6217    1.8043    0.5209 H   0  0  0  0  0  0  0  0  0  0  0  0
    0.1540   -0.0112    1.8639 H   0  0  0  0  0  0  0  0  0  0  0  0
   -1.2482    0.9972    1.2352 H   0  0  0  0  0  0  0  0  0  0  0  0
   -2.2413   -1.0741    1.3203 H   0  0  0  0  0  0  0  0  0  0  0  0
   -0.7199   -1.9193    0.7099 H   0  0  0  0  0  0  0  0  0  0  0  0
   -2.2910   -1.4217   -1.3840 H   0  0  0  0  0  0  0  0  0  0  0  0
   -0.7071    0.4741   -2.3295 H   0  0  0  0  0  0  0  0  0  0  0  0
  1  2  1  0
  2  3  1  0
  3  4  1  0
  3  5  1  0
  5  6  1  0
  6  7  1  0
  7  8  1  0
  8  9  1  0
  9  3  1  0
  9  7  1  0
  1 10  1  0
  1 11  1  0
  1 12  1  0
  4 13  1  0
  4 14  1  0
  4 15  1  0
  5 16  1  0
  5 17  1  0
  6 18  1  0
  6 19  1  0
  7 20  1  0
  9 21  1  0
M  END
