
     RDKit          3D

 19 20  0  0  0  0  0  0  0  0999 V2000
    2.9433    0.2169    0.0266 C   0  0  0  0  0  0  0  0  0  0  0  0
    1.6801    0.4287    0.5862 O   0  0  0  0  0  0  0  0  0  0  0  0
    0.6776   -0.2194   -0.0898 C   0  0  0  0  0  0  0  0  0  0  0  0
   -0.4444   -0.7526    0.7056 C   0  0  0  0  0  0  0  0  0  0  0  0
   -1.7007   -1.2824    0.0843 C   0  0  0  0  0  0  0  0  0  0  0  0
   -1.6587   -0.2809   -1.0379 C   0  0  0  0  0  0  0  0  0  0  0  0
   -0.6091    0.4626   -0.2336 C   0  0  0  0  0  0  0  0  0  0  0  0
   -0.9651    1.6961    0.4772 C   0  0  0  0  0  0  0  0  0  0  0  0
   -0.5349    1.9585    1.5948 O   0  0  0  0  0  0  0  0  0  0  0  0
    2.9206    0.5901   -1.0069 H   0  0  0  0  0  0  0  0  0  0  0  0
    3.1718   -0.8859    0.0205 H   0  0  0  0  0  0  0  0  0  0  0  0
    3.6711    0.7696    0.6512 H   0  0  0  0  0  0  0  0  0  0  0  0
    1.0362   -0.8066   -0.9719 H   0  0  0  0  0  0  0  0  0  0  0  0
   -0.4475   -0.5815    1.7812 H   0  0  0  0  0  0  0  0  0  0  0  0
   -1.7042   -2.3381   -0.1910 H   0  0  0  0  0  0  0  0  0  0  0  0
   -2.6041   -1.0737    0.7288 H   0  0  0  0  0  0  0  0  0  0  0  0
   -2.5519    0.3488   -1.1657 H   0  0  0  0  0  0  0  0  0  0  0  0
   -1.2434   -0.6844   -1.9861 H   0  0  0  0  0  0  0  0  0  0  0  0
   -1.6367    2.4341    0.0265 H   0  0  0  0  0  0  0  0  0  0  0  0
  1  2  1  0
  2  3  1  0
  3  4  1  0
  4  5  1  0
  5  6  1  0
  6  7  1  0
  7  8  1  0
  8  9  2  0
  7  3  1  0
  7  4  1  0
  1 10  1  0
  1 11  1  0
  1 12  1  0
  3 13  1  0
  4 14  1  0
  5 15  1  0
  5 16  1  0
  6 17  1  0
  6 18  1  0
  8 19  1  0
M  END
