
     RDKit          3D

 19 21  0  0  0  0  0  0  0  0999 V2000
    2.8748    0.2957   -0.1268 C   0  0  0  0  0  0  0  0  0  0  0  0
    1.6656   -0.1298   -0.6558 O   0  0  0  0  0  0  0  0  0  0  0  0
    0.5793    0.2659    0.1288 C   0  0  0  0  0  0  0  0  0  0  0  0
   -0.3175   -0.9513    0.3615 C   0  0  0  0  0  0  0  0  0  0  0  0
   -1.3998   -0.6856    1.3596 C   0  0  0  0  0  0  0  0  0  0  0  0
   -2.3150    0.1146    0.8295 C   0  0  0  0  0  0  0  0  0  0  0  0
   -1.9259    0.4534   -0.5662 C   0  0  0  0  0  0  0  0  0  0  0  0
   -1.0036   -0.6243   -0.9178 C   0  0  0  0  0  0  0  0  0  0  0  0
   -0.5017    0.8274   -0.7602 C   0  0  0  0  0  0  0  0  0  0  0  0
    2.9539    1.3913   -0.0325 H   0  0  0  0  0  0  0  0  0  0  0  0
    3.0398   -0.2128    0.8515 H   0  0  0  0  0  0  0  0  0  0  0  0
    3.6661   -0.0277   -0.8325 H   0  0  0  0  0  0  0  0  0  0  0  0
    0.8194    0.8393    1.0257 H   0  0  0  0  0  0  0  0  0  0  0  0
    0.2152   -1.8888    0.4547 H   0  0  0  0  0  0  0  0  0  0  0  0
   -1.4834   -1.0601    2.3800 H   0  0  0  0  0  0  0  0  0  0  0  0
   -3.2070    0.4777    1.3081 H   0  0  0  0  0  0  0  0  0  0  0  0
   -2.6408    0.8474   -1.2725 H   0  0  0  0  0  0  0  0  0  0  0  0
   -0.7899   -1.0407   -1.8742 H   0  0  0  0  0  0  0  0  0  0  0  0
   -0.2296    1.3780   -1.6610 H   0  0  0  0  0  0  0  0  0  0  0  0
  1  2  1  0
  2  3  1  0
  3  4  1  0
  4  5  1  0
  5  6  2  0
  6  7  1  0
  7  8  1  0
  8  9  1  0
  9  3  1  0
  8  4  1  0
  9  7  1  0
  1 10  1  0
  1 11  1  0
  1 12  1  0
  3 13  1  0
  4 14  1  0
  5 15  1  0
  6 16  1  0
  7 17  1  0
  8 18  1  0
  9 19  1  0
M  END
