
     RDKit          3D

 18 19  0  0  0  0  0  0  0  0999 V2000
    2.3359    0.3986   -0.1738 C   0  0  0  0  0  0  0  0  0  0  0  0
    1.0223    0.7209   -0.4954 O   0  0  0  0  0  0  0  0  0  0  0  0
    0.1672    0.0099    0.1884 C   0  0  0  0  0  0  0  0  0  0  0  0
    0.4509   -1.3853   -0.1647 C   0  0  0  0  0  0  0  0  0  0  0  0
   -0.7856   -1.0545    0.2729 C   0  0  0  0  0  0  0  0  0  0  0  0
   -1.8029   -0.2259   -0.4535 C   0  0  0  0  0  0  0  0  0  0  0  0
   -1.0864    0.8012    0.4169 C   0  0  0  0  0  0  0  0  0  0  0  0
   -1.2015    2.0493   -0.1152 O   0  0  0  0  0  0  0  0  0  0  0  0
    3.0641    1.0123   -0.7455 H   0  0  0  0  0  0  0  0  0  0  0  0
    2.4930   -0.6881   -0.4383 H   0  0  0  0  0  0  0  0  0  0  0  0
    2.4298    0.5004    0.9241 H   0  0  0  0  0  0  0  0  0  0  0  0
    1.2046   -1.8967    0.5114 H   0  0  0  0  0  0  0  0  0  0  0  0
    0.6240   -1.7493   -1.2216 H   0  0  0  0  0  0  0  0  0  0  0  0
   -1.1354   -1.3072    1.3204 H   0  0  0  0  0  0  0  0  0  0  0  0
   -2.8537   -0.4256   -0.1398 H   0  0  0  0  0  0  0  0  0  0  0  0
   -1.6397   -0.0386   -1.5121 H   0  0  0  0  0  0  0  0  0  0  0  0
   -1.3747    0.7448    1.4907 H   0  0  0  0  0  0  0  0  0  0  0  0
   -1.9118    2.5337    0.3351 H   0  0  0  0  0  0  0  0  0  0  0  0
  1  2  1  0
  2  3  1  0
  3  4  1  0
  4  5  1  0
  5  6  1  0
  6  7  1  0
  7  8  1  0
  5  3  1  0
  7  3  1  0
  1  9  1  0
  1 10  1  0
  1 11  1  0
  4 12  1  0
  4 13  1  0
  5 14  1  0
  6 15  1  0
  6 16  1  0
  7 17  1  0
  8 18  1  0
M  END
