
     RDKit          3D

 19 19  0  0  0  0  0  0  0  0999 V2000
   -1.4581    0.7258   -1.2895 C   0  0  0  0  0  0  0  0  0  0  0  0
   -0.4020   -0.1375   -1.1761 O   0  0  0  0  0  0  0  0  0  0  0  0
    0.1654   -0.2484    0.0717 C   0  0  0  0  0  0  0  0  0  0  0  0
   -0.7588   -0.7198    1.1672 C   0  0  0  0  0  0  0  0  0  0  0  0
   -1.2212   -1.9884    0.7847 O   0  0  0  0  0  0  0  0  0  0  0  0
    0.9425    1.0133    0.4162 C   0  0  0  0  0  0  0  0  0  0  0  0
    2.0453    0.3521   -0.4238 C   0  0  0  0  0  0  0  0  0  0  0  0
    1.4789   -0.9346    0.0259 C   0  0  0  0  0  0  0  0  0  0  0  0
    1.8882   -2.0375    0.2531 O   0  0  0  0  0  0  0  0  0  0  0  0
   -2.3258    0.4487   -0.6225 H   0  0  0  0  0  0  0  0  0  0  0  0
   -1.8130    0.6583   -2.3592 H   0  0  0  0  0  0  0  0  0  0  0  0
   -1.1963    1.7536   -1.0163 H   0  0  0  0  0  0  0  0  0  0  0  0
   -0.2408   -0.8636    2.1257 H   0  0  0  0  0  0  0  0  0  0  0  0
   -1.6155   -0.0505    1.2143 H   0  0  0  0  0  0  0  0  0  0  0  0
   -2.1900   -2.0843    0.9726 H   0  0  0  0  0  0  0  0  0  0  0  0
    1.2901    1.0628    1.4640 H   0  0  0  0  0  0  0  0  0  0  0  0
    0.5523    1.9370   -0.0034 H   0  0  0  0  0  0  0  0  0  0  0  0
    3.0623    0.5930   -0.1144 H   0  0  0  0  0  0  0  0  0  0  0  0
    1.7967    0.5201   -1.4903 H   0  0  0  0  0  0  0  0  0  0  0  0
  1  2  1  0
  2  3  1  0
  3  4  1  0
  4  5  1  0
  3  6  1  0
  6  7  1  0
  7  8  1  0
  8  9  2  0
  8  3  1  0
  1 10  1  0
  1 11  1  0
  1 12  1  0
  4 13  1  0
  4 14  1  0
  5 15  1  0
  6 16  1  0
  6 17  1  0
  7 18  1  0
  7 19  1  0
M  END
