
     RDKit          3D

 17 17  0  0  0  0  0  0  0  0999 V2000
   -2.8326    0.2320    0.2048 C   0  0  0  0  0  0  0  0  0  0  0  0
   -1.6372    0.4209    0.8535 O   0  0  0  0  0  0  0  0  0  0  0  0
   -0.5767    0.1096    0.0154 C   0  0  0  0  0  0  0  0  0  0  0  0
    0.2624   -0.9551    0.6802 C   0  0  0  0  0  0  0  0  0  0  0  0
    1.5801   -1.0272    0.5373 C   0  0  0  0  0  0  0  0  0  0  0  0
    2.2535   -0.0149   -0.3140 C   0  0  0  0  0  0  0  0  0  0  0  0
    1.5874    1.2723   -0.0902 C   0  0  0  0  0  0  0  0  0  0  0  0
    2.2632    2.3024    0.1409 O   0  0  0  0  0  0  0  0  0  0  0  0
    0.1898    1.2838   -0.1479 O   0  0  0  0  0  0  0  0  0  0  0  0
   -2.9157   -0.8366   -0.1087 H   0  0  0  0  0  0  0  0  0  0  0  0
   -3.6658    0.4154    0.9368 H   0  0  0  0  0  0  0  0  0  0  0  0
   -2.9478    0.8318   -0.7186 H   0  0  0  0  0  0  0  0  0  0  0  0
   -0.8954   -0.2234   -0.9920 H   0  0  0  0  0  0  0  0  0  0  0  0
   -0.2343   -1.6870    1.2971 H   0  0  0  0  0  0  0  0  0  0  0  0
    2.1378   -1.8300    1.0498 H   0  0  0  0  0  0  0  0  0  0  0  0
    3.3295   -0.0176   -0.0608 H   0  0  0  0  0  0  0  0  0  0  0  0
    2.1019   -0.2764   -1.4019 H   0  0  0  0  0  0  0  0  0  0  0  0
  1  2  1  0
  2  3  1  0
  3  4  1  0
  4  5  2  0
  5  6  1  0
  6  7  1  0
  7  8  2  0
  7  9  1  0
  9  3  1  0
  1 10  1  0
  1 11  1  0
  1 12  1  0
  3 13  1  0
  4 14  1  0
  5 15  1  0
  6 16  1  0
  6 17  1  0
M  END
