
     RDKit          3D

 19 19  0  0  0  0  0  0  0  0999 V2000
    2.7647    0.4333    0.1795 C   0  0  0  0  0  0  0  0  0  0  0  0
    1.5554    0.3706    0.8621 O   0  0  0  0  0  0  0  0  0  0  0  0
    0.5779   -0.0296   -0.0387 C   0  0  0  0  0  0  0  0  0  0  0  0
   -0.1595   -1.2265    0.5332 C   0  0  0  0  0  0  0  0  0  0  0  0
   -1.3223   -0.3069    0.8378 C   0  0  0  0  0  0  0  0  0  0  0  0
   -2.5934   -0.8480    0.2486 C   0  0  0  0  0  0  0  0  0  0  0  0
   -2.5908   -1.7811   -0.5158 O   0  0  0  0  0  0  0  0  0  0  0  0
   -0.6903    0.7828   -0.0090 C   0  0  0  0  0  0  0  0  0  0  0  0
   -0.5603    1.9911    0.6700 O   0  0  0  0  0  0  0  0  0  0  0  0
    3.0079   -0.5841   -0.2370 H   0  0  0  0  0  0  0  0  0  0  0  0
    3.6030    0.7713    0.8208 H   0  0  0  0  0  0  0  0  0  0  0  0
    2.6146    1.0954   -0.7119 H   0  0  0  0  0  0  0  0  0  0  0  0
    1.0024   -0.1926   -1.0467 H   0  0  0  0  0  0  0  0  0  0  0  0
    0.2544   -1.6621    1.4401 H   0  0  0  0  0  0  0  0  0  0  0  0
   -0.3653   -1.9720   -0.2857 H   0  0  0  0  0  0  0  0  0  0  0  0
   -1.4524   -0.0267    1.8874 H   0  0  0  0  0  0  0  0  0  0  0  0
   -3.5048   -0.3544    0.5487 H   0  0  0  0  0  0  0  0  0  0  0  0
   -1.1524    0.8458   -1.0085 H   0  0  0  0  0  0  0  0  0  0  0  0
   -0.9889    2.6939    0.0879 H   0  0  0  0  0  0  0  0  0  0  0  0
  1  2  1  0
  2  3  1  0
  3  4  1  0
  4  5  1  0
  5  6  1  0
  6  7  2  0
  5  8  1  0
  8  9  1  0
  8  3  1  0
  1 10  1  0
  1 11  1  0
  1 12  1  0
  3 13  1  0
  4 14  1  0
  4 15  1  0
  5 16  1  0
  6 17  1  0
  8 18  1  0
  9 19  1  0
M  END
