
     RDKit          3D

 21 21  0  0  0  0  0  0  0  0999 V2000
    2.7158   -0.2733    0.0681 C   0  0  0  0  0  0  0  0  0  0  0  0
    1.5031    0.0045    0.6986 O   0  0  0  0  0  0  0  0  0  0  0  0
    0.4424   -0.4380   -0.0884 C   0  0  0  0  0  0  0  0  0  0  0  0
   -0.3788   -1.4917    0.6226 C   0  0  0  0  0  0  0  0  0  0  0  0
   -1.3959   -1.8317   -0.2754 O   0  0  0  0  0  0  0  0  0  0  0  0
   -2.3344   -0.8148   -0.3332 C   0  0  0  0  0  0  0  0  0  0  0  0
   -1.7528    0.5427   -0.4599 C   0  0  0  0  0  0  0  0  0  0  0  0
   -0.4502    0.7094   -0.3435 C   0  0  0  0  0  0  0  0  0  0  0  0
    0.1095    2.0857   -0.4749 C   0  0  0  0  0  0  0  0  0  0  0  0
    3.5281    0.0868    0.7123 H   0  0  0  0  0  0  0  0  0  0  0  0
    2.8536   -1.3867   -0.0174 H   0  0  0  0  0  0  0  0  0  0  0  0
    2.7601    0.2322   -0.9035 H   0  0  0  0  0  0  0  0  0  0  0  0
    0.8165   -0.9041   -1.0257 H   0  0  0  0  0  0  0  0  0  0  0  0
    0.1903   -2.3609    0.9398 H   0  0  0  0  0  0  0  0  0  0  0  0
   -0.8898   -0.9635    1.4680 H   0  0  0  0  0  0  0  0  0  0  0  0
   -2.9321   -0.8946    0.6207 H   0  0  0  0  0  0  0  0  0  0  0  0
   -3.0366   -1.0139   -1.1937 H   0  0  0  0  0  0  0  0  0  0  0  0
   -2.4221    1.4157   -0.6537 H   0  0  0  0  0  0  0  0  0  0  0  0
    0.2733    2.3552   -1.5254 H   0  0  0  0  0  0  0  0  0  0  0  0
   -0.6214    2.8138   -0.0230 H   0  0  0  0  0  0  0  0  0  0  0  0
    1.0212    2.1273    0.1535 H   0  0  0  0  0  0  0  0  0  0  0  0
  1  2  1  0
  2  3  1  0
  3  4  1  0
  4  5  1  0
  5  6  1  0
  6  7  1  0
  7  8  2  0
  8  9  1  0
  8  3  1  0
  1 10  1  0
  1 11  1  0
  1 12  1  0
  3 13  1  0
  4 14  1  0
  4 15  1  0
  6 16  1  0
  6 17  1  0
  7 18  1  0
  9 19  1  0
  9 20  1  0
  9 21  1  0
M  END
