
     RDKit          3D

 17 18  0  0  0  0  0  0  0  0999 V2000
    2.8066    0.1477   -0.4409 C   0  0  0  0  0  0  0  0  0  0  0  0
    1.7803    0.1130    0.4756 O   0  0  0  0  0  0  0  0  0  0  0  0
    0.5673   -0.2611   -0.0524 C   0  0  0  0  0  0  0  0  0  0  0  0
   -0.6063    0.5665    0.4469 C   0  0  0  0  0  0  0  0  0  0  0  0
   -1.8031    0.7263   -0.4341 C   0  0  0  0  0  0  0  0  0  0  0  0
   -2.4053   -0.6366   -0.5108 C   0  0  0  0  0  0  0  0  0  0  0  0
   -3.5132   -0.9718   -0.9999 O   0  0  0  0  0  0  0  0  0  0  0  0
   -1.5320   -1.5408    0.0617 O   0  0  0  0  0  0  0  0  0  0  0  0
   -0.5006   -0.8745    0.7570 C   0  0  0  0  0  0  0  0  0  0  0  0
    2.6222    0.8658   -1.2817 H   0  0  0  0  0  0  0  0  0  0  0  0
    3.6988    0.5797    0.0949 H   0  0  0  0  0  0  0  0  0  0  0  0
    3.0574   -0.8535   -0.8666 H   0  0  0  0  0  0  0  0  0  0  0  0
    0.5644   -0.4863   -1.1386 H   0  0  0  0  0  0  0  0  0  0  0  0
   -0.4364    1.2548    1.2991 H   0  0  0  0  0  0  0  0  0  0  0  0
   -2.4917    1.4450    0.0630 H   0  0  0  0  0  0  0  0  0  0  0  0
   -1.4813    1.1067   -1.4133 H   0  0  0  0  0  0  0  0  0  0  0  0
   -0.3270   -1.1808    1.8220 H   0  0  0  0  0  0  0  0  0  0  0  0
  1  2  1  0
  2  3  1  0
  3  4  1  0
  4  5  1  0
  5  6  1  0
  6  7  2  0
  6  8  1  0
  8  9  1  0
  9  3  1  0
  9  4  1  0
  1 10  1  0
  1 11  1  0
  1 12  1  0
  3 13  1  0
  4 14  1  0
  5 15  1  0
  5 16  1  0
  9 17  1  0
M  END
