
     RDKit          3D

 18 18  0  0  0  0  0  0  0  0999 V2000
    2.5003   -0.2321    0.4993 C   0  0  0  0  0  0  0  0  0  0  0  0
    1.3521    0.5235    0.6195 O   0  0  0  0  0  0  0  0  0  0  0  0
    0.3603    0.1872   -0.2714 C   0  0  0  0  0  0  0  0  0  0  0  0
   -0.2730    1.3490   -1.0008 C   0  0  0  0  0  0  0  0  0  0  0  0
   -1.5966    1.0561   -0.3982 C   0  0  0  0  0  0  0  0  0  0  0  0
   -2.7049    1.4972   -0.5796 O   0  0  0  0  0  0  0  0  0  0  0  0
   -0.9662    0.0519    0.4579 C   0  0  0  0  0  0  0  0  0  0  0  0
   -1.5341   -1.3439    0.3697 C   0  0  0  0  0  0  0  0  0  0  0  0
    2.9055   -0.0913   -0.5272 H   0  0  0  0  0  0  0  0  0  0  0  0
    3.2134    0.1426    1.2773 H   0  0  0  0  0  0  0  0  0  0  0  0
    2.3294   -1.3199    0.7139 H   0  0  0  0  0  0  0  0  0  0  0  0
    0.5894   -0.6396   -0.9753 H   0  0  0  0  0  0  0  0  0  0  0  0
    0.1676    2.3327   -0.7417 H   0  0  0  0  0  0  0  0  0  0  0  0
   -0.3280    1.2452   -2.0944 H   0  0  0  0  0  0  0  0  0  0  0  0
   -0.9414    0.3815    1.5211 H   0  0  0  0  0  0  0  0  0  0  0  0
   -2.4762   -1.3515   -0.2270 H   0  0  0  0  0  0  0  0  0  0  0  0
   -0.7759   -2.0499   -0.0253 H   0  0  0  0  0  0  0  0  0  0  0  0
   -1.8217   -1.7388    1.3822 H   0  0  0  0  0  0  0  0  0  0  0  0
  1  2  1  0
  2  3  1  0
  3  4  1  0
  4  5  1  0
  5  6  2  0
  5  7  1  0
  7  8  1  0
  7  3  1  0
  1  9  1  0
  1 10  1  0
  1 11  1  0
  3 12  1  0
  4 13  1  0
  4 14  1  0
  7 15  1  0
  8 16  1  0
  8 17  1  0
  8 18  1  0
M  END
