
     RDKit          3D

 21 21  0  0  0  0  0  0  0  0999 V2000
   -2.4940   -0.6385    0.4289 C   0  0  0  0  0  0  0  0  0  0  0  0
   -1.3991   -0.2074    1.1394 O   0  0  0  0  0  0  0  0  0  0  0  0
   -0.3093   -0.0272    0.2915 C   0  0  0  0  0  0  0  0  0  0  0  0
   -0.5145    0.9744   -0.7986 C   0  0  0  0  0  0  0  0  0  0  0  0
   -0.8013    2.2484   -0.2903 O   0  0  0  0  0  0  0  0  0  0  0  0
    0.4443   -1.2927   -0.0057 C   0  0  0  0  0  0  0  0  0  0  0  0
    1.0238   -0.2202    0.9097 C   0  0  0  0  0  0  0  0  0  0  0  0
    2.2446    0.4437    0.3581 C   0  0  0  0  0  0  0  0  0  0  0  0
    2.4963    0.0631   -0.9775 O   0  0  0  0  0  0  0  0  0  0  0  0
   -2.3394   -1.5997   -0.0989 H   0  0  0  0  0  0  0  0  0  0  0  0
   -2.8664    0.1539   -0.2381 H   0  0  0  0  0  0  0  0  0  0  0  0
   -3.3025   -0.8629    1.1862 H   0  0  0  0  0  0  0  0  0  0  0  0
    0.3940    1.1029   -1.4236 H   0  0  0  0  0  0  0  0  0  0  0  0
   -1.3193    0.6207   -1.4747 H   0  0  0  0  0  0  0  0  0  0  0  0
   -1.5141    2.6216   -0.8771 H   0  0  0  0  0  0  0  0  0  0  0  0
    0.1704   -2.2364    0.4977 H   0  0  0  0  0  0  0  0  0  0  0  0
    0.8133   -1.3815   -1.0292 H   0  0  0  0  0  0  0  0  0  0  0  0
    1.0687   -0.4451    1.9991 H   0  0  0  0  0  0  0  0  0  0  0  0
    3.1291    0.0434    0.9313 H   0  0  0  0  0  0  0  0  0  0  0  0
    2.2772    1.5288    0.4748 H   0  0  0  0  0  0  0  0  0  0  0  0
    2.7982   -0.8894   -1.0029 H   0  0  0  0  0  0  0  0  0  0  0  0
  1  2  1  0
  2  3  1  0
  3  4  1  0
  4  5  1  0
  3  6  1  0
  6  7  1  0
  7  8  1  0
  8  9  1  0
  7  3  1  0
  1 10  1  0
  1 11  1  0
  1 12  1  0
  4 13  1  0
  4 14  1  0
  5 15  1  0
  6 16  1  0
  6 17  1  0
  7 18  1  0
  8 19  1  0
  8 20  1  0
  9 21  1  0
M  END
