
     RDKit          3D

 21 22  0  0  0  0  0  0  0  0999 V2000
    2.8535    0.0350    0.7187 C   0  0  0  0  0  0  0  0  0  0  0  0
    1.8362    0.2943   -0.2103 O   0  0  0  0  0  0  0  0  0  0  0  0
    0.6070   -0.1684    0.2399 C   0  0  0  0  0  0  0  0  0  0  0  0
   -0.3202   -0.7980   -0.8080 C   0  0  0  0  0  0  0  0  0  0  0  0
   -1.1275   -1.9666   -0.2943 C   0  0  0  0  0  0  0  0  0  0  0  0
   -0.5812    0.5029   -0.2437 C   0  0  0  0  0  0  0  0  0  0  0  0
   -1.7594    0.9034    0.5462 C   0  0  0  0  0  0  0  0  0  0  0  0
   -1.9778    1.9348   -0.4005 O   0  0  0  0  0  0  0  0  0  0  0  0
   -0.6655    1.7952   -0.9157 C   0  0  0  0  0  0  0  0  0  0  0  0
    3.8100    0.4224    0.3129 H   0  0  0  0  0  0  0  0  0  0  0  0
    2.9554   -1.0736    0.7596 H   0  0  0  0  0  0  0  0  0  0  0  0
    2.6050    0.4549    1.7004 H   0  0  0  0  0  0  0  0  0  0  0  0
    0.6489   -0.6521    1.2370 H   0  0  0  0  0  0  0  0  0  0  0  0
    0.0537   -0.8652   -1.8517 H   0  0  0  0  0  0  0  0  0  0  0  0
   -1.7895   -2.3518   -1.0913 H   0  0  0  0  0  0  0  0  0  0  0  0
   -0.4947   -2.7721    0.1249 H   0  0  0  0  0  0  0  0  0  0  0  0
   -1.8017   -1.6487    0.5356 H   0  0  0  0  0  0  0  0  0  0  0  0
   -2.6605    0.2234    0.4950 H   0  0  0  0  0  0  0  0  0  0  0  0
   -1.5478    1.2878    1.5634 H   0  0  0  0  0  0  0  0  0  0  0  0
   -0.0426    2.5911   -0.4112 H   0  0  0  0  0  0  0  0  0  0  0  0
   -0.6012    1.8515   -2.0069 H   0  0  0  0  0  0  0  0  0  0  0  0
  1  2  1  0
  2  3  1  0
  3  4  1  0
  4  5  1  0
  4  6  1  0
  6  7  1  0
  7  8  1  0
  8  9  1  0
  6  3  1  0
  9  6  1  0
  1 10  1  0
  1 11  1  0
  1 12  1  0
  3 13  1  0
  4 14  1  0
  5 15  1  0
  5 16  1  0
  5 17  1  0
  7 18  1  0
  7 19  1  0
  9 20  1  0
  9 21  1  0
M  END
