
     RDKit          3D

 19 19  0  0  0  0  0  0  0  0999 V2000
   -2.3705   -0.2074    0.4975 C   0  0  0  0  0  0  0  0  0  0  0  0
   -1.5701    0.6660   -0.1828 O   0  0  0  0  0  0  0  0  0  0  0  0
   -0.2302    0.4769   -0.1329 C   0  0  0  0  0  0  0  0  0  0  0  0
    0.4443    1.6320   -0.8799 C   0  0  0  0  0  0  0  0  0  0  0  0
    0.2763   -0.8516   -0.6436 C   0  0  0  0  0  0  0  0  0  0  0  0
    1.4453   -1.2160    0.2335 C   0  0  0  0  0  0  0  0  0  0  0  0
    1.5724   -0.0244    1.1071 C   0  0  0  0  0  0  0  0  0  0  0  0
    2.6686    0.3151    1.6230 O   0  0  0  0  0  0  0  0  0  0  0  0
    0.3151    0.5310    1.1830 O   0  0  0  0  0  0  0  0  0  0  0  0
   -3.4329    0.1397    0.3199 H   0  0  0  0  0  0  0  0  0  0  0  0
   -2.2468   -0.1301    1.6182 H   0  0  0  0  0  0  0  0  0  0  0  0
   -2.3577   -1.2511    0.1795 H   0  0  0  0  0  0  0  0  0  0  0  0
    1.2878    1.2335   -1.4820 H   0  0  0  0  0  0  0  0  0  0  0  0
    0.8024    2.4111   -0.1978 H   0  0  0  0  0  0  0  0  0  0  0  0
   -0.3019    2.1071   -1.5707 H   0  0  0  0  0  0  0  0  0  0  0  0
   -0.4937   -1.6109   -0.5289 H   0  0  0  0  0  0  0  0  0  0  0  0
    0.6053   -0.7181   -1.7074 H   0  0  0  0  0  0  0  0  0  0  0  0
    1.2153   -2.0758    0.9058 H   0  0  0  0  0  0  0  0  0  0  0  0
    2.3712   -1.4270   -0.3416 H   0  0  0  0  0  0  0  0  0  0  0  0
  1  2  1  0
  2  3  1  0
  3  4  1  0
  3  5  1  0
  5  6  1  0
  6  7  1  0
  7  8  2  0
  7  9  1  0
  9  3  1  0
  1 10  1  0
  1 11  1  0
  1 12  1  0
  4 13  1  0
  4 14  1  0
  4 15  1  0
  5 16  1  0
  5 17  1  0
  6 18  1  0
  6 19  1  0
M  END
