
     RDKit          3D

 23 23  0  0  0  0  0  0  0  0999 V2000
    2.9566    0.3148   -0.4603 C   0  0  0  0  0  0  0  0  0  0  0  0
    1.7050   -0.2414   -0.4152 O   0  0  0  0  0  0  0  0  0  0  0  0
    0.8786    0.5719    0.3889 C   0  0  0  0  0  0  0  0  0  0  0  0
    0.4207   -0.3302    1.5164 C   0  0  0  0  0  0  0  0  0  0  0  0
   -0.1041   -1.5890    0.8036 C   0  0  0  0  0  0  0  0  0  0  0  0
   -1.4077   -1.1754    0.2158 C   0  0  0  0  0  0  0  0  0  0  0  0
   -1.4657    0.0415   -0.3136 C   0  0  0  0  0  0  0  0  0  0  0  0
   -2.8004    0.4264   -0.8990 C   0  0  0  0  0  0  0  0  0  0  0  0
   -0.3498    1.0073   -0.3651 C   0  0  0  0  0  0  0  0  0  0  0  0
    3.4520    0.4175    0.5123 H   0  0  0  0  0  0  0  0  0  0  0  0
    2.8506    1.3503   -0.8691 H   0  0  0  0  0  0  0  0  0  0  0  0
    3.6095   -0.3104   -1.1272 H   0  0  0  0  0  0  0  0  0  0  0  0
    1.4522    1.4451    0.7737 H   0  0  0  0  0  0  0  0  0  0  0  0
    1.2515   -0.5637    2.1784 H   0  0  0  0  0  0  0  0  0  0  0  0
   -0.4247    0.1541    2.0651 H   0  0  0  0  0  0  0  0  0  0  0  0
   -0.2002   -2.4146    1.5159 H   0  0  0  0  0  0  0  0  0  0  0  0
    0.5563   -1.8301   -0.0704 H   0  0  0  0  0  0  0  0  0  0  0  0
   -2.2516   -1.8563    0.2335 H   0  0  0  0  0  0  0  0  0  0  0  0
   -3.1246   -0.3886   -1.5921 H   0  0  0  0  0  0  0  0  0  0  0  0
   -3.5707    0.5019   -0.1145 H   0  0  0  0  0  0  0  0  0  0  0  0
   -2.6782    1.3263   -1.5110 H   0  0  0  0  0  0  0  0  0  0  0  0
   -0.0854    1.1589   -1.4405 H   0  0  0  0  0  0  0  0  0  0  0  0
   -0.6697    1.9836    0.0936 H   0  0  0  0  0  0  0  0  0  0  0  0
  1  2  1  0
  2  3  1  0
  3  4  1  0
  4  5  1  0
  5  6  1  0
  6  7  2  0
  7  8  1  0
  7  9  1  0
  9  3  1  0
  1 10  1  0
  1 11  1  0
  1 12  1  0
  3 13  1  0
  4 14  1  0
  4 15  1  0
  5 16  1  0
  5 17  1  0
  6 18  1  0
  8 19  1  0
  8 20  1  0
  8 21  1  0
  9 22  1  0
  9 23  1  0
M  END
