
     RDKit          3D

 21 22  0  0  0  0  0  0  0  0999 V2000
   -1.9478   -1.0862   -0.6945 C   0  0  0  0  0  0  0  0  0  0  0  0
   -1.9507    0.1931   -0.2251 O   0  0  0  0  0  0  0  0  0  0  0  0
   -0.7257    0.6913    0.2038 C   0  0  0  0  0  0  0  0  0  0  0  0
   -0.9711    2.1370    0.7044 C   0  0  0  0  0  0  0  0  0  0  0  0
    0.2737   -0.0826    0.8155 C   0  0  0  0  0  0  0  0  0  0  0  0
    1.1222   -1.2408    0.4198 C   0  0  0  0  0  0  0  0  0  0  0  0
    2.2438   -0.4653   -0.3008 C   0  0  0  0  0  0  0  0  0  0  0  0
    1.7388    0.8553   -0.4513 O   0  0  0  0  0  0  0  0  0  0  0  0
    0.4160    0.5796   -0.6162 C   0  0  0  0  0  0  0  0  0  0  0  0
   -3.0176   -1.3171   -0.9854 H   0  0  0  0  0  0  0  0  0  0  0  0
   -1.6835   -1.8463    0.0822 H   0  0  0  0  0  0  0  0  0  0  0  0
   -1.3797   -1.1888   -1.6279 H   0  0  0  0  0  0  0  0  0  0  0  0
   -1.3629    2.7546   -0.1150 H   0  0  0  0  0  0  0  0  0  0  0  0
   -1.6649    2.1286    1.5476 H   0  0  0  0  0  0  0  0  0  0  0  0
    0.0189    2.5207    1.0522 H   0  0  0  0  0  0  0  0  0  0  0  0
    0.8352    0.4529    1.6474 H   0  0  0  0  0  0  0  0  0  0  0  0
    0.6804   -1.9429   -0.2860 H   0  0  0  0  0  0  0  0  0  0  0  0
    1.5040   -1.7906    1.2860 H   0  0  0  0  0  0  0  0  0  0  0  0
    2.4285   -0.8674   -1.3009 H   0  0  0  0  0  0  0  0  0  0  0  0
    3.1303   -0.3650    0.3374 H   0  0  0  0  0  0  0  0  0  0  0  0
    0.3121   -0.1200   -1.4931 H   0  0  0  0  0  0  0  0  0  0  0  0
  1  2  1  0
  2  3  1  0
  3  4  1  0
  3  5  1  0
  5  6  1  0
  6  7  1  0
  7  8  1  0
  8  9  1  0
  9  3  1  0
  9  5  1  0
  1 10  1  0
  1 11  1  0
  1 12  1  0
  4 13  1  0
  4 14  1  0
  4 15  1  0
  5 16  1  0
  6 17  1  0
  6 18  1  0
  7 19  1  0
  7 20  1  0
  9 21  1  0
M  END
