
     RDKit          3D

 21 21  0  0  0  0  0  0  0  0999 V2000
    3.0321   -0.3021    0.1712 C   0  0  0  0  0  0  0  0  0  0  0  0
    1.9664   -0.2312   -0.6924 O   0  0  0  0  0  0  0  0  0  0  0  0
    0.7339   -0.2130   -0.0695 C   0  0  0  0  0  0  0  0  0  0  0  0
    0.1014    1.1381   -0.3744 C   0  0  0  0  0  0  0  0  0  0  0  0
   -1.2179    1.2190    0.3732 C   0  0  0  0  0  0  0  0  0  0  0  0
   -2.1671    0.2282   -0.3005 C   0  0  0  0  0  0  0  0  0  0  0  0
   -1.6214   -1.1761   -0.1971 C   0  0  0  0  0  0  0  0  0  0  0  0
   -0.1882   -1.2501   -0.5842 C   0  0  0  0  0  0  0  0  0  0  0  0
    0.1649   -2.1638   -1.3100 O   0  0  0  0  0  0  0  0  0  0  0  0
    3.0449   -1.1968    0.8167 H   0  0  0  0  0  0  0  0  0  0  0  0
    3.9602   -0.1918   -0.4295 H   0  0  0  0  0  0  0  0  0  0  0  0
    3.0182    0.5760    0.8689 H   0  0  0  0  0  0  0  0  0  0  0  0
    0.8366   -0.2608    1.0509 H   0  0  0  0  0  0  0  0  0  0  0  0
   -0.0981    1.1607   -1.4521 H   0  0  0  0  0  0  0  0  0  0  0  0
    0.7791    1.9768   -0.0624 H   0  0  0  0  0  0  0  0  0  0  0  0
   -1.1165    0.9924    1.4381 H   0  0  0  0  0  0  0  0  0  0  0  0
   -1.6793    2.2173    0.2278 H   0  0  0  0  0  0  0  0  0  0  0  0
   -2.3702    0.5450   -1.3341 H   0  0  0  0  0  0  0  0  0  0  0  0
   -3.1344    0.2618    0.2397 H   0  0  0  0  0  0  0  0  0  0  0  0
   -1.7826   -1.4990    0.8715 H   0  0  0  0  0  0  0  0  0  0  0  0
   -2.2621   -1.8305   -0.8048 H   0  0  0  0  0  0  0  0  0  0  0  0
  1  2  1  0
  2  3  1  0
  3  4  1  0
  4  5  1  0
  5  6  1  0
  6  7  1  0
  7  8  1  0
  8  9  2  0
  8  3  1  0
  1 10  1  0
  1 11  1  0
  1 12  1  0
  3 13  1  0
  4 14  1  0
  4 15  1  0
  5 16  1  0
  5 17  1  0
  6 18  1  0
  6 19  1  0
  7 20  1  0
  7 21  1  0
M  END
