
     RDKit          3D

 21 21  0  0  0  0  0  0  0  0999 V2000
    3.0400    0.7767   -0.4272 C   0  0  0  0  0  0  0  0  0  0  0  0
    1.6991    1.0127   -0.4137 O   0  0  0  0  0  0  0  0  0  0  0  0
    0.9028    0.0379    0.1173 C   0  0  0  0  0  0  0  0  0  0  0  0
   -0.0716   -0.5852   -0.8318 C   0  0  0  0  0  0  0  0  0  0  0  0
   -1.1148   -1.2898    0.0202 C   0  0  0  0  0  0  0  0  0  0  0  0
   -1.9814   -0.2078    0.6258 C   0  0  0  0  0  0  0  0  0  0  0  0
   -3.0219    0.1740   -0.2168 O   0  0  0  0  0  0  0  0  0  0  0  0
   -1.0560    0.9590    0.9331 C   0  0  0  0  0  0  0  0  0  0  0  0
    0.2360    0.5383    1.2047 O   0  0  0  0  0  0  0  0  0  0  0  0
    3.3724    0.6331    0.6427 H   0  0  0  0  0  0  0  0  0  0  0  0
    3.5523    1.7053   -0.7555 H   0  0  0  0  0  0  0  0  0  0  0  0
    3.3935   -0.0322   -1.0511 H   0  0  0  0  0  0  0  0  0  0  0  0
    1.5867   -0.8004    0.4473 H   0  0  0  0  0  0  0  0  0  0  0  0
   -0.6262    0.1677   -1.4346 H   0  0  0  0  0  0  0  0  0  0  0  0
    0.3849   -1.3813   -1.4645 H   0  0  0  0  0  0  0  0  0  0  0  0
   -0.6275   -1.8213    0.8564 H   0  0  0  0  0  0  0  0  0  0  0  0
   -1.7115   -2.0192   -0.5623 H   0  0  0  0  0  0  0  0  0  0  0  0
   -2.4268   -0.5256    1.5868 H   0  0  0  0  0  0  0  0  0  0  0  0
   -3.0076   -0.4459   -1.0096 H   0  0  0  0  0  0  0  0  0  0  0  0
   -1.0120    1.5659    0.0008 H   0  0  0  0  0  0  0  0  0  0  0  0
   -1.5106    1.5382    1.7319 H   0  0  0  0  0  0  0  0  0  0  0  0
  1  2  1  0
  2  3  1  0
  3  4  1  0
  4  5  1  0
  5  6  1  0
  6  7  1  0
  6  8  1  0
  8  9  1  0
  9  3  1  0
  1 10  1  0
  1 11  1  0
  1 12  1  0
  3 13  1  0
  4 14  1  0
  4 15  1  0
  5 16  1  0
  5 17  1  0
  6 18  1  0
  7 19  1  0
  8 20  1  0
  8 21  1  0
M  END
