
     RDKit          3D

 21 22  0  0  0  0  0  0  0  0999 V2000
   -2.6678    1.0602    0.0337 C   0  0  0  0  0  0  0  0  0  0  0  0
   -1.8098    0.2588   -0.7194 O   0  0  0  0  0  0  0  0  0  0  0  0
   -0.7611   -0.1000    0.1272 C   0  0  0  0  0  0  0  0  0  0  0  0
   -0.6720   -1.6131    0.2774 C   0  0  0  0  0  0  0  0  0  0  0  0
    0.6844   -1.7797    0.5630 O   0  0  0  0  0  0  0  0  0  0  0  0
    1.3666   -0.9902   -0.3415 C   0  0  0  0  0  0  0  0  0  0  0  0
    2.4452   -0.1059    0.2675 C   0  0  0  0  0  0  0  0  0  0  0  0
    1.4909    1.0637    0.3154 C   0  0  0  0  0  0  0  0  0  0  0  0
    0.5340    0.2512   -0.5255 C   0  0  0  0  0  0  0  0  0  0  0  0
   -3.0101    0.4348    0.8920 H   0  0  0  0  0  0  0  0  0  0  0  0
   -2.0849    1.8924    0.4722 H   0  0  0  0  0  0  0  0  0  0  0  0
   -3.5312    1.4082   -0.5645 H   0  0  0  0  0  0  0  0  0  0  0  0
   -0.8611    0.3191    1.1421 H   0  0  0  0  0  0  0  0  0  0  0  0
   -1.2949   -1.9713    1.1043 H   0  0  0  0  0  0  0  0  0  0  0  0
   -0.9678   -2.1085   -0.6622 H   0  0  0  0  0  0  0  0  0  0  0  0
    1.6622   -1.5059   -1.2754 H   0  0  0  0  0  0  0  0  0  0  0  0
    3.2421    0.0700   -0.4840 H   0  0  0  0  0  0  0  0  0  0  0  0
    2.7795   -0.4819    1.2474 H   0  0  0  0  0  0  0  0  0  0  0  0
    1.1178    1.3452    1.3034 H   0  0  0  0  0  0  0  0  0  0  0  0
    1.8414    1.9738   -0.2263 H   0  0  0  0  0  0  0  0  0  0  0  0
    0.4966    0.5792   -1.5779 H   0  0  0  0  0  0  0  0  0  0  0  0
  1  2  1  0
  2  3  1  0
  3  4  1  0
  4  5  1  0
  5  6  1  0
  6  7  1  0
  7  8  1  0
  8  9  1  0
  9  3  1  0
  9  6  1  0
  1 10  1  0
  1 11  1  0
  1 12  1  0
  3 13  1  0
  4 14  1  0
  4 15  1  0
  6 16  1  0
  7 17  1  0
  7 18  1  0
  8 19  1  0
  8 20  1  0
  9 21  1  0
M  END
