
     RDKit          3D

 19 20  0  0  0  0  0  0  0  0999 V2000
    2.7549    0.3385    0.2322 C   0  0  0  0  0  0  0  0  0  0  0  0
    1.8102   -0.6693    0.1425 O   0  0  0  0  0  0  0  0  0  0  0  0
    0.5718   -0.0815   -0.0697 C   0  0  0  0  0  0  0  0  0  0  0  0
    0.0484   -0.5140   -1.3768 C   0  0  0  0  0  0  0  0  0  0  0  0
   -1.2398   -0.7808   -1.2662 C   0  0  0  0  0  0  0  0  0  0  0  0
   -1.7151   -0.5640    0.0934 C   0  0  0  0  0  0  0  0  0  0  0  0
   -1.9376    0.8534    0.5589 C   0  0  0  0  0  0  0  0  0  0  0  0
   -1.0271    0.6216    1.6102 O   0  0  0  0  0  0  0  0  0  0  0  0
   -0.4581   -0.4617    0.9223 C   0  0  0  0  0  0  0  0  0  0  0  0
    2.7453    0.9048   -0.7219 H   0  0  0  0  0  0  0  0  0  0  0  0
    2.4346    1.0598    1.0202 H   0  0  0  0  0  0  0  0  0  0  0  0
    3.7515   -0.0907    0.4249 H   0  0  0  0  0  0  0  0  0  0  0  0
    0.6525    1.0408   -0.1134 H   0  0  0  0  0  0  0  0  0  0  0  0
    0.6482   -0.6046   -2.3246 H   0  0  0  0  0  0  0  0  0  0  0  0
   -1.8304   -1.1268   -2.1506 H   0  0  0  0  0  0  0  0  0  0  0  0
   -2.4638   -1.2967    0.4343 H   0  0  0  0  0  0  0  0  0  0  0  0
   -1.5678    1.6426   -0.1039 H   0  0  0  0  0  0  0  0  0  0  0  0
   -2.9707    1.0537    0.9003 H   0  0  0  0  0  0  0  0  0  0  0  0
   -0.2070   -1.3252    1.5379 H   0  0  0  0  0  0  0  0  0  0  0  0
  1  2  1  0
  2  3  1  0
  3  4  1  0
  4  5  2  0
  5  6  1  0
  6  7  1  0
  7  8  1  0
  8  9  1  0
  9  3  1  0
  9  6  1  0
  1 10  1  0
  1 11  1  0
  1 12  1  0
  3 13  1  0
  4 14  1  0
  5 15  1  0
  6 16  1  0
  7 17  1  0
  7 18  1  0
  9 19  1  0
M  END
