
     RDKit          3D

 21 23  0  0  0  0  0  0  0  0999 V2000
    3.0657   -0.0676   -0.3321 C   0  0  0  0  0  0  0  0  0  0  0  0
    1.9019    0.4000   -0.9426 O   0  0  0  0  0  0  0  0  0  0  0  0
    0.8323    0.0274   -0.1725 C   0  0  0  0  0  0  0  0  0  0  0  0
    0.7359    0.4885    1.2198 C   0  0  0  0  0  0  0  0  0  0  0  0
   -0.2523    0.9937    0.1940 C   0  0  0  0  0  0  0  0  0  0  0  0
   -1.2615   -0.0055   -0.2207 C   0  0  0  0  0  0  0  0  0  0  0  0
   -2.3125   -0.3952    0.7065 C   0  0  0  0  0  0  0  0  0  0  0  0
   -2.5965    0.2024   -0.6654 C   0  0  0  0  0  0  0  0  0  0  0  0
   -0.2196   -0.8667   -0.7826 C   0  0  0  0  0  0  0  0  0  0  0  0
    3.1080    0.4013    0.6737 H   0  0  0  0  0  0  0  0  0  0  0  0
    2.9914   -1.1800   -0.1511 H   0  0  0  0  0  0  0  0  0  0  0  0
    3.9769    0.1469   -0.9302 H   0  0  0  0  0  0  0  0  0  0  0  0
    1.4626    1.2226    1.5568 H   0  0  0  0  0  0  0  0  0  0  0  0
    0.2649   -0.1206    2.0197 H   0  0  0  0  0  0  0  0  0  0  0  0
   -0.2270    2.0195   -0.1585 H   0  0  0  0  0  0  0  0  0  0  0  0
   -2.4601    0.2504    1.6008 H   0  0  0  0  0  0  0  0  0  0  0  0
   -2.4844   -1.4655    0.8745 H   0  0  0  0  0  0  0  0  0  0  0  0
   -3.0611   -0.5376   -1.3594 H   0  0  0  0  0  0  0  0  0  0  0  0
   -3.1145    1.1851   -0.7028 H   0  0  0  0  0  0  0  0  0  0  0  0
   -0.1776   -0.7756   -1.9068 H   0  0  0  0  0  0  0  0  0  0  0  0
   -0.1728   -1.9233   -0.5211 H   0  0  0  0  0  0  0  0  0  0  0  0
  1  2  1  0
  2  3  1  0
  3  4  1  0
  4  5  1  0
  5  6  1  0
  6  7  1  0
  7  8  1  0
  6  9  1  0
  5  3  1  0
  8  6  1  0
  9  3  1  0
  1 10  1  0
  1 11  1  0
  1 12  1  0
  4 13  1  0
  4 14  1  0
  5 15  1  0
  7 16  1  0
  7 17  1  0
  8 18  1  0
  8 19  1  0
  9 20  1  0
  9 21  1  0
M  END
