
     RDKit          3D

 21 21  0  0  0  0  0  0  0  0999 V2000
   -2.4188    1.2544    0.3471 C   0  0  0  0  0  0  0  0  0  0  0  0
   -1.3581    0.7108   -0.3691 O   0  0  0  0  0  0  0  0  0  0  0  0
   -0.9504   -0.5114    0.1309 C   0  0  0  0  0  0  0  0  0  0  0  0
   -0.8273   -1.5095   -1.0201 C   0  0  0  0  0  0  0  0  0  0  0  0
    0.5361   -0.8884   -1.2618 C   0  0  0  0  0  0  0  0  0  0  0  0
    0.5609   -0.5924    0.2250 C   0  0  0  0  0  0  0  0  0  0  0  0
    1.2185    0.6805    0.5961 C   0  0  0  0  0  0  0  0  0  0  0  0
    2.7006    0.6862    0.7100 C   0  0  0  0  0  0  0  0  0  0  0  0
    0.5817    1.6722    0.7980 O   0  0  0  0  0  0  0  0  0  0  0  0
   -2.0856    1.3936    1.4063 H   0  0  0  0  0  0  0  0  0  0  0  0
   -3.2988    0.5650    0.2987 H   0  0  0  0  0  0  0  0  0  0  0  0
   -2.7312    2.2333   -0.0313 H   0  0  0  0  0  0  0  0  0  0  0  0
   -1.4991   -0.8904    1.0065 H   0  0  0  0  0  0  0  0  0  0  0  0
   -1.5530   -1.3726   -1.8267 H   0  0  0  0  0  0  0  0  0  0  0  0
   -0.7797   -2.5359   -0.5928 H   0  0  0  0  0  0  0  0  0  0  0  0
    1.3084   -1.6007   -1.6073 H   0  0  0  0  0  0  0  0  0  0  0  0
    0.4183    0.0270   -1.8561 H   0  0  0  0  0  0  0  0  0  0  0  0
    0.8439   -1.4512    0.8501 H   0  0  0  0  0  0  0  0  0  0  0  0
    3.1621    1.2751   -0.1280 H   0  0  0  0  0  0  0  0  0  0  0  0
    3.1238   -0.3280    0.6864 H   0  0  0  0  0  0  0  0  0  0  0  0
    3.0477    1.1827    1.6379 H   0  0  0  0  0  0  0  0  0  0  0  0
  1  2  1  0
  2  3  1  0
  3  4  1  0
  4  5  1  0
  5  6  1  0
  6  7  1  0
  7  8  1  0
  7  9  2  0
  6  3  1  0
  1 10  1  0
  1 11  1  0
  1 12  1  0
  3 13  1  0
  4 14  1  0
  4 15  1  0
  5 16  1  0
  5 17  1  0
  6 18  1  0
  8 19  1  0
  8 20  1  0
  8 21  1  0
M  END
