
     RDKit          2D

 17 20  0  0  0  0  0  0  0  0999 V2000
   -1.0607   -4.7194    0.0000 C   0  0  0  0  0  0  0  0  0  0  0  0
   -0.3107   -3.4204    0.0000 O   0  0  0  0  0  0  0  0  0  0  0  0
   -1.0607   -2.1213    0.0000 C   0  0  0  0  0  0  0  0  0  0  0  0
   -0.0000   -1.0607    0.0000 C   0  0  0  0  0  0  0  0  0  0  0  0
    1.0607    0.0000    0.0000 O   0  0  0  0  0  0  0  0  0  0  0  0
    0.0000    1.0607    0.0000 C   0  0  0  0  0  0  0  0  0  0  0  0
   -1.0607    0.0000    0.0000 C   0  0  0  0  0  0  0  0  0  0  0  0
   -2.1213   -1.0607    0.0000 C   0  0  0  0  0  0  0  0  0  0  0  0
   -2.5095   -2.5095    0.0000 C   0  0  0  0  0  0  0  0  0  0  0  0
   -1.8107   -6.0184    0.0000 H   0  0  0  0  0  0  0  0  0  0  0  0
    0.2384   -5.4694    0.0000 H   0  0  0  0  0  0  0  0  0  0  0  0
   -2.3597   -3.9694    0.0000 H   0  0  0  0  0  0  0  0  0  0  0  0
    1.0607   -2.1213    0.0000 H   0  0  0  0  0  0  0  0  0  0  0  0
    0.0000    2.5607    0.0000 H   0  0  0  0  0  0  0  0  0  0  0  0
   -2.1213    1.0607    0.0000 H   0  0  0  0  0  0  0  0  0  0  0  0
   -3.4204   -0.3107    0.0000 H   0  0  0  0  0  0  0  0  0  0  0  0
   -3.5702   -3.5702    0.0000 H   0  0  0  0  0  0  0  0  0  0  0  0
  1  2  1  0
  2  3  1  0
  3  4  1  0
  4  5  1  0
  5  6  1  0
  6  7  1  0
  7  8  1  0
  8  9  1  0
  8  3  1  0
  9  3  1  0
  7  4  1  0
  9  6  1  0
  1 10  1  0
  1 11  1  0
  1 12  1  0
  4 13  1  0
  6 14  1  0
  7 15  1  0
  8 16  1  0
  9 17  1  0
M  END
