
     RDKit          3D

 20 20  0  0  0  0  0  0  0  0999 V2000
   -2.9661   -0.9321   -0.2536 C   0  0  0  0  0  0  0  0  0  0  0  0
   -2.2432    0.1071    0.2777 O   0  0  0  0  0  0  0  0  0  0  0  0
   -0.9136    0.0665    0.1831 C   0  0  0  0  0  0  0  0  0  0  0  0
   -0.0992    0.2231    1.4578 C   0  0  0  0  0  0  0  0  0  0  0  0
    1.0112    0.6945    0.5185 C   0  0  0  0  0  0  0  0  0  0  0  0
    1.5871   -0.4231   -0.0615 O   0  0  0  0  0  0  0  0  0  0  0  0
    2.9779   -0.3856   -0.0373 C   0  0  0  0  0  0  0  0  0  0  0  0
   -0.1428    1.2424   -0.3399 C   0  0  0  0  0  0  0  0  0  0  0  0
   -2.8281   -1.0868   -1.3273 H   0  0  0  0  0  0  0  0  0  0  0  0
   -4.0496   -0.7016   -0.1033 H   0  0  0  0  0  0  0  0  0  0  0  0
   -2.7870   -1.8750    0.3132 H   0  0  0  0  0  0  0  0  0  0  0  0
   -0.5573   -0.8630   -0.3465 H   0  0  0  0  0  0  0  0  0  0  0  0
   -0.4779    0.9872    2.1449 H   0  0  0  0  0  0  0  0  0  0  0  0
    0.1555   -0.7359    1.9490 H   0  0  0  0  0  0  0  0  0  0  0  0
    1.6731    1.4565    0.9175 H   0  0  0  0  0  0  0  0  0  0  0  0
    3.2980    0.5043   -0.5928 H   0  0  0  0  0  0  0  0  0  0  0  0
    3.3302   -1.3396   -0.4812 H   0  0  0  0  0  0  0  0  0  0  0  0
    3.3684   -0.3604    1.0027 H   0  0  0  0  0  0  0  0  0  0  0  0
   -0.4097    2.2255    0.0689 H   0  0  0  0  0  0  0  0  0  0  0  0
    0.0730    1.1959   -1.4204 H   0  0  0  0  0  0  0  0  0  0  0  0
  1  2  1  0
  2  3  1  0
  3  4  1  0
  4  5  1  0
  5  6  1  0
  6  7  1  0
  5  8  1  0
  8  3  1  0
  1  9  1  0
  1 10  1  0
  1 11  1  0
  3 12  1  0
  4 13  1  0
  4 14  1  0
  5 15  1  0
  7 16  1  0
  7 17  1  0
  7 18  1  0
  8 19  1  0
  8 20  1  0
M  END
