
     RDKit          3D

 19 19  0  0  0  0  0  0  0  0999 V2000
    2.7219    0.1171    0.3593 C   0  0  0  0  0  0  0  0  0  0  0  0
    1.4206    0.4722    0.6722 O   0  0  0  0  0  0  0  0  0  0  0  0
    0.5596   -0.2473   -0.1489 C   0  0  0  0  0  0  0  0  0  0  0  0
   -0.3608   -1.0787    0.7415 C   0  0  0  0  0  0  0  0  0  0  0  0
   -1.7886   -0.9692    0.3506 C   0  0  0  0  0  0  0  0  0  0  0  0
   -2.3289    0.1106   -0.1745 C   0  0  0  0  0  0  0  0  0  0  0  0
   -1.4479    1.2818   -0.3835 C   0  0  0  0  0  0  0  0  0  0  0  0
   -0.1840    0.7530   -0.9517 C   0  0  0  0  0  0  0  0  0  0  0  0
    0.1817    1.1555   -2.0324 O   0  0  0  0  0  0  0  0  0  0  0  0
    2.9883    0.3314   -0.6961 H   0  0  0  0  0  0  0  0  0  0  0  0
    3.4024    0.7310    0.9912 H   0  0  0  0  0  0  0  0  0  0  0  0
    2.8740   -0.9571    0.5386 H   0  0  0  0  0  0  0  0  0  0  0  0
    1.1643   -0.8915   -0.8106 H   0  0  0  0  0  0  0  0  0  0  0  0
   -0.0189   -2.1289    0.6553 H   0  0  0  0  0  0  0  0  0  0  0  0
   -0.2309   -0.7745    1.8148 H   0  0  0  0  0  0  0  0  0  0  0  0
   -2.4349   -1.8429    0.5091 H   0  0  0  0  0  0  0  0  0  0  0  0
   -3.3594    0.1782   -0.4523 H   0  0  0  0  0  0  0  0  0  0  0  0
   -1.9093    2.0503   -1.0359 H   0  0  0  0  0  0  0  0  0  0  0  0
   -1.2492    1.7090    0.6294 H   0  0  0  0  0  0  0  0  0  0  0  0
  1  2  1  0
  2  3  1  0
  3  4  1  0
  4  5  1  0
  5  6  2  0
  6  7  1  0
  7  8  1  0
  8  9  2  0
  8  3  1  0
  1 10  1  0
  1 11  1  0
  1 12  1  0
  3 13  1  0
  4 14  1  0
  4 15  1  0
  5 16  1  0
  6 17  1  0
  7 18  1  0
  7 19  1  0
M  END
