
     RDKit          3D

 21 22  0  0  0  0  0  0  0  0999 V2000
   -1.6458    1.8107    0.1403 C   0  0  0  0  0  0  0  0  0  0  0  0
   -1.4865    0.6266    0.8070 O   0  0  0  0  0  0  0  0  0  0  0  0
   -0.7394   -0.2114    0.2564 C   0  0  0  0  0  0  0  0  0  0  0  0
   -0.9387   -0.8292   -1.1230 C   0  0  0  0  0  0  0  0  0  0  0  0
    0.3719   -1.4091   -0.6310 C   0  0  0  0  0  0  0  0  0  0  0  0
   -0.3616   -1.5814    0.6666 C   0  0  0  0  0  0  0  0  0  0  0  0
    0.6793   -0.0292   -0.2020 C   0  0  0  0  0  0  0  0  0  0  0  0
    1.7247    0.2048    0.8312 C   0  0  0  0  0  0  0  0  0  0  0  0
    2.9454    0.3431    0.1214 O   0  0  0  0  0  0  0  0  0  0  0  0
   -2.0899    1.6132   -0.8759 H   0  0  0  0  0  0  0  0  0  0  0  0
   -0.6970    2.3417   -0.0548 H   0  0  0  0  0  0  0  0  0  0  0  0
   -2.3922    2.4601    0.6718 H   0  0  0  0  0  0  0  0  0  0  0  0
   -1.7624   -1.5374   -1.2087 H   0  0  0  0  0  0  0  0  0  0  0  0
   -0.7608   -0.1247   -1.9393 H   0  0  0  0  0  0  0  0  0  0  0  0
    0.9336   -2.0807   -1.1111 H   0  0  0  0  0  0  0  0  0  0  0  0
   -1.2403   -2.2824    0.5273 H   0  0  0  0  0  0  0  0  0  0  0  0
    0.2131   -1.7583    1.5689 H   0  0  0  0  0  0  0  0  0  0  0  0
    0.7594    0.6392   -1.1122 H   0  0  0  0  0  0  0  0  0  0  0  0
    1.5903    1.1714    1.3720 H   0  0  0  0  0  0  0  0  0  0  0  0
    1.8771   -0.6429    1.5021 H   0  0  0  0  0  0  0  0  0  0  0  0
    3.0197    1.2759   -0.2071 H   0  0  0  0  0  0  0  0  0  0  0  0
  1  2  1  0
  2  3  1  0
  3  4  1  0
  4  5  1  0
  5  6  1  0
  5  7  1  0
  7  8  1  0
  8  9  1  0
  6  3  1  0
  7  3  1  0
  1 10  1  0
  1 11  1  0
  1 12  1  0
  4 13  1  0
  4 14  1  0
  5 15  1  0
  6 16  1  0
  6 17  1  0
  7 18  1  0
  8 19  1  0
  8 20  1  0
  9 21  1  0
M  END
