
     RDKit          3D

 19 20  0  0  0  0  0  0  0  0999 V2000
    2.9518   -0.2056    0.1994 C   0  0  0  0  0  0  0  0  0  0  0  0
    1.8725    0.4993   -0.3332 O   0  0  0  0  0  0  0  0  0  0  0  0
    0.7246   -0.2213   -0.0343 C   0  0  0  0  0  0  0  0  0  0  0  0
   -0.2681   -0.2969   -1.1526 C   0  0  0  0  0  0  0  0  0  0  0  0
   -0.4896    0.8325   -1.9232 O   0  0  0  0  0  0  0  0  0  0  0  0
   -1.0292    1.5282   -0.8360 C   0  0  0  0  0  0  0  0  0  0  0  0
   -0.5963    0.4320    0.0839 C   0  0  0  0  0  0  0  0  0  0  0  0
   -1.6330   -0.1802    0.9883 C   0  0  0  0  0  0  0  0  0  0  0  0
   -1.9467   -1.4746    0.5910 O   0  0  0  0  0  0  0  0  0  0  0  0
    3.9202    0.2880    0.0143 H   0  0  0  0  0  0  0  0  0  0  0  0
    2.7640   -0.2460    1.3091 H   0  0  0  0  0  0  0  0  0  0  0  0
    2.9340   -1.2701   -0.1336 H   0  0  0  0  0  0  0  0  0  0  0  0
    0.8223   -1.1798    0.5405 H   0  0  0  0  0  0  0  0  0  0  0  0
   -0.6953   -1.2626   -1.4273 H   0  0  0  0  0  0  0  0  0  0  0  0
   -0.5506    2.5009   -0.6284 H   0  0  0  0  0  0  0  0  0  0  0  0
   -2.1362    1.6502   -0.8748 H   0  0  0  0  0  0  0  0  0  0  0  0
   -1.2134   -0.2513    2.0259 H   0  0  0  0  0  0  0  0  0  0  0  0
   -2.5101    0.4970    0.9909 H   0  0  0  0  0  0  0  0  0  0  0  0
   -2.9210   -1.6398    0.6000 H   0  0  0  0  0  0  0  0  0  0  0  0
  1  2  1  0
  2  3  1  0
  3  4  1  0
  4  5  1  0
  5  6  1  0
  6  7  1  0
  7  8  1  0
  8  9  1  0
  7  3  1  0
  7  4  1  0
  1 10  1  0
  1 11  1  0
  1 12  1  0
  3 13  1  0
  4 14  1  0
  6 15  1  0
  6 16  1  0
  8 17  1  0
  8 18  1  0
  9 19  1  0
M  END
