
     RDKit          3D

 23 24  0  0  0  0  0  0  0  0999 V2000
    2.9513   -0.6354   -0.4705 C   0  0  0  0  0  0  0  0  0  0  0  0
    1.6938   -0.1194   -0.7072 O   0  0  0  0  0  0  0  0  0  0  0  0
    0.8890   -0.1058    0.4377 C   0  0  0  0  0  0  0  0  0  0  0  0
    0.0863    1.1201    0.7482 C   0  0  0  0  0  0  0  0  0  0  0  0
   -0.0099    2.2235   -0.3010 C   0  0  0  0  0  0  0  0  0  0  0  0
   -0.5405   -0.1399    0.3439 C   0  0  0  0  0  0  0  0  0  0  0  0
   -1.5094   -0.8571    1.1857 C   0  0  0  0  0  0  0  0  0  0  0  0
   -2.0972   -1.4459   -0.0963 C   0  0  0  0  0  0  0  0  0  0  0  0
   -1.3572   -0.3407   -0.8630 C   0  0  0  0  0  0  0  0  0  0  0  0
    3.5147   -0.6128   -1.4032 H   0  0  0  0  0  0  0  0  0  0  0  0
    3.5031   -0.0314    0.2923 H   0  0  0  0  0  0  0  0  0  0  0  0
    2.9431   -1.6777   -0.0993 H   0  0  0  0  0  0  0  0  0  0  0  0
    1.4266   -0.5209    1.3356 H   0  0  0  0  0  0  0  0  0  0  0  0
   -0.0520    1.4236    1.8082 H   0  0  0  0  0  0  0  0  0  0  0  0
    0.2848    3.1652    0.1645 H   0  0  0  0  0  0  0  0  0  0  0  0
    0.5841    1.9798   -1.1991 H   0  0  0  0  0  0  0  0  0  0  0  0
   -1.0888    2.2917   -0.5537 H   0  0  0  0  0  0  0  0  0  0  0  0
   -1.1580   -1.5961    1.9113 H   0  0  0  0  0  0  0  0  0  0  0  0
   -2.2728   -0.1329    1.5978 H   0  0  0  0  0  0  0  0  0  0  0  0
   -1.6730   -2.4362   -0.2590 H   0  0  0  0  0  0  0  0  0  0  0  0
   -3.1953   -1.3519   -0.1808 H   0  0  0  0  0  0  0  0  0  0  0  0
   -2.0729    0.5007   -1.0788 H   0  0  0  0  0  0  0  0  0  0  0  0
   -0.8498   -0.7005   -1.7650 H   0  0  0  0  0  0  0  0  0  0  0  0
  1  2  1  0
  2  3  1  0
  3  4  1  0
  4  5  1  0
  4  6  1  0
  6  7  1  0
  7  8  1  0
  8  9  1  0
  6  3  1  0
  9  6  1  0
  1 10  1  0
  1 11  1  0
  1 12  1  0
  3 13  1  0
  4 14  1  0
  5 15  1  0
  5 16  1  0
  5 17  1  0
  7 18  1  0
  7 19  1  0
  8 20  1  0
  8 21  1  0
  9 22  1  0
  9 23  1  0
M  END
