
     RDKit          3D

 19 21  0  0  0  0  0  0  0  0999 V2000
   -2.2176   -0.9117   -0.4424 C   0  0  0  0  0  0  0  0  0  0  0  0
   -0.9734   -0.9300    0.1754 O   0  0  0  0  0  0  0  0  0  0  0  0
   -0.2918    0.2476    0.0829 C   0  0  0  0  0  0  0  0  0  0  0  0
   -0.7816    1.5313    0.6121 C   0  0  0  0  0  0  0  0  0  0  0  0
    0.1895    0.7805    1.4501 C   0  0  0  0  0  0  0  0  0  0  0  0
    1.5810    0.5942    0.9491 C   0  0  0  0  0  0  0  0  0  0  0  0
    1.9671    1.3092   -0.1481 O   0  0  0  0  0  0  0  0  0  0  0  0
    1.1383    0.2480   -0.3827 C   0  0  0  0  0  0  0  0  0  0  0  0
    1.6762   -0.8818   -1.1929 C   0  0  0  0  0  0  0  0  0  0  0  0
   -2.6833   -1.9082   -0.3095 H   0  0  0  0  0  0  0  0  0  0  0  0
   -2.8831   -0.1966    0.1028 H   0  0  0  0  0  0  0  0  0  0  0  0
   -2.1833   -0.6758   -1.5089 H   0  0  0  0  0  0  0  0  0  0  0  0
   -0.3547    2.4413    0.1263 H   0  0  0  0  0  0  0  0  0  0  0  0
   -1.8363    1.5820    0.8901 H   0  0  0  0  0  0  0  0  0  0  0  0
   -0.1721    0.2943    2.3543 H   0  0  0  0  0  0  0  0  0  0  0  0
    2.2620   -0.0982    1.4708 H   0  0  0  0  0  0  0  0  0  0  0  0
    2.5650   -1.3042   -0.6405 H   0  0  0  0  0  0  0  0  0  0  0  0
    0.9482   -1.6593   -1.4349 H   0  0  0  0  0  0  0  0  0  0  0  0
    2.0499   -0.4626   -2.1542 H   0  0  0  0  0  0  0  0  0  0  0  0
  1  2  1  0
  2  3  1  0
  3  4  1  0
  4  5  1  0
  5  6  1  0
  6  7  1  0
  7  8  1  0
  8  9  1  0
  5  3  1  0
  8  6  1  0
  8  3  1  0
  1 10  1  0
  1 11  1  0
  1 12  1  0
  4 13  1  0
  4 14  1  0
  5 15  1  0
  6 16  1  0
  9 17  1  0
  9 18  1  0
  9 19  1  0
M  END
