
     RDKit          3D

 17 18  0  0  0  0  0  0  0  0999 V2000
    2.2572    0.2035   -0.3294 C   0  0  0  0  0  0  0  0  0  0  0  0
    0.9911    0.6660   -0.1308 O   0  0  0  0  0  0  0  0  0  0  0  0
   -0.0033   -0.3372   -0.2894 C   0  0  0  0  0  0  0  0  0  0  0  0
    0.1035   -1.4208    0.5901 C   0  0  0  0  0  0  0  0  0  0  0  0
   -0.9430   -0.5403    0.9738 C   0  0  0  0  0  0  0  0  0  0  0  0
   -1.0358    0.7872    1.2237 O   0  0  0  0  0  0  0  0  0  0  0  0
   -1.6211    1.2423    0.0080 C   0  0  0  0  0  0  0  0  0  0  0  0
   -1.0921    0.2751   -1.0418 C   0  0  0  0  0  0  0  0  0  0  0  0
   -1.5611    0.1761   -2.1323 O   0  0  0  0  0  0  0  0  0  0  0  0
    2.4914   -0.5995    0.3919 H   0  0  0  0  0  0  0  0  0  0  0  0
    2.4769   -0.0914   -1.3778 H   0  0  0  0  0  0  0  0  0  0  0  0
    2.9836    1.0208   -0.1019 H   0  0  0  0  0  0  0  0  0  0  0  0
    0.9426   -1.4848    1.3407 H   0  0  0  0  0  0  0  0  0  0  0  0
   -0.1266   -2.4424    0.2231 H   0  0  0  0  0  0  0  0  0  0  0  0
   -1.9807   -0.9381    0.7535 H   0  0  0  0  0  0  0  0  0  0  0  0
   -1.1747    2.2507   -0.1522 H   0  0  0  0  0  0  0  0  0  0  0  0
   -2.7078    1.2328    0.0508 H   0  0  0  0  0  0  0  0  0  0  0  0
  1  2  1  0
  2  3  1  0
  3  4  1  0
  4  5  1  0
  5  6  1  0
  6  7  1  0
  7  8  1  0
  8  9  2  0
  5  3  1  0
  8  3  1  0
  1 10  1  0
  1 11  1  0
  1 12  1  0
  4 13  1  0
  4 14  1  0
  5 15  1  0
  7 16  1  0
  7 17  1  0
M  END
