
     RDKit          3D

 21 22  0  0  0  0  0  0  0  0999 V2000
    1.7367   -1.3713    0.3926 C   0  0  0  0  0  0  0  0  0  0  0  0
    1.6786   -0.0099    0.2578 O   0  0  0  0  0  0  0  0  0  0  0  0
    0.4393    0.5036    0.0054 C   0  0  0  0  0  0  0  0  0  0  0  0
    0.5492    2.0146   -0.1152 C   0  0  0  0  0  0  0  0  0  0  0  0
   -0.5472    0.2200    1.1154 C   0  0  0  0  0  0  0  0  0  0  0  0
   -1.6584   -0.6003    0.5177 C   0  0  0  0  0  0  0  0  0  0  0  0
   -2.5333    0.0323   -0.3830 O   0  0  0  0  0  0  0  0  0  0  0  0
   -1.4022   -0.8331   -0.7977 C   0  0  0  0  0  0  0  0  0  0  0  0
   -0.2155   -0.0049   -1.2352 C   0  0  0  0  0  0  0  0  0  0  0  0
    1.1247   -1.7833    1.2077 H   0  0  0  0  0  0  0  0  0  0  0  0
    1.4908   -1.8355   -0.5978 H   0  0  0  0  0  0  0  0  0  0  0  0
    2.7853   -1.6691    0.6004 H   0  0  0  0  0  0  0  0  0  0  0  0
    0.3349    2.3547   -1.1572 H   0  0  0  0  0  0  0  0  0  0  0  0
   -0.0692    2.5435    0.6371 H   0  0  0  0  0  0  0  0  0  0  0  0
    1.6073    2.3527    0.0769 H   0  0  0  0  0  0  0  0  0  0  0  0
   -1.0151    1.1450    1.5163 H   0  0  0  0  0  0  0  0  0  0  0  0
   -0.1058   -0.3366    1.9523 H   0  0  0  0  0  0  0  0  0  0  0  0
   -2.2032   -1.2766    1.2141 H   0  0  0  0  0  0  0  0  0  0  0  0
   -1.7944   -1.6177   -1.4753 H   0  0  0  0  0  0  0  0  0  0  0  0
   -0.6255    0.8179   -1.8673 H   0  0  0  0  0  0  0  0  0  0  0  0
    0.4229   -0.6459   -1.8648 H   0  0  0  0  0  0  0  0  0  0  0  0
  1  2  1  0
  2  3  1  0
  3  4  1  0
  3  5  1  0
  5  6  1  0
  6  7  1  0
  7  8  1  0
  8  9  1  0
  9  3  1  0
  8  6  1  0
  1 10  1  0
  1 11  1  0
  1 12  1  0
  4 13  1  0
  4 14  1  0
  4 15  1  0
  5 16  1  0
  5 17  1  0
  6 18  1  0
  8 19  1  0
  9 20  1  0
  9 21  1  0
M  END
