
     RDKit          3D

 21 21  0  0  0  0  0  0  0  0999 V2000
   -3.4391    0.4354   -0.2707 C   0  0  0  0  0  0  0  0  0  0  0  0
   -2.5012   -0.0564    0.6223 O   0  0  0  0  0  0  0  0  0  0  0  0
   -1.4613   -0.7200    0.0453 C   0  0  0  0  0  0  0  0  0  0  0  0
   -0.6634   -1.7544    0.7294 C   0  0  0  0  0  0  0  0  0  0  0  0
   -0.0871   -0.3628    0.6356 C   0  0  0  0  0  0  0  0  0  0  0  0
    0.9177   -0.1014   -0.2844 O   0  0  0  0  0  0  0  0  0  0  0  0
    1.8371    0.8346    0.1769 C   0  0  0  0  0  0  0  0  0  0  0  0
    2.8715    1.0267   -0.9141 C   0  0  0  0  0  0  0  0  0  0  0  0
    3.4646   -0.2235   -1.1297 O   0  0  0  0  0  0  0  0  0  0  0  0
   -2.8808    1.1493   -0.9458 H   0  0  0  0  0  0  0  0  0  0  0  0
   -4.1764    1.0631    0.2589 H   0  0  0  0  0  0  0  0  0  0  0  0
   -3.9503   -0.3290   -0.8602 H   0  0  0  0  0  0  0  0  0  0  0  0
   -1.5195   -0.7699   -1.0771 H   0  0  0  0  0  0  0  0  0  0  0  0
   -0.1349   -2.4901    0.0825 H   0  0  0  0  0  0  0  0  0  0  0  0
   -0.9216   -2.1610    1.7201 H   0  0  0  0  0  0  0  0  0  0  0  0
   -0.0496    0.1726    1.5843 H   0  0  0  0  0  0  0  0  0  0  0  0
    1.3767    1.7833    0.4917 H   0  0  0  0  0  0  0  0  0  0  0  0
    2.3663    0.3562    1.0487 H   0  0  0  0  0  0  0  0  0  0  0  0
    2.3498    1.3251   -1.8315 H   0  0  0  0  0  0  0  0  0  0  0  0
    3.6447    1.7808   -0.5964 H   0  0  0  0  0  0  0  0  0  0  0  0
    2.9567   -0.9585   -0.7141 H   0  0  0  0  0  0  0  0  0  0  0  0
  1  2  1  0
  2  3  1  0
  3  4  1  0
  4  5  1  0
  5  6  1  0
  6  7  1  0
  7  8  1  0
  8  9  1  0
  5  3  1  0
  1 10  1  0
  1 11  1  0
  1 12  1  0
  3 13  1  0
  4 14  1  0
  4 15  1  0
  5 16  1  0
  7 17  1  0
  7 18  1  0
  8 19  1  0
  8 20  1  0
  9 21  1  0
M  END
