
     RDKit          3D

 19 21  0  0  0  0  0  0  0  0999 V2000
    3.0120    0.0584    0.0158 C   0  0  0  0  0  0  0  0  0  0  0  0
    1.8441    0.2461   -0.7142 O   0  0  0  0  0  0  0  0  0  0  0  0
    0.7012    0.0049    0.0225 C   0  0  0  0  0  0  0  0  0  0  0  0
   -0.3549    1.0548   -0.0917 C   0  0  0  0  0  0  0  0  0  0  0  0
   -0.6692    0.5007   -1.3528 O   0  0  0  0  0  0  0  0  0  0  0  0
   -0.3365   -0.7382   -0.7630 C   0  0  0  0  0  0  0  0  0  0  0  0
   -1.4634   -0.9369    0.2129 C   0  0  0  0  0  0  0  0  0  0  0  0
   -2.6601   -0.0695    0.0733 C   0  0  0  0  0  0  0  0  0  0  0  0
   -1.4961    0.5403    0.7507 C   0  0  0  0  0  0  0  0  0  0  0  0
    3.8669    0.2710   -0.6452 H   0  0  0  0  0  0  0  0  0  0  0  0
    3.0973   -0.9369    0.4641 H   0  0  0  0  0  0  0  0  0  0  0  0
    3.0276    0.8554    0.8035 H   0  0  0  0  0  0  0  0  0  0  0  0
    0.8499   -0.2965    1.0631 H   0  0  0  0  0  0  0  0  0  0  0  0
   -0.1009    2.0876   -0.0556 H   0  0  0  0  0  0  0  0  0  0  0  0
   -0.0498   -1.5337   -1.4114 H   0  0  0  0  0  0  0  0  0  0  0  0
   -1.4022   -1.7138    0.9917 H   0  0  0  0  0  0  0  0  0  0  0  0
   -2.8522    0.3117   -0.9678 H   0  0  0  0  0  0  0  0  0  0  0  0
   -3.5262   -0.3607    0.6757 H   0  0  0  0  0  0  0  0  0  0  0  0
   -1.4877    0.6555    1.8377 H   0  0  0  0  0  0  0  0  0  0  0  0
  1  2  1  0
  2  3  1  0
  3  4  1  0
  4  5  1  0
  5  6  1  0
  6  7  1  0
  7  8  1  0
  8  9  1  0
  6  3  1  0
  9  7  1  0
  9  4  1  0
  1 10  1  0
  1 11  1  0
  1 12  1  0
  3 13  1  0
  4 14  1  0
  6 15  1  0
  7 16  1  0
  8 17  1  0
  8 18  1  0
  9 19  1  0
M  END
