
     RDKit          3D

 19 21  0  0  0  0  0  0  0  0999 V2000
    2.6578   -0.1246   -0.3004 C   0  0  0  0  0  0  0  0  0  0  0  0
    1.4435   -0.2072   -0.9005 O   0  0  0  0  0  0  0  0  0  0  0  0
    0.3737    0.2351   -0.3079 C   0  0  0  0  0  0  0  0  0  0  0  0
   -0.2899   -0.1000    0.9394 C   0  0  0  0  0  0  0  0  0  0  0  0
   -1.6240   -0.7562    0.5587 C   0  0  0  0  0  0  0  0  0  0  0  0
   -1.6938   -0.5908   -0.9283 C   0  0  0  0  0  0  0  0  0  0  0  0
   -0.8230    0.5871   -1.2472 C   0  0  0  0  0  0  0  0  0  0  0  0
   -0.2900    1.4977   -0.2335 C   0  0  0  0  0  0  0  0  0  0  0  0
   -0.5574    1.2804    1.1184 O   0  0  0  0  0  0  0  0  0  0  0  0
    2.9983    0.8897   -0.0494 H   0  0  0  0  0  0  0  0  0  0  0  0
    3.4213   -0.5927   -0.9852 H   0  0  0  0  0  0  0  0  0  0  0  0
    2.6594   -0.8019    0.6010 H   0  0  0  0  0  0  0  0  0  0  0  0
    0.2333   -0.5741    1.7608 H   0  0  0  0  0  0  0  0  0  0  0  0
   -2.4824   -0.1856    0.9929 H   0  0  0  0  0  0  0  0  0  0  0  0
   -1.6557   -1.8068    0.8762 H   0  0  0  0  0  0  0  0  0  0  0  0
   -2.7125   -0.5184   -1.3266 H   0  0  0  0  0  0  0  0  0  0  0  0
   -1.1851   -1.4956   -1.3735 H   0  0  0  0  0  0  0  0  0  0  0  0
   -0.5488    0.7906   -2.2944 H   0  0  0  0  0  0  0  0  0  0  0  0
    0.0754    2.4734   -0.5705 H   0  0  0  0  0  0  0  0  0  0  0  0
  1  2  1  0
  2  3  1  0
  3  4  1  0
  4  5  1  0
  5  6  1  0
  6  7  1  0
  7  8  1  0
  8  9  1  0
  7  3  1  0
  8  3  1  0
  9  4  1  0
  1 10  1  0
  1 11  1  0
  1 12  1  0
  4 13  1  0
  5 14  1  0
  5 15  1  0
  6 16  1  0
  6 17  1  0
  7 18  1  0
  8 19  1  0
M  END
