
     RDKit          3D

 19 20  0  0  0  0  0  0  0  0999 V2000
    2.8321    0.0899   -0.4854 C   0  0  0  0  0  0  0  0  0  0  0  0
    1.6744    0.3261    0.2704 O   0  0  0  0  0  0  0  0  0  0  0  0
    0.5341    0.1727   -0.5037 C   0  0  0  0  0  0  0  0  0  0  0  0
   -0.1858    1.3615   -0.4144 O   0  0  0  0  0  0  0  0  0  0  0  0
   -1.4038    1.0631    0.1865 C   0  0  0  0  0  0  0  0  0  0  0  0
   -2.1198    0.1342   -0.7240 C   0  0  0  0  0  0  0  0  0  0  0  0
   -1.5238   -1.0611   -0.6761 C   0  0  0  0  0  0  0  0  0  0  0  0
   -0.3279   -0.8733    0.1838 C   0  0  0  0  0  0  0  0  0  0  0  0
   -0.9345    0.0540    1.2535 C   0  0  0  0  0  0  0  0  0  0  0  0
    2.7611   -0.9588   -0.8607 H   0  0  0  0  0  0  0  0  0  0  0  0
    3.7296    0.1997    0.1512 H   0  0  0  0  0  0  0  0  0  0  0  0
    2.8088    0.8329   -1.3139 H   0  0  0  0  0  0  0  0  0  0  0  0
    0.7679   -0.1029   -1.5526 H   0  0  0  0  0  0  0  0  0  0  0  0
   -1.9527    1.8818    0.5738 H   0  0  0  0  0  0  0  0  0  0  0  0
   -2.9810    0.4227   -1.3118 H   0  0  0  0  0  0  0  0  0  0  0  0
   -1.9057   -1.9178   -1.1862 H   0  0  0  0  0  0  0  0  0  0  0  0
    0.1592   -1.7323    0.5537 H   0  0  0  0  0  0  0  0  0  0  0  0
   -1.7671   -0.4082    1.7747 H   0  0  0  0  0  0  0  0  0  0  0  0
   -0.1651    0.5158    1.8743 H   0  0  0  0  0  0  0  0  0  0  0  0
  1  2  1  0
  2  3  1  0
  3  4  1  0
  4  5  1  0
  5  6  1  0
  6  7  2  0
  7  8  1  0
  8  9  1  0
  8  3  1  0
  9  5  1  0
  1 10  1  0
  1 11  1  0
  1 12  1  0
  3 13  1  0
  5 14  1  0
  6 15  1  0
  7 16  1  0
  8 17  1  0
  9 18  1  0
  9 19  1  0
M  END
