
     RDKit          3D

 21 21  0  0  0  0  0  0  0  0999 V2000
   -3.0986    0.6323    0.0449 C   0  0  0  0  0  0  0  0  0  0  0  0
   -2.3314   -0.3983   -0.4964 O   0  0  0  0  0  0  0  0  0  0  0  0
   -1.0528   -0.2339   -0.0548 C   0  0  0  0  0  0  0  0  0  0  0  0
   -0.4996   -1.4142    0.7033 C   0  0  0  0  0  0  0  0  0  0  0  0
    0.9059   -1.0592    1.0505 C   0  0  0  0  0  0  0  0  0  0  0  0
    1.5306   -0.0979    0.3823 C   0  0  0  0  0  0  0  0  0  0  0  0
    2.9466    0.3054    0.6854 C   0  0  0  0  0  0  0  0  0  0  0  0
    0.8766    0.6671   -0.7314 C   0  0  0  0  0  0  0  0  0  0  0  0
   -0.2278   -0.0834   -1.1951 O   0  0  0  0  0  0  0  0  0  0  0  0
   -2.6695    1.6148   -0.3112 H   0  0  0  0  0  0  0  0  0  0  0  0
   -4.1550    0.5805   -0.2230 H   0  0  0  0  0  0  0  0  0  0  0  0
   -2.9654    0.5795    1.1596 H   0  0  0  0  0  0  0  0  0  0  0  0
   -0.9427    0.6497    0.6041 H   0  0  0  0  0  0  0  0  0  0  0  0
   -1.1046   -1.6721    1.5882 H   0  0  0  0  0  0  0  0  0  0  0  0
   -0.4733   -2.2781   -0.0002 H   0  0  0  0  0  0  0  0  0  0  0  0
    1.4608   -1.5563    1.8398 H   0  0  0  0  0  0  0  0  0  0  0  0
    2.9394    1.4117    0.8087 H   0  0  0  0  0  0  0  0  0  0  0  0
    3.3639   -0.2312    1.5344 H   0  0  0  0  0  0  0  0  0  0  0  0
    3.5059    0.1229   -0.2769 H   0  0  0  0  0  0  0  0  0  0  0  0
    1.5542    0.8859   -1.5538 H   0  0  0  0  0  0  0  0  0  0  0  0
    0.4367    1.5746   -0.2493 H   0  0  0  0  0  0  0  0  0  0  0  0
  1  2  1  0
  2  3  1  0
  3  4  1  0
  4  5  1  0
  5  6  2  0
  6  7  1  0
  6  8  1  0
  8  9  1  0
  9  3  1  0
  1 10  1  0
  1 11  1  0
  1 12  1  0
  3 13  1  0
  4 14  1  0
  4 15  1  0
  5 16  1  0
  7 17  1  0
  7 18  1  0
  7 19  1  0
  8 20  1  0
  8 21  1  0
M  END
