
     RDKit          3D

 23 24  0  0  0  0  0  0  0  0999 V2000
    2.6869   -1.0695    1.6506 C   0  0  0  0  0  0  0  0  0  0  0  0
    2.3629   -0.0971    0.7201 O   0  0  0  0  0  0  0  0  0  0  0  0
    1.0186    0.1900    0.6532 C   0  0  0  0  0  0  0  0  0  0  0  0
    0.6841    1.6672    0.4737 C   0  0  0  0  0  0  0  0  0  0  0  0
    0.3746    0.6830   -0.5848 C   0  0  0  0  0  0  0  0  0  0  0  0
   -1.0377    0.2037   -0.8261 C   0  0  0  0  0  0  0  0  0  0  0  0
   -2.1102    0.5284    0.1876 C   0  0  0  0  0  0  0  0  0  0  0  0
   -1.4822   -0.0649   -2.2148 C   0  0  0  0  0  0  0  0  0  0  0  0
   -1.1267   -1.2335   -1.3908 C   0  0  0  0  0  0  0  0  0  0  0  0
    2.2063   -2.0374    1.4669 H   0  0  0  0  0  0  0  0  0  0  0  0
    2.4986   -0.7290    2.6787 H   0  0  0  0  0  0  0  0  0  0  0  0
    3.7896   -1.2369    1.5585 H   0  0  0  0  0  0  0  0  0  0  0  0
    0.4003   -0.4081    1.3618 H   0  0  0  0  0  0  0  0  0  0  0  0
   -0.0456    2.0359    1.1956 H   0  0  0  0  0  0  0  0  0  0  0  0
    1.5303    2.3628    0.3001 H   0  0  0  0  0  0  0  0  0  0  0  0
    0.9794    0.7687   -1.5269 H   0  0  0  0  0  0  0  0  0  0  0  0
   -2.7918    1.3428   -0.1755 H   0  0  0  0  0  0  0  0  0  0  0  0
   -2.7517   -0.3658    0.3998 H   0  0  0  0  0  0  0  0  0  0  0  0
   -1.7121    0.8599    1.1506 H   0  0  0  0  0  0  0  0  0  0  0  0
   -0.8058    0.1402   -3.0737 H   0  0  0  0  0  0  0  0  0  0  0  0
   -2.5463    0.1030   -2.4632 H   0  0  0  0  0  0  0  0  0  0  0  0
   -0.1869   -1.7634   -1.5704 H   0  0  0  0  0  0  0  0  0  0  0  0
   -1.9347   -1.8799   -0.9960 H   0  0  0  0  0  0  0  0  0  0  0  0
  1  2  1  0
  2  3  1  0
  3  4  1  0
  4  5  1  0
  5  6  1  0
  6  7  1  0
  6  8  1  0
  8  9  1  0
  5  3  1  0
  9  6  1  0
  1 10  1  0
  1 11  1  0
  1 12  1  0
  3 13  1  0
  4 14  1  0
  4 15  1  0
  5 16  1  0
  7 17  1  0
  7 18  1  0
  7 19  1  0
  8 20  1  0
  8 21  1  0
  9 22  1  0
  9 23  1  0
M  END
