
     RDKit          3D

 19 19  0  0  0  0  0  0  0  0999 V2000
    2.9551    0.6249   -0.1467 C   0  0  0  0  0  0  0  0  0  0  0  0
    1.6925    0.7845   -0.7143 O   0  0  0  0  0  0  0  0  0  0  0  0
    0.8253   -0.2430   -0.3484 C   0  0  0  0  0  0  0  0  0  0  0  0
   -0.3088    0.3692    0.4442 C   0  0  0  0  0  0  0  0  0  0  0  0
   -1.4629   -0.4981    0.0360 C   0  0  0  0  0  0  0  0  0  0  0  0
   -2.7523    0.2025    0.0942 C   0  0  0  0  0  0  0  0  0  0  0  0
   -2.9924    0.9048    1.0460 O   0  0  0  0  0  0  0  0  0  0  0  0
   -1.0613   -0.8172   -1.4109 C   0  0  0  0  0  0  0  0  0  0  0  0
    0.3052   -0.9035   -1.4174 O   0  0  0  0  0  0  0  0  0  0  0  0
    2.9300    0.6148    0.9598 H   0  0  0  0  0  0  0  0  0  0  0  0
    3.5359    1.5396   -0.4379 H   0  0  0  0  0  0  0  0  0  0  0  0
    3.4963   -0.2497   -0.5649 H   0  0  0  0  0  0  0  0  0  0  0  0
    1.3173   -0.9808    0.3218 H   0  0  0  0  0  0  0  0  0  0  0  0
   -0.4502    1.4000    0.0747 H   0  0  0  0  0  0  0  0  0  0  0  0
   -0.1168    0.3506    1.5368 H   0  0  0  0  0  0  0  0  0  0  0  0
   -1.4549   -1.4650    0.5648 H   0  0  0  0  0  0  0  0  0  0  0  0
   -3.4699    0.0985   -0.6859 H   0  0  0  0  0  0  0  0  0  0  0  0
   -1.5813   -1.7543   -1.7140 H   0  0  0  0  0  0  0  0  0  0  0  0
   -1.4068    0.0222   -2.0713 H   0  0  0  0  0  0  0  0  0  0  0  0
  1  2  1  0
  2  3  1  0
  3  4  1  0
  4  5  1  0
  5  6  1  0
  6  7  2  0
  5  8  1  0
  8  9  1  0
  9  3  1  0
  1 10  1  0
  1 11  1  0
  1 12  1  0
  3 13  1  0
  4 14  1  0
  4 15  1  0
  5 16  1  0
  6 17  1  0
  8 18  1  0
  8 19  1  0
M  END
