
     RDKit          3D

 21 22  0  0  0  0  0  0  0  0999 V2000
    2.2900   -0.9365   -0.5388 C   0  0  0  0  0  0  0  0  0  0  0  0
    0.9227   -1.0326   -0.4159 O   0  0  0  0  0  0  0  0  0  0  0  0
    0.2851    0.1153   -0.0343 C   0  0  0  0  0  0  0  0  0  0  0  0
   -1.2296   -0.0875    0.0756 C   0  0  0  0  0  0  0  0  0  0  0  0
   -1.8184   -1.0257   -0.9383 C   0  0  0  0  0  0  0  0  0  0  0  0
   -1.7779   -0.0378    1.4230 C   0  0  0  0  0  0  0  0  0  0  0  0
   -2.0111    0.9856    0.4527 O   0  0  0  0  0  0  0  0  0  0  0  0
    0.6841    1.4575   -0.5179 C   0  0  0  0  0  0  0  0  0  0  0  0
    0.8496    1.0956    0.9015 C   0  0  0  0  0  0  0  0  0  0  0  0
    2.6658   -1.9351   -0.8513 H   0  0  0  0  0  0  0  0  0  0  0  0
    2.8052   -0.6991    0.4119 H   0  0  0  0  0  0  0  0  0  0  0  0
    2.5787   -0.2399   -1.3584 H   0  0  0  0  0  0  0  0  0  0  0  0
   -2.4795   -1.7449   -0.4300 H   0  0  0  0  0  0  0  0  0  0  0  0
   -2.3831   -0.3871   -1.6738 H   0  0  0  0  0  0  0  0  0  0  0  0
   -1.0373   -1.5827   -1.5077 H   0  0  0  0  0  0  0  0  0  0  0  0
   -2.6879   -0.6219    1.6501 H   0  0  0  0  0  0  0  0  0  0  0  0
   -1.2442    0.3228    2.3002 H   0  0  0  0  0  0  0  0  0  0  0  0
    1.6395    1.5869   -1.0954 H   0  0  0  0  0  0  0  0  0  0  0  0
   -0.1013    2.1886   -0.8128 H   0  0  0  0  0  0  0  0  0  0  0  0
    0.1718    1.6267    1.6212 H   0  0  0  0  0  0  0  0  0  0  0  0
    1.8778    0.9518    1.3385 H   0  0  0  0  0  0  0  0  0  0  0  0
  1  2  1  0
  2  3  1  0
  3  4  1  0
  4  5  1  0
  4  6  1  0
  6  7  1  0
  3  8  1  0
  8  9  1  0
  9  3  1  0
  7  4  1  0
  1 10  1  0
  1 11  1  0
  1 12  1  0
  5 13  1  0
  5 14  1  0
  5 15  1  0
  6 16  1  0
  6 17  1  0
  8 18  1  0
  8 19  1  0
  9 20  1  0
  9 21  1  0
M  END
