
     RDKit          3D

 21 21  0  0  0  0  0  0  0  0999 V2000
    2.9549   -0.1234    0.0085 C   0  0  0  0  0  0  0  0  0  0  0  0
    1.8006    0.0354   -0.7594 O   0  0  0  0  0  0  0  0  0  0  0  0
    0.7291    0.0099    0.0928 C   0  0  0  0  0  0  0  0  0  0  0  0
   -0.2438   -1.1138   -0.2059 C   0  0  0  0  0  0  0  0  0  0  0  0
   -1.4793   -0.5783    0.5023 C   0  0  0  0  0  0  0  0  0  0  0  0
   -2.6049   -1.3305    0.2301 O   0  0  0  0  0  0  0  0  0  0  0  0
   -1.5541    0.8125   -0.0888 C   0  0  0  0  0  0  0  0  0  0  0  0
   -1.8918    0.6886   -1.4230 O   0  0  0  0  0  0  0  0  0  0  0  0
   -0.1228    1.2696   -0.0034 C   0  0  0  0  0  0  0  0  0  0  0  0
    3.8752   -0.1144   -0.6074 H   0  0  0  0  0  0  0  0  0  0  0  0
    2.8834   -1.0764    0.5297 H   0  0  0  0  0  0  0  0  0  0  0  0
    3.0120    0.7633    0.6735 H   0  0  0  0  0  0  0  0  0  0  0  0
    1.0323   -0.1285    1.1689 H   0  0  0  0  0  0  0  0  0  0  0  0
   -0.4851   -1.1511   -1.2795 H   0  0  0  0  0  0  0  0  0  0  0  0
    0.0823   -2.0849    0.1986 H   0  0  0  0  0  0  0  0  0  0  0  0
   -1.2567   -0.4704    1.5755 H   0  0  0  0  0  0  0  0  0  0  0  0
   -2.6073   -2.1300    0.7728 H   0  0  0  0  0  0  0  0  0  0  0  0
   -2.2431    1.4573    0.4826 H   0  0  0  0  0  0  0  0  0  0  0  0
   -2.0851    1.5354   -1.8774 H   0  0  0  0  0  0  0  0  0  0  0  0
    0.1859    1.8584   -0.8984 H   0  0  0  0  0  0  0  0  0  0  0  0
    0.0184    1.8714    0.9079 H   0  0  0  0  0  0  0  0  0  0  0  0
  1  2  1  0
  2  3  1  0
  3  4  1  0
  4  5  1  0
  5  6  1  0
  5  7  1  0
  7  8  1  0
  7  9  1  0
  9  3  1  0
  1 10  1  0
  1 11  1  0
  1 12  1  0
  3 13  1  0
  4 14  1  0
  4 15  1  0
  5 16  1  0
  6 17  1  0
  7 18  1  0
  8 19  1  0
  9 20  1  0
  9 21  1  0
M  END
