
     RDKit          3D

 23 23  0  0  0  0  0  0  0  0999 V2000
    2.9264   -0.7786    0.0890 C   0  0  0  0  0  0  0  0  0  0  0  0
    1.8800   -0.1035    0.6945 O   0  0  0  0  0  0  0  0  0  0  0  0
    0.7342   -0.3163   -0.0152 C   0  0  0  0  0  0  0  0  0  0  0  0
   -0.2242   -1.0169    0.7567 O   0  0  0  0  0  0  0  0  0  0  0  0
   -1.3493   -0.8678   -0.0478 C   0  0  0  0  0  0  0  0  0  0  0  0
   -2.5904   -1.4352    0.5307 C   0  0  0  0  0  0  0  0  0  0  0  0
   -1.3923    0.6622   -0.1618 C   0  0  0  0  0  0  0  0  0  0  0  0
    0.0535    0.9282   -0.5019 C   0  0  0  0  0  0  0  0  0  0  0  0
    0.5927    2.1917    0.0666 C   0  0  0  0  0  0  0  0  0  0  0  0
    3.8781   -0.6157    0.6586 H   0  0  0  0  0  0  0  0  0  0  0  0
    3.0629   -0.4888   -0.9722 H   0  0  0  0  0  0  0  0  0  0  0  0
    2.7318   -1.8802    0.0838 H   0  0  0  0  0  0  0  0  0  0  0  0
    0.9276   -0.9702   -0.8900 H   0  0  0  0  0  0  0  0  0  0  0  0
   -1.1031   -1.2420   -1.0586 H   0  0  0  0  0  0  0  0  0  0  0  0
   -3.3304   -1.5672   -0.3028 H   0  0  0  0  0  0  0  0  0  0  0  0
   -2.3561   -2.4344    0.9744 H   0  0  0  0  0  0  0  0  0  0  0  0
   -3.0136   -0.7500    1.2764 H   0  0  0  0  0  0  0  0  0  0  0  0
   -2.0907    0.9934   -0.9406 H   0  0  0  0  0  0  0  0  0  0  0  0
   -1.6604    1.0962    0.8405 H   0  0  0  0  0  0  0  0  0  0  0  0
    0.1234    1.0064   -1.6164 H   0  0  0  0  0  0  0  0  0  0  0  0
    0.9547    2.0997    1.1129 H   0  0  0  0  0  0  0  0  0  0  0  0
   -0.1999    2.9748    0.0091 H   0  0  0  0  0  0  0  0  0  0  0  0
    1.4450    2.5142   -0.5855 H   0  0  0  0  0  0  0  0  0  0  0  0
  1  2  1  0
  2  3  1  0
  3  4  1  0
  4  5  1  0
  5  6  1  0
  5  7  1  0
  7  8  1  0
  8  9  1  0
  8  3  1  0
  1 10  1  0
  1 11  1  0
  1 12  1  0
  3 13  1  0
  5 14  1  0
  6 15  1  0
  6 16  1  0
  6 17  1  0
  7 18  1  0
  7 19  1  0
  8 20  1  0
  9 21  1  0
  9 22  1  0
  9 23  1  0
M  END
