
     RDKit          3D

 19 19  0  0  0  0  0  0  0  0999 V2000
   -2.2350   -0.6805   -0.2209 C   0  0  0  0  0  0  0  0  0  0  0  0
   -1.0594   -0.4919   -0.9175 O   0  0  0  0  0  0  0  0  0  0  0  0
   -0.0710    0.1323   -0.2130 C   0  0  0  0  0  0  0  0  0  0  0  0
   -0.4004    1.5644    0.1449 C   0  0  0  0  0  0  0  0  0  0  0  0
    0.6421    2.1491    0.8613 O   0  0  0  0  0  0  0  0  0  0  0  0
    1.1662    0.1480   -1.0476 C   0  0  0  0  0  0  0  0  0  0  0  0
    2.0277   -0.7316   -0.5757 C   0  0  0  0  0  0  0  0  0  0  0  0
    1.3830   -1.3630    0.5961 C   0  0  0  0  0  0  0  0  0  0  0  0
    0.3397   -0.5089    0.9257 O   0  0  0  0  0  0  0  0  0  0  0  0
   -2.9495   -1.1951   -0.9061 H   0  0  0  0  0  0  0  0  0  0  0  0
   -2.7285    0.3011    0.0242 H   0  0  0  0  0  0  0  0  0  0  0  0
   -2.1376   -1.3215    0.6661 H   0  0  0  0  0  0  0  0  0  0  0  0
   -1.3100    1.6719    0.7319 H   0  0  0  0  0  0  0  0  0  0  0  0
   -0.5010    2.1682   -0.7937 H   0  0  0  0  0  0  0  0  0  0  0  0
    0.4296    2.0959    1.8366 H   0  0  0  0  0  0  0  0  0  0  0  0
    1.3456    0.7860   -1.9203 H   0  0  0  0  0  0  0  0  0  0  0  0
    3.0059   -0.9127   -1.0068 H   0  0  0  0  0  0  0  0  0  0  0  0
    0.9427   -2.3629    0.3617 H   0  0  0  0  0  0  0  0  0  0  0  0
    2.1100   -1.4488    1.4531 H   0  0  0  0  0  0  0  0  0  0  0  0
  1  2  1  0
  2  3  1  0
  3  4  1  0
  4  5  1  0
  3  6  1  0
  6  7  2  0
  7  8  1  0
  8  9  1  0
  9  3  1  0
  1 10  1  0
  1 11  1  0
  1 12  1  0
  4 13  1  0
  4 14  1  0
  5 15  1  0
  6 16  1  0
  7 17  1  0
  8 18  1  0
  8 19  1  0
M  END
