
     RDKit          3D

 21 22  0  0  0  0  0  0  0  0999 V2000
    2.9251    0.1645    0.6431 C   0  0  0  0  0  0  0  0  0  0  0  0
    1.5556    0.2984    0.7549 O   0  0  0  0  0  0  0  0  0  0  0  0
    0.8343   -0.5679   -0.0209 C   0  0  0  0  0  0  0  0  0  0  0  0
   -0.2550   -1.2443    0.8293 C   0  0  0  0  0  0  0  0  0  0  0  0
   -1.2766   -0.9317   -0.2637 C   0  0  0  0  0  0  0  0  0  0  0  0
   -2.4498   -0.1673    0.1982 C   0  0  0  0  0  0  0  0  0  0  0  0
   -2.1758    1.1107    0.3835 C   0  0  0  0  0  0  0  0  0  0  0  0
   -0.7690    1.3685    0.0666 C   0  0  0  0  0  0  0  0  0  0  0  0
   -0.3215    0.1708   -0.7077 C   0  0  0  0  0  0  0  0  0  0  0  0
    3.3088    0.3299   -0.3838 H   0  0  0  0  0  0  0  0  0  0  0  0
    3.3051   -0.7735    1.0887 H   0  0  0  0  0  0  0  0  0  0  0  0
    3.3743    0.9881    1.2677 H   0  0  0  0  0  0  0  0  0  0  0  0
    1.3680   -1.2790   -0.6514 H   0  0  0  0  0  0  0  0  0  0  0  0
   -0.4899   -0.6812    1.7569 H   0  0  0  0  0  0  0  0  0  0  0  0
   -0.0869   -2.3319    0.9549 H   0  0  0  0  0  0  0  0  0  0  0  0
   -1.4461   -1.7274   -0.9890 H   0  0  0  0  0  0  0  0  0  0  0  0
   -3.4602   -0.5857    0.3794 H   0  0  0  0  0  0  0  0  0  0  0  0
   -2.8852    1.8805    0.7242 H   0  0  0  0  0  0  0  0  0  0  0  0
   -0.2243    1.3883    1.0512 H   0  0  0  0  0  0  0  0  0  0  0  0
   -0.6068    2.3225   -0.4809 H   0  0  0  0  0  0  0  0  0  0  0  0
   -0.2240    0.2679   -1.7912 H   0  0  0  0  0  0  0  0  0  0  0  0
  1  2  1  0
  2  3  1  0
  3  4  1  0
  4  5  1  0
  5  6  1  0
  6  7  2  0
  7  8  1  0
  8  9  1  0
  9  3  1  0
  9  5  1  0
  1 10  1  0
  1 11  1  0
  1 12  1  0
  3 13  1  0
  4 14  1  0
  4 15  1  0
  5 16  1  0
  6 17  1  0
  7 18  1  0
  8 19  1  0
  8 20  1  0
  9 21  1  0
M  END
