
     RDKit          3D

 23 24  0  0  0  0  0  0  0  0999 V2000
    2.8549    0.8511    0.5004 C   0  0  0  0  0  0  0  0  0  0  0  0
    1.9734    0.0767    1.2563 O   0  0  0  0  0  0  0  0  0  0  0  0
    0.8578   -0.2835    0.5015 C   0  0  0  0  0  0  0  0  0  0  0  0
    1.1501   -1.0928   -0.7391 C   0  0  0  0  0  0  0  0  0  0  0  0
   -0.3162   -0.7621    1.3228 C   0  0  0  0  0  0  0  0  0  0  0  0
   -0.3511    0.5455    0.6155 C   0  0  0  0  0  0  0  0  0  0  0  0
   -1.2905    0.7739   -0.5343 C   0  0  0  0  0  0  0  0  0  0  0  0
   -2.0016   -0.2856   -1.2250 C   0  0  0  0  0  0  0  0  0  0  0  0
   -2.7555    0.4622   -0.1953 C   0  0  0  0  0  0  0  0  0  0  0  0
    3.1684    0.2503   -0.3607 H   0  0  0  0  0  0  0  0  0  0  0  0
    3.7463    1.0861    1.0955 H   0  0  0  0  0  0  0  0  0  0  0  0
    2.3580    1.7778    0.1058 H   0  0  0  0  0  0  0  0  0  0  0  0
    1.1572   -0.4399   -1.6257 H   0  0  0  0  0  0  0  0  0  0  0  0
    2.1612   -1.5311   -0.6527 H   0  0  0  0  0  0  0  0  0  0  0  0
    0.4557   -1.9664   -0.8495 H   0  0  0  0  0  0  0  0  0  0  0  0
   -0.9324   -1.6144    0.9364 H   0  0  0  0  0  0  0  0  0  0  0  0
   -0.2349   -0.7523    2.4322 H   0  0  0  0  0  0  0  0  0  0  0  0
   -0.2633    1.4469    1.2722 H   0  0  0  0  0  0  0  0  0  0  0  0
   -1.0914    1.7304   -1.0797 H   0  0  0  0  0  0  0  0  0  0  0  0
   -1.8569   -1.3643   -1.0664 H   0  0  0  0  0  0  0  0  0  0  0  0
   -2.3230   -0.0630   -2.2831 H   0  0  0  0  0  0  0  0  0  0  0  0
   -3.5017    1.2290   -0.4421 H   0  0  0  0  0  0  0  0  0  0  0  0
   -2.9645   -0.0748    0.7480 H   0  0  0  0  0  0  0  0  0  0  0  0
  1  2  1  0
  2  3  1  0
  3  4  1  0
  3  5  1  0
  5  6  1  0
  6  7  1  0
  7  8  1  0
  8  9  1  0
  6  3  1  0
  9  7  1  0
  1 10  1  0
  1 11  1  0
  1 12  1  0
  4 13  1  0
  4 14  1  0
  4 15  1  0
  5 16  1  0
  5 17  1  0
  6 18  1  0
  7 19  1  0
  8 20  1  0
  8 21  1  0
  9 22  1  0
  9 23  1  0
M  END
