
     RDKit          3D

 18 19  0  0  0  0  0  0  0  0999 V2000
    2.9743   -0.2810    0.0613 C   0  0  0  0  0  0  0  0  0  0  0  0
    1.7938   -0.5299   -0.6546 O   0  0  0  0  0  0  0  0  0  0  0  0
    0.6759   -0.0318   -0.0057 C   0  0  0  0  0  0  0  0  0  0  0  0
   -0.3405    0.6582   -0.8197 C   0  0  0  0  0  0  0  0  0  0  0  0
   -1.5244    1.1962   -0.0243 C   0  0  0  0  0  0  0  0  0  0  0  0
   -1.9137   -0.2408    0.2261 C   0  0  0  0  0  0  0  0  0  0  0  0
   -2.3156   -0.5301    1.5158 O   0  0  0  0  0  0  0  0  0  0  0  0
   -0.5821   -0.7520   -0.2035 C   0  0  0  0  0  0  0  0  0  0  0  0
    3.8078   -0.7105   -0.5274 H   0  0  0  0  0  0  0  0  0  0  0  0
    3.1234    0.8326    0.0244 H   0  0  0  0  0  0  0  0  0  0  0  0
    2.9188   -0.6576    1.0964 H   0  0  0  0  0  0  0  0  0  0  0  0
    0.9178    0.4777    0.9698 H   0  0  0  0  0  0  0  0  0  0  0  0
   -0.3595    0.6708   -1.9045 H   0  0  0  0  0  0  0  0  0  0  0  0
   -1.1999    1.7405    0.9089 H   0  0  0  0  0  0  0  0  0  0  0  0
   -2.2403    1.7962   -0.6076 H   0  0  0  0  0  0  0  0  0  0  0  0
   -2.7115   -0.5209   -0.5245 H   0  0  0  0  0  0  0  0  0  0  0  0
   -2.4376   -1.5166    1.5631 H   0  0  0  0  0  0  0  0  0  0  0  0
   -0.5868   -1.6011   -0.9197 H   0  0  0  0  0  0  0  0  0  0  0  0
  1  2  1  0
  2  3  1  0
  3  4  1  0
  4  5  1  0
  5  6  1  0
  6  7  1  0
  6  8  1  0
  8  3  1  0
  8  4  1  0
  1  9  1  0
  1 10  1  0
  1 11  1  0
  3 12  1  0
  4 13  1  0
  5 14  1  0
  5 15  1  0
  6 16  1  0
  7 17  1  0
  8 18  1  0
M  END
