
     RDKit          3D

 19 20  0  0  0  0  0  0  0  0999 V2000
    2.4087    0.2677   -0.3890 C   0  0  0  0  0  0  0  0  0  0  0  0
    1.2006    0.3888   -1.0224 O   0  0  0  0  0  0  0  0  0  0  0  0
    0.1427   -0.0837   -0.2413 C   0  0  0  0  0  0  0  0  0  0  0  0
    0.2810   -1.5287    0.1159 C   0  0  0  0  0  0  0  0  0  0  0  0
   -0.0783    0.8418    0.8978 C   0  0  0  0  0  0  0  0  0  0  0  0
    0.5070    1.1705    1.9003 O   0  0  0  0  0  0  0  0  0  0  0  0
   -1.3649    1.2281    0.2972 C   0  0  0  0  0  0  0  0  0  0  0  0
   -2.3712    0.1238    0.1740 C   0  0  0  0  0  0  0  0  0  0  0  0
   -1.2208    0.2195   -0.7654 C   0  0  0  0  0  0  0  0  0  0  0  0
    2.4533    0.8378    0.5767 H   0  0  0  0  0  0  0  0  0  0  0  0
    3.1949    0.6304   -1.0886 H   0  0  0  0  0  0  0  0  0  0  0  0
    2.6666   -0.7838   -0.1061 H   0  0  0  0  0  0  0  0  0  0  0  0
    1.1182   -1.7462    0.8091 H   0  0  0  0  0  0  0  0  0  0  0  0
   -0.6392   -1.8819    0.6283 H   0  0  0  0  0  0  0  0  0  0  0  0
    0.4427   -2.0932   -0.8260 H   0  0  0  0  0  0  0  0  0  0  0  0
   -1.6228    2.2701    0.1138 H   0  0  0  0  0  0  0  0  0  0  0  0
   -2.3386   -0.7244    0.9107 H   0  0  0  0  0  0  0  0  0  0  0  0
   -3.3669    0.4603   -0.1640 H   0  0  0  0  0  0  0  0  0  0  0  0
   -1.4130    0.4032   -1.8210 H   0  0  0  0  0  0  0  0  0  0  0  0
  1  2  1  0
  2  3  1  0
  3  4  1  0
  3  5  1  0
  5  6  2  0
  5  7  1  0
  7  8  1  0
  8  9  1  0
  9  3  1  0
  9  7  1  0
  1 10  1  0
  1 11  1  0
  1 12  1  0
  4 13  1  0
  4 14  1  0
  4 15  1  0
  7 16  1  0
  8 17  1  0
  8 18  1  0
  9 19  1  0
M  END
