
     RDKit          3D

 23 24  0  0  0  0  0  0  0  0999 V2000
    1.8223   -1.5631   -0.4638 C   0  0  0  0  0  0  0  0  0  0  0  0
    1.0362   -0.6321   -1.1313 O   0  0  0  0  0  0  0  0  0  0  0  0
    0.0746   -0.0573   -0.3474 C   0  0  0  0  0  0  0  0  0  0  0  0
   -0.9513   -0.9221    0.2832 C   0  0  0  0  0  0  0  0  0  0  0  0
   -2.3009   -0.8399   -0.3675 C   0  0  0  0  0  0  0  0  0  0  0  0
   -0.8022   -0.1719    1.5801 C   0  0  0  0  0  0  0  0  0  0  0  0
    0.3386    0.5980    0.9401 C   0  0  0  0  0  0  0  0  0  0  0  0
   -0.0446    1.4175   -0.2185 C   0  0  0  0  0  0  0  0  0  0  0  0
    1.0182    2.3117   -0.7889 C   0  0  0  0  0  0  0  0  0  0  0  0
    2.3299   -1.0495    0.3773 H   0  0  0  0  0  0  0  0  0  0  0  0
    2.6291   -1.8645   -1.1743 H   0  0  0  0  0  0  0  0  0  0  0  0
    1.2807   -2.4642   -0.1699 H   0  0  0  0  0  0  0  0  0  0  0  0
   -0.6221   -1.9806    0.3942 H   0  0  0  0  0  0  0  0  0  0  0  0
   -2.6013    0.1973   -0.5717 H   0  0  0  0  0  0  0  0  0  0  0  0
   -3.0596   -1.3846    0.2544 H   0  0  0  0  0  0  0  0  0  0  0  0
   -2.2216   -1.3595   -1.3500 H   0  0  0  0  0  0  0  0  0  0  0  0
   -1.6518    0.5011    1.8352 H   0  0  0  0  0  0  0  0  0  0  0  0
   -0.5151   -0.7939    2.4456 H   0  0  0  0  0  0  0  0  0  0  0  0
    1.3167    0.6355    1.4283 H   0  0  0  0  0  0  0  0  0  0  0  0
   -1.0602    1.8529   -0.2499 H   0  0  0  0  0  0  0  0  0  0  0  0
    0.9568    2.4331   -1.8775 H   0  0  0  0  0  0  0  0  0  0  0  0
    2.0357    1.8620   -0.5931 H   0  0  0  0  0  0  0  0  0  0  0  0
    0.9920    3.2739   -0.2349 H   0  0  0  0  0  0  0  0  0  0  0  0
  1  2  1  0
  2  3  1  0
  3  4  1  0
  4  5  1  0
  4  6  1  0
  6  7  1  0
  7  8  1  0
  8  9  1  0
  7  3  1  0
  8  3  1  0
  1 10  1  0
  1 11  1  0
  1 12  1  0
  4 13  1  0
  5 14  1  0
  5 15  1  0
  5 16  1  0
  6 17  1  0
  6 18  1  0
  7 19  1  0
  8 20  1  0
  9 21  1  0
  9 22  1  0
  9 23  1  0
M  END
