
     RDKit          3D

 23 23  0  0  0  0  0  0  0  0999 V2000
   -3.3764   -0.0911    0.2264 C   0  0  0  0  0  0  0  0  0  0  0  0
   -2.2792    0.7168    0.0703 O   0  0  0  0  0  0  0  0  0  0  0  0
   -1.0705    0.0800    0.0954 C   0  0  0  0  0  0  0  0  0  0  0  0
   -0.1169    0.3539   -1.0311 C   0  0  0  0  0  0  0  0  0  0  0  0
    0.9763    0.1111   -0.0069 C   0  0  0  0  0  0  0  0  0  0  0  0
    1.2071   -1.3574    0.2870 C   0  0  0  0  0  0  0  0  0  0  0  0
    2.0921    0.8858   -0.1136 O   0  0  0  0  0  0  0  0  0  0  0  0
    2.7116    0.7047   -1.3486 C   0  0  0  0  0  0  0  0  0  0  0  0
   -0.0154    0.6711    1.0086 C   0  0  0  0  0  0  0  0  0  0  0  0
   -3.4662   -0.8708   -0.5600 H   0  0  0  0  0  0  0  0  0  0  0  0
   -3.4075   -0.5277    1.2484 H   0  0  0  0  0  0  0  0  0  0  0  0
   -4.2834    0.5430    0.1398 H   0  0  0  0  0  0  0  0  0  0  0  0
   -1.1904   -1.0029    0.2408 H   0  0  0  0  0  0  0  0  0  0  0  0
   -0.0589    1.4102   -1.3683 H   0  0  0  0  0  0  0  0  0  0  0  0
   -0.0892   -0.4060   -1.8357 H   0  0  0  0  0  0  0  0  0  0  0  0
    0.5208   -1.7472    1.0701 H   0  0  0  0  0  0  0  0  0  0  0  0
    2.2362   -1.5535    0.6424 H   0  0  0  0  0  0  0  0  0  0  0  0
    1.0255   -1.9516   -0.6430 H   0  0  0  0  0  0  0  0  0  0  0  0
    3.6212    1.3342   -1.4392 H   0  0  0  0  0  0  0  0  0  0  0  0
    1.9868    1.0931   -2.1112 H   0  0  0  0  0  0  0  0  0  0  0  0
    2.9162   -0.3603   -1.5766 H   0  0  0  0  0  0  0  0  0  0  0  0
   -0.0085    1.7698    1.0477 H   0  0  0  0  0  0  0  0  0  0  0  0
    0.0687    0.1950    2.0032 H   0  0  0  0  0  0  0  0  0  0  0  0
  1  2  1  0
  2  3  1  0
  3  4  1  0
  4  5  1  0
  5  6  1  0
  5  7  1  0
  7  8  1  0
  5  9  1  0
  9  3  1  0
  1 10  1  0
  1 11  1  0
  1 12  1  0
  3 13  1  0
  4 14  1  0
  4 15  1  0
  6 16  1  0
  6 17  1  0
  6 18  1  0
  8 19  1  0
  8 20  1  0
  8 21  1  0
  9 22  1  0
  9 23  1  0
M  END
