
     RDKit          3D

 19 20  0  0  0  0  0  0  0  0999 V2000
    2.0000   -0.4262    0.5560 C   0  0  0  0  0  0  0  0  0  0  0  0
    1.1256    0.2615   -0.2190 O   0  0  0  0  0  0  0  0  0  0  0  0
   -0.1089   -0.2448   -0.3936 C   0  0  0  0  0  0  0  0  0  0  0  0
   -0.3020   -1.5803   -1.0109 C   0  0  0  0  0  0  0  0  0  0  0  0
   -1.0016    0.0421    0.8190 C   0  0  0  0  0  0  0  0  0  0  0  0
   -0.5768    1.4398    1.1256 C   0  0  0  0  0  0  0  0  0  0  0  0
   -0.6031    1.9893   -0.0864 C   0  0  0  0  0  0  0  0  0  0  0  0
   -1.0686    0.8085   -0.9073 C   0  0  0  0  0  0  0  0  0  0  0  0
   -2.0285    0.2051   -0.1082 O   0  0  0  0  0  0  0  0  0  0  0  0
    1.5745   -0.5228    1.5867 H   0  0  0  0  0  0  0  0  0  0  0  0
    2.3223   -1.4050    0.1517 H   0  0  0  0  0  0  0  0  0  0  0  0
    2.9314    0.1776    0.6635 H   0  0  0  0  0  0  0  0  0  0  0  0
    0.2069   -2.3802   -0.4445 H   0  0  0  0  0  0  0  0  0  0  0  0
   -0.0855   -1.5945   -2.0948 H   0  0  0  0  0  0  0  0  0  0  0  0
   -1.4015   -1.8298   -0.9293 H   0  0  0  0  0  0  0  0  0  0  0  0
   -1.0666   -0.6756    1.5820 H   0  0  0  0  0  0  0  0  0  0  0  0
   -0.3311    1.8211    2.1035 H   0  0  0  0  0  0  0  0  0  0  0  0
   -0.3736    2.9787   -0.4523 H   0  0  0  0  0  0  0  0  0  0  0  0
   -1.2132    0.9357   -1.9417 H   0  0  0  0  0  0  0  0  0  0  0  0
  1  2  1  0
  2  3  1  0
  3  4  1  0
  3  5  1  0
  5  6  1  0
  6  7  2  0
  7  8  1  0
  8  9  1  0
  8  3  1  0
  9  5  1  0
  1 10  1  0
  1 11  1  0
  1 12  1  0
  4 13  1  0
  4 14  1  0
  4 15  1  0
  5 16  1  0
  6 17  1  0
  7 18  1  0
  8 19  1  0
M  END
