
     RDKit          3D

 19 22  0  0  0  0  0  0  0  0999 V2000
    2.6369    0.3668   -0.0191 C   0  0  0  0  0  0  0  0  0  0  0  0
    1.4172    1.0600    0.1494 O   0  0  0  0  0  0  0  0  0  0  0  0
    0.4099    0.2252   -0.0082 C   0  0  0  0  0  0  0  0  0  0  0  0
    0.2561   -1.0235    0.9251 C   0  0  0  0  0  0  0  0  0  0  0  0
   -1.2013   -0.8039    0.8478 C   0  0  0  0  0  0  0  0  0  0  0  0
   -1.1307   -1.0444   -0.5610 C   0  0  0  0  0  0  0  0  0  0  0  0
    0.3436   -1.1214   -0.4943 C   0  0  0  0  0  0  0  0  0  0  0  0
   -1.0157    0.3752    0.0558 C   0  0  0  0  0  0  0  0  0  0  0  0
   -1.9126    1.4309   -0.3062 C   0  0  0  0  0  0  0  0  0  0  0  0
    3.5033    1.0165    0.1021 H   0  0  0  0  0  0  0  0  0  0  0  0
    2.6191   -0.5088    0.6616 H   0  0  0  0  0  0  0  0  0  0  0  0
    2.5930   -0.0640   -1.0544 H   0  0  0  0  0  0  0  0  0  0  0  0
    0.8972   -1.0856    1.7375 H   0  0  0  0  0  0  0  0  0  0  0  0
   -1.9273   -1.0556    1.5764 H   0  0  0  0  0  0  0  0  0  0  0  0
   -1.7944   -1.2641   -1.3243 H   0  0  0  0  0  0  0  0  0  0  0  0
    0.9874   -1.6697   -1.1328 H   0  0  0  0  0  0  0  0  0  0  0  0
   -2.1049    2.1304    0.5593 H   0  0  0  0  0  0  0  0  0  0  0  0
   -2.9385    1.0116   -0.5329 H   0  0  0  0  0  0  0  0  0  0  0  0
   -1.6383    2.0245   -1.1818 H   0  0  0  0  0  0  0  0  0  0  0  0
  1  2  1  0
  2  3  1  0
  3  4  1  0
  4  5  1  0
  5  6  1  0
  6  7  1  0
  6  8  1  0
  8  9  1  0
  7  3  1  0
  8  3  1  0
  7  4  1  0
  8  5  1  0
  1 10  1  0
  1 11  1  0
  1 12  1  0
  4 13  1  0
  5 14  1  0
  6 15  1  0
  7 16  1  0
  9 17  1  0
  9 18  1  0
  9 19  1  0
M  END
