
     RDKit          3D

 19 20  0  0  0  0  0  0  0  0999 V2000
    2.7149   -0.2558    0.0503 C   0  0  0  0  0  0  0  0  0  0  0  0
    1.5041   -0.3812    0.7304 O   0  0  0  0  0  0  0  0  0  0  0  0
    0.4543   -0.4574   -0.1438 C   0  0  0  0  0  0  0  0  0  0  0  0
   -0.1946   -1.6992   -0.0905 O   0  0  0  0  0  0  0  0  0  0  0  0
   -1.5307   -1.4653    0.1302 C   0  0  0  0  0  0  0  0  0  0  0  0
   -1.7937   -0.1064   -0.5344 C   0  0  0  0  0  0  0  0  0  0  0  0
   -0.5662    0.6062   -0.0051 C   0  0  0  0  0  0  0  0  0  0  0  0
   -0.4976    1.9427    0.2085 C   0  0  0  0  0  0  0  0  0  0  0  0
   -0.8181    1.0809    1.3443 O   0  0  0  0  0  0  0  0  0  0  0  0
    3.5723   -0.1926    0.7196 H   0  0  0  0  0  0  0  0  0  0  0  0
    2.6013    0.6498   -0.6022 H   0  0  0  0  0  0  0  0  0  0  0  0
    2.8314   -1.1057   -0.6806 H   0  0  0  0  0  0  0  0  0  0  0  0
    0.8599   -0.3972   -1.1966 H   0  0  0  0  0  0  0  0  0  0  0  0
   -1.6721   -1.2743    1.2267 H   0  0  0  0  0  0  0  0  0  0  0  0
   -2.1974   -2.2291   -0.2583 H   0  0  0  0  0  0  0  0  0  0  0  0
   -2.7326    0.3351   -0.2260 H   0  0  0  0  0  0  0  0  0  0  0  0
   -1.6535   -0.1894   -1.6313 H   0  0  0  0  0  0  0  0  0  0  0  0
   -1.3268    2.6329   -0.0838 H   0  0  0  0  0  0  0  0  0  0  0  0
    0.4452    2.5061    0.3956 H   0  0  0  0  0  0  0  0  0  0  0  0
  1  2  1  0
  2  3  1  0
  3  4  1  0
  4  5  1  0
  5  6  1  0
  6  7  1  0
  7  8  1  0
  8  9  1  0
  7  3  1  0
  9  7  1  0
  1 10  1  0
  1 11  1  0
  1 12  1  0
  3 13  1  0
  5 14  1  0
  5 15  1  0
  6 16  1  0
  6 17  1  0
  8 18  1  0
  8 19  1  0
M  END
