
     RDKit          3D

 18 19  0  0  0  0  0  0  0  0999 V2000
    2.4973    0.1317   -0.6178 C   0  0  0  0  0  0  0  0  0  0  0  0
    1.1310    0.0049   -0.9554 O   0  0  0  0  0  0  0  0  0  0  0  0
    0.4238    0.0609    0.2180 C   0  0  0  0  0  0  0  0  0  0  0  0
   -0.8815    0.8195    0.1834 C   0  0  0  0  0  0  0  0  0  0  0  0
   -1.5424    0.2348   -1.0279 C   0  0  0  0  0  0  0  0  0  0  0  0
   -1.2376   -1.1384   -0.8284 O   0  0  0  0  0  0  0  0  0  0  0  0
   -0.5315   -1.1382    0.3404 C   0  0  0  0  0  0  0  0  0  0  0  0
   -1.3332   -0.1914    1.2489 C   0  0  0  0  0  0  0  0  0  0  0  0
    2.8034   -0.7016    0.0637 H   0  0  0  0  0  0  0  0  0  0  0  0
    3.1392    0.2066   -1.5004 H   0  0  0  0  0  0  0  0  0  0  0  0
    2.6458    1.0613   -0.0183 H   0  0  0  0  0  0  0  0  0  0  0  0
    1.0055    0.1864    1.1546 H   0  0  0  0  0  0  0  0  0  0  0  0
   -0.9214    1.8412    0.4084 H   0  0  0  0  0  0  0  0  0  0  0  0
   -2.6436    0.3825   -0.9082 H   0  0  0  0  0  0  0  0  0  0  0  0
   -1.1521    0.6020   -1.9828 H   0  0  0  0  0  0  0  0  0  0  0  0
   -0.1497   -2.0238    0.7740 H   0  0  0  0  0  0  0  0  0  0  0  0
   -0.8421    0.0400    2.1948 H   0  0  0  0  0  0  0  0  0  0  0  0
   -2.4107   -0.3784    1.2531 H   0  0  0  0  0  0  0  0  0  0  0  0
  1  2  1  0
  2  3  1  0
  3  4  1  0
  4  5  1  0
  5  6  1  0
  6  7  1  0
  7  8  1  0
  7  3  1  0
  8  4  1  0
  1  9  1  0
  1 10  1  0
  1 11  1  0
  3 12  1  0
  4 13  1  0
  5 14  1  0
  5 15  1  0
  7 16  1  0
  8 17  1  0
  8 18  1  0
M  END
