
     RDKit          3D

 23 23  0  0  0  0  0  0  0  0999 V2000
   -1.9190    1.5479    1.1239 C   0  0  0  0  0  0  0  0  0  0  0  0
   -1.3006    0.3005    1.0999 O   0  0  0  0  0  0  0  0  0  0  0  0
   -0.7573   -0.0108   -0.1166 C   0  0  0  0  0  0  0  0  0  0  0  0
   -1.1738   -1.3801   -0.6307 C   0  0  0  0  0  0  0  0  0  0  0  0
   -0.1451   -1.5641   -1.7530 C   0  0  0  0  0  0  0  0  0  0  0  0
    1.1330   -1.1796   -1.0528 C   0  0  0  0  0  0  0  0  0  0  0  0
    0.7484   -0.2315    0.0670 C   0  0  0  0  0  0  0  0  0  0  0  0
    1.3693    0.9868   -0.0095 O   0  0  0  0  0  0  0  0  0  0  0  0
    2.0229    1.3556    1.1610 C   0  0  0  0  0  0  0  0  0  0  0  0
   -2.7399    1.5340    0.3592 H   0  0  0  0  0  0  0  0  0  0  0  0
   -2.3736    1.6631    2.1288 H   0  0  0  0  0  0  0  0  0  0  0  0
   -1.1875    2.3476    0.8814 H   0  0  0  0  0  0  0  0  0  0  0  0
   -0.8804    0.7528   -0.8973 H   0  0  0  0  0  0  0  0  0  0  0  0
   -0.9310   -2.1207    0.1511 H   0  0  0  0  0  0  0  0  0  0  0  0
   -2.1991   -1.4146   -0.9932 H   0  0  0  0  0  0  0  0  0  0  0  0
   -0.3777   -0.7775   -2.5042 H   0  0  0  0  0  0  0  0  0  0  0  0
   -0.1497   -2.5801   -2.1502 H   0  0  0  0  0  0  0  0  0  0  0  0
    1.8844   -0.7321   -1.7301 H   0  0  0  0  0  0  0  0  0  0  0  0
    1.5268   -2.1230   -0.5750 H   0  0  0  0  0  0  0  0  0  0  0  0
    0.8778   -0.7230    1.0714 H   0  0  0  0  0  0  0  0  0  0  0  0
    2.7942    0.5951    1.3863 H   0  0  0  0  0  0  0  0  0  0  0  0
    1.2955    1.3985    2.0040 H   0  0  0  0  0  0  0  0  0  0  0  0
    2.4823    2.3551    0.9786 H   0  0  0  0  0  0  0  0  0  0  0  0
  1  2  1  0
  2  3  1  0
  3  4  1  0
  4  5  1  0
  5  6  1  0
  6  7  1  0
  7  8  1  0
  8  9  1  0
  7  3  1  0
  1 10  1  0
  1 11  1  0
  1 12  1  0
  3 13  1  0
  4 14  1  0
  4 15  1  0
  5 16  1  0
  5 17  1  0
  6 18  1  0
  6 19  1  0
  7 20  1  0
  9 21  1  0
  9 22  1  0
  9 23  1  0
M  END
