
     RDKit          3D

 23 24  0  0  0  0  0  0  0  0999 V2000
    3.1774    1.0180   -0.3938 C   0  0  0  0  0  0  0  0  0  0  0  0
    1.8033    0.9590   -0.5082 O   0  0  0  0  0  0  0  0  0  0  0  0
    1.2504   -0.2222    0.0134 C   0  0  0  0  0  0  0  0  0  0  0  0
    0.2166   -0.8649   -0.6742 C   0  0  0  0  0  0  0  0  0  0  0  0
   -0.8181   -1.8813   -0.3398 C   0  0  0  0  0  0  0  0  0  0  0  0
   -1.9909   -0.9121   -0.0655 C   0  0  0  0  0  0  0  0  0  0  0  0
   -1.3123    0.3888    0.3940 C   0  0  0  0  0  0  0  0  0  0  0  0
   -1.4662    1.5030   -0.5338 C   0  0  0  0  0  0  0  0  0  0  0  0
    0.0304   -0.1076    0.7072 C   0  0  0  0  0  0  0  0  0  0  0  0
    3.6391    0.1608   -0.9466 H   0  0  0  0  0  0  0  0  0  0  0  0
    3.4211    0.8430    0.6796 H   0  0  0  0  0  0  0  0  0  0  0  0
    3.5433    1.9655   -0.7760 H   0  0  0  0  0  0  0  0  0  0  0  0
    2.0733   -0.8810    0.4240 H   0  0  0  0  0  0  0  0  0  0  0  0
   -0.1759   -0.3049   -1.5814 H   0  0  0  0  0  0  0  0  0  0  0  0
   -1.0837   -2.5567   -1.1507 H   0  0  0  0  0  0  0  0  0  0  0  0
   -0.5233   -2.4038    0.5830 H   0  0  0  0  0  0  0  0  0  0  0  0
   -2.5869   -0.7625   -0.9728 H   0  0  0  0  0  0  0  0  0  0  0  0
   -2.5562   -1.3906    0.7586 H   0  0  0  0  0  0  0  0  0  0  0  0
   -1.8661    0.6709    1.3381 H   0  0  0  0  0  0  0  0  0  0  0  0
   -1.4382    2.4657    0.0568 H   0  0  0  0  0  0  0  0  0  0  0  0
   -0.7736    1.6246   -1.3463 H   0  0  0  0  0  0  0  0  0  0  0  0
   -2.5134    1.4875   -0.9553 H   0  0  0  0  0  0  0  0  0  0  0  0
   -0.0500   -0.7991    1.6104 H   0  0  0  0  0  0  0  0  0  0  0  0
  1  2  1  0
  2  3  1  0
  3  4  1  0
  4  5  1  0
  5  6  1  0
  6  7  1  0
  7  8  1  0
  7  9  1  0
  9  3  1  0
  9  4  1  0
  1 10  1  0
  1 11  1  0
  1 12  1  0
  3 13  1  0
  4 14  1  0
  5 15  1  0
  5 16  1  0
  6 17  1  0
  6 18  1  0
  7 19  1  0
  8 20  1  0
  8 21  1  0
  8 22  1  0
  9 23  1  0
M  END
