
     RDKit          3D

 19 19  0  0  0  0  0  0  0  0999 V2000
    2.4598    0.1378   -0.8045 C   0  0  0  0  0  0  0  0  0  0  0  0
    1.2935   -0.6159   -0.6981 O   0  0  0  0  0  0  0  0  0  0  0  0
    0.6186   -0.2268    0.4229 C   0  0  0  0  0  0  0  0  0  0  0  0
    0.0961   -1.3360    1.2786 C   0  0  0  0  0  0  0  0  0  0  0  0
    0.5292   -2.4835    1.5000 O   0  0  0  0  0  0  0  0  0  0  0  0
   -0.9541   -0.4926    1.6148 O   0  0  0  0  0  0  0  0  0  0  0  0
   -0.8403    0.0658    0.2967 C   0  0  0  0  0  0  0  0  0  0  0  0
   -1.6244   -0.7718   -0.6617 C   0  0  0  0  0  0  0  0  0  0  0  0
   -1.2539    1.4966    0.2667 C   0  0  0  0  0  0  0  0  0  0  0  0
    3.0634   -0.1244   -1.6967 H   0  0  0  0  0  0  0  0  0  0  0  0
    3.0374   -0.0575    0.1436 H   0  0  0  0  0  0  0  0  0  0  0  0
    2.1886    1.2168   -0.7754 H   0  0  0  0  0  0  0  0  0  0  0  0
    1.1272    0.5696    0.9767 H   0  0  0  0  0  0  0  0  0  0  0  0
   -1.7731   -0.2998   -1.6539 H   0  0  0  0  0  0  0  0  0  0  0  0
   -1.2591   -1.8219   -0.7328 H   0  0  0  0  0  0  0  0  0  0  0  0
   -2.6642   -0.8670   -0.2295 H   0  0  0  0  0  0  0  0  0  0  0  0
   -0.4583    2.1110    0.7663 H   0  0  0  0  0  0  0  0  0  0  0  0
   -2.2268    1.6868    0.7945 H   0  0  0  0  0  0  0  0  0  0  0  0
   -1.3596    1.8128   -0.8083 H   0  0  0  0  0  0  0  0  0  0  0  0
  1  2  1  0
  2  3  1  0
  3  4  1  0
  4  5  2  0
  4  6  1  0
  6  7  1  0
  7  8  1  0
  7  9  1  0
  7  3  1  0
  1 10  1  0
  1 11  1  0
  1 12  1  0
  3 13  1  0
  8 14  1  0
  8 15  1  0
  8 16  1  0
  9 17  1  0
  9 18  1  0
  9 19  1  0
M  END
