
     RDKit          3D

 21 22  0  0  0  0  0  0  0  0999 V2000
    2.7940    1.1200    0.8671 C   0  0  0  0  0  0  0  0  0  0  0  0
    1.6676    0.4009    1.1697 O   0  0  0  0  0  0  0  0  0  0  0  0
    0.8198    0.1860    0.0659 C   0  0  0  0  0  0  0  0  0  0  0  0
    0.1938   -1.0592   -0.1482 C   0  0  0  0  0  0  0  0  0  0  0  0
   -0.9998   -1.5385   -0.8621 C   0  0  0  0  0  0  0  0  0  0  0  0
   -2.0261   -1.3622    0.0658 O   0  0  0  0  0  0  0  0  0  0  0  0
   -1.5193   -0.5416    1.1097 C   0  0  0  0  0  0  0  0  0  0  0  0
   -0.5604    0.2626    0.3005 C   0  0  0  0  0  0  0  0  0  0  0  0
   -1.3594    0.9644   -0.8147 C   0  0  0  0  0  0  0  0  0  0  0  0
    3.4287    0.6092    0.0871 H   0  0  0  0  0  0  0  0  0  0  0  0
    3.4254    1.1489    1.7737 H   0  0  0  0  0  0  0  0  0  0  0  0
    2.5814    2.1727    0.5382 H   0  0  0  0  0  0  0  0  0  0  0  0
    1.2685    0.6707   -0.8530 H   0  0  0  0  0  0  0  0  0  0  0  0
    0.4196   -1.7986    0.6851 H   0  0  0  0  0  0  0  0  0  0  0  0
   -0.9383   -2.6450   -1.0520 H   0  0  0  0  0  0  0  0  0  0  0  0
   -1.1947   -1.0856   -1.8393 H   0  0  0  0  0  0  0  0  0  0  0  0
   -2.2965    0.0913    1.5397 H   0  0  0  0  0  0  0  0  0  0  0  0
   -1.0643   -1.2246    1.8309 H   0  0  0  0  0  0  0  0  0  0  0  0
   -0.7229    1.2235   -1.6835 H   0  0  0  0  0  0  0  0  0  0  0  0
   -1.6394    1.9417   -0.3530 H   0  0  0  0  0  0  0  0  0  0  0  0
   -2.2776    0.4635   -1.0891 H   0  0  0  0  0  0  0  0  0  0  0  0
  1  2  1  0
  2  3  1  0
  3  4  1  0
  4  5  1  0
  5  6  1  0
  6  7  1  0
  7  8  1  0
  8  9  1  0
  8  3  1  0
  8  4  1  0
  1 10  1  0
  1 11  1  0
  1 12  1  0
  3 13  1  0
  4 14  1  0
  5 15  1  0
  5 16  1  0
  7 17  1  0
  7 18  1  0
  9 19  1  0
  9 20  1  0
  9 21  1  0
M  END
