
     RDKit          3D

 20 20  0  0  0  0  0  0  0  0999 V2000
   -2.3377    0.9067    1.0215 C   0  0  0  0  0  0  0  0  0  0  0  0
   -1.1547    0.1777    1.0037 O   0  0  0  0  0  0  0  0  0  0  0  0
   -1.0043   -0.4379   -0.2164 C   0  0  0  0  0  0  0  0  0  0  0  0
   -0.3794   -1.8023   -0.1481 C   0  0  0  0  0  0  0  0  0  0  0  0
    0.3374   -0.6416   -0.8217 C   0  0  0  0  0  0  0  0  0  0  0  0
    1.5807   -0.1196   -0.1412 C   0  0  0  0  0  0  0  0  0  0  0  0
    1.5636    1.3701    0.0431 C   0  0  0  0  0  0  0  0  0  0  0  0
    1.7688   -0.7928    1.0754 O   0  0  0  0  0  0  0  0  0  0  0  0
   -2.4307    1.3856    2.0047 H   0  0  0  0  0  0  0  0  0  0  0  0
   -2.3250    1.7373    0.2710 H   0  0  0  0  0  0  0  0  0  0  0  0
   -3.2287    0.2827    0.7640 H   0  0  0  0  0  0  0  0  0  0  0  0
   -1.8252   -0.2473   -0.9383 H   0  0  0  0  0  0  0  0  0  0  0  0
   -0.8259   -2.5891   -0.7750 H   0  0  0  0  0  0  0  0  0  0  0  0
    0.0269   -2.1537    0.7983 H   0  0  0  0  0  0  0  0  0  0  0  0
    0.3937   -0.7503   -1.9230 H   0  0  0  0  0  0  0  0  0  0  0  0
    2.4500   -0.3647   -0.8074 H   0  0  0  0  0  0  0  0  0  0  0  0
    0.6995    1.8737   -0.4057 H   0  0  0  0  0  0  0  0  0  0  0  0
    2.4745    1.8644   -0.3995 H   0  0  0  0  0  0  0  0  0  0  0  0
    1.6196    1.6163    1.1434 H   0  0  0  0  0  0  0  0  0  0  0  0
    2.5969   -1.3152    1.0583 H   0  0  0  0  0  0  0  0  0  0  0  0
  1  2  1  0
  2  3  1  0
  3  4  1  0
  4  5  1  0
  5  6  1  0
  6  7  1  0
  6  8  1  0
  5  3  1  0
  1  9  1  0
  1 10  1  0
  1 11  1  0
  3 12  1  0
  4 13  1  0
  4 14  1  0
  5 15  1  0
  6 16  1  0
  7 17  1  0
  7 18  1  0
  7 19  1  0
  8 20  1  0
M  END
