
     RDKit          3D

 23 23  0  0  0  0  0  0  0  0999 V2000
    3.1004    0.3022   -0.2009 C   0  0  0  0  0  0  0  0  0  0  0  0
    1.7855    0.7342   -0.3455 O   0  0  0  0  0  0  0  0  0  0  0  0
    0.8718   -0.1160    0.2269 C   0  0  0  0  0  0  0  0  0  0  0  0
   -0.0908    0.6428    1.1257 C   0  0  0  0  0  0  0  0  0  0  0  0
   -1.2446    0.2936    0.2244 C   0  0  0  0  0  0  0  0  0  0  0  0
   -1.8894    1.4591   -0.4870 C   0  0  0  0  0  0  0  0  0  0  0  0
   -2.2334   -0.4619    0.8654 O   0  0  0  0  0  0  0  0  0  0  0  0
   -0.3017   -0.4984   -0.6420 C   0  0  0  0  0  0  0  0  0  0  0  0
   -0.6572   -1.9686   -0.6079 C   0  0  0  0  0  0  0  0  0  0  0  0
    3.2679   -0.7014   -0.6741 H   0  0  0  0  0  0  0  0  0  0  0  0
    3.3791    0.1906    0.8776 H   0  0  0  0  0  0  0  0  0  0  0  0
    3.7846    1.0764   -0.6043 H   0  0  0  0  0  0  0  0  0  0  0  0
    1.3291   -1.0035    0.7084 H   0  0  0  0  0  0  0  0  0  0  0  0
   -0.1784    0.2209    2.1546 H   0  0  0  0  0  0  0  0  0  0  0  0
    0.1117    1.7296    1.1747 H   0  0  0  0  0  0  0  0  0  0  0  0
   -2.4160    2.0994    0.2499 H   0  0  0  0  0  0  0  0  0  0  0  0
   -1.1189    2.1184   -0.9669 H   0  0  0  0  0  0  0  0  0  0  0  0
   -2.5613    1.0423   -1.2612 H   0  0  0  0  0  0  0  0  0  0  0  0
   -2.3753   -0.0322    1.7440 H   0  0  0  0  0  0  0  0  0  0  0  0
   -0.2420   -0.0550   -1.6625 H   0  0  0  0  0  0  0  0  0  0  0  0
    0.1131   -2.5924   -0.1409 H   0  0  0  0  0  0  0  0  0  0  0  0
   -1.6412   -2.1473   -0.0951 H   0  0  0  0  0  0  0  0  0  0  0  0
   -0.7929   -2.3328   -1.6632 H   0  0  0  0  0  0  0  0  0  0  0  0
  1  2  1  0
  2  3  1  0
  3  4  1  0
  4  5  1  0
  5  6  1  0
  5  7  1  0
  5  8  1  0
  8  9  1  0
  8  3  1  0
  1 10  1  0
  1 11  1  0
  1 12  1  0
  3 13  1  0
  4 14  1  0
  4 15  1  0
  6 16  1  0
  6 17  1  0
  6 18  1  0
  7 19  1  0
  8 20  1  0
  9 21  1  0
  9 22  1  0
  9 23  1  0
M  END
