
     RDKit          3D

 21 21  0  0  0  0  0  0  0  0999 V2000
   -2.9643    0.0118   -0.4038 C   0  0  0  0  0  0  0  0  0  0  0  0
   -1.8400   -0.7848   -0.1460 O   0  0  0  0  0  0  0  0  0  0  0  0
   -0.6967   -0.0336   -0.2202 C   0  0  0  0  0  0  0  0  0  0  0  0
    0.6141   -0.6150   -0.6291 C   0  0  0  0  0  0  0  0  0  0  0  0
    1.5635    0.1875   -1.4651 C   0  0  0  0  0  0  0  0  0  0  0  0
    1.9841    1.3563   -0.9147 O   0  0  0  0  0  0  0  0  0  0  0  0
    0.3975   -0.4177    0.7962 C   0  0  0  0  0  0  0  0  0  0  0  0
    0.8709    0.7340    1.6025 C   0  0  0  0  0  0  0  0  0  0  0  0
    0.1263   -1.5577    1.5922 O   0  0  0  0  0  0  0  0  0  0  0  0
   -3.0472    0.8338    0.3245 H   0  0  0  0  0  0  0  0  0  0  0  0
   -2.8713    0.3554   -1.4513 H   0  0  0  0  0  0  0  0  0  0  0  0
   -3.8922   -0.5995   -0.2893 H   0  0  0  0  0  0  0  0  0  0  0  0
   -0.8285    1.0307   -0.4596 H   0  0  0  0  0  0  0  0  0  0  0  0
    0.5329   -1.6713   -0.9974 H   0  0  0  0  0  0  0  0  0  0  0  0
    1.0550    0.4292   -2.4411 H   0  0  0  0  0  0  0  0  0  0  0  0
    2.4640   -0.4513   -1.6531 H   0  0  0  0  0  0  0  0  0  0  0  0
    2.8059    1.2794   -0.3473 H   0  0  0  0  0  0  0  0  0  0  0  0
    0.8510    1.7085    1.0994 H   0  0  0  0  0  0  0  0  0  0  0  0
    1.8661    0.5421    2.1000 H   0  0  0  0  0  0  0  0  0  0  0  0
    0.1623    0.8429    2.4783 H   0  0  0  0  0  0  0  0  0  0  0  0
    0.8464   -2.2364    1.4249 H   0  0  0  0  0  0  0  0  0  0  0  0
  1  2  1  0
  2  3  1  0
  3  4  1  0
  4  5  1  0
  5  6  1  0
  4  7  1  0
  7  8  1  0
  7  9  1  0
  7  3  1  0
  1 10  1  0
  1 11  1  0
  1 12  1  0
  3 13  1  0
  4 14  1  0
  5 15  1  0
  5 16  1  0
  6 17  1  0
  8 18  1  0
  8 19  1  0
  8 20  1  0
  9 21  1  0
M  END
