
     RDKit          3D

 19 19  0  0  0  0  0  0  0  0999 V2000
    2.6983   -0.0533    0.3856 C   0  0  0  0  0  0  0  0  0  0  0  0
    1.4618   -0.6860    0.6270 O   0  0  0  0  0  0  0  0  0  0  0  0
    0.4690    0.0292   -0.0252 C   0  0  0  0  0  0  0  0  0  0  0  0
   -0.3572   -0.8330   -0.9558 C   0  0  0  0  0  0  0  0  0  0  0  0
   -1.8049   -0.6651   -0.5098 C   0  0  0  0  0  0  0  0  0  0  0  0
   -1.7562    0.7537    0.0715 C   0  0  0  0  0  0  0  0  0  0  0  0
   -0.5241    0.6330    0.9643 C   0  0  0  0  0  0  0  0  0  0  0  0
    2.5876    0.9715    0.7954 H   0  0  0  0  0  0  0  0  0  0  0  0
    2.8530    0.0294   -0.7069 H   0  0  0  0  0  0  0  0  0  0  0  0
    3.5171   -0.5788    0.9095 H   0  0  0  0  0  0  0  0  0  0  0  0
    0.9089    0.9129   -0.5667 H   0  0  0  0  0  0  0  0  0  0  0  0
   -0.0462   -1.8943   -0.9473 H   0  0  0  0  0  0  0  0  0  0  0  0
   -0.3211   -0.4412   -2.0008 H   0  0  0  0  0  0  0  0  0  0  0  0
   -2.0421   -1.3244    0.3591 H   0  0  0  0  0  0  0  0  0  0  0  0
   -2.5182   -0.7420   -1.3321 H   0  0  0  0  0  0  0  0  0  0  0  0
   -1.5327    1.4135   -0.7894 H   0  0  0  0  0  0  0  0  0  0  0  0
   -2.6539    1.0095    0.6272 H   0  0  0  0  0  0  0  0  0  0  0  0
   -0.7492   -0.1295    1.7364 H   0  0  0  0  0  0  0  0  0  0  0  0
   -0.1900    1.5949    1.3580 H   0  0  0  0  0  0  0  0  0  0  0  0
  1  2  1  0
  2  3  1  0
  3  4  1  0
  4  5  1  0
  5  6  1  0
  6  7  1  0
  7  3  1  0
  1  8  1  0
  1  9  1  0
  1 10  1  0
  3 11  1  0
  4 12  1  0
  4 13  1  0
  5 14  1  0
  5 15  1  0
  6 16  1  0
  6 17  1  0
  7 18  1  0
  7 19  1  0
M  END
