
     RDKit          3D

 18 19  0  0  0  0  0  0  0  0999 V2000
    2.0858    0.6147    0.5323 C   0  0  0  0  0  0  0  0  0  0  0  0
    0.8118    0.5241    1.0956 O   0  0  0  0  0  0  0  0  0  0  0  0
   -0.0850    0.3297    0.0764 C   0  0  0  0  0  0  0  0  0  0  0  0
   -0.2117    1.3218   -0.9842 C   0  0  0  0  0  0  0  0  0  0  0  0
   -1.3395    1.1216   -0.0445 C   0  0  0  0  0  0  0  0  0  0  0  0
   -2.1065   -0.0276   -0.2730 O   0  0  0  0  0  0  0  0  0  0  0  0
   -1.0925   -0.7606    0.3113 C   0  0  0  0  0  0  0  0  0  0  0  0
   -0.7240   -2.0479   -0.3914 C   0  0  0  0  0  0  0  0  0  0  0  0
    2.0994    1.4648   -0.1660 H   0  0  0  0  0  0  0  0  0  0  0  0
    2.3150   -0.3504   -0.0062 H   0  0  0  0  0  0  0  0  0  0  0  0
    2.8734    0.7208    1.2988 H   0  0  0  0  0  0  0  0  0  0  0  0
   -0.4415    1.0445   -2.0461 H   0  0  0  0  0  0  0  0  0  0  0  0
    0.3651    2.2526   -0.8955 H   0  0  0  0  0  0  0  0  0  0  0  0
   -1.5764    1.7959    0.7736 H   0  0  0  0  0  0  0  0  0  0  0  0
   -1.2774   -0.9081    1.3948 H   0  0  0  0  0  0  0  0  0  0  0  0
   -1.5404   -2.7641   -0.4645 H   0  0  0  0  0  0  0  0  0  0  0  0
    0.0795   -2.5214    0.2322 H   0  0  0  0  0  0  0  0  0  0  0  0
   -0.2352   -1.8103   -1.3636 H   0  0  0  0  0  0  0  0  0  0  0  0
  1  2  1  0
  2  3  1  0
  3  4  1  0
  4  5  1  0
  5  6  1  0
  6  7  1  0
  7  8  1  0
  5  3  1  0
  7  3  1  0
  1  9  1  0
  1 10  1  0
  1 11  1  0
  4 12  1  0
  4 13  1  0
  5 14  1  0
  7 15  1  0
  8 16  1  0
  8 17  1  0
  8 18  1  0
M  END
