
     RDKit          3D

 21 22  0  0  0  0  0  0  0  0999 V2000
    3.0452    0.4164   -0.1890 C   0  0  0  0  0  0  0  0  0  0  0  0
    1.9160   -0.3966   -0.1153 O   0  0  0  0  0  0  0  0  0  0  0  0
    0.8095    0.3849   -0.2888 C   0  0  0  0  0  0  0  0  0  0  0  0
   -0.2614   -0.1740   -1.2067 C   0  0  0  0  0  0  0  0  0  0  0  0
   -0.4921   -1.5146   -0.6332 C   0  0  0  0  0  0  0  0  0  0  0  0
   -0.4932   -1.2671    0.7013 C   0  0  0  0  0  0  0  0  0  0  0  0
   -0.2851    0.1825    0.7661 C   0  0  0  0  0  0  0  0  0  0  0  0
   -1.2083    0.6774   -0.3532 C   0  0  0  0  0  0  0  0  0  0  0  0
   -2.6050    0.1623   -0.2774 C   0  0  0  0  0  0  0  0  0  0  0  0
    3.9280   -0.2371   -0.0460 H   0  0  0  0  0  0  0  0  0  0  0  0
    3.1687    0.8820   -1.1938 H   0  0  0  0  0  0  0  0  0  0  0  0
    2.9991    1.2486    0.5417 H   0  0  0  0  0  0  0  0  0  0  0  0
    1.0263    1.4492   -0.4443 H   0  0  0  0  0  0  0  0  0  0  0  0
   -0.2170   -0.0064   -2.2394 H   0  0  0  0  0  0  0  0  0  0  0  0
   -0.6233   -2.4396   -1.1586 H   0  0  0  0  0  0  0  0  0  0  0  0
   -0.6175   -1.9689    1.5174 H   0  0  0  0  0  0  0  0  0  0  0  0
   -0.2354    0.7182    1.6619 H   0  0  0  0  0  0  0  0  0  0  0  0
   -1.0635    1.7355   -0.5954 H   0  0  0  0  0  0  0  0  0  0  0  0
   -2.8964   -0.1802   -1.2980 H   0  0  0  0  0  0  0  0  0  0  0  0
   -2.6351   -0.6663    0.4692 H   0  0  0  0  0  0  0  0  0  0  0  0
   -3.2596    0.9938    0.0562 H   0  0  0  0  0  0  0  0  0  0  0  0
  1  2  1  0
  2  3  1  0
  3  4  1  0
  4  5  1  0
  5  6  2  0
  6  7  1  0
  7  8  1  0
  8  9  1  0
  7  3  1  0
  8  4  1  0
  1 10  1  0
  1 11  1  0
  1 12  1  0
  3 13  1  0
  4 14  1  0
  5 15  1  0
  6 16  1  0
  7 17  1  0
  8 18  1  0
  9 19  1  0
  9 20  1  0
  9 21  1  0
M  END
