
     RDKit          3D

 21 21  0  0  0  0  0  0  0  0999 V2000
   -1.7797   -0.3852   -1.1360 C   0  0  0  0  0  0  0  0  0  0  0  0
   -0.6191    0.3931   -1.0345 O   0  0  0  0  0  0  0  0  0  0  0  0
   -0.3180    0.4617    0.3285 C   0  0  0  0  0  0  0  0  0  0  0  0
   -1.4021    1.0879    1.1793 C   0  0  0  0  0  0  0  0  0  0  0  0
    1.0705    0.9636    0.5843 C   0  0  0  0  0  0  0  0  0  0  0  0
    1.5158   -0.4834    0.4375 C   0  0  0  0  0  0  0  0  0  0  0  0
    1.9281   -0.7948   -0.9711 C   0  0  0  0  0  0  0  0  0  0  0  0
    0.1240   -0.8801    0.7960 C   0  0  0  0  0  0  0  0  0  0  0  0
   -0.4801   -1.8288    1.2591 O   0  0  0  0  0  0  0  0  0  0  0  0
   -2.0359   -0.4516   -2.2170 H   0  0  0  0  0  0  0  0  0  0  0  0
   -1.5766   -1.4407   -0.7928 H   0  0  0  0  0  0  0  0  0  0  0  0
   -2.6248    0.0515   -0.5704 H   0  0  0  0  0  0  0  0  0  0  0  0
   -0.8825    1.8623    1.8155 H   0  0  0  0  0  0  0  0  0  0  0  0
   -1.9468    0.3501    1.7957 H   0  0  0  0  0  0  0  0  0  0  0  0
   -2.1285    1.6672    0.5714 H   0  0  0  0  0  0  0  0  0  0  0  0
    1.4341    1.5870   -0.2437 H   0  0  0  0  0  0  0  0  0  0  0  0
    1.2609    1.3230    1.6069 H   0  0  0  0  0  0  0  0  0  0  0  0
    2.2312   -0.8274    1.1946 H   0  0  0  0  0  0  0  0  0  0  0  0
    3.0321   -0.9279   -0.9921 H   0  0  0  0  0  0  0  0  0  0  0  0
    1.7059    0.0232   -1.6860 H   0  0  0  0  0  0  0  0  0  0  0  0
    1.4914   -1.7509   -1.3500 H   0  0  0  0  0  0  0  0  0  0  0  0
  1  2  1  0
  2  3  1  0
  3  4  1  0
  3  5  1  0
  5  6  1  0
  6  7  1  0
  6  8  1  0
  8  9  2  0
  8  3  1  0
  1 10  1  0
  1 11  1  0
  1 12  1  0
  4 13  1  0
  4 14  1  0
  4 15  1  0
  5 16  1  0
  5 17  1  0
  6 18  1  0
  7 19  1  0
  7 20  1  0
  7 21  1  0
M  END
