
     RDKit          3D

 20 20  0  0  0  0  0  0  0  0999 V2000
    2.9169    0.2820    0.2775 C   0  0  0  0  0  0  0  0  0  0  0  0
    1.7722    0.2598   -0.5426 O   0  0  0  0  0  0  0  0  0  0  0  0
    0.7278   -0.4300    0.0628 C   0  0  0  0  0  0  0  0  0  0  0  0
   -0.1218   -1.2882   -0.8528 C   0  0  0  0  0  0  0  0  0  0  0  0
   -0.6458   -0.0108   -0.2602 C   0  0  0  0  0  0  0  0  0  0  0  0
   -0.7995    1.2021   -1.1546 C   0  0  0  0  0  0  0  0  0  0  0  0
   -1.7642   -0.1711    0.7539 C   0  0  0  0  0  0  0  0  0  0  0  0
   -2.9240    0.3150    0.1451 O   0  0  0  0  0  0  0  0  0  0  0  0
    2.6224    0.7866    1.2129 H   0  0  0  0  0  0  0  0  0  0  0  0
    3.6703    0.8852   -0.2942 H   0  0  0  0  0  0  0  0  0  0  0  0
    3.2686   -0.7532    0.4165 H   0  0  0  0  0  0  0  0  0  0  0  0
    0.9830   -0.8324    1.0689 H   0  0  0  0  0  0  0  0  0  0  0  0
   -0.4563   -2.2460   -0.4145 H   0  0  0  0  0  0  0  0  0  0  0  0
    0.1946   -1.3277   -1.9149 H   0  0  0  0  0  0  0  0  0  0  0  0
   -0.3383    2.0623   -0.6270 H   0  0  0  0  0  0  0  0  0  0  0  0
   -1.8678    1.4474   -1.3186 H   0  0  0  0  0  0  0  0  0  0  0  0
   -0.2356    1.0656   -2.0920 H   0  0  0  0  0  0  0  0  0  0  0  0
   -1.5954    0.4236    1.6673 H   0  0  0  0  0  0  0  0  0  0  0  0
   -1.9184   -1.2447    1.0204 H   0  0  0  0  0  0  0  0  0  0  0  0
   -3.4887   -0.4255   -0.1703 H   0  0  0  0  0  0  0  0  0  0  0  0
  1  2  1  0
  2  3  1  0
  3  4  1  0
  4  5  1  0
  5  6  1  0
  5  7  1  0
  7  8  1  0
  5  3  1  0
  1  9  1  0
  1 10  1  0
  1 11  1  0
  3 12  1  0
  4 13  1  0
  4 14  1  0
  6 15  1  0
  6 16  1  0
  6 17  1  0
  7 18  1  0
  7 19  1  0
  8 20  1  0
M  END
