
     RDKit          3D

 20 20  0  0  0  0  0  0  0  0999 V2000
    3.0796    0.4909    0.1552 C   0  0  0  0  0  0  0  0  0  0  0  0
    1.8273    0.6473   -0.4060 O   0  0  0  0  0  0  0  0  0  0  0  0
    0.8658   -0.1799    0.1407 C   0  0  0  0  0  0  0  0  0  0  0  0
   -0.2870    0.6796    0.5297 C   0  0  0  0  0  0  0  0  0  0  0  0
   -1.4455    0.1620    0.1626 C   0  0  0  0  0  0  0  0  0  0  0  0
   -2.8125    0.7689    0.3956 C   0  0  0  0  0  0  0  0  0  0  0  0
   -1.1757   -1.1262   -0.5042 C   0  0  0  0  0  0  0  0  0  0  0  0
    0.2319   -0.9774   -1.0222 C   0  0  0  0  0  0  0  0  0  0  0  0
    3.7594    1.2031   -0.3626 H   0  0  0  0  0  0  0  0  0  0  0  0
    3.0021    0.8685    1.2120 H   0  0  0  0  0  0  0  0  0  0  0  0
    3.4507   -0.5422    0.1615 H   0  0  0  0  0  0  0  0  0  0  0  0
    1.2152   -0.8383    0.9314 H   0  0  0  0  0  0  0  0  0  0  0  0
   -0.1427    1.6310    1.0622 H   0  0  0  0  0  0  0  0  0  0  0  0
   -2.9184    1.7226   -0.1598 H   0  0  0  0  0  0  0  0  0  0  0  0
   -2.9545    1.0005    1.4623 H   0  0  0  0  0  0  0  0  0  0  0  0
   -3.5752    0.0810   -0.0213 H   0  0  0  0  0  0  0  0  0  0  0  0
   -1.9007   -1.3514   -1.3152 H   0  0  0  0  0  0  0  0  0  0  0  0
   -1.1650   -1.9619    0.2583 H   0  0  0  0  0  0  0  0  0  0  0  0
    0.7503   -1.9358   -1.1669 H   0  0  0  0  0  0  0  0  0  0  0  0
    0.1950   -0.3423   -1.9241 H   0  0  0  0  0  0  0  0  0  0  0  0
  1  2  1  0
  2  3  1  0
  3  4  1  0
  4  5  2  0
  5  6  1  0
  5  7  1  0
  7  8  1  0
  8  3  1  0
  1  9  1  0
  1 10  1  0
  1 11  1  0
  3 12  1  0
  4 13  1  0
  6 14  1  0
  6 15  1  0
  6 16  1  0
  7 17  1  0
  7 18  1  0
  8 19  1  0
  8 20  1  0
M  END
