
     RDKit          3D

 25 25  0  0  0  0  0  0  0  0999 V2000
    3.0437   -0.2813   -0.5258 C   0  0  0  0  0  0  0  0  0  0  0  0
    2.1904    0.5784    0.1589 O   0  0  0  0  0  0  0  0  0  0  0  0
    0.8454    0.1975   -0.0168 C   0  0  0  0  0  0  0  0  0  0  0  0
    0.1575    1.3142   -0.7230 C   0  0  0  0  0  0  0  0  0  0  0  0
   -1.2432    0.9586   -1.1624 C   0  0  0  0  0  0  0  0  0  0  0  0
   -2.0502    0.4328    0.0013 C   0  0  0  0  0  0  0  0  0  0  0  0
   -1.6974   -1.0525    0.1301 C   0  0  0  0  0  0  0  0  0  0  0  0
   -0.7836   -1.1720    1.3194 C   0  0  0  0  0  0  0  0  0  0  0  0
    0.3110   -0.1373    1.3216 C   0  0  0  0  0  0  0  0  0  0  0  0
    4.0744    0.0832   -0.3385 H   0  0  0  0  0  0  0  0  0  0  0  0
    3.0007   -1.3217   -0.1626 H   0  0  0  0  0  0  0  0  0  0  0  0
    2.8989   -0.2133   -1.6318 H   0  0  0  0  0  0  0  0  0  0  0  0
    0.8104   -0.6969   -0.6609 H   0  0  0  0  0  0  0  0  0  0  0  0
    0.1506    2.2661   -0.1703 H   0  0  0  0  0  0  0  0  0  0  0  0
    0.7340    1.5155   -1.6657 H   0  0  0  0  0  0  0  0  0  0  0  0
   -1.2008    0.1662   -1.9391 H   0  0  0  0  0  0  0  0  0  0  0  0
   -1.7048    1.8503   -1.6277 H   0  0  0  0  0  0  0  0  0  0  0  0
   -3.1377    0.5610   -0.1766 H   0  0  0  0  0  0  0  0  0  0  0  0
   -1.8325    0.9780    0.9470 H   0  0  0  0  0  0  0  0  0  0  0  0
   -2.6123   -1.6325    0.3583 H   0  0  0  0  0  0  0  0  0  0  0  0
   -1.2780   -1.4503   -0.7993 H   0  0  0  0  0  0  0  0  0  0  0  0
   -1.4013   -0.9887    2.2248 H   0  0  0  0  0  0  0  0  0  0  0  0
   -0.4006   -2.2078    1.3461 H   0  0  0  0  0  0  0  0  0  0  0  0
    1.1344   -0.5489    1.9482 H   0  0  0  0  0  0  0  0  0  0  0  0
   -0.0090    0.8015    1.8450 H   0  0  0  0  0  0  0  0  0  0  0  0
  1  2  1  0
  2  3  1  0
  3  4  1  0
  4  5  1  0
  5  6  1  0
  6  7  1  0
  7  8  1  0
  8  9  1  0
  9  3  1  0
  1 10  1  0
  1 11  1  0
  1 12  1  0
  3 13  1  0
  4 14  1  0
  4 15  1  0
  5 16  1  0
  5 17  1  0
  6 18  1  0
  6 19  1  0
  7 20  1  0
  7 21  1  0
  8 22  1  0
  8 23  1  0
  9 24  1  0
  9 25  1  0
M  END
