
     RDKit          3D

 21 22  0  0  0  0  0  0  0  0999 V2000
    2.9317    0.2052    0.2406 C   0  0  0  0  0  0  0  0  0  0  0  0
    1.6752    0.8160    0.2166 O   0  0  0  0  0  0  0  0  0  0  0  0
    0.7246   -0.1556    0.1286 C   0  0  0  0  0  0  0  0  0  0  0  0
   -0.1526   -0.0310   -1.1168 C   0  0  0  0  0  0  0  0  0  0  0  0
   -1.5509   -0.1792   -0.6423 C   0  0  0  0  0  0  0  0  0  0  0  0
   -1.8929    1.1162    0.1058 C   0  0  0  0  0  0  0  0  0  0  0  0
   -0.9639    1.1528    1.1338 O   0  0  0  0  0  0  0  0  0  0  0  0
   -0.3360   -0.0619    1.2240 C   0  0  0  0  0  0  0  0  0  0  0  0
   -1.3516   -1.0458    0.6117 C   0  0  0  0  0  0  0  0  0  0  0  0
    3.1318   -0.3925   -0.6576 H   0  0  0  0  0  0  0  0  0  0  0  0
    2.9042   -0.5099    1.1077 H   0  0  0  0  0  0  0  0  0  0  0  0
    3.7531    0.9307    0.4178 H   0  0  0  0  0  0  0  0  0  0  0  0
    1.1339   -1.1958    0.0955 H   0  0  0  0  0  0  0  0  0  0  0  0
    0.1563   -0.6972   -1.9211 H   0  0  0  0  0  0  0  0  0  0  0  0
   -0.0105    1.0349   -1.4600 H   0  0  0  0  0  0  0  0  0  0  0  0
   -2.2940   -0.5247   -1.3111 H   0  0  0  0  0  0  0  0  0  0  0  0
   -1.8060    1.9309   -0.6151 H   0  0  0  0  0  0  0  0  0  0  0  0
   -2.9327    1.0362    0.5350 H   0  0  0  0  0  0  0  0  0  0  0  0
    0.0093   -0.3646    2.1938 H   0  0  0  0  0  0  0  0  0  0  0  0
   -2.2307   -1.0583    1.2508 H   0  0  0  0  0  0  0  0  0  0  0  0
   -0.8983   -2.0064    0.3843 H   0  0  0  0  0  0  0  0  0  0  0  0
  1  2  1  0
  2  3  1  0
  3  4  1  0
  4  5  1  0
  5  6  1  0
  6  7  1  0
  7  8  1  0
  8  9  1  0
  8  3  1  0
  9  5  1  0
  1 10  1  0
  1 11  1  0
  1 12  1  0
  3 13  1  0
  4 14  1  0
  4 15  1  0
  5 16  1  0
  6 17  1  0
  6 18  1  0
  8 19  1  0
  9 20  1  0
  9 21  1  0
M  END
