
     RDKit          3D

 21 22  0  0  0  0  0  0  0  0999 V2000
   -3.4266    0.7753   -0.1651 C   0  0  0  0  0  0  0  0  0  0  0  0
   -2.4641    0.0712    0.5337 O   0  0  0  0  0  0  0  0  0  0  0  0
   -1.3318   -0.1473   -0.2484 C   0  0  0  0  0  0  0  0  0  0  0  0
   -0.7630   -1.5382   -0.0982 C   0  0  0  0  0  0  0  0  0  0  0  0
   -0.0693   -0.2882    0.4644 C   0  0  0  0  0  0  0  0  0  0  0  0
    1.2690   -0.0258   -0.1346 C   0  0  0  0  0  0  0  0  0  0  0  0
    2.4552   -0.2279    0.7582 C   0  0  0  0  0  0  0  0  0  0  0  0
    2.9681    0.8845   -0.1623 C   0  0  0  0  0  0  0  0  0  0  0  0
    1.6307    1.3185   -0.2345 O   0  0  0  0  0  0  0  0  0  0  0  0
   -2.9911    1.7436   -0.4570 H   0  0  0  0  0  0  0  0  0  0  0  0
   -3.6485    0.2361   -1.1298 H   0  0  0  0  0  0  0  0  0  0  0  0
   -4.3797    0.8606    0.3571 H   0  0  0  0  0  0  0  0  0  0  0  0
   -1.4078    0.2759   -1.2706 H   0  0  0  0  0  0  0  0  0  0  0  0
   -1.2093   -2.2288    0.6530 H   0  0  0  0  0  0  0  0  0  0  0  0
   -0.3665   -1.9675   -1.0297 H   0  0  0  0  0  0  0  0  0  0  0  0
   -0.0773   -0.2005    1.5887 H   0  0  0  0  0  0  0  0  0  0  0  0
    1.4258   -0.5500   -1.0963 H   0  0  0  0  0  0  0  0  0  0  0  0
    2.3502    0.0923    1.8080 H   0  0  0  0  0  0  0  0  0  0  0  0
    3.0407   -1.1384    0.6217 H   0  0  0  0  0  0  0  0  0  0  0  0
    3.6458    1.5970    0.3524 H   0  0  0  0  0  0  0  0  0  0  0  0
    3.3493    0.4575   -1.1106 H   0  0  0  0  0  0  0  0  0  0  0  0
  1  2  1  0
  2  3  1  0
  3  4  1  0
  4  5  1  0
  5  6  1  0
  6  7  1  0
  7  8  1  0
  8  9  1  0
  5  3  1  0
  9  6  1  0
  1 10  1  0
  1 11  1  0
  1 12  1  0
  3 13  1  0
  4 14  1  0
  4 15  1  0
  5 16  1  0
  6 17  1  0
  7 18  1  0
  7 19  1  0
  8 20  1  0
  8 21  1  0
M  END
