
     RDKit          3D

 19 20  0  0  0  0  0  0  0  0999 V2000
    2.0348   -1.0800   -0.0862 C   0  0  0  0  0  0  0  0  0  0  0  0
    1.6894    0.2052    0.2778 O   0  0  0  0  0  0  0  0  0  0  0  0
    0.3560    0.4586    0.3244 C   0  0  0  0  0  0  0  0  0  0  0  0
   -0.4665   -0.3382    1.2515 C   0  0  0  0  0  0  0  0  0  0  0  0
   -1.5236   -0.8498    0.6475 C   0  0  0  0  0  0  0  0  0  0  0  0
   -1.5467   -0.4541   -0.7913 C   0  0  0  0  0  0  0  0  0  0  0  0
   -0.4017    0.4963   -0.9665 C   0  0  0  0  0  0  0  0  0  0  0  0
   -0.7980    1.7971   -0.7342 O   0  0  0  0  0  0  0  0  0  0  0  0
    0.0508    1.9169    0.3731 C   0  0  0  0  0  0  0  0  0  0  0  0
    3.1504   -1.1433   -0.0824 H   0  0  0  0  0  0  0  0  0  0  0  0
    1.6143   -1.8483    0.5723 H   0  0  0  0  0  0  0  0  0  0  0  0
    1.7428   -1.2113   -1.1579 H   0  0  0  0  0  0  0  0  0  0  0  0
   -0.2332   -0.4867    2.3003 H   0  0  0  0  0  0  0  0  0  0  0  0
   -2.3150   -1.4822    1.0691 H   0  0  0  0  0  0  0  0  0  0  0  0
   -1.4476   -1.3331   -1.4629 H   0  0  0  0  0  0  0  0  0  0  0  0
   -2.4991    0.0893   -0.9780 H   0  0  0  0  0  0  0  0  0  0  0  0
    0.1717    0.4222   -1.8942 H   0  0  0  0  0  0  0  0  0  0  0  0
    0.9145    2.5681    0.0659 H   0  0  0  0  0  0  0  0  0  0  0  0
   -0.4934    2.2733    1.2714 H   0  0  0  0  0  0  0  0  0  0  0  0
  1  2  1  0
  2  3  1  0
  3  4  1  0
  4  5  2  0
  5  6  1  0
  6  7  1  0
  7  8  1  0
  8  9  1  0
  7  3  1  0
  9  3  1  0
  1 10  1  0
  1 11  1  0
  1 12  1  0
  4 13  1  0
  5 14  1  0
  6 15  1  0
  6 16  1  0
  7 17  1  0
  9 18  1  0
  9 19  1  0
M  END
