
     RDKit          3D

 21 21  0  0  0  0  0  0  0  0999 V2000
   -3.2518    0.0463   -0.1954 C   0  0  0  0  0  0  0  0  0  0  0  0
   -2.1049   -0.6855   -0.1010 O   0  0  0  0  0  0  0  0  0  0  0  0
   -0.9376   -0.0925   -0.3362 C   0  0  0  0  0  0  0  0  0  0  0  0
   -0.0367   -0.6789   -1.3707 C   0  0  0  0  0  0  0  0  0  0  0  0
    1.2275   -0.1410   -1.1347 O   0  0  0  0  0  0  0  0  0  0  0  0
    1.2453    0.4146    0.1079 C   0  0  0  0  0  0  0  0  0  0  0  0
    2.5205    0.1555    0.8726 C   0  0  0  0  0  0  0  0  0  0  0  0
    3.5743    0.6980    0.1359 O   0  0  0  0  0  0  0  0  0  0  0  0
    0.0235   -0.0828    0.8636 C   0  0  0  0  0  0  0  0  0  0  0  0
   -3.4457    0.4970   -1.1852 H   0  0  0  0  0  0  0  0  0  0  0  0
   -4.1184   -0.6217    0.0094 H   0  0  0  0  0  0  0  0  0  0  0  0
   -3.2851    0.8295    0.5946 H   0  0  0  0  0  0  0  0  0  0  0  0
   -1.0858    0.9804   -0.5905 H   0  0  0  0  0  0  0  0  0  0  0  0
   -0.3816   -0.5035   -2.4100 H   0  0  0  0  0  0  0  0  0  0  0  0
    0.0953   -1.7799   -1.2605 H   0  0  0  0  0  0  0  0  0  0  0  0
    1.1026    1.5117   -0.0008 H   0  0  0  0  0  0  0  0  0  0  0  0
    2.7369   -0.9238    0.9788 H   0  0  0  0  0  0  0  0  0  0  0  0
    2.5286    0.6751    1.8521 H   0  0  0  0  0  0  0  0  0  0  0  0
    3.7376    0.2087   -0.7125 H   0  0  0  0  0  0  0  0  0  0  0  0
    0.1589   -1.1254    1.2281 H   0  0  0  0  0  0  0  0  0  0  0  0
   -0.3034    0.6183    1.6387 H   0  0  0  0  0  0  0  0  0  0  0  0
  1  2  1  0
  2  3  1  0
  3  4  1  0
  4  5  1  0
  5  6  1  0
  6  7  1  0
  7  8  1  0
  6  9  1  0
  9  3  1  0
  1 10  1  0
  1 11  1  0
  1 12  1  0
  3 13  1  0
  4 14  1  0
  4 15  1  0
  6 16  1  0
  7 17  1  0
  7 18  1  0
  8 19  1  0
  9 20  1  0
  9 21  1  0
M  END
