
     RDKit          3D

 23 23  0  0  0  0  0  0  0  0999 V2000
    3.1034   -0.1314    0.2773 C   0  0  0  0  0  0  0  0  0  0  0  0
    1.7843    0.1104    0.5906 O   0  0  0  0  0  0  0  0  0  0  0  0
    0.8738   -0.3762   -0.3125 C   0  0  0  0  0  0  0  0  0  0  0  0
    0.0200   -1.4547    0.2169 C   0  0  0  0  0  0  0  0  0  0  0  0
   -1.2805   -1.4922    0.4425 C   0  0  0  0  0  0  0  0  0  0  0  0
   -2.2700   -0.4113    0.2128 C   0  0  0  0  0  0  0  0  0  0  0  0
   -1.6606    0.8704    0.7076 C   0  0  0  0  0  0  0  0  0  0  0  0
   -0.7665    1.5497   -0.2825 C   0  0  0  0  0  0  0  0  0  0  0  0
    0.1188    0.6802   -1.0586 C   0  0  0  0  0  0  0  0  0  0  0  0
    3.3536    0.3266   -0.6842 H   0  0  0  0  0  0  0  0  0  0  0  0
    3.7683    0.0954    1.1065 H   0  0  0  0  0  0  0  0  0  0  0  0
    3.1867   -1.2468    0.1108 H   0  0  0  0  0  0  0  0  0  0  0  0
    1.5106   -0.8712   -1.1117 H   0  0  0  0  0  0  0  0  0  0  0  0
    0.5348   -2.3677    0.4633 H   0  0  0  0  0  0  0  0  0  0  0  0
   -1.6372   -2.4334    0.8411 H   0  0  0  0  0  0  0  0  0  0  0  0
   -2.6308   -0.3562   -0.8238 H   0  0  0  0  0  0  0  0  0  0  0  0
   -3.1480   -0.6333    0.8580 H   0  0  0  0  0  0  0  0  0  0  0  0
   -1.0833    0.6148    1.6317 H   0  0  0  0  0  0  0  0  0  0  0  0
   -2.4971    1.5149    1.0497 H   0  0  0  0  0  0  0  0  0  0  0  0
   -0.2851    2.4012    0.2331 H   0  0  0  0  0  0  0  0  0  0  0  0
   -1.4603    2.0524   -1.0247 H   0  0  0  0  0  0  0  0  0  0  0  0
    0.9038    1.3297   -1.5489 H   0  0  0  0  0  0  0  0  0  0  0  0
   -0.4388    0.2286   -1.8948 H   0  0  0  0  0  0  0  0  0  0  0  0
  1  2  1  0
  2  3  1  0
  3  4  1  0
  4  5  2  0
  5  6  1  0
  6  7  1  0
  7  8  1  0
  8  9  1  0
  9  3  1  0
  1 10  1  0
  1 11  1  0
  1 12  1  0
  3 13  1  0
  4 14  1  0
  5 15  1  0
  6 16  1  0
  6 17  1  0
  7 18  1  0
  7 19  1  0
  8 20  1  0
  8 21  1  0
  9 22  1  0
  9 23  1  0
M  END
