
     RDKit          3D

 21 22  0  0  0  0  0  0  0  0999 V2000
    2.9449   -0.1214    0.2007 C   0  0  0  0  0  0  0  0  0  0  0  0
    1.6627    0.3974    0.3497 O   0  0  0  0  0  0  0  0  0  0  0  0
    0.7909   -0.0770   -0.6280 C   0  0  0  0  0  0  0  0  0  0  0  0
   -0.3939    0.6960   -1.0250 C   0  0  0  0  0  0  0  0  0  0  0  0
   -0.9524    1.6478    0.0149 C   0  0  0  0  0  0  0  0  0  0  0  0
   -1.1227    0.4587    0.9648 C   0  0  0  0  0  0  0  0  0  0  0  0
   -2.4361    0.2600    1.3198 O   0  0  0  0  0  0  0  0  0  0  0  0
   -0.5672   -0.4138   -0.1124 C   0  0  0  0  0  0  0  0  0  0  0  0
   -1.1455   -1.7347   -0.4457 C   0  0  0  0  0  0  0  0  0  0  0  0
    3.3187    0.1850   -0.8017 H   0  0  0  0  0  0  0  0  0  0  0  0
    3.5876    0.3537    0.9611 H   0  0  0  0  0  0  0  0  0  0  0  0
    2.9678   -1.2313    0.3251 H   0  0  0  0  0  0  0  0  0  0  0  0
    1.1862   -0.7882   -1.3929 H   0  0  0  0  0  0  0  0  0  0  0  0
   -0.7708    0.7365   -2.0533 H   0  0  0  0  0  0  0  0  0  0  0  0
   -1.8968    2.1177   -0.2863 H   0  0  0  0  0  0  0  0  0  0  0  0
   -0.2170    2.3755    0.3718 H   0  0  0  0  0  0  0  0  0  0  0  0
   -0.4086    0.4874    1.8304 H   0  0  0  0  0  0  0  0  0  0  0  0
   -2.7240    1.0165    1.8809 H   0  0  0  0  0  0  0  0  0  0  0  0
   -0.4863   -2.5200    0.0292 H   0  0  0  0  0  0  0  0  0  0  0  0
   -2.1482   -1.8599    0.0073 H   0  0  0  0  0  0  0  0  0  0  0  0
   -1.1893   -1.9860   -1.5104 H   0  0  0  0  0  0  0  0  0  0  0  0
  1  2  1  0
  2  3  1  0
  3  4  1  0
  4  5  1  0
  5  6  1  0
  6  7  1  0
  6  8  1  0
  8  9  1  0
  8  3  1  0
  8  4  1  0
  1 10  1  0
  1 11  1  0
  1 12  1  0
  3 13  1  0
  4 14  1  0
  5 15  1  0
  5 16  1  0
  6 17  1  0
  7 18  1  0
  9 19  1  0
  9 20  1  0
  9 21  1  0
M  END
