
     RDKit          3D

 19 20  0  0  0  0  0  0  0  0999 V2000
    2.3932    0.7654   -0.0297 C   0  0  0  0  0  0  0  0  0  0  0  0
    1.3224    0.4478    0.7997 O   0  0  0  0  0  0  0  0  0  0  0  0
    0.4210   -0.3026    0.0433 C   0  0  0  0  0  0  0  0  0  0  0  0
   -0.8815    0.3477   -0.1017 C   0  0  0  0  0  0  0  0  0  0  0  0
   -1.1534    1.7972   -0.4468 C   0  0  0  0  0  0  0  0  0  0  0  0
   -1.8557   -0.5140    0.1134 C   0  0  0  0  0  0  0  0  0  0  0  0
   -1.3044   -1.8405    0.4279 C   0  0  0  0  0  0  0  0  0  0  0  0
   -0.6567   -1.9097    1.6582 O   0  0  0  0  0  0  0  0  0  0  0  0
    0.1771   -1.6534    0.5823 C   0  0  0  0  0  0  0  0  0  0  0  0
    3.1666    1.3671    0.4921 H   0  0  0  0  0  0  0  0  0  0  0  0
    2.8978   -0.1862   -0.3176 H   0  0  0  0  0  0  0  0  0  0  0  0
    2.0542    1.2345   -0.9818 H   0  0  0  0  0  0  0  0  0  0  0  0
    0.8167   -0.4344   -1.0135 H   0  0  0  0  0  0  0  0  0  0  0  0
   -1.4253    2.3501    0.4785 H   0  0  0  0  0  0  0  0  0  0  0  0
   -1.9999    1.8828   -1.1559 H   0  0  0  0  0  0  0  0  0  0  0  0
   -0.2105    2.2064   -0.8523 H   0  0  0  0  0  0  0  0  0  0  0  0
   -2.9393   -0.3123    0.0736 H   0  0  0  0  0  0  0  0  0  0  0  0
   -1.6822   -2.7488   -0.0574 H   0  0  0  0  0  0  0  0  0  0  0  0
    0.8600   -2.4969    0.3171 H   0  0  0  0  0  0  0  0  0  0  0  0
  1  2  1  0
  2  3  1  0
  3  4  1  0
  4  5  1  0
  4  6  2  0
  6  7  1  0
  7  8  1  0
  8  9  1  0
  9  3  1  0
  9  7  1  0
  1 10  1  0
  1 11  1  0
  1 12  1  0
  3 13  1  0
  5 14  1  0
  5 15  1  0
  5 16  1  0
  6 17  1  0
  7 18  1  0
  9 19  1  0
M  END
