
     RDKit          3D

 23 24  0  0  0  0  0  0  0  0999 V2000
    1.3929    2.3279   -0.1359 C   0  0  0  0  0  0  0  0  0  0  0  0
    0.5452    1.4012   -0.7430 O   0  0  0  0  0  0  0  0  0  0  0  0
    0.3783    0.2977    0.0948 C   0  0  0  0  0  0  0  0  0  0  0  0
    0.6829   -1.0411   -0.5800 C   0  0  0  0  0  0  0  0  0  0  0  0
    1.7770   -1.8350    0.0472 C   0  0  0  0  0  0  0  0  0  0  0  0
   -0.6878   -1.5357   -0.0915 C   0  0  0  0  0  0  0  0  0  0  0  0
   -1.0446   -0.1243    0.1340 C   0  0  0  0  0  0  0  0  0  0  0  0
   -2.1319    0.5839   -0.5500 C   0  0  0  0  0  0  0  0  0  0  0  0
   -2.0724    0.3941    0.9894 C   0  0  0  0  0  0  0  0  0  0  0  0
    0.9795    2.6899    0.8439 H   0  0  0  0  0  0  0  0  0  0  0  0
    2.3660    1.8302    0.0460 H   0  0  0  0  0  0  0  0  0  0  0  0
    1.5193    3.1778   -0.8429 H   0  0  0  0  0  0  0  0  0  0  0  0
    0.9217    0.3578    1.0388 H   0  0  0  0  0  0  0  0  0  0  0  0
    0.7316   -0.8922   -1.6713 H   0  0  0  0  0  0  0  0  0  0  0  0
    2.0130   -1.3928    1.0423 H   0  0  0  0  0  0  0  0  0  0  0  0
    2.6483   -1.8358   -0.6395 H   0  0  0  0  0  0  0  0  0  0  0  0
    1.3890   -2.8789    0.2082 H   0  0  0  0  0  0  0  0  0  0  0  0
   -0.6290   -2.1872    0.7895 H   0  0  0  0  0  0  0  0  0  0  0  0
   -1.1958   -2.0200   -0.9544 H   0  0  0  0  0  0  0  0  0  0  0  0
   -1.9924    1.6030   -0.9354 H   0  0  0  0  0  0  0  0  0  0  0  0
   -2.8658   -0.0579   -1.0849 H   0  0  0  0  0  0  0  0  0  0  0  0
   -2.8767   -0.1959    1.4293 H   0  0  0  0  0  0  0  0  0  0  0  0
   -1.8482    1.3332    1.5653 H   0  0  0  0  0  0  0  0  0  0  0  0
  1  2  1  0
  2  3  1  0
  3  4  1  0
  4  5  1  0
  4  6  1  0
  6  7  1  0
  7  8  1  0
  8  9  1  0
  7  3  1  0
  9  7  1  0
  1 10  1  0
  1 11  1  0
  1 12  1  0
  3 13  1  0
  4 14  1  0
  5 15  1  0
  5 16  1  0
  5 17  1  0
  6 18  1  0
  6 19  1  0
  8 20  1  0
  8 21  1  0
  9 22  1  0
  9 23  1  0
M  END
