
     RDKit          3D

 21 22  0  0  0  0  0  0  0  0999 V2000
   -1.9627   -1.0284   -0.6437 C   0  0  0  0  0  0  0  0  0  0  0  0
   -1.4440   -0.5650    0.5548 O   0  0  0  0  0  0  0  0  0  0  0  0
   -0.5239    0.4127    0.4615 C   0  0  0  0  0  0  0  0  0  0  0  0
   -0.7995    1.7455   -0.1734 C   0  0  0  0  0  0  0  0  0  0  0  0
    0.6468    1.7199   -0.6866 C   0  0  0  0  0  0  0  0  0  0  0  0
    0.8320    0.3747   -0.0156 C   0  0  0  0  0  0  0  0  0  0  0  0
    1.4923   -0.6274   -0.6492 O   0  0  0  0  0  0  0  0  0  0  0  0
    1.5762   -1.7898    0.1108 C   0  0  0  0  0  0  0  0  0  0  0  0
    0.6129    0.3886    1.4572 C   0  0  0  0  0  0  0  0  0  0  0  0
   -2.4736   -0.2333   -1.2343 H   0  0  0  0  0  0  0  0  0  0  0  0
   -1.1704   -1.4355   -1.3068 H   0  0  0  0  0  0  0  0  0  0  0  0
   -2.6527   -1.8704   -0.4358 H   0  0  0  0  0  0  0  0  0  0  0  0
   -1.5247    1.7311   -0.9877 H   0  0  0  0  0  0  0  0  0  0  0  0
   -0.9639    2.5601    0.5599 H   0  0  0  0  0  0  0  0  0  0  0  0
    1.2783    2.4713   -0.1468 H   0  0  0  0  0  0  0  0  0  0  0  0
    0.7350    1.7259   -1.7819 H   0  0  0  0  0  0  0  0  0  0  0  0
    0.5367   -2.1131    0.3242 H   0  0  0  0  0  0  0  0  0  0  0  0
    2.0961   -1.6525    1.0743 H   0  0  0  0  0  0  0  0  0  0  0  0
    2.0701   -2.6123   -0.4907 H   0  0  0  0  0  0  0  0  0  0  0  0
    0.9227    1.3341    1.9575 H   0  0  0  0  0  0  0  0  0  0  0  0
    0.7163   -0.5363    2.0524 H   0  0  0  0  0  0  0  0  0  0  0  0
  1  2  1  0
  2  3  1  0
  3  4  1  0
  4  5  1  0
  5  6  1  0
  6  7  1  0
  7  8  1  0
  6  9  1  0
  6  3  1  0
  9  3  1  0
  1 10  1  0
  1 11  1  0
  1 12  1  0
  4 13  1  0
  4 14  1  0
  5 15  1  0
  5 16  1  0
  8 17  1  0
  8 18  1  0
  8 19  1  0
  9 20  1  0
  9 21  1  0
M  END
