
     RDKit          3D

 14 15  0  0  0  0  0  0  0  0999 V2000
    2.2169    0.1405    0.3440 C   0  0  0  0  0  0  0  0  0  0  0  0
    0.9062    0.3741    0.7522 O   0  0  0  0  0  0  0  0  0  0  0  0
   -0.0249   -0.1021   -0.1193 C   0  0  0  0  0  0  0  0  0  0  0  0
   -1.1542    0.8610   -0.3320 C   0  0  0  0  0  0  0  0  0  0  0  0
   -1.4921    0.6232    0.9883 O   0  0  0  0  0  0  0  0  0  0  0  0
   -1.2441   -0.6623    0.5314 C   0  0  0  0  0  0  0  0  0  0  0  0
   -1.9832   -0.2809   -0.6749 C   0  0  0  0  0  0  0  0  0  0  0  0
   -2.7886   -0.7848   -1.3976 O   0  0  0  0  0  0  0  0  0  0  0  0
    2.9493    0.5276    1.0519 H   0  0  0  0  0  0  0  0  0  0  0  0
    2.3399   -0.9588    0.2604 H   0  0  0  0  0  0  0  0  0  0  0  0
    2.3913    0.6227   -0.6508 H   0  0  0  0  0  0  0  0  0  0  0  0
    0.3000   -0.6066   -1.0283 H   0  0  0  0  0  0  0  0  0  0  0  0
   -1.0946    1.7602   -0.7853 H   0  0  0  0  0  0  0  0  0  0  0  0
   -1.3220   -1.5139    1.0600 H   0  0  0  0  0  0  0  0  0  0  0  0
  1  2  1  0
  2  3  1  0
  3  4  1  0
  4  5  1  0
  5  6  1  0
  6  7  1  0
  7  8  2  0
  6  3  1  0
  7  4  1  0
  1  9  1  0
  1 10  1  0
  1 11  1  0
  3 12  1  0
  4 13  1  0
  6 14  1  0
M  END
