
     RDKit          3D

 19 20  0  0  0  0  0  0  0  0999 V2000
    2.7854    0.2931   -0.5125 C   0  0  0  0  0  0  0  0  0  0  0  0
    1.4644    0.7090   -0.4246 O   0  0  0  0  0  0  0  0  0  0  0  0
    0.5896   -0.3374   -0.1709 C   0  0  0  0  0  0  0  0  0  0  0  0
   -0.2963   -0.4065   -1.2453 O   0  0  0  0  0  0  0  0  0  0  0  0
   -1.4786   -0.9590   -0.7535 C   0  0  0  0  0  0  0  0  0  0  0  0
   -1.6387   -0.2732    0.5598 C   0  0  0  0  0  0  0  0  0  0  0  0
   -1.5304    1.2048    0.4483 C   0  0  0  0  0  0  0  0  0  0  0  0
   -0.4809    1.2326    1.3654 O   0  0  0  0  0  0  0  0  0  0  0  0
   -0.2392   -0.1024    1.0672 C   0  0  0  0  0  0  0  0  0  0  0  0
    3.1009   -0.1809    0.4380 H   0  0  0  0  0  0  0  0  0  0  0  0
    2.9661   -0.3985   -1.3457 H   0  0  0  0  0  0  0  0  0  0  0  0
    3.3916    1.2199   -0.6842 H   0  0  0  0  0  0  0  0  0  0  0  0
    1.0700   -1.3125   -0.0811 H   0  0  0  0  0  0  0  0  0  0  0  0
   -2.3110   -0.6020   -1.4244 H   0  0  0  0  0  0  0  0  0  0  0  0
   -1.4481   -2.0580   -0.6918 H   0  0  0  0  0  0  0  0  0  0  0  0
   -2.3733   -0.6843    1.2619 H   0  0  0  0  0  0  0  0  0  0  0  0
   -2.4384    1.7518    0.7625 H   0  0  0  0  0  0  0  0  0  0  0  0
   -1.1764    1.5720   -0.5290 H   0  0  0  0  0  0  0  0  0  0  0  0
    0.0434   -0.6685    1.9599 H   0  0  0  0  0  0  0  0  0  0  0  0
  1  2  1  0
  2  3  1  0
  3  4  1  0
  4  5  1  0
  5  6  1  0
  6  7  1  0
  7  8  1  0
  8  9  1  0
  9  3  1  0
  9  6  1  0
  1 10  1  0
  1 11  1  0
  1 12  1  0
  3 13  1  0
  5 14  1  0
  5 15  1  0
  6 16  1  0
  7 17  1  0
  7 18  1  0
  9 19  1  0
M  END
