
     RDKit          3D

 21 21  0  0  0  0  0  0  0  0999 V2000
    2.9837   -0.3424   -0.4411 C   0  0  0  0  0  0  0  0  0  0  0  0
    1.7513   -0.8144    0.0295 O   0  0  0  0  0  0  0  0  0  0  0  0
    0.7656    0.1546   -0.0815 C   0  0  0  0  0  0  0  0  0  0  0  0
    0.1977    0.4057    1.2747 C   0  0  0  0  0  0  0  0  0  0  0  0
   -1.2059    0.8232    1.2910 C   0  0  0  0  0  0  0  0  0  0  0  0
   -2.2295    0.3706    0.6187 C   0  0  0  0  0  0  0  0  0  0  0  0
   -2.3548   -0.7274   -0.4058 C   0  0  0  0  0  0  0  0  0  0  0  0
   -1.0932   -1.2947   -0.5729 O   0  0  0  0  0  0  0  0  0  0  0  0
   -0.2661   -0.3017   -1.0819 C   0  0  0  0  0  0  0  0  0  0  0  0
    3.3065    0.5566    0.1522 H   0  0  0  0  0  0  0  0  0  0  0  0
    3.7504   -1.1251   -0.3223 H   0  0  0  0  0  0  0  0  0  0  0  0
    2.9244   -0.0813   -1.5125 H   0  0  0  0  0  0  0  0  0  0  0  0
    1.2423    1.0741   -0.5303 H   0  0  0  0  0  0  0  0  0  0  0  0
    0.2713   -0.5479    1.8719 H   0  0  0  0  0  0  0  0  0  0  0  0
    0.8699    1.1181    1.7978 H   0  0  0  0  0  0  0  0  0  0  0  0
   -1.4286    1.6362    1.9685 H   0  0  0  0  0  0  0  0  0  0  0  0
   -3.1644    0.8727    0.8321 H   0  0  0  0  0  0  0  0  0  0  0  0
   -3.1188   -1.4682   -0.1165 H   0  0  0  0  0  0  0  0  0  0  0  0
   -2.6022   -0.2264   -1.3834 H   0  0  0  0  0  0  0  0  0  0  0  0
   -0.8438    0.6014   -1.4052 H   0  0  0  0  0  0  0  0  0  0  0  0
    0.2444   -0.6837   -1.9831 H   0  0  0  0  0  0  0  0  0  0  0  0
  1  2  1  0
  2  3  1  0
  3  4  1  0
  4  5  1  0
  5  6  2  0
  6  7  1  0
  7  8  1  0
  8  9  1  0
  9  3  1  0
  1 10  1  0
  1 11  1  0
  1 12  1  0
  3 13  1  0
  4 14  1  0
  4 15  1  0
  5 16  1  0
  6 17  1  0
  7 18  1  0
  7 19  1  0
  9 20  1  0
  9 21  1  0
M  END
