
     RDKit          3D

 21 22  0  0  0  0  0  0  0  0999 V2000
    2.9685    0.0034    0.0618 C   0  0  0  0  0  0  0  0  0  0  0  0
    1.7516   -0.2141    0.6944 O   0  0  0  0  0  0  0  0  0  0  0  0
    0.6679   -0.0439   -0.1650 C   0  0  0  0  0  0  0  0  0  0  0  0
   -0.0459   -1.4142   -0.1913 C   0  0  0  0  0  0  0  0  0  0  0  0
   -1.0611   -1.4704    0.7828 O   0  0  0  0  0  0  0  0  0  0  0  0
   -2.1585   -0.6394    0.4386 C   0  0  0  0  0  0  0  0  0  0  0  0
   -1.6146    0.4255   -0.4101 C   0  0  0  0  0  0  0  0  0  0  0  0
   -1.2616    1.7783   -0.1677 C   0  0  0  0  0  0  0  0  0  0  0  0
   -0.3411    0.8710    0.3950 C   0  0  0  0  0  0  0  0  0  0  0  0
    3.7559   -0.1575    0.8314 H   0  0  0  0  0  0  0  0  0  0  0  0
    3.1735   -0.7344   -0.7444 H   0  0  0  0  0  0  0  0  0  0  0  0
    3.0831    1.0450   -0.3002 H   0  0  0  0  0  0  0  0  0  0  0  0
    1.0166    0.2307   -1.1764 H   0  0  0  0  0  0  0  0  0  0  0  0
   -0.4050   -1.6611   -1.1947 H   0  0  0  0  0  0  0  0  0  0  0  0
    0.6636   -2.2247    0.0973 H   0  0  0  0  0  0  0  0  0  0  0  0
   -3.0012   -1.2104    0.0510 H   0  0  0  0  0  0  0  0  0  0  0  0
   -2.4690   -0.1868    1.4264 H   0  0  0  0  0  0  0  0  0  0  0  0
   -1.4596    0.0624   -1.4536 H   0  0  0  0  0  0  0  0  0  0  0  0
   -0.9485    2.4249   -1.0147 H   0  0  0  0  0  0  0  0  0  0  0  0
   -1.9248    2.3749    0.5203 H   0  0  0  0  0  0  0  0  0  0  0  0
   -0.3897    0.7408    1.5188 H   0  0  0  0  0  0  0  0  0  0  0  0
  1  2  1  0
  2  3  1  0
  3  4  1  0
  4  5  1  0
  5  6  1  0
  6  7  1  0
  7  8  1  0
  8  9  1  0
  9  3  1  0
  9  7  1  0
  1 10  1  0
  1 11  1  0
  1 12  1  0
  3 13  1  0
  4 14  1  0
  4 15  1  0
  6 16  1  0
  6 17  1  0
  7 18  1  0
  8 19  1  0
  8 20  1  0
  9 21  1  0
M  END
