
     RDKit          3D

 21 22  0  0  0  0  0  0  0  0999 V2000
    2.5084    0.3305   -0.4520 C   0  0  0  0  0  0  0  0  0  0  0  0
    1.6769   -0.7718   -0.4667 O   0  0  0  0  0  0  0  0  0  0  0  0
    0.4199   -0.3837   -0.0940 C   0  0  0  0  0  0  0  0  0  0  0  0
    0.2860    0.2306    1.2864 C   0  0  0  0  0  0  0  0  0  0  0  0
   -1.0155    0.1463    1.7368 O   0  0  0  0  0  0  0  0  0  0  0  0
   -1.9413    0.4671    0.7455 C   0  0  0  0  0  0  0  0  0  0  0  0
   -1.6125   -0.3195   -0.4852 C   0  0  0  0  0  0  0  0  0  0  0  0
   -0.3940    0.3644   -1.1242 C   0  0  0  0  0  0  0  0  0  0  0  0
   -0.6468   -1.4717   -0.1731 C   0  0  0  0  0  0  0  0  0  0  0  0
    2.5641    0.7910    0.5589 H   0  0  0  0  0  0  0  0  0  0  0  0
    3.5455    0.0199   -0.7073 H   0  0  0  0  0  0  0  0  0  0  0  0
    2.1633    1.1448   -1.1315 H   0  0  0  0  0  0  0  0  0  0  0  0
    0.8959   -0.4374    1.9619 H   0  0  0  0  0  0  0  0  0  0  0  0
    0.7093    1.2547    1.3293 H   0  0  0  0  0  0  0  0  0  0  0  0
   -1.7799    1.5618    0.5284 H   0  0  0  0  0  0  0  0  0  0  0  0
   -2.9539    0.3379    1.1230 H   0  0  0  0  0  0  0  0  0  0  0  0
   -2.4180   -0.5626   -1.1706 H   0  0  0  0  0  0  0  0  0  0  0  0
   -0.4006    1.4506   -1.0544 H   0  0  0  0  0  0  0  0  0  0  0  0
   -0.2365   -0.0855   -2.1175 H   0  0  0  0  0  0  0  0  0  0  0  0
   -0.8587   -1.9728    0.7727 H   0  0  0  0  0  0  0  0  0  0  0  0
   -0.5117   -2.0948   -1.0664 H   0  0  0  0  0  0  0  0  0  0  0  0
  1  2  1  0
  2  3  1  0
  3  4  1  0
  4  5  1  0
  5  6  1  0
  6  7  1  0
  7  8  1  0
  7  9  1  0
  8  3  1  0
  9  3  1  0
  1 10  1  0
  1 11  1  0
  1 12  1  0
  4 13  1  0
  4 14  1  0
  6 15  1  0
  6 16  1  0
  7 17  1  0
  8 18  1  0
  8 19  1  0
  9 20  1  0
  9 21  1  0
M  END
