
     RDKit          3D

 23 23  0  0  0  0  0  0  0  0999 V2000
    2.7631   -0.7351    0.8587 C   0  0  0  0  0  0  0  0  0  0  0  0
    1.7597   -0.8207   -0.1004 O   0  0  0  0  0  0  0  0  0  0  0  0
    0.9966    0.3366   -0.0451 C   0  0  0  0  0  0  0  0  0  0  0  0
    0.7810    0.9750   -1.4155 C   0  0  0  0  0  0  0  0  0  0  0  0
   -0.6615    1.1184   -1.0764 C   0  0  0  0  0  0  0  0  0  0  0  0
   -0.5121    0.0687    0.0063 C   0  0  0  0  0  0  0  0  0  0  0  0
   -1.1624    0.5674    1.2705 C   0  0  0  0  0  0  0  0  0  0  0  0
   -0.7969   -1.2085   -0.3758 O   0  0  0  0  0  0  0  0  0  0  0  0
   -2.1163   -1.5592   -0.3678 C   0  0  0  0  0  0  0  0  0  0  0  0
    3.3920   -1.6463    0.8405 H   0  0  0  0  0  0  0  0  0  0  0  0
    2.3309   -0.6992    1.8984 H   0  0  0  0  0  0  0  0  0  0  0  0
    3.3366    0.1919    0.6598 H   0  0  0  0  0  0  0  0  0  0  0  0
    1.3580    1.0201    0.7191 H   0  0  0  0  0  0  0  0  0  0  0  0
    0.9637    0.3223   -2.2686 H   0  0  0  0  0  0  0  0  0  0  0  0
    1.2725    1.9636   -1.5058 H   0  0  0  0  0  0  0  0  0  0  0  0
   -0.9251    2.1360   -0.6970 H   0  0  0  0  0  0  0  0  0  0  0  0
   -1.3795    0.7815   -1.8675 H   0  0  0  0  0  0  0  0  0  0  0  0
   -0.6433    1.5154    1.5422 H   0  0  0  0  0  0  0  0  0  0  0  0
   -1.0581   -0.1239    2.1195 H   0  0  0  0  0  0  0  0  0  0  0  0
   -2.2219    0.7999    1.0134 H   0  0  0  0  0  0  0  0  0  0  0  0
   -2.2224   -2.6140   -0.6950 H   0  0  0  0  0  0  0  0  0  0  0  0
   -2.6139   -1.4613    0.6169 H   0  0  0  0  0  0  0  0  0  0  0  0
   -2.6408   -0.9285   -1.1304 H   0  0  0  0  0  0  0  0  0  0  0  0
  1  2  1  0
  2  3  1  0
  3  4  1  0
  4  5  1  0
  5  6  1  0
  6  7  1  0
  6  8  1  0
  8  9  1  0
  6  3  1  0
  1 10  1  0
  1 11  1  0
  1 12  1  0
  3 13  1  0
  4 14  1  0
  4 15  1  0
  5 16  1  0
  5 17  1  0
  7 18  1  0
  7 19  1  0
  7 20  1  0
  9 21  1  0
  9 22  1  0
  9 23  1  0
M  END
