
     RDKit          3D

 18 18  0  0  0  0  0  0  0  0999 V2000
    2.9728   -0.1159   -0.1754 C   0  0  0  0  0  0  0  0  0  0  0  0
    1.7311   -0.6443    0.1464 O   0  0  0  0  0  0  0  0  0  0  0  0
    0.6969    0.2240   -0.0776 C   0  0  0  0  0  0  0  0  0  0  0  0
   -0.4322   -0.4263   -0.8650 C   0  0  0  0  0  0  0  0  0  0  0  0
   -1.3491    0.4240   -0.0181 C   0  0  0  0  0  0  0  0  0  0  0  0
   -2.6462   -0.2149    0.3820 C   0  0  0  0  0  0  0  0  0  0  0  0
   -0.2907    0.3400    1.0514 C   0  0  0  0  0  0  0  0  0  0  0  0
   -0.2692    0.3594    2.2662 O   0  0  0  0  0  0  0  0  0  0  0  0
    3.1297    0.7985    0.4620 H   0  0  0  0  0  0  0  0  0  0  0  0
    3.7516   -0.8576    0.1141 H   0  0  0  0  0  0  0  0  0  0  0  0
    3.1058    0.1185   -1.2321 H   0  0  0  0  0  0  0  0  0  0  0  0
    0.9548    1.2201   -0.4778 H   0  0  0  0  0  0  0  0  0  0  0  0
   -0.4044   -0.1515   -1.9426 H   0  0  0  0  0  0  0  0  0  0  0  0
   -0.5337   -1.5142   -0.6699 H   0  0  0  0  0  0  0  0  0  0  0  0
   -1.4676    1.4354   -0.4236 H   0  0  0  0  0  0  0  0  0  0  0  0
   -3.3421    0.5972    0.6947 H   0  0  0  0  0  0  0  0  0  0  0  0
   -3.1416   -0.7363   -0.4773 H   0  0  0  0  0  0  0  0  0  0  0  0
   -2.4657   -0.8561    1.2425 H   0  0  0  0  0  0  0  0  0  0  0  0
  1  2  1  0
  2  3  1  0
  3  4  1  0
  4  5  1  0
  5  6  1  0
  5  7  1  0
  7  8  2  0
  7  3  1  0
  1  9  1  0
  1 10  1  0
  1 11  1  0
  3 12  1  0
  4 13  1  0
  4 14  1  0
  5 15  1  0
  6 16  1  0
  6 17  1  0
  6 18  1  0
M  END
