
     RDKit          3D

 19 20  0  0  0  0  0  0  0  0999 V2000
    3.4425    0.2669   -0.4517 C   0  0  0  0  0  0  0  0  0  0  0  0
    2.3052    0.1632    0.3233 O   0  0  0  0  0  0  0  0  0  0  0  0
    1.1357    0.3585   -0.4229 C   0  0  0  0  0  0  0  0  0  0  0  0
    0.0649    1.0387    0.2111 C   0  0  0  0  0  0  0  0  0  0  0  0
   -0.8615    0.5582    1.1429 O   0  0  0  0  0  0  0  0  0  0  0  0
   -1.4760    0.0619   -0.0369 C   0  0  0  0  0  0  0  0  0  0  0  0
   -2.4507   -1.0456    0.1982 C   0  0  0  0  0  0  0  0  0  0  0  0
   -3.4949   -0.6264    1.0361 O   0  0  0  0  0  0  0  0  0  0  0  0
   -0.0511   -0.4730   -0.2467 C   0  0  0  0  0  0  0  0  0  0  0  0
    3.4854   -0.4710   -1.2778 H   0  0  0  0  0  0  0  0  0  0  0  0
    3.3705    1.2674   -0.9724 H   0  0  0  0  0  0  0  0  0  0  0  0
    4.3661    0.3251    0.1459 H   0  0  0  0  0  0  0  0  0  0  0  0
    1.3729    0.5622   -1.5109 H   0  0  0  0  0  0  0  0  0  0  0  0
   -0.5001    1.7649   -0.4528 H   0  0  0  0  0  0  0  0  0  0  0  0
   -1.8253    0.7933   -0.7484 H   0  0  0  0  0  0  0  0  0  0  0  0
   -2.9240   -1.2798   -0.7774 H   0  0  0  0  0  0  0  0  0  0  0  0
   -1.9754   -1.9812    0.5610 H   0  0  0  0  0  0  0  0  0  0  0  0
   -4.0931   -0.0648    0.4719 H   0  0  0  0  0  0  0  0  0  0  0  0
    0.1089   -1.2185    0.5958 H   0  0  0  0  0  0  0  0  0  0  0  0
  1  2  1  0
  2  3  1  0
  3  4  1  0
  4  5  1  0
  5  6  1  0
  6  7  1  0
  7  8  1  0
  6  9  1  0
  9  3  1  0
  9  4  1  0
  1 10  1  0
  1 11  1  0
  1 12  1  0
  3 13  1  0
  4 14  1  0
  6 15  1  0
  7 16  1  0
  7 17  1  0
  8 18  1  0
  9 19  1  0
M  END
