
     RDKit          3D

 23 23  0  0  0  0  0  0  0  0999 V2000
    2.9702    0.3052    0.0020 C   0  0  0  0  0  0  0  0  0  0  0  0
    1.9212    0.0960    0.8615 O   0  0  0  0  0  0  0  0  0  0  0  0
    0.7684   -0.3538    0.2892 C   0  0  0  0  0  0  0  0  0  0  0  0
    0.2304   -1.6287    0.8408 C   0  0  0  0  0  0  0  0  0  0  0  0
   -1.0393   -1.4279    1.2959 O   0  0  0  0  0  0  0  0  0  0  0  0
   -1.5023   -0.2150    0.8579 C   0  0  0  0  0  0  0  0  0  0  0  0
   -2.4800   -0.4444   -0.2594 C   0  0  0  0  0  0  0  0  0  0  0  0
   -0.3399    0.6310    0.5081 C   0  0  0  0  0  0  0  0  0  0  0  0
   -0.5124    1.5367   -0.6553 C   0  0  0  0  0  0  0  0  0  0  0  0
    3.2951   -0.5994   -0.5530 H   0  0  0  0  0  0  0  0  0  0  0  0
    3.8545    0.5961    0.6268 H   0  0  0  0  0  0  0  0  0  0  0  0
    2.8082    1.1793   -0.6820 H   0  0  0  0  0  0  0  0  0  0  0  0
    0.9367   -0.4585   -0.8021 H   0  0  0  0  0  0  0  0  0  0  0  0
    0.1947   -2.4106    0.0489 H   0  0  0  0  0  0  0  0  0  0  0  0
    0.8397   -2.0555    1.6615 H   0  0  0  0  0  0  0  0  0  0  0  0
   -2.0752    0.2498    1.6968 H   0  0  0  0  0  0  0  0  0  0  0  0
   -3.0700    0.4413   -0.5232 H   0  0  0  0  0  0  0  0  0  0  0  0
   -3.2142   -1.2092    0.1133 H   0  0  0  0  0  0  0  0  0  0  0  0
   -1.9789   -0.9248   -1.1307 H   0  0  0  0  0  0  0  0  0  0  0  0
   -0.0705    1.2430    1.4171 H   0  0  0  0  0  0  0  0  0  0  0  0
    0.2107    2.3839   -0.5411 H   0  0  0  0  0  0  0  0  0  0  0  0
   -0.2365    1.0574   -1.6332 H   0  0  0  0  0  0  0  0  0  0  0  0
   -1.5106    2.0079   -0.7336 H   0  0  0  0  0  0  0  0  0  0  0  0
  1  2  1  0
  2  3  1  0
  3  4  1  0
  4  5  1  0
  5  6  1  0
  6  7  1  0
  6  8  1  0
  8  9  1  0
  8  3  1  0
  1 10  1  0
  1 11  1  0
  1 12  1  0
  3 13  1  0
  4 14  1  0
  4 15  1  0
  6 16  1  0
  7 17  1  0
  7 18  1  0
  7 19  1  0
  8 20  1  0
  9 21  1  0
  9 22  1  0
  9 23  1  0
M  END
