
     RDKit          3D

 21 22  0  0  0  0  0  0  0  0999 V2000
   -2.6170    0.0949    0.8891 C   0  0  0  0  0  0  0  0  0  0  0  0
   -1.6696   -0.8523    0.5453 O   0  0  0  0  0  0  0  0  0  0  0  0
   -0.5457   -0.3172   -0.0604 C   0  0  0  0  0  0  0  0  0  0  0  0
    0.1893    0.6776    0.8053 C   0  0  0  0  0  0  0  0  0  0  0  0
    1.4555    1.1852    0.1432 C   0  0  0  0  0  0  0  0  0  0  0  0
    2.3366   -0.0010   -0.0354 C   0  0  0  0  0  0  0  0  0  0  0  0
    1.7731   -1.1289   -0.4511 C   0  0  0  0  0  0  0  0  0  0  0  0
    0.3377   -1.2782   -0.7449 C   0  0  0  0  0  0  0  0  0  0  0  0
   -0.4130   -0.2780   -1.5366 C   0  0  0  0  0  0  0  0  0  0  0  0
   -3.4629   -0.4742    1.3643 H   0  0  0  0  0  0  0  0  0  0  0  0
   -3.0344    0.5253   -0.0365 H   0  0  0  0  0  0  0  0  0  0  0  0
   -2.2803    0.8330    1.6228 H   0  0  0  0  0  0  0  0  0  0  0  0
   -0.4422    1.5312    1.0829 H   0  0  0  0  0  0  0  0  0  0  0  0
    0.5043    0.1377    1.7231 H   0  0  0  0  0  0  0  0  0  0  0  0
    1.2625    1.7227   -0.7995 H   0  0  0  0  0  0  0  0  0  0  0  0
    1.9139    1.9001    0.8673 H   0  0  0  0  0  0  0  0  0  0  0  0
    3.3962    0.0875    0.1754 H   0  0  0  0  0  0  0  0  0  0  0  0
    2.4588   -1.9746   -0.5685 H   0  0  0  0  0  0  0  0  0  0  0  0
   -0.0120   -2.3254   -0.8548 H   0  0  0  0  0  0  0  0  0  0  0  0
    0.1493    0.5347   -2.0285 H   0  0  0  0  0  0  0  0  0  0  0  0
   -1.3001   -0.6001   -2.1024 H   0  0  0  0  0  0  0  0  0  0  0  0
  1  2  1  0
  2  3  1  0
  3  4  1  0
  4  5  1  0
  5  6  1  0
  6  7  2  0
  7  8  1  0
  8  9  1  0
  8  3  1  0
  9  3  1  0
  1 10  1  0
  1 11  1  0
  1 12  1  0
  4 13  1  0
  4 14  1  0
  5 15  1  0
  5 16  1  0
  6 17  1  0
  7 18  1  0
  8 19  1  0
  9 20  1  0
  9 21  1  0
M  END
