
     RDKit          3D

 22 22  0  0  0  0  0  0  0  0999 V2000
    2.5361   -0.3244    0.6190 C   0  0  0  0  0  0  0  0  0  0  0  0
    1.2068   -0.4843    1.0363 O   0  0  0  0  0  0  0  0  0  0  0  0
    0.4137    0.1582    0.0724 C   0  0  0  0  0  0  0  0  0  0  0  0
    0.7122    1.6179   -0.0711 C   0  0  0  0  0  0  0  0  0  0  0  0
    0.0686   -0.6812   -1.0983 C   0  0  0  0  0  0  0  0  0  0  0  0
   -1.0082   -0.3156   -0.1021 C   0  0  0  0  0  0  0  0  0  0  0  0
   -1.4542   -1.3520    0.8987 C   0  0  0  0  0  0  0  0  0  0  0  0
   -2.0594    0.5993   -0.6277 C   0  0  0  0  0  0  0  0  0  0  0  0
    3.1857   -0.8259    1.3676 H   0  0  0  0  0  0  0  0  0  0  0  0
    2.7167   -0.7967   -0.3654 H   0  0  0  0  0  0  0  0  0  0  0  0
    2.8162    0.7492    0.5520 H   0  0  0  0  0  0  0  0  0  0  0  0
    1.5427    1.8445   -0.7615 H   0  0  0  0  0  0  0  0  0  0  0  0
    0.9940    2.0086    0.9499 H   0  0  0  0  0  0  0  0  0  0  0  0
   -0.1632    2.2276   -0.3788 H   0  0  0  0  0  0  0  0  0  0  0  0
    0.3256   -1.7519   -1.0902 H   0  0  0  0  0  0  0  0  0  0  0  0
    0.0203   -0.2306   -2.1276 H   0  0  0  0  0  0  0  0  0  0  0  0
   -0.6743   -2.0639    1.1701 H   0  0  0  0  0  0  0  0  0  0  0  0
   -2.3280   -1.9360    0.5439 H   0  0  0  0  0  0  0  0  0  0  0  0
   -1.7925   -0.8245    1.8166 H   0  0  0  0  0  0  0  0  0  0  0  0
   -2.5978    1.1400    0.1799 H   0  0  0  0  0  0  0  0  0  0  0  0
   -2.8073   -0.0423   -1.1810 H   0  0  0  0  0  0  0  0  0  0  0  0
   -1.6536    1.2841   -1.4028 H   0  0  0  0  0  0  0  0  0  0  0  0
  1  2  1  0
  2  3  1  0
  3  4  1  0
  3  5  1  0
  5  6  1  0
  6  7  1  0
  6  8  1  0
  6  3  1  0
  1  9  1  0
  1 10  1  0
  1 11  1  0
  4 12  1  0
  4 13  1  0
  4 14  1  0
  5 15  1  0
  5 16  1  0
  7 17  1  0
  7 18  1  0
  7 19  1  0
  8 20  1  0
  8 21  1  0
  8 22  1  0
M  END
