
     RDKit          3D

 19 19  0  0  0  0  0  0  0  0999 V2000
    2.8069   -0.5251   -0.0608 C   0  0  0  0  0  0  0  0  0  0  0  0
    1.9024    0.4487    0.2695 O   0  0  0  0  0  0  0  0  0  0  0  0
    0.5953    0.1753   -0.0192 C   0  0  0  0  0  0  0  0  0  0  0  0
   -0.2959    0.0444    1.1830 C   0  0  0  0  0  0  0  0  0  0  0  0
   -1.5305   -0.6729    0.6612 C   0  0  0  0  0  0  0  0  0  0  0  0
   -2.0709    0.2022   -0.3988 C   0  0  0  0  0  0  0  0  0  0  0  0
   -3.2452    0.1068   -0.6875 O   0  0  0  0  0  0  0  0  0  0  0  0
   -1.2270    1.1587   -1.0871 C   0  0  0  0  0  0  0  0  0  0  0  0
    0.1136    1.0275   -0.9802 O   0  0  0  0  0  0  0  0  0  0  0  0
    3.8134   -0.1753    0.2250 H   0  0  0  0  0  0  0  0  0  0  0  0
    2.7937   -0.6577   -1.1627 H   0  0  0  0  0  0  0  0  0  0  0  0
    2.6390   -1.4993    0.4225 H   0  0  0  0  0  0  0  0  0  0  0  0
    0.5900   -0.8559   -0.4901 H   0  0  0  0  0  0  0  0  0  0  0  0
   -0.6443    1.0047    1.5906 H   0  0  0  0  0  0  0  0  0  0  0  0
    0.2005   -0.6091    1.9079 H   0  0  0  0  0  0  0  0  0  0  0  0
   -1.1924   -1.6170    0.1480 H   0  0  0  0  0  0  0  0  0  0  0  0
   -2.2596   -0.8899    1.4618 H   0  0  0  0  0  0  0  0  0  0  0  0
   -1.4972    2.2164   -0.7969 H   0  0  0  0  0  0  0  0  0  0  0  0
   -1.4920    1.1172   -2.1860 H   0  0  0  0  0  0  0  0  0  0  0  0
  1  2  1  0
  2  3  1  0
  3  4  1  0
  4  5  1  0
  5  6  1  0
  6  7  2  0
  6  8  1  0
  8  9  1  0
  9  3  1  0
  1 10  1  0
  1 11  1  0
  1 12  1  0
  3 13  1  0
  4 14  1  0
  4 15  1  0
  5 16  1  0
  5 17  1  0
  8 18  1  0
  8 19  1  0
M  END
