
     RDKit          3D

 18 19  0  0  0  0  0  0  0  0999 V2000
    2.5608   -0.2239   -0.1944 C   0  0  0  0  0  0  0  0  0  0  0  0
    1.3352   -0.7927   -0.5042 O   0  0  0  0  0  0  0  0  0  0  0  0
    0.2793   -0.2098    0.1622 C   0  0  0  0  0  0  0  0  0  0  0  0
   -0.0212    1.2230   -0.0101 C   0  0  0  0  0  0  0  0  0  0  0  0
   -1.2652    1.4255   -0.4247 C   0  0  0  0  0  0  0  0  0  0  0  0
   -1.9687    0.1217   -0.5853 C   0  0  0  0  0  0  0  0  0  0  0  0
   -1.0458   -0.9409   -0.0671 C   0  0  0  0  0  0  0  0  0  0  0  0
   -0.4366   -0.8950    1.2643 C   0  0  0  0  0  0  0  0  0  0  0  0
    3.3411   -0.7569   -0.7759 H   0  0  0  0  0  0  0  0  0  0  0  0
    2.5532    0.8250   -0.5758 H   0  0  0  0  0  0  0  0  0  0  0  0
    2.7595   -0.2798    0.8885 H   0  0  0  0  0  0  0  0  0  0  0  0
    0.6739    2.0254    0.1739 H   0  0  0  0  0  0  0  0  0  0  0  0
   -1.7330    2.3677   -0.6258 H   0  0  0  0  0  0  0  0  0  0  0  0
   -2.9697    0.1115   -0.1564 H   0  0  0  0  0  0  0  0  0  0  0  0
   -2.0809   -0.0219   -1.6979 H   0  0  0  0  0  0  0  0  0  0  0  0
   -1.0494   -1.8798   -0.6282 H   0  0  0  0  0  0  0  0  0  0  0  0
   -0.8542   -0.2372    2.0791 H   0  0  0  0  0  0  0  0  0  0  0  0
   -0.0781   -1.8618    1.6778 H   0  0  0  0  0  0  0  0  0  0  0  0
  1  2  1  0
  2  3  1  0
  3  4  1  0
  4  5  2  0
  5  6  1  0
  6  7  1  0
  7  8  1  0
  7  3  1  0
  8  3  1  0
  1  9  1  0
  1 10  1  0
  1 11  1  0
  4 12  1  0
  5 13  1  0
  6 14  1  0
  6 15  1  0
  7 16  1  0
  8 17  1  0
  8 18  1  0
M  END
