
     RDKit          3D

 21 22  0  0  0  0  0  0  0  0999 V2000
    2.4774   -0.2120   -0.2326 C   0  0  0  0  0  0  0  0  0  0  0  0
    1.4406    0.5076   -0.7845 O   0  0  0  0  0  0  0  0  0  0  0  0
    0.1911    0.0489   -0.4970 C   0  0  0  0  0  0  0  0  0  0  0  0
   -0.2373   -1.3462   -0.8899 C   0  0  0  0  0  0  0  0  0  0  0  0
   -0.8055   -1.4950    0.5226 C   0  0  0  0  0  0  0  0  0  0  0  0
   -2.1872   -1.6893    0.4902 O   0  0  0  0  0  0  0  0  0  0  0  0
   -0.3747   -0.0902    0.8381 C   0  0  0  0  0  0  0  0  0  0  0  0
   -0.9261    0.9449   -0.0989 C   0  0  0  0  0  0  0  0  0  0  0  0
   -0.7126    2.3554    0.3220 C   0  0  0  0  0  0  0  0  0  0  0  0
    2.4968   -1.2732   -0.5567 H   0  0  0  0  0  0  0  0  0  0  0  0
    2.4715   -0.1882    0.8753 H   0  0  0  0  0  0  0  0  0  0  0  0
    3.4287    0.2333   -0.6019 H   0  0  0  0  0  0  0  0  0  0  0  0
    0.5588   -2.0695   -1.0505 H   0  0  0  0  0  0  0  0  0  0  0  0
   -0.9955   -1.3182   -1.6836 H   0  0  0  0  0  0  0  0  0  0  0  0
   -0.3008   -2.2141    1.1595 H   0  0  0  0  0  0  0  0  0  0  0  0
   -2.6028   -1.3525   -0.3416 H   0  0  0  0  0  0  0  0  0  0  0  0
    0.1353    0.1682    1.7576 H   0  0  0  0  0  0  0  0  0  0  0  0
   -1.9139    0.7656   -0.5973 H   0  0  0  0  0  0  0  0  0  0  0  0
   -1.5765    2.6406    0.9916 H   0  0  0  0  0  0  0  0  0  0  0  0
   -0.7583    3.0673   -0.5415 H   0  0  0  0  0  0  0  0  0  0  0  0
    0.1911    2.5167    0.9192 H   0  0  0  0  0  0  0  0  0  0  0  0
  1  2  1  0
  2  3  1  0
  3  4  1  0
  4  5  1  0
  5  6  1  0
  5  7  1  0
  7  8  1  0
  8  9  1  0
  7  3  1  0
  8  3  1  0
  1 10  1  0
  1 11  1  0
  1 12  1  0
  4 13  1  0
  4 14  1  0
  5 15  1  0
  6 16  1  0
  7 17  1  0
  8 18  1  0
  9 19  1  0
  9 20  1  0
  9 21  1  0
M  END
