
     RDKit          3D

 23 23  0  0  0  0  0  0  0  0999 V2000
   -2.5695   -1.6381    0.3392 C   0  0  0  0  0  0  0  0  0  0  0  0
   -1.3566   -1.2456   -0.2560 O   0  0  0  0  0  0  0  0  0  0  0  0
   -0.8428   -0.1161    0.3234 C   0  0  0  0  0  0  0  0  0  0  0  0
    0.6193   -0.0467    0.5777 C   0  0  0  0  0  0  0  0  0  0  0  0
    1.3554   -1.1227    0.0846 O   0  0  0  0  0  0  0  0  0  0  0  0
    2.5339   -1.2896    0.8335 C   0  0  0  0  0  0  0  0  0  0  0  0
   -0.0542    0.8809   -0.4355 C   0  0  0  0  0  0  0  0  0  0  0  0
    0.3608    0.6262   -1.8649 C   0  0  0  0  0  0  0  0  0  0  0  0
   -0.2242    2.3366   -0.0619 C   0  0  0  0  0  0  0  0  0  0  0  0
   -3.2618   -0.7725    0.1899 H   0  0  0  0  0  0  0  0  0  0  0  0
   -2.3967   -1.7623    1.4160 H   0  0  0  0  0  0  0  0  0  0  0  0
   -2.9503   -2.5551   -0.1213 H   0  0  0  0  0  0  0  0  0  0  0  0
   -1.4705    0.2906    1.1579 H   0  0  0  0  0  0  0  0  0  0  0  0
    1.0390    0.4976    1.4414 H   0  0  0  0  0  0  0  0  0  0  0  0
    3.1165   -2.1322    0.4523 H   0  0  0  0  0  0  0  0  0  0  0  0
    2.2063   -1.4206    1.8874 H   0  0  0  0  0  0  0  0  0  0  0  0
    3.1141   -0.3436    0.6960 H   0  0  0  0  0  0  0  0  0  0  0  0
    1.1325   -0.1729   -1.9507 H   0  0  0  0  0  0  0  0  0  0  0  0
    0.8346    1.5460   -2.2640 H   0  0  0  0  0  0  0  0  0  0  0  0
   -0.4913    0.3681   -2.5200 H   0  0  0  0  0  0  0  0  0  0  0  0
   -0.3759    2.9245   -0.9830 H   0  0  0  0  0  0  0  0  0  0  0  0
    0.7321    2.6630    0.3931 H   0  0  0  0  0  0  0  0  0  0  0  0
   -1.0507    2.4844    0.6648 H   0  0  0  0  0  0  0  0  0  0  0  0
  1  2  1  0
  2  3  1  0
  3  4  1  0
  4  5  1  0
  5  6  1  0
  4  7  1  0
  7  8  1  0
  7  9  1  0
  7  3  1  0
  1 10  1  0
  1 11  1  0
  1 12  1  0
  3 13  1  0
  4 14  1  0
  6 15  1  0
  6 16  1  0
  6 17  1  0
  8 18  1  0
  8 19  1  0
  8 20  1  0
  9 21  1  0
  9 22  1  0
  9 23  1  0
M  END
