
     RDKit          3D

 16 16  0  0  0  0  0  0  0  0999 V2000
    2.4197    0.3056    0.0573 C   0  0  0  0  0  0  0  0  0  0  0  0
    1.1470    0.0866   -0.4377 O   0  0  0  0  0  0  0  0  0  0  0  0
    0.2550   -0.4014    0.4633 C   0  0  0  0  0  0  0  0  0  0  0  0
   -0.8276   -1.3439    0.1135 C   0  0  0  0  0  0  0  0  0  0  0  0
   -1.1210    0.1174    0.4304 C   0  0  0  0  0  0  0  0  0  0  0  0
   -1.6632    0.8836   -0.7434 C   0  0  0  0  0  0  0  0  0  0  0  0
    3.0433    0.7034   -0.7839 H   0  0  0  0  0  0  0  0  0  0  0  0
    2.3911    1.1148    0.8167 H   0  0  0  0  0  0  0  0  0  0  0  0
    2.9220   -0.6010    0.4270 H   0  0  0  0  0  0  0  0  0  0  0  0
    0.6886   -0.5579    1.4948 H   0  0  0  0  0  0  0  0  0  0  0  0
   -0.9783   -1.7109   -0.9152 H   0  0  0  0  0  0  0  0  0  0  0  0
   -1.2206   -2.0430    0.8800 H   0  0  0  0  0  0  0  0  0  0  0  0
   -1.6363    0.3555    1.3884 H   0  0  0  0  0  0  0  0  0  0  0  0
   -0.9053    0.8810   -1.5330 H   0  0  0  0  0  0  0  0  0  0  0  0
   -2.5456    0.3062   -1.1434 H   0  0  0  0  0  0  0  0  0  0  0  0
   -1.9689    1.9039   -0.5147 H   0  0  0  0  0  0  0  0  0  0  0  0
  1  2  1  0
  2  3  1  0
  3  4  1  0
  4  5  1  0
  5  6  1  0
  5  3  1  0
  1  7  1  0
  1  8  1  0
  1  9  1  0
  3 10  1  0
  4 11  1  0
  4 12  1  0
  5 13  1  0
  6 14  1  0
  6 15  1  0
  6 16  1  0
M  END
