
     RDKit          3D

 21 21  0  0  0  0  0  0  0  0999 V2000
    3.0852    0.2320   -0.0002 C   0  0  0  0  0  0  0  0  0  0  0  0
    1.9936   -0.3141    0.6855 O   0  0  0  0  0  0  0  0  0  0  0  0
    0.8240    0.0360    0.0040 C   0  0  0  0  0  0  0  0  0  0  0  0
   -0.0229    0.7977    0.9464 C   0  0  0  0  0  0  0  0  0  0  0  0
   -1.3127    1.0684    0.8453 C   0  0  0  0  0  0  0  0  0  0  0  0
   -2.2657    0.6918   -0.2256 C   0  0  0  0  0  0  0  0  0  0  0  0
   -2.0978   -0.8179   -0.4373 C   0  0  0  0  0  0  0  0  0  0  0  0
   -0.9747   -1.0424   -1.1954 O   0  0  0  0  0  0  0  0  0  0  0  0
    0.1798   -1.2389   -0.4610 C   0  0  0  0  0  0  0  0  0  0  0  0
    3.9933   -0.0821    0.5931 H   0  0  0  0  0  0  0  0  0  0  0  0
    3.1577   -0.1395   -1.0354 H   0  0  0  0  0  0  0  0  0  0  0  0
    3.0149    1.3578    0.0032 H   0  0  0  0  0  0  0  0  0  0  0  0
    1.0552    0.6441   -0.8868 H   0  0  0  0  0  0  0  0  0  0  0  0
    0.4487    1.1944    1.8397 H   0  0  0  0  0  0  0  0  0  0  0  0
   -1.7077    1.6437    1.6651 H   0  0  0  0  0  0  0  0  0  0  0  0
   -1.9891    1.1655   -1.1994 H   0  0  0  0  0  0  0  0  0  0  0  0
   -3.3047    0.9315    0.0707 H   0  0  0  0  0  0  0  0  0  0  0  0
   -2.9862   -1.1408   -1.0106 H   0  0  0  0  0  0  0  0  0  0  0  0
   -2.0403   -1.2834    0.5644 H   0  0  0  0  0  0  0  0  0  0  0  0
    0.9164   -1.7378   -1.1428 H   0  0  0  0  0  0  0  0  0  0  0  0
    0.0330   -1.9661    0.3773 H   0  0  0  0  0  0  0  0  0  0  0  0
  1  2  1  0
  2  3  1  0
  3  4  1  0
  4  5  2  0
  5  6  1  0
  6  7  1  0
  7  8  1  0
  8  9  1  0
  9  3  1  0
  1 10  1  0
  1 11  1  0
  1 12  1  0
  3 13  1  0
  4 14  1  0
  5 15  1  0
  6 16  1  0
  6 17  1  0
  7 18  1  0
  7 19  1  0
  9 20  1  0
  9 21  1  0
M  END
