
     RDKit          3D

 21 22  0  0  0  0  0  0  0  0999 V2000
   -3.0131   -0.1249   -0.1536 C   0  0  0  0  0  0  0  0  0  0  0  0
   -1.8187   -0.5221    0.4390 O   0  0  0  0  0  0  0  0  0  0  0  0
   -0.7159   -0.0054   -0.2169 C   0  0  0  0  0  0  0  0  0  0  0  0
    0.2674   -1.1325   -0.5488 C   0  0  0  0  0  0  0  0  0  0  0  0
    1.2959   -0.9829    0.5376 C   0  0  0  0  0  0  0  0  0  0  0  0
    2.3132    0.0844    0.1368 C   0  0  0  0  0  0  0  0  0  0  0  0
    1.3525    1.2687   -0.0511 C   0  0  0  0  0  0  0  0  0  0  0  0
    0.1663    0.8076    0.7347 C   0  0  0  0  0  0  0  0  0  0  0  0
    0.6223   -0.2568    1.5499 O   0  0  0  0  0  0  0  0  0  0  0  0
   -3.8396   -0.5862    0.4390 H   0  0  0  0  0  0  0  0  0  0  0  0
   -3.1289   -0.5205   -1.1853 H   0  0  0  0  0  0  0  0  0  0  0  0
   -3.0413    0.9831   -0.1085 H   0  0  0  0  0  0  0  0  0  0  0  0
   -0.9443    0.6188   -1.0769 H   0  0  0  0  0  0  0  0  0  0  0  0
    0.7041   -0.9504   -1.5726 H   0  0  0  0  0  0  0  0  0  0  0  0
   -0.2537   -2.0844   -0.4669 H   0  0  0  0  0  0  0  0  0  0  0  0
    1.7394   -1.8964    0.8894 H   0  0  0  0  0  0  0  0  0  0  0  0
    2.8462   -0.1655   -0.7727 H   0  0  0  0  0  0  0  0  0  0  0  0
    2.9379    0.3327    1.0061 H   0  0  0  0  0  0  0  0  0  0  0  0
    1.0886    1.3611   -1.1433 H   0  0  0  0  0  0  0  0  0  0  0  0
    1.7904    2.2088    0.2845 H   0  0  0  0  0  0  0  0  0  0  0  0
   -0.3684    1.5627    1.2794 H   0  0  0  0  0  0  0  0  0  0  0  0
  1  2  1  0
  2  3  1  0
  3  4  1  0
  4  5  1  0
  5  6  1  0
  6  7  1  0
  7  8  1  0
  8  9  1  0
  8  3  1  0
  9  5  1  0
  1 10  1  0
  1 11  1  0
  1 12  1  0
  3 13  1  0
  4 14  1  0
  4 15  1  0
  5 16  1  0
  6 17  1  0
  6 18  1  0
  7 19  1  0
  7 20  1  0
  8 21  1  0
M  END
