
     RDKit          3D

 19 20  0  0  0  0  0  0  0  0999 V2000
    2.4568    1.3623   -0.3367 C   0  0  0  0  0  0  0  0  0  0  0  0
    1.7638    0.4586    0.4503 O   0  0  0  0  0  0  0  0  0  0  0  0
    0.7564   -0.1845   -0.2680 C   0  0  0  0  0  0  0  0  0  0  0  0
    0.5026   -1.6329   -0.0536 C   0  0  0  0  0  0  0  0  0  0  0  0
   -0.4507   -0.5801    0.4871 C   0  0  0  0  0  0  0  0  0  0  0  0
   -0.4481   -0.3303    1.8534 O   0  0  0  0  0  0  0  0  0  0  0  0
   -1.8081   -0.6125   -0.1503 C   0  0  0  0  0  0  0  0  0  0  0  0
   -2.2517    0.4823   -1.0671 C   0  0  0  0  0  0  0  0  0  0  0  0
   -1.9169   -0.8553   -1.5163 O   0  0  0  0  0  0  0  0  0  0  0  0
    2.9204    0.8359   -1.1841 H   0  0  0  0  0  0  0  0  0  0  0  0
    1.7420    2.1309   -0.6797 H   0  0  0  0  0  0  0  0  0  0  0  0
    3.2738    1.7875    0.2855 H   0  0  0  0  0  0  0  0  0  0  0  0
    0.6920    0.1410   -1.3323 H   0  0  0  0  0  0  0  0  0  0  0  0
    1.0055   -2.2056    0.7331 H   0  0  0  0  0  0  0  0  0  0  0  0
    0.1767   -2.2600   -0.9107 H   0  0  0  0  0  0  0  0  0  0  0  0
   -0.9734    0.5056    1.9882 H   0  0  0  0  0  0  0  0  0  0  0  0
   -2.6102   -0.9914    0.5248 H   0  0  0  0  0  0  0  0  0  0  0  0
   -3.3349    0.7369   -1.1267 H   0  0  0  0  0  0  0  0  0  0  0  0
   -1.4960    1.2116   -1.3673 H   0  0  0  0  0  0  0  0  0  0  0  0
  1  2  1  0
  2  3  1  0
  3  4  1  0
  4  5  1  0
  5  6  1  0
  5  7  1  0
  7  8  1  0
  8  9  1  0
  5  3  1  0
  9  7  1  0
  1 10  1  0
  1 11  1  0
  1 12  1  0
  3 13  1  0
  4 14  1  0
  4 15  1  0
  6 16  1  0
  7 17  1  0
  8 18  1  0
  8 19  1  0
M  END
