
     RDKit          3D

 21 23  0  0  0  0  0  0  0  0999 V2000
    3.1934   -0.1245   -0.3903 C   0  0  0  0  0  0  0  0  0  0  0  0
    1.9003   -0.0119   -0.8973 O   0  0  0  0  0  0  0  0  0  0  0  0
    1.0125   -0.1625    0.1328 C   0  0  0  0  0  0  0  0  0  0  0  0
   -0.0610    0.8842    0.2619 C   0  0  0  0  0  0  0  0  0  0  0  0
   -0.8072   -0.1658    1.0451 C   0  0  0  0  0  0  0  0  0  0  0  0
   -2.2642   -0.0054    0.7677 C   0  0  0  0  0  0  0  0  0  0  0  0
   -2.2020    0.3750   -0.7233 C   0  0  0  0  0  0  0  0  0  0  0  0
   -0.7078    0.2784   -0.9316 C   0  0  0  0  0  0  0  0  0  0  0  0
   -0.2491   -0.9124   -0.1415 C   0  0  0  0  0  0  0  0  0  0  0  0
    3.9544   -0.0100   -1.1846 H   0  0  0  0  0  0  0  0  0  0  0  0
    3.3389   -1.0099    0.2338 H   0  0  0  0  0  0  0  0  0  0  0  0
    3.3436    0.7625    0.2909 H   0  0  0  0  0  0  0  0  0  0  0  0
    1.4815   -0.3366    1.1222 H   0  0  0  0  0  0  0  0  0  0  0  0
    0.0545    1.8467    0.5046 H   0  0  0  0  0  0  0  0  0  0  0  0
   -0.4665   -0.4228    2.0236 H   0  0  0  0  0  0  0  0  0  0  0  0
   -2.8319   -0.9329    0.9016 H   0  0  0  0  0  0  0  0  0  0  0  0
   -2.6640    0.8173    1.3770 H   0  0  0  0  0  0  0  0  0  0  0  0
   -2.5596    1.4316   -0.7895 H   0  0  0  0  0  0  0  0  0  0  0  0
   -2.7811   -0.3147   -1.3351 H   0  0  0  0  0  0  0  0  0  0  0  0
   -0.3121    0.4449   -1.9119 H   0  0  0  0  0  0  0  0  0  0  0  0
   -0.3727   -1.8796   -0.3561 H   0  0  0  0  0  0  0  0  0  0  0  0
  1  2  1  0
  2  3  1  0
  3  4  1  0
  4  5  1  0
  5  6  1  0
  6  7  1  0
  7  8  1  0
  8  9  1  0
  9  3  1  0
  8  4  1  0
  9  5  1  0
  1 10  1  0
  1 11  1  0
  1 12  1  0
  3 13  1  0
  4 14  1  0
  5 15  1  0
  6 16  1  0
  6 17  1  0
  7 18  1  0
  7 19  1  0
  8 20  1  0
  9 21  1  0
M  END
