
     RDKit          3D

 19 20  0  0  0  0  0  0  0  0999 V2000
    2.2770    0.2600    0.5347 C   0  0  0  0  0  0  0  0  0  0  0  0
    1.3782   -0.7183    0.1993 O   0  0  0  0  0  0  0  0  0  0  0  0
    0.2157   -0.1958   -0.3456 C   0  0  0  0  0  0  0  0  0  0  0  0
   -0.8669   -1.1454   -0.7637 C   0  0  0  0  0  0  0  0  0  0  0  0
   -0.5510   -2.4930   -0.6018 O   0  0  0  0  0  0  0  0  0  0  0  0
   -1.7494   -0.5596    0.3066 C   0  0  0  0  0  0  0  0  0  0  0  0
   -0.7019    0.4407    0.7064 C   0  0  0  0  0  0  0  0  0  0  0  0
   -0.0569    1.2454   -0.3938 C   0  0  0  0  0  0  0  0  0  0  0  0
   -0.9603    1.7164   -1.3413 O   0  0  0  0  0  0  0  0  0  0  0  0
    3.1777   -0.2475    0.9633 H   0  0  0  0  0  0  0  0  0  0  0  0
    1.9202    0.9680    1.3074 H   0  0  0  0  0  0  0  0  0  0  0  0
    2.5777    0.7849   -0.4144 H   0  0  0  0  0  0  0  0  0  0  0  0
   -1.2129   -0.9052   -1.7857 H   0  0  0  0  0  0  0  0  0  0  0  0
    0.3906   -2.5870   -0.2589 H   0  0  0  0  0  0  0  0  0  0  0  0
   -1.8958   -1.3044    1.1207 H   0  0  0  0  0  0  0  0  0  0  0  0
   -2.6594   -0.0399   -0.0405 H   0  0  0  0  0  0  0  0  0  0  0  0
   -0.3511    0.5284    1.7326 H   0  0  0  0  0  0  0  0  0  0  0  0
    0.6919    1.9799   -0.0911 H   0  0  0  0  0  0  0  0  0  0  0  0
   -1.6233    2.2723   -0.8342 H   0  0  0  0  0  0  0  0  0  0  0  0
  1  2  1  0
  2  3  1  0
  3  4  1  0
  4  5  1  0
  4  6  1  0
  6  7  1  0
  7  8  1  0
  8  9  1  0
  7  3  1  0
  8  3  1  0
  1 10  1  0
  1 11  1  0
  1 12  1  0
  4 13  1  0
  5 14  1  0
  6 15  1  0
  6 16  1  0
  7 17  1  0
  8 18  1  0
  9 19  1  0
M  END
