
     RDKit          3D

 19 19  0  0  0  0  0  0  0  0999 V2000
   -2.9235    0.0379    0.5606 C   0  0  0  0  0  0  0  0  0  0  0  0
   -1.6754    0.5705    0.7760 O   0  0  0  0  0  0  0  0  0  0  0  0
   -0.6841   -0.0390    0.0284 C   0  0  0  0  0  0  0  0  0  0  0  0
    0.2782    0.8857   -0.6648 C   0  0  0  0  0  0  0  0  0  0  0  0
    1.3541   -0.1493   -0.3162 C   0  0  0  0  0  0  0  0  0  0  0  0
    1.3711   -1.1663   -1.2430 O   0  0  0  0  0  0  0  0  0  0  0  0
    2.6490    0.4769   -0.0030 C   0  0  0  0  0  0  0  0  0  0  0  0
    2.7581    1.3679    0.7844 O   0  0  0  0  0  0  0  0  0  0  0  0
    0.4944   -0.4820    0.8804 C   0  0  0  0  0  0  0  0  0  0  0  0
   -2.9025   -1.0455    0.8342 H   0  0  0  0  0  0  0  0  0  0  0  0
   -3.2707    0.1871   -0.4878 H   0  0  0  0  0  0  0  0  0  0  0  0
   -3.6349    0.5930    1.2253 H   0  0  0  0  0  0  0  0  0  0  0  0
   -0.9857   -0.8496   -0.6305 H   0  0  0  0  0  0  0  0  0  0  0  0
    0.1767    0.9269   -1.7650 H   0  0  0  0  0  0  0  0  0  0  0  0
    0.4959    1.8349   -0.1525 H   0  0  0  0  0  0  0  0  0  0  0  0
    1.9631   -1.9072   -0.9063 H   0  0  0  0  0  0  0  0  0  0  0  0
    3.5285    0.1049   -0.5139 H   0  0  0  0  0  0  0  0  0  0  0  0
    0.4047   -1.5545    1.1237 H   0  0  0  0  0  0  0  0  0  0  0  0
    0.6031    0.2077    1.7318 H   0  0  0  0  0  0  0  0  0  0  0  0
  1  2  1  0
  2  3  1  0
  3  4  1  0
  4  5  1  0
  5  6  1  0
  5  7  1  0
  7  8  2  0
  5  9  1  0
  9  3  1  0
  1 10  1  0
  1 11  1  0
  1 12  1  0
  3 13  1  0
  4 14  1  0
  4 15  1  0
  6 16  1  0
  7 17  1  0
  9 18  1  0
  9 19  1  0
M  END
