
     RDKit          3D

 21 21  0  0  0  0  0  0  0  0999 V2000
    2.9434    0.4897   -0.3504 C   0  0  0  0  0  0  0  0  0  0  0  0
    1.5916    0.6899   -0.3192 O   0  0  0  0  0  0  0  0  0  0  0  0
    0.9244    0.0489    0.6905 C   0  0  0  0  0  0  0  0  0  0  0  0
    0.0986    0.9497    1.4016 O   0  0  0  0  0  0  0  0  0  0  0  0
   -0.8818    1.3468    0.5243 C   0  0  0  0  0  0  0  0  0  0  0  0
   -0.9904    0.3210   -0.5621 C   0  0  0  0  0  0  0  0  0  0  0  0
   -2.3965   -0.1318   -0.8220 C   0  0  0  0  0  0  0  0  0  0  0  0
   -0.1615   -0.8099    0.0204 C   0  0  0  0  0  0  0  0  0  0  0  0
   -0.8826   -1.5023    0.9971 O   0  0  0  0  0  0  0  0  0  0  0  0
    3.2373   -0.5839   -0.4730 H   0  0  0  0  0  0  0  0  0  0  0  0
    3.3632    1.1042   -1.1750 H   0  0  0  0  0  0  0  0  0  0  0  0
    3.3674    0.8806    0.6076 H   0  0  0  0  0  0  0  0  0  0  0  0
    1.5299   -0.5511    1.3624 H   0  0  0  0  0  0  0  0  0  0  0  0
   -0.6333    2.3678    0.1143 H   0  0  0  0  0  0  0  0  0  0  0  0
   -1.8491    1.4523    1.0770 H   0  0  0  0  0  0  0  0  0  0  0  0
   -0.5302    0.6398   -1.5154 H   0  0  0  0  0  0  0  0  0  0  0  0
   -2.3544   -1.1619   -1.2321 H   0  0  0  0  0  0  0  0  0  0  0  0
   -2.8754    0.4975   -1.5793 H   0  0  0  0  0  0  0  0  0  0  0  0
   -2.9501   -0.1914    0.1313 H   0  0  0  0  0  0  0  0  0  0  0  0
    0.2662   -1.4579   -0.7482 H   0  0  0  0  0  0  0  0  0  0  0  0
   -0.8168   -1.0056    1.8503 H   0  0  0  0  0  0  0  0  0  0  0  0
  1  2  1  0
  2  3  1  0
  3  4  1  0
  4  5  1  0
  5  6  1  0
  6  7  1  0
  6  8  1  0
  8  9  1  0
  8  3  1  0
  1 10  1  0
  1 11  1  0
  1 12  1  0
  3 13  1  0
  5 14  1  0
  5 15  1  0
  6 16  1  0
  7 17  1  0
  7 18  1  0
  7 19  1  0
  8 20  1  0
  9 21  1  0
M  END
