
     RDKit          3D

 25 25  0  0  0  0  0  0  0  0999 V2000
    2.1937   -1.3946    0.6899 C   0  0  0  0  0  0  0  0  0  0  0  0
    0.9093   -0.8617    0.8470 O   0  0  0  0  0  0  0  0  0  0  0  0
    0.4214   -0.4188   -0.3541 C   0  0  0  0  0  0  0  0  0  0  0  0
   -0.9473   -0.8621   -0.7521 C   0  0  0  0  0  0  0  0  0  0  0  0
   -1.6068   -1.8926    0.1044 C   0  0  0  0  0  0  0  0  0  0  0  0
   -1.5296    0.5182   -0.4314 C   0  0  0  0  0  0  0  0  0  0  0  0
   -0.1107    1.0078   -0.3161 C   0  0  0  0  0  0  0  0  0  0  0  0
    0.2871    1.8201   -1.5021 C   0  0  0  0  0  0  0  0  0  0  0  0
    0.2417    1.6765    0.9906 C   0  0  0  0  0  0  0  0  0  0  0  0
    2.5964   -1.7558    1.6583 H   0  0  0  0  0  0  0  0  0  0  0  0
    2.1538   -2.2671    0.0115 H   0  0  0  0  0  0  0  0  0  0  0  0
    2.9054   -0.6175    0.2920 H   0  0  0  0  0  0  0  0  0  0  0  0
    1.1611   -0.5837   -1.1892 H   0  0  0  0  0  0  0  0  0  0  0  0
   -1.0950   -1.0647   -1.8374 H   0  0  0  0  0  0  0  0  0  0  0  0
   -2.6848   -1.9388   -0.2323 H   0  0  0  0  0  0  0  0  0  0  0  0
   -1.5733   -1.5811    1.1779 H   0  0  0  0  0  0  0  0  0  0  0  0
   -1.1680   -2.8970    0.0209 H   0  0  0  0  0  0  0  0  0  0  0  0
   -2.1283    0.9583   -1.2367 H   0  0  0  0  0  0  0  0  0  0  0  0
   -2.1123    0.5470    0.5150 H   0  0  0  0  0  0  0  0  0  0  0  0
   -0.6178    2.2184   -2.0389 H   0  0  0  0  0  0  0  0  0  0  0  0
    0.9483    2.6428   -1.1792 H   0  0  0  0  0  0  0  0  0  0  0  0
    0.8069    1.1449   -2.2402 H   0  0  0  0  0  0  0  0  0  0  0  0
   -0.3472    2.6213    1.0300 H   0  0  0  0  0  0  0  0  0  0  0  0
    1.3186    1.9119    0.9570 H   0  0  0  0  0  0  0  0  0  0  0  0
   -0.0229    1.0680    1.8664 H   0  0  0  0  0  0  0  0  0  0  0  0
  1  2  1  0
  2  3  1  0
  3  4  1  0
  4  5  1  0
  4  6  1  0
  6  7  1  0
  7  8  1  0
  7  9  1  0
  7  3  1  0
  1 10  1  0
  1 11  1  0
  1 12  1  0
  3 13  1  0
  4 14  1  0
  5 15  1  0
  5 16  1  0
  5 17  1  0
  6 18  1  0
  6 19  1  0
  8 20  1  0
  8 21  1  0
  8 22  1  0
  9 23  1  0
  9 24  1  0
  9 25  1  0
M  END
