
     RDKit          3D

 19 19  0  0  0  0  0  0  0  0999 V2000
    2.1388   -0.0731   -0.9752 C   0  0  0  0  0  0  0  0  0  0  0  0
    0.9656   -0.8305   -0.9838 O   0  0  0  0  0  0  0  0  0  0  0  0
    0.1571   -0.2955    0.0201 C   0  0  0  0  0  0  0  0  0  0  0  0
    0.7881   -0.3620    1.3759 C   0  0  0  0  0  0  0  0  0  0  0  0
   -0.4698    1.0283   -0.3904 C   0  0  0  0  0  0  0  0  0  0  0  0
   -1.2810   -0.2923   -0.2151 C   0  0  0  0  0  0  0  0  0  0  0  0
   -1.7197   -0.8704   -1.4144 O   0  0  0  0  0  0  0  0  0  0  0  0
   -2.2986   -0.1708    0.8262 C   0  0  0  0  0  0  0  0  0  0  0  0
   -2.1171    0.3039    1.9353 O   0  0  0  0  0  0  0  0  0  0  0  0
    1.9291    0.9974   -1.1774 H   0  0  0  0  0  0  0  0  0  0  0  0
    2.8116   -0.4074   -1.7991 H   0  0  0  0  0  0  0  0  0  0  0  0
    2.6501   -0.2681   -0.0325 H   0  0  0  0  0  0  0  0  0  0  0  0
    1.3937   -1.2819    1.4379 H   0  0  0  0  0  0  0  0  0  0  0  0
    1.4876    0.5233    1.4449 H   0  0  0  0  0  0  0  0  0  0  0  0
    0.1062   -0.3503    2.2164 H   0  0  0  0  0  0  0  0  0  0  0  0
   -0.5202    1.7726    0.3993 H   0  0  0  0  0  0  0  0  0  0  0  0
   -0.3577    1.3935   -1.4150 H   0  0  0  0  0  0  0  0  0  0  0  0
   -2.3621   -0.2943   -1.8768 H   0  0  0  0  0  0  0  0  0  0  0  0
   -3.3014   -0.5223    0.6236 H   0  0  0  0  0  0  0  0  0  0  0  0
  1  2  1  0
  2  3  1  0
  3  4  1  0
  3  5  1  0
  5  6  1  0
  6  7  1  0
  6  8  1  0
  8  9  2  0
  6  3  1  0
  1 10  1  0
  1 11  1  0
  1 12  1  0
  4 13  1  0
  4 14  1  0
  4 15  1  0
  5 16  1  0
  5 17  1  0
  7 18  1  0
  8 19  1  0
M  END
