
     RDKit          3D

 19 21  0  0  0  0  0  0  0  0999 V2000
    2.4765    0.3258   -0.4399 C   0  0  0  0  0  0  0  0  0  0  0  0
    1.2939    0.4580   -1.1383 O   0  0  0  0  0  0  0  0  0  0  0  0
    0.2271    0.1529   -0.3536 C   0  0  0  0  0  0  0  0  0  0  0  0
    0.0481    0.9958    0.8837 C   0  0  0  0  0  0  0  0  0  0  0  0
   -1.2391    1.0481    1.2010 C   0  0  0  0  0  0  0  0  0  0  0  0
   -2.0301    0.2564    0.2183 C   0  0  0  0  0  0  0  0  0  0  0  0
   -1.4462   -1.0896   -0.0943 C   0  0  0  0  0  0  0  0  0  0  0  0
    0.0266   -1.2971    0.0183 C   0  0  0  0  0  0  0  0  0  0  0  0
   -1.1312    0.1507   -0.9273 C   0  0  0  0  0  0  0  0  0  0  0  0
    2.5070    0.9975    0.4424 H   0  0  0  0  0  0  0  0  0  0  0  0
    2.6221   -0.7427   -0.1745 H   0  0  0  0  0  0  0  0  0  0  0  0
    3.3503    0.5760   -1.1091 H   0  0  0  0  0  0  0  0  0  0  0  0
    0.8097    1.4976    1.4568 H   0  0  0  0  0  0  0  0  0  0  0  0
   -1.6989    1.5692    2.0327 H   0  0  0  0  0  0  0  0  0  0  0  0
   -3.1084    0.4089    0.1435 H   0  0  0  0  0  0  0  0  0  0  0  0
   -2.0897   -1.8789   -0.5372 H   0  0  0  0  0  0  0  0  0  0  0  0
    0.3882   -2.0357   -0.7240 H   0  0  0  0  0  0  0  0  0  0  0  0
    0.3798   -1.5172    1.0662 H   0  0  0  0  0  0  0  0  0  0  0  0
   -1.3858    0.1245   -1.9646 H   0  0  0  0  0  0  0  0  0  0  0  0
  1  2  1  0
  2  3  1  0
  3  4  1  0
  4  5  2  0
  5  6  1  0
  6  7  1  0
  7  8  1  0
  7  9  1  0
  8  3  1  0
  9  3  1  0
  9  6  1  0
  1 10  1  0
  1 11  1  0
  1 12  1  0
  4 13  1  0
  5 14  1  0
  6 15  1  0
  7 16  1  0
  8 17  1  0
  8 18  1  0
  9 19  1  0
M  END
