
     RDKit          3D

 17 18  0  0  0  0  0  0  0  0999 V2000
   -2.7044   -0.1892   -0.3535 C   0  0  0  0  0  0  0  0  0  0  0  0
   -1.3621   -0.2077   -0.6457 O   0  0  0  0  0  0  0  0  0  0  0  0
   -0.6361   -0.0619    0.5271 C   0  0  0  0  0  0  0  0  0  0  0  0
    0.6534   -0.7558    0.7235 C   0  0  0  0  0  0  0  0  0  0  0  0
    1.3601   -1.2560   -0.3357 O   0  0  0  0  0  0  0  0  0  0  0  0
    2.2791   -0.2963   -0.6886 C   0  0  0  0  0  0  0  0  0  0  0  0
    1.4176    0.9433   -0.6759 C   0  0  0  0  0  0  0  0  0  0  0  0
    1.4541    1.8334   -1.5037 O   0  0  0  0  0  0  0  0  0  0  0  0
    0.5913    0.7674    0.5340 C   0  0  0  0  0  0  0  0  0  0  0  0
   -3.0226    0.7696    0.1364 H   0  0  0  0  0  0  0  0  0  0  0  0
   -3.3485   -0.2961   -1.2411 H   0  0  0  0  0  0  0  0  0  0  0  0
   -2.9800   -0.9901    0.3677 H   0  0  0  0  0  0  0  0  0  0  0  0
   -1.2518    0.0388    1.4479 H   0  0  0  0  0  0  0  0  0  0  0  0
    0.9604   -1.0969    1.7206 H   0  0  0  0  0  0  0  0  0  0  0  0
    2.9845   -0.1533    0.1758 H   0  0  0  0  0  0  0  0  0  0  0  0
    2.7758   -0.4486   -1.6361 H   0  0  0  0  0  0  0  0  0  0  0  0
    0.8291    1.3995    1.4134 H   0  0  0  0  0  0  0  0  0  0  0  0
  1  2  1  0
  2  3  1  0
  3  4  1  0
  4  5  1  0
  5  6  1  0
  6  7  1  0
  7  8  2  0
  7  9  1  0
  9  3  1  0
  9  4  1  0
  1 10  1  0
  1 11  1  0
  1 12  1  0
  3 13  1  0
  4 14  1  0
  6 15  1  0
  6 16  1  0
  9 17  1  0
M  END
