
     RDKit          3D

 21 22  0  0  0  0  0  0  0  0999 V2000
    2.5395   -0.8423    0.1366 C   0  0  0  0  0  0  0  0  0  0  0  0
    1.2014   -1.0040    0.3879 O   0  0  0  0  0  0  0  0  0  0  0  0
    0.4871    0.0926   -0.1479 C   0  0  0  0  0  0  0  0  0  0  0  0
    0.6475    0.1870   -1.5524 C   0  0  0  0  0  0  0  0  0  0  0  0
   -0.6567   -0.2986   -1.1745 C   0  0  0  0  0  0  0  0  0  0  0  0
   -1.1027   -1.0426    0.0477 C   0  0  0  0  0  0  0  0  0  0  0  0
   -0.7214    0.2992    0.7141 C   0  0  0  0  0  0  0  0  0  0  0  0
   -1.6213    1.4400    0.4385 C   0  0  0  0  0  0  0  0  0  0  0  0
   -0.4511    0.1639    2.0701 O   0  0  0  0  0  0  0  0  0  0  0  0
    3.0570   -1.7367    0.5856 H   0  0  0  0  0  0  0  0  0  0  0  0
    2.7405   -0.8226   -0.9366 H   0  0  0  0  0  0  0  0  0  0  0  0
    2.8878    0.0831    0.6550 H   0  0  0  0  0  0  0  0  0  0  0  0
    1.2085   -0.5469   -2.2041 H   0  0  0  0  0  0  0  0  0  0  0  0
    0.8497    1.2258   -1.9548 H   0  0  0  0  0  0  0  0  0  0  0  0
   -1.4242    0.5192   -1.3577 H   0  0  0  0  0  0  0  0  0  0  0  0
   -0.5037   -1.8704    0.4020 H   0  0  0  0  0  0  0  0  0  0  0  0
   -2.1639   -1.2670    0.0549 H   0  0  0  0  0  0  0  0  0  0  0  0
   -1.8140    2.0334    1.3853 H   0  0  0  0  0  0  0  0  0  0  0  0
   -1.1908    2.2079   -0.2541 H   0  0  0  0  0  0  0  0  0  0  0  0
   -2.6658    1.1426    0.1243 H   0  0  0  0  0  0  0  0  0  0  0  0
   -1.3034    0.0365    2.5802 H   0  0  0  0  0  0  0  0  0  0  0  0
  1  2  1  0
  2  3  1  0
  3  4  1  0
  4  5  1  0
  5  6  1  0
  6  7  1  0
  7  8  1  0
  7  9  1  0
  5  3  1  0
  7  3  1  0
  1 10  1  0
  1 11  1  0
  1 12  1  0
  4 13  1  0
  4 14  1  0
  5 15  1  0
  6 16  1  0
  6 17  1  0
  8 18  1  0
  8 19  1  0
  8 20  1  0
  9 21  1  0
M  END
