
     RDKit          3D

 19 20  0  0  0  0  0  0  0  0999 V2000
   -2.7769    0.9843    0.1036 C   0  0  0  0  0  0  0  0  0  0  0  0
   -1.6906    0.5516    0.8590 O   0  0  0  0  0  0  0  0  0  0  0  0
   -0.6939   -0.0239    0.1013 C   0  0  0  0  0  0  0  0  0  0  0  0
   -0.2959   -1.3708    0.5873 C   0  0  0  0  0  0  0  0  0  0  0  0
    1.0245   -1.5109    0.5191 C   0  0  0  0  0  0  0  0  0  0  0  0
    1.6153   -0.2778   -0.0143 C   0  0  0  0  0  0  0  0  0  0  0  0
    2.4414   -0.1360   -1.1519 C   0  0  0  0  0  0  0  0  0  0  0  0
    2.9560    0.0004    0.1595 O   0  0  0  0  0  0  0  0  0  0  0  0
    0.5818    0.7638    0.3276 C   0  0  0  0  0  0  0  0  0  0  0  0
   -3.5104    1.4261    0.8098 H   0  0  0  0  0  0  0  0  0  0  0  0
   -2.4574    1.6747   -0.6843 H   0  0  0  0  0  0  0  0  0  0  0  0
   -3.2674    0.0659   -0.3126 H   0  0  0  0  0  0  0  0  0  0  0  0
   -0.9005   -0.0561   -0.9726 H   0  0  0  0  0  0  0  0  0  0  0  0
   -0.9929   -2.1261    0.9451 H   0  0  0  0  0  0  0  0  0  0  0  0
    1.5640   -2.4004    0.8144 H   0  0  0  0  0  0  0  0  0  0  0  0
    2.3856    0.7849   -1.7744 H   0  0  0  0  0  0  0  0  0  0  0  0
    2.7960   -1.0178   -1.7119 H   0  0  0  0  0  0  0  0  0  0  0  0
    0.5767    1.6072   -0.3840 H   0  0  0  0  0  0  0  0  0  0  0  0
    0.6446    1.0609    1.3765 H   0  0  0  0  0  0  0  0  0  0  0  0
  1  2  1  0
  2  3  1  0
  3  4  1  0
  4  5  2  0
  5  6  1  0
  6  7  1  0
  7  8  1  0
  6  9  1  0
  9  3  1  0
  8  6  1  0
  1 10  1  0
  1 11  1  0
  1 12  1  0
  3 13  1  0
  4 14  1  0
  5 15  1  0
  7 16  1  0
  7 17  1  0
  9 18  1  0
  9 19  1  0
M  END
