
     RDKit          3D

 21 22  0  0  0  0  0  0  0  0999 V2000
    3.1680   -0.1383    0.1973 C   0  0  0  0  0  0  0  0  0  0  0  0
    1.9434    0.4421    0.5782 O   0  0  0  0  0  0  0  0  0  0  0  0
    0.8979   -0.0528   -0.2083 C   0  0  0  0  0  0  0  0  0  0  0  0
   -0.1482   -0.6581    0.6675 C   0  0  0  0  0  0  0  0  0  0  0  0
   -1.4507   -0.3057   -0.0024 C   0  0  0  0  0  0  0  0  0  0  0  0
   -2.6172   -0.4011    0.9230 C   0  0  0  0  0  0  0  0  0  0  0  0
   -1.2331    1.0424   -0.5934 C   0  0  0  0  0  0  0  0  0  0  0  0
   -0.4148    1.9762    0.0145 O   0  0  0  0  0  0  0  0  0  0  0  0
    0.2384    1.1358   -0.8594 C   0  0  0  0  0  0  0  0  0  0  0  0
    3.3243    0.1334   -0.8798 H   0  0  0  0  0  0  0  0  0  0  0  0
    3.9460    0.2816    0.8571 H   0  0  0  0  0  0  0  0  0  0  0  0
    3.1311   -1.2495    0.2668 H   0  0  0  0  0  0  0  0  0  0  0  0
    1.2821   -0.7857   -0.9463 H   0  0  0  0  0  0  0  0  0  0  0  0
   -0.1613   -0.1900    1.6745 H   0  0  0  0  0  0  0  0  0  0  0  0
   -0.0078   -1.7633    0.7497 H   0  0  0  0  0  0  0  0  0  0  0  0
   -1.6107   -1.0217   -0.8610 H   0  0  0  0  0  0  0  0  0  0  0  0
   -3.1019   -1.3924    0.7915 H   0  0  0  0  0  0  0  0  0  0  0  0
   -2.3249   -0.3121    1.9881 H   0  0  0  0  0  0  0  0  0  0  0  0
   -3.3974    0.3629    0.7497 H   0  0  0  0  0  0  0  0  0  0  0  0
   -1.9689    1.4530   -1.2960 H   0  0  0  0  0  0  0  0  0  0  0  0
    0.5057    1.4434   -1.8722 H   0  0  0  0  0  0  0  0  0  0  0  0
  1  2  1  0
  2  3  1  0
  3  4  1  0
  4  5  1  0
  5  6  1  0
  5  7  1  0
  7  8  1  0
  8  9  1  0
  9  3  1  0
  9  7  1  0
  1 10  1  0
  1 11  1  0
  1 12  1  0
  3 13  1  0
  4 14  1  0
  4 15  1  0
  5 16  1  0
  6 17  1  0
  6 18  1  0
  6 19  1  0
  7 20  1  0
  9 21  1  0
M  END
