
     RDKit          3D

 23 23  0  0  0  0  0  0  0  0999 V2000
    2.8457   -1.4078   -0.0780 C   0  0  0  0  0  0  0  0  0  0  0  0
    1.5382   -1.3291   -0.5582 O   0  0  0  0  0  0  0  0  0  0  0  0
    0.8322   -0.5369    0.3500 C   0  0  0  0  0  0  0  0  0  0  0  0
   -0.4485   -1.2246    0.8400 C   0  0  0  0  0  0  0  0  0  0  0  0
   -1.1124   -0.6446   -0.4139 C   0  0  0  0  0  0  0  0  0  0  0  0
   -2.5193   -0.2497   -0.1220 C   0  0  0  0  0  0  0  0  0  0  0  0
   -0.0839    0.4773   -0.3316 C   0  0  0  0  0  0  0  0  0  0  0  0
   -0.4426    1.4671    0.5514 O   0  0  0  0  0  0  0  0  0  0  0  0
   -0.2501    2.7480    0.0194 C   0  0  0  0  0  0  0  0  0  0  0  0
    2.8604   -1.8644    0.9286 H   0  0  0  0  0  0  0  0  0  0  0  0
    3.2181   -0.3615   -0.0179 H   0  0  0  0  0  0  0  0  0  0  0  0
    3.4650   -2.0416   -0.7384 H   0  0  0  0  0  0  0  0  0  0  0  0
    1.3888   -0.1550    1.2013 H   0  0  0  0  0  0  0  0  0  0  0  0
   -0.3959   -2.3219    0.8630 H   0  0  0  0  0  0  0  0  0  0  0  0
   -0.8287   -0.7284    1.7606 H   0  0  0  0  0  0  0  0  0  0  0  0
   -1.0260   -1.3033   -1.2802 H   0  0  0  0  0  0  0  0  0  0  0  0
   -2.5953    0.6370    0.5183 H   0  0  0  0  0  0  0  0  0  0  0  0
   -2.9981   -1.1070    0.4367 H   0  0  0  0  0  0  0  0  0  0  0  0
   -3.1428   -0.1519   -1.0512 H   0  0  0  0  0  0  0  0  0  0  0  0
    0.2953    0.8293   -1.3099 H   0  0  0  0  0  0  0  0  0  0  0  0
   -0.8644    2.8494   -0.8854 H   0  0  0  0  0  0  0  0  0  0  0  0
    0.8042    2.9563   -0.2167 H   0  0  0  0  0  0  0  0  0  0  0  0
   -0.5398    3.4633    0.8315 H   0  0  0  0  0  0  0  0  0  0  0  0
  1  2  1  0
  2  3  1  0
  3  4  1  0
  4  5  1  0
  5  6  1  0
  5  7  1  0
  7  8  1  0
  8  9  1  0
  7  3  1  0
  1 10  1  0
  1 11  1  0
  1 12  1  0
  3 13  1  0
  4 14  1  0
  4 15  1  0
  5 16  1  0
  6 17  1  0
  6 18  1  0
  6 19  1  0
  7 20  1  0
  9 21  1  0
  9 22  1  0
  9 23  1  0
M  END
