
     RDKit          3D

 21 22  0  0  0  0  0  0  0  0999 V2000
    2.7148   -0.8146    0.5148 C   0  0  0  0  0  0  0  0  0  0  0  0
    1.3673   -0.9364    0.1949 O   0  0  0  0  0  0  0  0  0  0  0  0
    0.8774    0.2814   -0.1789 C   0  0  0  0  0  0  0  0  0  0  0  0
    0.1920    0.3306   -1.5329 C   0  0  0  0  0  0  0  0  0  0  0  0
   -0.9966    0.9844   -0.8604 C   0  0  0  0  0  0  0  0  0  0  0  0
   -2.1133    0.2127   -1.0102 O   0  0  0  0  0  0  0  0  0  0  0  0
   -2.3738   -0.4705    0.1350 C   0  0  0  0  0  0  0  0  0  0  0  0
   -1.2524   -0.2970    1.0946 C   0  0  0  0  0  0  0  0  0  0  0  0
   -0.3926    0.7455    0.4723 C   0  0  0  0  0  0  0  0  0  0  0  0
    3.3178   -0.4435   -0.3580 H   0  0  0  0  0  0  0  0  0  0  0  0
    3.1713   -1.8133    0.7576 H   0  0  0  0  0  0  0  0  0  0  0  0
    2.8403   -0.0929    1.3495 H   0  0  0  0  0  0  0  0  0  0  0  0
    1.6439    1.0806   -0.1459 H   0  0  0  0  0  0  0  0  0  0  0  0
    0.6822    0.9674   -2.2856 H   0  0  0  0  0  0  0  0  0  0  0  0
    0.0171   -0.6761   -1.9391 H   0  0  0  0  0  0  0  0  0  0  0  0
   -1.1051    2.0436   -1.1736 H   0  0  0  0  0  0  0  0  0  0  0  0
   -2.5559   -1.5577   -0.0718 H   0  0  0  0  0  0  0  0  0  0  0  0
   -3.3556   -0.1014    0.5473 H   0  0  0  0  0  0  0  0  0  0  0  0
   -0.7471   -1.2304    1.3582 H   0  0  0  0  0  0  0  0  0  0  0  0
   -1.6600    0.1208    2.0608 H   0  0  0  0  0  0  0  0  0  0  0  0
   -0.2718    1.6669    1.0711 H   0  0  0  0  0  0  0  0  0  0  0  0
  1  2  1  0
  2  3  1  0
  3  4  1  0
  4  5  1  0
  5  6  1  0
  6  7  1  0
  7  8  1  0
  8  9  1  0
  9  3  1  0
  9  5  1  0
  1 10  1  0
  1 11  1  0
  1 12  1  0
  3 13  1  0
  4 14  1  0
  4 15  1  0
  5 16  1  0
  7 17  1  0
  7 18  1  0
  8 19  1  0
  8 20  1  0
  9 21  1  0
M  END
