
     RDKit          3D

 21 21  0  0  0  0  0  0  0  0999 V2000
    2.7195   -0.1887    0.8562 C   0  0  0  0  0  0  0  0  0  0  0  0
    1.5499    0.4013    0.3832 O   0  0  0  0  0  0  0  0  0  0  0  0
    1.0897   -0.3041   -0.7044 C   0  0  0  0  0  0  0  0  0  0  0  0
    0.3872    0.3591   -1.8275 C   0  0  0  0  0  0  0  0  0  0  0  0
   -0.3742   -0.4694   -0.7932 C   0  0  0  0  0  0  0  0  0  0  0  0
   -1.3282    0.3085    0.0390 C   0  0  0  0  0  0  0  0  0  0  0  0
   -1.1350    0.0950    1.5240 C   0  0  0  0  0  0  0  0  0  0  0  0
   -2.7017   -0.1726   -0.2848 C   0  0  0  0  0  0  0  0  0  0  0  0
   -2.8743   -1.3787   -0.2987 O   0  0  0  0  0  0  0  0  0  0  0  0
    3.4742   -0.1610    0.0191 H   0  0  0  0  0  0  0  0  0  0  0  0
    3.1463    0.3792    1.7039 H   0  0  0  0  0  0  0  0  0  0  0  0
    2.5080   -1.2456    1.1144 H   0  0  0  0  0  0  0  0  0  0  0  0
    1.6979   -1.1824   -1.0078 H   0  0  0  0  0  0  0  0  0  0  0  0
    0.4761   -0.0244   -2.8435 H   0  0  0  0  0  0  0  0  0  0  0  0
    0.3102    1.4625   -1.7668 H   0  0  0  0  0  0  0  0  0  0  0  0
   -0.7497   -1.4716   -1.1549 H   0  0  0  0  0  0  0  0  0  0  0  0
   -1.2154    1.3892   -0.1792 H   0  0  0  0  0  0  0  0  0  0  0  0
   -0.2111    0.5310    1.9149 H   0  0  0  0  0  0  0  0  0  0  0  0
   -1.2883   -0.9694    1.7792 H   0  0  0  0  0  0  0  0  0  0  0  0
   -1.9806    0.6482    2.0225 H   0  0  0  0  0  0  0  0  0  0  0  0
   -3.5006    0.5098   -0.4956 H   0  0  0  0  0  0  0  0  0  0  0  0
  1  2  1  0
  2  3  1  0
  3  4  1  0
  4  5  1  0
  5  6  1  0
  6  7  1  0
  6  8  1  0
  8  9  2  0
  5  3  1  0
  1 10  1  0
  1 11  1  0
  1 12  1  0
  3 13  1  0
  4 14  1  0
  4 15  1  0
  5 16  1  0
  6 17  1  0
  7 18  1  0
  7 19  1  0
  7 20  1  0
  8 21  1  0
M  END
