
     RDKit          3D

 16 17  0  0  0  0  0  0  0  0999 V2000
    2.5851   -0.0313    0.3538 C   0  0  0  0  0  0  0  0  0  0  0  0
    1.3670    0.0573    1.0043 O   0  0  0  0  0  0  0  0  0  0  0  0
    0.2930    0.0711    0.1478 C   0  0  0  0  0  0  0  0  0  0  0  0
   -0.4061    1.2706    0.3815 O   0  0  0  0  0  0  0  0  0  0  0  0
   -1.6390    1.0160   -0.1953 C   0  0  0  0  0  0  0  0  0  0  0  0
   -2.0116   -0.3495    0.2707 C   0  0  0  0  0  0  0  0  0  0  0  0
   -1.5272   -0.8765    1.4446 O   0  0  0  0  0  0  0  0  0  0  0  0
   -0.6848   -1.0401    0.3758 C   0  0  0  0  0  0  0  0  0  0  0  0
    2.5847   -0.9767   -0.2289 H   0  0  0  0  0  0  0  0  0  0  0  0
    3.3906    0.0061    1.1157 H   0  0  0  0  0  0  0  0  0  0  0  0
    2.7635    0.8559   -0.3184 H   0  0  0  0  0  0  0  0  0  0  0  0
    0.6359    0.0070   -0.9024 H   0  0  0  0  0  0  0  0  0  0  0  0
   -2.3451    1.7982    0.1465 H   0  0  0  0  0  0  0  0  0  0  0  0
   -1.4939    1.0351   -1.2976 H   0  0  0  0  0  0  0  0  0  0  0  0
   -2.8934   -0.8566   -0.1393 H   0  0  0  0  0  0  0  0  0  0  0  0
   -0.6185   -1.9867   -0.1816 H   0  0  0  0  0  0  0  0  0  0  0  0
  1  2  1  0
  2  3  1  0
  3  4  1  0
  4  5  1  0
  5  6  1  0
  6  7  1  0
  7  8  1  0
  8  3  1  0
  8  6  1  0
  1  9  1  0
  1 10  1  0
  1 11  1  0
  3 12  1  0
  5 13  1  0
  5 14  1  0
  6 15  1  0
  8 16  1  0
M  END
