
     RDKit          3D

 23 24  0  0  0  0  0  0  0  0999 V2000
    2.9876   -0.4444   -0.2213 C   0  0  0  0  0  0  0  0  0  0  0  0
    1.6381   -0.6241   -0.4401 O   0  0  0  0  0  0  0  0  0  0  0  0
    0.8431    0.1914    0.3495 C   0  0  0  0  0  0  0  0  0  0  0  0
    0.0357   -0.6612    1.2708 C   0  0  0  0  0  0  0  0  0  0  0  0
   -1.4267   -0.7074    0.9058 C   0  0  0  0  0  0  0  0  0  0  0  0
   -2.0084    0.6865    0.8008 C   0  0  0  0  0  0  0  0  0  0  0  0
   -1.4186    0.7370   -0.5875 C   0  0  0  0  0  0  0  0  0  0  0  0
   -1.5008   -0.7767   -0.6135 C   0  0  0  0  0  0  0  0  0  0  0  0
    0.0173    1.1550   -0.4663 C   0  0  0  0  0  0  0  0  0  0  0  0
    3.2448   -0.6701    0.8478 H   0  0  0  0  0  0  0  0  0  0  0  0
    3.3355    0.5843   -0.4189 H   0  0  0  0  0  0  0  0  0  0  0  0
    3.5259   -1.2017   -0.8330 H   0  0  0  0  0  0  0  0  0  0  0  0
    1.5364    0.7996    0.9763 H   0  0  0  0  0  0  0  0  0  0  0  0
    0.3955   -1.7137    1.3136 H   0  0  0  0  0  0  0  0  0  0  0  0
    0.0744   -0.2928    2.3358 H   0  0  0  0  0  0  0  0  0  0  0  0
   -1.9991   -1.4434    1.4501 H   0  0  0  0  0  0  0  0  0  0  0  0
   -1.5478    1.4317    1.4700 H   0  0  0  0  0  0  0  0  0  0  0  0
   -3.1094    0.6756    0.7474 H   0  0  0  0  0  0  0  0  0  0  0  0
   -1.9670    1.2735   -1.3466 H   0  0  0  0  0  0  0  0  0  0  0  0
   -0.6169   -1.2880   -1.0496 H   0  0  0  0  0  0  0  0  0  0  0  0
   -2.4684   -1.1153   -1.0107 H   0  0  0  0  0  0  0  0  0  0  0  0
    0.4013    1.2263   -1.5258 H   0  0  0  0  0  0  0  0  0  0  0  0
    0.0276    2.1780   -0.0295 H   0  0  0  0  0  0  0  0  0  0  0  0
  1  2  1  0
  2  3  1  0
  3  4  1  0
  4  5  1  0
  5  6  1  0
  6  7  1  0
  7  8  1  0
  7  9  1  0
  9  3  1  0
  8  5  1  0
  1 10  1  0
  1 11  1  0
  1 12  1  0
  3 13  1  0
  4 14  1  0
  4 15  1  0
  5 16  1  0
  6 17  1  0
  6 18  1  0
  7 19  1  0
  8 20  1  0
  8 21  1  0
  9 22  1  0
  9 23  1  0
M  END
