
     RDKit          3D

 19 20  0  0  0  0  0  0  0  0999 V2000
    2.9989   -0.0773   -0.5880 C   0  0  0  0  0  0  0  0  0  0  0  0
    2.0327    0.6033    0.1508 O   0  0  0  0  0  0  0  0  0  0  0  0
    0.7974    0.0072    0.0381 C   0  0  0  0  0  0  0  0  0  0  0  0
   -0.0028   -0.0874    1.2845 C   0  0  0  0  0  0  0  0  0  0  0  0
   -0.9336   -1.0860    1.3764 O   0  0  0  0  0  0  0  0  0  0  0  0
   -1.7897   -1.0034    0.2980 C   0  0  0  0  0  0  0  0  0  0  0  0
   -1.7660    0.4307   -0.1753 C   0  0  0  0  0  0  0  0  0  0  0  0
   -2.0212    0.5709   -1.5199 O   0  0  0  0  0  0  0  0  0  0  0  0
   -0.3820    0.8705    0.2285 C   0  0  0  0  0  0  0  0  0  0  0  0
    3.9688    0.4799   -0.4353 H   0  0  0  0  0  0  0  0  0  0  0  0
    2.7548   -0.0746   -1.6705 H   0  0  0  0  0  0  0  0  0  0  0  0
    3.1902   -1.0940   -0.1871 H   0  0  0  0  0  0  0  0  0  0  0  0
    0.7763   -0.8910   -0.6040 H   0  0  0  0  0  0  0  0  0  0  0  0
    0.3700    0.3260    2.2396 H   0  0  0  0  0  0  0  0  0  0  0  0
   -1.5268   -1.6610   -0.5336 H   0  0  0  0  0  0  0  0  0  0  0  0
   -2.8114   -1.2600    0.6421 H   0  0  0  0  0  0  0  0  0  0  0  0
   -2.4915    1.0202    0.4537 H   0  0  0  0  0  0  0  0  0  0  0  0
   -2.9469    0.9614   -1.6043 H   0  0  0  0  0  0  0  0  0  0  0  0
   -0.2171    1.9647    0.3683 H   0  0  0  0  0  0  0  0  0  0  0  0
  1  2  1  0
  2  3  1  0
  3  4  1  0
  4  5  1  0
  5  6  1  0
  6  7  1  0
  7  8  1  0
  7  9  1  0
  9  3  1  0
  9  4  1  0
  1 10  1  0
  1 11  1  0
  1 12  1  0
  3 13  1  0
  4 14  1  0
  6 15  1  0
  6 16  1  0
  7 17  1  0
  8 18  1  0
  9 19  1  0
M  END
