
     RDKit          3D

 19 21  0  0  0  0  0  0  0  0999 V2000
    2.3966    0.2564   -0.6873 C   0  0  0  0  0  0  0  0  0  0  0  0
    1.5620   -0.7440   -0.2111 O   0  0  0  0  0  0  0  0  0  0  0  0
    0.3002   -0.3775   -0.0747 C   0  0  0  0  0  0  0  0  0  0  0  0
   -0.7228   -1.3625    0.4339 C   0  0  0  0  0  0  0  0  0  0  0  0
   -1.4897   -0.1065    0.8300 C   0  0  0  0  0  0  0  0  0  0  0  0
   -0.1004    0.4793    1.1341 C   0  0  0  0  0  0  0  0  0  0  0  0
   -1.7962    0.5247   -0.4817 C   0  0  0  0  0  0  0  0  0  0  0  0
   -1.0026    1.5853   -0.9325 O   0  0  0  0  0  0  0  0  0  0  0  0
   -0.4329    0.3391   -1.1783 C   0  0  0  0  0  0  0  0  0  0  0  0
    2.0135    0.5680   -1.6951 H   0  0  0  0  0  0  0  0  0  0  0  0
    3.4372   -0.1454   -0.8329 H   0  0  0  0  0  0  0  0  0  0  0  0
    2.4557    1.1351   -0.0278 H   0  0  0  0  0  0  0  0  0  0  0  0
   -0.3613   -1.9108    1.3305 H   0  0  0  0  0  0  0  0  0  0  0  0
   -1.2044   -1.9775   -0.3326 H   0  0  0  0  0  0  0  0  0  0  0  0
   -2.1900   -0.1560    1.6169 H   0  0  0  0  0  0  0  0  0  0  0  0
   -0.0500    1.5341    0.8569 H   0  0  0  0  0  0  0  0  0  0  0  0
    0.3348    0.1588    2.0780 H   0  0  0  0  0  0  0  0  0  0  0  0
   -2.7000    0.2749   -1.0515 H   0  0  0  0  0  0  0  0  0  0  0  0
   -0.4497   -0.0755   -2.2013 H   0  0  0  0  0  0  0  0  0  0  0  0
  1  2  1  0
  2  3  1  0
  3  4  1  0
  4  5  1  0
  5  6  1  0
  5  7  1  0
  7  8  1  0
  8  9  1  0
  6  3  1  0
  9  7  1  0
  9  3  1  0
  1 10  1  0
  1 11  1  0
  1 12  1  0
  4 13  1  0
  4 14  1  0
  5 15  1  0
  6 16  1  0
  6 17  1  0
  7 18  1  0
  9 19  1  0
M  END
