
     RDKit          3D

 20 21  0  0  0  0  0  0  0  0999 V2000
   -3.1361   -0.6573    0.1621 C   0  0  0  0  0  0  0  0  0  0  0  0
   -1.8442   -0.8906   -0.2084 O   0  0  0  0  0  0  0  0  0  0  0  0
   -0.9711    0.0891    0.2619 C   0  0  0  0  0  0  0  0  0  0  0  0
    0.0624    0.5711   -0.5804 C   0  0  0  0  0  0  0  0  0  0  0  0
    1.2952    1.3598   -0.3870 C   0  0  0  0  0  0  0  0  0  0  0  0
    2.3148    0.2125   -0.2170 C   0  0  0  0  0  0  0  0  0  0  0  0
    1.4484   -1.0321    0.0849 C   0  0  0  0  0  0  0  0  0  0  0  0
    0.3028   -0.3328    0.6996 C   0  0  0  0  0  0  0  0  0  0  0  0
   -3.3005   -0.6225    1.2546 H   0  0  0  0  0  0  0  0  0  0  0  0
   -3.4531    0.3400   -0.2532 H   0  0  0  0  0  0  0  0  0  0  0  0
   -3.7997   -1.3967   -0.3148 H   0  0  0  0  0  0  0  0  0  0  0  0
   -1.5254    0.8692    0.8518 H   0  0  0  0  0  0  0  0  0  0  0  0
    0.1431    0.0279   -1.5735 H   0  0  0  0  0  0  0  0  0  0  0  0
    1.2336    1.9835    0.5002 H   0  0  0  0  0  0  0  0  0  0  0  0
    1.5442    1.9363   -1.3226 H   0  0  0  0  0  0  0  0  0  0  0  0
    2.9183    0.0746   -1.1079 H   0  0  0  0  0  0  0  0  0  0  0  0
    2.8785    0.4554    0.7040 H   0  0  0  0  0  0  0  0  0  0  0  0
    1.9718   -1.7021    0.7809 H   0  0  0  0  0  0  0  0  0  0  0  0
    1.2200   -1.5114   -0.8997 H   0  0  0  0  0  0  0  0  0  0  0  0
    0.6968    0.2262    1.6088 H   0  0  0  0  0  0  0  0  0  0  0  0
  1  2  1  0
  2  3  1  0
  3  4  1  0
  4  5  1  0
  5  6  1  0
  6  7  1  0
  7  8  1  0
  8  3  1  0
  8  4  1  0
  1  9  1  0
  1 10  1  0
  1 11  1  0
  3 12  1  0
  4 13  1  0
  5 14  1  0
  5 15  1  0
  6 16  1  0
  6 17  1  0
  7 18  1  0
  7 19  1  0
  8 20  1  0
M  END
