
     RDKit          3D

 21 22  0  0  0  0  0  0  0  0999 V2000
    3.1413    0.2427    0.2200 C   0  0  0  0  0  0  0  0  0  0  0  0
    2.1361    0.3966   -0.7321 O   0  0  0  0  0  0  0  0  0  0  0  0
    0.9221    0.2483   -0.0673 C   0  0  0  0  0  0  0  0  0  0  0  0
    0.1932   -0.8952   -0.7269 C   0  0  0  0  0  0  0  0  0  0  0  0
   -1.2184   -0.4189   -0.7836 C   0  0  0  0  0  0  0  0  0  0  0  0
   -2.0122   -0.7641    0.4407 C   0  0  0  0  0  0  0  0  0  0  0  0
   -1.9111    0.6822    0.8729 C   0  0  0  0  0  0  0  0  0  0  0  0
   -1.1564    1.0176   -0.3694 C   0  0  0  0  0  0  0  0  0  0  0  0
    0.1539    1.3871   -0.2455 O   0  0  0  0  0  0  0  0  0  0  0  0
    2.9908    1.0304    0.9817 H   0  0  0  0  0  0  0  0  0  0  0  0
    4.1538    0.2708   -0.2287 H   0  0  0  0  0  0  0  0  0  0  0  0
    2.9884   -0.7751    0.6677 H   0  0  0  0  0  0  0  0  0  0  0  0
    1.0649    0.0527    1.0118 H   0  0  0  0  0  0  0  0  0  0  0  0
    0.2293   -1.7786   -0.0556 H   0  0  0  0  0  0  0  0  0  0  0  0
    0.5752   -1.1139   -1.7464 H   0  0  0  0  0  0  0  0  0  0  0  0
   -1.7571   -0.6344   -1.7264 H   0  0  0  0  0  0  0  0  0  0  0  0
   -3.0278   -1.1326    0.2295 H   0  0  0  0  0  0  0  0  0  0  0  0
   -1.4802   -1.4814    1.1010 H   0  0  0  0  0  0  0  0  0  0  0  0
   -1.3028    0.8067    1.7729 H   0  0  0  0  0  0  0  0  0  0  0  0
   -2.9382    1.1347    0.9221 H   0  0  0  0  0  0  0  0  0  0  0  0
   -1.7446    1.7243   -1.0147 H   0  0  0  0  0  0  0  0  0  0  0  0
  1  2  1  0
  2  3  1  0
  3  4  1  0
  4  5  1  0
  5  6  1  0
  6  7  1  0
  7  8  1  0
  8  9  1  0
  9  3  1  0
  8  5  1  0
  1 10  1  0
  1 11  1  0
  1 12  1  0
  3 13  1  0
  4 14  1  0
  4 15  1  0
  5 16  1  0
  6 17  1  0
  6 18  1  0
  7 19  1  0
  7 20  1  0
  8 21  1  0
M  END
