
     RDKit          3D

 23 23  0  0  0  0  0  0  0  0999 V2000
    3.2514   -0.1333    0.2641 C   0  0  0  0  0  0  0  0  0  0  0  0
    2.0590    0.2952   -0.2777 O   0  0  0  0  0  0  0  0  0  0  0  0
    0.9483   -0.1283    0.3964 C   0  0  0  0  0  0  0  0  0  0  0  0
    0.0247    0.9914    0.8058 C   0  0  0  0  0  0  0  0  0  0  0  0
   -1.3923    0.4806    0.5902 C   0  0  0  0  0  0  0  0  0  0  0  0
   -2.0926    1.3411   -0.4151 C   0  0  0  0  0  0  0  0  0  0  0  0
   -1.2263   -0.9464    0.1423 C   0  0  0  0  0  0  0  0  0  0  0  0
   -2.2368   -1.4069   -0.6582 O   0  0  0  0  0  0  0  0  0  0  0  0
    0.1152   -0.9751   -0.5460 C   0  0  0  0  0  0  0  0  0  0  0  0
    3.4074    0.2121    1.3180 H   0  0  0  0  0  0  0  0  0  0  0  0
    4.0686    0.2845   -0.3537 H   0  0  0  0  0  0  0  0  0  0  0  0
    3.2895   -1.2216    0.2535 H   0  0  0  0  0  0  0  0  0  0  0  0
    1.1587   -0.7547    1.2813 H   0  0  0  0  0  0  0  0  0  0  0  0
    0.2281    1.8428    0.1261 H   0  0  0  0  0  0  0  0  0  0  0  0
    0.1684    1.2848    1.8582 H   0  0  0  0  0  0  0  0  0  0  0  0
   -1.9546    0.5470    1.5546 H   0  0  0  0  0  0  0  0  0  0  0  0
   -1.3801    2.0834   -0.8741 H   0  0  0  0  0  0  0  0  0  0  0  0
   -2.9019    1.9752    0.0451 H   0  0  0  0  0  0  0  0  0  0  0  0
   -2.5270    0.7795   -1.2414 H   0  0  0  0  0  0  0  0  0  0  0  0
   -1.1233   -1.5740    1.0634 H   0  0  0  0  0  0  0  0  0  0  0  0
   -2.4550   -2.3321   -0.3711 H   0  0  0  0  0  0  0  0  0  0  0  0
    0.1037   -0.6147   -1.5700 H   0  0  0  0  0  0  0  0  0  0  0  0
    0.4668   -2.0306   -0.5284 H   0  0  0  0  0  0  0  0  0  0  0  0
  1  2  1  0
  2  3  1  0
  3  4  1  0
  4  5  1  0
  5  6  1  0
  5  7  1  0
  7  8  1  0
  7  9  1  0
  9  3  1  0
  1 10  1  0
  1 11  1  0
  1 12  1  0
  3 13  1  0
  4 14  1  0
  4 15  1  0
  5 16  1  0
  6 17  1  0
  6 18  1  0
  6 19  1  0
  7 20  1  0
  8 21  1  0
  9 22  1  0
  9 23  1  0
M  END
