
     RDKit          3D

 21 21  0  0  0  0  0  0  0  0999 V2000
    2.2476    1.3710   -0.2440 C   0  0  0  0  0  0  0  0  0  0  0  0
    2.1319   -0.0010   -0.2877 O   0  0  0  0  0  0  0  0  0  0  0  0
    0.8927   -0.4790    0.0550 C   0  0  0  0  0  0  0  0  0  0  0  0
    0.9267   -1.9968   -0.1323 C   0  0  0  0  0  0  0  0  0  0  0  0
   -0.2054    0.0896   -0.8000 C   0  0  0  0  0  0  0  0  0  0  0  0
   -1.2920    0.2472   -0.0461 C   0  0  0  0  0  0  0  0  0  0  0  0
   -2.5939    0.7836   -0.5155 C   0  0  0  0  0  0  0  0  0  0  0  0
   -0.9044   -0.2218    1.3153 C   0  0  0  0  0  0  0  0  0  0  0  0
    0.4735   -0.1603    1.3218 O   0  0  0  0  0  0  0  0  0  0  0  0
    1.5482    1.9005   -0.9255 H   0  0  0  0  0  0  0  0  0  0  0  0
    3.2744    1.6171   -0.6337 H   0  0  0  0  0  0  0  0  0  0  0  0
    2.1390    1.7884    0.7865 H   0  0  0  0  0  0  0  0  0  0  0  0
    1.8966   -2.3253    0.3330 H   0  0  0  0  0  0  0  0  0  0  0  0
    0.0837   -2.4395    0.4051 H   0  0  0  0  0  0  0  0  0  0  0  0
    0.9376   -2.2032   -1.2214 H   0  0  0  0  0  0  0  0  0  0  0  0
   -0.0510    0.3066   -1.8523 H   0  0  0  0  0  0  0  0  0  0  0  0
   -3.3537    0.5134    0.2707 H   0  0  0  0  0  0  0  0  0  0  0  0
   -2.5747    1.8699   -0.6884 H   0  0  0  0  0  0  0  0  0  0  0  0
   -2.9145    0.2086   -1.4257 H   0  0  0  0  0  0  0  0  0  0  0  0
   -1.3701    0.3921    2.1142 H   0  0  0  0  0  0  0  0  0  0  0  0
   -1.2922   -1.2611    1.4492 H   0  0  0  0  0  0  0  0  0  0  0  0
  1  2  1  0
  2  3  1  0
  3  4  1  0
  3  5  1  0
  5  6  2  0
  6  7  1  0
  6  8  1  0
  8  9  1  0
  9  3  1  0
  1 10  1  0
  1 11  1  0
  1 12  1  0
  4 13  1  0
  4 14  1  0
  4 15  1  0
  5 16  1  0
  7 17  1  0
  7 18  1  0
  7 19  1  0
  8 20  1  0
  8 21  1  0
M  END
