
     RDKit          3D

 19 20  0  0  0  0  0  0  0  0999 V2000
    2.8618    0.2919   -0.4997 C   0  0  0  0  0  0  0  0  0  0  0  0
    1.8411    0.4610    0.4312 O   0  0  0  0  0  0  0  0  0  0  0  0
    0.6251   -0.0384   -0.0413 C   0  0  0  0  0  0  0  0  0  0  0  0
    0.2457   -1.0862    0.7474 O   0  0  0  0  0  0  0  0  0  0  0  0
   -1.0474   -1.0434    1.2082 C   0  0  0  0  0  0  0  0  0  0  0  0
   -1.9501   -0.7547    0.0127 C   0  0  0  0  0  0  0  0  0  0  0  0
   -1.7468    0.7467   -0.2403 C   0  0  0  0  0  0  0  0  0  0  0  0
   -1.1411    1.0755   -1.4232 O   0  0  0  0  0  0  0  0  0  0  0  0
   -0.3696    1.0790   -0.1312 C   0  0  0  0  0  0  0  0  0  0  0  0
    2.5969    0.8374   -1.4456 H   0  0  0  0  0  0  0  0  0  0  0  0
    2.9789   -0.8011   -0.6756 H   0  0  0  0  0  0  0  0  0  0  0  0
    3.7760    0.7456   -0.0647 H   0  0  0  0  0  0  0  0  0  0  0  0
    0.8123   -0.4514   -1.0745 H   0  0  0  0  0  0  0  0  0  0  0  0
   -1.3136   -2.0011    1.6705 H   0  0  0  0  0  0  0  0  0  0  0  0
   -1.1362   -0.2267    1.9818 H   0  0  0  0  0  0  0  0  0  0  0  0
   -1.5382   -1.3363   -0.8334 H   0  0  0  0  0  0  0  0  0  0  0  0
   -2.9951   -0.9965    0.1974 H   0  0  0  0  0  0  0  0  0  0  0  0
   -2.5267    1.3908    0.2048 H   0  0  0  0  0  0  0  0  0  0  0  0
    0.0270    2.1078   -0.0245 H   0  0  0  0  0  0  0  0  0  0  0  0
  1  2  1  0
  2  3  1  0
  3  4  1  0
  4  5  1  0
  5  6  1  0
  6  7  1  0
  7  8  1  0
  8  9  1  0
  9  3  1  0
  9  7  1  0
  1 10  1  0
  1 11  1  0
  1 12  1  0
  3 13  1  0
  5 14  1  0
  5 15  1  0
  6 16  1  0
  6 17  1  0
  7 18  1  0
  9 19  1  0
M  END
