
     RDKit          3D

 20 21  0  0  0  0  0  0  0  0999 V2000
    2.7840   -0.5593   -0.9662 C   0  0  0  0  0  0  0  0  0  0  0  0
    1.7138   -0.8807   -0.1362 O   0  0  0  0  0  0  0  0  0  0  0  0
    0.9217    0.2244    0.0193 C   0  0  0  0  0  0  0  0  0  0  0  0
    0.4385    0.4751    1.4871 C   0  0  0  0  0  0  0  0  0  0  0  0
   -0.4837    0.1643    0.4321 C   0  0  0  0  0  0  0  0  0  0  0  0
   -1.4717    1.0692   -0.1913 C   0  0  0  0  0  0  0  0  0  0  0  0
   -2.4310   -0.1262   -0.2479 C   0  0  0  0  0  0  0  0  0  0  0  0
   -1.3405   -1.0363    0.3268 C   0  0  0  0  0  0  0  0  0  0  0  0
    2.3592   -0.2345   -1.9527 H   0  0  0  0  0  0  0  0  0  0  0  0
    3.2554    0.3672   -0.5400 H   0  0  0  0  0  0  0  0  0  0  0  0
    3.4923   -1.3852   -1.0569 H   0  0  0  0  0  0  0  0  0  0  0  0
    1.2309    1.1551   -0.5067 H   0  0  0  0  0  0  0  0  0  0  0  0
    0.7000   -0.3172    2.2169 H   0  0  0  0  0  0  0  0  0  0  0  0
    0.6201    1.4922    1.8823 H   0  0  0  0  0  0  0  0  0  0  0  0
   -1.8441    1.9262    0.3811 H   0  0  0  0  0  0  0  0  0  0  0  0
   -1.2201    1.3758   -1.2205 H   0  0  0  0  0  0  0  0  0  0  0  0
   -2.7147   -0.4397   -1.2573 H   0  0  0  0  0  0  0  0  0  0  0  0
   -3.3047   -0.0049    0.3931 H   0  0  0  0  0  0  0  0  0  0  0  0
   -1.0235   -1.8367   -0.3758 H   0  0  0  0  0  0  0  0  0  0  0  0
   -1.6819   -1.4287    1.3130 H   0  0  0  0  0  0  0  0  0  0  0  0
  1  2  1  0
  2  3  1  0
  3  4  1  0
  4  5  1  0
  5  6  1  0
  6  7  1  0
  7  8  1  0
  5  3  1  0
  8  5  1  0
  1  9  1  0
  1 10  1  0
  1 11  1  0
  3 12  1  0
  4 13  1  0
  4 14  1  0
  6 15  1  0
  6 16  1  0
  7 17  1  0
  7 18  1  0
  8 19  1  0
  8 20  1  0
M  END
