
     RDKit          3D

 21 22  0  0  0  0  0  0  0  0999 V2000
   -3.2720    0.0914    0.5381 C   0  0  0  0  0  0  0  0  0  0  0  0
   -1.9655    0.1856    1.0439 O   0  0  0  0  0  0  0  0  0  0  0  0
   -1.0336   -0.2161    0.0993 C   0  0  0  0  0  0  0  0  0  0  0  0
   -0.3382   -1.4221    0.5973 C   0  0  0  0  0  0  0  0  0  0  0  0
    0.9649   -1.2433    0.6537 C   0  0  0  0  0  0  0  0  0  0  0  0
    1.2785    0.1051    0.1980 C   0  0  0  0  0  0  0  0  0  0  0  0
    2.4992    0.8006    0.6464 C   0  0  0  0  0  0  0  0  0  0  0  0
    2.4965    0.2855   -0.7433 C   0  0  0  0  0  0  0  0  0  0  0  0
    0.0262    0.8052   -0.1678 C   0  0  0  0  0  0  0  0  0  0  0  0
   -3.4900   -0.9581    0.2539 H   0  0  0  0  0  0  0  0  0  0  0  0
   -3.9506    0.3473    1.3724 H   0  0  0  0  0  0  0  0  0  0  0  0
   -3.4106    0.7538   -0.3294 H   0  0  0  0  0  0  0  0  0  0  0  0
   -1.5807   -0.5089   -0.8183 H   0  0  0  0  0  0  0  0  0  0  0  0
   -0.8642   -2.3314    0.8754 H   0  0  0  0  0  0  0  0  0  0  0  0
    1.6615   -1.9876    0.9859 H   0  0  0  0  0  0  0  0  0  0  0  0
    2.5529    1.8761    0.8062 H   0  0  0  0  0  0  0  0  0  0  0  0
    3.1248    0.2155    1.3800 H   0  0  0  0  0  0  0  0  0  0  0  0
    2.9869   -0.6493   -1.0204 H   0  0  0  0  0  0  0  0  0  0  0  0
    2.3802    1.0581   -1.5371 H   0  0  0  0  0  0  0  0  0  0  0  0
   -0.1334    1.7671    0.3653 H   0  0  0  0  0  0  0  0  0  0  0  0
    0.0671    1.0253   -1.2733 H   0  0  0  0  0  0  0  0  0  0  0  0
  1  2  1  0
  2  3  1  0
  3  4  1  0
  4  5  2  0
  5  6  1  0
  6  7  1  0
  7  8  1  0
  6  9  1  0
  9  3  1  0
  8  6  1  0
  1 10  1  0
  1 11  1  0
  1 12  1  0
  3 13  1  0
  4 14  1  0
  5 15  1  0
  7 16  1  0
  7 17  1  0
  8 18  1  0
  8 19  1  0
  9 20  1  0
  9 21  1  0
M  END
