
     RDKit          3D

 20 21  0  0  0  0  0  0  0  0999 V2000
    2.2728    0.6340    0.3223 C   0  0  0  0  0  0  0  0  0  0  0  0
    1.1827    0.7888   -0.5177 O   0  0  0  0  0  0  0  0  0  0  0  0
    0.1718   -0.1077   -0.2851 C   0  0  0  0  0  0  0  0  0  0  0  0
    0.4655   -1.5562   -0.4232 C   0  0  0  0  0  0  0  0  0  0  0  0
   -1.1024    0.3867   -0.9292 C   0  0  0  0  0  0  0  0  0  0  0  0
   -1.0794    1.4494    0.1316 C   0  0  0  0  0  0  0  0  0  0  0  0
   -0.7358    0.1812    0.8741 C   0  0  0  0  0  0  0  0  0  0  0  0
   -1.8173   -0.4725    0.0667 C   0  0  0  0  0  0  0  0  0  0  0  0
    3.0371    1.3978    0.0640 H   0  0  0  0  0  0  0  0  0  0  0  0
    1.9928    0.6722    1.3976 H   0  0  0  0  0  0  0  0  0  0  0  0
    2.7374   -0.3459    0.0879 H   0  0  0  0  0  0  0  0  0  0  0  0
    1.5200   -1.7887   -0.6770 H   0  0  0  0  0  0  0  0  0  0  0  0
   -0.1690   -1.9699   -1.2466 H   0  0  0  0  0  0  0  0  0  0  0  0
    0.2513   -2.1537    0.5056 H   0  0  0  0  0  0  0  0  0  0  0  0
   -1.2809    0.4925   -1.9037 H   0  0  0  0  0  0  0  0  0  0  0  0
   -2.0308    1.8736    0.4347 H   0  0  0  0  0  0  0  0  0  0  0  0
   -0.2406    2.1534   -0.0085 H   0  0  0  0  0  0  0  0  0  0  0  0
   -0.5446    0.0847    1.8475 H   0  0  0  0  0  0  0  0  0  0  0  0
   -2.8562   -0.1662    0.3205 H   0  0  0  0  0  0  0  0  0  0  0  0
   -1.7743   -1.5535   -0.0613 H   0  0  0  0  0  0  0  0  0  0  0  0
  1  2  1  0
  2  3  1  0
  3  4  1  0
  3  5  1  0
  5  6  1  0
  6  7  1  0
  7  8  1  0
  7  3  1  0
  8  5  1  0
  1  9  1  0
  1 10  1  0
  1 11  1  0
  4 12  1  0
  4 13  1  0
  4 14  1  0
  5 15  1  0
  6 16  1  0
  6 17  1  0
  7 18  1  0
  8 19  1  0
  8 20  1  0
M  END
