
     RDKit          3D

 21 21  0  0  0  0  0  0  0  0999 V2000
    2.0629   -0.5956   -1.1926 C   0  0  0  0  0  0  0  0  0  0  0  0
    0.7535   -0.7471   -0.7903 O   0  0  0  0  0  0  0  0  0  0  0  0
    0.3649    0.1946    0.1248 C   0  0  0  0  0  0  0  0  0  0  0  0
    0.4303    1.6293   -0.2869 C   0  0  0  0  0  0  0  0  0  0  0  0
    0.6842   -0.0951    1.5655 C   0  0  0  0  0  0  0  0  0  0  0  0
   -0.4027   -1.0006    1.5551 O   0  0  0  0  0  0  0  0  0  0  0  0
   -1.0265   -0.1163    0.6786 C   0  0  0  0  0  0  0  0  0  0  0  0
   -1.9127   -0.7583   -0.3539 C   0  0  0  0  0  0  0  0  0  0  0  0
   -2.9470   -1.4835    0.2038 O   0  0  0  0  0  0  0  0  0  0  0  0
    2.7959   -0.6692   -0.3764 H   0  0  0  0  0  0  0  0  0  0  0  0
    2.2901   -1.4386   -1.9053 H   0  0  0  0  0  0  0  0  0  0  0  0
    2.2070    0.3267   -1.7796 H   0  0  0  0  0  0  0  0  0  0  0  0
   -0.2461    2.2161    0.3593 H   0  0  0  0  0  0  0  0  0  0  0  0
    0.0629    1.7014   -1.3303 H   0  0  0  0  0  0  0  0  0  0  0  0
    1.4443    2.0557   -0.2695 H   0  0  0  0  0  0  0  0  0  0  0  0
    0.4056    0.7882    2.1899 H   0  0  0  0  0  0  0  0  0  0  0  0
    1.6519   -0.5462    1.7739 H   0  0  0  0  0  0  0  0  0  0  0  0
   -1.4683    0.7131    1.2414 H   0  0  0  0  0  0  0  0  0  0  0  0
   -1.2953   -1.4048   -1.0102 H   0  0  0  0  0  0  0  0  0  0  0  0
   -2.2813    0.0683   -1.0124 H   0  0  0  0  0  0  0  0  0  0  0  0
   -3.5738   -0.8382    0.6151 H   0  0  0  0  0  0  0  0  0  0  0  0
  1  2  1  0
  2  3  1  0
  3  4  1  0
  3  5  1  0
  5  6  1  0
  6  7  1  0
  7  8  1  0
  8  9  1  0
  7  3  1  0
  1 10  1  0
  1 11  1  0
  1 12  1  0
  4 13  1  0
  4 14  1  0
  4 15  1  0
  5 16  1  0
  5 17  1  0
  7 18  1  0
  8 19  1  0
  8 20  1  0
  9 21  1  0
M  END
