
     RDKit          3D

 23 23  0  0  0  0  0  0  0  0999 V2000
   -1.7090   -1.1982    1.2009 C   0  0  0  0  0  0  0  0  0  0  0  0
   -0.4938   -0.5403    1.2563 O   0  0  0  0  0  0  0  0  0  0  0  0
    0.0346   -0.2355    0.0249 C   0  0  0  0  0  0  0  0  0  0  0  0
    0.3230   -1.3671   -0.9010 C   0  0  0  0  0  0  0  0  0  0  0  0
   -0.5664    0.9417   -0.6908 C   0  0  0  0  0  0  0  0  0  0  0  0
   -1.4087    1.8597    0.1538 C   0  0  0  0  0  0  0  0  0  0  0  0
    0.7297    1.4235   -0.8766 O   0  0  0  0  0  0  0  0  0  0  0  0
    1.2585    0.6495    0.1765 C   0  0  0  0  0  0  0  0  0  0  0  0
    2.5543   -0.0442   -0.1708 C   0  0  0  0  0  0  0  0  0  0  0  0
   -1.6484   -2.1659    0.6606 H   0  0  0  0  0  0  0  0  0  0  0  0
   -2.4945   -0.5929    0.6754 H   0  0  0  0  0  0  0  0  0  0  0  0
   -2.0169   -1.4306    2.2396 H   0  0  0  0  0  0  0  0  0  0  0  0
   -0.6071   -1.6273   -1.4392 H   0  0  0  0  0  0  0  0  0  0  0  0
    1.0593   -1.0268   -1.6715 H   0  0  0  0  0  0  0  0  0  0  0  0
    0.7346   -2.2572   -0.4119 H   0  0  0  0  0  0  0  0  0  0  0  0
   -1.0378    0.7384   -1.6620 H   0  0  0  0  0  0  0  0  0  0  0  0
   -1.0913    2.9114   -0.0676 H   0  0  0  0  0  0  0  0  0  0  0  0
   -2.4840    1.7588   -0.0600 H   0  0  0  0  0  0  0  0  0  0  0  0
   -1.1695    1.7144    1.2434 H   0  0  0  0  0  0  0  0  0  0  0  0
    1.3482    1.1761    1.1298 H   0  0  0  0  0  0  0  0  0  0  0  0
    3.3930    0.2977    0.4525 H   0  0  0  0  0  0  0  0  0  0  0  0
    2.7984    0.1627   -1.2244 H   0  0  0  0  0  0  0  0  0  0  0  0
    2.4937   -1.1480   -0.0379 H   0  0  0  0  0  0  0  0  0  0  0  0
  1  2  1  0
  2  3  1  0
  3  4  1  0
  3  5  1  0
  5  6  1  0
  5  7  1  0
  7  8  1  0
  8  9  1  0
  8  3  1  0
  1 10  1  0
  1 11  1  0
  1 12  1  0
  4 13  1  0
  4 14  1  0
  4 15  1  0
  5 16  1  0
  6 17  1  0
  6 18  1  0
  6 19  1  0
  8 20  1  0
  9 21  1  0
  9 22  1  0
  9 23  1  0
M  END
