
     RDKit          3D

 22 22  0  0  0  0  0  0  0  0999 V2000
    2.5170   -1.0003   -0.0360 C   0  0  0  0  0  0  0  0  0  0  0  0
    1.2131   -0.9056    0.4008 O   0  0  0  0  0  0  0  0  0  0  0  0
    0.4590    0.0482   -0.2290 C   0  0  0  0  0  0  0  0  0  0  0  0
   -0.8611   -0.5569   -0.6750 C   0  0  0  0  0  0  0  0  0  0  0  0
   -1.0981   -1.9698   -0.1626 C   0  0  0  0  0  0  0  0  0  0  0  0
   -1.6513    0.4347    0.1356 C   0  0  0  0  0  0  0  0  0  0  0  0
   -0.3347    0.9774    0.6604 C   0  0  0  0  0  0  0  0  0  0  0  0
   -0.2255    2.4449    0.3061 C   0  0  0  0  0  0  0  0  0  0  0  0
    3.0025   -1.8083    0.5599 H   0  0  0  0  0  0  0  0  0  0  0  0
    2.6358   -1.2310   -1.0962 H   0  0  0  0  0  0  0  0  0  0  0  0
    3.0635   -0.0613    0.2700 H   0  0  0  0  0  0  0  0  0  0  0  0
    0.9650    0.6422   -1.0177 H   0  0  0  0  0  0  0  0  0  0  0  0
   -0.9935   -0.5151   -1.7610 H   0  0  0  0  0  0  0  0  0  0  0  0
   -2.1310   -2.2472   -0.3804 H   0  0  0  0  0  0  0  0  0  0  0  0
   -0.3681   -2.6789   -0.6099 H   0  0  0  0  0  0  0  0  0  0  0  0
   -0.8749   -1.9301    0.9336 H   0  0  0  0  0  0  0  0  0  0  0  0
   -2.2226    1.1238   -0.5082 H   0  0  0  0  0  0  0  0  0  0  0  0
   -2.3027   -0.0132    0.8916 H   0  0  0  0  0  0  0  0  0  0  0  0
   -0.1860    0.8356    1.7499 H   0  0  0  0  0  0  0  0  0  0  0  0
    0.5297    2.9378    0.9199 H   0  0  0  0  0  0  0  0  0  0  0  0
   -1.2184    2.9556    0.4125 H   0  0  0  0  0  0  0  0  0  0  0  0
    0.0823    2.5176   -0.7645 H   0  0  0  0  0  0  0  0  0  0  0  0
  1  2  1  0
  2  3  1  0
  3  4  1  0
  4  5  1  0
  4  6  1  0
  6  7  1  0
  7  8  1  0
  7  3  1  0
  1  9  1  0
  1 10  1  0
  1 11  1  0
  3 12  1  0
  4 13  1  0
  5 14  1  0
  5 15  1  0
  5 16  1  0
  6 17  1  0
  6 18  1  0
  7 19  1  0
  8 20  1  0
  8 21  1  0
  8 22  1  0
M  END
