
     RDKit          3D

 19 20  0  0  0  0  0  0  0  0999 V2000
    2.7873   -0.5361   -0.2358 C   0  0  0  0  0  0  0  0  0  0  0  0
    1.4949   -0.2010   -0.6898 O   0  0  0  0  0  0  0  0  0  0  0  0
    0.6524    0.0932    0.3804 C   0  0  0  0  0  0  0  0  0  0  0  0
   -0.2210    1.3054    0.1275 C   0  0  0  0  0  0  0  0  0  0  0  0
   -0.1933    1.9248   -1.1076 O   0  0  0  0  0  0  0  0  0  0  0  0
   -0.7623   -0.0335    0.1774 C   0  0  0  0  0  0  0  0  0  0  0  0
   -1.8262   -0.3891    1.1143 C   0  0  0  0  0  0  0  0  0  0  0  0
   -2.5924   -0.7983   -0.0060 O   0  0  0  0  0  0  0  0  0  0  0  0
   -1.4760   -0.7501   -0.8761 C   0  0  0  0  0  0  0  0  0  0  0  0
    3.4439   -0.7658   -1.0782 H   0  0  0  0  0  0  0  0  0  0  0  0
    2.6455   -1.3863    0.4699 H   0  0  0  0  0  0  0  0  0  0  0  0
    3.2238    0.3444    0.2908 H   0  0  0  0  0  0  0  0  0  0  0  0
    1.1487    0.0098    1.3702 H   0  0  0  0  0  0  0  0  0  0  0  0
   -0.3944    1.9748    0.9802 H   0  0  0  0  0  0  0  0  0  0  0  0
   -1.1445    1.9436   -1.4330 H   0  0  0  0  0  0  0  0  0  0  0  0
   -1.6509   -1.2326    1.8147 H   0  0  0  0  0  0  0  0  0  0  0  0
   -2.3304    0.5009    1.5605 H   0  0  0  0  0  0  0  0  0  0  0  0
   -1.1508   -1.8128   -1.0517 H   0  0  0  0  0  0  0  0  0  0  0  0
   -1.6544   -0.1914   -1.8075 H   0  0  0  0  0  0  0  0  0  0  0  0
  1  2  1  0
  2  3  1  0
  3  4  1  0
  4  5  1  0
  4  6  1  0
  6  7  1  0
  7  8  1  0
  8  9  1  0
  6  3  1  0
  9  6  1  0
  1 10  1  0
  1 11  1  0
  1 12  1  0
  3 13  1  0
  4 14  1  0
  5 15  1  0
  7 16  1  0
  7 17  1  0
  9 18  1  0
  9 19  1  0
M  END
