
     RDKit          3D

 19 19  0  0  0  0  0  0  0  0999 V2000
   -2.2609   -1.0679    0.4706 C   0  0  0  0  0  0  0  0  0  0  0  0
   -0.9809   -0.6945    0.8819 O   0  0  0  0  0  0  0  0  0  0  0  0
   -0.4902    0.2082   -0.0440 C   0  0  0  0  0  0  0  0  0  0  0  0
   -0.0854    1.5210    0.5466 C   0  0  0  0  0  0  0  0  0  0  0  0
    1.0751    1.9445   -0.1595 O   0  0  0  0  0  0  0  0  0  0  0  0
    1.3100    1.0436   -1.2161 C   0  0  0  0  0  0  0  0  0  0  0  0
    1.8271    1.2472   -2.3271 O   0  0  0  0  0  0  0  0  0  0  0  0
    0.7856   -0.2500   -0.6934 C   0  0  0  0  0  0  0  0  0  0  0  0
    1.8014   -0.7588    0.2966 C   0  0  0  0  0  0  0  0  0  0  0  0
   -2.2345   -1.5468   -0.5471 H   0  0  0  0  0  0  0  0  0  0  0  0
   -2.6812   -1.8649    1.1437 H   0  0  0  0  0  0  0  0  0  0  0  0
   -2.8882   -0.1655    0.4664 H   0  0  0  0  0  0  0  0  0  0  0  0
   -1.2160    0.4104   -0.8678 H   0  0  0  0  0  0  0  0  0  0  0  0
   -0.9138    2.2584    0.3879 H   0  0  0  0  0  0  0  0  0  0  0  0
    0.0762    1.4938    1.6429 H   0  0  0  0  0  0  0  0  0  0  0  0
    0.6231   -0.9927   -1.4948 H   0  0  0  0  0  0  0  0  0  0  0  0
    1.3527   -1.4473    1.0358 H   0  0  0  0  0  0  0  0  0  0  0  0
    2.3751    0.0458    0.7691 H   0  0  0  0  0  0  0  0  0  0  0  0
    2.5247   -1.3847   -0.2918 H   0  0  0  0  0  0  0  0  0  0  0  0
  1  2  1  0
  2  3  1  0
  3  4  1  0
  4  5  1  0
  5  6  1  0
  6  7  2  0
  6  8  1  0
  8  9  1  0
  8  3  1  0
  1 10  1  0
  1 11  1  0
  1 12  1  0
  3 13  1  0
  4 14  1  0
  4 15  1  0
  8 16  1  0
  9 17  1  0
  9 18  1  0
  9 19  1  0
M  END
