
     RDKit          3D

 19 19  0  0  0  0  0  0  0  0999 V2000
   -2.6917    0.7701   -0.2134 C   0  0  0  0  0  0  0  0  0  0  0  0
   -1.6388    0.3159    0.5655 O   0  0  0  0  0  0  0  0  0  0  0  0
   -0.4418    0.2450   -0.1383 C   0  0  0  0  0  0  0  0  0  0  0  0
    0.4294    1.1601    0.4506 O   0  0  0  0  0  0  0  0  0  0  0  0
    1.6322    1.1919   -0.2813 C   0  0  0  0  0  0  0  0  0  0  0  0
    2.3090   -0.0939   -0.0671 C   0  0  0  0  0  0  0  0  0  0  0  0
    1.5883   -1.1907    0.0225 C   0  0  0  0  0  0  0  0  0  0  0  0
    0.1058   -1.1658   -0.0869 C   0  0  0  0  0  0  0  0  0  0  0  0
   -0.5131   -1.9179    0.9050 O   0  0  0  0  0  0  0  0  0  0  0  0
   -2.5272    1.7792   -0.6240 H   0  0  0  0  0  0  0  0  0  0  0  0
   -2.9015    0.0394   -1.0256 H   0  0  0  0  0  0  0  0  0  0  0  0
   -3.5933    0.7719    0.4333 H   0  0  0  0  0  0  0  0  0  0  0  0
   -0.5538    0.5678   -1.2004 H   0  0  0  0  0  0  0  0  0  0  0  0
    2.2315    2.0762   -0.0019 H   0  0  0  0  0  0  0  0  0  0  0  0
    1.3525    1.2487   -1.3629 H   0  0  0  0  0  0  0  0  0  0  0  0
    3.3797   -0.1347    0.0149 H   0  0  0  0  0  0  0  0  0  0  0  0
    2.0575   -2.1406    0.1786 H   0  0  0  0  0  0  0  0  0  0  0  0
   -0.1346   -1.6640   -1.0705 H   0  0  0  0  0  0  0  0  0  0  0  0
   -0.0901   -1.8587    1.7769 H   0  0  0  0  0  0  0  0  0  0  0  0
  1  2  1  0
  2  3  1  0
  3  4  1  0
  4  5  1  0
  5  6  1  0
  6  7  2  0
  7  8  1  0
  8  9  1  0
  8  3  1  0
  1 10  1  0
  1 11  1  0
  1 12  1  0
  3 13  1  0
  5 14  1  0
  5 15  1  0
  6 16  1  0
  7 17  1  0
  8 18  1  0
  9 19  1  0
M  END
