
     RDKit          3D

 21 22  0  0  0  0  0  0  0  0999 V2000
   -2.3894   -0.9486   -0.1693 C   0  0  0  0  0  0  0  0  0  0  0  0
   -1.1765   -0.8046   -0.7867 O   0  0  0  0  0  0  0  0  0  0  0  0
   -0.4505    0.2375   -0.2464 C   0  0  0  0  0  0  0  0  0  0  0  0
   -1.0530    1.6009   -0.3113 C   0  0  0  0  0  0  0  0  0  0  0  0
    0.2728   -0.1047    1.0636 C   0  0  0  0  0  0  0  0  0  0  0  0
    1.3992   -0.6550    0.3355 C   0  0  0  0  0  0  0  0  0  0  0  0
    2.7481   -0.8930    0.1389 C   0  0  0  0  0  0  0  0  0  0  0  0
    2.3239   -0.7005    1.3341 O   0  0  0  0  0  0  0  0  0  0  0  0
    1.0084    0.2885   -0.7212 C   0  0  0  0  0  0  0  0  0  0  0  0
   -2.3347   -1.1568    0.9141 H   0  0  0  0  0  0  0  0  0  0  0  0
   -2.9212   -1.7954   -0.6551 H   0  0  0  0  0  0  0  0  0  0  0  0
   -2.9714   -0.0091   -0.2982 H   0  0  0  0  0  0  0  0  0  0  0  0
   -1.4733    1.9402    0.6602 H   0  0  0  0  0  0  0  0  0  0  0  0
   -1.8121    1.6011   -1.1174 H   0  0  0  0  0  0  0  0  0  0  0  0
   -0.3037    2.3896   -0.5963 H   0  0  0  0  0  0  0  0  0  0  0  0
    0.3532    0.8481    1.6376 H   0  0  0  0  0  0  0  0  0  0  0  0
   -0.3228   -0.8166    1.6861 H   0  0  0  0  0  0  0  0  0  0  0  0
    3.5806   -0.1947   -0.1959 H   0  0  0  0  0  0  0  0  0  0  0  0
    3.0443   -1.9344   -0.2007 H   0  0  0  0  0  0  0  0  0  0  0  0
    1.0455   -0.1843   -1.7257 H   0  0  0  0  0  0  0  0  0  0  0  0
    1.4326    1.2917   -0.7460 H   0  0  0  0  0  0  0  0  0  0  0  0
  1  2  1  0
  2  3  1  0
  3  4  1  0
  3  5  1  0
  5  6  1  0
  6  7  1  0
  7  8  1  0
  6  9  1  0
  9  3  1  0
  8  6  1  0
  1 10  1  0
  1 11  1  0
  1 12  1  0
  4 13  1  0
  4 14  1  0
  4 15  1  0
  5 16  1  0
  5 17  1  0
  7 18  1  0
  7 19  1  0
  9 20  1  0
  9 21  1  0
M  END
