
     RDKit          3D

 19 21  0  0  0  0  0  0  0  0999 V2000
    2.4325   -0.4873   -0.1252 C   0  0  0  0  0  0  0  0  0  0  0  0
    1.5394    0.0288   -1.0337 O   0  0  0  0  0  0  0  0  0  0  0  0
    0.2233   -0.0328   -0.6205 C   0  0  0  0  0  0  0  0  0  0  0  0
   -0.3089   -1.3864   -0.3445 C   0  0  0  0  0  0  0  0  0  0  0  0
   -0.1813   -0.3846    0.7416 C   0  0  0  0  0  0  0  0  0  0  0  0
   -1.4379    0.3662    1.0853 C   0  0  0  0  0  0  0  0  0  0  0  0
   -1.5839    1.4036    0.0145 C   0  0  0  0  0  0  0  0  0  0  0  0
   -2.0285    0.8946   -1.2116 O   0  0  0  0  0  0  0  0  0  0  0  0
   -0.6672    1.0659   -1.1049 C   0  0  0  0  0  0  0  0  0  0  0  0
    2.3382    0.0950    0.8122 H   0  0  0  0  0  0  0  0  0  0  0  0
    3.4556   -0.3186   -0.5259 H   0  0  0  0  0  0  0  0  0  0  0  0
    2.2839   -1.5606    0.1013 H   0  0  0  0  0  0  0  0  0  0  0  0
    0.3934   -2.2283   -0.3013 H   0  0  0  0  0  0  0  0  0  0  0  0
   -1.3121   -1.6849   -0.7360 H   0  0  0  0  0  0  0  0  0  0  0  0
    0.4948   -0.5613    1.5727 H   0  0  0  0  0  0  0  0  0  0  0  0
   -2.2908   -0.3545    0.9634 H   0  0  0  0  0  0  0  0  0  0  0  0
   -1.4495    0.7616    2.1087 H   0  0  0  0  0  0  0  0  0  0  0  0
   -1.7298    2.4612    0.2481 H   0  0  0  0  0  0  0  0  0  0  0  0
   -0.1711    1.9224   -1.6442 H   0  0  0  0  0  0  0  0  0  0  0  0
  1  2  1  0
  2  3  1  0
  3  4  1  0
  4  5  1  0
  5  6  1  0
  6  7  1  0
  7  8  1  0
  8  9  1  0
  5  3  1  0
  9  7  1  0
  9  3  1  0
  1 10  1  0
  1 11  1  0
  1 12  1  0
  4 13  1  0
  4 14  1  0
  5 15  1  0
  6 16  1  0
  6 17  1  0
  7 18  1  0
  9 19  1  0
M  END
