
     RDKit          3D

 17 17  0  0  0  0  0  0  0  0999 V2000
    2.5023    0.2645   -0.0833 C   0  0  0  0  0  0  0  0  0  0  0  0
    1.3763   -0.0894   -0.8149 O   0  0  0  0  0  0  0  0  0  0  0  0
    0.3304   -0.5289   -0.0254 C   0  0  0  0  0  0  0  0  0  0  0  0
   -0.2158   -1.7254   -0.4705 O   0  0  0  0  0  0  0  0  0  0  0  0
   -1.5468   -1.6517   -0.0908 C   0  0  0  0  0  0  0  0  0  0  0  0
   -1.9342   -0.2141   -0.2513 C   0  0  0  0  0  0  0  0  0  0  0  0
   -0.7890    0.4497   -0.2096 C   0  0  0  0  0  0  0  0  0  0  0  0
   -0.6090    1.8891   -0.3207 C   0  0  0  0  0  0  0  0  0  0  0  0
   -1.6179    2.6369   -0.4748 O   0  0  0  0  0  0  0  0  0  0  0  0
    2.8957   -0.5974    0.5102 H   0  0  0  0  0  0  0  0  0  0  0  0
    2.3052    1.1561    0.5549 H   0  0  0  0  0  0  0  0  0  0  0  0
    3.2651    0.6021   -0.8306 H   0  0  0  0  0  0  0  0  0  0  0  0
    0.5579   -0.5281    1.0588 H   0  0  0  0  0  0  0  0  0  0  0  0
   -1.7296   -1.9762    0.9499 H   0  0  0  0  0  0  0  0  0  0  0  0
   -2.2211   -2.2251   -0.7543 H   0  0  0  0  0  0  0  0  0  0  0  0
   -2.9255    0.1965   -0.3744 H   0  0  0  0  0  0  0  0  0  0  0  0
    0.3562    2.3416   -0.2761 H   0  0  0  0  0  0  0  0  0  0  0  0
  1  2  1  0
  2  3  1  0
  3  4  1  0
  4  5  1  0
  5  6  1  0
  6  7  2  0
  7  8  1  0
  8  9  2  0
  7  3  1  0
  1 10  1  0
  1 11  1  0
  1 12  1  0
  3 13  1  0
  5 14  1  0
  5 15  1  0
  6 16  1  0
  8 17  1  0
M  END
