
     RDKit          3D

 19 20  0  0  0  0  0  0  0  0999 V2000
    2.5515    0.8872    0.1325 C   0  0  0  0  0  0  0  0  0  0  0  0
    1.5553    0.6015   -0.7515 O   0  0  0  0  0  0  0  0  0  0  0  0
    0.3900    0.1657   -0.2603 C   0  0  0  0  0  0  0  0  0  0  0  0
    0.3860   -1.1813    0.3641 C   0  0  0  0  0  0  0  0  0  0  0  0
   -0.8883   -1.5746    0.3890 C   0  0  0  0  0  0  0  0  0  0  0  0
   -1.7080   -0.5170   -0.2968 C   0  0  0  0  0  0  0  0  0  0  0  0
   -1.6355    0.6978    0.5842 C   0  0  0  0  0  0  0  0  0  0  0  0
   -0.2785    1.0164    0.6134 O   0  0  0  0  0  0  0  0  0  0  0  0
   -0.6749   -0.0768   -1.3484 C   0  0  0  0  0  0  0  0  0  0  0  0
    3.4428    1.2355   -0.4694 H   0  0  0  0  0  0  0  0  0  0  0  0
    2.2308    1.7479    0.7688 H   0  0  0  0  0  0  0  0  0  0  0  0
    2.9159    0.0307    0.7195 H   0  0  0  0  0  0  0  0  0  0  0  0
    1.1840   -1.8026    0.7510 H   0  0  0  0  0  0  0  0  0  0  0  0
   -1.3358   -2.4668    0.8016 H   0  0  0  0  0  0  0  0  0  0  0  0
   -2.6440   -0.8149   -0.6746 H   0  0  0  0  0  0  0  0  0  0  0  0
   -2.1363    1.5781    0.0863 H   0  0  0  0  0  0  0  0  0  0  0  0
   -2.0613    0.5336    1.5932 H   0  0  0  0  0  0  0  0  0  0  0  0
   -0.9598    0.8394   -1.8442 H   0  0  0  0  0  0  0  0  0  0  0  0
   -0.3339   -0.8999   -1.9656 H   0  0  0  0  0  0  0  0  0  0  0  0
  1  2  1  0
  2  3  1  0
  3  4  1  0
  4  5  2  0
  5  6  1  0
  6  7  1  0
  7  8  1  0
  6  9  1  0
  8  3  1  0
  9  3  1  0
  1 10  1  0
  1 11  1  0
  1 12  1  0
  4 13  1  0
  5 14  1  0
  6 15  1  0
  7 16  1  0
  7 17  1  0
  9 18  1  0
  9 19  1  0
M  END
