
     RDKit          3D

 23 23  0  0  0  0  0  0  0  0999 V2000
    2.9481    0.5296   -0.0561 C   0  0  0  0  0  0  0  0  0  0  0  0
    1.7068    0.5571    0.5779 O   0  0  0  0  0  0  0  0  0  0  0  0
    0.8723   -0.3217   -0.0815 C   0  0  0  0  0  0  0  0  0  0  0  0
    0.0821   -1.2543    0.8179 C   0  0  0  0  0  0  0  0  0  0  0  0
   -1.0245   -1.0878   -0.1675 C   0  0  0  0  0  0  0  0  0  0  0  0
   -2.4199   -1.1891    0.3123 C   0  0  0  0  0  0  0  0  0  0  0  0
   -0.4737    0.2720   -0.4571 C   0  0  0  0  0  0  0  0  0  0  0  0
   -0.8209    1.3667    0.5135 C   0  0  0  0  0  0  0  0  0  0  0  0
    0.1685    2.3356    0.4423 O   0  0  0  0  0  0  0  0  0  0  0  0
    3.3767   -0.4925   -0.0215 H   0  0  0  0  0  0  0  0  0  0  0  0
    3.6173    1.1845    0.5450 H   0  0  0  0  0  0  0  0  0  0  0  0
    2.8627    0.8979   -1.0904 H   0  0  0  0  0  0  0  0  0  0  0  0
    1.3011   -0.8626   -0.9435 H   0  0  0  0  0  0  0  0  0  0  0  0
   -0.0682   -0.8286    1.8285 H   0  0  0  0  0  0  0  0  0  0  0  0
    0.5890   -2.2440    0.8206 H   0  0  0  0  0  0  0  0  0  0  0  0
   -0.8543   -1.7538   -1.0465 H   0  0  0  0  0  0  0  0  0  0  0  0
   -2.8087   -0.3418    0.8713 H   0  0  0  0  0  0  0  0  0  0  0  0
   -2.5667   -2.1007    0.9208 H   0  0  0  0  0  0  0  0  0  0  0  0
   -3.0821   -1.3242   -0.5878 H   0  0  0  0  0  0  0  0  0  0  0  0
   -0.5774    0.5335   -1.5201 H   0  0  0  0  0  0  0  0  0  0  0  0
   -0.8705    1.0201    1.5630 H   0  0  0  0  0  0  0  0  0  0  0  0
   -1.7868    1.8561    0.2920 H   0  0  0  0  0  0  0  0  0  0  0  0
   -0.1708    3.2481    0.3854 H   0  0  0  0  0  0  0  0  0  0  0  0
  1  2  1  0
  2  3  1  0
  3  4  1  0
  4  5  1  0
  5  6  1  0
  5  7  1  0
  7  8  1  0
  8  9  1  0
  7  3  1  0
  1 10  1  0
  1 11  1  0
  1 12  1  0
  3 13  1  0
  4 14  1  0
  4 15  1  0
  5 16  1  0
  6 17  1  0
  6 18  1  0
  6 19  1  0
  7 20  1  0
  8 21  1  0
  8 22  1  0
  9 23  1  0
M  END
