
     RDKit          3D

 21 22  0  0  0  0  0  0  0  0999 V2000
    2.3177    0.6172   -0.3680 C   0  0  0  0  0  0  0  0  0  0  0  0
    1.0216    0.4387   -0.8682 O   0  0  0  0  0  0  0  0  0  0  0  0
    0.2736   -0.1559    0.1064 C   0  0  0  0  0  0  0  0  0  0  0  0
    0.6381   -1.5021    0.6691 C   0  0  0  0  0  0  0  0  0  0  0  0
   -0.7352   -1.9647    0.2066 C   0  0  0  0  0  0  0  0  0  0  0  0
   -1.1404   -0.5508   -0.0743 C   0  0  0  0  0  0  0  0  0  0  0  0
   -1.8654   -0.2323   -1.1943 O   0  0  0  0  0  0  0  0  0  0  0  0
   -0.8022    0.5619    0.8408 C   0  0  0  0  0  0  0  0  0  0  0  0
   -1.0369    1.9611    0.3162 C   0  0  0  0  0  0  0  0  0  0  0  0
    2.9270    1.1014   -1.1613 H   0  0  0  0  0  0  0  0  0  0  0  0
    2.2694    1.3190    0.5101 H   0  0  0  0  0  0  0  0  0  0  0  0
    2.7193   -0.3328   -0.0085 H   0  0  0  0  0  0  0  0  0  0  0  0
    0.7281   -1.4075    1.7845 H   0  0  0  0  0  0  0  0  0  0  0  0
    1.4889   -1.9541    0.1650 H   0  0  0  0  0  0  0  0  0  0  0  0
   -1.3103   -2.5124    0.9505 H   0  0  0  0  0  0  0  0  0  0  0  0
   -0.6392   -2.5376   -0.7605 H   0  0  0  0  0  0  0  0  0  0  0  0
   -2.8429   -0.1836   -0.9510 H   0  0  0  0  0  0  0  0  0  0  0  0
   -0.9108    0.4353    1.9402 H   0  0  0  0  0  0  0  0  0  0  0  0
   -1.9478    2.4249    0.6998 H   0  0  0  0  0  0  0  0  0  0  0  0
   -0.1157    2.5474    0.5802 H   0  0  0  0  0  0  0  0  0  0  0  0
   -1.0366    1.9271   -0.8079 H   0  0  0  0  0  0  0  0  0  0  0  0
  1  2  1  0
  2  3  1  0
  3  4  1  0
  4  5  1  0
  5  6  1  0
  6  7  1  0
  6  8  1  0
  8  9  1  0
  6  3  1  0
  8  3  1  0
  1 10  1  0
  1 11  1  0
  1 12  1  0
  4 13  1  0
  4 14  1  0
  5 15  1  0
  5 16  1  0
  7 17  1  0
  8 18  1  0
  9 19  1  0
  9 20  1  0
  9 21  1  0
M  END
