
     RDKit          3D

 21 22  0  0  0  0  0  0  0  0999 V2000
   -2.0106    1.6337   -0.3145 C   0  0  0  0  0  0  0  0  0  0  0  0
   -1.5678    0.7915    0.6740 O   0  0  0  0  0  0  0  0  0  0  0  0
   -0.7054   -0.1950    0.2706 C   0  0  0  0  0  0  0  0  0  0  0  0
    0.5484    0.3475   -0.3454 C   0  0  0  0  0  0  0  0  0  0  0  0
    1.7210   -0.5330   -0.4623 C   0  0  0  0  0  0  0  0  0  0  0  0
    2.4642    0.6330    0.1749 C   0  0  0  0  0  0  0  0  0  0  0  0
    1.2409    1.1490    0.5585 O   0  0  0  0  0  0  0  0  0  0  0  0
   -1.1457   -1.5297   -0.1706 C   0  0  0  0  0  0  0  0  0  0  0  0
   -0.6288   -1.3592    1.2301 C   0  0  0  0  0  0  0  0  0  0  0  0
   -1.1969    2.1916   -0.8321 H   0  0  0  0  0  0  0  0  0  0  0  0
   -2.6447    2.4076    0.1679 H   0  0  0  0  0  0  0  0  0  0  0  0
   -2.6431    1.1455   -1.0771 H   0  0  0  0  0  0  0  0  0  0  0  0
    0.3221    0.9016   -1.2670 H   0  0  0  0  0  0  0  0  0  0  0  0
    2.0752   -0.6377   -1.5204 H   0  0  0  0  0  0  0  0  0  0  0  0
    1.7747   -1.4539    0.1117 H   0  0  0  0  0  0  0  0  0  0  0  0
    3.0041    1.2836   -0.5478 H   0  0  0  0  0  0  0  0  0  0  0  0
    3.1366    0.3541    1.0094 H   0  0  0  0  0  0  0  0  0  0  0  0
   -2.2079   -1.7785   -0.3524 H   0  0  0  0  0  0  0  0  0  0  0  0
   -0.4587   -2.0971   -0.8319 H   0  0  0  0  0  0  0  0  0  0  0  0
    0.3321   -1.7938    1.5135 H   0  0  0  0  0  0  0  0  0  0  0  0
   -1.4097   -1.4610    2.0108 H   0  0  0  0  0  0  0  0  0  0  0  0
  1  2  1  0
  2  3  1  0
  3  4  1  0
  4  5  1  0
  5  6  1  0
  6  7  1  0
  3  8  1  0
  8  9  1  0
  9  3  1  0
  7  4  1  0
  1 10  1  0
  1 11  1  0
  1 12  1  0
  4 13  1  0
  5 14  1  0
  5 15  1  0
  6 16  1  0
  6 17  1  0
  8 18  1  0
  8 19  1  0
  9 20  1  0
  9 21  1  0
M  END
