
     RDKit          3D

 19 20  0  0  0  0  0  0  0  0999 V2000
    2.4635    0.4659   -0.7250 C   0  0  0  0  0  0  0  0  0  0  0  0
    1.2401   -0.1280   -1.1167 O   0  0  0  0  0  0  0  0  0  0  0  0
    0.4665   -0.2138    0.0110 C   0  0  0  0  0  0  0  0  0  0  0  0
   -0.1393   -1.5644    0.3059 C   0  0  0  0  0  0  0  0  0  0  0  0
   -0.8492   -1.2714    1.6028 C   0  0  0  0  0  0  0  0  0  0  0  0
   -1.4426   -0.1136    1.3068 C   0  0  0  0  0  0  0  0  0  0  0  0
   -0.9922    0.0705   -0.1235 C   0  0  0  0  0  0  0  0  0  0  0  0
   -1.4916    1.1744   -0.8861 C   0  0  0  0  0  0  0  0  0  0  0  0
   -1.1258   -1.2473   -0.6198 O   0  0  0  0  0  0  0  0  0  0  0  0
    2.3018    1.4704   -0.3003 H   0  0  0  0  0  0  0  0  0  0  0  0
    3.0083   -0.1851   -0.0022 H   0  0  0  0  0  0  0  0  0  0  0  0
    3.1419    0.5967   -1.5959 H   0  0  0  0  0  0  0  0  0  0  0  0
    0.9291    0.1793    0.9590 H   0  0  0  0  0  0  0  0  0  0  0  0
    0.4319   -2.4436    0.2191 H   0  0  0  0  0  0  0  0  0  0  0  0
   -0.8435   -1.8735    2.4993 H   0  0  0  0  0  0  0  0  0  0  0  0
   -2.0739    0.5430    1.8874 H   0  0  0  0  0  0  0  0  0  0  0  0
   -2.1293    1.8925   -0.2969 H   0  0  0  0  0  0  0  0  0  0  0  0
   -2.1725    0.8360   -1.7210 H   0  0  0  0  0  0  0  0  0  0  0  0
   -0.7232    1.8119   -1.4040 H   0  0  0  0  0  0  0  0  0  0  0  0
  1  2  1  0
  2  3  1  0
  3  4  1  0
  4  5  1  0
  5  6  2  0
  6  7  1  0
  7  8  1  0
  7  9  1  0
  7  3  1  0
  9  4  1  0
  1 10  1  0
  1 11  1  0
  1 12  1  0
  3 13  1  0
  4 14  1  0
  5 15  1  0
  6 16  1  0
  8 17  1  0
  8 18  1  0
  8 19  1  0
M  END
