
     RDKit          3D

 20 20  0  0  0  0  0  0  0  0999 V2000
   -1.6718    1.2861    0.5701 C   0  0  0  0  0  0  0  0  0  0  0  0
   -1.0749    0.1772    1.1531 O   0  0  0  0  0  0  0  0  0  0  0  0
   -0.3932   -0.5171    0.1904 C   0  0  0  0  0  0  0  0  0  0  0  0
    0.7038    0.2482   -0.4946 C   0  0  0  0  0  0  0  0  0  0  0  0
    1.7582    0.7132    0.4886 C   0  0  0  0  0  0  0  0  0  0  0  0
    2.7184    1.4066   -0.2536 O   0  0  0  0  0  0  0  0  0  0  0  0
   -0.2867   -1.9892    0.1774 C   0  0  0  0  0  0  0  0  0  0  0  0
   -1.3223   -1.3684   -0.6953 C   0  0  0  0  0  0  0  0  0  0  0  0
   -0.9933    1.9960    0.1091 H   0  0  0  0  0  0  0  0  0  0  0  0
   -2.2831    1.8151    1.3586 H   0  0  0  0  0  0  0  0  0  0  0  0
   -2.3953    0.9785   -0.2434 H   0  0  0  0  0  0  0  0  0  0  0  0
    1.2541   -0.4677   -1.1652 H   0  0  0  0  0  0  0  0  0  0  0  0
    0.3569    1.1167   -1.0808 H   0  0  0  0  0  0  0  0  0  0  0  0
    2.2420   -0.1613    0.9883 H   0  0  0  0  0  0  0  0  0  0  0  0
    1.3180    1.3660    1.2660 H   0  0  0  0  0  0  0  0  0  0  0  0
    3.6212    1.1381    0.0418 H   0  0  0  0  0  0  0  0  0  0  0  0
   -0.6102   -2.5705    1.0649 H   0  0  0  0  0  0  0  0  0  0  0  0
    0.5748   -2.4294   -0.3388 H   0  0  0  0  0  0  0  0  0  0  0  0
   -1.1578   -1.2143   -1.7654 H   0  0  0  0  0  0  0  0  0  0  0  0
   -2.3588   -1.5239   -0.3729 H   0  0  0  0  0  0  0  0  0  0  0  0
  1  2  1  0
  2  3  1  0
  3  4  1  0
  4  5  1  0
  5  6  1  0
  3  7  1  0
  7  8  1  0
  8  3  1  0
  1  9  1  0
  1 10  1  0
  1 11  1  0
  4 12  1  0
  4 13  1  0
  5 14  1  0
  5 15  1  0
  6 16  1  0
  7 17  1  0
  7 18  1  0
  8 19  1  0
  8 20  1  0
M  END
