
     RDKit          3D

 17 18  0  0  0  0  0  0  0  0999 V2000
   -2.7713   -0.1554    0.1945 C   0  0  0  0  0  0  0  0  0  0  0  0
   -1.4817   -0.6908    0.3277 O   0  0  0  0  0  0  0  0  0  0  0  0
   -0.5655    0.2844    0.0309 C   0  0  0  0  0  0  0  0  0  0  0  0
    0.5435    0.4047    1.0696 C   0  0  0  0  0  0  0  0  0  0  0  0
    1.5120    0.0955   -0.0713 C   0  0  0  0  0  0  0  0  0  0  0  0
    2.7869   -0.5426    0.2089 C   0  0  0  0  0  0  0  0  0  0  0  0
    3.7419   -0.3804   -0.5357 O   0  0  0  0  0  0  0  0  0  0  0  0
    1.4480    0.8834   -1.2124 O   0  0  0  0  0  0  0  0  0  0  0  0
    0.5180   -0.1468   -0.9577 C   0  0  0  0  0  0  0  0  0  0  0  0
   -2.9330    0.6883    0.8647 H   0  0  0  0  0  0  0  0  0  0  0  0
   -2.8410    0.2488   -0.8499 H   0  0  0  0  0  0  0  0  0  0  0  0
   -3.5233   -0.9603    0.2819 H   0  0  0  0  0  0  0  0  0  0  0  0
   -1.0027    1.2765   -0.2484 H   0  0  0  0  0  0  0  0  0  0  0  0
    0.5872   -0.3987    1.8085 H   0  0  0  0  0  0  0  0  0  0  0  0
    0.7034    1.4374    1.4472 H   0  0  0  0  0  0  0  0  0  0  0  0
    2.9838   -1.1927    1.0746 H   0  0  0  0  0  0  0  0  0  0  0  0
    0.2938   -0.8514   -1.7432 H   0  0  0  0  0  0  0  0  0  0  0  0
  1  2  1  0
  2  3  1  0
  3  4  1  0
  4  5  1  0
  5  6  1  0
  6  7  2  0
  5  8  1  0
  8  9  1  0
  9  3  1  0
  9  5  1  0
  1 10  1  0
  1 11  1  0
  1 12  1  0
  3 13  1  0
  4 14  1  0
  4 15  1  0
  6 16  1  0
  9 17  1  0
M  END
