
     RDKit          3D

 17 17  0  0  0  0  0  0  0  0999 V2000
    2.6421    0.5038    0.1894 C   0  0  0  0  0  0  0  0  0  0  0  0
    1.5452    0.5013   -0.6444 O   0  0  0  0  0  0  0  0  0  0  0  0
    0.5000   -0.2804   -0.2058 C   0  0  0  0  0  0  0  0  0  0  0  0
   -0.4953   -0.8889   -1.0951 C   0  0  0  0  0  0  0  0  0  0  0  0
   -0.8691    0.3770   -0.4065 C   0  0  0  0  0  0  0  0  0  0  0  0
   -1.7260    0.3676    0.8305 C   0  0  0  0  0  0  0  0  0  0  0  0
   -1.9953   -0.9099    1.2946 O   0  0  0  0  0  0  0  0  0  0  0  0
    3.4073    1.1633   -0.2697 H   0  0  0  0  0  0  0  0  0  0  0  0
    3.0331   -0.4982    0.4147 H   0  0  0  0  0  0  0  0  0  0  0  0
    2.3320    1.0219    1.1366 H   0  0  0  0  0  0  0  0  0  0  0  0
    0.6973   -0.7938    0.7574 H   0  0  0  0  0  0  0  0  0  0  0  0
   -0.9622   -1.8569   -0.7584 H   0  0  0  0  0  0  0  0  0  0  0  0
   -0.4518   -0.8180   -2.1979 H   0  0  0  0  0  0  0  0  0  0  0  0
   -0.9276    1.3085   -0.9890 H   0  0  0  0  0  0  0  0  0  0  0  0
   -1.1269    0.8810    1.6373 H   0  0  0  0  0  0  0  0  0  0  0  0
   -2.6364    0.9878    0.7154 H   0  0  0  0  0  0  0  0  0  0  0  0
   -2.9664   -1.0659    1.2279 H   0  0  0  0  0  0  0  0  0  0  0  0
  1  2  1  0
  2  3  1  0
  3  4  1  0
  4  5  1  0
  5  6  1  0
  6  7  1  0
  5  3  1  0
  1  8  1  0
  1  9  1  0
  1 10  1  0
  3 11  1  0
  4 12  1  0
  4 13  1  0
  5 14  1  0
  6 15  1  0
  6 16  1  0
  7 17  1  0
M  END
