
     RDKit          3D

 21 21  0  0  0  0  0  0  0  0999 V2000
   -3.0193   -0.3874    1.1337 C   0  0  0  0  0  0  0  0  0  0  0  0
   -1.7877    0.1932    0.8503 O   0  0  0  0  0  0  0  0  0  0  0  0
   -1.5339    0.1420   -0.5098 C   0  0  0  0  0  0  0  0  0  0  0  0
   -0.7718    1.2357   -1.1614 C   0  0  0  0  0  0  0  0  0  0  0  0
   -0.1133   -0.1114   -0.8788 C   0  0  0  0  0  0  0  0  0  0  0  0
    0.9763   -0.0407    0.1730 C   0  0  0  0  0  0  0  0  0  0  0  0
    2.2837   -0.3501   -0.5505 C   0  0  0  0  0  0  0  0  0  0  0  0
    3.4306   -0.3044    0.4118 C   0  0  0  0  0  0  0  0  0  0  0  0
    4.5326   -0.5379   -0.0597 O   0  0  0  0  0  0  0  0  0  0  0  0
   -3.2373   -0.3562    2.2050 H   0  0  0  0  0  0  0  0  0  0  0  0
   -3.0651   -1.4226    0.7382 H   0  0  0  0  0  0  0  0  0  0  0  0
   -3.8093    0.2286    0.6236 H   0  0  0  0  0  0  0  0  0  0  0  0
   -2.3185   -0.3325   -1.1261 H   0  0  0  0  0  0  0  0  0  0  0  0
   -0.4344    2.1200   -0.5822 H   0  0  0  0  0  0  0  0  0  0  0  0
   -0.9318    1.4461   -2.2323 H   0  0  0  0  0  0  0  0  0  0  0  0
    0.0453   -0.7979   -1.7417 H   0  0  0  0  0  0  0  0  0  0  0  0
    0.7929   -0.7265    1.0161 H   0  0  0  0  0  0  0  0  0  0  0  0
    1.0958    0.9871    0.5858 H   0  0  0  0  0  0  0  0  0  0  0  0
    2.1964   -1.3378   -1.0328 H   0  0  0  0  0  0  0  0  0  0  0  0
    2.3840    0.4312   -1.3379 H   0  0  0  0  0  0  0  0  0  0  0  0
    3.2848   -0.0784    1.4570 H   0  0  0  0  0  0  0  0  0  0  0  0
  1  2  1  0
  2  3  1  0
  3  4  1  0
  4  5  1  0
  5  6  1  0
  6  7  1  0
  7  8  1  0
  8  9  2  0
  5  3  1  0
  1 10  1  0
  1 11  1  0
  1 12  1  0
  3 13  1  0
  4 14  1  0
  4 15  1  0
  5 16  1  0
  6 17  1  0
  6 18  1  0
  7 19  1  0
  7 20  1  0
  8 21  1  0
M  END
