
     RDKit          3D

 17 18  0  0  0  0  0  0  0  0999 V2000
    2.4375    0.2143   -0.1878 C   0  0  0  0  0  0  0  0  0  0  0  0
    1.2281    0.5756    0.3967 O   0  0  0  0  0  0  0  0  0  0  0  0
    0.2530   -0.2812   -0.0952 C   0  0  0  0  0  0  0  0  0  0  0  0
   -0.6091   -0.7735    1.0440 C   0  0  0  0  0  0  0  0  0  0  0  0
   -1.7581   -0.7495    0.0242 C   0  0  0  0  0  0  0  0  0  0  0  0
   -1.0092    0.4620   -0.4674 C   0  0  0  0  0  0  0  0  0  0  0  0
   -1.1347    1.3471    0.7400 C   0  0  0  0  0  0  0  0  0  0  0  0
   -1.4003    2.5530    0.8286 O   0  0  0  0  0  0  0  0  0  0  0  0
   -0.8612    0.4071    1.7658 O   0  0  0  0  0  0  0  0  0  0  0  0
    2.6369   -0.8522    0.1059 H   0  0  0  0  0  0  0  0  0  0  0  0
    2.3143    0.2277   -1.2899 H   0  0  0  0  0  0  0  0  0  0  0  0
    3.2734    0.8789    0.0990 H   0  0  0  0  0  0  0  0  0  0  0  0
    0.6120   -1.0200   -0.7984 H   0  0  0  0  0  0  0  0  0  0  0  0
   -0.3898   -1.6793    1.5278 H   0  0  0  0  0  0  0  0  0  0  0  0
   -1.7021   -1.6460   -0.6088 H   0  0  0  0  0  0  0  0  0  0  0  0
   -2.7374   -0.5157    0.4424 H   0  0  0  0  0  0  0  0  0  0  0  0
   -1.1534    0.8518   -1.4220 H   0  0  0  0  0  0  0  0  0  0  0  0
  1  2  1  0
  2  3  1  0
  3  4  1  0
  4  5  1  0
  5  6  1  0
  6  7  1  0
  7  8  2  0
  7  9  1  0
  6  3  1  0
  9  4  1  0
  1 10  1  0
  1 11  1  0
  1 12  1  0
  3 13  1  0
  4 14  1  0
  5 15  1  0
  5 16  1  0
  6 17  1  0
M  END
