
     RDKit          3D

 21 22  0  0  0  0  0  0  0  0999 V2000
    2.2580   -0.6794    0.1620 C   0  0  0  0  0  0  0  0  0  0  0  0
    1.1239   -0.8084   -0.6395 O   0  0  0  0  0  0  0  0  0  0  0  0
    0.2166    0.1532   -0.2411 C   0  0  0  0  0  0  0  0  0  0  0  0
    0.7377    1.5451   -0.3765 C   0  0  0  0  0  0  0  0  0  0  0  0
   -1.1858   -0.0099   -0.7869 C   0  0  0  0  0  0  0  0  0  0  0  0
   -1.4352   -1.4538   -0.4700 C   0  0  0  0  0  0  0  0  0  0  0  0
   -0.8956   -1.4882    0.8436 O   0  0  0  0  0  0  0  0  0  0  0  0
   -0.4705   -0.1779    1.0657 C   0  0  0  0  0  0  0  0  0  0  0  0
   -1.6480    0.6089    0.5405 C   0  0  0  0  0  0  0  0  0  0  0  0
    3.0333   -1.4370   -0.1159 H   0  0  0  0  0  0  0  0  0  0  0  0
    2.0272   -0.8462    1.2386 H   0  0  0  0  0  0  0  0  0  0  0  0
    2.6494    0.3547    0.0152 H   0  0  0  0  0  0  0  0  0  0  0  0
   -0.0685    2.2602   -0.6363 H   0  0  0  0  0  0  0  0  0  0  0  0
    1.4319    1.5476   -1.2612 H   0  0  0  0  0  0  0  0  0  0  0  0
    1.3440    1.8769    0.4973 H   0  0  0  0  0  0  0  0  0  0  0  0
   -1.4743    0.4336   -1.6865 H   0  0  0  0  0  0  0  0  0  0  0  0
   -2.5315   -1.6045   -0.4422 H   0  0  0  0  0  0  0  0  0  0  0  0
   -0.9074   -2.1553   -1.1220 H   0  0  0  0  0  0  0  0  0  0  0  0
   -0.0223    0.0819    1.9783 H   0  0  0  0  0  0  0  0  0  0  0  0
   -1.5931    1.6855    0.5976 H   0  0  0  0  0  0  0  0  0  0  0  0
   -2.5899    0.1130    0.8391 H   0  0  0  0  0  0  0  0  0  0  0  0
  1  2  1  0
  2  3  1  0
  3  4  1  0
  3  5  1  0
  5  6  1  0
  6  7  1  0
  7  8  1  0
  8  9  1  0
  8  3  1  0
  9  5  1  0
  1 10  1  0
  1 11  1  0
  1 12  1  0
  4 13  1  0
  4 14  1  0
  4 15  1  0
  5 16  1  0
  6 17  1  0
  6 18  1  0
  8 19  1  0
  9 20  1  0
  9 21  1  0
M  END
