
     RDKit          3D

 16 17  0  0  0  0  0  0  0  0999 V2000
   -2.7839    0.0448    0.2708 C   0  0  0  0  0  0  0  0  0  0  0  0
   -1.5725    0.3569   -0.3278 O   0  0  0  0  0  0  0  0  0  0  0  0
   -0.5354   -0.1673    0.4349 C   0  0  0  0  0  0  0  0  0  0  0  0
    0.5708   -0.6984   -0.2849 C   0  0  0  0  0  0  0  0  0  0  0  0
    1.4749   -0.2038   -1.1616 O   0  0  0  0  0  0  0  0  0  0  0  0
    2.5317    0.1553   -0.2833 C   0  0  0  0  0  0  0  0  0  0  0  0
    1.9347    0.3102    0.9967 O   0  0  0  0  0  0  0  0  0  0  0  0
    0.6567    0.5865    0.6405 C   0  0  0  0  0  0  0  0  0  0  0  0
   -2.7527    0.5116    1.2932 H   0  0  0  0  0  0  0  0  0  0  0  0
   -2.8644   -1.0609    0.4843 H   0  0  0  0  0  0  0  0  0  0  0  0
   -3.6445    0.4135   -0.2990 H   0  0  0  0  0  0  0  0  0  0  0  0
   -0.9124   -0.7112    1.3410 H   0  0  0  0  0  0  0  0  0  0  0  0
    1.0028   -1.6443    0.1695 H   0  0  0  0  0  0  0  0  0  0  0  0
    3.3114   -0.6285   -0.2601 H   0  0  0  0  0  0  0  0  0  0  0  0
    2.9223    1.1584   -0.5423 H   0  0  0  0  0  0  0  0  0  0  0  0
    0.6602    1.5771    0.0864 H   0  0  0  0  0  0  0  0  0  0  0  0
  1  2  1  0
  2  3  1  0
  3  4  1  0
  4  5  1  0
  5  6  1  0
  6  7  1  0
  7  8  1  0
  8  3  1  0
  8  4  1  0
  1  9  1  0
  1 10  1  0
  1 11  1  0
  3 12  1  0
  4 13  1  0
  6 14  1  0
  6 15  1  0
  8 16  1  0
M  END
