
     RDKit          3D

 17 19  0  0  0  0  0  0  0  0999 V2000
    2.2827    0.2635   -0.1978 C   0  0  0  0  0  0  0  0  0  0  0  0
    1.2853   -0.6055   -0.5635 O   0  0  0  0  0  0  0  0  0  0  0  0
    0.0375   -0.2529   -0.2586 C   0  0  0  0  0  0  0  0  0  0  0  0
   -0.5781    0.9912   -0.7766 C   0  0  0  0  0  0  0  0  0  0  0  0
   -1.8797    0.9174   -0.2202 O   0  0  0  0  0  0  0  0  0  0  0  0
   -1.8312   -0.2310    0.5327 C   0  0  0  0  0  0  0  0  0  0  0  0
   -1.0602   -1.2395   -0.2529 C   0  0  0  0  0  0  0  0  0  0  0  0
   -0.5639   -1.7100    0.9545 O   0  0  0  0  0  0  0  0  0  0  0  0
   -0.4630   -0.3427    1.1388 C   0  0  0  0  0  0  0  0  0  0  0  0
    2.2853    0.4130    0.9201 H   0  0  0  0  0  0  0  0  0  0  0  0
    3.2601   -0.2023   -0.4298 H   0  0  0  0  0  0  0  0  0  0  0  0
    2.1822    1.2698   -0.6756 H   0  0  0  0  0  0  0  0  0  0  0  0
   -0.1442    1.9265   -0.3433 H   0  0  0  0  0  0  0  0  0  0  0  0
   -0.6011    1.0041   -1.8722 H   0  0  0  0  0  0  0  0  0  0  0  0
   -2.6850   -0.5367    1.1045 H   0  0  0  0  0  0  0  0  0  0  0  0
   -1.4025   -1.8062   -1.0159 H   0  0  0  0  0  0  0  0  0  0  0  0
   -0.1241    0.1415    1.9558 H   0  0  0  0  0  0  0  0  0  0  0  0
  1  2  1  0
  2  3  1  0
  3  4  1  0
  4  5  1  0
  5  6  1  0
  6  7  1  0
  7  8  1  0
  8  9  1  0
  7  3  1  0
  9  3  1  0
  9  6  1  0
  1 10  1  0
  1 11  1  0
  1 12  1  0
  4 13  1  0
  4 14  1  0
  6 15  1  0
  7 16  1  0
  9 17  1  0
M  END
