
     RDKit          3D

 20 20  0  0  0  0  0  0  0  0999 V2000
    3.0047   -0.2794    0.2716 C   0  0  0  0  0  0  0  0  0  0  0  0
    1.8531    0.1054    0.9944 O   0  0  0  0  0  0  0  0  0  0  0  0
    0.7697   -0.2306    0.2234 C   0  0  0  0  0  0  0  0  0  0  0  0
   -0.3207   -1.0274    0.9562 C   0  0  0  0  0  0  0  0  0  0  0  0
   -1.2957   -0.2918    0.0282 C   0  0  0  0  0  0  0  0  0  0  0  0
   -2.5838    0.1057    0.6413 C   0  0  0  0  0  0  0  0  0  0  0  0
   -0.2935    0.8701    0.0915 C   0  0  0  0  0  0  0  0  0  0  0  0
   -0.2096    1.6184   -1.0533 O   0  0  0  0  0  0  0  0  0  0  0  0
    3.9249   -0.0511    0.8078 H   0  0  0  0  0  0  0  0  0  0  0  0
    2.9689   -1.3833    0.0855 H   0  0  0  0  0  0  0  0  0  0  0  0
    3.0090    0.1964   -0.7324 H   0  0  0  0  0  0  0  0  0  0  0  0
    0.9561   -0.7040   -0.7484 H   0  0  0  0  0  0  0  0  0  0  0  0
   -0.3643   -0.6614    1.9987 H   0  0  0  0  0  0  0  0  0  0  0  0
   -0.2744   -2.1087    0.8075 H   0  0  0  0  0  0  0  0  0  0  0  0
   -1.3263   -0.8149   -0.9286 H   0  0  0  0  0  0  0  0  0  0  0  0
   -3.4089   -0.4645    0.1359 H   0  0  0  0  0  0  0  0  0  0  0  0
   -2.6551   -0.0051    1.7209 H   0  0  0  0  0  0  0  0  0  0  0  0
   -2.7757    1.1790    0.3716 H   0  0  0  0  0  0  0  0  0  0  0  0
   -0.4487    1.4041    1.0436 H   0  0  0  0  0  0  0  0  0  0  0  0
   -0.5295    2.5430   -0.8370 H   0  0  0  0  0  0  0  0  0  0  0  0
  1  2  1  0
  2  3  1  0
  3  4  1  0
  4  5  1  0
  5  6  1  0
  5  7  1  0
  7  8  1  0
  7  3  1  0
  1  9  1  0
  1 10  1  0
  1 11  1  0
  3 12  1  0
  4 13  1  0
  4 14  1  0
  5 15  1  0
  6 16  1  0
  6 17  1  0
  6 18  1  0
  7 19  1  0
  8 20  1  0
M  END
