
     RDKit          3D

 21 21  0  0  0  0  0  0  0  0999 V2000
   -2.9279    0.0625   -0.7638 C   0  0  0  0  0  0  0  0  0  0  0  0
   -1.9716   -0.7974   -0.1937 O   0  0  0  0  0  0  0  0  0  0  0  0
   -1.0830   -0.0007    0.5130 C   0  0  0  0  0  0  0  0  0  0  0  0
   -0.6959   -0.4822    1.8752 C   0  0  0  0  0  0  0  0  0  0  0  0
    0.5987   -0.0091    1.6237 O   0  0  0  0  0  0  0  0  0  0  0  0
    0.3786   -0.3209    0.2803 C   0  0  0  0  0  0  0  0  0  0  0  0
    1.0568    0.5975   -0.7016 C   0  0  0  0  0  0  0  0  0  0  0  0
    2.5028    0.1736   -0.8442 C   0  0  0  0  0  0  0  0  0  0  0  0
    3.1763    0.2346    0.3490 O   0  0  0  0  0  0  0  0  0  0  0  0
   -2.3809    0.7791   -1.4441 H   0  0  0  0  0  0  0  0  0  0  0  0
   -3.3466    0.6750    0.0429 H   0  0  0  0  0  0  0  0  0  0  0  0
   -3.7120   -0.4837   -1.2931 H   0  0  0  0  0  0  0  0  0  0  0  0
   -1.2927    1.0766    0.4865 H   0  0  0  0  0  0  0  0  0  0  0  0
   -0.6725   -1.6050    1.9248 H   0  0  0  0  0  0  0  0  0  0  0  0
   -1.2000    0.0013    2.7317 H   0  0  0  0  0  0  0  0  0  0  0  0
    0.5797   -1.3847    0.0765 H   0  0  0  0  0  0  0  0  0  0  0  0
    0.9620    1.6516   -0.4099 H   0  0  0  0  0  0  0  0  0  0  0  0
    0.5733    0.4475   -1.6834 H   0  0  0  0  0  0  0  0  0  0  0  0
    2.9545    0.8424   -1.6045 H   0  0  0  0  0  0  0  0  0  0  0  0
    2.5946   -0.8571   -1.2385 H   0  0  0  0  0  0  0  0  0  0  0  0
    3.9059    0.9095    0.2731 H   0  0  0  0  0  0  0  0  0  0  0  0
  1  2  1  0
  2  3  1  0
  3  4  1  0
  4  5  1  0
  5  6  1  0
  6  7  1  0
  7  8  1  0
  8  9  1  0
  6  3  1  0
  1 10  1  0
  1 11  1  0
  1 12  1  0
  3 13  1  0
  4 14  1  0
  4 15  1  0
  6 16  1  0
  7 17  1  0
  7 18  1  0
  8 19  1  0
  8 20  1  0
  9 21  1  0
M  END
