
     RDKit          3D

 21 22  0  0  0  0  0  0  0  0999 V2000
    2.0337    1.1989    0.3415 C   0  0  0  0  0  0  0  0  0  0  0  0
    0.9988    0.5236    0.9677 O   0  0  0  0  0  0  0  0  0  0  0  0
    0.4585   -0.4640    0.1422 C   0  0  0  0  0  0  0  0  0  0  0  0
    1.3980   -1.5340   -0.3043 C   0  0  0  0  0  0  0  0  0  0  0  0
   -0.3321    0.2018   -0.9765 C   0  0  0  0  0  0  0  0  0  0  0  0
   -1.5808   -0.1961   -0.2309 C   0  0  0  0  0  0  0  0  0  0  0  0
   -2.5585    0.8163    0.2236 C   0  0  0  0  0  0  0  0  0  0  0  0
   -1.7877   -1.5432   -0.1249 O   0  0  0  0  0  0  0  0  0  0  0  0
   -0.8260   -0.9986    0.6820 C   0  0  0  0  0  0  0  0  0  0  0  0
    2.4056    1.9640    1.0645 H   0  0  0  0  0  0  0  0  0  0  0  0
    2.8767    0.5339    0.0924 H   0  0  0  0  0  0  0  0  0  0  0  0
    1.7362    1.7061   -0.5904 H   0  0  0  0  0  0  0  0  0  0  0  0
    2.0702   -1.7795    0.5362 H   0  0  0  0  0  0  0  0  0  0  0  0
    0.8124   -2.4482   -0.5283 H   0  0  0  0  0  0  0  0  0  0  0  0
    2.0132   -1.1945   -1.1459 H   0  0  0  0  0  0  0  0  0  0  0  0
   -0.2421    1.2919   -1.0217 H   0  0  0  0  0  0  0  0  0  0  0  0
   -0.1960   -0.3411   -1.9498 H   0  0  0  0  0  0  0  0  0  0  0  0
   -2.2118    1.2347    1.2083 H   0  0  0  0  0  0  0  0  0  0  0  0
   -2.5078    1.6961   -0.4770 H   0  0  0  0  0  0  0  0  0  0  0  0
   -3.5738    0.4381    0.3238 H   0  0  0  0  0  0  0  0  0  0  0  0
   -0.9865   -1.1062    1.7677 H   0  0  0  0  0  0  0  0  0  0  0  0
  1  2  1  0
  2  3  1  0
  3  4  1  0
  3  5  1  0
  5  6  1  0
  6  7  1  0
  6  8  1  0
  8  9  1  0
  9  3  1  0
  9  6  1  0
  1 10  1  0
  1 11  1  0
  1 12  1  0
  4 13  1  0
  4 14  1  0
  4 15  1  0
  5 16  1  0
  5 17  1  0
  7 18  1  0
  7 19  1  0
  7 20  1  0
  9 21  1  0
M  END
