
     RDKit          3D

 19 19  0  0  0  0  0  0  0  0999 V2000
   -2.3016    0.8502   -0.0154 C   0  0  0  0  0  0  0  0  0  0  0  0
   -0.9338    1.0755    0.0683 O   0  0  0  0  0  0  0  0  0  0  0  0
   -0.1765   -0.0602    0.0045 C   0  0  0  0  0  0  0  0  0  0  0  0
   -0.2894   -0.8789   -1.2010 C   0  0  0  0  0  0  0  0  0  0  0  0
    0.3477   -1.9008   -1.3366 O   0  0  0  0  0  0  0  0  0  0  0  0
   -0.1697   -0.9276    1.2442 C   0  0  0  0  0  0  0  0  0  0  0  0
    1.2231   -1.0683    1.0726 O   0  0  0  0  0  0  0  0  0  0  0  0
    1.2214    0.1913    0.5088 C   0  0  0  0  0  0  0  0  0  0  0  0
    2.2602    0.4599   -0.5314 C   0  0  0  0  0  0  0  0  0  0  0  0
   -2.5996    0.3546   -0.9631 H   0  0  0  0  0  0  0  0  0  0  0  0
   -2.7980    1.8441   -0.0242 H   0  0  0  0  0  0  0  0  0  0  0  0
   -2.7001    0.3128    0.8659 H   0  0  0  0  0  0  0  0  0  0  0  0
   -0.9470   -0.5824   -1.9936 H   0  0  0  0  0  0  0  0  0  0  0  0
   -0.3795   -0.3821    2.1748 H   0  0  0  0  0  0  0  0  0  0  0  0
   -0.6382   -1.9131    1.1302 H   0  0  0  0  0  0  0  0  0  0  0  0
    1.2167    0.9676    1.2802 H   0  0  0  0  0  0  0  0  0  0  0  0
    2.2319   -0.2129   -1.3955 H   0  0  0  0  0  0  0  0  0  0  0  0
    2.1710    1.4918   -0.8710 H   0  0  0  0  0  0  0  0  0  0  0  0
    3.2612    0.3786   -0.0176 H   0  0  0  0  0  0  0  0  0  0  0  0
  1  2  1  0
  2  3  1  0
  3  4  1  0
  4  5  2  0
  3  6  1  0
  6  7  1  0
  7  8  1  0
  8  9  1  0
  8  3  1  0
  1 10  1  0
  1 11  1  0
  1 12  1  0
  4 13  1  0
  6 14  1  0
  6 15  1  0
  8 16  1  0
  9 17  1  0
  9 18  1  0
  9 19  1  0
M  END
