
     RDKit          3D

 17 17  0  0  0  0  0  0  0  0999 V2000
   -3.3643    0.8003    0.0050 C   0  0  0  0  0  0  0  0  0  0  0  0
   -2.6029   -0.3661   -0.0472 O   0  0  0  0  0  0  0  0  0  0  0  0
   -1.2076   -0.3693   -0.0113 C   0  0  0  0  0  0  0  0  0  0  0  0
   -0.4228   -1.5019   -0.0608 C   0  0  0  0  0  0  0  0  0  0  0  0
    0.9013   -1.1187   -0.0029 C   0  0  0  0  0  0  0  0  0  0  0  0
    0.8733    0.2577    0.0812 C   0  0  0  0  0  0  0  0  0  0  0  0
    1.9790    1.1085    0.1622 O   0  0  0  0  0  0  0  0  0  0  0  0
    3.2712    0.5386    0.1605 C   0  0  0  0  0  0  0  0  0  0  0  0
   -0.3868    0.6419    0.0723 O   0  0  0  0  0  0  0  0  0  0  0  0
   -4.2954    0.5792    0.5751 H   0  0  0  0  0  0  0  0  0  0  0  0
   -3.6630    1.0437   -1.0537 H   0  0  0  0  0  0  0  0  0  0  0  0
   -2.8144    1.6722    0.4106 H   0  0  0  0  0  0  0  0  0  0  0  0
   -0.7624   -2.5274   -0.1328 H   0  0  0  0  0  0  0  0  0  0  0  0
    1.7969   -1.7358   -0.0178 H   0  0  0  0  0  0  0  0  0  0  0  0
    3.2349   -0.3263   -0.5578 H   0  0  0  0  0  0  0  0  0  0  0  0
    4.0600    1.2444   -0.0939 H   0  0  0  0  0  0  0  0  0  0  0  0
    3.4030    0.0591    1.1678 H   0  0  0  0  0  0  0  0  0  0  0  0
  1  2  1  0
  2  3  1  0
  3  4  2  0
  4  5  1  0
  5  6  2  0
  6  7  1  0
  7  8  1  0
  6  9  1  0
  9  3  1  0
  1 10  1  0
  1 11  1  0
  1 12  1  0
  4 13  1  0
  5 14  1  0
  8 15  1  0
  8 16  1  0
  8 17  1  0
M  END
