
     RDKit          3D

 21 22  0  0  0  0  0  0  0  0999 V2000
    2.8909    0.1484    0.1776 C   0  0  0  0  0  0  0  0  0  0  0  0
    1.7095   -0.3856   -0.3291 O   0  0  0  0  0  0  0  0  0  0  0  0
    0.6036    0.0912    0.3506 C   0  0  0  0  0  0  0  0  0  0  0  0
   -0.4440    0.5831   -0.6544 C   0  0  0  0  0  0  0  0  0  0  0  0
   -1.0376    1.9044   -0.1649 C   0  0  0  0  0  0  0  0  0  0  0  0
   -1.3134   -0.5833   -0.3247 C   0  0  0  0  0  0  0  0  0  0  0  0
   -2.6731   -0.4158   -0.1113 O   0  0  0  0  0  0  0  0  0  0  0  0
   -0.7979   -1.9664   -0.2826 C   0  0  0  0  0  0  0  0  0  0  0  0
   -0.3901   -0.9798    0.7489 C   0  0  0  0  0  0  0  0  0  0  0  0
    3.0095   -0.1201    1.2606 H   0  0  0  0  0  0  0  0  0  0  0  0
    2.9484    1.2370    0.0953 H   0  0  0  0  0  0  0  0  0  0  0  0
    3.7369   -0.2871   -0.4097 H   0  0  0  0  0  0  0  0  0  0  0  0
    0.8223    0.7926    1.1562 H   0  0  0  0  0  0  0  0  0  0  0  0
   -0.0659    0.6531   -1.6933 H   0  0  0  0  0  0  0  0  0  0  0  0
   -0.2844    2.4390    0.4578 H   0  0  0  0  0  0  0  0  0  0  0  0
   -1.4250    2.5144   -0.9897 H   0  0  0  0  0  0  0  0  0  0  0  0
   -1.8980    1.6743    0.5133 H   0  0  0  0  0  0  0  0  0  0  0  0
   -3.1137   -1.2202   -0.5320 H   0  0  0  0  0  0  0  0  0  0  0  0
   -0.1225   -2.2546   -1.1025 H   0  0  0  0  0  0  0  0  0  0  0  0
   -1.4795   -2.7497    0.0399 H   0  0  0  0  0  0  0  0  0  0  0  0
   -0.6759   -1.0748    1.7942 H   0  0  0  0  0  0  0  0  0  0  0  0
  1  2  1  0
  2  3  1  0
  3  4  1  0
  4  5  1  0
  4  6  1  0
  6  7  1  0
  6  8  1  0
  8  9  1  0
  9  3  1  0
  9  6  1  0
  1 10  1  0
  1 11  1  0
  1 12  1  0
  3 13  1  0
  4 14  1  0
  5 15  1  0
  5 16  1  0
  5 17  1  0
  7 18  1  0
  8 19  1  0
  8 20  1  0
  9 21  1  0
M  END
