
     RDKit          3D

 21 21  0  0  0  0  0  0  0  0999 V2000
    3.3659    0.9758    0.0398 C   0  0  0  0  0  0  0  0  0  0  0  0
    2.5599    0.0222    0.6576 O   0  0  0  0  0  0  0  0  0  0  0  0
    1.4754   -0.2294   -0.1935 C   0  0  0  0  0  0  0  0  0  0  0  0
    0.9242   -1.6006   -0.2221 C   0  0  0  0  0  0  0  0  0  0  0  0
    0.1593   -0.5693    0.5140 C   0  0  0  0  0  0  0  0  0  0  0  0
   -1.0256    0.1217   -0.0707 C   0  0  0  0  0  0  0  0  0  0  0  0
   -2.2925   -0.1833    0.5832 C   0  0  0  0  0  0  0  0  0  0  0  0
   -3.5606    0.4264    0.1166 C   0  0  0  0  0  0  0  0  0  0  0  0
   -2.3487   -0.9433    1.5267 O   0  0  0  0  0  0  0  0  0  0  0  0
    3.6915    0.5172   -0.9390 H   0  0  0  0  0  0  0  0  0  0  0  0
    4.2222    1.2273    0.6793 H   0  0  0  0  0  0  0  0  0  0  0  0
    2.7875    1.8997   -0.1782 H   0  0  0  0  0  0  0  0  0  0  0  0
    1.4278    0.3234   -1.1506 H   0  0  0  0  0  0  0  0  0  0  0  0
    1.4819   -2.3598    0.3675 H   0  0  0  0  0  0  0  0  0  0  0  0
    0.4359   -2.0034   -1.1412 H   0  0  0  0  0  0  0  0  0  0  0  0
    0.1921   -0.6322    1.6242 H   0  0  0  0  0  0  0  0  0  0  0  0
   -1.0525   -0.0710   -1.1834 H   0  0  0  0  0  0  0  0  0  0  0  0
   -0.8327    1.2311    0.0052 H   0  0  0  0  0  0  0  0  0  0  0  0
   -4.2224    0.5666    0.9714 H   0  0  0  0  0  0  0  0  0  0  0  0
   -4.0270   -0.1575   -0.7108 H   0  0  0  0  0  0  0  0  0  0  0  0
   -3.3616    1.4383   -0.3113 H   0  0  0  0  0  0  0  0  0  0  0  0
  1  2  1  0
  2  3  1  0
  3  4  1  0
  4  5  1  0
  5  6  1  0
  6  7  1  0
  7  8  1  0
  7  9  2  0
  5  3  1  0
  1 10  1  0
  1 11  1  0
  1 12  1  0
  3 13  1  0
  4 14  1  0
  4 15  1  0
  5 16  1  0
  6 17  1  0
  6 18  1  0
  8 19  1  0
  8 20  1  0
  8 21  1  0
M  END
