
     RDKit          3D

 21 21  0  0  0  0  0  0  0  0999 V2000
    3.0953   -0.5635    0.3707 C   0  0  0  0  0  0  0  0  0  0  0  0
    1.7207   -0.6617    0.6064 O   0  0  0  0  0  0  0  0  0  0  0  0
    1.0050    0.1762   -0.2429 C   0  0  0  0  0  0  0  0  0  0  0  0
    0.1989    1.2104    0.5169 C   0  0  0  0  0  0  0  0  0  0  0  0
   -1.1934    0.9779   -0.0865 C   0  0  0  0  0  0  0  0  0  0  0  0
   -2.2009    1.3449    0.7555 O   0  0  0  0  0  0  0  0  0  0  0  0
   -1.0965   -0.5221   -0.3019 C   0  0  0  0  0  0  0  0  0  0  0  0
   -2.2301   -1.0471   -1.1292 C   0  0  0  0  0  0  0  0  0  0  0  0
    0.1288   -0.5897   -0.9659 O   0  0  0  0  0  0  0  0  0  0  0  0
    3.4898    0.4492    0.5230 H   0  0  0  0  0  0  0  0  0  0  0  0
    3.2820   -0.8526   -0.6838 H   0  0  0  0  0  0  0  0  0  0  0  0
    3.5804   -1.2579    1.0921 H   0  0  0  0  0  0  0  0  0  0  0  0
    1.7018    0.7240   -0.9068 H   0  0  0  0  0  0  0  0  0  0  0  0
    0.1872    0.9299    1.5892 H   0  0  0  0  0  0  0  0  0  0  0  0
    0.5299    2.2389    0.3364 H   0  0  0  0  0  0  0  0  0  0  0  0
   -1.1914    1.4562   -1.0722 H   0  0  0  0  0  0  0  0  0  0  0  0
   -2.6609    0.5906    1.2063 H   0  0  0  0  0  0  0  0  0  0  0  0
   -0.9664   -1.0657    0.6561 H   0  0  0  0  0  0  0  0  0  0  0  0
   -2.2309   -0.4962   -2.0879 H   0  0  0  0  0  0  0  0  0  0  0  0
   -3.1555   -0.9293   -0.5431 H   0  0  0  0  0  0  0  0  0  0  0  0
   -1.9938   -2.1123   -1.3679 H   0  0  0  0  0  0  0  0  0  0  0  0
  1  2  1  0
  2  3  1  0
  3  4  1  0
  4  5  1  0
  5  6  1  0
  5  7  1  0
  7  8  1  0
  7  9  1  0
  9  3  1  0
  1 10  1  0
  1 11  1  0
  1 12  1  0
  3 13  1  0
  4 14  1  0
  4 15  1  0
  5 16  1  0
  6 17  1  0
  7 18  1  0
  8 19  1  0
  8 20  1  0
  8 21  1  0
M  END
