
     RDKit          3D

 23 24  0  0  0  0  0  0  0  0999 V2000
    3.2137   -0.4820   -0.1217 C   0  0  0  0  0  0  0  0  0  0  0  0
    1.8576   -0.6696   -0.3842 O   0  0  0  0  0  0  0  0  0  0  0  0
    1.1738    0.5397   -0.3014 C   0  0  0  0  0  0  0  0  0  0  0  0
    0.0719    0.7383   -1.2786 C   0  0  0  0  0  0  0  0  0  0  0  0
   -0.2456    0.4695    0.1877 C   0  0  0  0  0  0  0  0  0  0  0  0
   -0.8306    1.6524    0.9098 C   0  0  0  0  0  0  0  0  0  0  0  0
   -0.8328   -0.8944    0.4335 C   0  0  0  0  0  0  0  0  0  0  0  0
   -2.1962   -1.0926    0.9076 C   0  0  0  0  0  0  0  0  0  0  0  0
   -1.9208   -1.2765   -0.5918 C   0  0  0  0  0  0  0  0  0  0  0  0
    3.3241   -0.0622    0.9120 H   0  0  0  0  0  0  0  0  0  0  0  0
    3.7934   -1.4058   -0.1810 H   0  0  0  0  0  0  0  0  0  0  0  0
    3.5928    0.2869   -0.8381 H   0  0  0  0  0  0  0  0  0  0  0  0
    1.7636    1.4488   -0.0506 H   0  0  0  0  0  0  0  0  0  0  0  0
   -0.1450   -0.0501   -2.0249 H   0  0  0  0  0  0  0  0  0  0  0  0
   -0.1056    1.7585   -1.6818 H   0  0  0  0  0  0  0  0  0  0  0  0
   -1.5954    2.0991    0.2177 H   0  0  0  0  0  0  0  0  0  0  0  0
   -0.0193    2.3902    1.0472 H   0  0  0  0  0  0  0  0  0  0  0  0
   -1.3566    1.3965    1.8338 H   0  0  0  0  0  0  0  0  0  0  0  0
   -0.0728   -1.6749    0.6408 H   0  0  0  0  0  0  0  0  0  0  0  0
   -2.8941   -0.2962    1.1624 H   0  0  0  0  0  0  0  0  0  0  0  0
   -2.3985   -2.0634    1.4380 H   0  0  0  0  0  0  0  0  0  0  0  0
   -1.8770   -2.3198   -0.9809 H   0  0  0  0  0  0  0  0  0  0  0  0
   -2.3007   -0.4923   -1.2554 H   0  0  0  0  0  0  0  0  0  0  0  0
  1  2  1  0
  2  3  1  0
  3  4  1  0
  4  5  1  0
  5  6  1  0
  5  7  1  0
  7  8  1  0
  8  9  1  0
  5  3  1  0
  9  7  1  0
  1 10  1  0
  1 11  1  0
  1 12  1  0
  3 13  1  0
  4 14  1  0
  4 15  1  0
  6 16  1  0
  6 17  1  0
  6 18  1  0
  7 19  1  0
  8 20  1  0
  8 21  1  0
  9 22  1  0
  9 23  1  0
M  END
