
     RDKit          3D

 17 18  0  0  0  0  0  0  0  0999 V2000
    2.2549   -0.5401    0.1366 C   0  0  0  0  0  0  0  0  0  0  0  0
    1.5386    0.5368   -0.3430 O   0  0  0  0  0  0  0  0  0  0  0  0
    0.2165    0.5493    0.0493 C   0  0  0  0  0  0  0  0  0  0  0  0
   -0.6201    1.6813   -0.4295 C   0  0  0  0  0  0  0  0  0  0  0  0
   -0.7686    0.3088   -1.0636 C   0  0  0  0  0  0  0  0  0  0  0  0
   -1.7578   -0.6228   -0.5176 C   0  0  0  0  0  0  0  0  0  0  0  0
   -1.4821   -0.9183    0.7251 C   0  0  0  0  0  0  0  0  0  0  0  0
   -0.2834   -0.2274    1.1640 C   0  0  0  0  0  0  0  0  0  0  0  0
    0.1779   -0.3306    2.3132 O   0  0  0  0  0  0  0  0  0  0  0  0
    2.2863   -0.5940    1.2413 H   0  0  0  0  0  0  0  0  0  0  0  0
    3.3126   -0.3973   -0.1901 H   0  0  0  0  0  0  0  0  0  0  0  0
    1.9170   -1.4853   -0.3110 H   0  0  0  0  0  0  0  0  0  0  0  0
   -1.5148    1.9834    0.1426 H   0  0  0  0  0  0  0  0  0  0  0  0
   -0.1430    2.4478   -1.0496 H   0  0  0  0  0  0  0  0  0  0  0  0
   -0.4356    0.2135   -2.1015 H   0  0  0  0  0  0  0  0  0  0  0  0
   -2.6062   -1.0083   -1.0885 H   0  0  0  0  0  0  0  0  0  0  0  0
   -2.0924   -1.5967    1.3224 H   0  0  0  0  0  0  0  0  0  0  0  0
  1  2  1  0
  2  3  1  0
  3  4  1  0
  4  5  1  0
  5  6  1  0
  6  7  2  0
  7  8  1  0
  8  9  2  0
  5  3  1  0
  8  3  1  0
  1 10  1  0
  1 11  1  0
  1 12  1  0
  4 13  1  0
  4 14  1  0
  5 15  1  0
  6 16  1  0
  7 17  1  0
M  END
