
     RDKit          3D

 19 20  0  0  0  0  0  0  0  0999 V2000
    2.0461   -1.3917    0.1739 C   0  0  0  0  0  0  0  0  0  0  0  0
    1.2847   -0.7572   -0.7861 O   0  0  0  0  0  0  0  0  0  0  0  0
    0.5697    0.2497   -0.1836 C   0  0  0  0  0  0  0  0  0  0  0  0
    0.6078    1.5930   -0.8543 C   0  0  0  0  0  0  0  0  0  0  0  0
   -0.9037    1.5495   -0.8866 C   0  0  0  0  0  0  0  0  0  0  0  0
   -1.4229    0.5485   -1.6751 O   0  0  0  0  0  0  0  0  0  0  0  0
   -0.8893    0.1535   -0.4625 C   0  0  0  0  0  0  0  0  0  0  0  0
   -1.8380   -0.4253    0.5376 C   0  0  0  0  0  0  0  0  0  0  0  0
   -1.1010   -0.7535    1.6770 O   0  0  0  0  0  0  0  0  0  0  0  0
    1.3568   -1.8071    0.9420 H   0  0  0  0  0  0  0  0  0  0  0  0
    2.5863   -2.2332   -0.3415 H   0  0  0  0  0  0  0  0  0  0  0  0
    2.7436   -0.6425    0.5939 H   0  0  0  0  0  0  0  0  0  0  0  0
    0.7346    0.3586    0.9256 H   0  0  0  0  0  0  0  0  0  0  0  0
    1.0530    2.3834   -0.2279 H   0  0  0  0  0  0  0  0  0  0  0  0
    0.9757    1.5824   -1.9135 H   0  0  0  0  0  0  0  0  0  0  0  0
   -1.5049    2.3378   -0.4538 H   0  0  0  0  0  0  0  0  0  0  0  0
   -2.6708    0.2777    0.7867 H   0  0  0  0  0  0  0  0  0  0  0  0
   -2.2721   -1.3766    0.1254 H   0  0  0  0  0  0  0  0  0  0  0  0
   -1.3557   -1.6469    2.0226 H   0  0  0  0  0  0  0  0  0  0  0  0
  1  2  1  0
  2  3  1  0
  3  4  1  0
  4  5  1  0
  5  6  1  0
  6  7  1  0
  7  8  1  0
  8  9  1  0
  7  3  1  0
  7  5  1  0
  1 10  1  0
  1 11  1  0
  1 12  1  0
  3 13  1  0
  4 14  1  0
  4 15  1  0
  5 16  1  0
  8 17  1  0
  8 18  1  0
  9 19  1  0
M  END
