
     RDKit          3D

 23 24  0  0  0  0  0  0  0  0999 V2000
    3.0460   -0.2728   -0.1864 C   0  0  0  0  0  0  0  0  0  0  0  0
    2.0062    0.6747   -0.0897 O   0  0  0  0  0  0  0  0  0  0  0  0
    0.8043   -0.0264   -0.0664 C   0  0  0  0  0  0  0  0  0  0  0  0
   -0.2021    0.6060   -1.0143 C   0  0  0  0  0  0  0  0  0  0  0  0
   -1.3302   -0.3713   -1.1963 C   0  0  0  0  0  0  0  0  0  0  0  0
   -1.7781   -0.9905    0.0810 C   0  0  0  0  0  0  0  0  0  0  0  0
   -1.2620   -0.3453    1.3156 C   0  0  0  0  0  0  0  0  0  0  0  0
   -0.0603    0.5137    1.0633 C   0  0  0  0  0  0  0  0  0  0  0  0
   -0.5073    1.6042    0.0892 C   0  0  0  0  0  0  0  0  0  0  0  0
    2.9556   -0.9291    0.7271 H   0  0  0  0  0  0  0  0  0  0  0  0
    2.8566   -0.8901   -1.0749 H   0  0  0  0  0  0  0  0  0  0  0  0
    4.0347    0.2302   -0.1882 H   0  0  0  0  0  0  0  0  0  0  0  0
    0.8667   -1.1121   -0.1228 H   0  0  0  0  0  0  0  0  0  0  0  0
    0.1911    1.0091   -1.9396 H   0  0  0  0  0  0  0  0  0  0  0  0
   -2.1653    0.1465   -1.7448 H   0  0  0  0  0  0  0  0  0  0  0  0
   -0.9862   -1.1747   -1.8790 H   0  0  0  0  0  0  0  0  0  0  0  0
   -1.5435   -2.0940    0.1240 H   0  0  0  0  0  0  0  0  0  0  0  0
   -2.9083   -0.9642    0.0778 H   0  0  0  0  0  0  0  0  0  0  0  0
   -1.0750   -1.0918    2.1162 H   0  0  0  0  0  0  0  0  0  0  0  0
   -2.0633    0.3257    1.7231 H   0  0  0  0  0  0  0  0  0  0  0  0
    0.4905    0.8505    1.9317 H   0  0  0  0  0  0  0  0  0  0  0  0
    0.2078    2.4353    0.0710 H   0  0  0  0  0  0  0  0  0  0  0  0
   -1.5779    1.8664    0.1824 H   0  0  0  0  0  0  0  0  0  0  0  0
  1  2  1  0
  2  3  1  0
  3  4  1  0
  4  5  1  0
  5  6  1  0
  6  7  1  0
  7  8  1  0
  8  9  1  0
  8  3  1  0
  9  4  1  0
  1 10  1  0
  1 11  1  0
  1 12  1  0
  3 13  1  0
  4 14  1  0
  5 15  1  0
  5 16  1  0
  6 17  1  0
  6 18  1  0
  7 19  1  0
  7 20  1  0
  8 21  1  0
  9 22  1  0
  9 23  1  0
M  END
