
     RDKit          3D

 19 20  0  0  0  0  0  0  0  0999 V2000
    2.6571    0.0691   -0.1810 C   0  0  0  0  0  0  0  0  0  0  0  0
    1.4921   -0.6931    0.0719 O   0  0  0  0  0  0  0  0  0  0  0  0
    0.4263    0.1588    0.0001 C   0  0  0  0  0  0  0  0  0  0  0  0
   -0.7996   -0.3427   -0.7264 C   0  0  0  0  0  0  0  0  0  0  0  0
   -1.0931   -1.6197   -0.0116 C   0  0  0  0  0  0  0  0  0  0  0  0
   -0.9134   -1.2077    1.3365 O   0  0  0  0  0  0  0  0  0  0  0  0
   -0.5348    0.0974    1.1974 C   0  0  0  0  0  0  0  0  0  0  0  0
   -1.5514    0.6449    0.1795 C   0  0  0  0  0  0  0  0  0  0  0  0
   -1.2707    1.9653   -0.0941 O   0  0  0  0  0  0  0  0  0  0  0  0
    2.7211    0.8727    0.6062 H   0  0  0  0  0  0  0  0  0  0  0  0
    3.5525   -0.5488   -0.2253 H   0  0  0  0  0  0  0  0  0  0  0  0
    2.5695    0.6236   -1.1416 H   0  0  0  0  0  0  0  0  0  0  0  0
    0.6442    1.2111   -0.2253 H   0  0  0  0  0  0  0  0  0  0  0  0
   -0.8903   -0.2393   -1.7664 H   0  0  0  0  0  0  0  0  0  0  0  0
   -0.4439   -2.4582   -0.2642 H   0  0  0  0  0  0  0  0  0  0  0  0
   -2.1743   -1.8786   -0.1788 H   0  0  0  0  0  0  0  0  0  0  0  0
   -0.3108    0.7114    2.0328 H   0  0  0  0  0  0  0  0  0  0  0  0
   -2.5858    0.3733    0.3898 H   0  0  0  0  0  0  0  0  0  0  0  0
   -1.4944    2.2605   -0.9994 H   0  0  0  0  0  0  0  0  0  0  0  0
  1  2  1  0
  2  3  1  0
  3  4  1  0
  4  5  1  0
  5  6  1  0
  6  7  1  0
  7  8  1  0
  8  9  1  0
  7  3  1  0
  8  4  1  0
  1 10  1  0
  1 11  1  0
  1 12  1  0
  3 13  1  0
  4 14  1  0
  5 15  1  0
  5 16  1  0
  7 17  1  0
  8 18  1  0
  9 19  1  0
M  END
