
     RDKit          3D

 23 24  0  0  0  0  0  0  0  0999 V2000
    2.6886   -0.5517   -0.2400 C   0  0  0  0  0  0  0  0  0  0  0  0
    1.7122   -0.5216    0.7041 O   0  0  0  0  0  0  0  0  0  0  0  0
    0.5044   -0.0869    0.3615 C   0  0  0  0  0  0  0  0  0  0  0  0
    0.3643    1.3032   -0.1559 C   0  0  0  0  0  0  0  0  0  0  0  0
   -1.0891    1.2799   -0.6490 C   0  0  0  0  0  0  0  0  0  0  0  0
   -1.5182   -0.1549   -0.6514 C   0  0  0  0  0  0  0  0  0  0  0  0
   -1.8530   -0.5165    0.7773 C   0  0  0  0  0  0  0  0  0  0  0  0
   -0.5085   -0.2934    1.4548 C   0  0  0  0  0  0  0  0  0  0  0  0
   -0.1581   -0.8614   -0.7905 C   0  0  0  0  0  0  0  0  0  0  0  0
    2.9421    0.4229   -0.6978 H   0  0  0  0  0  0  0  0  0  0  0  0
    2.4406   -1.3176   -1.0036 H   0  0  0  0  0  0  0  0  0  0  0  0
    3.6382   -0.8863    0.2730 H   0  0  0  0  0  0  0  0  0  0  0  0
    0.9727    1.4567   -1.0855 H   0  0  0  0  0  0  0  0  0  0  0  0
    0.5215    2.0886    0.5939 H   0  0  0  0  0  0  0  0  0  0  0  0
   -1.6893    1.8270    0.1299 H   0  0  0  0  0  0  0  0  0  0  0  0
   -1.2078    1.7621   -1.6130 H   0  0  0  0  0  0  0  0  0  0  0  0
   -2.2337   -0.4476   -1.3882 H   0  0  0  0  0  0  0  0  0  0  0  0
   -2.6390    0.1445    1.2065 H   0  0  0  0  0  0  0  0  0  0  0  0
   -2.1196   -1.5794    0.8490 H   0  0  0  0  0  0  0  0  0  0  0  0
   -0.2369   -1.1292    2.1253 H   0  0  0  0  0  0  0  0  0  0  0  0
   -0.5605    0.6255    2.1032 H   0  0  0  0  0  0  0  0  0  0  0  0
   -0.2759   -1.9234   -0.5510 H   0  0  0  0  0  0  0  0  0  0  0  0
    0.3051   -0.6403   -1.7525 H   0  0  0  0  0  0  0  0  0  0  0  0
  1  2  1  0
  2  3  1  0
  3  4  1  0
  4  5  1  0
  5  6  1  0
  6  7  1  0
  7  8  1  0
  6  9  1  0
  8  3  1  0
  9  3  1  0
  1 10  1  0
  1 11  1  0
  1 12  1  0
  4 13  1  0
  4 14  1  0
  5 15  1  0
  5 16  1  0
  6 17  1  0
  7 18  1  0
  7 19  1  0
  8 20  1  0
  8 21  1  0
  9 22  1  0
  9 23  1  0
M  END
