
     RDKit          3D

 16 17  0  0  0  0  0  0  0  0999 V2000
    2.4852   -0.2499   -0.0622 C   0  0  0  0  0  0  0  0  0  0  0  0
    1.4115    0.5994    0.1435 O   0  0  0  0  0  0  0  0  0  0  0  0
    0.1926    0.0369   -0.0239 C   0  0  0  0  0  0  0  0  0  0  0  0
   -0.7097    0.1984    1.2005 C   0  0  0  0  0  0  0  0  0  0  0  0
   -1.9450    0.0174    0.7550 C   0  0  0  0  0  0  0  0  0  0  0  0
   -1.8910   -0.2503   -0.6557 C   0  0  0  0  0  0  0  0  0  0  0  0
   -1.7005    0.4210   -1.7542 O   0  0  0  0  0  0  0  0  0  0  0  0
   -0.7413    0.7656   -0.9545 C   0  0  0  0  0  0  0  0  0  0  0  0
    2.5210   -1.1165    0.5903 H   0  0  0  0  0  0  0  0  0  0  0  0
    3.4447    0.2871   -0.0453 H   0  0  0  0  0  0  0  0  0  0  0  0
    2.3760   -0.6312   -1.1203 H   0  0  0  0  0  0  0  0  0  0  0  0
    0.2301   -1.0281   -0.3031 H   0  0  0  0  0  0  0  0  0  0  0  0
   -0.3429    0.4162    2.1991 H   0  0  0  0  0  0  0  0  0  0  0  0
   -2.8169    0.0702    1.3775 H   0  0  0  0  0  0  0  0  0  0  0  0
   -1.6052   -1.3470   -0.8109 H   0  0  0  0  0  0  0  0  0  0  0  0
   -0.9086    1.8109   -0.5358 H   0  0  0  0  0  0  0  0  0  0  0  0
  1  2  1  0
  2  3  1  0
  3  4  1  0
  4  5  2  0
  5  6  1  0
  6  7  1  0
  7  8  1  0
  8  3  1  0
  8  6  1  0
  1  9  1  0
  1 10  1  0
  1 11  1  0
  3 12  1  0
  4 13  1  0
  5 14  1  0
  6 15  1  0
  8 16  1  0
M  END
