
     RDKit          3D

 17 17  0  0  0  0  0  0  0  0999 V2000
   -2.8994   -0.3994   -0.3703 C   0  0  0  0  0  0  0  0  0  0  0  0
   -1.9393    0.2666    0.3910 O   0  0  0  0  0  0  0  0  0  0  0  0
   -0.6579   -0.1824    0.1488 C   0  0  0  0  0  0  0  0  0  0  0  0
    0.2707    0.8572   -0.2919 C   0  0  0  0  0  0  0  0  0  0  0  0
    1.4809    0.4757    0.0837 C   0  0  0  0  0  0  0  0  0  0  0  0
    2.7171    1.1824   -0.1329 C   0  0  0  0  0  0  0  0  0  0  0  0
    3.7921    0.7097    0.2740 O   0  0  0  0  0  0  0  0  0  0  0  0
    1.2816   -0.8438    0.7837 C   0  0  0  0  0  0  0  0  0  0  0  0
   -0.0328   -0.6848    1.2864 O   0  0  0  0  0  0  0  0  0  0  0  0
   -3.8870    0.0178   -0.1169 H   0  0  0  0  0  0  0  0  0  0  0  0
   -2.9265   -1.4892   -0.1650 H   0  0  0  0  0  0  0  0  0  0  0  0
   -2.6610   -0.1909   -1.4403 H   0  0  0  0  0  0  0  0  0  0  0  0
   -0.6242   -1.0038   -0.6189 H   0  0  0  0  0  0  0  0  0  0  0  0
    0.1027    1.7946   -0.8280 H   0  0  0  0  0  0  0  0  0  0  0  0
    2.7298    2.1252   -0.6475 H   0  0  0  0  0  0  0  0  0  0  0  0
    1.2362   -1.6807    0.0647 H   0  0  0  0  0  0  0  0  0  0  0  0
    2.0169   -0.9540    1.5794 H   0  0  0  0  0  0  0  0  0  0  0  0
  1  2  1  0
  2  3  1  0
  3  4  1  0
  4  5  2  0
  5  6  1  0
  6  7  2  0
  5  8  1  0
  8  9  1  0
  9  3  1  0
  1 10  1  0
  1 11  1  0
  1 12  1  0
  3 13  1  0
  4 14  1  0
  6 15  1  0
  8 16  1  0
  8 17  1  0
M  END
