
     RDKit          3D

 19 20  0  0  0  0  0  0  0  0999 V2000
    3.0195    0.0248    0.0539 C   0  0  0  0  0  0  0  0  0  0  0  0
    1.8453   -0.1278   -0.6871 O   0  0  0  0  0  0  0  0  0  0  0  0
    0.7119   -0.0823    0.0863 C   0  0  0  0  0  0  0  0  0  0  0  0
   -0.3558   -1.0857   -0.2835 C   0  0  0  0  0  0  0  0  0  0  0  0
   -1.2195   -1.4900    0.7152 O   0  0  0  0  0  0  0  0  0  0  0  0
   -2.2480   -0.5713    0.7927 C   0  0  0  0  0  0  0  0  0  0  0  0
   -1.7503    0.7316    0.2463 C   0  0  0  0  0  0  0  0  0  0  0  0
   -0.5464    0.3359   -0.5680 C   0  0  0  0  0  0  0  0  0  0  0  0
   -0.4477    0.8251   -1.8534 O   0  0  0  0  0  0  0  0  0  0  0  0
    3.0175    1.0102    0.5815 H   0  0  0  0  0  0  0  0  0  0  0  0
    3.0568   -0.8306    0.7739 H   0  0  0  0  0  0  0  0  0  0  0  0
    3.8660   -0.0678   -0.6480 H   0  0  0  0  0  0  0  0  0  0  0  0
    0.8895    0.0660    1.1648 H   0  0  0  0  0  0  0  0  0  0  0  0
   -0.1947   -1.7493   -1.1645 H   0  0  0  0  0  0  0  0  0  0  0  0
   -2.4874   -0.4023    1.8751 H   0  0  0  0  0  0  0  0  0  0  0  0
   -3.1053   -0.9634    0.2292 H   0  0  0  0  0  0  0  0  0  0  0  0
   -2.5170    1.1658   -0.4256 H   0  0  0  0  0  0  0  0  0  0  0  0
   -1.5213    1.4858    1.0167 H   0  0  0  0  0  0  0  0  0  0  0  0
   -0.0132    1.7255   -1.9055 H   0  0  0  0  0  0  0  0  0  0  0  0
  1  2  1  0
  2  3  1  0
  3  4  1  0
  4  5  1  0
  5  6  1  0
  6  7  1  0
  7  8  1  0
  8  9  1  0
  8  3  1  0
  8  4  1  0
  1 10  1  0
  1 11  1  0
  1 12  1  0
  3 13  1  0
  4 14  1  0
  6 15  1  0
  6 16  1  0
  7 17  1  0
  7 18  1  0
  9 19  1  0
M  END
