
     RDKit          3D

 19 21  0  0  0  0  0  0  0  0999 V2000
    2.4222    0.6010   -0.0140 C   0  0  0  0  0  0  0  0  0  0  0  0
    1.5781   -0.0510    0.8883 O   0  0  0  0  0  0  0  0  0  0  0  0
    0.3552   -0.2390    0.2441 C   0  0  0  0  0  0  0  0  0  0  0  0
    0.3644   -1.0397   -0.9898 C   0  0  0  0  0  0  0  0  0  0  0  0
   -0.3314   -1.5480    0.2578 C   0  0  0  0  0  0  0  0  0  0  0  0
   -1.6848   -1.3549    0.2457 O   0  0  0  0  0  0  0  0  0  0  0  0
   -1.9778   -0.0734    0.6106 C   0  0  0  0  0  0  0  0  0  0  0  0
   -1.8267    1.0621   -0.3347 C   0  0  0  0  0  0  0  0  0  0  0  0
   -0.7160    0.7440    0.5681 C   0  0  0  0  0  0  0  0  0  0  0  0
    2.5932    0.0368   -0.9350 H   0  0  0  0  0  0  0  0  0  0  0  0
    3.3873    0.7773    0.4933 H   0  0  0  0  0  0  0  0  0  0  0  0
    1.9304    1.5762   -0.2435 H   0  0  0  0  0  0  0  0  0  0  0  0
    1.2936   -1.5858   -1.2201 H   0  0  0  0  0  0  0  0  0  0  0  0
   -0.2367   -0.7927   -1.8750 H   0  0  0  0  0  0  0  0  0  0  0  0
    0.1353   -2.3444    0.8535 H   0  0  0  0  0  0  0  0  0  0  0  0
   -2.6699    0.0305    1.4742 H   0  0  0  0  0  0  0  0  0  0  0  0
   -2.4174    1.9663   -0.0862 H   0  0  0  0  0  0  0  0  0  0  0  0
   -1.6437    0.8801   -1.4167 H   0  0  0  0  0  0  0  0  0  0  0  0
   -0.5554    1.3546    1.4794 H   0  0  0  0  0  0  0  0  0  0  0  0
  1  2  1  0
  2  3  1  0
  3  4  1  0
  4  5  1  0
  5  6  1  0
  6  7  1  0
  7  8  1  0
  8  9  1  0
  5  3  1  0
  9  7  1  0
  9  3  1  0
  1 10  1  0
  1 11  1  0
  1 12  1  0
  4 13  1  0
  4 14  1  0
  5 15  1  0
  7 16  1  0
  8 17  1  0
  8 18  1  0
  9 19  1  0
M  END
