
     RDKit          3D

 19 19  0  0  0  0  0  0  0  0999 V2000
    2.3919   -0.9741    0.2188 C   0  0  0  0  0  0  0  0  0  0  0  0
    1.4349   -0.0266    0.5273 O   0  0  0  0  0  0  0  0  0  0  0  0
    0.3027   -0.0992   -0.2529 C   0  0  0  0  0  0  0  0  0  0  0  0
    0.0286    1.2574   -0.9095 C   0  0  0  0  0  0  0  0  0  0  0  0
   -0.4601    2.0317    0.2721 C   0  0  0  0  0  0  0  0  0  0  0  0
   -0.1862    3.2348    0.4608 O   0  0  0  0  0  0  0  0  0  0  0  0
   -1.2121    1.1533    1.0142 O   0  0  0  0  0  0  0  0  0  0  0  0
   -0.8890   -0.1991    0.6843 C   0  0  0  0  0  0  0  0  0  0  0  0
   -2.0643   -0.8749    0.0635 C   0  0  0  0  0  0  0  0  0  0  0  0
    2.7494   -0.8933   -0.8257 H   0  0  0  0  0  0  0  0  0  0  0  0
    2.0684   -2.0146    0.4450 H   0  0  0  0  0  0  0  0  0  0  0  0
    3.2712   -0.7772    0.8656 H   0  0  0  0  0  0  0  0  0  0  0  0
    0.3161   -0.8968   -1.0099 H   0  0  0  0  0  0  0  0  0  0  0  0
   -0.8065    1.1603   -1.6065 H   0  0  0  0  0  0  0  0  0  0  0  0
    0.9105    1.6851   -1.3754 H   0  0  0  0  0  0  0  0  0  0  0  0
   -0.5923   -0.6877    1.6362 H   0  0  0  0  0  0  0  0  0  0  0  0
   -2.9337   -0.1610    0.0298 H   0  0  0  0  0  0  0  0  0  0  0  0
   -2.4148   -1.7102    0.7350 H   0  0  0  0  0  0  0  0  0  0  0  0
   -1.9145   -1.2078   -0.9728 H   0  0  0  0  0  0  0  0  0  0  0  0
  1  2  1  0
  2  3  1  0
  3  4  1  0
  4  5  1  0
  5  6  2  0
  5  7  1  0
  7  8  1  0
  8  9  1  0
  8  3  1  0
  1 10  1  0
  1 11  1  0
  1 12  1  0
  3 13  1  0
  4 14  1  0
  4 15  1  0
  8 16  1  0
  9 17  1  0
  9 18  1  0
  9 19  1  0
M  END
