
     RDKit          3D

 16 16  0  0  0  0  0  0  0  0999 V2000
   -2.1994    0.8988    0.1830 C   0  0  0  0  0  0  0  0  0  0  0  0
   -0.8735    0.9372   -0.2509 O   0  0  0  0  0  0  0  0  0  0  0  0
   -0.2149   -0.2263    0.0599 C   0  0  0  0  0  0  0  0  0  0  0  0
    0.4563   -0.8714   -1.1219 C   0  0  0  0  0  0  0  0  0  0  0  0
    1.8053   -0.7691   -0.9827 O   0  0  0  0  0  0  0  0  0  0  0  0
    2.1405   -0.1211    0.1576 C   0  0  0  0  0  0  0  0  0  0  0  0
    0.9150    0.1159    0.9557 C   0  0  0  0  0  0  0  0  0  0  0  0
    0.7832    0.5005    2.0868 O   0  0  0  0  0  0  0  0  0  0  0  0
   -2.2238    0.7605    1.2921 H   0  0  0  0  0  0  0  0  0  0  0  0
   -2.6989    1.8431   -0.1171 H   0  0  0  0  0  0  0  0  0  0  0  0
   -2.6885    0.0606   -0.3532 H   0  0  0  0  0  0  0  0  0  0  0  0
   -0.9186   -0.9019    0.5818 H   0  0  0  0  0  0  0  0  0  0  0  0
    0.1943   -1.9691   -1.0664 H   0  0  0  0  0  0  0  0  0  0  0  0
    0.0913   -0.4535   -2.0912 H   0  0  0  0  0  0  0  0  0  0  0  0
    2.8531   -0.6818    0.7866 H   0  0  0  0  0  0  0  0  0  0  0  0
    2.5786    0.8774   -0.1199 H   0  0  0  0  0  0  0  0  0  0  0  0
  1  2  1  0
  2  3  1  0
  3  4  1  0
  4  5  1  0
  5  6  1  0
  6  7  1  0
  7  8  2  0
  7  3  1  0
  1  9  1  0
  1 10  1  0
  1 11  1  0
  3 12  1  0
  4 13  1  0
  4 14  1  0
  6 15  1  0
  6 16  1  0
M  END
