
     RDKit          3D

 25 25  0  0  0  0  0  0  0  0999 V2000
    3.3741    0.2405   -0.2542 C   0  0  0  0  0  0  0  0  0  0  0  0
    2.3359   -0.5982    0.1193 O   0  0  0  0  0  0  0  0  0  0  0  0
    1.1077    0.0217    0.1346 C   0  0  0  0  0  0  0  0  0  0  0  0
    0.4203   -0.0979    1.4802 C   0  0  0  0  0  0  0  0  0  0  0  0
   -1.0360    0.0352    1.1755 C   0  0  0  0  0  0  0  0  0  0  0  0
   -1.2022   -0.0661   -0.3165 C   0  0  0  0  0  0  0  0  0  0  0  0
   -2.3230   -1.0023   -0.7169 C   0  0  0  0  0  0  0  0  0  0  0  0
   -1.4376    1.2756   -0.9579 C   0  0  0  0  0  0  0  0  0  0  0  0
    0.0959   -0.6945   -0.7537 C   0  0  0  0  0  0  0  0  0  0  0  0
    4.3104   -0.3616   -0.2316 H   0  0  0  0  0  0  0  0  0  0  0  0
    3.2748    0.6022   -1.3037 H   0  0  0  0  0  0  0  0  0  0  0  0
    3.5235    1.0941    0.4254 H   0  0  0  0  0  0  0  0  0  0  0  0
    1.2160    1.0890   -0.1636 H   0  0  0  0  0  0  0  0  0  0  0  0
    0.6515   -1.1330    1.8606 H   0  0  0  0  0  0  0  0  0  0  0  0
    0.8126    0.6799    2.1615 H   0  0  0  0  0  0  0  0  0  0  0  0
   -1.5988   -0.8193    1.6207 H   0  0  0  0  0  0  0  0  0  0  0  0
   -1.4578    0.9914    1.5871 H   0  0  0  0  0  0  0  0  0  0  0  0
   -2.6354   -1.5691    0.1651 H   0  0  0  0  0  0  0  0  0  0  0  0
   -1.9896   -1.6984   -1.5371 H   0  0  0  0  0  0  0  0  0  0  0  0
   -3.2152   -0.4439   -1.1018 H   0  0  0  0  0  0  0  0  0  0  0  0
   -1.6053    1.1388   -2.0275 H   0  0  0  0  0  0  0  0  0  0  0  0
   -0.6356    1.9936   -0.7336 H   0  0  0  0  0  0  0  0  0  0  0  0
   -2.3799    1.6799   -0.5075 H   0  0  0  0  0  0  0  0  0  0  0  0
    0.0822   -1.7526   -0.4455 H   0  0  0  0  0  0  0  0  0  0  0  0
    0.3116   -0.6051   -1.8124 H   0  0  0  0  0  0  0  0  0  0  0  0
  1  2  1  0
  2  3  1  0
  3  4  1  0
  4  5  1  0
  5  6  1  0
  6  7  1  0
  6  8  1  0
  6  9  1  0
  9  3  1  0
  1 10  1  0
  1 11  1  0
  1 12  1  0
  3 13  1  0
  4 14  1  0
  4 15  1  0
  5 16  1  0
  5 17  1  0
  7 18  1  0
  7 19  1  0
  7 20  1  0
  8 21  1  0
  8 22  1  0
  8 23  1  0
  9 24  1  0
  9 25  1  0
M  END
