
     RDKit          3D

 17 17  0  0  0  0  0  0  0  0999 V2000
    2.4793   -0.1183    0.4828 C   0  0  0  0  0  0  0  0  0  0  0  0
    1.3945   -0.7338   -0.1404 O   0  0  0  0  0  0  0  0  0  0  0  0
    0.2322   -0.0444    0.0511 C   0  0  0  0  0  0  0  0  0  0  0  0
   -0.4449    0.3758   -1.2366 C   0  0  0  0  0  0  0  0  0  0  0  0
   -1.7631    0.8250   -0.7364 C   0  0  0  0  0  0  0  0  0  0  0  0
   -2.4494    1.7403   -1.2315 O   0  0  0  0  0  0  0  0  0  0  0  0
   -2.0584   -0.0107    0.4138 C   0  0  0  0  0  0  0  0  0  0  0  0
   -3.1221    0.0106    1.0785 O   0  0  0  0  0  0  0  0  0  0  0  0
   -0.8695   -0.9059    0.6709 C   0  0  0  0  0  0  0  0  0  0  0  0
    2.3736   -0.0168    1.5618 H   0  0  0  0  0  0  0  0  0  0  0  0
    3.4082   -0.6682    0.2377 H   0  0  0  0  0  0  0  0  0  0  0  0
    2.6072    0.9046    0.0425 H   0  0  0  0  0  0  0  0  0  0  0  0
    0.3630    0.8690    0.6607 H   0  0  0  0  0  0  0  0  0  0  0  0
    0.1062    1.1730   -1.7656 H   0  0  0  0  0  0  0  0  0  0  0  0
   -0.5622   -0.5322   -1.8607 H   0  0  0  0  0  0  0  0  0  0  0  0
   -0.9732   -1.7855    0.0406 H   0  0  0  0  0  0  0  0  0  0  0  0
   -0.7213   -1.0824    1.7306 H   0  0  0  0  0  0  0  0  0  0  0  0
  1  2  1  0
  2  3  1  0
  3  4  1  0
  4  5  1  0
  5  6  2  0
  5  7  1  0
  7  8  2  0
  7  9  1  0
  9  3  1  0
  1 10  1  0
  1 11  1  0
  1 12  1  0
  3 13  1  0
  4 14  1  0
  4 15  1  0
  9 16  1  0
  9 17  1  0
M  END
