
     RDKit          3D

 19 19  0  0  0  0  0  0  0  0999 V2000
    2.4351   -0.2780   -0.1711 C   0  0  0  0  0  0  0  0  0  0  0  0
    1.3156   -0.1363   -0.9627 O   0  0  0  0  0  0  0  0  0  0  0  0
    0.1631    0.1060   -0.2475 C   0  0  0  0  0  0  0  0  0  0  0  0
    0.2360    1.3621    0.5832 C   0  0  0  0  0  0  0  0  0  0  0  0
   -0.9309    0.3231   -1.2468 C   0  0  0  0  0  0  0  0  0  0  0  0
   -2.0505   -0.2445   -0.8382 C   0  0  0  0  0  0  0  0  0  0  0  0
   -1.8323   -0.9050    0.4796 C   0  0  0  0  0  0  0  0  0  0  0  0
   -0.3667   -1.0466    0.4965 C   0  0  0  0  0  0  0  0  0  0  0  0
    0.2564   -1.9235    1.0127 O   0  0  0  0  0  0  0  0  0  0  0  0
    2.3866   -1.1096    0.5594 H   0  0  0  0  0  0  0  0  0  0  0  0
    3.3597   -0.4323   -0.7515 H   0  0  0  0  0  0  0  0  0  0  0  0
    2.5959    0.6472    0.4529 H   0  0  0  0  0  0  0  0  0  0  0  0
   -0.6743    1.9921    0.4698 H   0  0  0  0  0  0  0  0  0  0  0  0
    0.3758    1.1531    1.6638 H   0  0  0  0  0  0  0  0  0  0  0  0
    1.0805    1.9879    0.1927 H   0  0  0  0  0  0  0  0  0  0  0  0
   -0.7964    0.8672   -2.1582 H   0  0  0  0  0  0  0  0  0  0  0  0
   -2.9690   -0.2136   -1.4030 H   0  0  0  0  0  0  0  0  0  0  0  0
   -2.2164   -0.2802    1.3132 H   0  0  0  0  0  0  0  0  0  0  0  0
   -2.3683   -1.8691    0.5554 H   0  0  0  0  0  0  0  0  0  0  0  0
  1  2  1  0
  2  3  1  0
  3  4  1  0
  3  5  1  0
  5  6  2  0
  6  7  1  0
  7  8  1  0
  8  9  2  0
  8  3  1  0
  1 10  1  0
  1 11  1  0
  1 12  1  0
  4 13  1  0
  4 14  1  0
  4 15  1  0
  5 16  1  0
  6 17  1  0
  7 18  1  0
  7 19  1  0
M  END
