
     RDKit          3D

 19 19  0  0  0  0  0  0  0  0999 V2000
   -2.9572   -0.0707   -0.1788 C   0  0  0  0  0  0  0  0  0  0  0  0
   -1.6473   -0.0048   -0.5967 O   0  0  0  0  0  0  0  0  0  0  0  0
   -0.8106   -0.1753    0.4767 C   0  0  0  0  0  0  0  0  0  0  0  0
    0.2222    0.9148    0.6673 C   0  0  0  0  0  0  0  0  0  0  0  0
    1.2645   -0.0699    0.1346 C   0  0  0  0  0  0  0  0  0  0  0  0
    1.6730    0.3424   -1.1441 O   0  0  0  0  0  0  0  0  0  0  0  0
    3.0223    0.5212   -1.3962 C   0  0  0  0  0  0  0  0  0  0  0  0
    3.8148    0.2993   -0.4470 O   0  0  0  0  0  0  0  0  0  0  0  0
    0.2800   -1.1875    0.2021 C   0  0  0  0  0  0  0  0  0  0  0  0
   -3.1293   -1.0741    0.2826 H   0  0  0  0  0  0  0  0  0  0  0  0
   -3.2489    0.7607    0.4999 H   0  0  0  0  0  0  0  0  0  0  0  0
   -3.6314   -0.0125   -1.0583 H   0  0  0  0  0  0  0  0  0  0  0  0
   -1.3606   -0.3243    1.4169 H   0  0  0  0  0  0  0  0  0  0  0  0
    0.4065    1.2128    1.7205 H   0  0  0  0  0  0  0  0  0  0  0  0
    0.0649    1.8010    0.0465 H   0  0  0  0  0  0  0  0  0  0  0  0
    2.0831   -0.2264    0.8710 H   0  0  0  0  0  0  0  0  0  0  0  0
    3.3956    0.8426   -2.3791 H   0  0  0  0  0  0  0  0  0  0  0  0
    0.1713   -1.6627   -0.8109 H   0  0  0  0  0  0  0  0  0  0  0  0
    0.3873   -1.8866    1.0359 H   0  0  0  0  0  0  0  0  0  0  0  0
  1  2  1  0
  2  3  1  0
  3  4  1  0
  4  5  1  0
  5  6  1  0
  6  7  1  0
  7  8  2  0
  5  9  1  0
  9  3  1  0
  1 10  1  0
  1 11  1  0
  1 12  1  0
  3 13  1  0
  4 14  1  0
  4 15  1  0
  5 16  1  0
  7 17  1  0
  9 18  1  0
  9 19  1  0
M  END
