
     RDKit          3D

 19 21  0  0  0  0  0  0  0  0999 V2000
    2.5579   -0.3998    0.1497 C   0  0  0  0  0  0  0  0  0  0  0  0
    1.5306   -0.0068    0.9558 O   0  0  0  0  0  0  0  0  0  0  0  0
    0.3156    0.1004    0.3981 C   0  0  0  0  0  0  0  0  0  0  0  0
   -0.9173    0.5113    1.1089 C   0  0  0  0  0  0  0  0  0  0  0  0
   -1.8120   -0.6692    0.8878 C   0  0  0  0  0  0  0  0  0  0  0  0
   -1.3884   -1.3512   -0.1670 C   0  0  0  0  0  0  0  0  0  0  0  0
   -0.1846   -0.6994   -0.7446 C   0  0  0  0  0  0  0  0  0  0  0  0
   -0.0922    0.7838   -0.7954 C   0  0  0  0  0  0  0  0  0  0  0  0
   -1.1612    1.5130   -0.0146 C   0  0  0  0  0  0  0  0  0  0  0  0
    2.4284   -1.3939   -0.3170 H   0  0  0  0  0  0  0  0  0  0  0  0
    3.4822   -0.4725    0.7932 H   0  0  0  0  0  0  0  0  0  0  0  0
    2.7243    0.3952   -0.6122 H   0  0  0  0  0  0  0  0  0  0  0  0
   -0.8634    0.9068    2.1104 H   0  0  0  0  0  0  0  0  0  0  0  0
   -2.6773   -0.9522    1.4762 H   0  0  0  0  0  0  0  0  0  0  0  0
   -1.8519   -2.2449   -0.5452 H   0  0  0  0  0  0  0  0  0  0  0  0
    0.5124   -1.2841   -1.3415 H   0  0  0  0  0  0  0  0  0  0  0  0
    0.5119    1.2718   -1.5439 H   0  0  0  0  0  0  0  0  0  0  0  0
   -0.9544    2.5588    0.2340 H   0  0  0  0  0  0  0  0  0  0  0  0
   -2.1607    1.4330   -0.4839 H   0  0  0  0  0  0  0  0  0  0  0  0
  1  2  1  0
  2  3  1  0
  3  4  1  0
  4  5  1  0
  5  6  2  0
  6  7  1  0
  7  8  1  0
  8  9  1  0
  7  3  1  0
  8  3  1  0
  9  4  1  0
  1 10  1  0
  1 11  1  0
  1 12  1  0
  4 13  1  0
  5 14  1  0
  6 15  1  0
  7 16  1  0
  8 17  1  0
  9 18  1  0
  9 19  1  0
M  END
