
     RDKit          3D

 21 22  0  0  0  0  0  0  0  0999 V2000
    2.6321    0.4304    0.9692 C   0  0  0  0  0  0  0  0  0  0  0  0
    1.5071   -0.2504    1.2160 O   0  0  0  0  0  0  0  0  0  0  0  0
    0.4509   -0.0872    0.3131 C   0  0  0  0  0  0  0  0  0  0  0  0
   -0.7329   -0.8906    0.7422 C   0  0  0  0  0  0  0  0  0  0  0  0
   -1.9603   -0.8887   -0.0630 C   0  0  0  0  0  0  0  0  0  0  0  0
   -2.7813    0.3000   -0.3792 C   0  0  0  0  0  0  0  0  0  0  0  0
   -1.9537   -0.2587   -1.3108 O   0  0  0  0  0  0  0  0  0  0  0  0
    0.4145    1.0128   -0.6154 C   0  0  0  0  0  0  0  0  0  0  0  0
    0.9059   -0.3254   -1.1366 C   0  0  0  0  0  0  0  0  0  0  0  0
    3.3799    0.1991    1.7852 H   0  0  0  0  0  0  0  0  0  0  0  0
    2.4444    1.5359    1.0932 H   0  0  0  0  0  0  0  0  0  0  0  0
    3.1708    0.3092    0.0442 H   0  0  0  0  0  0  0  0  0  0  0  0
   -1.0406   -0.5993    1.8068 H   0  0  0  0  0  0  0  0  0  0  0  0
   -0.3547   -1.9562    0.9137 H   0  0  0  0  0  0  0  0  0  0  0  0
   -2.5771   -1.8551   -0.0341 H   0  0  0  0  0  0  0  0  0  0  0  0
   -2.4874    1.2290    0.1263 H   0  0  0  0  0  0  0  0  0  0  0  0
   -3.8641    0.1689   -0.6040 H   0  0  0  0  0  0  0  0  0  0  0  0
    1.1602    1.8561   -0.5908 H   0  0  0  0  0  0  0  0  0  0  0  0
   -0.5005    1.3473   -1.1033 H   0  0  0  0  0  0  0  0  0  0  0  0
    1.9555   -0.3458   -1.3995 H   0  0  0  0  0  0  0  0  0  0  0  0
    0.2310   -0.9313   -1.7734 H   0  0  0  0  0  0  0  0  0  0  0  0
  1  2  1  0
  2  3  1  0
  3  4  1  0
  4  5  1  0
  5  6  1  0
  6  7  1  0
  3  8  1  0
  8  9  1  0
  9  3  1  0
  7  5  1  0
  1 10  1  0
  1 11  1  0
  1 12  1  0
  4 13  1  0
  4 14  1  0
  5 15  1  0
  6 16  1  0
  6 17  1  0
  8 18  1  0
  8 19  1  0
  9 20  1  0
  9 21  1  0
M  END
