
     RDKit          3D

 19 22  0  0  0  0  0  0  0  0999 V2000
    2.6602    0.0111    0.1253 C   0  0  0  0  0  0  0  0  0  0  0  0
    1.6298    0.2780    1.0181 O   0  0  0  0  0  0  0  0  0  0  0  0
    0.3870    0.1793    0.4975 C   0  0  0  0  0  0  0  0  0  0  0  0
   -0.1597    0.9412   -0.6061 C   0  0  0  0  0  0  0  0  0  0  0  0
   -1.6550    1.0783   -0.4066 C   0  0  0  0  0  0  0  0  0  0  0  0
   -1.9601   -0.1522    0.4362 C   0  0  0  0  0  0  0  0  0  0  0  0
   -1.0874   -1.1792   -0.1244 C   0  0  0  0  0  0  0  0  0  0  0  0
   -0.7441   -0.5158    1.1594 C   0  0  0  0  0  0  0  0  0  0  0  0
    0.0556   -0.4891   -0.7738 C   0  0  0  0  0  0  0  0  0  0  0  0
    2.5840   -1.0371   -0.2857 H   0  0  0  0  0  0  0  0  0  0  0  0
    3.6285    0.1306    0.6550 H   0  0  0  0  0  0  0  0  0  0  0  0
    2.5426    0.7273   -0.7170 H   0  0  0  0  0  0  0  0  0  0  0  0
    0.3788    1.6297   -1.2508 H   0  0  0  0  0  0  0  0  0  0  0  0
   -1.9531    2.0084    0.0740 H   0  0  0  0  0  0  0  0  0  0  0  0
   -2.1194    0.9254   -1.4056 H   0  0  0  0  0  0  0  0  0  0  0  0
   -2.9660   -0.3204    0.8152 H   0  0  0  0  0  0  0  0  0  0  0  0
   -1.3075   -2.2276   -0.2296 H   0  0  0  0  0  0  0  0  0  0  0  0
   -0.6833   -1.0201    2.1081 H   0  0  0  0  0  0  0  0  0  0  0  0
    0.7690   -0.9677   -1.4217 H   0  0  0  0  0  0  0  0  0  0  0  0
  1  2  1  0
  2  3  1  0
  3  4  1  0
  4  5  1  0
  5  6  1  0
  6  7  1  0
  7  8  1  0
  7  9  1  0
  8  3  1  0
  9  3  1  0
  9  4  1  0
  8  6  1  0
  1 10  1  0
  1 11  1  0
  1 12  1  0
  4 13  1  0
  5 14  1  0
  5 15  1  0
  6 16  1  0
  7 17  1  0
  8 18  1  0
  9 19  1  0
M  END
