
     RDKit          3D

 22 22  0  0  0  0  0  0  0  0999 V2000
    2.9918    0.0570   -0.1407 C   0  0  0  0  0  0  0  0  0  0  0  0
    1.7147    0.1672   -0.6393 O   0  0  0  0  0  0  0  0  0  0  0  0
    0.7331   -0.4015    0.1078 C   0  0  0  0  0  0  0  0  0  0  0  0
   -0.2057   -1.3575   -0.5631 C   0  0  0  0  0  0  0  0  0  0  0  0
   -1.2662   -0.2954   -0.5263 C   0  0  0  0  0  0  0  0  0  0  0  0
   -2.5845   -0.7359    0.0772 C   0  0  0  0  0  0  0  0  0  0  0  0
   -0.4400    0.5078    0.4400 C   0  0  0  0  0  0  0  0  0  0  0  0
   -0.2420    1.9510    0.0508 C   0  0  0  0  0  0  0  0  0  0  0  0
    3.2816   -1.0255   -0.0357 H   0  0  0  0  0  0  0  0  0  0  0  0
    3.6928    0.4704   -0.8961 H   0  0  0  0  0  0  0  0  0  0  0  0
    3.1283    0.5782    0.8453 H   0  0  0  0  0  0  0  0  0  0  0  0
    1.1538   -0.8732    1.0255 H   0  0  0  0  0  0  0  0  0  0  0  0
   -0.5222   -2.2208    0.0694 H   0  0  0  0  0  0  0  0  0  0  0  0
    0.0988   -1.7103   -1.5717 H   0  0  0  0  0  0  0  0  0  0  0  0
   -1.4336    0.1275   -1.5168 H   0  0  0  0  0  0  0  0  0  0  0  0
   -2.4075   -1.1145    1.1198 H   0  0  0  0  0  0  0  0  0  0  0  0
   -3.2832    0.1052    0.1228 H   0  0  0  0  0  0  0  0  0  0  0  0
   -2.9486   -1.5881   -0.4999 H   0  0  0  0  0  0  0  0  0  0  0  0
   -0.8076    0.3896    1.4857 H   0  0  0  0  0  0  0  0  0  0  0  0
    0.8012    2.2816    0.0955 H   0  0  0  0  0  0  0  0  0  0  0  0
   -0.8238    2.6158    0.7510 H   0  0  0  0  0  0  0  0  0  0  0  0
   -0.6313    2.0715   -0.9906 H   0  0  0  0  0  0  0  0  0  0  0  0
  1  2  1  0
  2  3  1  0
  3  4  1  0
  4  5  1  0
  5  6  1  0
  5  7  1  0
  7  8  1  0
  7  3  1  0
  1  9  1  0
  1 10  1  0
  1 11  1  0
  3 12  1  0
  4 13  1  0
  4 14  1  0
  5 15  1  0
  6 16  1  0
  6 17  1  0
  6 18  1  0
  7 19  1  0
  8 20  1  0
  8 21  1  0
  8 22  1  0
M  END
