
     RDKit          3D

 15 15  0  0  0  0  0  0  0  0999 V2000
    2.5043    0.0562    0.0797 C   0  0  0  0  0  0  0  0  0  0  0  0
    1.3245    0.6629    0.5081 O   0  0  0  0  0  0  0  0  0  0  0  0
    0.1968   -0.0094    0.1470 C   0  0  0  0  0  0  0  0  0  0  0  0
   -0.6558   -0.3312    1.1683 O   0  0  0  0  0  0  0  0  0  0  0  0
   -1.8469   -0.7027    0.5446 C   0  0  0  0  0  0  0  0  0  0  0  0
   -2.0243    0.3673   -0.4862 C   0  0  0  0  0  0  0  0  0  0  0  0
   -3.0567    0.7825   -1.0408 O   0  0  0  0  0  0  0  0  0  0  0  0
   -0.6598    0.8627   -0.7313 C   0  0  0  0  0  0  0  0  0  0  0  0
   -0.2905    1.7949   -1.4939 O   0  0  0  0  0  0  0  0  0  0  0  0
    2.4476    0.0131   -1.0359 H   0  0  0  0  0  0  0  0  0  0  0  0
    2.6713   -0.9358    0.5001 H   0  0  0  0  0  0  0  0  0  0  0  0
    3.3847    0.6926    0.3038 H   0  0  0  0  0  0  0  0  0  0  0  0
    0.4584   -0.9263   -0.4297 H   0  0  0  0  0  0  0  0  0  0  0  0
   -2.6769   -0.6432    1.2923 H   0  0  0  0  0  0  0  0  0  0  0  0
   -1.7770   -1.6838    0.0536 H   0  0  0  0  0  0  0  0  0  0  0  0
  1  2  1  0
  2  3  1  0
  3  4  1  0
  4  5  1  0
  5  6  1  0
  6  7  2  0
  6  8  1  0
  8  9  2  0
  8  3  1  0
  1 10  1  0
  1 11  1  0
  1 12  1  0
  3 13  1  0
  5 14  1  0
  5 15  1  0
M  END
