
     RDKit          3D

 19 19  0  0  0  0  0  0  0  0999 V2000
    2.7712    0.2190   -0.2586 C   0  0  0  0  0  0  0  0  0  0  0  0
    1.6849    0.2127    0.5858 O   0  0  0  0  0  0  0  0  0  0  0  0
    0.4880   -0.0752    0.0055 C   0  0  0  0  0  0  0  0  0  0  0  0
   -0.5144    1.0695    0.0742 C   0  0  0  0  0  0  0  0  0  0  0  0
   -1.6553    0.7003   -0.8499 C   0  0  0  0  0  0  0  0  0  0  0  0
   -2.1012   -0.5821   -0.6748 O   0  0  0  0  0  0  0  0  0  0  0  0
   -1.7152   -1.1601    0.5261 C   0  0  0  0  0  0  0  0  0  0  0  0
   -0.2088   -1.2588    0.5344 C   0  0  0  0  0  0  0  0  0  0  0  0
    0.3066   -2.2594    0.9563 O   0  0  0  0  0  0  0  0  0  0  0  0
    2.6021    0.9904   -1.0509 H   0  0  0  0  0  0  0  0  0  0  0  0
    3.6605    0.5180    0.3366 H   0  0  0  0  0  0  0  0  0  0  0  0
    3.0099   -0.7631   -0.7006 H   0  0  0  0  0  0  0  0  0  0  0  0
    0.6721   -0.2510   -1.0895 H   0  0  0  0  0  0  0  0  0  0  0  0
   -0.9051    1.1109    1.0994 H   0  0  0  0  0  0  0  0  0  0  0  0
   -0.0733    2.0242   -0.2416 H   0  0  0  0  0  0  0  0  0  0  0  0
   -1.2788    0.7883   -1.9110 H   0  0  0  0  0  0  0  0  0  0  0  0
   -2.4830    1.4451   -0.7787 H   0  0  0  0  0  0  0  0  0  0  0  0
   -2.0740   -0.5711    1.3817 H   0  0  0  0  0  0  0  0  0  0  0  0
   -2.1864   -2.1576    0.5845 H   0  0  0  0  0  0  0  0  0  0  0  0
  1  2  1  0
  2  3  1  0
  3  4  1  0
  4  5  1  0
  5  6  1  0
  6  7  1  0
  7  8  1  0
  8  9  2  0
  8  3  1  0
  1 10  1  0
  1 11  1  0
  1 12  1  0
  3 13  1  0
  4 14  1  0
  4 15  1  0
  5 16  1  0
  5 17  1  0
  7 18  1  0
  7 19  1  0
M  END
