
     RDKit          3D

 19 20  0  0  0  0  0  0  0  0999 V2000
    2.7118    0.1533    0.1116 C   0  0  0  0  0  0  0  0  0  0  0  0
    1.5355   -0.5407    0.4042 O   0  0  0  0  0  0  0  0  0  0  0  0
    0.4657    0.1401   -0.1135 C   0  0  0  0  0  0  0  0  0  0  0  0
   -0.3557   -0.7352   -1.0819 C   0  0  0  0  0  0  0  0  0  0  0  0
   -1.6968   -0.5968   -0.4261 C   0  0  0  0  0  0  0  0  0  0  0  0
   -1.7513    0.8929   -0.0629 C   0  0  0  0  0  0  0  0  0  0  0  0
   -0.6082    0.4696    0.8728 C   0  0  0  0  0  0  0  0  0  0  0  0
   -1.3523   -0.8092    1.0107 C   0  0  0  0  0  0  0  0  0  0  0  0
   -1.6288   -1.6786    1.7969 O   0  0  0  0  0  0  0  0  0  0  0  0
    2.6883    1.1737    0.5519 H   0  0  0  0  0  0  0  0  0  0  0  0
    3.5941   -0.3521    0.5834 H   0  0  0  0  0  0  0  0  0  0  0  0
    2.9278    0.1651   -0.9809 H   0  0  0  0  0  0  0  0  0  0  0  0
    0.7582    1.0874   -0.6491 H   0  0  0  0  0  0  0  0  0  0  0  0
   -0.3008   -0.3649   -2.1041 H   0  0  0  0  0  0  0  0  0  0  0  0
    0.0213   -1.7714   -0.9484 H   0  0  0  0  0  0  0  0  0  0  0  0
   -2.5603   -1.0458   -0.8311 H   0  0  0  0  0  0  0  0  0  0  0  0
   -2.6286    1.1776    0.5224 H   0  0  0  0  0  0  0  0  0  0  0  0
   -1.4020    1.5680   -0.8434 H   0  0  0  0  0  0  0  0  0  0  0  0
   -0.4177    1.0670    1.7212 H   0  0  0  0  0  0  0  0  0  0  0  0
  1  2  1  0
  2  3  1  0
  3  4  1  0
  4  5  1  0
  5  6  1  0
  6  7  1  0
  7  8  1  0
  8  9  2  0
  7  3  1  0
  8  5  1  0
  1 10  1  0
  1 11  1  0
  1 12  1  0
  3 13  1  0
  4 14  1  0
  4 15  1  0
  5 16  1  0
  6 17  1  0
  6 18  1  0
  7 19  1  0
M  END
