
     RDKit          3D

 16 16  0  0  0  0  0  0  0  0999 V2000
    2.3946   -0.6374   -0.1084 C   0  0  0  0  0  0  0  0  0  0  0  0
    1.3896    0.0690   -0.7254 O   0  0  0  0  0  0  0  0  0  0  0  0
    0.2881    0.2385    0.1335 C   0  0  0  0  0  0  0  0  0  0  0  0
   -0.0971    1.6683    0.1374 C   0  0  0  0  0  0  0  0  0  0  0  0
    0.2712    2.7176    0.7384 O   0  0  0  0  0  0  0  0  0  0  0  0
   -1.0710    1.4185   -0.8201 O   0  0  0  0  0  0  0  0  0  0  0  0
   -0.9968    0.0097   -0.5607 C   0  0  0  0  0  0  0  0  0  0  0  0
   -2.1586   -0.4767    0.2242 C   0  0  0  0  0  0  0  0  0  0  0  0
    2.7474   -0.1020    0.8048 H   0  0  0  0  0  0  0  0  0  0  0  0
    3.2456   -0.7382   -0.7821 H   0  0  0  0  0  0  0  0  0  0  0  0
    2.0206   -1.6487    0.1338 H   0  0  0  0  0  0  0  0  0  0  0  0
    0.4792   -0.2263    1.0898 H   0  0  0  0  0  0  0  0  0  0  0  0
   -0.9382   -0.5062   -1.5522 H   0  0  0  0  0  0  0  0  0  0  0  0
   -2.7508   -1.2448   -0.3443 H   0  0  0  0  0  0  0  0  0  0  0  0
   -2.9036    0.3493    0.4154 H   0  0  0  0  0  0  0  0  0  0  0  0
   -1.9201   -0.8907    1.2159 H   0  0  0  0  0  0  0  0  0  0  0  0
  1  2  1  0
  2  3  1  0
  3  4  1  0
  4  5  2  0
  4  6  1  0
  6  7  1  0
  7  8  1  0
  7  3  1  0
  1  9  1  0
  1 10  1  0
  1 11  1  0
  3 12  1  0
  7 13  1  0
  8 14  1  0
  8 15  1  0
  8 16  1  0
M  END
