
     RDKit          3D

 18 18  0  0  0  0  0  0  0  0999 V2000
    2.7665    0.5909    0.2216 C   0  0  0  0  0  0  0  0  0  0  0  0
    1.8039   -0.3526   -0.1101 O   0  0  0  0  0  0  0  0  0  0  0  0
    0.5287    0.1739   -0.1593 C   0  0  0  0  0  0  0  0  0  0  0  0
   -0.2989   -0.5413    0.8842 C   0  0  0  0  0  0  0  0  0  0  0  0
   -1.6836   -0.3904    0.2950 C   0  0  0  0  0  0  0  0  0  0  0  0
   -2.2502    0.8409    0.5600 O   0  0  0  0  0  0  0  0  0  0  0  0
   -1.3547   -0.4731   -1.1814 C   0  0  0  0  0  0  0  0  0  0  0  0
   -0.0994    0.0324   -1.3658 O   0  0  0  0  0  0  0  0  0  0  0  0
    3.7465    0.0643    0.2326 H   0  0  0  0  0  0  0  0  0  0  0  0
    2.6064    1.0425    1.2011 H   0  0  0  0  0  0  0  0  0  0  0  0
    2.8555    1.3955   -0.5364 H   0  0  0  0  0  0  0  0  0  0  0  0
    0.6298    1.2687    0.0943 H   0  0  0  0  0  0  0  0  0  0  0  0
   -0.0229   -1.6145    0.8258 H   0  0  0  0  0  0  0  0  0  0  0  0
   -0.2007   -0.1180    1.8904 H   0  0  0  0  0  0  0  0  0  0  0  0
   -2.3300   -1.2169    0.6327 H   0  0  0  0  0  0  0  0  0  0  0  0
   -3.2131    0.7133    0.6799 H   0  0  0  0  0  0  0  0  0  0  0  0
   -2.0954    0.1351   -1.7452 H   0  0  0  0  0  0  0  0  0  0  0  0
   -1.3885   -1.5507   -1.4457 H   0  0  0  0  0  0  0  0  0  0  0  0
  1  2  1  0
  2  3  1  0
  3  4  1  0
  4  5  1  0
  5  6  1  0
  5  7  1  0
  7  8  1  0
  8  3  1  0
  1  9  1  0
  1 10  1  0
  1 11  1  0
  3 12  1  0
  4 13  1  0
  4 14  1  0
  5 15  1  0
  6 16  1  0
  7 17  1  0
  7 18  1  0
M  END
