
     RDKit          3D

 21 21  0  0  0  0  0  0  0  0999 V2000
    2.9657    0.1692   -0.0565 C   0  0  0  0  0  0  0  0  0  0  0  0
    1.9128   -0.0472    0.8267 O   0  0  0  0  0  0  0  0  0  0  0  0
    0.6710    0.0501    0.1805 C   0  0  0  0  0  0  0  0  0  0  0  0
   -0.0060   -1.2803    0.3502 C   0  0  0  0  0  0  0  0  0  0  0  0
   -1.3350   -1.4007   -0.2844 C   0  0  0  0  0  0  0  0  0  0  0  0
   -1.8124   -0.2841   -0.9084 O   0  0  0  0  0  0  0  0  0  0  0  0
   -2.1431    0.7204   -0.0155 C   0  0  0  0  0  0  0  0  0  0  0  0
   -0.9519    1.6851   -0.0276 C   0  0  0  0  0  0  0  0  0  0  0  0
    0.0037    1.0885    0.8008 O   0  0  0  0  0  0  0  0  0  0  0  0
    2.9295   -0.6011   -0.8786 H   0  0  0  0  0  0  0  0  0  0  0  0
    3.8993    0.0119    0.5212 H   0  0  0  0  0  0  0  0  0  0  0  0
    2.8717    1.1905   -0.4703 H   0  0  0  0  0  0  0  0  0  0  0  0
    0.8750    0.2772   -0.8770 H   0  0  0  0  0  0  0  0  0  0  0  0
    0.6719   -2.0439   -0.1119 H   0  0  0  0  0  0  0  0  0  0  0  0
    0.0035   -1.5199    1.4453 H   0  0  0  0  0  0  0  0  0  0  0  0
   -2.0748   -1.6863    0.5169 H   0  0  0  0  0  0  0  0  0  0  0  0
   -1.3971   -2.2484   -1.0271 H   0  0  0  0  0  0  0  0  0  0  0  0
   -2.1980    0.2419    0.9989 H   0  0  0  0  0  0  0  0  0  0  0  0
   -3.0885    1.2143   -0.2058 H   0  0  0  0  0  0  0  0  0  0  0  0
   -1.2177    2.6842    0.3040 H   0  0  0  0  0  0  0  0  0  0  0  0
   -0.5795    1.7783   -1.0816 H   0  0  0  0  0  0  0  0  0  0  0  0
  1  2  1  0
  2  3  1  0
  3  4  1  0
  4  5  1  0
  5  6  1  0
  6  7  1  0
  7  8  1  0
  8  9  1  0
  9  3  1  0
  1 10  1  0
  1 11  1  0
  1 12  1  0
  3 13  1  0
  4 14  1  0
  4 15  1  0
  5 16  1  0
  5 17  1  0
  7 18  1  0
  7 19  1  0
  8 20  1  0
  8 21  1  0
M  END
