
     RDKit          3D

 18 19  0  0  0  0  0  0  0  0999 V2000
    2.3445    0.6064    0.1520 C   0  0  0  0  0  0  0  0  0  0  0  0
    1.0057    0.7830    0.3100 O   0  0  0  0  0  0  0  0  0  0  0  0
    0.1983   -0.1767   -0.2291 C   0  0  0  0  0  0  0  0  0  0  0  0
    0.2475   -1.6063    0.1641 C   0  0  0  0  0  0  0  0  0  0  0  0
   -1.1589   -1.5708    0.3083 O   0  0  0  0  0  0  0  0  0  0  0  0
   -1.2462   -0.2423   -0.0595 C   0  0  0  0  0  0  0  0  0  0  0  0
   -2.0205    0.7242    0.7906 C   0  0  0  0  0  0  0  0  0  0  0  0
   -0.6721    0.2161   -1.3534 C   0  0  0  0  0  0  0  0  0  0  0  0
    2.7487   -0.3235    0.5929 H   0  0  0  0  0  0  0  0  0  0  0  0
    2.5842    0.6428   -0.9439 H   0  0  0  0  0  0  0  0  0  0  0  0
    2.8684    1.4421    0.6689 H   0  0  0  0  0  0  0  0  0  0  0  0
    0.5115   -2.2895   -0.6776 H   0  0  0  0  0  0  0  0  0  0  0  0
    0.7919   -1.8857    1.0613 H   0  0  0  0  0  0  0  0  0  0  0  0
   -1.5916    0.8112    1.8280 H   0  0  0  0  0  0  0  0  0  0  0  0
   -3.0512    0.3470    0.9319 H   0  0  0  0  0  0  0  0  0  0  0  0
   -2.0550    1.7003    0.2711 H   0  0  0  0  0  0  0  0  0  0  0  0
   -0.6518   -0.4689   -2.2329 H   0  0  0  0  0  0  0  0  0  0  0  0
   -0.8534    1.2905   -1.5827 H   0  0  0  0  0  0  0  0  0  0  0  0
  1  2  1  0
  2  3  1  0
  3  4  1  0
  4  5  1  0
  5  6  1  0
  6  7  1  0
  6  8  1  0
  6  3  1  0
  8  3  1  0
  1  9  1  0
  1 10  1  0
  1 11  1  0
  4 12  1  0
  4 13  1  0
  7 14  1  0
  7 15  1  0
  7 16  1  0
  8 17  1  0
  8 18  1  0
M  END
