
     RDKit          3D

 21 21  0  0  0  0  0  0  0  0999 V2000
   -2.0592   -1.3394   -0.0835 C   0  0  0  0  0  0  0  0  0  0  0  0
   -0.7332   -1.2925   -0.4286 O   0  0  0  0  0  0  0  0  0  0  0  0
   -0.1070   -0.1003   -0.2005 C   0  0  0  0  0  0  0  0  0  0  0  0
   -0.7145    1.0657   -0.9496 C   0  0  0  0  0  0  0  0  0  0  0  0
    0.0337    2.2063   -0.6125 O   0  0  0  0  0  0  0  0  0  0  0  0
    1.3288   -0.2332   -0.7167 C   0  0  0  0  0  0  0  0  0  0  0  0
    2.1697   -0.4325    0.4876 C   0  0  0  0  0  0  0  0  0  0  0  0
    1.4862   -0.1707    1.5917 C   0  0  0  0  0  0  0  0  0  0  0  0
    0.1033    0.2351    1.2400 C   0  0  0  0  0  0  0  0  0  0  0  0
   -2.4262   -2.3705   -0.3284 H   0  0  0  0  0  0  0  0  0  0  0  0
   -2.1741   -1.2315    1.0202 H   0  0  0  0  0  0  0  0  0  0  0  0
   -2.6870   -0.5587   -0.5463 H   0  0  0  0  0  0  0  0  0  0  0  0
   -1.7618    1.2526   -0.7002 H   0  0  0  0  0  0  0  0  0  0  0  0
   -0.6535    0.9095   -2.0471 H   0  0  0  0  0  0  0  0  0  0  0  0
    0.6396    2.4077   -1.3520 H   0  0  0  0  0  0  0  0  0  0  0  0
    1.6394    0.6298   -1.3123 H   0  0  0  0  0  0  0  0  0  0  0  0
    1.4271   -1.1291   -1.3761 H   0  0  0  0  0  0  0  0  0  0  0  0
    3.1909   -0.7461    0.4564 H   0  0  0  0  0  0  0  0  0  0  0  0
    1.8789   -0.2433    2.5815 H   0  0  0  0  0  0  0  0  0  0  0  0
   -0.6514   -0.2151    1.9197 H   0  0  0  0  0  0  0  0  0  0  0  0
    0.0702    1.3562    1.3566 H   0  0  0  0  0  0  0  0  0  0  0  0
  1  2  1  0
  2  3  1  0
  3  4  1  0
  4  5  1  0
  3  6  1  0
  6  7  1  0
  7  8  2  0
  8  9  1  0
  9  3  1  0
  1 10  1  0
  1 11  1  0
  1 12  1  0
  4 13  1  0
  4 14  1  0
  5 15  1  0
  6 16  1  0
  6 17  1  0
  7 18  1  0
  8 19  1  0
  9 20  1  0
  9 21  1  0
M  END
