
     RDKit          3D

 19 20  0  0  0  0  0  0  0  0999 V2000
   -2.9227    0.6130   -0.2430 C   0  0  0  0  0  0  0  0  0  0  0  0
   -1.7459    0.8008    0.4623 O   0  0  0  0  0  0  0  0  0  0  0  0
   -0.7929   -0.1673    0.1826 C   0  0  0  0  0  0  0  0  0  0  0  0
   -0.1142   -0.7594    1.4022 C   0  0  0  0  0  0  0  0  0  0  0  0
    1.2323   -0.3687    0.9020 C   0  0  0  0  0  0  0  0  0  0  0  0
    1.6300   -0.4979   -0.5135 C   0  0  0  0  0  0  0  0  0  0  0  0
    2.8934    0.1624   -0.9091 C   0  0  0  0  0  0  0  0  0  0  0  0
    3.5225   -0.3020   -1.8326 O   0  0  0  0  0  0  0  0  0  0  0  0
    0.5157    0.4505   -0.1945 C   0  0  0  0  0  0  0  0  0  0  0  0
   -3.3935   -0.3529   -0.0216 H   0  0  0  0  0  0  0  0  0  0  0  0
   -3.5964    1.4634    0.0381 H   0  0  0  0  0  0  0  0  0  0  0  0
   -2.6706    0.6388   -1.3273 H   0  0  0  0  0  0  0  0  0  0  0  0
   -1.0997   -0.9321   -0.5452 H   0  0  0  0  0  0  0  0  0  0  0  0
   -0.4332   -0.2271    2.3304 H   0  0  0  0  0  0  0  0  0  0  0  0
   -0.2137   -1.8479    1.5230 H   0  0  0  0  0  0  0  0  0  0  0  0
    1.8883    0.1629    1.5886 H   0  0  0  0  0  0  0  0  0  0  0  0
    1.3337   -1.4008   -1.1062 H   0  0  0  0  0  0  0  0  0  0  0  0
    3.2891    1.0358   -0.4223 H   0  0  0  0  0  0  0  0  0  0  0  0
    0.6778    1.5284   -0.1458 H   0  0  0  0  0  0  0  0  0  0  0  0
  1  2  1  0
  2  3  1  0
  3  4  1  0
  4  5  1  0
  5  6  1  0
  6  7  1  0
  7  8  2  0
  6  9  1  0
  9  3  1  0
  9  5  1  0
  1 10  1  0
  1 11  1  0
  1 12  1  0
  3 13  1  0
  4 14  1  0
  4 15  1  0
  5 16  1  0
  6 17  1  0
  7 18  1  0
  9 19  1  0
M  END
