
     RDKit          3D

 19 19  0  0  0  0  0  0  0  0999 V2000
    3.0632   -0.1011    0.1447 C   0  0  0  0  0  0  0  0  0  0  0  0
    1.7434   -0.4281    0.2485 O   0  0  0  0  0  0  0  0  0  0  0  0
    0.8489    0.4126   -0.3364 C   0  0  0  0  0  0  0  0  0  0  0  0
   -0.3422    0.7583    0.5169 C   0  0  0  0  0  0  0  0  0  0  0  0
   -1.3317   -0.3922    0.3255 C   0  0  0  0  0  0  0  0  0  0  0  0
   -2.7025    0.1045   -0.0207 C   0  0  0  0  0  0  0  0  0  0  0  0
   -0.7058   -1.1833   -0.7500 C   0  0  0  0  0  0  0  0  0  0  0  0
   -1.0021   -2.3982   -1.0055 O   0  0  0  0  0  0  0  0  0  0  0  0
    0.2072   -0.3625   -1.3686 O   0  0  0  0  0  0  0  0  0  0  0  0
    3.3207    0.8948    0.5983 H   0  0  0  0  0  0  0  0  0  0  0  0
    3.4759   -0.1966   -0.8827 H   0  0  0  0  0  0  0  0  0  0  0  0
    3.6357   -0.8414    0.7592 H   0  0  0  0  0  0  0  0  0  0  0  0
    1.2872    1.2875   -0.8435 H   0  0  0  0  0  0  0  0  0  0  0  0
   -0.7934    1.6837    0.0949 H   0  0  0  0  0  0  0  0  0  0  0  0
   -0.1140    0.9433    1.5622 H   0  0  0  0  0  0  0  0  0  0  0  0
   -1.3856   -0.9844    1.2815 H   0  0  0  0  0  0  0  0  0  0  0  0
   -2.6342    1.0811   -0.5604 H   0  0  0  0  0  0  0  0  0  0  0  0
   -3.2795   -0.5808   -0.6690 H   0  0  0  0  0  0  0  0  0  0  0  0
   -3.2914    0.3029    0.9050 H   0  0  0  0  0  0  0  0  0  0  0  0
  1  2  1  0
  2  3  1  0
  3  4  1  0
  4  5  1  0
  5  6  1  0
  5  7  1  0
  7  8  2  0
  7  9  1  0
  9  3  1  0
  1 10  1  0
  1 11  1  0
  1 12  1  0
  3 13  1  0
  4 14  1  0
  4 15  1  0
  5 16  1  0
  6 17  1  0
  6 18  1  0
  6 19  1  0
M  END
