
     RDKit          3D

 19 20  0  0  0  0  0  0  0  0999 V2000
    2.6124    0.9311   -0.5874 C   0  0  0  0  0  0  0  0  0  0  0  0
    1.2156    1.0710   -0.4765 O   0  0  0  0  0  0  0  0  0  0  0  0
    0.6373   -0.1473   -0.2453 C   0  0  0  0  0  0  0  0  0  0  0  0
   -0.2716   -0.5085   -1.2745 O   0  0  0  0  0  0  0  0  0  0  0  0
   -1.4205   -0.7975   -0.5967 C   0  0  0  0  0  0  0  0  0  0  0  0
   -0.9712   -1.5288    0.6781 C   0  0  0  0  0  0  0  0  0  0  0  0
   -0.2937   -0.1734    0.9284 C   0  0  0  0  0  0  0  0  0  0  0  0
   -1.5476    0.4213    0.3330 C   0  0  0  0  0  0  0  0  0  0  0  0
   -1.3878    1.6323   -0.3157 O   0  0  0  0  0  0  0  0  0  0  0  0
    2.9749    0.5008    0.3905 H   0  0  0  0  0  0  0  0  0  0  0  0
    3.1027    1.9003   -0.7670 H   0  0  0  0  0  0  0  0  0  0  0  0
    2.8066    0.1843   -1.3884 H   0  0  0  0  0  0  0  0  0  0  0  0
    1.4123   -0.9274   -0.2048 H   0  0  0  0  0  0  0  0  0  0  0  0
   -2.2961   -1.1394   -1.0764 H   0  0  0  0  0  0  0  0  0  0  0  0
   -1.7729   -1.7675    1.3658 H   0  0  0  0  0  0  0  0  0  0  0  0
   -0.2238   -2.3023    0.4465 H   0  0  0  0  0  0  0  0  0  0  0  0
    0.0149    0.0674    1.8992 H   0  0  0  0  0  0  0  0  0  0  0  0
   -2.4575    0.3307    0.9325 H   0  0  0  0  0  0  0  0  0  0  0  0
   -2.1339    2.2529   -0.0414 H   0  0  0  0  0  0  0  0  0  0  0  0
  1  2  1  0
  2  3  1  0
  3  4  1  0
  4  5  1  0
  5  6  1  0
  6  7  1  0
  7  8  1  0
  8  9  1  0
  7  3  1  0
  8  5  1  0
  1 10  1  0
  1 11  1  0
  1 12  1  0
  3 13  1  0
  5 14  1  0
  6 15  1  0
  6 16  1  0
  7 17  1  0
  8 18  1  0
  9 19  1  0
M  END
