
     RDKit          3D

 21 22  0  0  0  0  0  0  0  0999 V2000
    2.6078   -0.4978    0.1445 C   0  0  0  0  0  0  0  0  0  0  0  0
    1.5885   -0.0784   -0.7206 O   0  0  0  0  0  0  0  0  0  0  0  0
    0.3480   -0.3057   -0.1839 C   0  0  0  0  0  0  0  0  0  0  0  0
   -0.4778   -1.2781   -0.9905 C   0  0  0  0  0  0  0  0  0  0  0  0
   -1.9094   -0.9434   -0.5983 C   0  0  0  0  0  0  0  0  0  0  0  0
   -1.8638    0.4662   -0.0489 C   0  0  0  0  0  0  0  0  0  0  0  0
   -1.3245    1.3775   -0.9946 O   0  0  0  0  0  0  0  0  0  0  0  0
   -0.4839    0.9226    0.0140 C   0  0  0  0  0  0  0  0  0  0  0  0
    0.0075    1.8963    1.0518 C   0  0  0  0  0  0  0  0  0  0  0  0
    3.5912   -0.2972   -0.3249 H   0  0  0  0  0  0  0  0  0  0  0  0
    2.5026    0.0121    1.1120 H   0  0  0  0  0  0  0  0  0  0  0  0
    2.5555   -1.6167    0.2607 H   0  0  0  0  0  0  0  0  0  0  0  0
    0.4841   -0.7763    0.8250 H   0  0  0  0  0  0  0  0  0  0  0  0
   -0.3094   -1.1451   -2.0625 H   0  0  0  0  0  0  0  0  0  0  0  0
   -0.2460   -2.3110   -0.7179 H   0  0  0  0  0  0  0  0  0  0  0  0
   -2.3303   -1.6669    0.1051 H   0  0  0  0  0  0  0  0  0  0  0  0
   -2.4926   -0.9047   -1.5332 H   0  0  0  0  0  0  0  0  0  0  0  0
   -2.6503    0.8087    0.6247 H   0  0  0  0  0  0  0  0  0  0  0  0
    1.1141    1.9677    1.0278 H   0  0  0  0  0  0  0  0  0  0  0  0
   -0.2346    1.4715    2.0695 H   0  0  0  0  0  0  0  0  0  0  0  0
   -0.4768    2.8989    0.9401 H   0  0  0  0  0  0  0  0  0  0  0  0
  1  2  1  0
  2  3  1  0
  3  4  1  0
  4  5  1  0
  5  6  1  0
  6  7  1  0
  7  8  1  0
  8  9  1  0
  8  3  1  0
  8  6  1  0
  1 10  1  0
  1 11  1  0
  1 12  1  0
  3 13  1  0
  4 14  1  0
  4 15  1  0
  5 16  1  0
  5 17  1  0
  6 18  1  0
  9 19  1  0
  9 20  1  0
  9 21  1  0
M  END
