
     RDKit          3D

 19 20  0  0  0  0  0  0  0  0999 V2000
   -2.3301    0.5191   -0.3307 C   0  0  0  0  0  0  0  0  0  0  0  0
   -1.0831    0.2210   -0.8233 O   0  0  0  0  0  0  0  0  0  0  0  0
   -0.1623   -0.1794    0.0852 C   0  0  0  0  0  0  0  0  0  0  0  0
   -0.2205   -1.3244    0.9635 C   0  0  0  0  0  0  0  0  0  0  0  0
    0.5421   -1.5019   -0.2987 C   0  0  0  0  0  0  0  0  0  0  0  0
    1.8759   -1.2167   -0.3773 O   0  0  0  0  0  0  0  0  0  0  0  0
    2.0319    0.1269   -0.6630 C   0  0  0  0  0  0  0  0  0  0  0  0
    1.0292    0.7640    0.2797 C   0  0  0  0  0  0  0  0  0  0  0  0
    0.6664    2.0365   -0.0922 O   0  0  0  0  0  0  0  0  0  0  0  0
   -2.9637    0.8285   -1.1953 H   0  0  0  0  0  0  0  0  0  0  0  0
   -2.2795    1.3530    0.3944 H   0  0  0  0  0  0  0  0  0  0  0  0
   -2.7896   -0.3896    0.0940 H   0  0  0  0  0  0  0  0  0  0  0  0
    0.3824   -1.2733    1.9108 H   0  0  0  0  0  0  0  0  0  0  0  0
   -1.1574   -1.8962    1.1109 H   0  0  0  0  0  0  0  0  0  0  0  0
    0.0433   -2.1377   -1.0534 H   0  0  0  0  0  0  0  0  0  0  0  0
    3.0374    0.4421   -0.3524 H   0  0  0  0  0  0  0  0  0  0  0  0
    1.7550    0.4013   -1.6874 H   0  0  0  0  0  0  0  0  0  0  0  0
    1.3624    0.7555    1.3270 H   0  0  0  0  0  0  0  0  0  0  0  0
    0.2603    2.4715    0.7081 H   0  0  0  0  0  0  0  0  0  0  0  0
  1  2  1  0
  2  3  1  0
  3  4  1  0
  4  5  1  0
  5  6  1  0
  6  7  1  0
  7  8  1  0
  8  9  1  0
  5  3  1  0
  8  3  1  0
  1 10  1  0
  1 11  1  0
  1 12  1  0
  4 13  1  0
  4 14  1  0
  5 15  1  0
  7 16  1  0
  7 17  1  0
  8 18  1  0
  9 19  1  0
M  END
