
     RDKit          3D

 21 22  0  0  0  0  0  0  0  0999 V2000
   -1.9092    1.3745   -0.5305 C   0  0  0  0  0  0  0  0  0  0  0  0
   -1.8320    0.2192    0.1810 O   0  0  0  0  0  0  0  0  0  0  0  0
   -0.6664   -0.4768    0.1888 C   0  0  0  0  0  0  0  0  0  0  0  0
   -0.7827   -1.7413    1.0751 C   0  0  0  0  0  0  0  0  0  0  0  0
    0.1989   -0.7107   -0.9847 C   0  0  0  0  0  0  0  0  0  0  0  0
    0.3133    0.2528   -1.9856 O   0  0  0  0  0  0  0  0  0  0  0  0
    1.0138    1.0345   -1.0687 C   0  0  0  0  0  0  0  0  0  0  0  0
    0.6120    0.2093    0.1013 C   0  0  0  0  0  0  0  0  0  0  0  0
    1.7581   -0.1043    1.0373 C   0  0  0  0  0  0  0  0  0  0  0  0
   -1.7129    1.3159   -1.6063 H   0  0  0  0  0  0  0  0  0  0  0  0
   -1.3145    2.1488   -0.0080 H   0  0  0  0  0  0  0  0  0  0  0  0
   -2.9750    1.7706   -0.4558 H   0  0  0  0  0  0  0  0  0  0  0  0
    0.1214   -2.3442    1.0176 H   0  0  0  0  0  0  0  0  0  0  0  0
   -1.0442   -1.4709    2.1034 H   0  0  0  0  0  0  0  0  0  0  0  0
   -1.6111   -2.3267    0.6224 H   0  0  0  0  0  0  0  0  0  0  0  0
    0.7462   -1.6582   -1.1314 H   0  0  0  0  0  0  0  0  0  0  0  0
    2.1124    0.9077   -1.3274 H   0  0  0  0  0  0  0  0  0  0  0  0
    0.7953    2.1050   -1.0418 H   0  0  0  0  0  0  0  0  0  0  0  0
    2.7279   -0.0591    0.4991 H   0  0  0  0  0  0  0  0  0  0  0  0
    1.6886   -1.1120    1.4781 H   0  0  0  0  0  0  0  0  0  0  0  0
    1.7601    0.6659    1.8361 H   0  0  0  0  0  0  0  0  0  0  0  0
  1  2  1  0
  2  3  1  0
  3  4  1  0
  3  5  1  0
  5  6  1  0
  6  7  1  0
  7  8  1  0
  8  9  1  0
  8  3  1  0
  8  5  1  0
  1 10  1  0
  1 11  1  0
  1 12  1  0
  4 13  1  0
  4 14  1  0
  4 15  1  0
  5 16  1  0
  7 17  1  0
  7 18  1  0
  9 19  1  0
  9 20  1  0
  9 21  1  0
M  END
