
     RDKit          3D

 19 19  0  0  0  0  0  0  0  0999 V2000
   -2.4145   -0.4612   -0.6903 C   0  0  0  0  0  0  0  0  0  0  0  0
   -1.1260    0.0374   -0.8380 O   0  0  0  0  0  0  0  0  0  0  0  0
   -0.5333    0.1599    0.3962 C   0  0  0  0  0  0  0  0  0  0  0  0
    0.2902    1.3782    0.6070 C   0  0  0  0  0  0  0  0  0  0  0  0
    0.6379    2.1957   -0.4653 O   0  0  0  0  0  0  0  0  0  0  0  0
    0.9273    0.0277    0.5859 C   0  0  0  0  0  0  0  0  0  0  0  0
    1.3826   -0.4353    1.8181 O   0  0  0  0  0  0  0  0  0  0  0  0
    1.8409   -0.3256   -0.5624 C   0  0  0  0  0  0  0  0  0  0  0  0
    1.9819   -1.7080   -0.6840 O   0  0  0  0  0  0  0  0  0  0  0  0
   -2.3124   -1.4659   -0.1927 H   0  0  0  0  0  0  0  0  0  0  0  0
   -3.0163    0.1550    0.0381 H   0  0  0  0  0  0  0  0  0  0  0  0
   -2.9920   -0.4939   -1.6145 H   0  0  0  0  0  0  0  0  0  0  0  0
   -1.1580   -0.1470    1.2622 H   0  0  0  0  0  0  0  0  0  0  0  0
    0.1785    1.9295    1.5542 H   0  0  0  0  0  0  0  0  0  0  0  0
    0.0355    2.1024   -1.2332 H   0  0  0  0  0  0  0  0  0  0  0  0
    0.6846   -1.0502    2.1579 H   0  0  0  0  0  0  0  0  0  0  0  0
    2.8818    0.0586   -0.3853 H   0  0  0  0  0  0  0  0  0  0  0  0
    1.5186    0.1491   -1.5178 H   0  0  0  0  0  0  0  0  0  0  0  0
    1.1927   -2.1063   -0.2362 H   0  0  0  0  0  0  0  0  0  0  0  0
  1  2  1  0
  2  3  1  0
  3  4  1  0
  4  5  1  0
  4  6  1  0
  6  7  1  0
  6  8  1  0
  8  9  1  0
  6  3  1  0
  1 10  1  0
  1 11  1  0
  1 12  1  0
  3 13  1  0
  4 14  1  0
  5 15  1  0
  7 16  1  0
  8 17  1  0
  8 18  1  0
  9 19  1  0
M  END
