
     RDKit          3D

 19 20  0  0  0  0  0  0  0  0999 V2000
    2.2057   -0.1755   -1.0232 C   0  0  0  0  0  0  0  0  0  0  0  0
    0.9323    0.4300   -0.9965 O   0  0  0  0  0  0  0  0  0  0  0  0
    0.0913   -0.2637   -0.1411 C   0  0  0  0  0  0  0  0  0  0  0  0
   -0.2300   -1.6733   -0.3556 C   0  0  0  0  0  0  0  0  0  0  0  0
    0.4211   -2.6491   -0.6609 O   0  0  0  0  0  0  0  0  0  0  0  0
   -1.6656   -1.4671   -0.0582 C   0  0  0  0  0  0  0  0  0  0  0  0
   -1.3641    0.0297   -0.0991 C   0  0  0  0  0  0  0  0  0  0  0  0
   -0.4967    0.5202    0.9676 C   0  0  0  0  0  0  0  0  0  0  0  0
   -0.2312    1.9916    1.0094 C   0  0  0  0  0  0  0  0  0  0  0  0
    2.1291   -1.2224   -1.3750 H   0  0  0  0  0  0  0  0  0  0  0  0
    2.5801   -0.2017    0.0379 H   0  0  0  0  0  0  0  0  0  0  0  0
    2.8924    0.3598   -1.6834 H   0  0  0  0  0  0  0  0  0  0  0  0
   -2.3760   -1.8187   -0.8179 H   0  0  0  0  0  0  0  0  0  0  0  0
   -1.9393   -1.7341    0.9978 H   0  0  0  0  0  0  0  0  0  0  0  0
   -1.8643    0.6600   -0.8343 H   0  0  0  0  0  0  0  0  0  0  0  0
   -0.4936   -0.0089    1.9639 H   0  0  0  0  0  0  0  0  0  0  0  0
    0.7181    2.2928    0.5309 H   0  0  0  0  0  0  0  0  0  0  0  0
   -1.0326    2.5784    0.4749 H   0  0  0  0  0  0  0  0  0  0  0  0
   -0.2768    2.3521    2.0628 H   0  0  0  0  0  0  0  0  0  0  0  0
  1  2  1  0
  2  3  1  0
  3  4  1  0
  4  5  2  0
  4  6  1  0
  6  7  1  0
  7  8  1  0
  8  9  1  0
  7  3  1  0
  8  3  1  0
  1 10  1  0
  1 11  1  0
  1 12  1  0
  6 13  1  0
  6 14  1  0
  7 15  1  0
  8 16  1  0
  9 17  1  0
  9 18  1  0
  9 19  1  0
M  END
