
     RDKit          3D

 19 19  0  0  0  0  0  0  0  0999 V2000
    3.0660    0.1131   -0.0693 C   0  0  0  0  0  0  0  0  0  0  0  0
    1.8724    0.2449    0.6495 O   0  0  0  0  0  0  0  0  0  0  0  0
    0.8717   -0.3441   -0.1068 C   0  0  0  0  0  0  0  0  0  0  0  0
   -0.1364    0.6984   -0.5088 C   0  0  0  0  0  0  0  0  0  0  0  0
   -1.3355    0.3425   -0.1286 C   0  0  0  0  0  0  0  0  0  0  0  0
   -2.6004    1.1340   -0.3552 C   0  0  0  0  0  0  0  0  0  0  0  0
   -1.3194   -0.9729    0.5764 C   0  0  0  0  0  0  0  0  0  0  0  0
    0.0879   -1.3510    0.6544 C   0  0  0  0  0  0  0  0  0  0  0  0
    0.5657   -2.3058    1.2271 O   0  0  0  0  0  0  0  0  0  0  0  0
    2.8837    0.6523   -1.0410 H   0  0  0  0  0  0  0  0  0  0  0  0
    3.9239    0.5722    0.4379 H   0  0  0  0  0  0  0  0  0  0  0  0
    3.1913   -0.9559   -0.3093 H   0  0  0  0  0  0  0  0  0  0  0  0
    1.2618   -0.7653   -1.0763 H   0  0  0  0  0  0  0  0  0  0  0  0
    0.1352    1.5859   -1.0288 H   0  0  0  0  0  0  0  0  0  0  0  0
   -3.5007    0.5177   -0.1789 H   0  0  0  0  0  0  0  0  0  0  0  0
   -2.6570    1.9903    0.3547 H   0  0  0  0  0  0  0  0  0  0  0  0
   -2.6248    1.5005   -1.4113 H   0  0  0  0  0  0  0  0  0  0  0  0
   -1.8333   -0.9150    1.5526 H   0  0  0  0  0  0  0  0  0  0  0  0
   -1.8520   -1.7418   -0.0504 H   0  0  0  0  0  0  0  0  0  0  0  0
  1  2  1  0
  2  3  1  0
  3  4  1  0
  4  5  2  0
  5  6  1  0
  5  7  1  0
  7  8  1  0
  8  9  2  0
  8  3  1  0
  1 10  1  0
  1 11  1  0
  1 12  1  0
  3 13  1  0
  4 14  1  0
  6 15  1  0
  6 16  1  0
  6 17  1  0
  7 18  1  0
  7 19  1  0
M  END
