
     RDKit          3D

 21 22  0  0  0  0  0  0  0  0999 V2000
    2.4520    0.7522    0.1947 C   0  0  0  0  0  0  0  0  0  0  0  0
    1.2880    0.5767    0.9328 O   0  0  0  0  0  0  0  0  0  0  0  0
    0.3305   -0.1545    0.2429 C   0  0  0  0  0  0  0  0  0  0  0  0
    0.6272   -1.5229   -0.1944 C   0  0  0  0  0  0  0  0  0  0  0  0
   -0.4331   -2.3179   -0.1577 C   0  0  0  0  0  0  0  0  0  0  0  0
   -1.6132   -1.5714    0.3210 C   0  0  0  0  0  0  0  0  0  0  0  0
   -1.0635   -0.2336    0.6985 C   0  0  0  0  0  0  0  0  0  0  0  0
   -0.6662    0.6186   -0.5110 C   0  0  0  0  0  0  0  0  0  0  0  0
   -0.8473    2.1002   -0.2918 C   0  0  0  0  0  0  0  0  0  0  0  0
    2.9426   -0.1835   -0.0865 H   0  0  0  0  0  0  0  0  0  0  0  0
    2.2730    1.3276   -0.7482 H   0  0  0  0  0  0  0  0  0  0  0  0
    3.1494    1.3763    0.7913 H   0  0  0  0  0  0  0  0  0  0  0  0
    1.6023   -1.9194   -0.5309 H   0  0  0  0  0  0  0  0  0  0  0  0
   -0.4909   -3.3779   -0.4286 H   0  0  0  0  0  0  0  0  0  0  0  0
   -2.1390   -2.0823    1.1547 H   0  0  0  0  0  0  0  0  0  0  0  0
   -2.3051   -1.4725   -0.5653 H   0  0  0  0  0  0  0  0  0  0  0  0
   -1.4378    0.2882    1.6043 H   0  0  0  0  0  0  0  0  0  0  0  0
   -0.9848    0.2848   -1.5176 H   0  0  0  0  0  0  0  0  0  0  0  0
   -1.4966    2.2944    0.5852 H   0  0  0  0  0  0  0  0  0  0  0  0
    0.1221    2.6107   -0.1189 H   0  0  0  0  0  0  0  0  0  0  0  0
   -1.3095    2.6061   -1.1628 H   0  0  0  0  0  0  0  0  0  0  0  0
  1  2  1  0
  2  3  1  0
  3  4  1  0
  4  5  2  0
  5  6  1  0
  6  7  1  0
  7  8  1  0
  8  9  1  0
  7  3  1  0
  8  3  1  0
  1 10  1  0
  1 11  1  0
  1 12  1  0
  4 13  1  0
  5 14  1  0
  6 15  1  0
  6 16  1  0
  7 17  1  0
  8 18  1  0
  9 19  1  0
  9 20  1  0
  9 21  1  0
M  END
