
     RDKit          3D

 19 22  0  0  0  0  0  0  0  0999 V2000
    2.6829    0.3966    0.0634 C   0  0  0  0  0  0  0  0  0  0  0  0
    1.4327    0.8965    0.3030 O   0  0  0  0  0  0  0  0  0  0  0  0
    0.3962    0.0845    0.1540 C   0  0  0  0  0  0  0  0  0  0  0  0
    0.1105   -1.1756    0.8597 C   0  0  0  0  0  0  0  0  0  0  0  0
   -0.7411   -1.5845   -0.3927 C   0  0  0  0  0  0  0  0  0  0  0  0
   -1.2960   -0.9438    0.7553 C   0  0  0  0  0  0  0  0  0  0  0  0
   -1.0098    0.3825    0.1983 C   0  0  0  0  0  0  0  0  0  0  0  0
   -1.8008    1.5030   -0.1053 C   0  0  0  0  0  0  0  0  0  0  0  0
   -0.3150   -0.3465   -1.0014 C   0  0  0  0  0  0  0  0  0  0  0  0
    2.9762   -0.4559    0.7028 H   0  0  0  0  0  0  0  0  0  0  0  0
    3.4426    1.1994    0.2587 H   0  0  0  0  0  0  0  0  0  0  0  0
    2.7708    0.1730   -1.0199 H   0  0  0  0  0  0  0  0  0  0  0  0
    0.7342   -1.9384    1.1902 H   0  0  0  0  0  0  0  0  0  0  0  0
   -0.7137   -2.5800   -0.7295 H   0  0  0  0  0  0  0  0  0  0  0  0
   -2.1016   -1.2192    1.3959 H   0  0  0  0  0  0  0  0  0  0  0  0
   -2.2290    1.4903   -1.1504 H   0  0  0  0  0  0  0  0  0  0  0  0
   -2.7005    1.6200    0.5649 H   0  0  0  0  0  0  0  0  0  0  0  0
   -1.2045    2.4615   -0.0707 H   0  0  0  0  0  0  0  0  0  0  0  0
   -0.4341    0.0366   -1.9763 H   0  0  0  0  0  0  0  0  0  0  0  0
  1  2  1  0
  2  3  1  0
  3  4  1  0
  4  5  1  0
  5  6  1  0
  6  7  1  0
  7  8  1  0
  7  9  1  0
  7  3  1  0
  9  3  1  0
  6  4  1  0
  9  5  1  0
  1 10  1  0
  1 11  1  0
  1 12  1  0
  4 13  1  0
  5 14  1  0
  6 15  1  0
  8 16  1  0
  8 17  1  0
  8 18  1  0
  9 19  1  0
M  END
