
     RDKit          3D

 23 23  0  0  0  0  0  0  0  0999 V2000
   -1.8132   -1.4609    1.0308 C   0  0  0  0  0  0  0  0  0  0  0  0
   -1.5115   -0.9819   -0.2141 O   0  0  0  0  0  0  0  0  0  0  0  0
   -0.2893   -0.3101   -0.2874 C   0  0  0  0  0  0  0  0  0  0  0  0
    0.8703   -1.1639    0.0875 C   0  0  0  0  0  0  0  0  0  0  0  0
    2.2194   -0.5460    0.0525 C   0  0  0  0  0  0  0  0  0  0  0  0
    2.3893    0.5210    0.9233 O   0  0  0  0  0  0  0  0  0  0  0  0
   -0.2078    0.4632   -1.6195 C   0  0  0  0  0  0  0  0  0  0  0  0
   -0.1889    1.1324   -0.2932 C   0  0  0  0  0  0  0  0  0  0  0  0
   -1.3851    2.0325   -0.0124 C   0  0  0  0  0  0  0  0  0  0  0  0
   -2.8172   -1.9696    0.9307 H   0  0  0  0  0  0  0  0  0  0  0  0
   -1.8029   -0.7363    1.8407 H   0  0  0  0  0  0  0  0  0  0  0  0
   -1.1353   -2.3093    1.3437 H   0  0  0  0  0  0  0  0  0  0  0  0
    0.9199   -2.0981   -0.5248 H   0  0  0  0  0  0  0  0  0  0  0  0
    0.7450   -1.5569    1.1460 H   0  0  0  0  0  0  0  0  0  0  0  0
    2.9393   -1.3360    0.4192 H   0  0  0  0  0  0  0  0  0  0  0  0
    2.5854   -0.3150   -0.9716 H   0  0  0  0  0  0  0  0  0  0  0  0
    3.0367    1.2035    0.5581 H   0  0  0  0  0  0  0  0  0  0  0  0
    0.7344    0.3194   -2.2013 H   0  0  0  0  0  0  0  0  0  0  0  0
   -1.0923    0.5798   -2.2400 H   0  0  0  0  0  0  0  0  0  0  0  0
    0.7535    1.6565   -0.0915 H   0  0  0  0  0  0  0  0  0  0  0  0
   -1.4335    2.3066    1.0641 H   0  0  0  0  0  0  0  0  0  0  0  0
   -2.3342    1.5867   -0.3830 H   0  0  0  0  0  0  0  0  0  0  0  0
   -1.1818    2.9824   -0.5579 H   0  0  0  0  0  0  0  0  0  0  0  0
  1  2  1  0
  2  3  1  0
  3  4  1  0
  4  5  1  0
  5  6  1  0
  3  7  1  0
  7  8  1  0
  8  9  1  0
  8  3  1  0
  1 10  1  0
  1 11  1  0
  1 12  1  0
  4 13  1  0
  4 14  1  0
  5 15  1  0
  5 16  1  0
  6 17  1  0
  7 18  1  0
  7 19  1  0
  8 20  1  0
  9 21  1  0
  9 22  1  0
  9 23  1  0
M  END
