
     RDKit          3D

 18 19  0  0  0  0  0  0  0  0999 V2000
   -2.2430   -0.4561    0.4594 C   0  0  0  0  0  0  0  0  0  0  0  0
   -1.3503    0.5305    0.8847 O   0  0  0  0  0  0  0  0  0  0  0  0
   -0.1891    0.3680    0.1733 C   0  0  0  0  0  0  0  0  0  0  0  0
    0.4943   -0.9458    0.3310 C   0  0  0  0  0  0  0  0  0  0  0  0
    1.8666   -0.6520   -0.2212 C   0  0  0  0  0  0  0  0  0  0  0  0
    2.1255    0.6559    0.0911 O   0  0  0  0  0  0  0  0  0  0  0  0
    0.9277    1.3303    0.2201 C   0  0  0  0  0  0  0  0  0  0  0  0
    0.0333    1.2653   -0.9750 C   0  0  0  0  0  0  0  0  0  0  0  0
   -1.8555   -1.4765    0.6293 H   0  0  0  0  0  0  0  0  0  0  0  0
   -2.3688   -0.3759   -0.6605 H   0  0  0  0  0  0  0  0  0  0  0  0
   -3.2421   -0.3291    0.9541 H   0  0  0  0  0  0  0  0  0  0  0  0
    0.6089   -1.1437    1.4168 H   0  0  0  0  0  0  0  0  0  0  0  0
   -0.0010   -1.7937   -0.1585 H   0  0  0  0  0  0  0  0  0  0  0  0
    1.8978   -0.8794   -1.2986 H   0  0  0  0  0  0  0  0  0  0  0  0
    2.6432   -1.2986    0.2791 H   0  0  0  0  0  0  0  0  0  0  0  0
    0.8692    2.2035    0.9088 H   0  0  0  0  0  0  0  0  0  0  0  0
   -0.6515    2.1083   -1.0910 H   0  0  0  0  0  0  0  0  0  0  0  0
    0.4346    0.8891   -1.9427 H   0  0  0  0  0  0  0  0  0  0  0  0
  1  2  1  0
  2  3  1  0
  3  4  1  0
  4  5  1  0
  5  6  1  0
  6  7  1  0
  7  8  1  0
  7  3  1  0
  8  3  1  0
  1  9  1  0
  1 10  1  0
  1 11  1  0
  4 12  1  0
  4 13  1  0
  5 14  1  0
  5 15  1  0
  7 16  1  0
  8 17  1  0
  8 18  1  0
M  END
