
     RDKit          3D

 21 22  0  0  0  0  0  0  0  0999 V2000
    2.3457    0.8999   -0.4769 C   0  0  0  0  0  0  0  0  0  0  0  0
    1.5011    0.0023   -1.1103 O   0  0  0  0  0  0  0  0  0  0  0  0
    0.3962   -0.2369   -0.3011 C   0  0  0  0  0  0  0  0  0  0  0  0
    0.7643   -0.8207    1.0041 C   0  0  0  0  0  0  0  0  0  0  0  0
   -0.5353    0.9343   -0.3454 C   0  0  0  0  0  0  0  0  0  0  0  0
   -1.7182    0.5823    0.5271 C   0  0  0  0  0  0  0  0  0  0  0  0
   -1.8861   -0.8640    0.0205 C   0  0  0  0  0  0  0  0  0  0  0  0
   -0.7860   -0.8351   -1.0137 C   0  0  0  0  0  0  0  0  0  0  0  0
   -0.9649    0.4246   -1.5960 O   0  0  0  0  0  0  0  0  0  0  0  0
    1.8388    1.8754   -0.2761 H   0  0  0  0  0  0  0  0  0  0  0  0
    3.2689    1.0963   -1.0867 H   0  0  0  0  0  0  0  0  0  0  0  0
    2.7295    0.5641    0.5015 H   0  0  0  0  0  0  0  0  0  0  0  0
    0.5676   -0.1970    1.8825 H   0  0  0  0  0  0  0  0  0  0  0  0
    0.1856   -1.7832    1.1376 H   0  0  0  0  0  0  0  0  0  0  0  0
    1.8286   -1.1610    0.9681 H   0  0  0  0  0  0  0  0  0  0  0  0
   -0.1754    1.9356   -0.3375 H   0  0  0  0  0  0  0  0  0  0  0  0
   -2.5764    1.2034    0.2805 H   0  0  0  0  0  0  0  0  0  0  0  0
   -1.5099    0.6150    1.5923 H   0  0  0  0  0  0  0  0  0  0  0  0
   -1.7699   -1.6068    0.8002 H   0  0  0  0  0  0  0  0  0  0  0  0
   -2.8569   -0.9532   -0.5226 H   0  0  0  0  0  0  0  0  0  0  0  0
   -0.6475   -1.6753   -1.6482 H   0  0  0  0  0  0  0  0  0  0  0  0
  1  2  1  0
  2  3  1  0
  3  4  1  0
  3  5  1  0
  5  6  1  0
  6  7  1  0
  7  8  1  0
  8  9  1  0
  8  3  1  0
  9  5  1  0
  1 10  1  0
  1 11  1  0
  1 12  1  0
  4 13  1  0
  4 14  1  0
  4 15  1  0
  5 16  1  0
  6 17  1  0
  6 18  1  0
  7 19  1  0
  7 20  1  0
  8 21  1  0
M  END
