
     RDKit          3D

 17 18  0  0  0  0  0  0  0  0999 V2000
    2.8413    0.1286    0.3448 C   0  0  0  0  0  0  0  0  0  0  0  0
    1.5761    0.7002    0.2007 O   0  0  0  0  0  0  0  0  0  0  0  0
    0.5789   -0.2614    0.0669 C   0  0  0  0  0  0  0  0  0  0  0  0
   -0.5512   -0.1260    1.0821 C   0  0  0  0  0  0  0  0  0  0  0  0
   -1.4882   -0.0927   -0.0925 C   0  0  0  0  0  0  0  0  0  0  0  0
   -2.7564    0.4253   -0.1540 C   0  0  0  0  0  0  0  0  0  0  0  0
   -2.5148   -0.9880   -0.2161 O   0  0  0  0  0  0  0  0  0  0  0  0
   -0.3785   -0.0360   -1.0345 C   0  0  0  0  0  0  0  0  0  0  0  0
   -0.2857    0.1289   -2.2306 O   0  0  0  0  0  0  0  0  0  0  0  0
    3.5750    0.9300    0.4446 H   0  0  0  0  0  0  0  0  0  0  0  0
    3.1146   -0.5135   -0.5289 H   0  0  0  0  0  0  0  0  0  0  0  0
    2.8829   -0.5523    1.2336 H   0  0  0  0  0  0  0  0  0  0  0  0
    1.0394   -1.2715    0.1079 H   0  0  0  0  0  0  0  0  0  0  0  0
   -0.6141   -0.9887    1.7490 H   0  0  0  0  0  0  0  0  0  0  0  0
   -0.5093    0.8693    1.5585 H   0  0  0  0  0  0  0  0  0  0  0  0
   -3.3125    0.7756    0.7609 H   0  0  0  0  0  0  0  0  0  0  0  0
   -3.1976    0.8722   -1.0748 H   0  0  0  0  0  0  0  0  0  0  0  0
  1  2  1  0
  2  3  1  0
  3  4  1  0
  4  5  1  0
  5  6  1  0
  6  7  1  0
  5  8  1  0
  8  9  2  0
  8  3  1  0
  7  5  1  0
  1 10  1  0
  1 11  1  0
  1 12  1  0
  3 13  1  0
  4 14  1  0
  4 15  1  0
  6 16  1  0
  6 17  1  0
M  END
