
     RDKit          3D

 21 22  0  0  0  0  0  0  0  0999 V2000
    2.7719   -1.0782    0.3543 C   0  0  0  0  0  0  0  0  0  0  0  0
    1.4384   -0.9376   -0.0107 O   0  0  0  0  0  0  0  0  0  0  0  0
    0.9813    0.2682    0.4702 C   0  0  0  0  0  0  0  0  0  0  0  0
    0.3647    1.0667   -0.6645 C   0  0  0  0  0  0  0  0  0  0  0  0
   -0.8594    1.2597    0.2128 C   0  0  0  0  0  0  0  0  0  0  0  0
   -0.3200    0.2269    1.2269 C   0  0  0  0  0  0  0  0  0  0  0  0
   -1.6154    0.0378    0.5804 C   0  0  0  0  0  0  0  0  0  0  0  0
   -1.8464   -1.0009   -0.4946 C   0  0  0  0  0  0  0  0  0  0  0  0
   -2.7375    0.2581    1.3804 O   0  0  0  0  0  0  0  0  0  0  0  0
    2.8783   -1.0560    1.4631 H   0  0  0  0  0  0  0  0  0  0  0  0
    3.3468   -0.1902   -0.0322 H   0  0  0  0  0  0  0  0  0  0  0  0
    3.2252   -2.0235    0.0143 H   0  0  0  0  0  0  0  0  0  0  0  0
    1.7730    0.8123    1.0154 H   0  0  0  0  0  0  0  0  0  0  0  0
    0.1897    0.4936   -1.5766 H   0  0  0  0  0  0  0  0  0  0  0  0
    0.9404    2.0017   -0.8221 H   0  0  0  0  0  0  0  0  0  0  0  0
   -1.1259    2.2455    0.5866 H   0  0  0  0  0  0  0  0  0  0  0  0
   -0.2641    0.5498    2.2859 H   0  0  0  0  0  0  0  0  0  0  0  0
   -2.2732   -1.9241   -0.0560 H   0  0  0  0  0  0  0  0  0  0  0  0
   -2.5511   -0.6126   -1.2636 H   0  0  0  0  0  0  0  0  0  0  0  0
   -0.8947   -1.2101   -0.9827 H   0  0  0  0  0  0  0  0  0  0  0  0
   -3.4220    0.8129    0.9401 H   0  0  0  0  0  0  0  0  0  0  0  0
  1  2  1  0
  2  3  1  0
  3  4  1  0
  4  5  1  0
  5  6  1  0
  6  7  1  0
  7  8  1  0
  7  9  1  0
  6  3  1  0
  7  5  1  0
  1 10  1  0
  1 11  1  0
  1 12  1  0
  3 13  1  0
  4 14  1  0
  4 15  1  0
  5 16  1  0
  6 17  1  0
  8 18  1  0
  8 19  1  0
  8 20  1  0
  9 21  1  0
M  END
