
     RDKit          3D

 21 21  0  0  0  0  0  0  0  0999 V2000
    2.6817   -0.7338   -0.3612 C   0  0  0  0  0  0  0  0  0  0  0  0
    1.4635   -0.4339   -0.9862 O   0  0  0  0  0  0  0  0  0  0  0  0
    0.3823   -0.5767   -0.1215 C   0  0  0  0  0  0  0  0  0  0  0  0
   -0.5008   -1.4982   -0.6179 O   0  0  0  0  0  0  0  0  0  0  0  0
   -1.7500   -1.4194   -0.0102 C   0  0  0  0  0  0  0  0  0  0  0  0
   -2.4026   -0.0908   -0.1958 C   0  0  0  0  0  0  0  0  0  0  0  0
   -1.4515    0.9979    0.0834 C   0  0  0  0  0  0  0  0  0  0  0  0
   -0.1639    0.7653    0.1161 C   0  0  0  0  0  0  0  0  0  0  0  0
    0.7817    1.8702    0.3982 C   0  0  0  0  0  0  0  0  0  0  0  0
    3.5001   -0.6028   -1.0952 H   0  0  0  0  0  0  0  0  0  0  0  0
    2.6339   -1.7919   -0.0672 H   0  0  0  0  0  0  0  0  0  0  0  0
    2.9016   -0.0557    0.4844 H   0  0  0  0  0  0  0  0  0  0  0  0
    0.8210   -0.9049    0.8683 H   0  0  0  0  0  0  0  0  0  0  0  0
   -1.7007   -1.6737    1.0819 H   0  0  0  0  0  0  0  0  0  0  0  0
   -2.3949   -2.2021   -0.4633 H   0  0  0  0  0  0  0  0  0  0  0  0
   -2.7598    0.0064   -1.2482 H   0  0  0  0  0  0  0  0  0  0  0  0
   -3.2600   -0.0258    0.5121 H   0  0  0  0  0  0  0  0  0  0  0  0
   -1.8501    1.9917    0.2598 H   0  0  0  0  0  0  0  0  0  0  0  0
    1.4500    1.9546   -0.4855 H   0  0  0  0  0  0  0  0  0  0  0  0
    0.2139    2.7854    0.5572 H   0  0  0  0  0  0  0  0  0  0  0  0
    1.4046    1.6379    1.2907 H   0  0  0  0  0  0  0  0  0  0  0  0
  1  2  1  0
  2  3  1  0
  3  4  1  0
  4  5  1  0
  5  6  1  0
  6  7  1  0
  7  8  2  0
  8  9  1  0
  8  3  1  0
  1 10  1  0
  1 11  1  0
  1 12  1  0
  3 13  1  0
  5 14  1  0
  5 15  1  0
  6 16  1  0
  6 17  1  0
  7 18  1  0
  9 19  1  0
  9 20  1  0
  9 21  1  0
M  END
