
     RDKit          3D

 21 22  0  0  0  0  0  0  0  0999 V2000
    2.2436   -0.7367   -0.2262 C   0  0  0  0  0  0  0  0  0  0  0  0
    1.0659   -0.5955   -0.9469 O   0  0  0  0  0  0  0  0  0  0  0  0
    0.2232    0.2328   -0.2471 C   0  0  0  0  0  0  0  0  0  0  0  0
    0.7562    1.6044    0.0030 C   0  0  0  0  0  0  0  0  0  0  0  0
   -0.2657   -0.4234    1.0602 C   0  0  0  0  0  0  0  0  0  0  0  0
   -1.7531   -0.2972    0.7741 C   0  0  0  0  0  0  0  0  0  0  0  0
   -1.8804   -0.8920   -0.5869 C   0  0  0  0  0  0  0  0  0  0  0  0
   -1.1374    0.3709   -0.9030 C   0  0  0  0  0  0  0  0  0  0  0  0
   -1.8675    0.9645    0.1530 O   0  0  0  0  0  0  0  0  0  0  0  0
    2.9221   -1.4178   -0.8132 H   0  0  0  0  0  0  0  0  0  0  0  0
    2.7645    0.2369   -0.0913 H   0  0  0  0  0  0  0  0  0  0  0  0
    2.0909   -1.2537    0.7525 H   0  0  0  0  0  0  0  0  0  0  0  0
    1.5913    1.8043   -0.7089 H   0  0  0  0  0  0  0  0  0  0  0  0
    1.0526    1.7736    1.0601 H   0  0  0  0  0  0  0  0  0  0  0  0
   -0.0041    2.4110   -0.2148 H   0  0  0  0  0  0  0  0  0  0  0  0
    0.0185   -1.4860    1.0345 H   0  0  0  0  0  0  0  0  0  0  0  0
    0.0578    0.1306    1.9355 H   0  0  0  0  0  0  0  0  0  0  0  0
   -2.4431   -0.5380    1.5443 H   0  0  0  0  0  0  0  0  0  0  0  0
   -2.8952   -0.8634   -0.9807 H   0  0  0  0  0  0  0  0  0  0  0  0
   -1.3331   -1.8389   -0.7342 H   0  0  0  0  0  0  0  0  0  0  0  0
   -1.2071    0.8136   -1.8642 H   0  0  0  0  0  0  0  0  0  0  0  0
  1  2  1  0
  2  3  1  0
  3  4  1  0
  3  5  1  0
  5  6  1  0
  6  7  1  0
  7  8  1  0
  8  9  1  0
  8  3  1  0
  9  6  1  0
  1 10  1  0
  1 11  1  0
  1 12  1  0
  4 13  1  0
  4 14  1  0
  4 15  1  0
  5 16  1  0
  5 17  1  0
  6 18  1  0
  7 19  1  0
  7 20  1  0
  8 21  1  0
M  END
