
     RDKit          3D

 20 20  0  0  0  0  0  0  0  0999 V2000
    2.9784   -0.9222    0.1883 C   0  0  0  0  0  0  0  0  0  0  0  0
    1.9570   -0.2729   -0.4745 O   0  0  0  0  0  0  0  0  0  0  0  0
    0.7747   -0.2013    0.1574 C   0  0  0  0  0  0  0  0  0  0  0  0
    0.0885    1.1385    0.2826 C   0  0  0  0  0  0  0  0  0  0  0  0
   -1.2048    0.3111    0.3180 C   0  0  0  0  0  0  0  0  0  0  0  0
   -2.3985    0.9699   -0.2641 C   0  0  0  0  0  0  0  0  0  0  0  0
   -1.3648   -0.2593    1.5518 O   0  0  0  0  0  0  0  0  0  0  0  0
   -0.4615   -0.6200   -0.6521 C   0  0  0  0  0  0  0  0  0  0  0  0
    3.2345   -0.4559    1.1615 H   0  0  0  0  0  0  0  0  0  0  0  0
    3.8931   -0.8319   -0.4382 H   0  0  0  0  0  0  0  0  0  0  0  0
    2.7392   -1.9951    0.2735 H   0  0  0  0  0  0  0  0  0  0  0  0
    0.7913   -0.6922    1.1567 H   0  0  0  0  0  0  0  0  0  0  0  0
    0.0782    1.7662   -0.6054 H   0  0  0  0  0  0  0  0  0  0  0  0
    0.2563    1.6840    1.2177 H   0  0  0  0  0  0  0  0  0  0  0  0
   -2.1823    1.6532   -1.0797 H   0  0  0  0  0  0  0  0  0  0  0  0
   -3.0356    0.1462   -0.7011 H   0  0  0  0  0  0  0  0  0  0  0  0
   -3.0020    1.4010    0.5575 H   0  0  0  0  0  0  0  0  0  0  0  0
   -2.0354   -0.9874    1.4651 H   0  0  0  0  0  0  0  0  0  0  0  0
   -0.3792   -0.1628   -1.6516 H   0  0  0  0  0  0  0  0  0  0  0  0
   -0.7271   -1.6691   -0.5829 H   0  0  0  0  0  0  0  0  0  0  0  0
  1  2  1  0
  2  3  1  0
  3  4  1  0
  4  5  1  0
  5  6  1  0
  5  7  1  0
  5  8  1  0
  8  3  1  0
  1  9  1  0
  1 10  1  0
  1 11  1  0
  3 12  1  0
  4 13  1  0
  4 14  1  0
  6 15  1  0
  6 16  1  0
  6 17  1  0
  7 18  1  0
  8 19  1  0
  8 20  1  0
M  END
