
     RDKit          3D

 21 22  0  0  0  0  0  0  0  0999 V2000
    2.4765   -0.7014   -0.3070 C   0  0  0  0  0  0  0  0  0  0  0  0
    1.2135   -1.0386    0.0018 O   0  0  0  0  0  0  0  0  0  0  0  0
    0.2776   -0.1250    0.0419 C   0  0  0  0  0  0  0  0  0  0  0  0
    0.3491    1.0542    0.9809 C   0  0  0  0  0  0  0  0  0  0  0  0
   -0.6414    1.6472   -0.0186 C   0  0  0  0  0  0  0  0  0  0  0  0
   -1.7720    0.7049    0.1305 C   0  0  0  0  0  0  0  0  0  0  0  0
   -1.1401   -0.4967    0.1763 C   0  0  0  0  0  0  0  0  0  0  0  0
   -1.8102   -1.8096    0.3277 C   0  0  0  0  0  0  0  0  0  0  0  0
    0.1899    0.9200   -1.0824 C   0  0  0  0  0  0  0  0  0  0  0  0
    3.1130   -1.6324   -0.2840 H   0  0  0  0  0  0  0  0  0  0  0  0
    2.9793    0.0095    0.3688 H   0  0  0  0  0  0  0  0  0  0  0  0
    2.5105   -0.2473   -1.3322 H   0  0  0  0  0  0  0  0  0  0  0  0
    1.3036    1.5699    1.0579 H   0  0  0  0  0  0  0  0  0  0  0  0
   -0.1911    0.8301    1.9216 H   0  0  0  0  0  0  0  0  0  0  0  0
   -0.7712    2.6784   -0.0808 H   0  0  0  0  0  0  0  0  0  0  0  0
   -2.8317    0.9155    0.1886 H   0  0  0  0  0  0  0  0  0  0  0  0
   -2.7707   -1.7572   -0.2284 H   0  0  0  0  0  0  0  0  0  0  0  0
   -1.9941   -1.9494    1.4272 H   0  0  0  0  0  0  0  0  0  0  0  0
   -1.1355   -2.5871   -0.0584 H   0  0  0  0  0  0  0  0  0  0  0  0
   -0.4855    0.6173   -1.8921 H   0  0  0  0  0  0  0  0  0  0  0  0
    1.1307    1.3979   -1.3393 H   0  0  0  0  0  0  0  0  0  0  0  0
  1  2  1  0
  2  3  1  0
  3  4  1  0
  4  5  1  0
  5  6  1  0
  6  7  2  0
  7  8  1  0
  5  9  1  0
  7  3  1  0
  9  3  1  0
  1 10  1  0
  1 11  1  0
  1 12  1  0
  4 13  1  0
  4 14  1  0
  5 15  1  0
  6 16  1  0
  8 17  1  0
  8 18  1  0
  8 19  1  0
  9 20  1  0
  9 21  1  0
M  END
