
     RDKit          3D

 21 21  0  0  0  0  0  0  0  0999 V2000
   -2.0232    1.5404    0.6895 C   0  0  0  0  0  0  0  0  0  0  0  0
   -1.3706    0.8350   -0.3117 O   0  0  0  0  0  0  0  0  0  0  0  0
   -0.5930   -0.1521    0.2629 C   0  0  0  0  0  0  0  0  0  0  0  0
   -0.9799   -1.5048   -0.3576 C   0  0  0  0  0  0  0  0  0  0  0  0
   -0.2863   -1.3872   -1.6932 C   0  0  0  0  0  0  0  0  0  0  0  0
    0.6442   -0.3873   -1.6052 O   0  0  0  0  0  0  0  0  0  0  0  0
    0.8512   -0.1017   -0.2578 C   0  0  0  0  0  0  0  0  0  0  0  0
    1.4361    1.1144   -0.0450 O   0  0  0  0  0  0  0  0  0  0  0  0
    2.6102    0.8932    0.7028 C   0  0  0  0  0  0  0  0  0  0  0  0
   -1.2354    1.9881    1.3462 H   0  0  0  0  0  0  0  0  0  0  0  0
   -2.6306    0.8779    1.3463 H   0  0  0  0  0  0  0  0  0  0  0  0
   -2.7047    2.3095    0.3047 H   0  0  0  0  0  0  0  0  0  0  0  0
   -0.6355   -0.1914    1.3553 H   0  0  0  0  0  0  0  0  0  0  0  0
   -0.4636   -2.2631    0.2773 H   0  0  0  0  0  0  0  0  0  0  0  0
   -2.0553   -1.6378   -0.4215 H   0  0  0  0  0  0  0  0  0  0  0  0
   -1.0373   -1.1327   -2.4841 H   0  0  0  0  0  0  0  0  0  0  0  0
    0.2494   -2.3282   -1.9621 H   0  0  0  0  0  0  0  0  0  0  0  0
    1.3898   -0.9494    0.1752 H   0  0  0  0  0  0  0  0  0  0  0  0
    3.3119    0.2246    0.1444 H   0  0  0  0  0  0  0  0  0  0  0  0
    3.1290    1.8613    0.8662 H   0  0  0  0  0  0  0  0  0  0  0  0
    2.3936    0.3912    1.6674 H   0  0  0  0  0  0  0  0  0  0  0  0
  1  2  1  0
  2  3  1  0
  3  4  1  0
  4  5  1  0
  5  6  1  0
  6  7  1  0
  7  8  1  0
  8  9  1  0
  7  3  1  0
  1 10  1  0
  1 11  1  0
  1 12  1  0
  3 13  1  0
  4 14  1  0
  4 15  1  0
  5 16  1  0
  5 17  1  0
  7 18  1  0
  9 19  1  0
  9 20  1  0
  9 21  1  0
M  END
