
     RDKit          3D

 17 18  0  0  0  0  0  0  0  0999 V2000
   -2.0711    0.8485    0.0160 C   0  0  0  0  0  0  0  0  0  0  0  0
   -1.1865    0.2374   -0.8778 O   0  0  0  0  0  0  0  0  0  0  0  0
   -0.0993   -0.2013   -0.1385 C   0  0  0  0  0  0  0  0  0  0  0  0
    0.6943    0.8332    0.6174 C   0  0  0  0  0  0  0  0  0  0  0  0
    2.0906    0.3932    0.6125 C   0  0  0  0  0  0  0  0  0  0  0  0
    3.0482    0.9186    1.2244 O   0  0  0  0  0  0  0  0  0  0  0  0
    2.2031   -0.7212   -0.1906 O   0  0  0  0  0  0  0  0  0  0  0  0
    0.9557   -1.0549   -0.7568 C   0  0  0  0  0  0  0  0  0  0  0  0
   -0.0531   -1.6314    0.2361 C   0  0  0  0  0  0  0  0  0  0  0  0
   -2.3954    0.1129    0.7889 H   0  0  0  0  0  0  0  0  0  0  0  0
   -2.9611    1.2594   -0.4565 H   0  0  0  0  0  0  0  0  0  0  0  0
   -1.5661    1.6658    0.5825 H   0  0  0  0  0  0  0  0  0  0  0  0
    0.6467    1.7732   -0.0060 H   0  0  0  0  0  0  0  0  0  0  0  0
    0.2847    1.0924    1.5910 H   0  0  0  0  0  0  0  0  0  0  0  0
    0.8675   -1.2880   -1.8152 H   0  0  0  0  0  0  0  0  0  0  0  0
    0.3325   -1.9559    1.2316 H   0  0  0  0  0  0  0  0  0  0  0  0
   -0.7907   -2.2819   -0.2437 H   0  0  0  0  0  0  0  0  0  0  0  0
  1  2  1  0
  2  3  1  0
  3  4  1  0
  4  5  1  0
  5  6  2  0
  5  7  1  0
  7  8  1  0
  8  9  1  0
  8  3  1  0
  9  3  1  0
  1 10  1  0
  1 11  1  0
  1 12  1  0
  4 13  1  0
  4 14  1  0
  8 15  1  0
  9 16  1  0
  9 17  1  0
M  END
