
     RDKit          3D

 17 17  0  0  0  0  0  0  0  0999 V2000
    2.6875    0.0501    0.2192 C   0  0  0  0  0  0  0  0  0  0  0  0
    1.5044    0.6120   -0.2222 O   0  0  0  0  0  0  0  0  0  0  0  0
    0.3831   -0.0626    0.1836 C   0  0  0  0  0  0  0  0  0  0  0  0
   -0.8660   -0.0410   -0.6175 C   0  0  0  0  0  0  0  0  0  0  0  0
   -1.8473   -1.1830   -0.5299 C   0  0  0  0  0  0  0  0  0  0  0  0
   -0.7563    0.7659    0.6695 C   0  0  0  0  0  0  0  0  0  0  0  0
   -0.7511    2.1566    0.4523 O   0  0  0  0  0  0  0  0  0  0  0  0
    3.5209    0.6892   -0.1764 H   0  0  0  0  0  0  0  0  0  0  0  0
    2.8735   -0.9607   -0.1814 H   0  0  0  0  0  0  0  0  0  0  0  0
    2.7521   -0.0173    1.3181 H   0  0  0  0  0  0  0  0  0  0  0  0
    0.5916   -0.9603    0.8067 H   0  0  0  0  0  0  0  0  0  0  0  0
   -0.9054    0.5014   -1.5788 H   0  0  0  0  0  0  0  0  0  0  0  0
   -2.8698   -0.7378   -0.6296 H   0  0  0  0  0  0  0  0  0  0  0  0
   -1.8107   -1.7121    0.4284 H   0  0  0  0  0  0  0  0  0  0  0  0
   -1.7397   -1.8789   -1.4007 H   0  0  0  0  0  0  0  0  0  0  0  0
   -1.3642    0.4601    1.5430 H   0  0  0  0  0  0  0  0  0  0  0  0
   -1.4025    2.3184   -0.2842 H   0  0  0  0  0  0  0  0  0  0  0  0
  1  2  1  0
  2  3  1  0
  3  4  1  0
  4  5  1  0
  4  6  1  0
  6  7  1  0
  6  3  1  0
  1  8  1  0
  1  9  1  0
  1 10  1  0
  3 11  1  0
  4 12  1  0
  5 13  1  0
  5 14  1  0
  5 15  1  0
  6 16  1  0
  7 17  1  0
M  END
