
     RDKit          3D

 20 21  0  0  0  0  0  0  0  0999 V2000
    2.4122   -0.6430    0.3556 C   0  0  0  0  0  0  0  0  0  0  0  0
    1.3477    0.0053    0.9293 O   0  0  0  0  0  0  0  0  0  0  0  0
    0.3386    0.3490    0.2820 C   0  0  0  0  0  0  0  0  0  0  0  0
   -0.8847    1.0604    0.7927 C   0  0  0  0  0  0  0  0  0  0  0  0
   -1.1656    0.8977   -0.6701 C   0  0  0  0  0  0  0  0  0  0  0  0
    0.2697    1.3299   -0.8732 C   0  0  0  0  0  0  0  0  0  0  0  0
   -0.6035   -0.4899   -0.5322 C   0  0  0  0  0  0  0  0  0  0  0  0
   -1.5238   -1.3868    0.2375 C   0  0  0  0  0  0  0  0  0  0  0  0
    3.2078   -0.8544    1.1282 H   0  0  0  0  0  0  0  0  0  0  0  0
    2.1521   -1.5995   -0.1435 H   0  0  0  0  0  0  0  0  0  0  0  0
    2.9147   -0.0231   -0.4362 H   0  0  0  0  0  0  0  0  0  0  0  0
   -1.5296    0.4889    1.4819 H   0  0  0  0  0  0  0  0  0  0  0  0
   -0.7104    2.1121    1.0423 H   0  0  0  0  0  0  0  0  0  0  0  0
   -1.9628    1.1927   -1.1917 H   0  0  0  0  0  0  0  0  0  0  0  0
    0.6551    0.9710   -1.8323 H   0  0  0  0  0  0  0  0  0  0  0  0
    0.4881    2.3522   -0.5690 H   0  0  0  0  0  0  0  0  0  0  0  0
   -0.1287   -0.9094   -1.4172 H   0  0  0  0  0  0  0  0  0  0  0  0
   -2.5344   -0.9409    0.3585 H   0  0  0  0  0  0  0  0  0  0  0  0
   -1.0933   -1.5207    1.2718 H   0  0  0  0  0  0  0  0  0  0  0  0
   -1.6494   -2.3915   -0.2142 H   0  0  0  0  0  0  0  0  0  0  0  0
  1  2  1  0
  2  3  1  0
  3  4  1  0
  4  5  1  0
  5  6  1  0
  5  7  1  0
  7  8  1  0
  6  3  1  0
  7  3  1  0
  1  9  1  0
  1 10  1  0
  1 11  1  0
  4 12  1  0
  4 13  1  0
  5 14  1  0
  6 15  1  0
  6 16  1  0
  7 17  1  0
  8 18  1  0
  8 19  1  0
  8 20  1  0
M  END
