
     RDKit          3D

 17 18  0  0  0  0  0  0  0  0999 V2000
    2.0978   -0.2188   -0.1269 C   0  0  0  0  0  0  0  0  0  0  0  0
    0.9316   -0.1136   -0.8411 O   0  0  0  0  0  0  0  0  0  0  0  0
   -0.1914    0.1191   -0.0914 C   0  0  0  0  0  0  0  0  0  0  0  0
   -0.0376    1.4326    0.6792 C   0  0  0  0  0  0  0  0  0  0  0  0
   -0.7071   -0.9961    0.7107 C   0  0  0  0  0  0  0  0  0  0  0  0
   -0.5030   -1.6308    1.7301 O   0  0  0  0  0  0  0  0  0  0  0  0
   -1.7931   -1.1641   -0.3093 C   0  0  0  0  0  0  0  0  0  0  0  0
   -2.6649   -0.1128   -0.4436 O   0  0  0  0  0  0  0  0  0  0  0  0
   -1.4224    0.1339   -0.9809 C   0  0  0  0  0  0  0  0  0  0  0  0
    2.2698    0.7158    0.4185 H   0  0  0  0  0  0  0  0  0  0  0  0
    2.1618   -1.1256    0.5043 H   0  0  0  0  0  0  0  0  0  0  0  0
    2.9324   -0.3075   -0.8673 H   0  0  0  0  0  0  0  0  0  0  0  0
    0.6368    1.2322    1.5265 H   0  0  0  0  0  0  0  0  0  0  0  0
   -1.0223    1.7900    1.0563 H   0  0  0  0  0  0  0  0  0  0  0  0
    0.4504    2.1660    0.0147 H   0  0  0  0  0  0  0  0  0  0  0  0
   -1.8554   -2.0720   -0.9019 H   0  0  0  0  0  0  0  0  0  0  0  0
   -1.2836    0.1516   -2.0777 H   0  0  0  0  0  0  0  0  0  0  0  0
  1  2  1  0
  2  3  1  0
  3  4  1  0
  3  5  1  0
  5  6  2  0
  5  7  1  0
  7  8  1  0
  8  9  1  0
  9  3  1  0
  9  7  1  0
  1 10  1  0
  1 11  1  0
  1 12  1  0
  4 13  1  0
  4 14  1  0
  4 15  1  0
  7 16  1  0
  9 17  1  0
M  END
