
     RDKit          3D

 19 20  0  0  0  0  0  0  0  0999 V2000
    2.5600    0.8354    0.3905 C   0  0  0  0  0  0  0  0  0  0  0  0
    1.2172    0.8995    0.0392 O   0  0  0  0  0  0  0  0  0  0  0  0
    0.6265   -0.3374   -0.1120 C   0  0  0  0  0  0  0  0  0  0  0  0
    0.0035   -0.4001   -1.4988 C   0  0  0  0  0  0  0  0  0  0  0  0
   -1.1038   -1.2227   -1.3473 O   0  0  0  0  0  0  0  0  0  0  0  0
   -1.6683   -0.9026   -0.1374 C   0  0  0  0  0  0  0  0  0  0  0  0
   -2.2223    0.4986   -0.0237 C   0  0  0  0  0  0  0  0  0  0  0  0
   -1.2208    0.8409    0.9047 O   0  0  0  0  0  0  0  0  0  0  0  0
   -0.5795   -0.4048    0.7736 C   0  0  0  0  0  0  0  0  0  0  0  0
    3.1754    0.3004   -0.3668 H   0  0  0  0  0  0  0  0  0  0  0  0
    2.7259    0.3237    1.3668 H   0  0  0  0  0  0  0  0  0  0  0  0
    2.9329    1.8792    0.4387 H   0  0  0  0  0  0  0  0  0  0  0  0
    1.3068   -1.1883    0.0680 H   0  0  0  0  0  0  0  0  0  0  0  0
    0.7331   -0.8306   -2.2291 H   0  0  0  0  0  0  0  0  0  0  0  0
   -0.3454    0.6002   -1.7696 H   0  0  0  0  0  0  0  0  0  0  0  0
   -2.3350   -1.6424    0.2990 H   0  0  0  0  0  0  0  0  0  0  0  0
   -3.2017    0.5886    0.4811 H   0  0  0  0  0  0  0  0  0  0  0  0
   -2.1182    1.1384   -0.9048 H   0  0  0  0  0  0  0  0  0  0  0  0
   -0.4863   -0.9762    1.6997 H   0  0  0  0  0  0  0  0  0  0  0  0
  1  2  1  0
  2  3  1  0
  3  4  1  0
  4  5  1  0
  5  6  1  0
  6  7  1  0
  7  8  1  0
  8  9  1  0
  9  3  1  0
  9  6  1  0
  1 10  1  0
  1 11  1  0
  1 12  1  0
  3 13  1  0
  4 14  1  0
  4 15  1  0
  6 16  1  0
  7 17  1  0
  7 18  1  0
  9 19  1  0
M  END
