
     RDKit          3D

 17 17  0  0  0  0  0  0  0  0999 V2000
    2.5921    0.2661    0.2831 C   0  0  0  0  0  0  0  0  0  0  0  0
    1.7175   -0.6651   -0.2759 O   0  0  0  0  0  0  0  0  0  0  0  0
    0.4430   -0.3417    0.1302 C   0  0  0  0  0  0  0  0  0  0  0  0
   -0.4602    0.0030   -1.0430 C   0  0  0  0  0  0  0  0  0  0  0  0
   -1.8243   -0.1648   -0.4190 C   0  0  0  0  0  0  0  0  0  0  0  0
   -2.3355    1.0891   -0.0931 O   0  0  0  0  0  0  0  0  0  0  0  0
   -1.5861   -1.0030    0.7921 C   0  0  0  0  0  0  0  0  0  0  0  0
   -2.4759   -1.2747    1.6454 O   0  0  0  0  0  0  0  0  0  0  0  0
   -0.2513   -1.3774    0.7476 O   0  0  0  0  0  0  0  0  0  0  0  0
    2.3396    1.3112   -0.0585 H   0  0  0  0  0  0  0  0  0  0  0  0
    2.5903    0.2244    1.4018 H   0  0  0  0  0  0  0  0  0  0  0  0
    3.6301    0.0947   -0.1236 H   0  0  0  0  0  0  0  0  0  0  0  0
    0.4265    0.5671    0.7923 H   0  0  0  0  0  0  0  0  0  0  0  0
   -0.2301    1.0427   -1.3238 H   0  0  0  0  0  0  0  0  0  0  0  0
   -0.2904   -0.6684   -1.9059 H   0  0  0  0  0  0  0  0  0  0  0  0
   -2.4980   -0.6813   -1.0956 H   0  0  0  0  0  0  0  0  0  0  0  0
   -1.7872    1.5782    0.5459 H   0  0  0  0  0  0  0  0  0  0  0  0
  1  2  1  0
  2  3  1  0
  3  4  1  0
  4  5  1  0
  5  6  1  0
  5  7  1  0
  7  8  2  0
  7  9  1  0
  9  3  1  0
  1 10  1  0
  1 11  1  0
  1 12  1  0
  3 13  1  0
  4 14  1  0
  4 15  1  0
  5 16  1  0
  6 17  1  0
M  END
