
     RDKit          3D

 19 21  0  0  0  0  0  0  0  0999 V2000
    2.5076   -0.1891   -0.0187 C   0  0  0  0  0  0  0  0  0  0  0  0
    1.2248   -0.6950   -0.2111 O   0  0  0  0  0  0  0  0  0  0  0  0
    0.3281    0.1813    0.3546 C   0  0  0  0  0  0  0  0  0  0  0  0
    0.3977    1.4909   -0.2496 C   0  0  0  0  0  0  0  0  0  0  0  0
   -0.8353    0.7857   -0.5162 C   0  0  0  0  0  0  0  0  0  0  0  0
   -1.8990    1.3898    0.1942 O   0  0  0  0  0  0  0  0  0  0  0  0
   -1.1101   -0.6596   -0.6753 C   0  0  0  0  0  0  0  0  0  0  0  0
   -1.5989   -1.6427    0.2534 C   0  0  0  0  0  0  0  0  0  0  0  0
   -0.8459   -0.5711    0.8760 C   0  0  0  0  0  0  0  0  0  0  0  0
    2.6460    0.7958   -0.4790 H   0  0  0  0  0  0  0  0  0  0  0  0
    3.2895   -0.9041   -0.3926 H   0  0  0  0  0  0  0  0  0  0  0  0
    2.6580   -0.0512    1.0878 H   0  0  0  0  0  0  0  0  0  0  0  0
    0.9891    1.7201   -1.1875 H   0  0  0  0  0  0  0  0  0  0  0  0
    0.5068    2.3436    0.4645 H   0  0  0  0  0  0  0  0  0  0  0  0
   -2.6460    1.4183   -0.4128 H   0  0  0  0  0  0  0  0  0  0  0  0
   -0.2716   -1.0977   -1.2966 H   0  0  0  0  0  0  0  0  0  0  0  0
   -1.1478   -2.6714    0.3914 H   0  0  0  0  0  0  0  0  0  0  0  0
   -2.7168   -1.7232    0.3376 H   0  0  0  0  0  0  0  0  0  0  0  0
   -1.4761    0.0796    1.4801 H   0  0  0  0  0  0  0  0  0  0  0  0
  1  2  1  0
  2  3  1  0
  3  4  1  0
  4  5  1  0
  5  6  1  0
  5  7  1  0
  7  8  1  0
  8  9  1  0
  5  3  1  0
  9  7  1  0
  9  3  1  0
  1 10  1  0
  1 11  1  0
  1 12  1  0
  4 13  1  0
  4 14  1  0
  6 15  1  0
  7 16  1  0
  8 17  1  0
  8 18  1  0
  9 19  1  0
M  END
