
     RDKit          3D

 23 23  0  0  0  0  0  0  0  0999 V2000
   -2.1680   -0.3847    1.0473 C   0  0  0  0  0  0  0  0  0  0  0  0
   -1.0346    0.4110    0.9404 O   0  0  0  0  0  0  0  0  0  0  0  0
   -0.4391    0.2098   -0.2750 C   0  0  0  0  0  0  0  0  0  0  0  0
   -1.3428    0.5466   -1.4521 C   0  0  0  0  0  0  0  0  0  0  0  0
    0.7925    1.1137   -0.4371 C   0  0  0  0  0  0  0  0  0  0  0  0
    1.8937    0.7353    0.4787 C   0  0  0  0  0  0  0  0  0  0  0  0
    1.9466   -0.6605    0.9336 C   0  0  0  0  0  0  0  0  0  0  0  0
    0.8528   -1.4424    0.7356 O   0  0  0  0  0  0  0  0  0  0  0  0
    0.1255   -1.2012   -0.3992 C   0  0  0  0  0  0  0  0  0  0  0  0
   -2.6548   -0.2148    2.0476 H   0  0  0  0  0  0  0  0  0  0  0  0
   -2.9308   -0.1553    0.2906 H   0  0  0  0  0  0  0  0  0  0  0  0
   -1.9121   -1.4847    1.0297 H   0  0  0  0  0  0  0  0  0  0  0  0
   -2.1313   -0.1870   -1.6098 H   0  0  0  0  0  0  0  0  0  0  0  0
   -0.6508    0.6220   -2.3405 H   0  0  0  0  0  0  0  0  0  0  0  0
   -1.7048    1.5768   -1.2750 H   0  0  0  0  0  0  0  0  0  0  0  0
    1.0704    1.0294   -1.5085 H   0  0  0  0  0  0  0  0  0  0  0  0
    0.4437    2.1720   -0.2834 H   0  0  0  0  0  0  0  0  0  0  0  0
    1.8809    1.4657    1.3418 H   0  0  0  0  0  0  0  0  0  0  0  0
    2.8661    0.9730   -0.0458 H   0  0  0  0  0  0  0  0  0  0  0  0
    2.8397   -1.2193    0.5223 H   0  0  0  0  0  0  0  0  0  0  0  0
    2.1377   -0.6597    2.0495 H   0  0  0  0  0  0  0  0  0  0  0  0
   -0.6552   -1.9627   -0.4988 H   0  0  0  0  0  0  0  0  0  0  0  0
    0.7747   -1.2827   -1.2919 H   0  0  0  0  0  0  0  0  0  0  0  0
  1  2  1  0
  2  3  1  0
  3  4  1  0
  3  5  1  0
  5  6  1  0
  6  7  1  0
  7  8  1  0
  8  9  1  0
  9  3  1  0
  1 10  1  0
  1 11  1  0
  1 12  1  0
  4 13  1  0
  4 14  1  0
  4 15  1  0
  5 16  1  0
  5 17  1  0
  6 18  1  0
  6 19  1  0
  7 20  1  0
  7 21  1  0
  9 22  1  0
  9 23  1  0
M  END
