
     RDKit          3D

 21 21  0  0  0  0  0  0  0  0999 V2000
    3.0788   -0.4250   -0.5846 C   0  0  0  0  0  0  0  0  0  0  0  0
    1.8439   -1.0736   -0.5552 O   0  0  0  0  0  0  0  0  0  0  0  0
    0.9103   -0.1960   -0.0419 C   0  0  0  0  0  0  0  0  0  0  0  0
    0.2328   -0.7135    1.1997 C   0  0  0  0  0  0  0  0  0  0  0  0
   -1.1234   -0.0405    1.2202 C   0  0  0  0  0  0  0  0  0  0  0  0
   -1.2418    0.7166   -0.0951 C   0  0  0  0  0  0  0  0  0  0  0  0
   -2.6277    0.5927   -0.6813 C   0  0  0  0  0  0  0  0  0  0  0  0
   -0.2332    0.0489   -0.9270 C   0  0  0  0  0  0  0  0  0  0  0  0
   -0.3274   -0.2335   -2.0800 O   0  0  0  0  0  0  0  0  0  0  0  0
    2.9493    0.4776   -1.2479 H   0  0  0  0  0  0  0  0  0  0  0  0
    3.8865   -1.0539   -0.9856 H   0  0  0  0  0  0  0  0  0  0  0  0
    3.3355    0.0075    0.4211 H   0  0  0  0  0  0  0  0  0  0  0  0
    1.3617    0.7817    0.2132 H   0  0  0  0  0  0  0  0  0  0  0  0
    0.8241   -0.4205    2.0926 H   0  0  0  0  0  0  0  0  0  0  0  0
    0.1502   -1.8271    1.1693 H   0  0  0  0  0  0  0  0  0  0  0  0
   -1.2235    0.6870    2.0368 H   0  0  0  0  0  0  0  0  0  0  0  0
   -1.9442   -0.7893    1.2132 H   0  0  0  0  0  0  0  0  0  0  0  0
   -0.9798    1.7891    0.0854 H   0  0  0  0  0  0  0  0  0  0  0  0
   -2.5524    0.0393   -1.6263 H   0  0  0  0  0  0  0  0  0  0  0  0
   -3.0373    1.6285   -0.8351 H   0  0  0  0  0  0  0  0  0  0  0  0
   -3.2824    0.0040    0.0085 H   0  0  0  0  0  0  0  0  0  0  0  0
  1  2  1  0
  2  3  1  0
  3  4  1  0
  4  5  1  0
  5  6  1  0
  6  7  1  0
  6  8  1  0
  8  9  2  0
  8  3  1  0
  1 10  1  0
  1 11  1  0
  1 12  1  0
  3 13  1  0
  4 14  1  0
  4 15  1  0
  5 16  1  0
  5 17  1  0
  6 18  1  0
  7 19  1  0
  7 20  1  0
  7 21  1  0
M  END
