
     RDKit          3D

 19 20  0  0  0  0  0  0  0  0999 V2000
   -2.6047   -0.1918    0.2273 C   0  0  0  0  0  0  0  0  0  0  0  0
   -1.7584   -1.0104   -0.5168 O   0  0  0  0  0  0  0  0  0  0  0  0
   -0.4749   -0.5133   -0.6199 C   0  0  0  0  0  0  0  0  0  0  0  0
   -0.1737    0.7855   -1.2292 C   0  0  0  0  0  0  0  0  0  0  0  0
    0.0163    0.5837    0.2342 C   0  0  0  0  0  0  0  0  0  0  0  0
    1.1061   -0.3356    0.7045 C   0  0  0  0  0  0  0  0  0  0  0  0
    2.4588    0.2816    0.4504 C   0  0  0  0  0  0  0  0  0  0  0  0
    0.6869   -1.3709   -0.2740 C   0  0  0  0  0  0  0  0  0  0  0  0
    1.0515   -2.4517   -0.6806 O   0  0  0  0  0  0  0  0  0  0  0  0
   -3.6019   -0.7205    0.2232 H   0  0  0  0  0  0  0  0  0  0  0  0
   -2.6656    0.8105   -0.2342 H   0  0  0  0  0  0  0  0  0  0  0  0
   -2.2268   -0.0924    1.2784 H   0  0  0  0  0  0  0  0  0  0  0  0
    0.6911    0.8428   -1.9202 H   0  0  0  0  0  0  0  0  0  0  0  0
   -1.0357    1.4529   -1.4869 H   0  0  0  0  0  0  0  0  0  0  0  0
   -0.6166    1.1187    0.9590 H   0  0  0  0  0  0  0  0  0  0  0  0
    0.9185   -0.6487    1.7485 H   0  0  0  0  0  0  0  0  0  0  0  0
    2.3795    0.8114   -0.5400 H   0  0  0  0  0  0  0  0  0  0  0  0
    3.2715   -0.4520    0.4772 H   0  0  0  0  0  0  0  0  0  0  0  0
    2.5778    1.1002    1.1988 H   0  0  0  0  0  0  0  0  0  0  0  0
  1  2  1  0
  2  3  1  0
  3  4  1  0
  4  5  1  0
  5  6  1  0
  6  7  1  0
  6  8  1  0
  8  9  2  0
  5  3  1  0
  8  3  1  0
  1 10  1  0
  1 11  1  0
  1 12  1  0
  4 13  1  0
  4 14  1  0
  5 15  1  0
  6 16  1  0
  7 17  1  0
  7 18  1  0
  7 19  1  0
M  END
