
     RDKit          3D

 21 22  0  0  0  0  0  0  0  0999 V2000
    2.5342   -1.4931    0.1690 C   0  0  0  0  0  0  0  0  0  0  0  0
    1.5897   -0.6504    0.7989 O   0  0  0  0  0  0  0  0  0  0  0  0
    1.0211    0.2153   -0.1003 C   0  0  0  0  0  0  0  0  0  0  0  0
    0.9591    1.6747    0.3628 C   0  0  0  0  0  0  0  0  0  0  0  0
   -0.5015    1.6645   -0.1114 C   0  0  0  0  0  0  0  0  0  0  0  0
   -0.4585    0.2000   -0.0424 C   0  0  0  0  0  0  0  0  0  0  0  0
   -1.0042   -0.2579    1.2641 O   0  0  0  0  0  0  0  0  0  0  0  0
   -1.3873   -0.7825    0.0139 C   0  0  0  0  0  0  0  0  0  0  0  0
   -2.8354   -0.5317   -0.4268 C   0  0  0  0  0  0  0  0  0  0  0  0
    3.3017   -0.8390   -0.2605 H   0  0  0  0  0  0  0  0  0  0  0  0
    2.0100   -2.1257   -0.5734 H   0  0  0  0  0  0  0  0  0  0  0  0
    3.0020   -2.1672    0.9068 H   0  0  0  0  0  0  0  0  0  0  0  0
    1.3752    0.1288   -1.1551 H   0  0  0  0  0  0  0  0  0  0  0  0
    1.0795    1.7103    1.4559 H   0  0  0  0  0  0  0  0  0  0  0  0
    1.6158    2.3282   -0.2068 H   0  0  0  0  0  0  0  0  0  0  0  0
   -0.5554    2.1538   -1.0905 H   0  0  0  0  0  0  0  0  0  0  0  0
   -1.1262    2.2119    0.6217 H   0  0  0  0  0  0  0  0  0  0  0  0
   -1.1269   -1.8583   -0.0713 H   0  0  0  0  0  0  0  0  0  0  0  0
   -3.0459    0.5281   -0.5602 H   0  0  0  0  0  0  0  0  0  0  0  0
   -2.9713   -1.1053   -1.3667 H   0  0  0  0  0  0  0  0  0  0  0  0
   -3.4759   -1.0045    0.3725 H   0  0  0  0  0  0  0  0  0  0  0  0
  1  2  1  0
  2  3  1  0
  3  4  1  0
  4  5  1  0
  5  6  1  0
  6  7  1  0
  7  8  1  0
  8  9  1  0
  6  3  1  0
  8  6  1  0
  1 10  1  0
  1 11  1  0
  1 12  1  0
  3 13  1  0
  4 14  1  0
  4 15  1  0
  5 16  1  0
  5 17  1  0
  8 18  1  0
  9 19  1  0
  9 20  1  0
  9 21  1  0
M  END
