
     RDKit          3D

 21 22  0  0  0  0  0  0  0  0999 V2000
    3.0629    0.0196    0.4132 C   0  0  0  0  0  0  0  0  0  0  0  0
    1.9260   -0.7257    0.6874 O   0  0  0  0  0  0  0  0  0  0  0  0
    0.8158   -0.0241    0.2738 C   0  0  0  0  0  0  0  0  0  0  0  0
    0.0277   -0.8654   -0.7302 C   0  0  0  0  0  0  0  0  0  0  0  0
   -1.3713   -0.3652   -0.7898 C   0  0  0  0  0  0  0  0  0  0  0  0
   -1.4278    1.1134   -0.3778 C   0  0  0  0  0  0  0  0  0  0  0  0
   -1.2763    0.6171    1.0379 C   0  0  0  0  0  0  0  0  0  0  0  0
   -2.0127   -0.6500    0.5764 C   0  0  0  0  0  0  0  0  0  0  0  0
    0.0034    0.2531    1.3707 O   0  0  0  0  0  0  0  0  0  0  0  0
    3.0473    1.0124    0.9456 H   0  0  0  0  0  0  0  0  0  0  0  0
    3.1673    0.2550   -0.6650 H   0  0  0  0  0  0  0  0  0  0  0  0
    3.9952   -0.4933    0.7206 H   0  0  0  0  0  0  0  0  0  0  0  0
    1.1330    0.9329   -0.1598 H   0  0  0  0  0  0  0  0  0  0  0  0
    0.0190   -1.9017   -0.2990 H   0  0  0  0  0  0  0  0  0  0  0  0
    0.5381   -0.9232   -1.6987 H   0  0  0  0  0  0  0  0  0  0  0  0
   -1.9862   -0.6251   -1.6482 H   0  0  0  0  0  0  0  0  0  0  0  0
   -2.4405    1.5039   -0.5434 H   0  0  0  0  0  0  0  0  0  0  0  0
   -0.6349    1.7377   -0.7783 H   0  0  0  0  0  0  0  0  0  0  0  0
   -1.8137    1.1770    1.8017 H   0  0  0  0  0  0  0  0  0  0  0  0
   -1.6805   -1.5714    1.0539 H   0  0  0  0  0  0  0  0  0  0  0  0
   -3.0917   -0.4770    0.4950 H   0  0  0  0  0  0  0  0  0  0  0  0
  1  2  1  0
  2  3  1  0
  3  4  1  0
  4  5  1  0
  5  6  1  0
  6  7  1  0
  7  8  1  0
  7  9  1  0
  9  3  1  0
  8  5  1  0
  1 10  1  0
  1 11  1  0
  1 12  1  0
  3 13  1  0
  4 14  1  0
  4 15  1  0
  5 16  1  0
  6 17  1  0
  6 18  1  0
  7 19  1  0
  8 20  1  0
  8 21  1  0
M  END
