
     RDKit          3D

 23 23  0  0  0  0  0  0  0  0999 V2000
    3.0392    0.8753   -0.6898 C   0  0  0  0  0  0  0  0  0  0  0  0
    2.1853    0.6160    0.3719 O   0  0  0  0  0  0  0  0  0  0  0  0
    1.1476   -0.2400    0.0373 C   0  0  0  0  0  0  0  0  0  0  0  0
    0.9886   -1.2936    1.1120 C   0  0  0  0  0  0  0  0  0  0  0  0
    0.2221   -0.3619    1.8251 O   0  0  0  0  0  0  0  0  0  0  0  0
   -0.1432    0.2437    0.6230 C   0  0  0  0  0  0  0  0  0  0  0  0
   -1.4029   -0.3025    0.0244 C   0  0  0  0  0  0  0  0  0  0  0  0
   -1.5780   -0.0160   -1.4227 C   0  0  0  0  0  0  0  0  0  0  0  0
   -2.5817    0.2853    0.7728 C   0  0  0  0  0  0  0  0  0  0  0  0
    2.5252    1.3478   -1.5520 H   0  0  0  0  0  0  0  0  0  0  0  0
    3.6310   -0.0194   -0.9799 H   0  0  0  0  0  0  0  0  0  0  0  0
    3.7806    1.6230   -0.3278 H   0  0  0  0  0  0  0  0  0  0  0  0
    1.1208   -0.6037   -0.9973 H   0  0  0  0  0  0  0  0  0  0  0  0
    0.3792   -2.1585    0.8553 H   0  0  0  0  0  0  0  0  0  0  0  0
    1.9328   -1.5931    1.5848 H   0  0  0  0  0  0  0  0  0  0  0  0
   -0.1789    1.3451    0.7802 H   0  0  0  0  0  0  0  0  0  0  0  0
   -1.4148   -1.4040    0.2151 H   0  0  0  0  0  0  0  0  0  0  0  0
   -2.6818   -0.0918   -1.6507 H   0  0  0  0  0  0  0  0  0  0  0  0
   -1.3154    1.0364   -1.6491 H   0  0  0  0  0  0  0  0  0  0  0  0
   -1.0892   -0.7380   -2.1003 H   0  0  0  0  0  0  0  0  0  0  0  0
   -2.6302   -0.1085    1.8098 H   0  0  0  0  0  0  0  0  0  0  0  0
   -2.3974    1.3972    0.8017 H   0  0  0  0  0  0  0  0  0  0  0  0
   -3.5387    0.1613    0.2258 H   0  0  0  0  0  0  0  0  0  0  0  0
  1  2  1  0
  2  3  1  0
  3  4  1  0
  4  5  1  0
  5  6  1  0
  6  7  1  0
  7  8  1  0
  7  9  1  0
  6  3  1  0
  1 10  1  0
  1 11  1  0
  1 12  1  0
  3 13  1  0
  4 14  1  0
  4 15  1  0
  6 16  1  0
  7 17  1  0
  8 18  1  0
  8 19  1  0
  8 20  1  0
  9 21  1  0
  9 22  1  0
  9 23  1  0
M  END
