
     RDKit          3D

 23 23  0  0  0  0  0  0  0  0999 V2000
   -3.0361    0.0308   -0.1845 C   0  0  0  0  0  0  0  0  0  0  0  0
   -1.6760    0.1206   -0.4930 O   0  0  0  0  0  0  0  0  0  0  0  0
   -0.8773   -0.2816    0.5768 C   0  0  0  0  0  0  0  0  0  0  0  0
   -0.0314   -1.4153    0.1330 C   0  0  0  0  0  0  0  0  0  0  0  0
    1.4446   -1.1663    0.1452 C   0  0  0  0  0  0  0  0  0  0  0  0
    1.9087   -0.0639   -0.7322 C   0  0  0  0  0  0  0  0  0  0  0  0
    1.8160    1.3011   -0.0712 C   0  0  0  0  0  0  0  0  0  0  0  0
    0.3113    1.5971   -0.0028 C   0  0  0  0  0  0  0  0  0  0  0  0
   -0.1835    0.8305    1.0135 O   0  0  0  0  0  0  0  0  0  0  0  0
   -3.3256    0.6583    0.6742 H   0  0  0  0  0  0  0  0  0  0  0  0
   -3.6190    0.2173   -1.1009 H   0  0  0  0  0  0  0  0  0  0  0  0
   -3.2716   -1.0282    0.1167 H   0  0  0  0  0  0  0  0  0  0  0  0
   -1.5645   -0.5695    1.3998 H   0  0  0  0  0  0  0  0  0  0  0  0
   -0.2147   -2.2779    0.8104 H   0  0  0  0  0  0  0  0  0  0  0  0
   -0.3104   -1.7710   -0.8847 H   0  0  0  0  0  0  0  0  0  0  0  0
    1.9258   -2.1088   -0.2237 H   0  0  0  0  0  0  0  0  0  0  0  0
    1.8366   -1.0419    1.1884 H   0  0  0  0  0  0  0  0  0  0  0  0
    1.3037   -0.0162   -1.6459 H   0  0  0  0  0  0  0  0  0  0  0  0
    2.9751   -0.2460   -1.0283 H   0  0  0  0  0  0  0  0  0  0  0  0
    2.1599    1.2293    0.9928 H   0  0  0  0  0  0  0  0  0  0  0  0
    2.3270    2.0611   -0.6514 H   0  0  0  0  0  0  0  0  0  0  0  0
   -0.1062    1.2644   -0.9931 H   0  0  0  0  0  0  0  0  0  0  0  0
    0.2077    2.6759    0.1144 H   0  0  0  0  0  0  0  0  0  0  0  0
  1  2  1  0
  2  3  1  0
  3  4  1  0
  4  5  1  0
  5  6  1  0
  6  7  1  0
  7  8  1  0
  8  9  1  0
  9  3  1  0
  1 10  1  0
  1 11  1  0
  1 12  1  0
  3 13  1  0
  4 14  1  0
  4 15  1  0
  5 16  1  0
  5 17  1  0
  6 18  1  0
  6 19  1  0
  7 20  1  0
  7 21  1  0
  8 22  1  0
  8 23  1  0
M  END
