
     RDKit          3D

 19 20  0  0  0  0  0  0  0  0999 V2000
    2.7906   -0.2312   -0.2106 C   0  0  0  0  0  0  0  0  0  0  0  0
    1.6815    0.5854   -0.0496 O   0  0  0  0  0  0  0  0  0  0  0  0
    0.5050   -0.1564    0.0989 C   0  0  0  0  0  0  0  0  0  0  0  0
   -0.1063    0.2918    1.3917 C   0  0  0  0  0  0  0  0  0  0  0  0
    0.5326    0.4259    2.4082 O   0  0  0  0  0  0  0  0  0  0  0  0
   -1.5651    0.5101    1.1312 C   0  0  0  0  0  0  0  0  0  0  0  0
   -1.7106   -0.3783   -0.0579 C   0  0  0  0  0  0  0  0  0  0  0  0
   -1.6761   -0.1950   -1.4444 C   0  0  0  0  0  0  0  0  0  0  0  0
   -0.5386    0.3505   -0.8357 C   0  0  0  0  0  0  0  0  0  0  0  0
    2.9460   -0.9058    0.6558 H   0  0  0  0  0  0  0  0  0  0  0  0
    3.6781    0.4408   -0.2383 H   0  0  0  0  0  0  0  0  0  0  0  0
    2.6616   -0.7732   -1.1696 H   0  0  0  0  0  0  0  0  0  0  0  0
    0.6730   -1.2396    0.0613 H   0  0  0  0  0  0  0  0  0  0  0  0
   -1.6845    1.5639    0.7840 H   0  0  0  0  0  0  0  0  0  0  0  0
   -2.1967    0.2634    1.9834 H   0  0  0  0  0  0  0  0  0  0  0  0
   -1.4725   -1.4340    0.2901 H   0  0  0  0  0  0  0  0  0  0  0  0
   -1.5383   -1.0822   -2.1269 H   0  0  0  0  0  0  0  0  0  0  0  0
   -2.4417    0.4807   -1.9153 H   0  0  0  0  0  0  0  0  0  0  0  0
   -0.5379    1.4834   -0.7563 H   0  0  0  0  0  0  0  0  0  0  0  0
  1  2  1  0
  2  3  1  0
  3  4  1  0
  4  5  2  0
  4  6  1  0
  6  7  1  0
  7  8  1  0
  8  9  1  0
  9  3  1  0
  9  7  1  0
  1 10  1  0
  1 11  1  0
  1 12  1  0
  3 13  1  0
  6 14  1  0
  6 15  1  0
  7 16  1  0
  8 17  1  0
  8 18  1  0
  9 19  1  0
M  END
