
     RDKit          3D

 21 22  0  0  0  0  0  0  0  0999 V2000
    2.7485    0.1357   -0.1197 C   0  0  0  0  0  0  0  0  0  0  0  0
    1.5550    0.8048   -0.3631 O   0  0  0  0  0  0  0  0  0  0  0  0
    0.5097   -0.0330   -0.0079 C   0  0  0  0  0  0  0  0  0  0  0  0
   -0.6176    0.6096    0.7392 C   0  0  0  0  0  0  0  0  0  0  0  0
   -1.4855   -0.4921    0.1930 C   0  0  0  0  0  0  0  0  0  0  0  0
   -1.2638   -1.8506    0.7486 C   0  0  0  0  0  0  0  0  0  0  0  0
   -0.6354   -0.0813   -0.9769 C   0  0  0  0  0  0  0  0  0  0  0  0
   -0.9316    1.3275   -0.5459 C   0  0  0  0  0  0  0  0  0  0  0  0
   -0.0090    2.2821   -0.9443 O   0  0  0  0  0  0  0  0  0  0  0  0
    2.8428   -0.1391    0.9710 H   0  0  0  0  0  0  0  0  0  0  0  0
    2.7485   -0.8343   -0.6938 H   0  0  0  0  0  0  0  0  0  0  0  0
    3.6274    0.7367   -0.4258 H   0  0  0  0  0  0  0  0  0  0  0  0
    0.8730   -0.9863    0.3654 H   0  0  0  0  0  0  0  0  0  0  0  0
   -0.6185    0.9854    1.6634 H   0  0  0  0  0  0  0  0  0  0  0  0
   -2.5305   -0.1808    0.0314 H   0  0  0  0  0  0  0  0  0  0  0  0
   -0.8969   -2.5232   -0.0574 H   0  0  0  0  0  0  0  0  0  0  0  0
   -2.2577   -2.2173    1.1424 H   0  0  0  0  0  0  0  0  0  0  0  0
   -0.5943   -1.8674    1.6435 H   0  0  0  0  0  0  0  0  0  0  0  0
   -0.6462   -0.4546   -1.9020 H   0  0  0  0  0  0  0  0  0  0  0  0
   -1.9847    1.5984   -0.6788 H   0  0  0  0  0  0  0  0  0  0  0  0
   -0.4334    3.1799   -0.7823 H   0  0  0  0  0  0  0  0  0  0  0  0
  1  2  1  0
  2  3  1  0
  3  4  1  0
  4  5  1  0
  5  6  1  0
  5  7  1  0
  7  8  1  0
  8  9  1  0
  7  3  1  0
  8  4  1  0
  1 10  1  0
  1 11  1  0
  1 12  1  0
  3 13  1  0
  4 14  1  0
  5 15  1  0
  6 16  1  0
  6 17  1  0
  6 18  1  0
  7 19  1  0
  8 20  1  0
  9 21  1  0
M  END
