
     RDKit          3D

 21 22  0  0  0  0  0  0  0  0999 V2000
    2.1659   -0.9488    0.0871 C   0  0  0  0  0  0  0  0  0  0  0  0
    0.8867   -0.8674   -0.3977 O   0  0  0  0  0  0  0  0  0  0  0  0
    0.2133    0.2826   -0.0083 C   0  0  0  0  0  0  0  0  0  0  0  0
    0.8566    1.5667   -0.4446 C   0  0  0  0  0  0  0  0  0  0  0  0
   -1.2676    0.2336   -0.3173 C   0  0  0  0  0  0  0  0  0  0  0  0
   -1.6916   -1.2014   -0.5595 C   0  0  0  0  0  0  0  0  0  0  0  0
   -1.6260    0.6375    1.0872 C   0  0  0  0  0  0  0  0  0  0  0  0
   -0.8373    1.4945    1.8070 O   0  0  0  0  0  0  0  0  0  0  0  0
   -0.1674    0.3478    1.4502 C   0  0  0  0  0  0  0  0  0  0  0  0
    2.2325   -0.9462    1.1920 H   0  0  0  0  0  0  0  0  0  0  0  0
    2.6051   -1.9003   -0.2789 H   0  0  0  0  0  0  0  0  0  0  0  0
    2.7858   -0.1405   -0.3771 H   0  0  0  0  0  0  0  0  0  0  0  0
    1.7657    1.7855    0.1715 H   0  0  0  0  0  0  0  0  0  0  0  0
    1.1893    1.4761   -1.4951 H   0  0  0  0  0  0  0  0  0  0  0  0
    0.1801    2.4132   -0.3277 H   0  0  0  0  0  0  0  0  0  0  0  0
   -1.6047    0.9144   -1.1180 H   0  0  0  0  0  0  0  0  0  0  0  0
   -2.7913   -1.3217   -0.5635 H   0  0  0  0  0  0  0  0  0  0  0  0
   -1.2285   -1.8148    0.2624 H   0  0  0  0  0  0  0  0  0  0  0  0
   -1.2087   -1.5523   -1.4934 H   0  0  0  0  0  0  0  0  0  0  0  0
   -2.4162    0.0414    1.6059 H   0  0  0  0  0  0  0  0  0  0  0  0
   -0.0418   -0.5000    2.1092 H   0  0  0  0  0  0  0  0  0  0  0  0
  1  2  1  0
  2  3  1  0
  3  4  1  0
  3  5  1  0
  5  6  1  0
  5  7  1  0
  7  8  1  0
  8  9  1  0
  9  3  1  0
  9  7  1  0
  1 10  1  0
  1 11  1  0
  1 12  1  0
  4 13  1  0
  4 14  1  0
  4 15  1  0
  5 16  1  0
  6 17  1  0
  6 18  1  0
  6 19  1  0
  7 20  1  0
  9 21  1  0
M  END
