
     RDKit          3D

 21 22  0  0  0  0  0  0  0  0999 V2000
    2.9927    0.2341    0.1059 C   0  0  0  0  0  0  0  0  0  0  0  0
    1.8632   -0.4476   -0.3391 O   0  0  0  0  0  0  0  0  0  0  0  0
    0.6985    0.0398    0.2437 C   0  0  0  0  0  0  0  0  0  0  0  0
    0.0650   -1.0615    0.8765 O   0  0  0  0  0  0  0  0  0  0  0  0
   -1.0629   -1.2308    0.1187 C   0  0  0  0  0  0  0  0  0  0  0  0
   -0.5599   -1.1054   -1.3296 C   0  0  0  0  0  0  0  0  0  0  0  0
   -0.2827    0.3273   -0.8415 C   0  0  0  0  0  0  0  0  0  0  0  0
   -1.6067    0.1873   -0.1259 C   0  0  0  0  0  0  0  0  0  0  0  0
   -1.7918    1.0041    1.0965 C   0  0  0  0  0  0  0  0  0  0  0  0
    2.9227    1.3279   -0.1424 H   0  0  0  0  0  0  0  0  0  0  0  0
    3.1306    0.0913    1.1902 H   0  0  0  0  0  0  0  0  0  0  0  0
    3.8737   -0.1740   -0.4289 H   0  0  0  0  0  0  0  0  0  0  0  0
    0.8726    0.8620    0.9400 H   0  0  0  0  0  0  0  0  0  0  0  0
   -1.7683   -1.9931    0.3236 H   0  0  0  0  0  0  0  0  0  0  0  0
    0.3352   -1.6889   -1.5455 H   0  0  0  0  0  0  0  0  0  0  0  0
   -1.4069   -1.1940   -2.0052 H   0  0  0  0  0  0  0  0  0  0  0  0
   -0.1361    1.0784   -1.5584 H   0  0  0  0  0  0  0  0  0  0  0  0
   -2.4245    0.1680   -0.8650 H   0  0  0  0  0  0  0  0  0  0  0  0
   -2.7739    1.5504    1.0140 H   0  0  0  0  0  0  0  0  0  0  0  0
   -1.0023    1.7284    1.3108 H   0  0  0  0  0  0  0  0  0  0  0  0
   -1.9380    0.2963    1.9616 H   0  0  0  0  0  0  0  0  0  0  0  0
  1  2  1  0
  2  3  1  0
  3  4  1  0
  4  5  1  0
  5  6  1  0
  6  7  1  0
  7  8  1  0
  8  9  1  0
  7  3  1  0
  8  5  1  0
  1 10  1  0
  1 11  1  0
  1 12  1  0
  3 13  1  0
  5 14  1  0
  6 15  1  0
  6 16  1  0
  7 17  1  0
  8 18  1  0
  9 19  1  0
  9 20  1  0
  9 21  1  0
M  END
