
     RDKit          3D

 23 23  0  0  0  0  0  0  0  0999 V2000
   -2.3465   -1.2102    0.4951 C   0  0  0  0  0  0  0  0  0  0  0  0
   -1.1710   -0.6745    0.9565 O   0  0  0  0  0  0  0  0  0  0  0  0
   -0.6399    0.3337    0.2139 C   0  0  0  0  0  0  0  0  0  0  0  0
   -1.5514    1.5223    0.0209 C   0  0  0  0  0  0  0  0  0  0  0  0
   -0.2156   -0.1359   -1.1616 C   0  0  0  0  0  0  0  0  0  0  0  0
    1.2944   -0.0181   -1.0913 C   0  0  0  0  0  0  0  0  0  0  0  0
    1.4615   -0.2326    0.4193 C   0  0  0  0  0  0  0  0  0  0  0  0
    2.8474   -0.0154    0.8744 C   0  0  0  0  0  0  0  0  0  0  0  0
    0.5530    0.7310    0.8636 O   0  0  0  0  0  0  0  0  0  0  0  0
   -3.1818   -0.4809    0.4220 H   0  0  0  0  0  0  0  0  0  0  0  0
   -2.1908   -1.7803   -0.4378 H   0  0  0  0  0  0  0  0  0  0  0  0
   -2.6840   -1.9646    1.2539 H   0  0  0  0  0  0  0  0  0  0  0  0
   -0.9956    2.4530    0.3399 H   0  0  0  0  0  0  0  0  0  0  0  0
   -1.7797    1.7097   -1.0603 H   0  0  0  0  0  0  0  0  0  0  0  0
   -2.5080    1.4412    0.5347 H   0  0  0  0  0  0  0  0  0  0  0  0
   -0.4424   -1.2178   -1.3258 H   0  0  0  0  0  0  0  0  0  0  0  0
   -0.6518    0.4771   -1.9681 H   0  0  0  0  0  0  0  0  0  0  0  0
    1.6127    1.0225   -1.3110 H   0  0  0  0  0  0  0  0  0  0  0  0
    1.8140   -0.7737   -1.6759 H   0  0  0  0  0  0  0  0  0  0  0  0
    1.0294   -1.2138    0.6539 H   0  0  0  0  0  0  0  0  0  0  0  0
    3.2768   -1.0084    1.1868 H   0  0  0  0  0  0  0  0  0  0  0  0
    3.5299    0.3576    0.0655 H   0  0  0  0  0  0  0  0  0  0  0  0
    2.9394    0.6780    1.7316 H   0  0  0  0  0  0  0  0  0  0  0  0
  1  2  1  0
  2  3  1  0
  3  4  1  0
  3  5  1  0
  5  6  1  0
  6  7  1  0
  7  8  1  0
  7  9  1  0
  9  3  1  0
  1 10  1  0
  1 11  1  0
  1 12  1  0
  4 13  1  0
  4 14  1  0
  4 15  1  0
  5 16  1  0
  5 17  1  0
  6 18  1  0
  6 19  1  0
  7 20  1  0
  8 21  1  0
  8 22  1  0
  8 23  1  0
M  END
