
     RDKit          3D

 19 20  0  0  0  0  0  0  0  0999 V2000
   -1.3955   -1.1107    1.1160 C   0  0  0  0  0  0  0  0  0  0  0  0
   -0.8314    0.1616    1.0171 O   0  0  0  0  0  0  0  0  0  0  0  0
   -0.3377    0.3064   -0.2586 C   0  0  0  0  0  0  0  0  0  0  0  0
    0.7197   -0.6241   -0.7582 C   0  0  0  0  0  0  0  0  0  0  0  0
    1.6535   -1.0965    0.3114 C   0  0  0  0  0  0  0  0  0  0  0  0
    1.3212    0.3936   -1.5085 O   0  0  0  0  0  0  0  0  0  0  0  0
    0.6487    1.3036   -0.6639 C   0  0  0  0  0  0  0  0  0  0  0  0
   -0.7739    1.5020   -1.0096 C   0  0  0  0  0  0  0  0  0  0  0  0
   -1.4710    2.4650   -0.3103 O   0  0  0  0  0  0  0  0  0  0  0  0
   -2.2070   -1.1413    0.3451 H   0  0  0  0  0  0  0  0  0  0  0  0
   -1.7942   -1.3211    2.1331 H   0  0  0  0  0  0  0  0  0  0  0  0
   -0.7021   -1.9229    0.8657 H   0  0  0  0  0  0  0  0  0  0  0  0
    0.2602   -1.4261   -1.3816 H   0  0  0  0  0  0  0  0  0  0  0  0
    1.3528   -0.7753    1.3307 H   0  0  0  0  0  0  0  0  0  0  0  0
    2.6680   -0.7257    0.1464 H   0  0  0  0  0  0  0  0  0  0  0  0
    1.6089   -2.2242    0.3012 H   0  0  0  0  0  0  0  0  0  0  0  0
    1.2164    1.9472    0.0036 H   0  0  0  0  0  0  0  0  0  0  0  0
   -1.0277    1.4341   -2.0941 H   0  0  0  0  0  0  0  0  0  0  0  0
   -0.9088    2.8544    0.4147 H   0  0  0  0  0  0  0  0  0  0  0  0
  1  2  1  0
  2  3  1  0
  3  4  1  0
  4  5  1  0
  4  6  1  0
  6  7  1  0
  7  8  1  0
  8  9  1  0
  7  3  1  0
  8  3  1  0
  1 10  1  0
  1 11  1  0
  1 12  1  0
  4 13  1  0
  5 14  1  0
  5 15  1  0
  5 16  1  0
  7 17  1  0
  8 18  1  0
  9 19  1  0
M  END
