
     RDKit          3D

 20 20  0  0  0  0  0  0  0  0999 V2000
    2.4878    0.8740   -0.2679 C   0  0  0  0  0  0  0  0  0  0  0  0
    1.4540    0.4280   -1.0923 O   0  0  0  0  0  0  0  0  0  0  0  0
    0.5701   -0.2774   -0.3444 C   0  0  0  0  0  0  0  0  0  0  0  0
    0.3638   -1.5777   -0.7660 O   0  0  0  0  0  0  0  0  0  0  0  0
   -0.7984   -2.0429   -0.2217 C   0  0  0  0  0  0  0  0  0  0  0  0
   -1.5337   -0.8594    0.3856 C   0  0  0  0  0  0  0  0  0  0  0  0
   -0.8381    0.2958   -0.3465 C   0  0  0  0  0  0  0  0  0  0  0  0
   -0.9190    1.5730    0.4567 C   0  0  0  0  0  0  0  0  0  0  0  0
    3.0322    0.0310    0.2191 H   0  0  0  0  0  0  0  0  0  0  0  0
    3.2297    1.3602   -0.9462 H   0  0  0  0  0  0  0  0  0  0  0  0
    2.1444    1.5316    0.5388 H   0  0  0  0  0  0  0  0  0  0  0  0
    0.8748   -0.3304    0.7257 H   0  0  0  0  0  0  0  0  0  0  0  0
   -0.5933   -2.8298    0.5279 H   0  0  0  0  0  0  0  0  0  0  0  0
   -1.4854   -2.4308   -1.0292 H   0  0  0  0  0  0  0  0  0  0  0  0
   -2.6087   -0.8791    0.1772 H   0  0  0  0  0  0  0  0  0  0  0  0
   -1.2650   -0.8264    1.4466 H   0  0  0  0  0  0  0  0  0  0  0  0
   -1.2699    0.3776   -1.3466 H   0  0  0  0  0  0  0  0  0  0  0  0
   -0.7194    1.3345    1.5183 H   0  0  0  0  0  0  0  0  0  0  0  0
   -0.1812    2.2785    0.0392 H   0  0  0  0  0  0  0  0  0  0  0  0
   -1.9448    1.9696    0.3254 H   0  0  0  0  0  0  0  0  0  0  0  0
  1  2  1  0
  2  3  1  0
  3  4  1  0
  4  5  1  0
  5  6  1  0
  6  7  1  0
  7  8  1  0
  7  3  1  0
  1  9  1  0
  1 10  1  0
  1 11  1  0
  3 12  1  0
  5 13  1  0
  5 14  1  0
  6 15  1  0
  6 16  1  0
  7 17  1  0
  8 18  1  0
  8 19  1  0
  8 20  1  0
M  END
