
     RDKit          3D

 19 19  0  0  0  0  0  0  0  0999 V2000
    3.0968   -0.4016    0.1540 C   0  0  0  0  0  0  0  0  0  0  0  0
    2.0577    0.1890   -0.5600 O   0  0  0  0  0  0  0  0  0  0  0  0
    0.8381    0.0791    0.0691 C   0  0  0  0  0  0  0  0  0  0  0  0
   -0.0287   -0.6865   -0.7417 O   0  0  0  0  0  0  0  0  0  0  0  0
   -1.2869   -0.4896   -0.1652 C   0  0  0  0  0  0  0  0  0  0  0  0
   -2.3214   -0.6966   -1.2379 C   0  0  0  0  0  0  0  0  0  0  0  0
   -1.3344    0.9653    0.2476 C   0  0  0  0  0  0  0  0  0  0  0  0
    0.0905    1.3519    0.1545 C   0  0  0  0  0  0  0  0  0  0  0  0
    0.5199    2.4780    0.1513 O   0  0  0  0  0  0  0  0  0  0  0  0
    4.0268   -0.2580   -0.4350 H   0  0  0  0  0  0  0  0  0  0  0  0
    3.2549    0.1882    1.0973 H   0  0  0  0  0  0  0  0  0  0  0  0
    2.9298   -1.4670    0.3370 H   0  0  0  0  0  0  0  0  0  0  0  0
    0.8865   -0.4596    1.0364 H   0  0  0  0  0  0  0  0  0  0  0  0
   -1.3791   -1.1882    0.6724 H   0  0  0  0  0  0  0  0  0  0  0  0
   -3.2982   -0.2393   -0.9594 H   0  0  0  0  0  0  0  0  0  0  0  0
   -2.4348   -1.7926   -1.3905 H   0  0  0  0  0  0  0  0  0  0  0  0
   -1.9721   -0.1684   -2.1507 H   0  0  0  0  0  0  0  0  0  0  0  0
   -1.6360    1.0227    1.3130 H   0  0  0  0  0  0  0  0  0  0  0  0
   -2.0094    1.5732   -0.3562 H   0  0  0  0  0  0  0  0  0  0  0  0
  1  2  1  0
  2  3  1  0
  3  4  1  0
  4  5  1  0
  5  6  1  0
  5  7  1  0
  7  8  1  0
  8  9  2  0
  8  3  1  0
  1 10  1  0
  1 11  1  0
  1 12  1  0
  3 13  1  0
  5 14  1  0
  6 15  1  0
  6 16  1  0
  6 17  1  0
  7 18  1  0
  7 19  1  0
M  END
