
     RDKit          3D

 19 19  0  0  0  0  0  0  0  0999 V2000
   -0.9726    1.6614    0.5310 C   0  0  0  0  0  0  0  0  0  0  0  0
   -0.3798    0.5411    1.0716 O   0  0  0  0  0  0  0  0  0  0  0  0
   -0.3079   -0.4853    0.1530 C   0  0  0  0  0  0  0  0  0  0  0  0
    0.6184   -0.3242   -0.9610 C   0  0  0  0  0  0  0  0  0  0  0  0
    0.5298   -1.1083   -1.8979 O   0  0  0  0  0  0  0  0  0  0  0  0
    1.6403    0.7297   -0.9873 C   0  0  0  0  0  0  0  0  0  0  0  0
    1.8728    1.3686    0.2244 O   0  0  0  0  0  0  0  0  0  0  0  0
   -0.3013   -1.9047    0.7736 C   0  0  0  0  0  0  0  0  0  0  0  0
   -1.4826   -1.3920    0.0718 C   0  0  0  0  0  0  0  0  0  0  0  0
   -0.9833    2.4960    1.2514 H   0  0  0  0  0  0  0  0  0  0  0  0
   -2.0874    1.4673    0.3655 H   0  0  0  0  0  0  0  0  0  0  0  0
   -0.5451    1.9586   -0.4031 H   0  0  0  0  0  0  0  0  0  0  0  0
    2.5989    0.2296   -1.2663 H   0  0  0  0  0  0  0  0  0  0  0  0
    1.3999    1.5475   -1.7189 H   0  0  0  0  0  0  0  0  0  0  0  0
    2.4104    0.8091    0.8576 H   0  0  0  0  0  0  0  0  0  0  0  0
    0.3460   -2.6620    0.2760 H   0  0  0  0  0  0  0  0  0  0  0  0
   -0.2072   -1.9331    1.8651 H   0  0  0  0  0  0  0  0  0  0  0  0
   -1.7580   -1.9074   -0.8714 H   0  0  0  0  0  0  0  0  0  0  0  0
   -2.3913   -1.0919    0.6651 H   0  0  0  0  0  0  0  0  0  0  0  0
  1  2  1  0
  2  3  1  0
  3  4  1  0
  4  5  2  0
  4  6  1  0
  6  7  1  0
  3  8  1  0
  8  9  1  0
  9  3  1  0
  1 10  1  0
  1 11  1  0
  1 12  1  0
  6 13  1  0
  6 14  1  0
  7 15  1  0
  8 16  1  0
  8 17  1  0
  9 18  1  0
  9 19  1  0
M  END
