
     RDKit          3D

 21 22  0  0  0  0  0  0  0  0999 V2000
    2.9135    0.5601   -0.2786 C   0  0  0  0  0  0  0  0  0  0  0  0
    1.9391   -0.2594    0.2478 O   0  0  0  0  0  0  0  0  0  0  0  0
    0.6631    0.0414   -0.1725 C   0  0  0  0  0  0  0  0  0  0  0  0
    0.1048   -1.1463   -0.9064 C   0  0  0  0  0  0  0  0  0  0  0  0
   -1.3754   -0.9655   -0.7750 C   0  0  0  0  0  0  0  0  0  0  0  0
   -1.6454   -0.2024    0.4755 C   0  0  0  0  0  0  0  0  0  0  0  0
   -2.5687   -0.7250    1.3889 O   0  0  0  0  0  0  0  0  0  0  0  0
   -1.4359    1.2609    0.5520 C   0  0  0  0  0  0  0  0  0  0  0  0
   -0.3198    0.2719    0.9167 C   0  0  0  0  0  0  0  0  0  0  0  0
    2.6845    1.6016    0.0336 H   0  0  0  0  0  0  0  0  0  0  0  0
    2.9173    0.4316   -1.3709 H   0  0  0  0  0  0  0  0  0  0  0  0
    3.8759    0.2989    0.2050 H   0  0  0  0  0  0  0  0  0  0  0  0
    0.7326    0.9184   -0.8711 H   0  0  0  0  0  0  0  0  0  0  0  0
    0.4781   -2.0637   -0.3993 H   0  0  0  0  0  0  0  0  0  0  0  0
    0.4616   -1.0810   -1.9548 H   0  0  0  0  0  0  0  0  0  0  0  0
   -1.8544   -0.5411   -1.6746 H   0  0  0  0  0  0  0  0  0  0  0  0
   -1.8227   -1.9940   -0.6613 H   0  0  0  0  0  0  0  0  0  0  0  0
   -2.5263   -0.2955    2.2577 H   0  0  0  0  0  0  0  0  0  0  0  0
   -1.8822    1.8092    1.3828 H   0  0  0  0  0  0  0  0  0  0  0  0
   -1.3057    1.8657   -0.3734 H   0  0  0  0  0  0  0  0  0  0  0  0
   -0.0339    0.2142    1.9780 H   0  0  0  0  0  0  0  0  0  0  0  0
  1  2  1  0
  2  3  1  0
  3  4  1  0
  4  5  1  0
  5  6  1  0
  6  7  1  0
  6  8  1  0
  8  9  1  0
  9  3  1  0
  9  6  1  0
  1 10  1  0
  1 11  1  0
  1 12  1  0
  3 13  1  0
  4 14  1  0
  4 15  1  0
  5 16  1  0
  5 17  1  0
  7 18  1  0
  8 19  1  0
  8 20  1  0
  9 21  1  0
M  END
