
     RDKit          3D

 19 19  0  0  0  0  0  0  0  0999 V2000
    2.8637   -0.2126    0.1477 C   0  0  0  0  0  0  0  0  0  0  0  0
    1.8497   -0.2762   -0.7894 O   0  0  0  0  0  0  0  0  0  0  0  0
    0.6206    0.0384   -0.2255 C   0  0  0  0  0  0  0  0  0  0  0  0
   -0.3249   -1.1315   -0.2810 C   0  0  0  0  0  0  0  0  0  0  0  0
   -1.7456   -0.6328   -0.2883 C   0  0  0  0  0  0  0  0  0  0  0  0
   -1.8547    0.6628    0.5140 C   0  0  0  0  0  0  0  0  0  0  0  0
   -1.1007    1.6880   -0.2752 C   0  0  0  0  0  0  0  0  0  0  0  0
   -1.4717    2.8727   -0.3931 O   0  0  0  0  0  0  0  0  0  0  0  0
    0.0733    1.1935   -0.8773 O   0  0  0  0  0  0  0  0  0  0  0  0
    3.8230   -0.4628   -0.3126 H   0  0  0  0  0  0  0  0  0  0  0  0
    2.5923   -0.9307    0.9708 H   0  0  0  0  0  0  0  0  0  0  0  0
    2.8503    0.8336    0.5656 H   0  0  0  0  0  0  0  0  0  0  0  0
    0.7860    0.2623    0.8539 H   0  0  0  0  0  0  0  0  0  0  0  0
   -0.2022   -1.7766    0.6369 H   0  0  0  0  0  0  0  0  0  0  0  0
   -0.1104   -1.8008   -1.1344 H   0  0  0  0  0  0  0  0  0  0  0  0
   -2.4526   -1.3700    0.1362 H   0  0  0  0  0  0  0  0  0  0  0  0
   -2.0088   -0.3769   -1.3558 H   0  0  0  0  0  0  0  0  0  0  0  0
   -2.9029    0.9203    0.6567 H   0  0  0  0  0  0  0  0  0  0  0  0
   -1.2844    0.4989    1.4509 H   0  0  0  0  0  0  0  0  0  0  0  0
  1  2  1  0
  2  3  1  0
  3  4  1  0
  4  5  1  0
  5  6  1  0
  6  7  1  0
  7  8  2  0
  7  9  1  0
  9  3  1  0
  1 10  1  0
  1 11  1  0
  1 12  1  0
  3 13  1  0
  4 14  1  0
  4 15  1  0
  5 16  1  0
  5 17  1  0
  6 18  1  0
  6 19  1  0
M  END
