
     RDKit          3D

 21 22  0  0  0  0  0  0  0  0999 V2000
    3.0541    0.1546    0.2135 C   0  0  0  0  0  0  0  0  0  0  0  0
    1.7904    0.5234    0.6103 O   0  0  0  0  0  0  0  0  0  0  0  0
    0.8004    0.0238   -0.2037 C   0  0  0  0  0  0  0  0  0  0  0  0
    0.0167    1.0539   -0.9000 C   0  0  0  0  0  0  0  0  0  0  0  0
   -1.2713    1.3557   -0.5963 C   0  0  0  0  0  0  0  0  0  0  0  0
   -1.8021    0.5474    0.4996 C   0  0  0  0  0  0  0  0  0  0  0  0
   -2.6615   -0.5627    0.5664 C   0  0  0  0  0  0  0  0  0  0  0  0
   -1.3998   -0.8838    0.0136 C   0  0  0  0  0  0  0  0  0  0  0  0
   -0.0463   -1.0054    0.5458 C   0  0  0  0  0  0  0  0  0  0  0  0
    3.7892    0.6007    0.9250 H   0  0  0  0  0  0  0  0  0  0  0  0
    3.2106   -0.9384    0.2473 H   0  0  0  0  0  0  0  0  0  0  0  0
    3.2863    0.4536   -0.8476 H   0  0  0  0  0  0  0  0  0  0  0  0
    1.3214   -0.5770   -1.0073 H   0  0  0  0  0  0  0  0  0  0  0  0
    0.5312    1.5867   -1.7020 H   0  0  0  0  0  0  0  0  0  0  0  0
   -1.8159    2.1237   -1.1342 H   0  0  0  0  0  0  0  0  0  0  0  0
   -1.3525    0.9006    1.4754 H   0  0  0  0  0  0  0  0  0  0  0  0
   -2.9377   -0.9792    1.5595 H   0  0  0  0  0  0  0  0  0  0  0  0
   -3.5709   -0.5776   -0.0977 H   0  0  0  0  0  0  0  0  0  0  0  0
   -1.3897   -1.0596   -1.1054 H   0  0  0  0  0  0  0  0  0  0  0  0
    0.3894   -2.0217    0.4557 H   0  0  0  0  0  0  0  0  0  0  0  0
    0.0580   -0.7187    1.6342 H   0  0  0  0  0  0  0  0  0  0  0  0
  1  2  1  0
  2  3  1  0
  3  4  1  0
  4  5  2  0
  5  6  1  0
  6  7  1  0
  7  8  1  0
  8  9  1  0
  9  3  1  0
  8  6  1  0
  1 10  1  0
  1 11  1  0
  1 12  1  0
  3 13  1  0
  4 14  1  0
  5 15  1  0
  6 16  1  0
  7 17  1  0
  7 18  1  0
  8 19  1  0
  9 20  1  0
  9 21  1  0
M  END
