
     RDKit          3D

 17 18  0  0  0  0  0  0  0  0999 V2000
    2.3171   -0.0717   -0.1135 C   0  0  0  0  0  0  0  0  0  0  0  0
    1.1705   -0.5804   -0.7168 O   0  0  0  0  0  0  0  0  0  0  0  0
    0.0410   -0.0553   -0.3084 C   0  0  0  0  0  0  0  0  0  0  0  0
   -1.2793   -0.5365   -0.8998 C   0  0  0  0  0  0  0  0  0  0  0  0
   -1.8444    0.0607    0.3983 C   0  0  0  0  0  0  0  0  0  0  0  0
   -0.5707   -0.5190    1.0217 C   0  0  0  0  0  0  0  0  0  0  0  0
   -1.5519    1.4267    0.2121 O   0  0  0  0  0  0  0  0  0  0  0  0
   -0.2063    1.3797   -0.2315 C   0  0  0  0  0  0  0  0  0  0  0  0
    0.5558    2.3389   -0.4861 O   0  0  0  0  0  0  0  0  0  0  0  0
    3.1750   -0.6171   -0.5666 H   0  0  0  0  0  0  0  0  0  0  0  0
    2.2634   -0.3054    0.9605 H   0  0  0  0  0  0  0  0  0  0  0  0
    2.4558    1.0012   -0.2445 H   0  0  0  0  0  0  0  0  0  0  0  0
   -1.6037   -0.0228   -1.8035 H   0  0  0  0  0  0  0  0  0  0  0  0
   -1.3023   -1.6300   -0.8851 H   0  0  0  0  0  0  0  0  0  0  0  0
   -2.7802   -0.2690    0.7411 H   0  0  0  0  0  0  0  0  0  0  0  0
   -0.6381   -1.6031    1.0253 H   0  0  0  0  0  0  0  0  0  0  0  0
   -0.2019    0.0032    1.8967 H   0  0  0  0  0  0  0  0  0  0  0  0
  1  2  1  0
  2  3  1  0
  3  4  1  0
  4  5  1  0
  5  6  1  0
  5  7  1  0
  7  8  1  0
  8  9  2  0
  6  3  1  0
  8  3  1  0
  1 10  1  0
  1 11  1  0
  1 12  1  0
  4 13  1  0
  4 14  1  0
  5 15  1  0
  6 16  1  0
  6 17  1  0
M  END
