
     RDKit          3D

 19 19  0  0  0  0  0  0  0  0999 V2000
    2.3338   -0.5962    0.1294 C   0  0  0  0  0  0  0  0  0  0  0  0
    1.3817   -0.4781    1.1173 O   0  0  0  0  0  0  0  0  0  0  0  0
    0.3249    0.3935    0.7869 C   0  0  0  0  0  0  0  0  0  0  0  0
   -0.5378    0.6258    1.9439 C   0  0  0  0  0  0  0  0  0  0  0  0
   -0.8901    1.7641    2.2601 O   0  0  0  0  0  0  0  0  0  0  0  0
   -0.4096   -0.4516   -0.3510 C   0  0  0  0  0  0  0  0  0  0  0  0
   -1.6990   -0.9862    0.1595 C   0  0  0  0  0  0  0  0  0  0  0  0
   -0.0282    0.9647   -0.4809 C   0  0  0  0  0  0  0  0  0  0  0  0
   -1.1238    1.7947   -0.6380 O   0  0  0  0  0  0  0  0  0  0  0  0
    2.7618    0.4742    0.0667 H   0  0  0  0  0  0  0  0  0  0  0  0
    2.0303   -0.9022   -0.8588 H   0  0  0  0  0  0  0  0  0  0  0  0
    3.1484   -1.2067    0.5014 H   0  0  0  0  0  0  0  0  0  0  0  0
   -0.9502   -0.1695    2.6127 H   0  0  0  0  0  0  0  0  0  0  0  0
    0.1833   -1.2076   -0.8985 H   0  0  0  0  0  0  0  0  0  0  0  0
   -2.4532   -0.2728    0.4721 H   0  0  0  0  0  0  0  0  0  0  0  0
   -2.0896   -1.7471   -0.5559 H   0  0  0  0  0  0  0  0  0  0  0  0
   -1.4168   -1.6057    1.0831 H   0  0  0  0  0  0  0  0  0  0  0  0
    0.7223    1.2047   -1.2867 H   0  0  0  0  0  0  0  0  0  0  0  0
   -1.2881    2.4019    0.1410 H   0  0  0  0  0  0  0  0  0  0  0  0
  1  2  1  0
  2  3  1  0
  3  4  1  0
  4  5  2  0
  3  6  1  0
  6  7  1  0
  6  8  1  0
  8  9  1  0
  8  3  1  0
  1 10  1  0
  1 11  1  0
  1 12  1  0
  4 13  1  0
  6 14  1  0
  7 15  1  0
  7 16  1  0
  7 17  1  0
  8 18  1  0
  9 19  1  0
M  END
