
     RDKit          3D

 19 20  0  0  0  0  0  0  0  0999 V2000
    2.6253   -0.0710    0.2580 C   0  0  0  0  0  0  0  0  0  0  0  0
    1.3825    0.4836    0.5593 O   0  0  0  0  0  0  0  0  0  0  0  0
    0.3880   -0.0560   -0.2070 C   0  0  0  0  0  0  0  0  0  0  0  0
   -0.4368    1.0100   -0.9312 C   0  0  0  0  0  0  0  0  0  0  0  0
   -0.0653    2.3097   -0.5489 O   0  0  0  0  0  0  0  0  0  0  0  0
   -1.6926    0.5040   -0.2537 C   0  0  0  0  0  0  0  0  0  0  0  0
   -0.8518   -0.5121    0.4567 C   0  0  0  0  0  0  0  0  0  0  0  0
   -1.2778   -1.7557    0.8504 C   0  0  0  0  0  0  0  0  0  0  0  0
   -0.9531   -0.7208    1.8035 O   0  0  0  0  0  0  0  0  0  0  0  0
    3.4074    0.3914    0.8995 H   0  0  0  0  0  0  0  0  0  0  0  0
    2.5820   -1.1602    0.4211 H   0  0  0  0  0  0  0  0  0  0  0  0
    2.9339    0.1344   -0.7951 H   0  0  0  0  0  0  0  0  0  0  0  0
    0.8039   -0.8283   -0.9090 H   0  0  0  0  0  0  0  0  0  0  0  0
   -0.4552    0.8529   -2.0267 H   0  0  0  0  0  0  0  0  0  0  0  0
   -0.8082    2.9049   -0.8052 H   0  0  0  0  0  0  0  0  0  0  0  0
   -2.3989   -0.0238   -0.9507 H   0  0  0  0  0  0  0  0  0  0  0  0
   -2.2125    1.2439    0.3894 H   0  0  0  0  0  0  0  0  0  0  0  0
   -2.3572   -2.0628    0.8397 H   0  0  0  0  0  0  0  0  0  0  0  0
   -0.6136   -2.6442    0.9501 H   0  0  0  0  0  0  0  0  0  0  0  0
  1  2  1  0
  2  3  1  0
  3  4  1  0
  4  5  1  0
  4  6  1  0
  6  7  1  0
  7  8  1  0
  8  9  1  0
  7  3  1  0
  9  7  1  0
  1 10  1  0
  1 11  1  0
  1 12  1  0
  3 13  1  0
  4 14  1  0
  5 15  1  0
  6 16  1  0
  6 17  1  0
  8 18  1  0
  8 19  1  0
M  END
