
     RDKit          3D

 23 24  0  0  0  0  0  0  0  0999 V2000
    3.1654    0.5503   -0.0860 C   0  0  0  0  0  0  0  0  0  0  0  0
    2.1222   -0.3710   -0.1042 O   0  0  0  0  0  0  0  0  0  0  0  0
    0.8826    0.2273   -0.0531 C   0  0  0  0  0  0  0  0  0  0  0  0
   -0.0276   -0.5209    0.8933 C   0  0  0  0  0  0  0  0  0  0  0  0
    0.0766   -1.6464   -0.0838 C   0  0  0  0  0  0  0  0  0  0  0  0
   -0.1312   -0.4417   -0.9559 C   0  0  0  0  0  0  0  0  0  0  0  0
   -1.1445    0.0141    0.0411 C   0  0  0  0  0  0  0  0  0  0  0  0
   -2.4408   -0.7148    0.0908 C   0  0  0  0  0  0  0  0  0  0  0  0
   -1.3271    1.5235    0.1096 C   0  0  0  0  0  0  0  0  0  0  0  0
    4.1104   -0.0551   -0.1314 H   0  0  0  0  0  0  0  0  0  0  0  0
    3.1890    1.1792    0.8062 H   0  0  0  0  0  0  0  0  0  0  0  0
    3.1694    1.2019   -0.9858 H   0  0  0  0  0  0  0  0  0  0  0  0
    0.8438    1.3169   -0.0057 H   0  0  0  0  0  0  0  0  0  0  0  0
    0.0292   -0.5440    1.8881 H   0  0  0  0  0  0  0  0  0  0  0  0
   -0.6928   -2.4098   -0.0800 H   0  0  0  0  0  0  0  0  0  0  0  0
    1.1005   -2.0710   -0.1759 H   0  0  0  0  0  0  0  0  0  0  0  0
   -0.1620   -0.3992   -1.9517 H   0  0  0  0  0  0  0  0  0  0  0  0
   -2.4222   -1.6488    0.6891 H   0  0  0  0  0  0  0  0  0  0  0  0
   -2.9039   -0.8660   -0.9184 H   0  0  0  0  0  0  0  0  0  0  0  0
   -3.1754   -0.0462    0.6286 H   0  0  0  0  0  0  0  0  0  0  0  0
   -0.9055    2.0283   -0.7835 H   0  0  0  0  0  0  0  0  0  0  0  0
   -2.4198    1.7706    0.1052 H   0  0  0  0  0  0  0  0  0  0  0  0
   -0.9364    1.9228    1.0636 H   0  0  0  0  0  0  0  0  0  0  0  0
  1  2  1  0
  2  3  1  0
  3  4  1  0
  4  5  1  0
  5  6  1  0
  6  7  1  0
  7  8  1  0
  7  9  1  0
  6  3  1  0
  7  4  1  0
  1 10  1  0
  1 11  1  0
  1 12  1  0
  3 13  1  0
  4 14  1  0
  5 15  1  0
  5 16  1  0
  6 17  1  0
  8 18  1  0
  8 19  1  0
  8 20  1  0
  9 21  1  0
  9 22  1  0
  9 23  1  0
M  END
