
     RDKit          3D

 19 20  0  0  0  0  0  0  0  0999 V2000
    2.9762   -0.6265   -0.4568 C   0  0  0  0  0  0  0  0  0  0  0  0
    1.7345   -0.2628   -0.9631 O   0  0  0  0  0  0  0  0  0  0  0  0
    0.8738    0.0532    0.0933 C   0  0  0  0  0  0  0  0  0  0  0  0
    0.3756    1.4213    0.0397 C   0  0  0  0  0  0  0  0  0  0  0  0
   -0.9346    1.4077    0.2095 C   0  0  0  0  0  0  0  0  0  0  0  0
   -1.4771    0.0522    0.3955 C   0  0  0  0  0  0  0  0  0  0  0  0
   -2.8700   -0.2722   -0.0856 C   0  0  0  0  0  0  0  0  0  0  0  0
   -0.9995   -0.8098    1.3503 O   0  0  0  0  0  0  0  0  0  0  0  0
   -0.3353   -0.8122    0.1262 C   0  0  0  0  0  0  0  0  0  0  0  0
    2.8257   -1.5133    0.1992 H   0  0  0  0  0  0  0  0  0  0  0  0
    3.7315   -0.7878   -1.2214 H   0  0  0  0  0  0  0  0  0  0  0  0
    3.3720    0.1893    0.2115 H   0  0  0  0  0  0  0  0  0  0  0  0
    1.4304   -0.0765    1.0524 H   0  0  0  0  0  0  0  0  0  0  0  0
    1.0128    2.3203   -0.1196 H   0  0  0  0  0  0  0  0  0  0  0  0
   -1.5304    2.3175    0.2081 H   0  0  0  0  0  0  0  0  0  0  0  0
   -2.9060   -0.9694   -0.9200 H   0  0  0  0  0  0  0  0  0  0  0  0
   -3.4343   -0.6845    0.7707 H   0  0  0  0  0  0  0  0  0  0  0  0
   -3.3758    0.7109   -0.3200 H   0  0  0  0  0  0  0  0  0  0  0  0
   -0.4697   -1.6575   -0.5700 H   0  0  0  0  0  0  0  0  0  0  0  0
  1  2  1  0
  2  3  1  0
  3  4  1  0
  4  5  2  0
  5  6  1  0
  6  7  1  0
  6  8  1  0
  8  9  1  0
  9  3  1  0
  9  6  1  0
  1 10  1  0
  1 11  1  0
  1 12  1  0
  3 13  1  0
  4 14  1  0
  5 15  1  0
  7 16  1  0
  7 17  1  0
  7 18  1  0
  9 19  1  0
M  END
