
     RDKit          3D

 23 24  0  0  0  0  0  0  0  0999 V2000
   -3.5026   -0.6681    0.2381 C   0  0  0  0  0  0  0  0  0  0  0  0
   -2.1671   -0.5633    0.6091 O   0  0  0  0  0  0  0  0  0  0  0  0
   -1.3778   -0.0110   -0.3877 C   0  0  0  0  0  0  0  0  0  0  0  0
   -0.5118    1.0950    0.2368 C   0  0  0  0  0  0  0  0  0  0  0  0
    0.4222   -0.0468    0.6546 C   0  0  0  0  0  0  0  0  0  0  0  0
    1.8531    0.3975    0.6484 C   0  0  0  0  0  0  0  0  0  0  0  0
    2.5425    0.8938   -0.5300 C   0  0  0  0  0  0  0  0  0  0  0  0
    2.9013   -0.4596   -0.0148 C   0  0  0  0  0  0  0  0  0  0  0  0
   -0.0620   -0.7857   -0.5505 C   0  0  0  0  0  0  0  0  0  0  0  0
   -3.8563    0.3640    0.0179 H   0  0  0  0  0  0  0  0  0  0  0  0
   -4.0624   -1.0790    1.0920 H   0  0  0  0  0  0  0  0  0  0  0  0
   -3.5784   -1.2798   -0.6645 H   0  0  0  0  0  0  0  0  0  0  0  0
   -1.8648    0.2713   -1.3177 H   0  0  0  0  0  0  0  0  0  0  0  0
   -0.9737    1.6104    1.0842 H   0  0  0  0  0  0  0  0  0  0  0  0
   -0.0044    1.7314   -0.5092 H   0  0  0  0  0  0  0  0  0  0  0  0
    0.0937   -0.5204    1.5790 H   0  0  0  0  0  0  0  0  0  0  0  0
    2.1871    0.8011    1.6341 H   0  0  0  0  0  0  0  0  0  0  0  0
    3.2711    1.7449   -0.4035 H   0  0  0  0  0  0  0  0  0  0  0  0
    2.0533    0.8953   -1.5296 H   0  0  0  0  0  0  0  0  0  0  0  0
    2.5568   -1.3511   -0.5896 H   0  0  0  0  0  0  0  0  0  0  0  0
    3.8705   -0.6402    0.4991 H   0  0  0  0  0  0  0  0  0  0  0  0
   -0.1754   -1.8743   -0.4313 H   0  0  0  0  0  0  0  0  0  0  0  0
    0.3851   -0.5254   -1.5180 H   0  0  0  0  0  0  0  0  0  0  0  0
  1  2  1  0
  2  3  1  0
  3  4  1  0
  4  5  1  0
  5  6  1  0
  6  7  1  0
  7  8  1  0
  5  9  1  0
  9  3  1  0
  8  6  1  0
  1 10  1  0
  1 11  1  0
  1 12  1  0
  3 13  1  0
  4 14  1  0
  4 15  1  0
  5 16  1  0
  6 17  1  0
  7 18  1  0
  7 19  1  0
  8 20  1  0
  8 21  1  0
  9 22  1  0
  9 23  1  0
M  END
