
     RDKit          3D

 19 21  0  0  0  0  0  0  0  0999 V2000
    2.5967    0.5471    0.0405 C   0  0  0  0  0  0  0  0  0  0  0  0
    1.6350    0.0181   -0.8145 O   0  0  0  0  0  0  0  0  0  0  0  0
    0.4100   -0.1526   -0.2207 C   0  0  0  0  0  0  0  0  0  0  0  0
   -0.3199    1.0488    0.3550 C   0  0  0  0  0  0  0  0  0  0  0  0
   -1.7977    0.7195    0.2908 C   0  0  0  0  0  0  0  0  0  0  0  0
   -1.8387   -0.7665    0.0108 C   0  0  0  0  0  0  0  0  0  0  0  0
   -1.2144   -1.4920    1.0149 O   0  0  0  0  0  0  0  0  0  0  0  0
    0.0149   -1.4601    0.3675 C   0  0  0  0  0  0  0  0  0  0  0  0
   -0.6288   -0.9595   -0.8398 C   0  0  0  0  0  0  0  0  0  0  0  0
    2.7196   -0.1474    0.8904 H   0  0  0  0  0  0  0  0  0  0  0  0
    2.2687    1.5154    0.4402 H   0  0  0  0  0  0  0  0  0  0  0  0
    3.5410    0.6284   -0.5310 H   0  0  0  0  0  0  0  0  0  0  0  0
   -0.0668    1.9519   -0.2514 H   0  0  0  0  0  0  0  0  0  0  0  0
   -0.0021    1.2562    1.4032 H   0  0  0  0  0  0  0  0  0  0  0  0
   -2.2510    1.2231   -0.6053 H   0  0  0  0  0  0  0  0  0  0  0  0
   -2.3374    0.9768    1.2131 H   0  0  0  0  0  0  0  0  0  0  0  0
   -2.7823   -1.1850   -0.3160 H   0  0  0  0  0  0  0  0  0  0  0  0
    0.6844   -2.3203    0.3750 H   0  0  0  0  0  0  0  0  0  0  0  0
   -0.6314   -1.4019   -1.8128 H   0  0  0  0  0  0  0  0  0  0  0  0
  1  2  1  0
  2  3  1  0
  3  4  1  0
  4  5  1  0
  5  6  1  0
  6  7  1  0
  7  8  1  0
  8  9  1  0
  8  3  1  0
  9  3  1  0
  9  6  1  0
  1 10  1  0
  1 11  1  0
  1 12  1  0
  4 13  1  0
  4 14  1  0
  5 15  1  0
  5 16  1  0
  6 17  1  0
  8 18  1  0
  9 19  1  0
M  END
