
     RDKit          3D

 23 23  0  0  0  0  0  0  0  0999 V2000
    2.0772    1.0573    0.4972 C   0  0  0  0  0  0  0  0  0  0  0  0
    1.0416    0.2451    0.8968 O   0  0  0  0  0  0  0  0  0  0  0  0
    0.3728   -0.3948   -0.1062 C   0  0  0  0  0  0  0  0  0  0  0  0
    1.2265   -1.3075   -0.9429 C   0  0  0  0  0  0  0  0  0  0  0  0
   -0.2707    0.6080   -1.0696 C   0  0  0  0  0  0  0  0  0  0  0  0
   -1.1871    1.4627   -0.3111 C   0  0  0  0  0  0  0  0  0  0  0  0
   -1.9310    0.9363    0.6336 C   0  0  0  0  0  0  0  0  0  0  0  0
   -1.9033   -0.4837    0.9867 C   0  0  0  0  0  0  0  0  0  0  0  0
   -0.7144   -1.2386    0.5136 C   0  0  0  0  0  0  0  0  0  0  0  0
    2.5184    1.5035    1.4218 H   0  0  0  0  0  0  0  0  0  0  0  0
    1.7634    1.9166   -0.1241 H   0  0  0  0  0  0  0  0  0  0  0  0
    2.8955    0.4784    0.0189 H   0  0  0  0  0  0  0  0  0  0  0  0
    0.8602   -2.3686   -0.9349 H   0  0  0  0  0  0  0  0  0  0  0  0
    2.2773   -1.3741   -0.5703 H   0  0  0  0  0  0  0  0  0  0  0  0
    1.2491   -1.0211   -2.0151 H   0  0  0  0  0  0  0  0  0  0  0  0
    0.5222    1.1869   -1.5762 H   0  0  0  0  0  0  0  0  0  0  0  0
   -0.7898   -0.0087   -1.8372 H   0  0  0  0  0  0  0  0  0  0  0  0
   -1.2598    2.5243   -0.5189 H   0  0  0  0  0  0  0  0  0  0  0  0
   -2.6186    1.5871    1.2001 H   0  0  0  0  0  0  0  0  0  0  0  0
   -2.0370   -0.5624    2.0909 H   0  0  0  0  0  0  0  0  0  0  0  0
   -2.8313   -0.9520    0.5555 H   0  0  0  0  0  0  0  0  0  0  0  0
   -0.2571   -1.7519    1.3859 H   0  0  0  0  0  0  0  0  0  0  0  0
   -1.0041   -2.0428   -0.1944 H   0  0  0  0  0  0  0  0  0  0  0  0
  1  2  1  0
  2  3  1  0
  3  4  1  0
  3  5  1  0
  5  6  1  0
  6  7  2  0
  7  8  1  0
  8  9  1  0
  9  3  1  0
  1 10  1  0
  1 11  1  0
  1 12  1  0
  4 13  1  0
  4 14  1  0
  4 15  1  0
  5 16  1  0
  5 17  1  0
  6 18  1  0
  7 19  1  0
  8 20  1  0
  8 21  1  0
  9 22  1  0
  9 23  1  0
M  END
