
     RDKit          3D

 21 21  0  0  0  0  0  0  0  0999 V2000
   -1.7541   -1.7082    0.1612 C   0  0  0  0  0  0  0  0  0  0  0  0
   -0.6606   -1.1443    0.7507 O   0  0  0  0  0  0  0  0  0  0  0  0
   -0.2386    0.0498    0.2936 C   0  0  0  0  0  0  0  0  0  0  0  0
   -1.1631    1.2271    0.3509 C   0  0  0  0  0  0  0  0  0  0  0  0
   -0.5287    2.3566   -0.1707 O   0  0  0  0  0  0  0  0  0  0  0  0
    1.0840    0.4166    0.9797 C   0  0  0  0  0  0  0  0  0  0  0  0
    1.8714   -0.0508   -0.2466 C   0  0  0  0  0  0  0  0  0  0  0  0
    2.2721   -1.3731   -0.1793 O   0  0  0  0  0  0  0  0  0  0  0  0
    0.5601    0.0542   -1.0028 C   0  0  0  0  0  0  0  0  0  0  0  0
   -2.6845   -1.0768    0.2373 H   0  0  0  0  0  0  0  0  0  0  0  0
   -1.5895   -2.0838   -0.8621 H   0  0  0  0  0  0  0  0  0  0  0  0
   -2.0184   -2.6228    0.7714 H   0  0  0  0  0  0  0  0  0  0  0  0
   -2.1050    1.1060   -0.1689 H   0  0  0  0  0  0  0  0  0  0  0  0
   -1.4085    1.4900    1.4204 H   0  0  0  0  0  0  0  0  0  0  0  0
   -0.8573    2.5425   -1.1028 H   0  0  0  0  0  0  0  0  0  0  0  0
    1.2067    1.4837    1.1936 H   0  0  0  0  0  0  0  0  0  0  0  0
    1.3273   -0.1952    1.8581 H   0  0  0  0  0  0  0  0  0  0  0  0
    2.6367    0.6860   -0.5164 H   0  0  0  0  0  0  0  0  0  0  0  0
    3.1796   -1.4455   -0.5577 H   0  0  0  0  0  0  0  0  0  0  0  0
    0.5276    1.0459   -1.5185 H   0  0  0  0  0  0  0  0  0  0  0  0
    0.3429   -0.7582   -1.6911 H   0  0  0  0  0  0  0  0  0  0  0  0
  1  2  1  0
  2  3  1  0
  3  4  1  0
  4  5  1  0
  3  6  1  0
  6  7  1  0
  7  8  1  0
  7  9  1  0
  9  3  1  0
  1 10  1  0
  1 11  1  0
  1 12  1  0
  4 13  1  0
  4 14  1  0
  5 15  1  0
  6 16  1  0
  6 17  1  0
  7 18  1  0
  8 19  1  0
  9 20  1  0
  9 21  1  0
M  END
