
     RDKit          3D

 21 21  0  0  0  0  0  0  0  0999 V2000
    3.2481   -0.3654    0.1203 C   0  0  0  0  0  0  0  0  0  0  0  0
    2.0720    0.3645    0.2431 O   0  0  0  0  0  0  0  0  0  0  0  0
    0.9419   -0.3892    0.0941 C   0  0  0  0  0  0  0  0  0  0  0  0
    0.0502   -0.3838    1.3232 C   0  0  0  0  0  0  0  0  0  0  0  0
   -1.1548   -0.9818    0.9187 O   0  0  0  0  0  0  0  0  0  0  0  0
   -1.8488   -0.0387    0.1901 C   0  0  0  0  0  0  0  0  0  0  0  0
   -2.9721   -0.7189   -0.5654 C   0  0  0  0  0  0  0  0  0  0  0  0
   -1.0647    0.7625   -0.5971 O   0  0  0  0  0  0  0  0  0  0  0  0
    0.0956    0.1703   -1.0447 C   0  0  0  0  0  0  0  0  0  0  0  0
    3.3334   -0.8496   -0.8726 H   0  0  0  0  0  0  0  0  0  0  0  0
    3.3337   -1.0898    0.9604 H   0  0  0  0  0  0  0  0  0  0  0  0
    4.1050    0.3340    0.2062 H   0  0  0  0  0  0  0  0  0  0  0  0
    1.1766   -1.4721   -0.1023 H   0  0  0  0  0  0  0  0  0  0  0  0
   -0.1765    0.6972    1.5362 H   0  0  0  0  0  0  0  0  0  0  0  0
    0.5084   -0.8968    2.1801 H   0  0  0  0  0  0  0  0  0  0  0  0
   -2.3495    0.6358    0.9452 H   0  0  0  0  0  0  0  0  0  0  0  0
   -3.5330    0.0269   -1.1823 H   0  0  0  0  0  0  0  0  0  0  0  0
   -3.6862   -1.1083    0.1898 H   0  0  0  0  0  0  0  0  0  0  0  0
   -2.6182   -1.5780   -1.1727 H   0  0  0  0  0  0  0  0  0  0  0  0
   -0.1284   -0.6521   -1.7728 H   0  0  0  0  0  0  0  0  0  0  0  0
    0.6676    0.9668   -1.5976 H   0  0  0  0  0  0  0  0  0  0  0  0
  1  2  1  0
  2  3  1  0
  3  4  1  0
  4  5  1  0
  5  6  1  0
  6  7  1  0
  6  8  1  0
  8  9  1  0
  9  3  1  0
  1 10  1  0
  1 11  1  0
  1 12  1  0
  3 13  1  0
  4 14  1  0
  4 15  1  0
  6 16  1  0
  7 17  1  0
  7 18  1  0
  7 19  1  0
  9 20  1  0
  9 21  1  0
M  END
