
     RDKit          3D

 23 23  0  0  0  0  0  0  0  0999 V2000
    2.2393    0.9809   -0.9189 C   0  0  0  0  0  0  0  0  0  0  0  0
    0.8596    0.9736   -1.0410 O   0  0  0  0  0  0  0  0  0  0  0  0
    0.3189    0.1710   -0.0733 C   0  0  0  0  0  0  0  0  0  0  0  0
    0.5902    0.5641    1.3538 C   0  0  0  0  0  0  0  0  0  0  0  0
    0.0698    1.8519    1.5271 O   0  0  0  0  0  0  0  0  0  0  0  0
    0.3800   -1.3098   -0.4293 C   0  0  0  0  0  0  0  0  0  0  0  0
   -0.9037   -0.6315   -0.3115 C   0  0  0  0  0  0  0  0  0  0  0  0
   -1.7517   -0.9798    0.9026 C   0  0  0  0  0  0  0  0  0  0  0  0
   -1.7203   -0.2174   -1.5089 C   0  0  0  0  0  0  0  0  0  0  0  0
    2.6083    1.3690    0.0477 H   0  0  0  0  0  0  0  0  0  0  0  0
    2.7264    1.5540   -1.7517 H   0  0  0  0  0  0  0  0  0  0  0  0
    2.6156   -0.0818   -0.9590 H   0  0  0  0  0  0  0  0  0  0  0  0
    1.6602    0.6120    1.6248 H   0  0  0  0  0  0  0  0  0  0  0  0
    0.0567   -0.1743    1.9971 H   0  0  0  0  0  0  0  0  0  0  0  0
    0.5362    2.3351    2.2715 H   0  0  0  0  0  0  0  0  0  0  0  0
    0.7130   -1.9512    0.4208 H   0  0  0  0  0  0  0  0  0  0  0  0
    0.8287   -1.6232   -1.3858 H   0  0  0  0  0  0  0  0  0  0  0  0
   -2.7027   -1.4772    0.5932 H   0  0  0  0  0  0  0  0  0  0  0  0
   -1.2342   -1.7000    1.5651 H   0  0  0  0  0  0  0  0  0  0  0  0
   -2.0104   -0.0422    1.4488 H   0  0  0  0  0  0  0  0  0  0  0  0
   -2.3124    0.6839   -1.2117 H   0  0  0  0  0  0  0  0  0  0  0  0
   -1.0975    0.0896   -2.3684 H   0  0  0  0  0  0  0  0  0  0  0  0
   -2.4700   -0.9967   -1.7930 H   0  0  0  0  0  0  0  0  0  0  0  0
  1  2  1  0
  2  3  1  0
  3  4  1  0
  4  5  1  0
  3  6  1  0
  6  7  1  0
  7  8  1  0
  7  9  1  0
  7  3  1  0
  1 10  1  0
  1 11  1  0
  1 12  1  0
  4 13  1  0
  4 14  1  0
  5 15  1  0
  6 16  1  0
  6 17  1  0
  8 18  1  0
  8 19  1  0
  8 20  1  0
  9 21  1  0
  9 22  1  0
  9 23  1  0
M  END
