
     RDKit          3D

 17 19  0  0  0  0  0  0  0  0999 V2000
    2.4290    0.1133    0.0857 C   0  0  0  0  0  0  0  0  0  0  0  0
    1.3462   -0.4535   -0.6037 O   0  0  0  0  0  0  0  0  0  0  0  0
    0.1604   -0.2236    0.0765 C   0  0  0  0  0  0  0  0  0  0  0  0
   -0.2964    1.1634    0.3372 C   0  0  0  0  0  0  0  0  0  0  0  0
   -1.0244    0.2746   -0.6221 C   0  0  0  0  0  0  0  0  0  0  0  0
   -1.0259    0.5801   -1.9804 O   0  0  0  0  0  0  0  0  0  0  0  0
   -1.8722   -0.8549   -0.1103 C   0  0  0  0  0  0  0  0  0  0  0  0
   -1.4201   -2.1527   -0.1754 O   0  0  0  0  0  0  0  0  0  0  0  0
   -0.6332   -1.3617    0.6377 C   0  0  0  0  0  0  0  0  0  0  0  0
    2.5333   -0.3158    1.1058 H   0  0  0  0  0  0  0  0  0  0  0  0
    2.3472    1.2188    0.1314 H   0  0  0  0  0  0  0  0  0  0  0  0
    3.3717   -0.1280   -0.4465 H   0  0  0  0  0  0  0  0  0  0  0  0
    0.2607    1.9891   -0.1436 H   0  0  0  0  0  0  0  0  0  0  0  0
   -0.7804    1.4111    1.3050 H   0  0  0  0  0  0  0  0  0  0  0  0
   -1.9731    0.8292   -2.2053 H   0  0  0  0  0  0  0  0  0  0  0  0
   -2.7227   -0.5755    0.5310 H   0  0  0  0  0  0  0  0  0  0  0  0
   -0.7001   -1.5138    1.7230 H   0  0  0  0  0  0  0  0  0  0  0  0
  1  2  1  0
  2  3  1  0
  3  4  1  0
  4  5  1  0
  5  6  1  0
  5  7  1  0
  7  8  1  0
  8  9  1  0
  5  3  1  0
  9  7  1  0
  9  3  1  0
  1 10  1  0
  1 11  1  0
  1 12  1  0
  4 13  1  0
  4 14  1  0
  6 15  1  0
  7 16  1  0
  9 17  1  0
M  END
