
     RDKit          3D

 19 20  0  0  0  0  0  0  0  0999 V2000
    2.5818   -0.0655   -0.7808 C   0  0  0  0  0  0  0  0  0  0  0  0
    1.7477    0.8407   -0.1568 O   0  0  0  0  0  0  0  0  0  0  0  0
    0.4416    0.3991   -0.0220 C   0  0  0  0  0  0  0  0  0  0  0  0
    0.1477   -0.8223    0.7385 C   0  0  0  0  0  0  0  0  0  0  0  0
   -1.0782   -1.3247    0.7399 C   0  0  0  0  0  0  0  0  0  0  0  0
   -2.1829   -0.6689   -0.0244 C   0  0  0  0  0  0  0  0  0  0  0  0
   -1.5804   -0.2305   -1.2133 O   0  0  0  0  0  0  0  0  0  0  0  0
   -0.6054    0.7061   -0.9906 C   0  0  0  0  0  0  0  0  0  0  0  0
   -0.5373    1.5660    0.1912 C   0  0  0  0  0  0  0  0  0  0  0  0
    3.5893    0.4012   -0.8277 H   0  0  0  0  0  0  0  0  0  0  0  0
    2.7128   -1.0119   -0.2152 H   0  0  0  0  0  0  0  0  0  0  0  0
    2.2974   -0.2598   -1.8444 H   0  0  0  0  0  0  0  0  0  0  0  0
    0.9690   -1.2940    1.2955 H   0  0  0  0  0  0  0  0  0  0  0  0
   -1.2339   -2.2338    1.3239 H   0  0  0  0  0  0  0  0  0  0  0  0
   -2.6639    0.1531    0.5374 H   0  0  0  0  0  0  0  0  0  0  0  0
   -2.9800   -1.3845   -0.2893 H   0  0  0  0  0  0  0  0  0  0  0  0
   -0.2571    1.1762   -1.9596 H   0  0  0  0  0  0  0  0  0  0  0  0
   -0.1758    2.5981    0.0656 H   0  0  0  0  0  0  0  0  0  0  0  0
   -1.1924    1.4553    1.0761 H   0  0  0  0  0  0  0  0  0  0  0  0
  1  2  1  0
  2  3  1  0
  3  4  1  0
  4  5  2  0
  5  6  1  0
  6  7  1  0
  7  8  1  0
  8  9  1  0
  8  3  1  0
  9  3  1  0
  1 10  1  0
  1 11  1  0
  1 12  1  0
  4 13  1  0
  5 14  1  0
  6 15  1  0
  6 16  1  0
  8 17  1  0
  9 18  1  0
  9 19  1  0
M  END
