
     RDKit          3D

 19 21  0  0  0  0  0  0  0  0999 V2000
   -2.3779   -1.1461    0.4967 C   0  0  0  0  0  0  0  0  0  0  0  0
   -1.1439   -0.7155    0.9608 O   0  0  0  0  0  0  0  0  0  0  0  0
   -0.4859   -0.0263   -0.0284 C   0  0  0  0  0  0  0  0  0  0  0  0
   -1.0861    1.2219   -0.6276 C   0  0  0  0  0  0  0  0  0  0  0  0
    0.1460    1.2909    0.2146 C   0  0  0  0  0  0  0  0  0  0  0  0
    1.4261    0.8244   -0.3881 C   0  0  0  0  0  0  0  0  0  0  0  0
    2.0816   -0.3976    0.1290 C   0  0  0  0  0  0  0  0  0  0  0  0
    3.2096   -0.8627   -0.5361 O   0  0  0  0  0  0  0  0  0  0  0  0
    0.8032   -0.5602   -0.5954 C   0  0  0  0  0  0  0  0  0  0  0  0
   -2.2568   -1.8178   -0.3830 H   0  0  0  0  0  0  0  0  0  0  0  0
   -3.0616   -0.3428    0.2160 H   0  0  0  0  0  0  0  0  0  0  0  0
   -2.8488   -1.7240    1.3299 H   0  0  0  0  0  0  0  0  0  0  0  0
   -2.0609    1.5138   -0.2291 H   0  0  0  0  0  0  0  0  0  0  0  0
   -1.0131    1.3066   -1.7306 H   0  0  0  0  0  0  0  0  0  0  0  0
    0.1202    1.7840    1.2070 H   0  0  0  0  0  0  0  0  0  0  0  0
    1.8790    1.3197   -1.2566 H   0  0  0  0  0  0  0  0  0  0  0  0
    2.1214   -0.6021    1.2323 H   0  0  0  0  0  0  0  0  0  0  0  0
    3.7757   -0.1583   -0.9011 H   0  0  0  0  0  0  0  0  0  0  0  0
    0.7723   -0.9081   -1.6341 H   0  0  0  0  0  0  0  0  0  0  0  0
  1  2  1  0
  2  3  1  0
  3  4  1  0
  4  5  1  0
  5  6  1  0
  6  7  1  0
  7  8  1  0
  7  9  1  0
  5  3  1  0
  9  6  1  0
  9  3  1  0
  1 10  1  0
  1 11  1  0
  1 12  1  0
  4 13  1  0
  4 14  1  0
  5 15  1  0
  6 16  1  0
  7 17  1  0
  8 18  1  0
  9 19  1  0
M  END
