
     RDKit          3D

 21 22  0  0  0  0  0  0  0  0999 V2000
    2.2716    0.4823    0.2289 C   0  0  0  0  0  0  0  0  0  0  0  0
    1.0918    1.0067   -0.1653 O   0  0  0  0  0  0  0  0  0  0  0  0
    0.0936    0.1954   -0.5351 C   0  0  0  0  0  0  0  0  0  0  0  0
    0.0703   -0.7791   -1.6177 C   0  0  0  0  0  0  0  0  0  0  0  0
    0.3395   -1.3042   -0.2684 C   0  0  0  0  0  0  0  0  0  0  0  0
   -0.7568   -1.5936    0.7154 C   0  0  0  0  0  0  0  0  0  0  0  0
   -1.0856   -0.3627    1.3063 O   0  0  0  0  0  0  0  0  0  0  0  0
   -1.2393    0.4313    0.1728 C   0  0  0  0  0  0  0  0  0  0  0  0
   -1.4363    1.8859    0.5137 C   0  0  0  0  0  0  0  0  0  0  0  0
    2.1461   -0.1727    1.1144 H   0  0  0  0  0  0  0  0  0  0  0  0
    2.9221    1.3317    0.5924 H   0  0  0  0  0  0  0  0  0  0  0  0
    2.8487   -0.0526   -0.5447 H   0  0  0  0  0  0  0  0  0  0  0  0
    0.8851   -0.8900   -2.3623 H   0  0  0  0  0  0  0  0  0  0  0  0
   -0.9250   -1.0243   -2.0622 H   0  0  0  0  0  0  0  0  0  0  0  0
    1.3478   -1.6467   -0.0401 H   0  0  0  0  0  0  0  0  0  0  0  0
   -0.4179   -2.2852    1.4988 H   0  0  0  0  0  0  0  0  0  0  0  0
   -1.6710   -1.9760    0.2210 H   0  0  0  0  0  0  0  0  0  0  0  0
   -2.0887   -0.0005   -0.3998 H   0  0  0  0  0  0  0  0  0  0  0  0
   -0.6006    2.4465    0.0292 H   0  0  0  0  0  0  0  0  0  0  0  0
   -2.3627    2.2280    0.0059 H   0  0  0  0  0  0  0  0  0  0  0  0
   -1.4327    2.0799    1.5968 H   0  0  0  0  0  0  0  0  0  0  0  0
  1  2  1  0
  2  3  1  0
  3  4  1  0
  4  5  1  0
  5  6  1  0
  6  7  1  0
  7  8  1  0
  8  9  1  0
  5  3  1  0
  8  3  1  0
  1 10  1  0
  1 11  1  0
  1 12  1  0
  4 13  1  0
  4 14  1  0
  5 15  1  0
  6 16  1  0
  6 17  1  0
  8 18  1  0
  9 19  1  0
  9 20  1  0
  9 21  1  0
M  END
