
     RDKit          3D

 21 22  0  0  0  0  0  0  0  0999 V2000
    2.4804   -0.5345    0.1055 C   0  0  0  0  0  0  0  0  0  0  0  0
    1.1369   -0.7621    0.0603 O   0  0  0  0  0  0  0  0  0  0  0  0
    0.3230    0.3556    0.1192 C   0  0  0  0  0  0  0  0  0  0  0  0
    0.4790    1.3140   -0.9023 C   0  0  0  0  0  0  0  0  0  0  0  0
   -0.7014    0.5680   -1.0700 C   0  0  0  0  0  0  0  0  0  0  0  0
   -1.0658   -0.8680   -1.0427 C   0  0  0  0  0  0  0  0  0  0  0  0
   -1.5098   -0.9867    0.4326 C   0  0  0  0  0  0  0  0  0  0  0  0
   -0.7532    0.1591    1.1385 C   0  0  0  0  0  0  0  0  0  0  0  0
   -1.5239    1.3017    1.1779 O   0  0  0  0  0  0  0  0  0  0  0  0
    2.9824   -1.5258    0.0485 H   0  0  0  0  0  0  0  0  0  0  0  0
    2.8048   -0.0893    1.0724 H   0  0  0  0  0  0  0  0  0  0  0  0
    2.8945    0.0399   -0.7468 H   0  0  0  0  0  0  0  0  0  0  0  0
    1.3133    1.2087   -1.6232 H   0  0  0  0  0  0  0  0  0  0  0  0
    0.4286    2.3977   -0.5763 H   0  0  0  0  0  0  0  0  0  0  0  0
   -1.6516    1.1378   -0.8160 H   0  0  0  0  0  0  0  0  0  0  0  0
   -0.2650   -1.5679   -1.2685 H   0  0  0  0  0  0  0  0  0  0  0  0
   -1.9633   -1.0586   -1.6534 H   0  0  0  0  0  0  0  0  0  0  0  0
   -1.1813   -1.9424    0.8617 H   0  0  0  0  0  0  0  0  0  0  0  0
   -2.5740   -0.7689    0.5481 H   0  0  0  0  0  0  0  0  0  0  0  0
   -0.3507   -0.1606    2.1037 H   0  0  0  0  0  0  0  0  0  0  0  0
   -1.3030    1.7820    2.0308 H   0  0  0  0  0  0  0  0  0  0  0  0
  1  2  1  0
  2  3  1  0
  3  4  1  0
  4  5  1  0
  5  6  1  0
  6  7  1  0
  7  8  1  0
  8  9  1  0
  5  3  1  0
  8  3  1  0
  1 10  1  0
  1 11  1  0
  1 12  1  0
  4 13  1  0
  4 14  1  0
  5 15  1  0
  6 16  1  0
  6 17  1  0
  7 18  1  0
  7 19  1  0
  8 20  1  0
  9 21  1  0
M  END
