
     RDKit          3D

 21 22  0  0  0  0  0  0  0  0999 V2000
    2.5905    0.1307   -0.3340 C   0  0  0  0  0  0  0  0  0  0  0  0
    1.4129   -0.0482   -0.9989 O   0  0  0  0  0  0  0  0  0  0  0  0
    0.2972   -0.1942   -0.2343 C   0  0  0  0  0  0  0  0  0  0  0  0
    0.2755   -1.3587    0.7247 C   0  0  0  0  0  0  0  0  0  0  0  0
   -0.2959    1.0244    0.3841 C   0  0  0  0  0  0  0  0  0  0  0  0
   -0.6801    0.8566    1.7346 O   0  0  0  0  0  0  0  0  0  0  0  0
   -1.5319    0.9065   -0.4849 C   0  0  0  0  0  0  0  0  0  0  0  0
   -2.2734   -0.3613   -0.5008 C   0  0  0  0  0  0  0  0  0  0  0  0
   -0.9368   -0.2768   -1.1377 C   0  0  0  0  0  0  0  0  0  0  0  0
    2.5614    1.0423    0.2988 H   0  0  0  0  0  0  0  0  0  0  0  0
    3.3812    0.3327   -1.1043 H   0  0  0  0  0  0  0  0  0  0  0  0
    2.9443   -0.7600    0.2191 H   0  0  0  0  0  0  0  0  0  0  0  0
    1.2323   -1.4757    1.2727 H   0  0  0  0  0  0  0  0  0  0  0  0
   -0.0156   -2.2728    0.1848 H   0  0  0  0  0  0  0  0  0  0  0  0
   -0.5023   -1.1840    1.4995 H   0  0  0  0  0  0  0  0  0  0  0  0
    0.2193    1.9825    0.2269 H   0  0  0  0  0  0  0  0  0  0  0  0
   -0.4739    1.6481    2.2762 H   0  0  0  0  0  0  0  0  0  0  0  0
   -1.8715    1.7599   -1.0726 H   0  0  0  0  0  0  0  0  0  0  0  0
   -3.1253   -0.4376   -1.1757 H   0  0  0  0  0  0  0  0  0  0  0  0
   -2.4088   -0.9623    0.4385 H   0  0  0  0  0  0  0  0  0  0  0  0
   -0.7990   -0.3520   -2.2166 H   0  0  0  0  0  0  0  0  0  0  0  0
  1  2  1  0
  2  3  1  0
  3  4  1  0
  3  5  1  0
  5  6  1  0
  5  7  1  0
  7  8  1  0
  8  9  1  0
  9  3  1  0
  9  7  1  0
  1 10  1  0
  1 11  1  0
  1 12  1  0
  4 13  1  0
  4 14  1  0
  4 15  1  0
  5 16  1  0
  6 17  1  0
  7 18  1  0
  8 19  1  0
  8 20  1  0
  9 21  1  0
M  END
