
     RDKit          3D

 19 20  0  0  0  0  0  0  0  0999 V2000
    2.6198   -0.4408   -0.3126 C   0  0  0  0  0  0  0  0  0  0  0  0
    1.2795   -0.8605   -0.3908 O   0  0  0  0  0  0  0  0  0  0  0  0
    0.4909    0.1454    0.0776 C   0  0  0  0  0  0  0  0  0  0  0  0
   -0.6003    0.5554   -0.9341 C   0  0  0  0  0  0  0  0  0  0  0  0
   -1.3228   -0.7197   -1.0354 C   0  0  0  0  0  0  0  0  0  0  0  0
   -1.3370   -1.2461    0.1817 C   0  0  0  0  0  0  0  0  0  0  0  0
   -0.5633   -0.3512    1.0878 C   0  0  0  0  0  0  0  0  0  0  0  0
   -1.3527    0.8988    1.2146 C   0  0  0  0  0  0  0  0  0  0  0  0
   -1.4102    1.4132   -0.0061 C   0  0  0  0  0  0  0  0  0  0  0  0
    2.7103    0.4697   -0.9419 H   0  0  0  0  0  0  0  0  0  0  0  0
    3.2837   -1.2494   -0.6551 H   0  0  0  0  0  0  0  0  0  0  0  0
    2.8954   -0.1742    0.7449 H   0  0  0  0  0  0  0  0  0  0  0  0
    0.9892    1.0484    0.4135 H   0  0  0  0  0  0  0  0  0  0  0  0
   -0.2441    1.0154   -1.8095 H   0  0  0  0  0  0  0  0  0  0  0  0
   -1.7503   -1.1325   -1.9261 H   0  0  0  0  0  0  0  0  0  0  0  0
   -1.8104   -2.1602    0.5149 H   0  0  0  0  0  0  0  0  0  0  0  0
   -0.1701   -0.7765    1.9679 H   0  0  0  0  0  0  0  0  0  0  0  0
   -1.7762    1.2796    2.1245 H   0  0  0  0  0  0  0  0  0  0  0  0
   -1.9315    2.2851   -0.3159 H   0  0  0  0  0  0  0  0  0  0  0  0
  1  2  1  0
  2  3  1  0
  3  4  1  0
  4  5  1  0
  5  6  2  0
  6  7  1  0
  7  8  1  0
  8  9  2  0
  7  3  1  0
  9  4  1  0
  1 10  1  0
  1 11  1  0
  1 12  1  0
  3 13  1  0
  4 14  1  0
  5 15  1  0
  6 16  1  0
  7 17  1  0
  8 18  1  0
  9 19  1  0
M  END
