
     RDKit          3D

 21 22  0  0  0  0  0  0  0  0999 V2000
    2.8752   -0.2886   -0.1926 C   0  0  0  0  0  0  0  0  0  0  0  0
    1.7040    0.2566    0.2940 O   0  0  0  0  0  0  0  0  0  0  0  0
    0.5596   -0.3186   -0.2033 C   0  0  0  0  0  0  0  0  0  0  0  0
   -0.2547   -0.8012    1.0151 C   0  0  0  0  0  0  0  0  0  0  0  0
   -1.3613    0.2007    0.9577 C   0  0  0  0  0  0  0  0  0  0  0  0
   -0.6978    1.5096    0.5384 C   0  0  0  0  0  0  0  0  0  0  0  0
   -0.3914    0.7116   -0.7378 C   0  0  0  0  0  0  0  0  0  0  0  0
   -1.7607    0.1089   -0.5241 C   0  0  0  0  0  0  0  0  0  0  0  0
   -1.9174   -1.1874   -0.9723 O   0  0  0  0  0  0  0  0  0  0  0  0
    2.9711   -0.2056   -1.2839 H   0  0  0  0  0  0  0  0  0  0  0  0
    2.9673   -1.3390    0.1689 H   0  0  0  0  0  0  0  0  0  0  0  0
    3.7148    0.2838    0.2657 H   0  0  0  0  0  0  0  0  0  0  0  0
    0.7232   -1.1285   -0.9154 H   0  0  0  0  0  0  0  0  0  0  0  0
    0.3038   -0.6976    1.9437 H   0  0  0  0  0  0  0  0  0  0  0  0
   -0.6078   -1.8378    0.8096 H   0  0  0  0  0  0  0  0  0  0  0  0
   -2.1313    0.2251    1.6768 H   0  0  0  0  0  0  0  0  0  0  0  0
    0.2031    1.7730    1.0954 H   0  0  0  0  0  0  0  0  0  0  0  0
   -1.4169    2.2987    0.3187 H   0  0  0  0  0  0  0  0  0  0  0  0
   -0.1796    1.2481   -1.6185 H   0  0  0  0  0  0  0  0  0  0  0  0
   -2.6087    0.7758   -0.6919 H   0  0  0  0  0  0  0  0  0  0  0  0
   -2.6942   -1.5875   -0.4840 H   0  0  0  0  0  0  0  0  0  0  0  0
  1  2  1  0
  2  3  1  0
  3  4  1  0
  4  5  1  0
  5  6  1  0
  6  7  1  0
  7  8  1  0
  8  9  1  0
  7  3  1  0
  8  5  1  0
  1 10  1  0
  1 11  1  0
  1 12  1  0
  3 13  1  0
  4 14  1  0
  4 15  1  0
  5 16  1  0
  6 17  1  0
  6 18  1  0
  7 19  1  0
  8 20  1  0
  9 21  1  0
M  END
