
     RDKit          3D

 18 18  0  0  0  0  0  0  0  0999 V2000
    2.9027   -0.1833   -0.0684 C   0  0  0  0  0  0  0  0  0  0  0  0
    1.8344    0.5596    0.4636 O   0  0  0  0  0  0  0  0  0  0  0  0
    0.6134    0.0579    0.0959 C   0  0  0  0  0  0  0  0  0  0  0  0
   -0.1874    1.1310   -0.5543 C   0  0  0  0  0  0  0  0  0  0  0  0
   -1.5091    1.1037   -0.6039 C   0  0  0  0  0  0  0  0  0  0  0  0
   -2.2058   -0.0501    0.0180 C   0  0  0  0  0  0  0  0  0  0  0  0
   -1.3047   -0.9006    0.8663 C   0  0  0  0  0  0  0  0  0  0  0  0
   -0.1259   -0.2884    1.2481 O   0  0  0  0  0  0  0  0  0  0  0  0
    2.8080   -0.1436   -1.1796 H   0  0  0  0  0  0  0  0  0  0  0  0
    2.9318   -1.2121    0.3162 H   0  0  0  0  0  0  0  0  0  0  0  0
    3.8583    0.3077    0.1735 H   0  0  0  0  0  0  0  0  0  0  0  0
    0.7123   -0.8343   -0.5480 H   0  0  0  0  0  0  0  0  0  0  0  0
    0.2993    2.0016   -1.0257 H   0  0  0  0  0  0  0  0  0  0  0  0
   -2.0856    1.9108   -1.0907 H   0  0  0  0  0  0  0  0  0  0  0  0
   -3.1133    0.2785    0.5810 H   0  0  0  0  0  0  0  0  0  0  0  0
   -2.5597   -0.6835   -0.8455 H   0  0  0  0  0  0  0  0  0  0  0  0
   -1.0416   -1.8490    0.3443 H   0  0  0  0  0  0  0  0  0  0  0  0
   -1.8270   -1.2059    1.8092 H   0  0  0  0  0  0  0  0  0  0  0  0
  1  2  1  0
  2  3  1  0
  3  4  1  0
  4  5  2  0
  5  6  1  0
  6  7  1  0
  7  8  1  0
  8  3  1  0
  1  9  1  0
  1 10  1  0
  1 11  1  0
  3 12  1  0
  4 13  1  0
  5 14  1  0
  6 15  1  0
  6 16  1  0
  7 17  1  0
  7 18  1  0
M  END
