
     RDKit          3D

 19 20  0  0  0  0  0  0  0  0999 V2000
   -1.1452    1.6575    0.8243 C   0  0  0  0  0  0  0  0  0  0  0  0
   -1.2026    0.2948    0.9420 O   0  0  0  0  0  0  0  0  0  0  0  0
   -0.8028   -0.3303   -0.2052 C   0  0  0  0  0  0  0  0  0  0  0  0
   -1.0059   -1.8357   -0.2931 C   0  0  0  0  0  0  0  0  0  0  0  0
    0.2671   -2.0612   -0.7445 O   0  0  0  0  0  0  0  0  0  0  0  0
    0.5774   -0.7058   -0.5007 C   0  0  0  0  0  0  0  0  0  0  0  0
    1.6657   -0.5152    0.4677 C   0  0  0  0  0  0  0  0  0  0  0  0
    2.1069    0.7340    0.7560 O   0  0  0  0  0  0  0  0  0  0  0  0
   -0.1017    0.3316   -1.2943 C   0  0  0  0  0  0  0  0  0  0  0  0
   -1.8230    1.9894   -0.0060 H   0  0  0  0  0  0  0  0  0  0  0  0
   -0.1219    2.0012    0.6713 H   0  0  0  0  0  0  0  0  0  0  0  0
   -1.5585    2.1793    1.7245 H   0  0  0  0  0  0  0  0  0  0  0  0
   -1.7948   -2.0344   -1.0528 H   0  0  0  0  0  0  0  0  0  0  0  0
   -1.1763   -2.3307    0.6828 H   0  0  0  0  0  0  0  0  0  0  0  0
    1.4685   -1.0441    1.4598 H   0  0  0  0  0  0  0  0  0  0  0  0
    2.5869   -1.0811    0.1044 H   0  0  0  0  0  0  0  0  0  0  0  0
    2.1904    1.3414    0.0076 H   0  0  0  0  0  0  0  0  0  0  0  0
    0.3165    1.3519   -1.2089 H   0  0  0  0  0  0  0  0  0  0  0  0
   -0.4465    0.0576   -2.3350 H   0  0  0  0  0  0  0  0  0  0  0  0
  1  2  1  0
  2  3  1  0
  3  4  1  0
  4  5  1  0
  5  6  1  0
  6  7  1  0
  7  8  1  0
  6  9  1  0
  6  3  1  0
  9  3  1  0
  1 10  1  0
  1 11  1  0
  1 12  1  0
  4 13  1  0
  4 14  1  0
  7 15  1  0
  7 16  1  0
  8 17  1  0
  9 18  1  0
  9 19  1  0
M  END
