
     RDKit          3D

 21 22  0  0  0  0  0  0  0  0999 V2000
    2.8742   -0.3889   -1.2236 C   0  0  0  0  0  0  0  0  0  0  0  0
    1.6667    0.3453   -1.1880 O   0  0  0  0  0  0  0  0  0  0  0  0
    1.0440    0.1733    0.0174 C   0  0  0  0  0  0  0  0  0  0  0  0
    0.4350    1.4067    0.7058 C   0  0  0  0  0  0  0  0  0  0  0  0
   -0.3989    0.2959    0.2201 C   0  0  0  0  0  0  0  0  0  0  0  0
   -1.1878   -0.5812    1.1360 C   0  0  0  0  0  0  0  0  0  0  0  0
   -2.2220   -1.1902    0.2578 C   0  0  0  0  0  0  0  0  0  0  0  0
   -2.3286   -0.5293   -0.8850 C   0  0  0  0  0  0  0  0  0  0  0  0
   -1.3669    0.5998   -0.8870 C   0  0  0  0  0  0  0  0  0  0  0  0
    2.6926   -1.4728   -1.0814 H   0  0  0  0  0  0  0  0  0  0  0  0
    3.5019   -0.0369   -0.3808 H   0  0  0  0  0  0  0  0  0  0  0  0
    3.4410   -0.1636   -2.1474 H   0  0  0  0  0  0  0  0  0  0  0  0
    1.5770   -0.4990    0.7522 H   0  0  0  0  0  0  0  0  0  0  0  0
    0.5229    2.3341    0.0849 H   0  0  0  0  0  0  0  0  0  0  0  0
    0.6560    1.5790    1.7602 H   0  0  0  0  0  0  0  0  0  0  0  0
   -1.6962    0.0932    1.8848 H   0  0  0  0  0  0  0  0  0  0  0  0
   -0.5740   -1.3495    1.6399 H   0  0  0  0  0  0  0  0  0  0  0  0
   -2.8036   -2.0791    0.5587 H   0  0  0  0  0  0  0  0  0  0  0  0
   -3.0189   -0.8009   -1.6670 H   0  0  0  0  0  0  0  0  0  0  0  0
   -1.9348    1.5105   -0.5996 H   0  0  0  0  0  0  0  0  0  0  0  0
   -0.8798    0.7536   -1.8654 H   0  0  0  0  0  0  0  0  0  0  0  0
  1  2  1  0
  2  3  1  0
  3  4  1  0
  4  5  1  0
  5  6  1  0
  6  7  1  0
  7  8  2  0
  8  9  1  0
  5  3  1  0
  9  5  1  0
  1 10  1  0
  1 11  1  0
  1 12  1  0
  3 13  1  0
  4 14  1  0
  4 15  1  0
  6 16  1  0
  6 17  1  0
  7 18  1  0
  8 19  1  0
  9 20  1  0
  9 21  1  0
M  END
