
     RDKit          3D

 20 21  0  0  0  0  0  0  0  0999 V2000
    2.5905    0.4781   -0.5187 C   0  0  0  0  0  0  0  0  0  0  0  0
    1.3963   -0.1573   -0.9279 O   0  0  0  0  0  0  0  0  0  0  0  0
    0.5916   -0.2227    0.1732 C   0  0  0  0  0  0  0  0  0  0  0  0
   -0.1775   -1.4968    0.3897 C   0  0  0  0  0  0  0  0  0  0  0  0
   -1.0835   -0.6411    1.2494 C   0  0  0  0  0  0  0  0  0  0  0  0
   -0.8377    0.1948    0.0172 C   0  0  0  0  0  0  0  0  0  0  0  0
   -1.3417    1.4313   -0.2633 C   0  0  0  0  0  0  0  0  0  0  0  0
   -1.0450   -1.0846   -0.7538 C   0  0  0  0  0  0  0  0  0  0  0  0
    3.0448   -0.1495    0.2925 H   0  0  0  0  0  0  0  0  0  0  0  0
    3.3049    0.5939   -1.3330 H   0  0  0  0  0  0  0  0  0  0  0  0
    2.3156    1.4421   -0.0212 H   0  0  0  0  0  0  0  0  0  0  0  0
    1.0025    0.2085    1.1216 H   0  0  0  0  0  0  0  0  0  0  0  0
    0.1814   -2.3992    0.6164 H   0  0  0  0  0  0  0  0  0  0  0  0
   -0.6162   -0.1826    2.1310 H   0  0  0  0  0  0  0  0  0  0  0  0
   -2.1083   -1.0207    1.3646 H   0  0  0  0  0  0  0  0  0  0  0  0
   -2.2423    1.4224   -0.9361 H   0  0  0  0  0  0  0  0  0  0  0  0
   -0.6217    2.1168   -0.7988 H   0  0  0  0  0  0  0  0  0  0  0  0
   -1.6677    2.0236    0.6241 H   0  0  0  0  0  0  0  0  0  0  0  0
   -2.0850   -1.4415   -0.6695 H   0  0  0  0  0  0  0  0  0  0  0  0
   -0.6008   -1.1156   -1.7573 H   0  0  0  0  0  0  0  0  0  0  0  0
  1  2  1  0
  2  3  1  0
  3  4  1  0
  4  5  1  0
  5  6  1  0
  6  7  1  0
  6  8  1  0
  6  3  1  0
  8  4  1  0
  1  9  1  0
  1 10  1  0
  1 11  1  0
  3 12  1  0
  4 13  1  0
  5 14  1  0
  5 15  1  0
  7 16  1  0
  7 17  1  0
  7 18  1  0
  8 19  1  0
  8 20  1  0
M  END
