
     RDKit          3D

 21 22  0  0  0  0  0  0  0  0999 V2000
    3.0357   -0.1852   -0.2231 C   0  0  0  0  0  0  0  0  0  0  0  0
    1.6941   -0.3925   -0.4742 O   0  0  0  0  0  0  0  0  0  0  0  0
    0.9035    0.1161    0.5741 C   0  0  0  0  0  0  0  0  0  0  0  0
   -0.4416   -0.4093    0.8209 C   0  0  0  0  0  0  0  0  0  0  0  0
   -1.0836   -1.0233   -0.4148 C   0  0  0  0  0  0  0  0  0  0  0  0
   -2.4148   -1.6443   -0.2156 C   0  0  0  0  0  0  0  0  0  0  0  0
   -1.0673    0.2641   -0.9562 O   0  0  0  0  0  0  0  0  0  0  0  0
   -0.3240    0.8230    0.0558 C   0  0  0  0  0  0  0  0  0  0  0  0
   -0.5577    2.1865    0.5644 C   0  0  0  0  0  0  0  0  0  0  0  0
    3.1946    0.9089   -0.1309 H   0  0  0  0  0  0  0  0  0  0  0  0
    3.6031   -0.5563   -1.0990 H   0  0  0  0  0  0  0  0  0  0  0  0
    3.3238   -0.7591    0.6536 H   0  0  0  0  0  0  0  0  0  0  0  0
    1.4303    0.5805    1.3989 H   0  0  0  0  0  0  0  0  0  0  0  0
   -0.8991   -0.5292    1.7926 H   0  0  0  0  0  0  0  0  0  0  0  0
   -0.3351   -1.6829   -0.9064 H   0  0  0  0  0  0  0  0  0  0  0  0
   -2.2662   -2.7629   -0.1827 H   0  0  0  0  0  0  0  0  0  0  0  0
   -3.1066   -1.4002   -1.0688 H   0  0  0  0  0  0  0  0  0  0  0  0
   -2.9499   -1.3353    0.6972 H   0  0  0  0  0  0  0  0  0  0  0  0
    0.4171    2.6503    0.8890 H   0  0  0  0  0  0  0  0  0  0  0  0
   -1.2407    2.2872    1.4029 H   0  0  0  0  0  0  0  0  0  0  0  0
   -0.9157    2.8639   -0.2604 H   0  0  0  0  0  0  0  0  0  0  0  0
  1  2  1  0
  2  3  1  0
  3  4  1  0
  4  5  1  0
  5  6  1  0
  5  7  1  0
  7  8  1  0
  8  9  1  0
  8  3  1  0
  8  4  1  0
  1 10  1  0
  1 11  1  0
  1 12  1  0
  3 13  1  0
  4 14  1  0
  5 15  1  0
  6 16  1  0
  6 17  1  0
  6 18  1  0
  9 19  1  0
  9 20  1  0
  9 21  1  0
M  END
