
     RDKit          3D

 23 23  0  0  0  0  0  0  0  0999 V2000
    2.9514    0.2126   -0.5885 C   0  0  0  0  0  0  0  0  0  0  0  0
    1.6951   -0.2027   -1.0148 O   0  0  0  0  0  0  0  0  0  0  0  0
    0.8149   -0.1010    0.0296 C   0  0  0  0  0  0  0  0  0  0  0  0
   -0.4836    0.6285   -0.3405 C   0  0  0  0  0  0  0  0  0  0  0  0
   -0.4310    2.0335    0.1755 C   0  0  0  0  0  0  0  0  0  0  0  0
   -1.2021   -0.3685    0.5457 C   0  0  0  0  0  0  0  0  0  0  0  0
   -2.4551   -0.9568   -0.0115 C   0  0  0  0  0  0  0  0  0  0  0  0
   -0.0263   -1.3261    0.3077 C   0  0  0  0  0  0  0  0  0  0  0  0
   -0.1882   -2.0984   -0.8488 O   0  0  0  0  0  0  0  0  0  0  0  0
    3.6401    0.1152   -1.4666 H   0  0  0  0  0  0  0  0  0  0  0  0
    3.2582   -0.4877    0.2260 H   0  0  0  0  0  0  0  0  0  0  0  0
    2.9588    1.2220   -0.1586 H   0  0  0  0  0  0  0  0  0  0  0  0
    1.2589    0.2731    0.9582 H   0  0  0  0  0  0  0  0  0  0  0  0
   -0.7430    0.5529   -1.4022 H   0  0  0  0  0  0  0  0  0  0  0  0
   -0.9985    2.1183    1.1235 H   0  0  0  0  0  0  0  0  0  0  0  0
    0.6165    2.3661    0.4218 H   0  0  0  0  0  0  0  0  0  0  0  0
   -0.7987    2.7811   -0.5766 H   0  0  0  0  0  0  0  0  0  0  0  0
   -1.2304   -0.0407    1.5993 H   0  0  0  0  0  0  0  0  0  0  0  0
   -2.9801   -0.2952   -0.7327 H   0  0  0  0  0  0  0  0  0  0  0  0
   -3.1581   -1.1105    0.8575 H   0  0  0  0  0  0  0  0  0  0  0  0
   -2.3190   -1.9480   -0.4709 H   0  0  0  0  0  0  0  0  0  0  0  0
    0.2162   -1.8812    1.2115 H   0  0  0  0  0  0  0  0  0  0  0  0
   -0.3960   -1.4865   -1.5956 H   0  0  0  0  0  0  0  0  0  0  0  0
  1  2  1  0
  2  3  1  0
  3  4  1  0
  4  5  1  0
  4  6  1  0
  6  7  1  0
  6  8  1  0
  8  9  1  0
  8  3  1  0
  1 10  1  0
  1 11  1  0
  1 12  1  0
  3 13  1  0
  4 14  1  0
  5 15  1  0
  5 16  1  0
  5 17  1  0
  6 18  1  0
  7 19  1  0
  7 20  1  0
  7 21  1  0
  8 22  1  0
  9 23  1  0
M  END
