
     RDKit          3D

 21 21  0  0  0  0  0  0  0  0999 V2000
    3.1765   -0.4137    0.1456 C   0  0  0  0  0  0  0  0  0  0  0  0
    2.0576    0.3557    0.1165 O   0  0  0  0  0  0  0  0  0  0  0  0
    0.8522   -0.2233    0.1792 C   0  0  0  0  0  0  0  0  0  0  0  0
   -0.2208    0.2549    1.0579 C   0  0  0  0  0  0  0  0  0  0  0  0
   -1.1928    0.1400   -0.0987 C   0  0  0  0  0  0  0  0  0  0  0  0
   -2.0963    1.3381   -0.2284 C   0  0  0  0  0  0  0  0  0  0  0  0
   -1.9460   -1.1299   -0.1553 C   0  0  0  0  0  0  0  0  0  0  0  0
   -2.3812   -1.6134    0.8958 O   0  0  0  0  0  0  0  0  0  0  0  0
   -0.0138    0.1055   -1.0263 C   0  0  0  0  0  0  0  0  0  0  0  0
    3.1446   -1.1132   -0.7348 H   0  0  0  0  0  0  0  0  0  0  0  0
    4.0590    0.2365   -0.0357 H   0  0  0  0  0  0  0  0  0  0  0  0
    3.3361   -1.0153    1.0380 H   0  0  0  0  0  0  0  0  0  0  0  0
    0.9414   -1.3479    0.2527 H   0  0  0  0  0  0  0  0  0  0  0  0
   -0.2102    1.2627    1.4550 H   0  0  0  0  0  0  0  0  0  0  0  0
   -0.5524   -0.4626    1.8607 H   0  0  0  0  0  0  0  0  0  0  0  0
   -2.7938    1.3105    0.6425 H   0  0  0  0  0  0  0  0  0  0  0  0
   -1.5272    2.2871   -0.1377 H   0  0  0  0  0  0  0  0  0  0  0  0
   -2.6371    1.3121   -1.1803 H   0  0  0  0  0  0  0  0  0  0  0  0
   -2.1495   -1.6814   -1.0730 H   0  0  0  0  0  0  0  0  0  0  0  0
    0.1774    1.1081   -1.4663 H   0  0  0  0  0  0  0  0  0  0  0  0
   -0.0238   -0.7106   -1.7874 H   0  0  0  0  0  0  0  0  0  0  0  0
  1  2  1  0
  2  3  1  0
  3  4  1  0
  4  5  1  0
  5  6  1  0
  5  7  1  0
  7  8  2  0
  5  9  1  0
  9  3  1  0
  1 10  1  0
  1 11  1  0
  1 12  1  0
  3 13  1  0
  4 14  1  0
  4 15  1  0
  6 16  1  0
  6 17  1  0
  6 18  1  0
  7 19  1  0
  9 20  1  0
  9 21  1  0
M  END
