
     RDKit          3D

 21 22  0  0  0  0  0  0  0  0999 V2000
    2.9779   -0.0606    0.4307 C   0  0  0  0  0  0  0  0  0  0  0  0
    1.6564    0.2760    0.6224 O   0  0  0  0  0  0  0  0  0  0  0  0
    0.8199   -0.0657   -0.4115 C   0  0  0  0  0  0  0  0  0  0  0  0
    0.0129    1.0941   -0.9353 C   0  0  0  0  0  0  0  0  0  0  0  0
   -1.0642    1.1751    0.1571 C   0  0  0  0  0  0  0  0  0  0  0  0
   -1.4998   -0.2703    0.1458 C   0  0  0  0  0  0  0  0  0  0  0  0
   -2.6683   -0.6272   -0.5955 C   0  0  0  0  0  0  0  0  0  0  0  0
   -2.5805   -0.6671    0.8969 O   0  0  0  0  0  0  0  0  0  0  0  0
   -0.2183   -1.0231    0.1359 C   0  0  0  0  0  0  0  0  0  0  0  0
    3.0170   -1.1782    0.3020 H   0  0  0  0  0  0  0  0  0  0  0  0
    3.5125    0.1802    1.3858 H   0  0  0  0  0  0  0  0  0  0  0  0
    3.4449    0.3710   -0.4476 H   0  0  0  0  0  0  0  0  0  0  0  0
    1.3121   -0.5646   -1.2608 H   0  0  0  0  0  0  0  0  0  0  0  0
    0.5650    2.0189   -1.0479 H   0  0  0  0  0  0  0  0  0  0  0  0
   -0.4865    0.7905   -1.8565 H   0  0  0  0  0  0  0  0  0  0  0  0
   -1.8551    1.8769   -0.1139 H   0  0  0  0  0  0  0  0  0  0  0  0
   -0.5095    1.4470    1.0837 H   0  0  0  0  0  0  0  0  0  0  0  0
   -2.8379   -1.6441   -1.0136 H   0  0  0  0  0  0  0  0  0  0  0  0
   -3.3477    0.1931   -0.9384 H   0  0  0  0  0  0  0  0  0  0  0  0
   -0.2677   -1.9675   -0.4736 H   0  0  0  0  0  0  0  0  0  0  0  0
    0.0169   -1.3543    1.1656 H   0  0  0  0  0  0  0  0  0  0  0  0
  1  2  1  0
  2  3  1  0
  3  4  1  0
  4  5  1  0
  5  6  1  0
  6  7  1  0
  7  8  1  0
  6  9  1  0
  9  3  1  0
  8  6  1  0
  1 10  1  0
  1 11  1  0
  1 12  1  0
  3 13  1  0
  4 14  1  0
  4 15  1  0
  5 16  1  0
  5 17  1  0
  7 18  1  0
  7 19  1  0
  9 20  1  0
  9 21  1  0
M  END
