
     RDKit          3D

 21 21  0  0  0  0  0  0  0  0999 V2000
    2.3203   -0.4294    0.8899 C   0  0  0  0  0  0  0  0  0  0  0  0
    0.9413   -0.2919    0.8153 O   0  0  0  0  0  0  0  0  0  0  0  0
    0.5810    0.4884   -0.2881 C   0  0  0  0  0  0  0  0  0  0  0  0
   -0.2754    1.6234    0.2609 C   0  0  0  0  0  0  0  0  0  0  0  0
   -1.6136    1.3795    0.1824 O   0  0  0  0  0  0  0  0  0  0  0  0
   -2.0261    0.1450    0.5932 C   0  0  0  0  0  0  0  0  0  0  0  0
   -1.3177   -1.0030   -0.0849 C   0  0  0  0  0  0  0  0  0  0  0  0
   -0.3738   -0.3764   -1.1132 C   0  0  0  0  0  0  0  0  0  0  0  0
    0.3171   -1.3647   -1.7709 O   0  0  0  0  0  0  0  0  0  0  0  0
    2.5223   -1.0621    1.7928 H   0  0  0  0  0  0  0  0  0  0  0  0
    2.7626    0.5726    1.0286 H   0  0  0  0  0  0  0  0  0  0  0  0
    2.7459   -0.9887    0.0340 H   0  0  0  0  0  0  0  0  0  0  0  0
    1.4297    0.8379   -0.8745 H   0  0  0  0  0  0  0  0  0  0  0  0
   -0.0492    2.5106   -0.3814 H   0  0  0  0  0  0  0  0  0  0  0  0
    0.0733    1.9150    1.2850 H   0  0  0  0  0  0  0  0  0  0  0  0
   -2.0007   -0.0193    1.6866 H   0  0  0  0  0  0  0  0  0  0  0  0
   -3.1142    0.0479    0.3086 H   0  0  0  0  0  0  0  0  0  0  0  0
   -0.6391   -1.5522    0.6243 H   0  0  0  0  0  0  0  0  0  0  0  0
   -2.0042   -1.7071   -0.5699 H   0  0  0  0  0  0  0  0  0  0  0  0
   -0.9582    0.2906   -1.7859 H   0  0  0  0  0  0  0  0  0  0  0  0
    0.6787   -1.0161   -2.6325 H   0  0  0  0  0  0  0  0  0  0  0  0
  1  2  1  0
  2  3  1  0
  3  4  1  0
  4  5  1  0
  5  6  1  0
  6  7  1  0
  7  8  1  0
  8  9  1  0
  8  3  1  0
  1 10  1  0
  1 11  1  0
  1 12  1  0
  3 13  1  0
  4 14  1  0
  4 15  1  0
  6 16  1  0
  6 17  1  0
  7 18  1  0
  7 19  1  0
  8 20  1  0
  9 21  1  0
M  END
