
     RDKit          3D

 21 22  0  0  0  0  0  0  0  0999 V2000
    3.2775    0.5414   -0.4058 C   0  0  0  0  0  0  0  0  0  0  0  0
    2.2707   -0.2545    0.1406 O   0  0  0  0  0  0  0  0  0  0  0  0
    1.0180    0.2784   -0.0336 C   0  0  0  0  0  0  0  0  0  0  0  0
    0.1413    0.2838    1.2276 C   0  0  0  0  0  0  0  0  0  0  0  0
   -0.9383   -0.2972    0.4103 C   0  0  0  0  0  0  0  0  0  0  0  0
    0.0657   -0.8018   -0.5698 C   0  0  0  0  0  0  0  0  0  0  0  0
   -2.0874   -1.0266    0.8846 C   0  0  0  0  0  0  0  0  0  0  0  0
   -2.2093    0.2870    0.0950 C   0  0  0  0  0  0  0  0  0  0  0  0
   -2.8403    0.1479   -1.1433 O   0  0  0  0  0  0  0  0  0  0  0  0
    4.2607    0.0698   -0.2393 H   0  0  0  0  0  0  0  0  0  0  0  0
    3.2798    1.5003    0.1553 H   0  0  0  0  0  0  0  0  0  0  0  0
    3.1544    0.7169   -1.4842 H   0  0  0  0  0  0  0  0  0  0  0  0
    0.9605    1.2327   -0.5629 H   0  0  0  0  0  0  0  0  0  0  0  0
    0.5163   -0.3668    2.0373 H   0  0  0  0  0  0  0  0  0  0  0  0
   -0.0929    1.3088    1.5965 H   0  0  0  0  0  0  0  0  0  0  0  0
   -0.1721   -0.6930   -1.6398 H   0  0  0  0  0  0  0  0  0  0  0  0
    0.4098   -1.8201   -0.2692 H   0  0  0  0  0  0  0  0  0  0  0  0
   -2.3626   -1.9648    0.3478 H   0  0  0  0  0  0  0  0  0  0  0  0
   -2.4046   -0.9493    1.9530 H   0  0  0  0  0  0  0  0  0  0  0  0
   -2.5395    1.1843    0.6815 H   0  0  0  0  0  0  0  0  0  0  0  0
   -3.7076    0.6229   -1.1558 H   0  0  0  0  0  0  0  0  0  0  0  0
  1  2  1  0
  2  3  1  0
  3  4  1  0
  4  5  1  0
  5  6  1  0
  5  7  1  0
  7  8  1  0
  8  9  1  0
  6  3  1  0
  8  5  1  0
  1 10  1  0
  1 11  1  0
  1 12  1  0
  3 13  1  0
  4 14  1  0
  4 15  1  0
  6 16  1  0
  6 17  1  0
  7 18  1  0
  7 19  1  0
  8 20  1  0
  9 21  1  0
M  END
