
     RDKit          3D

 15 16  0  0  0  0  0  0  0  0999 V2000
    2.3841    0.1141   -0.6217 C   0  0  0  0  0  0  0  0  0  0  0  0
    1.0256    0.0925   -1.0140 O   0  0  0  0  0  0  0  0  0  0  0  0
    0.2315    0.2479    0.0981 C   0  0  0  0  0  0  0  0  0  0  0  0
   -0.6565    1.3646   -0.0600 O   0  0  0  0  0  0  0  0  0  0  0  0
   -1.8849    1.0092    0.5258 C   0  0  0  0  0  0  0  0  0  0  0  0
   -2.6791    1.8071    1.0407 O   0  0  0  0  0  0  0  0  0  0  0  0
   -1.9758   -0.4824    0.3749 C   0  0  0  0  0  0  0  0  0  0  0  0
   -1.3556   -1.1528    1.4363 O   0  0  0  0  0  0  0  0  0  0  0  0
   -0.7080   -0.9592    0.1574 C   0  0  0  0  0  0  0  0  0  0  0  0
    2.5763    1.1026   -0.1355 H   0  0  0  0  0  0  0  0  0  0  0  0
    2.9838   -0.0124   -1.5524 H   0  0  0  0  0  0  0  0  0  0  0  0
    2.4963   -0.7334    0.0804 H   0  0  0  0  0  0  0  0  0  0  0  0
    0.8077    0.3538    1.0359 H   0  0  0  0  0  0  0  0  0  0  0  0
   -2.9262   -0.8423   -0.0244 H   0  0  0  0  0  0  0  0  0  0  0  0
   -0.3191   -1.9092   -0.2157 H   0  0  0  0  0  0  0  0  0  0  0  0
  1  2  1  0
  2  3  1  0
  3  4  1  0
  4  5  1  0
  5  6  2  0
  5  7  1  0
  7  8  1  0
  8  9  1  0
  9  3  1  0
  9  7  1  0
  1 10  1  0
  1 11  1  0
  1 12  1  0
  3 13  1  0
  7 14  1  0
  9 15  1  0
M  END
