
     RDKit          3D

 23 23  0  0  0  0  0  0  0  0999 V2000
    2.5300   -0.3927    0.3005 C   0  0  0  0  0  0  0  0  0  0  0  0
    1.2139   -0.6233    0.6814 O   0  0  0  0  0  0  0  0  0  0  0  0
    0.3576    0.2208   -0.0293 C   0  0  0  0  0  0  0  0  0  0  0  0
    0.7200    1.6557    0.2756 C   0  0  0  0  0  0  0  0  0  0  0  0
    0.4828   -0.0152   -1.3656 O   0  0  0  0  0  0  0  0  0  0  0  0
   -0.7601   -0.0777   -1.9441 C   0  0  0  0  0  0  0  0  0  0  0  0
   -1.6306   -0.7115   -0.8545 C   0  0  0  0  0  0  0  0  0  0  0  0
   -1.0685    0.0083    0.3733 C   0  0  0  0  0  0  0  0  0  0  0  0
   -1.2392   -0.8644    1.5695 C   0  0  0  0  0  0  0  0  0  0  0  0
    2.8707    0.6366    0.4811 H   0  0  0  0  0  0  0  0  0  0  0  0
    2.7011   -0.6051   -0.7878 H   0  0  0  0  0  0  0  0  0  0  0  0
    3.2056   -1.0600    0.8728 H   0  0  0  0  0  0  0  0  0  0  0  0
    1.2523    2.1431   -0.5792 H   0  0  0  0  0  0  0  0  0  0  0  0
    1.3238    1.7587    1.1944 H   0  0  0  0  0  0  0  0  0  0  0  0
   -0.1938    2.2749    0.4383 H   0  0  0  0  0  0  0  0  0  0  0  0
   -1.2170    0.9054   -2.1574 H   0  0  0  0  0  0  0  0  0  0  0  0
   -0.7774   -0.7285   -2.8465 H   0  0  0  0  0  0  0  0  0  0  0  0
   -1.4441   -1.8106   -0.7855 H   0  0  0  0  0  0  0  0  0  0  0  0
   -2.6817   -0.4431   -0.9510 H   0  0  0  0  0  0  0  0  0  0  0  0
   -1.6184    0.9726    0.4479 H   0  0  0  0  0  0  0  0  0  0  0  0
   -0.4881   -0.6624    2.3503 H   0  0  0  0  0  0  0  0  0  0  0  0
   -1.2887   -1.9545    1.3061 H   0  0  0  0  0  0  0  0  0  0  0  0
   -2.2501   -0.6269    2.0097 H   0  0  0  0  0  0  0  0  0  0  0  0
  1  2  1  0
  2  3  1  0
  3  4  1  0
  3  5  1  0
  5  6  1  0
  6  7  1  0
  7  8  1  0
  8  9  1  0
  8  3  1  0
  1 10  1  0
  1 11  1  0
  1 12  1  0
  4 13  1  0
  4 14  1  0
  4 15  1  0
  6 16  1  0
  6 17  1  0
  7 18  1  0
  7 19  1  0
  8 20  1  0
  9 21  1  0
  9 22  1  0
  9 23  1  0
M  END
