
     RDKit          3D

 17 17  0  0  0  0  0  0  0  0999 V2000
    2.6275   -0.5467    0.0428 C   0  0  0  0  0  0  0  0  0  0  0  0
    1.7406    0.0413   -0.8570 O   0  0  0  0  0  0  0  0  0  0  0  0
    0.4829    0.0031   -0.3104 C   0  0  0  0  0  0  0  0  0  0  0  0
   -0.4313   -0.7174   -1.0787 O   0  0  0  0  0  0  0  0  0  0  0  0
   -1.5577   -0.9849   -0.2655 C   0  0  0  0  0  0  0  0  0  0  0  0
   -2.2312    0.2610    0.1327 C   0  0  0  0  0  0  0  0  0  0  0  0
   -1.5118    1.3832    0.2060 C   0  0  0  0  0  0  0  0  0  0  0  0
   -0.0939    1.3495   -0.1060 C   0  0  0  0  0  0  0  0  0  0  0  0
    0.5534    2.4090   -0.1861 O   0  0  0  0  0  0  0  0  0  0  0  0
    2.3515   -1.6140    0.2534 H   0  0  0  0  0  0  0  0  0  0  0  0
    3.6681   -0.5331   -0.2855 H   0  0  0  0  0  0  0  0  0  0  0  0
    2.5526   -0.0183    1.0389 H   0  0  0  0  0  0  0  0  0  0  0  0
    0.4953   -0.4801    0.6951 H   0  0  0  0  0  0  0  0  0  0  0  0
   -2.2327   -1.6905   -0.7997 H   0  0  0  0  0  0  0  0  0  0  0  0
   -1.1284   -1.4392    0.6599 H   0  0  0  0  0  0  0  0  0  0  0  0
   -3.2818    0.2717    0.3610 H   0  0  0  0  0  0  0  0  0  0  0  0
   -2.0032    2.3055    0.4992 H   0  0  0  0  0  0  0  0  0  0  0  0
  1  2  1  0
  2  3  1  0
  3  4  1  0
  4  5  1  0
  5  6  1  0
  6  7  2  0
  7  8  1  0
  8  9  2  0
  8  3  1  0
  1 10  1  0
  1 11  1  0
  1 12  1  0
  3 13  1  0
  5 14  1  0
  5 15  1  0
  6 16  1  0
  7 17  1  0
M  END
