
     RDKit          3D

 19 20  0  0  0  0  0  0  0  0999 V2000
    2.4850    0.2993   -0.8593 C   0  0  0  0  0  0  0  0  0  0  0  0
    1.5907   -0.7591   -0.7776 O   0  0  0  0  0  0  0  0  0  0  0  0
    0.4768   -0.4585   -0.3050 C   0  0  0  0  0  0  0  0  0  0  0  0
    0.1862    0.1161    1.0721 C   0  0  0  0  0  0  0  0  0  0  0  0
   -1.1718    0.0021    0.4221 C   0  0  0  0  0  0  0  0  0  0  0  0
   -2.3654    0.3087    0.9611 C   0  0  0  0  0  0  0  0  0  0  0  0
   -3.4187   -0.2990    0.7057 O   0  0  0  0  0  0  0  0  0  0  0  0
   -0.5172    0.5562   -0.8168 C   0  0  0  0  0  0  0  0  0  0  0  0
   -0.7028   -1.3439   -0.0412 C   0  0  0  0  0  0  0  0  0  0  0  0
    2.6386    0.6822    0.1735 H   0  0  0  0  0  0  0  0  0  0  0  0
    1.9580    1.1111   -1.4352 H   0  0  0  0  0  0  0  0  0  0  0  0
    3.4005   -0.0031   -1.3676 H   0  0  0  0  0  0  0  0  0  0  0  0
    0.5725    1.1280    1.2264 H   0  0  0  0  0  0  0  0  0  0  0  0
    0.3812   -0.6050    1.8941 H   0  0  0  0  0  0  0  0  0  0  0  0
   -2.5270    1.1289    1.6826 H   0  0  0  0  0  0  0  0  0  0  0  0
   -0.2325    1.6036   -0.7342 H   0  0  0  0  0  0  0  0  0  0  0  0
   -0.9947    0.3193   -1.7740 H   0  0  0  0  0  0  0  0  0  0  0  0
   -1.1288   -1.7431   -0.9581 H   0  0  0  0  0  0  0  0  0  0  0  0
   -0.6307   -2.0440    0.7933 H   0  0  0  0  0  0  0  0  0  0  0  0
  1  2  1  0
  2  3  1  0
  3  4  1  0
  4  5  1  0
  5  6  1  0
  6  7  2  0
  5  8  1  0
  5  9  1  0
  8  3  1  0
  9  3  1  0
  1 10  1  0
  1 11  1  0
  1 12  1  0
  4 13  1  0
  4 14  1  0
  6 15  1  0
  8 16  1  0
  8 17  1  0
  9 18  1  0
  9 19  1  0
M  END
