
     RDKit          3D

 23 23  0  0  0  0  0  0  0  0999 V2000
    2.5947    1.2725    0.0272 C   0  0  0  0  0  0  0  0  0  0  0  0
    1.8271    0.2318    0.5028 O   0  0  0  0  0  0  0  0  0  0  0  0
    0.7010   -0.0162   -0.2553 C   0  0  0  0  0  0  0  0  0  0  0  0
    0.0750   -1.3442   -0.3374 C   0  0  0  0  0  0  0  0  0  0  0  0
    0.6559   -2.5627    0.3021 C   0  0  0  0  0  0  0  0  0  0  0  0
   -0.5541   -0.3188    0.5629 C   0  0  0  0  0  0  0  0  0  0  0  0
   -1.8018    0.3881    0.1367 C   0  0  0  0  0  0  0  0  0  0  0  0
   -1.7132    1.8778    0.1866 C   0  0  0  0  0  0  0  0  0  0  0  0
   -2.1567    0.0097   -1.1672 O   0  0  0  0  0  0  0  0  0  0  0  0
    2.9618    1.0769   -1.0224 H   0  0  0  0  0  0  0  0  0  0  0  0
    3.5396    1.2764    0.6459 H   0  0  0  0  0  0  0  0  0  0  0  0
    2.1449    2.2645    0.1385 H   0  0  0  0  0  0  0  0  0  0  0  0
    0.5971    0.6659   -1.1280 H   0  0  0  0  0  0  0  0  0  0  0  0
   -0.5171   -1.5617   -1.2654 H   0  0  0  0  0  0  0  0  0  0  0  0
    0.8485   -2.4540    1.3772 H   0  0  0  0  0  0  0  0  0  0  0  0
    1.5353   -2.9501   -0.2696 H   0  0  0  0  0  0  0  0  0  0  0  0
   -0.1167   -3.3796    0.2060 H   0  0  0  0  0  0  0  0  0  0  0  0
   -0.4214   -0.4844    1.6576 H   0  0  0  0  0  0  0  0  0  0  0  0
   -2.6230    0.0849    0.8500 H   0  0  0  0  0  0  0  0  0  0  0  0
   -1.0902    2.2452    1.0446 H   0  0  0  0  0  0  0  0  0  0  0  0
   -2.7479    2.2968    0.2452 H   0  0  0  0  0  0  0  0  0  0  0  0
   -1.2681    2.3294   -0.7342 H   0  0  0  0  0  0  0  0  0  0  0  0
   -2.4707   -0.9481   -1.1246 H   0  0  0  0  0  0  0  0  0  0  0  0
  1  2  1  0
  2  3  1  0
  3  4  1  0
  4  5  1  0
  4  6  1  0
  6  7  1  0
  7  8  1  0
  7  9  1  0
  6  3  1  0
  1 10  1  0
  1 11  1  0
  1 12  1  0
  3 13  1  0
  4 14  1  0
  5 15  1  0
  5 16  1  0
  5 17  1  0
  6 18  1  0
  7 19  1  0
  8 20  1  0
  8 21  1  0
  8 22  1  0
  9 23  1  0
M  END
