
     RDKit          3D

 21 22  0  0  0  0  0  0  0  0999 V2000
    3.0289   -0.3236   -0.3011 C   0  0  0  0  0  0  0  0  0  0  0  0
    1.8154   -0.0089   -0.9031 O   0  0  0  0  0  0  0  0  0  0  0  0
    0.8190   -0.1102    0.0133 C   0  0  0  0  0  0  0  0  0  0  0  0
   -0.1350    1.0590    0.1059 C   0  0  0  0  0  0  0  0  0  0  0  0
   -0.1420    1.7217   -1.1425 O   0  0  0  0  0  0  0  0  0  0  0  0
   -1.3049    0.1630    0.2193 C   0  0  0  0  0  0  0  0  0  0  0  0
   -2.5131    0.5473   -0.5977 C   0  0  0  0  0  0  0  0  0  0  0  0
   -1.2854   -1.1957    0.7724 C   0  0  0  0  0  0  0  0  0  0  0  0
   -0.3853   -0.9417   -0.3621 C   0  0  0  0  0  0  0  0  0  0  0  0
    3.8808   -0.2537   -1.0192 H   0  0  0  0  0  0  0  0  0  0  0  0
    3.0368   -1.3666    0.0865 H   0  0  0  0  0  0  0  0  0  0  0  0
    3.2352    0.3329    0.5854 H   0  0  0  0  0  0  0  0  0  0  0  0
    1.1991   -0.4140    1.0069 H   0  0  0  0  0  0  0  0  0  0  0  0
    0.1026    1.7282    0.9407 H   0  0  0  0  0  0  0  0  0  0  0  0
    0.6824    1.5507   -1.6517 H   0  0  0  0  0  0  0  0  0  0  0  0
   -2.2742    1.3800   -1.3056 H   0  0  0  0  0  0  0  0  0  0  0  0
   -3.3133    0.8883    0.1195 H   0  0  0  0  0  0  0  0  0  0  0  0
   -2.9182   -0.3247   -1.1633 H   0  0  0  0  0  0  0  0  0  0  0  0
   -2.1471   -1.8344    0.5949 H   0  0  0  0  0  0  0  0  0  0  0  0
   -0.7715   -1.4224    1.7478 H   0  0  0  0  0  0  0  0  0  0  0  0
   -0.6102   -1.1754   -1.3979 H   0  0  0  0  0  0  0  0  0  0  0  0
  1  2  1  0
  2  3  1  0
  3  4  1  0
  4  5  1  0
  4  6  1  0
  6  7  1  0
  6  8  1  0
  8  9  1  0
  9  3  1  0
  9  6  1  0
  1 10  1  0
  1 11  1  0
  1 12  1  0
  3 13  1  0
  4 14  1  0
  5 15  1  0
  7 16  1  0
  7 17  1  0
  7 18  1  0
  8 19  1  0
  8 20  1  0
  9 21  1  0
M  END
