
     RDKit          3D

 23 24  0  0  0  0  0  0  0  0999 V2000
    2.9379    0.9131    0.1135 C   0  0  0  0  0  0  0  0  0  0  0  0
    1.5811    0.6335    0.0758 O   0  0  0  0  0  0  0  0  0  0  0  0
    1.2936   -0.6910   -0.1420 C   0  0  0  0  0  0  0  0  0  0  0  0
    0.3035   -0.7259   -1.3107 C   0  0  0  0  0  0  0  0  0  0  0  0
   -0.7421    0.2193   -0.7573 C   0  0  0  0  0  0  0  0  0  0  0  0
   -1.9263   -0.2805   -0.0452 C   0  0  0  0  0  0  0  0  0  0  0  0
   -3.0384    0.7375    0.1639 C   0  0  0  0  0  0  0  0  0  0  0  0
   -0.7189   -0.0195    0.7706 C   0  0  0  0  0  0  0  0  0  0  0  0
    0.3210   -1.1137    0.9689 C   0  0  0  0  0  0  0  0  0  0  0  0
    3.0271    2.0157    0.2958 H   0  0  0  0  0  0  0  0  0  0  0  0
    3.3316    0.4472    1.0626 H   0  0  0  0  0  0  0  0  0  0  0  0
    3.4954    0.5738   -0.7589 H   0  0  0  0  0  0  0  0  0  0  0  0
    2.1230   -1.3582   -0.2579 H   0  0  0  0  0  0  0  0  0  0  0  0
   -0.0901   -1.7477   -1.4688 H   0  0  0  0  0  0  0  0  0  0  0  0
    0.8288   -0.3242   -2.1869 H   0  0  0  0  0  0  0  0  0  0  0  0
   -0.6577    1.2700   -1.0902 H   0  0  0  0  0  0  0  0  0  0  0  0
   -2.2775   -1.3003   -0.2524 H   0  0  0  0  0  0  0  0  0  0  0  0
   -3.2382    0.7386    1.2715 H   0  0  0  0  0  0  0  0  0  0  0  0
   -2.7027    1.7677   -0.1053 H   0  0  0  0  0  0  0  0  0  0  0  0
   -3.9305    0.5056   -0.4265 H   0  0  0  0  0  0  0  0  0  0  0  0
   -0.6380    0.8878    1.3762 H   0  0  0  0  0  0  0  0  0  0  0  0
   -0.1040   -2.1134    0.7639 H   0  0  0  0  0  0  0  0  0  0  0  0
    0.8215   -1.0355    1.9393 H   0  0  0  0  0  0  0  0  0  0  0  0
  1  2  1  0
  2  3  1  0
  3  4  1  0
  4  5  1  0
  5  6  1  0
  6  7  1  0
  6  8  1  0
  8  9  1  0
  9  3  1  0
  8  5  1  0
  1 10  1  0
  1 11  1  0
  1 12  1  0
  3 13  1  0
  4 14  1  0
  4 15  1  0
  5 16  1  0
  6 17  1  0
  7 18  1  0
  7 19  1  0
  7 20  1  0
  8 21  1  0
  9 22  1  0
  9 23  1  0
M  END
