
     RDKit          3D

 18 18  0  0  0  0  0  0  0  0999 V2000
   -2.1507   -1.1827    0.8040 C   0  0  0  0  0  0  0  0  0  0  0  0
   -1.1329   -0.2951    1.1428 O   0  0  0  0  0  0  0  0  0  0  0  0
   -0.5819    0.1994   -0.0051 C   0  0  0  0  0  0  0  0  0  0  0  0
   -0.7759    1.5744   -0.0689 O   0  0  0  0  0  0  0  0  0  0  0  0
    0.2900    2.0793   -0.7859 C   0  0  0  0  0  0  0  0  0  0  0  0
    1.4067    1.1428   -0.5677 C   0  0  0  0  0  0  0  0  0  0  0  0
    0.8771    0.0250   -0.1023 C   0  0  0  0  0  0  0  0  0  0  0  0
    1.6706   -1.2120    0.2610 C   0  0  0  0  0  0  0  0  0  0  0  0
   -1.6856   -2.0012    0.1976 H   0  0  0  0  0  0  0  0  0  0  0  0
   -2.6044   -1.6388    1.7195 H   0  0  0  0  0  0  0  0  0  0  0  0
   -2.9274   -0.6812    0.1966 H   0  0  0  0  0  0  0  0  0  0  0  0
   -1.0797   -0.2269   -0.9142 H   0  0  0  0  0  0  0  0  0  0  0  0
    0.5741    3.0487   -0.2888 H   0  0  0  0  0  0  0  0  0  0  0  0
    0.0724    2.2870   -1.8419 H   0  0  0  0  0  0  0  0  0  0  0  0
    2.4903    1.3256   -0.7531 H   0  0  0  0  0  0  0  0  0  0  0  0
    2.0217   -1.1433    1.3023 H   0  0  0  0  0  0  0  0  0  0  0  0
    0.9830   -2.0570    0.1061 H   0  0  0  0  0  0  0  0  0  0  0  0
    2.5525   -1.2439   -0.4021 H   0  0  0  0  0  0  0  0  0  0  0  0
  1  2  1  0
  2  3  1  0
  3  4  1  0
  4  5  1  0
  5  6  1  0
  6  7  2  0
  7  8  1  0
  7  3  1  0
  1  9  1  0
  1 10  1  0
  1 11  1  0
  3 12  1  0
  5 13  1  0
  5 14  1  0
  6 15  1  0
  8 16  1  0
  8 17  1  0
  8 18  1  0
M  END
