
     RDKit          3D

 19 20  0  0  0  0  0  0  0  0999 V2000
    2.8019   -0.5284   -0.1409 C   0  0  0  0  0  0  0  0  0  0  0  0
    1.6230   -0.3867   -0.8699 O   0  0  0  0  0  0  0  0  0  0  0  0
    0.5647   -0.0778   -0.0179 C   0  0  0  0  0  0  0  0  0  0  0  0
    0.1096    1.2871   -0.3573 C   0  0  0  0  0  0  0  0  0  0  0  0
   -1.1603    1.6599   -0.3639 C   0  0  0  0  0  0  0  0  0  0  0  0
   -2.2364    0.7247   -0.0270 C   0  0  0  0  0  0  0  0  0  0  0  0
   -2.6434   -0.1848   -1.0652 O   0  0  0  0  0  0  0  0  0  0  0  0
   -1.8889   -0.6070    0.1467 C   0  0  0  0  0  0  0  0  0  0  0  0
   -0.5281   -1.1069   -0.1165 C   0  0  0  0  0  0  0  0  0  0  0  0
    3.6630   -0.7708   -0.7605 H   0  0  0  0  0  0  0  0  0  0  0  0
    2.6696   -1.3437    0.6247 H   0  0  0  0  0  0  0  0  0  0  0  0
    3.0448    0.3885    0.4479 H   0  0  0  0  0  0  0  0  0  0  0  0
    0.9632   -0.0306    1.0174 H   0  0  0  0  0  0  0  0  0  0  0  0
    0.8726    2.0123   -0.6132 H   0  0  0  0  0  0  0  0  0  0  0  0
   -1.4100    2.6808   -0.6246 H   0  0  0  0  0  0  0  0  0  0  0  0
   -3.1488    1.1353    0.4907 H   0  0  0  0  0  0  0  0  0  0  0  0
   -2.5824   -1.3173    0.6874 H   0  0  0  0  0  0  0  0  0  0  0  0
   -0.2850   -1.8988    0.6512 H   0  0  0  0  0  0  0  0  0  0  0  0
   -0.4292   -1.6359   -1.1012 H   0  0  0  0  0  0  0  0  0  0  0  0
  1  2  1  0
  2  3  1  0
  3  4  1  0
  4  5  2  0
  5  6  1  0
  6  7  1  0
  7  8  1  0
  8  9  1  0
  9  3  1  0
  8  6  1  0
  1 10  1  0
  1 11  1  0
  1 12  1  0
  3 13  1  0
  4 14  1  0
  5 15  1  0
  6 16  1  0
  8 17  1  0
  9 18  1  0
  9 19  1  0
M  END
