
     RDKit          3D

 19 20  0  0  0  0  0  0  0  0999 V2000
    2.7377   -0.8656    0.0069 C   0  0  0  0  0  0  0  0  0  0  0  0
    1.4434   -1.0405   -0.4650 O   0  0  0  0  0  0  0  0  0  0  0  0
    0.5935   -0.2238    0.2287 C   0  0  0  0  0  0  0  0  0  0  0  0
   -0.8209   -0.5659    0.4839 C   0  0  0  0  0  0  0  0  0  0  0  0
   -1.3502   -0.3033    1.7135 O   0  0  0  0  0  0  0  0  0  0  0  0
   -1.7387   -1.0491   -0.5944 C   0  0  0  0  0  0  0  0  0  0  0  0
   -1.1190   -0.2559   -1.5582 O   0  0  0  0  0  0  0  0  0  0  0  0
   -0.4991    0.4351   -0.5272 C   0  0  0  0  0  0  0  0  0  0  0  0
   -0.6838    1.8997   -0.3584 C   0  0  0  0  0  0  0  0  0  0  0  0
    3.4496   -1.5193   -0.5413 H   0  0  0  0  0  0  0  0  0  0  0  0
    2.8174   -1.0761    1.1024 H   0  0  0  0  0  0  0  0  0  0  0  0
    3.0290    0.2100   -0.1549 H   0  0  0  0  0  0  0  0  0  0  0  0
    1.0706    0.4018    1.0072 H   0  0  0  0  0  0  0  0  0  0  0  0
   -2.3266   -0.1839    1.7389 H   0  0  0  0  0  0  0  0  0  0  0  0
   -1.7427   -2.1261   -0.7912 H   0  0  0  0  0  0  0  0  0  0  0  0
   -2.7697   -0.6227   -0.4138 H   0  0  0  0  0  0  0  0  0  0  0  0
   -0.6461    2.1220    0.7399 H   0  0  0  0  0  0  0  0  0  0  0  0
   -1.6081    2.2949   -0.8177 H   0  0  0  0  0  0  0  0  0  0  0  0
    0.1638    2.4688   -0.7994 H   0  0  0  0  0  0  0  0  0  0  0  0
  1  2  1  0
  2  3  1  0
  3  4  1  0
  4  5  1  0
  4  6  1  0
  6  7  1  0
  7  8  1  0
  8  9  1  0
  8  3  1  0
  8  4  1  0
  1 10  1  0
  1 11  1  0
  1 12  1  0
  3 13  1  0
  5 14  1  0
  6 15  1  0
  6 16  1  0
  9 17  1  0
  9 18  1  0
  9 19  1  0
M  END
