
     RDKit          3D

 21 22  0  0  0  0  0  0  0  0999 V2000
    1.7236    1.6625   -0.2129 C   0  0  0  0  0  0  0  0  0  0  0  0
    0.6504    1.0680   -0.9136 O   0  0  0  0  0  0  0  0  0  0  0  0
    0.2297   -0.0142   -0.1918 C   0  0  0  0  0  0  0  0  0  0  0  0
    1.1726   -1.1610    0.1086 C   0  0  0  0  0  0  0  0  0  0  0  0
    0.2320   -2.0530   -0.6711 C   0  0  0  0  0  0  0  0  0  0  0  0
   -0.7889   -0.9621   -0.6952 C   0  0  0  0  0  0  0  0  0  0  0  0
   -1.0981   -0.1081    0.4438 C   0  0  0  0  0  0  0  0  0  0  0  0
   -2.0404    1.0336    0.2206 C   0  0  0  0  0  0  0  0  0  0  0  0
   -1.0794   -0.5970    1.7653 O   0  0  0  0  0  0  0  0  0  0  0  0
    1.3854    1.9840    0.7957 H   0  0  0  0  0  0  0  0  0  0  0  0
    2.5456    0.9285   -0.0438 H   0  0  0  0  0  0  0  0  0  0  0  0
    2.0511    2.5116   -0.8349 H   0  0  0  0  0  0  0  0  0  0  0  0
    1.1577   -1.3978    1.1786 H   0  0  0  0  0  0  0  0  0  0  0  0
    2.1719   -1.0910   -0.3080 H   0  0  0  0  0  0  0  0  0  0  0  0
   -0.0517   -2.9857   -0.1710 H   0  0  0  0  0  0  0  0  0  0  0  0
    0.6410   -2.2037   -1.7059 H   0  0  0  0  0  0  0  0  0  0  0  0
   -1.3215   -0.7829   -1.6681 H   0  0  0  0  0  0  0  0  0  0  0  0
   -2.0852    1.2973   -0.8433 H   0  0  0  0  0  0  0  0  0  0  0  0
   -1.6496    1.9023    0.8222 H   0  0  0  0  0  0  0  0  0  0  0  0
   -3.0611    0.7720    0.6109 H   0  0  0  0  0  0  0  0  0  0  0  0
   -0.7849    0.1968    2.3142 H   0  0  0  0  0  0  0  0  0  0  0  0
  1  2  1  0
  2  3  1  0
  3  4  1  0
  4  5  1  0
  5  6  1  0
  6  7  1  0
  7  8  1  0
  7  9  1  0
  6  3  1  0
  7  3  1  0
  1 10  1  0
  1 11  1  0
  1 12  1  0
  4 13  1  0
  4 14  1  0
  5 15  1  0
  5 16  1  0
  6 17  1  0
  8 18  1  0
  8 19  1  0
  8 20  1  0
  9 21  1  0
M  END
