
     RDKit          3D

 25 25  0  0  0  0  0  0  0  0999 V2000
    3.4793    0.0048   -1.1556 C   0  0  0  0  0  0  0  0  0  0  0  0
    2.5873    0.5887   -0.2451 O   0  0  0  0  0  0  0  0  0  0  0  0
    1.4086   -0.1456   -0.1399 C   0  0  0  0  0  0  0  0  0  0  0  0
    0.9391   -0.2829    1.2977 C   0  0  0  0  0  0  0  0  0  0  0  0
    0.2035    0.5748    0.2512 C   0  0  0  0  0  0  0  0  0  0  0  0
   -1.1866    0.1702   -0.0023 C   0  0  0  0  0  0  0  0  0  0  0  0
   -1.4516   -1.1669    0.6483 C   0  0  0  0  0  0  0  0  0  0  0  0
   -1.5749    0.1196   -1.4583 C   0  0  0  0  0  0  0  0  0  0  0  0
   -2.1653    1.1585    0.6511 C   0  0  0  0  0  0  0  0  0  0  0  0
    3.7534   -1.0228   -0.8436 H   0  0  0  0  0  0  0  0  0  0  0  0
    2.9486   -0.1125   -2.1441 H   0  0  0  0  0  0  0  0  0  0  0  0
    4.3997    0.5871   -1.2625 H   0  0  0  0  0  0  0  0  0  0  0  0
    1.4062   -1.0400   -0.7906 H   0  0  0  0  0  0  0  0  0  0  0  0
    1.4536    0.2880    2.0961 H   0  0  0  0  0  0  0  0  0  0  0  0
    0.5854   -1.2808    1.5405 H   0  0  0  0  0  0  0  0  0  0  0  0
    0.3090    1.6927    0.4003 H   0  0  0  0  0  0  0  0  0  0  0  0
   -0.7927   -1.9562    0.2113 H   0  0  0  0  0  0  0  0  0  0  0  0
   -1.4284   -1.1279    1.7451 H   0  0  0  0  0  0  0  0  0  0  0  0
   -2.4941   -1.5333    0.4035 H   0  0  0  0  0  0  0  0  0  0  0  0
   -0.7540   -0.0899   -2.1384 H   0  0  0  0  0  0  0  0  0  0  0  0
   -2.3286   -0.7066   -1.6056 H   0  0  0  0  0  0  0  0  0  0  0  0
   -2.0980    1.0524   -1.7660 H   0  0  0  0  0  0  0  0  0  0  0  0
   -1.6374    2.1109    0.8528 H   0  0  0  0  0  0  0  0  0  0  0  0
   -3.0398    1.3461    0.0269 H   0  0  0  0  0  0  0  0  0  0  0  0
   -2.5222    0.7718    1.6267 H   0  0  0  0  0  0  0  0  0  0  0  0
  1  2  1  0
  2  3  1  0
  3  4  1  0
  4  5  1  0
  5  6  1  0
  6  7  1  0
  6  8  1  0
  6  9  1  0
  5  3  1  0
  1 10  1  0
  1 11  1  0
  1 12  1  0
  3 13  1  0
  4 14  1  0
  4 15  1  0
  5 16  1  0
  7 17  1  0
  7 18  1  0
  7 19  1  0
  8 20  1  0
  8 21  1  0
  8 22  1  0
  9 23  1  0
  9 24  1  0
  9 25  1  0
M  END
