
     RDKit          3D

 18 19  0  0  0  0  0  0  0  0999 V2000
    2.8198   -0.3207   -0.1585 C   0  0  0  0  0  0  0  0  0  0  0  0
    1.7063    0.3822   -0.5548 O   0  0  0  0  0  0  0  0  0  0  0  0
    0.5347   -0.2537   -0.1932 C   0  0  0  0  0  0  0  0  0  0  0  0
   -0.6999   -0.0412   -0.9838 C   0  0  0  0  0  0  0  0  0  0  0  0
   -1.9824   -0.6152   -0.4707 C   0  0  0  0  0  0  0  0  0  0  0  0
   -1.7502   -0.0046    0.9015 C   0  0  0  0  0  0  0  0  0  0  0  0
   -0.5244    0.6518    0.3342 C   0  0  0  0  0  0  0  0  0  0  0  0
   -0.4115    2.0188    0.2760 O   0  0  0  0  0  0  0  0  0  0  0  0
    2.7924   -1.3197   -0.6415 H   0  0  0  0  0  0  0  0  0  0  0  0
    2.8999   -0.4827    0.9274 H   0  0  0  0  0  0  0  0  0  0  0  0
    3.7305    0.2511   -0.4595 H   0  0  0  0  0  0  0  0  0  0  0  0
    0.5999   -1.2328    0.3609 H   0  0  0  0  0  0  0  0  0  0  0  0
   -0.6947    0.5074   -1.9288 H   0  0  0  0  0  0  0  0  0  0  0  0
   -1.9681   -1.7239   -0.4945 H   0  0  0  0  0  0  0  0  0  0  0  0
   -2.8973   -0.1551   -0.9167 H   0  0  0  0  0  0  0  0  0  0  0  0
   -1.4620   -0.7929    1.6156 H   0  0  0  0  0  0  0  0  0  0  0  0
   -2.5075    0.7137    1.2348 H   0  0  0  0  0  0  0  0  0  0  0  0
   -0.1854    2.4177    1.1518 H   0  0  0  0  0  0  0  0  0  0  0  0
  1  2  1  0
  2  3  1  0
  3  4  1  0
  4  5  1  0
  5  6  1  0
  6  7  1  0
  7  8  1  0
  7  3  1  0
  7  4  1  0
  1  9  1  0
  1 10  1  0
  1 11  1  0
  3 12  1  0
  4 13  1  0
  5 14  1  0
  5 15  1  0
  6 16  1  0
  6 17  1  0
  8 18  1  0
M  END
