
     RDKit          3D

 23 23  0  0  0  0  0  0  0  0999 V2000
    1.9438    0.1050   -1.3843 C   0  0  0  0  0  0  0  0  0  0  0  0
    0.9334    0.6689   -0.6177 O   0  0  0  0  0  0  0  0  0  0  0  0
    0.3902   -0.1863    0.3036 C   0  0  0  0  0  0  0  0  0  0  0  0
    1.2903   -0.7852    1.3722 C   0  0  0  0  0  0  0  0  0  0  0  0
    1.8279    0.2929    2.1068 O   0  0  0  0  0  0  0  0  0  0  0  0
   -0.9714    0.2400    0.8410 C   0  0  0  0  0  0  0  0  0  0  0  0
   -1.5058    1.5842    0.4119 C   0  0  0  0  0  0  0  0  0  0  0  0
   -0.8531   -0.8866   -0.0906 C   0  0  0  0  0  0  0  0  0  0  0  0
   -1.4473   -0.7347   -1.4534 C   0  0  0  0  0  0  0  0  0  0  0  0
    2.7781   -0.2320   -0.7057 H   0  0  0  0  0  0  0  0  0  0  0  0
    1.5181   -0.7315   -1.9422 H   0  0  0  0  0  0  0  0  0  0  0  0
    2.3559    0.9172   -2.0187 H   0  0  0  0  0  0  0  0  0  0  0  0
    2.0515   -1.4526    0.9785 H   0  0  0  0  0  0  0  0  0  0  0  0
    0.6716   -1.3523    2.0983 H   0  0  0  0  0  0  0  0  0  0  0  0
    1.0375    0.8440    2.3597 H   0  0  0  0  0  0  0  0  0  0  0  0
   -1.2326   -0.0149    1.8897 H   0  0  0  0  0  0  0  0  0  0  0  0
   -1.3461    1.7881   -0.6572 H   0  0  0  0  0  0  0  0  0  0  0  0
   -2.5750    1.6230    0.6249 H   0  0  0  0  0  0  0  0  0  0  0  0
   -0.9568    2.3691    1.0095 H   0  0  0  0  0  0  0  0  0  0  0  0
   -0.9758   -1.9317    0.3221 H   0  0  0  0  0  0  0  0  0  0  0  0
   -2.5524   -0.6397   -1.3372 H   0  0  0  0  0  0  0  0  0  0  0  0
   -1.2926   -1.6294   -2.1062 H   0  0  0  0  0  0  0  0  0  0  0  0
   -1.0894    0.1444   -2.0049 H   0  0  0  0  0  0  0  0  0  0  0  0
  1  2  1  0
  2  3  1  0
  3  4  1  0
  4  5  1  0
  3  6  1  0
  6  7  1  0
  6  8  1  0
  8  9  1  0
  8  3  1  0
  1 10  1  0
  1 11  1  0
  1 12  1  0
  4 13  1  0
  4 14  1  0
  5 15  1  0
  6 16  1  0
  7 17  1  0
  7 18  1  0
  7 19  1  0
  8 20  1  0
  9 21  1  0
  9 22  1  0
  9 23  1  0
M  END
