
     RDKit          3D

 23 24  0  0  0  0  0  0  0  0999 V2000
    2.8754    0.6381    0.6359 C   0  0  0  0  0  0  0  0  0  0  0  0
    2.1004   -0.4701    0.4886 O   0  0  0  0  0  0  0  0  0  0  0  0
    0.9467   -0.3622   -0.2203 C   0  0  0  0  0  0  0  0  0  0  0  0
    0.1528   -1.6502   -0.3301 C   0  0  0  0  0  0  0  0  0  0  0  0
   -1.2307   -1.3763    0.1646 C   0  0  0  0  0  0  0  0  0  0  0  0
   -1.4379    0.0698   -0.2332 C   0  0  0  0  0  0  0  0  0  0  0  0
   -2.5412    0.7337    0.5217 C   0  0  0  0  0  0  0  0  0  0  0  0
   -0.0847    0.6608    0.0248 C   0  0  0  0  0  0  0  0  0  0  0  0
    0.8112    0.6855   -1.2319 C   0  0  0  0  0  0  0  0  0  0  0  0
    3.2613    1.1090   -0.2629 H   0  0  0  0  0  0  0  0  0  0  0  0
    3.7501    0.3524    1.2722 H   0  0  0  0  0  0  0  0  0  0  0  0
    2.2947    1.3715    1.2689 H   0  0  0  0  0  0  0  0  0  0  0  0
    0.5893   -2.4439    0.2966 H   0  0  0  0  0  0  0  0  0  0  0  0
    0.1496   -2.0326   -1.3832 H   0  0  0  0  0  0  0  0  0  0  0  0
   -1.3407   -1.5103    1.2552 H   0  0  0  0  0  0  0  0  0  0  0  0
   -1.9607   -2.0451   -0.3219 H   0  0  0  0  0  0  0  0  0  0  0  0
   -1.7075    0.0677   -1.3087 H   0  0  0  0  0  0  0  0  0  0  0  0
   -3.5099    0.3632    0.0773 H   0  0  0  0  0  0  0  0  0  0  0  0
   -2.4773    1.8200    0.3892 H   0  0  0  0  0  0  0  0  0  0  0  0
   -2.5247    0.5189    1.6187 H   0  0  0  0  0  0  0  0  0  0  0  0
    0.0307    1.4760    0.7457 H   0  0  0  0  0  0  0  0  0  0  0  0
    0.3182    0.5217   -2.2129 H   0  0  0  0  0  0  0  0  0  0  0  0
    1.5350    1.5024   -1.2544 H   0  0  0  0  0  0  0  0  0  0  0  0
  1  2  1  0
  2  3  1  0
  3  4  1  0
  4  5  1  0
  5  6  1  0
  6  7  1  0
  6  8  1  0
  8  9  1  0
  8  3  1  0
  9  3  1  0
  1 10  1  0
  1 11  1  0
  1 12  1  0
  4 13  1  0
  4 14  1  0
  5 15  1  0
  5 16  1  0
  6 17  1  0
  7 18  1  0
  7 19  1  0
  7 20  1  0
  8 21  1  0
  9 22  1  0
  9 23  1  0
M  END
