
     RDKit          3D

 23 23  0  0  0  0  0  0  0  0999 V2000
    2.8770    0.1046    0.6782 C   0  0  0  0  0  0  0  0  0  0  0  0
    1.5952   -0.4265    0.5967 O   0  0  0  0  0  0  0  0  0  0  0  0
    0.8890    0.0391   -0.4999 C   0  0  0  0  0  0  0  0  0  0  0  0
    0.4172   -1.1680   -1.2794 C   0  0  0  0  0  0  0  0  0  0  0  0
   -0.6235   -1.6993   -0.2792 C   0  0  0  0  0  0  0  0  0  0  0  0
   -1.2702   -0.3938    0.0925 C   0  0  0  0  0  0  0  0  0  0  0  0
   -2.6769   -0.1975    0.5437 C   0  0  0  0  0  0  0  0  0  0  0  0
   -0.4028    0.5966   -0.0355 C   0  0  0  0  0  0  0  0  0  0  0  0
   -0.6226    2.0638    0.2285 C   0  0  0  0  0  0  0  0  0  0  0  0
    2.8146    1.2006    0.7591 H   0  0  0  0  0  0  0  0  0  0  0  0
    3.3501   -0.3106    1.5888 H   0  0  0  0  0  0  0  0  0  0  0  0
    3.4908   -0.2208   -0.1943 H   0  0  0  0  0  0  0  0  0  0  0  0
    1.4644    0.7505   -1.1198 H   0  0  0  0  0  0  0  0  0  0  0  0
   -0.1068   -0.7842   -2.1761 H   0  0  0  0  0  0  0  0  0  0  0  0
    1.1989   -1.8959   -1.4792 H   0  0  0  0  0  0  0  0  0  0  0  0
   -0.0303   -2.1155    0.5621 H   0  0  0  0  0  0  0  0  0  0  0  0
   -1.3139   -2.4028   -0.7349 H   0  0  0  0  0  0  0  0  0  0  0  0
   -3.2013    0.4104   -0.2377 H   0  0  0  0  0  0  0  0  0  0  0  0
   -3.1835   -1.1952    0.6310 H   0  0  0  0  0  0  0  0  0  0  0  0
   -2.6575    0.3251    1.5207 H   0  0  0  0  0  0  0  0  0  0  0  0
   -0.8424    2.6039   -0.7134 H   0  0  0  0  0  0  0  0  0  0  0  0
    0.3138    2.4954    0.6512 H   0  0  0  0  0  0  0  0  0  0  0  0
   -1.4796    2.2201    0.8970 H   0  0  0  0  0  0  0  0  0  0  0  0
  1  2  1  0
  2  3  1  0
  3  4  1  0
  4  5  1  0
  5  6  1  0
  6  7  1  0
  6  8  2  0
  8  9  1  0
  8  3  1  0
  1 10  1  0
  1 11  1  0
  1 12  1  0
  3 13  1  0
  4 14  1  0
  4 15  1  0
  5 16  1  0
  5 17  1  0
  7 18  1  0
  7 19  1  0
  7 20  1  0
  9 21  1  0
  9 22  1  0
  9 23  1  0
M  END
