
     RDKit          3D

 21 22  0  0  0  0  0  0  0  0999 V2000
    2.7413    0.9479   -0.1444 C   0  0  0  0  0  0  0  0  0  0  0  0
    1.4604    0.7124    0.3516 O   0  0  0  0  0  0  0  0  0  0  0  0
    0.6808   -0.0100   -0.5551 C   0  0  0  0  0  0  0  0  0  0  0  0
   -0.4025   -0.8974   -0.0793 C   0  0  0  0  0  0  0  0  0  0  0  0
   -0.5379   -1.3264    1.3369 C   0  0  0  0  0  0  0  0  0  0  0  0
   -1.4481   -1.3382   -1.0433 C   0  0  0  0  0  0  0  0  0  0  0  0
   -1.5457   -0.0477   -1.6105 O   0  0  0  0  0  0  0  0  0  0  0  0
   -0.7537    0.4234   -0.5828 C   0  0  0  0  0  0  0  0  0  0  0  0
   -1.2120    1.5541    0.2888 C   0  0  0  0  0  0  0  0  0  0  0  0
    2.6198    1.5309   -1.0840 H   0  0  0  0  0  0  0  0  0  0  0  0
    3.1993   -0.0474   -0.3142 H   0  0  0  0  0  0  0  0  0  0  0  0
    3.2839    1.5341    0.6021 H   0  0  0  0  0  0  0  0  0  0  0  0
    1.1398   -0.3088   -1.5328 H   0  0  0  0  0  0  0  0  0  0  0  0
    0.2871   -0.9633    1.9761 H   0  0  0  0  0  0  0  0  0  0  0  0
   -0.4975   -2.4480    1.3765 H   0  0  0  0  0  0  0  0  0  0  0  0
   -1.5488   -1.0728    1.7656 H   0  0  0  0  0  0  0  0  0  0  0  0
   -2.4330   -1.5885   -0.5930 H   0  0  0  0  0  0  0  0  0  0  0  0
   -1.0635   -2.1069   -1.7305 H   0  0  0  0  0  0  0  0  0  0  0  0
   -1.2279    1.1981    1.3290 H   0  0  0  0  0  0  0  0  0  0  0  0
   -2.2420    1.8423    0.0065 H   0  0  0  0  0  0  0  0  0  0  0  0
   -0.5000    2.4121    0.2367 H   0  0  0  0  0  0  0  0  0  0  0  0
  1  2  1  0
  2  3  1  0
  3  4  1  0
  4  5  1  0
  4  6  1  0
  6  7  1  0
  7  8  1  0
  8  9  1  0
  8  3  1  0
  8  4  1  0
  1 10  1  0
  1 11  1  0
  1 12  1  0
  3 13  1  0
  5 14  1  0
  5 15  1  0
  5 16  1  0
  6 17  1  0
  6 18  1  0
  9 19  1  0
  9 20  1  0
  9 21  1  0
M  END
