
     RDKit          3D

 21 22  0  0  0  0  0  0  0  0999 V2000
    2.8410    0.5865   -0.4495 C   0  0  0  0  0  0  0  0  0  0  0  0
    1.9035    0.4079    0.5614 O   0  0  0  0  0  0  0  0  0  0  0  0
    0.6715   -0.0182    0.0903 C   0  0  0  0  0  0  0  0  0  0  0  0
    0.2202   -1.3096    0.7062 C   0  0  0  0  0  0  0  0  0  0  0  0
   -1.2475   -1.3558    0.2591 C   0  0  0  0  0  0  0  0  0  0  0  0
   -1.6777    0.0754    0.4396 C   0  0  0  0  0  0  0  0  0  0  0  0
   -1.9471    0.8511   -0.8054 C   0  0  0  0  0  0  0  0  0  0  0  0
   -0.8936    1.7285   -0.5860 O   0  0  0  0  0  0  0  0  0  0  0  0
   -0.4447    0.9257    0.4570 C   0  0  0  0  0  0  0  0  0  0  0  0
    2.5254    1.3400   -1.1956 H   0  0  0  0  0  0  0  0  0  0  0  0
    3.7563    0.9924    0.0411 H   0  0  0  0  0  0  0  0  0  0  0  0
    3.1466   -0.3679   -0.9261 H   0  0  0  0  0  0  0  0  0  0  0  0
    0.6461   -0.1431   -1.0097 H   0  0  0  0  0  0  0  0  0  0  0  0
    0.2013   -1.2761    1.8092 H   0  0  0  0  0  0  0  0  0  0  0  0
    0.7772   -2.1828    0.3177 H   0  0  0  0  0  0  0  0  0  0  0  0
   -1.8050   -2.0522    0.9192 H   0  0  0  0  0  0  0  0  0  0  0  0
   -1.2965   -1.6693   -0.8130 H   0  0  0  0  0  0  0  0  0  0  0  0
   -2.3966    0.2488    1.2666 H   0  0  0  0  0  0  0  0  0  0  0  0
   -1.8115    0.3221   -1.7636 H   0  0  0  0  0  0  0  0  0  0  0  0
   -2.9129    1.4142   -0.7229 H   0  0  0  0  0  0  0  0  0  0  0  0
   -0.2563    1.4823    1.4045 H   0  0  0  0  0  0  0  0  0  0  0  0
  1  2  1  0
  2  3  1  0
  3  4  1  0
  4  5  1  0
  5  6  1  0
  6  7  1  0
  7  8  1  0
  8  9  1  0
  9  3  1  0
  9  6  1  0
  1 10  1  0
  1 11  1  0
  1 12  1  0
  3 13  1  0
  4 14  1  0
  4 15  1  0
  5 16  1  0
  5 17  1  0
  6 18  1  0
  7 19  1  0
  7 20  1  0
  9 21  1  0
M  END
