
     RDKit          3D

 23 24  0  0  0  0  0  0  0  0999 V2000
    2.5082    0.5977   -0.2379 C   0  0  0  0  0  0  0  0  0  0  0  0
    1.2956    0.8092   -0.8792 O   0  0  0  0  0  0  0  0  0  0  0  0
    0.3058   -0.0448   -0.4662 C   0  0  0  0  0  0  0  0  0  0  0  0
    0.4513   -1.5365   -0.6184 C   0  0  0  0  0  0  0  0  0  0  0  0
    0.1810   -1.6434    0.8892 C   0  0  0  0  0  0  0  0  0  0  0  0
    0.0837   -0.1343    0.9949 C   0  0  0  0  0  0  0  0  0  0  0  0
   -0.9610    0.4982    0.1575 C   0  0  0  0  0  0  0  0  0  0  0  0
   -2.2427   -0.2768    0.0102 C   0  0  0  0  0  0  0  0  0  0  0  0
   -1.0995    1.9830    0.0557 C   0  0  0  0  0  0  0  0  0  0  0  0
    2.4700    0.7196    0.8470 H   0  0  0  0  0  0  0  0  0  0  0  0
    3.2516    1.3170   -0.6312 H   0  0  0  0  0  0  0  0  0  0  0  0
    2.9226   -0.4129   -0.4377 H   0  0  0  0  0  0  0  0  0  0  0  0
    1.4832   -1.7883   -0.9094 H   0  0  0  0  0  0  0  0  0  0  0  0
   -0.3329   -1.9606   -1.2450 H   0  0  0  0  0  0  0  0  0  0  0  0
   -0.7752   -2.1436    1.0643 H   0  0  0  0  0  0  0  0  0  0  0  0
    1.0434   -2.0965    1.3737 H   0  0  0  0  0  0  0  0  0  0  0  0
    0.6611    0.4134    1.7360 H   0  0  0  0  0  0  0  0  0  0  0  0
   -3.1361    0.4153   -0.0015 H   0  0  0  0  0  0  0  0  0  0  0  0
   -2.3863   -0.8843    0.9482 H   0  0  0  0  0  0  0  0  0  0  0  0
   -2.2478   -0.9705   -0.8425 H   0  0  0  0  0  0  0  0  0  0  0  0
   -1.6404    2.4406    0.9120 H   0  0  0  0  0  0  0  0  0  0  0  0
   -1.7186    2.2095   -0.8474 H   0  0  0  0  0  0  0  0  0  0  0  0
   -0.1168    2.4890   -0.1273 H   0  0  0  0  0  0  0  0  0  0  0  0
  1  2  1  0
  2  3  1  0
  3  4  1  0
  4  5  1  0
  5  6  1  0
  6  7  1  0
  7  8  1  0
  7  9  1  0
  6  3  1  0
  7  3  1  0
  1 10  1  0
  1 11  1  0
  1 12  1  0
  4 13  1  0
  4 14  1  0
  5 15  1  0
  5 16  1  0
  6 17  1  0
  8 18  1  0
  8 19  1  0
  8 20  1  0
  9 21  1  0
  9 22  1  0
  9 23  1  0
M  END
