
     RDKit          3D

 23 23  0  0  0  0  0  0  0  0999 V2000
   -2.8818   -0.3900    0.2007 C   0  0  0  0  0  0  0  0  0  0  0  0
   -1.5924   -0.5108    0.7056 O   0  0  0  0  0  0  0  0  0  0  0  0
   -0.6281   -0.1560   -0.2450 C   0  0  0  0  0  0  0  0  0  0  0  0
    0.1993   -1.3633   -0.5299 C   0  0  0  0  0  0  0  0  0  0  0  0
    1.6599   -1.1872   -0.2185 C   0  0  0  0  0  0  0  0  0  0  0  0
    1.8472   -0.4754    1.0746 C   0  0  0  0  0  0  0  0  0  0  0  0
    1.0978    0.5891    1.3064 C   0  0  0  0  0  0  0  0  0  0  0  0
    0.1269    1.0132    0.2872 C   0  0  0  0  0  0  0  0  0  0  0  0
    0.7499    1.8654   -0.7923 C   0  0  0  0  0  0  0  0  0  0  0  0
   -3.0734   -1.0166   -0.6695 H   0  0  0  0  0  0  0  0  0  0  0  0
   -3.5755   -0.6392    1.0309 H   0  0  0  0  0  0  0  0  0  0  0  0
   -3.0492    0.6994   -0.0042 H   0  0  0  0  0  0  0  0  0  0  0  0
   -1.1203    0.1498   -1.2124 H   0  0  0  0  0  0  0  0  0  0  0  0
    0.1329   -1.6832   -1.6038 H   0  0  0  0  0  0  0  0  0  0  0  0
   -0.1521   -2.2669    0.0473 H   0  0  0  0  0  0  0  0  0  0  0  0
    2.0983   -2.2172   -0.0748 H   0  0  0  0  0  0  0  0  0  0  0  0
    2.2085   -0.7434   -1.0515 H   0  0  0  0  0  0  0  0  0  0  0  0
    2.5779   -0.8129    1.8164 H   0  0  0  0  0  0  0  0  0  0  0  0
    1.2362    1.1171    2.2648 H   0  0  0  0  0  0  0  0  0  0  0  0
   -0.6224    1.6741    0.8136 H   0  0  0  0  0  0  0  0  0  0  0  0
    0.7129    2.9373   -0.4912 H   0  0  0  0  0  0  0  0  0  0  0  0
    0.2198    1.7959   -1.7602 H   0  0  0  0  0  0  0  0  0  0  0  0
    1.8279    1.6208   -0.8941 H   0  0  0  0  0  0  0  0  0  0  0  0
  1  2  1  0
  2  3  1  0
  3  4  1  0
  4  5  1  0
  5  6  1  0
  6  7  2  0
  7  8  1  0
  8  9  1  0
  8  3  1  0
  1 10  1  0
  1 11  1  0
  1 12  1  0
  3 13  1  0
  4 14  1  0
  4 15  1  0
  5 16  1  0
  5 17  1  0
  6 18  1  0
  7 19  1  0
  8 20  1  0
  9 21  1  0
  9 22  1  0
  9 23  1  0
M  END
