
     RDKit          3D

 21 21  0  0  0  0  0  0  0  0999 V2000
    2.8179    0.2323    0.2987 C   0  0  0  0  0  0  0  0  0  0  0  0
    1.6557    0.5467   -0.3936 O   0  0  0  0  0  0  0  0  0  0  0  0
    0.6692   -0.4207   -0.2624 C   0  0  0  0  0  0  0  0  0  0  0  0
   -0.2755   -0.5626   -1.3935 C   0  0  0  0  0  0  0  0  0  0  0  0
   -0.9592   -1.7455   -1.6264 O   0  0  0  0  0  0  0  0  0  0  0  0
   -0.7169    0.1329   -0.1021 C   0  0  0  0  0  0  0  0  0  0  0  0
   -0.9338    1.6348   -0.2831 C   0  0  0  0  0  0  0  0  0  0  0  0
   -1.7110   -0.5540    0.7837 C   0  0  0  0  0  0  0  0  0  0  0  0
   -1.3243   -0.6521    2.0965 O   0  0  0  0  0  0  0  0  0  0  0  0
    2.6697    0.1133    1.3823 H   0  0  0  0  0  0  0  0  0  0  0  0
    3.3401   -0.6528   -0.1552 H   0  0  0  0  0  0  0  0  0  0  0  0
    3.5107    1.0940    0.1547 H   0  0  0  0  0  0  0  0  0  0  0  0
    0.9457   -1.2877    0.3635 H   0  0  0  0  0  0  0  0  0  0  0  0
   -0.1069    0.0495   -2.2918 H   0  0  0  0  0  0  0  0  0  0  0  0
   -0.5872   -2.5200   -1.1425 H   0  0  0  0  0  0  0  0  0  0  0  0
   -0.3785    1.9945   -1.1792 H   0  0  0  0  0  0  0  0  0  0  0  0
   -0.7132    2.2018    0.6226 H   0  0  0  0  0  0  0  0  0  0  0  0
   -2.0210    1.7388   -0.5648 H   0  0  0  0  0  0  0  0  0  0  0  0
   -1.8993   -1.5681    0.3880 H   0  0  0  0  0  0  0  0  0  0  0  0
   -2.6605    0.0177    0.7253 H   0  0  0  0  0  0  0  0  0  0  0  0
   -1.3216    0.2074    2.5796 H   0  0  0  0  0  0  0  0  0  0  0  0
  1  2  1  0
  2  3  1  0
  3  4  1  0
  4  5  1  0
  4  6  1  0
  6  7  1  0
  6  8  1  0
  8  9  1  0
  6  3  1  0
  1 10  1  0
  1 11  1  0
  1 12  1  0
  3 13  1  0
  4 14  1  0
  5 15  1  0
  7 16  1  0
  7 17  1  0
  7 18  1  0
  8 19  1  0
  8 20  1  0
  9 21  1  0
M  END
