
     RDKit          3D

 19 20  0  0  0  0  0  0  0  0999 V2000
    2.8559    0.5553   -0.3177 C   0  0  0  0  0  0  0  0  0  0  0  0
    1.6043    0.9164   -0.8456 O   0  0  0  0  0  0  0  0  0  0  0  0
    0.6784    0.0457   -0.3505 C   0  0  0  0  0  0  0  0  0  0  0  0
   -0.0051   -0.6671   -1.3603 O   0  0  0  0  0  0  0  0  0  0  0  0
   -1.0124   -1.3125   -0.6906 C   0  0  0  0  0  0  0  0  0  0  0  0
   -2.3922   -0.6970   -0.6493 C   0  0  0  0  0  0  0  0  0  0  0  0
   -1.4539   -0.4000    0.4485 C   0  0  0  0  0  0  0  0  0  0  0  0
   -0.5235    0.7698    0.2754 C   0  0  0  0  0  0  0  0  0  0  0  0
   -0.1715    1.3858    1.4485 O   0  0  0  0  0  0  0  0  0  0  0  0
    3.5873    1.2768   -0.7350 H   0  0  0  0  0  0  0  0  0  0  0  0
    3.0465   -0.4767   -0.6821 H   0  0  0  0  0  0  0  0  0  0  0  0
    2.7944    0.6270    0.7737 H   0  0  0  0  0  0  0  0  0  0  0  0
    1.0836   -0.7231    0.3278 H   0  0  0  0  0  0  0  0  0  0  0  0
   -0.8861   -2.3863   -0.5001 H   0  0  0  0  0  0  0  0  0  0  0  0
   -2.6302    0.1357   -1.3634 H   0  0  0  0  0  0  0  0  0  0  0  0
   -3.1972   -1.4382   -0.5229 H   0  0  0  0  0  0  0  0  0  0  0  0
   -1.5091   -0.9133    1.4301 H   0  0  0  0  0  0  0  0  0  0  0  0
   -0.9258    1.4510   -0.4951 H   0  0  0  0  0  0  0  0  0  0  0  0
   -0.9435    1.8509    1.8062 H   0  0  0  0  0  0  0  0  0  0  0  0
  1  2  1  0
  2  3  1  0
  3  4  1  0
  4  5  1  0
  5  6  1  0
  6  7  1  0
  7  8  1  0
  8  9  1  0
  8  3  1  0
  7  5  1  0
  1 10  1  0
  1 11  1  0
  1 12  1  0
  3 13  1  0
  5 14  1  0
  6 15  1  0
  6 16  1  0
  7 17  1  0
  8 18  1  0
  9 19  1  0
M  END
