
     RDKit          3D

 23 23  0  0  0  0  0  0  0  0999 V2000
    3.3328   -0.2465   -0.2362 C   0  0  0  0  0  0  0  0  0  0  0  0
    2.4685    0.5313    0.5181 O   0  0  0  0  0  0  0  0  0  0  0  0
    1.1518    0.3615    0.2422 C   0  0  0  0  0  0  0  0  0  0  0  0
    0.3301   -0.1706    1.3896 C   0  0  0  0  0  0  0  0  0  0  0  0
   -1.0402   -0.5585    0.9121 C   0  0  0  0  0  0  0  0  0  0  0  0
   -1.6318    0.4020   -0.0732 C   0  0  0  0  0  0  0  0  0  0  0  0
   -2.5562   -0.3707   -1.0052 C   0  0  0  0  0  0  0  0  0  0  0  0
   -0.6020    1.0767   -0.9424 C   0  0  0  0  0  0  0  0  0  0  0  0
    0.5099    1.5063   -0.2204 O   0  0  0  0  0  0  0  0  0  0  0  0
    4.3951   -0.0708    0.0271 H   0  0  0  0  0  0  0  0  0  0  0  0
    3.0558   -1.3188   -0.2517 H   0  0  0  0  0  0  0  0  0  0  0  0
    3.2263    0.1093   -1.2921 H   0  0  0  0  0  0  0  0  0  0  0  0
    1.0749   -0.4124   -0.5776 H   0  0  0  0  0  0  0  0  0  0  0  0
    0.8647   -1.0710    1.7755 H   0  0  0  0  0  0  0  0  0  0  0  0
    0.2077    0.5856    2.1811 H   0  0  0  0  0  0  0  0  0  0  0  0
   -1.0494   -1.6054    0.4955 H   0  0  0  0  0  0  0  0  0  0  0  0
   -1.7217   -0.5897    1.7905 H   0  0  0  0  0  0  0  0  0  0  0  0
   -2.2610    1.1818    0.4056 H   0  0  0  0  0  0  0  0  0  0  0  0
   -3.2164    0.3924   -1.4780 H   0  0  0  0  0  0  0  0  0  0  0  0
   -1.9731   -0.8629   -1.8308 H   0  0  0  0  0  0  0  0  0  0  0  0
   -3.1430   -1.1294   -0.4501 H   0  0  0  0  0  0  0  0  0  0  0  0
   -1.1098    1.9122   -1.4790 H   0  0  0  0  0  0  0  0  0  0  0  0
   -0.3127    0.3476   -1.7491 H   0  0  0  0  0  0  0  0  0  0  0  0
  1  2  1  0
  2  3  1  0
  3  4  1  0
  4  5  1  0
  5  6  1  0
  6  7  1  0
  6  8  1  0
  8  9  1  0
  9  3  1  0
  1 10  1  0
  1 11  1  0
  1 12  1  0
  3 13  1  0
  4 14  1  0
  4 15  1  0
  5 16  1  0
  5 17  1  0
  6 18  1  0
  7 19  1  0
  7 20  1  0
  7 21  1  0
  8 22  1  0
  8 23  1  0
M  END
