
     RDKit          3D

 20 20  0  0  0  0  0  0  0  0999 V2000
    2.8933    0.8111    0.5349 C   0  0  0  0  0  0  0  0  0  0  0  0
    1.8630   -0.1253    0.4926 O   0  0  0  0  0  0  0  0  0  0  0  0
    0.9103    0.3105   -0.3893 C   0  0  0  0  0  0  0  0  0  0  0  0
    0.3381   -0.8119   -1.2581 C   0  0  0  0  0  0  0  0  0  0  0  0
   -0.5367   -0.1154   -0.2197 C   0  0  0  0  0  0  0  0  0  0  0  0
   -0.7893   -0.9151    1.0304 C   0  0  0  0  0  0  0  0  0  0  0  0
   -1.4539    0.7421   -0.7308 O   0  0  0  0  0  0  0  0  0  0  0  0
   -2.7622    0.4170   -0.6102 C   0  0  0  0  0  0  0  0  0  0  0  0
    3.6980    0.4871    1.2513 H   0  0  0  0  0  0  0  0  0  0  0  0
    3.3798    0.9428   -0.4570 H   0  0  0  0  0  0  0  0  0  0  0  0
    2.5530    1.7988    0.9077 H   0  0  0  0  0  0  0  0  0  0  0  0
    1.1001    1.2832   -0.8997 H   0  0  0  0  0  0  0  0  0  0  0  0
    0.6423   -1.8437   -1.0697 H   0  0  0  0  0  0  0  0  0  0  0  0
    0.1586   -0.5836   -2.3269 H   0  0  0  0  0  0  0  0  0  0  0  0
   -0.0204   -1.7095    1.1252 H   0  0  0  0  0  0  0  0  0  0  0  0
   -1.7702   -1.4067    1.0515 H   0  0  0  0  0  0  0  0  0  0  0  0
   -0.6912   -0.2890    1.9577 H   0  0  0  0  0  0  0  0  0  0  0  0
   -3.1302    0.2971    0.4249 H   0  0  0  0  0  0  0  0  0  0  0  0
   -3.3727    1.2212   -1.0759 H   0  0  0  0  0  0  0  0  0  0  0  0
   -3.0097   -0.5108   -1.1991 H   0  0  0  0  0  0  0  0  0  0  0  0
  1  2  1  0
  2  3  1  0
  3  4  1  0
  4  5  1  0
  5  6  1  0
  5  7  1  0
  7  8  1  0
  5  3  1  0
  1  9  1  0
  1 10  1  0
  1 11  1  0
  3 12  1  0
  4 13  1  0
  4 14  1  0
  6 15  1  0
  6 16  1  0
  6 17  1  0
  8 18  1  0
  8 19  1  0
  8 20  1  0
M  END
