
     RDKit          3D

 23 23  0  0  0  0  0  0  0  0999 V2000
   -0.1766    2.8066    0.2207 C   0  0  0  0  0  0  0  0  0  0  0  0
    0.1644    1.5727    0.7511 O   0  0  0  0  0  0  0  0  0  0  0  0
   -0.2477    0.5906   -0.1276 C   0  0  0  0  0  0  0  0  0  0  0  0
   -1.3096   -0.3049    0.5228 C   0  0  0  0  0  0  0  0  0  0  0  0
   -1.1145   -1.5808   -0.2701 C   0  0  0  0  0  0  0  0  0  0  0  0
   -1.7793   -2.6602    0.2798 O   0  0  0  0  0  0  0  0  0  0  0  0
    0.4036   -1.7468   -0.1262 C   0  0  0  0  0  0  0  0  0  0  0  0
    0.8553   -0.3467   -0.5328 C   0  0  0  0  0  0  0  0  0  0  0  0
    2.1765   -0.0320    0.0903 C   0  0  0  0  0  0  0  0  0  0  0  0
    0.1316    3.6367    0.8868 H   0  0  0  0  0  0  0  0  0  0  0  0
   -1.2644    2.9094    0.0399 H   0  0  0  0  0  0  0  0  0  0  0  0
    0.3191    3.0067   -0.7589 H   0  0  0  0  0  0  0  0  0  0  0  0
   -0.7401    1.0253   -1.0226 H   0  0  0  0  0  0  0  0  0  0  0  0
   -1.0055   -0.4126    1.5842 H   0  0  0  0  0  0  0  0  0  0  0  0
   -2.3180    0.1159    0.3949 H   0  0  0  0  0  0  0  0  0  0  0  0
   -1.3568   -1.3763   -1.3148 H   0  0  0  0  0  0  0  0  0  0  0  0
   -2.7365   -2.4809    0.2567 H   0  0  0  0  0  0  0  0  0  0  0  0
    0.8007   -2.5233   -0.7723 H   0  0  0  0  0  0  0  0  0  0  0  0
    0.6335   -1.8826    0.9483 H   0  0  0  0  0  0  0  0  0  0  0  0
    0.9078   -0.3755   -1.6564 H   0  0  0  0  0  0  0  0  0  0  0  0
    2.9598   -0.2186   -0.7003 H   0  0  0  0  0  0  0  0  0  0  0  0
    2.4177   -0.7465    0.9078 H   0  0  0  0  0  0  0  0  0  0  0  0
    2.2787    1.0239    0.3986 H   0  0  0  0  0  0  0  0  0  0  0  0
  1  2  1  0
  2  3  1  0
  3  4  1  0
  4  5  1  0
  5  6  1  0
  5  7  1  0
  7  8  1  0
  8  9  1  0
  8  3  1  0
  1 10  1  0
  1 11  1  0
  1 12  1  0
  3 13  1  0
  4 14  1  0
  4 15  1  0
  5 16  1  0
  6 17  1  0
  7 18  1  0
  7 19  1  0
  8 20  1  0
  9 21  1  0
  9 22  1  0
  9 23  1  0
M  END
