
     RDKit          3D

 19 20  0  0  0  0  0  0  0  0999 V2000
    2.9160   -0.0407    0.2152 C   0  0  0  0  0  0  0  0  0  0  0  0
    1.6915    0.0088    0.8897 O   0  0  0  0  0  0  0  0  0  0  0  0
    0.6106   -0.0234    0.0151 C   0  0  0  0  0  0  0  0  0  0  0  0
   -0.1260    1.2553    0.1823 C   0  0  0  0  0  0  0  0  0  0  0  0
   -1.4145    1.3627   -0.0776 C   0  0  0  0  0  0  0  0  0  0  0  0
   -2.2145    0.2011   -0.5576 C   0  0  0  0  0  0  0  0  0  0  0  0
   -1.6766   -1.0629    0.0502 C   0  0  0  0  0  0  0  0  0  0  0  0
   -0.8904   -1.8659   -0.7593 O   0  0  0  0  0  0  0  0  0  0  0  0
   -0.3099   -1.1648    0.3390 C   0  0  0  0  0  0  0  0  0  0  0  0
    3.0049   -0.9784   -0.3886 H   0  0  0  0  0  0  0  0  0  0  0  0
    3.0812    0.8720   -0.3909 H   0  0  0  0  0  0  0  0  0  0  0  0
    3.6988   -0.0145    1.0156 H   0  0  0  0  0  0  0  0  0  0  0  0
    1.0250   -0.0813   -1.0097 H   0  0  0  0  0  0  0  0  0  0  0  0
    0.3825    2.1508    0.5282 H   0  0  0  0  0  0  0  0  0  0  0  0
   -1.9175    2.3131    0.0566 H   0  0  0  0  0  0  0  0  0  0  0  0
   -2.1702    0.1032   -1.6624 H   0  0  0  0  0  0  0  0  0  0  0  0
   -3.2938    0.3748   -0.3190 H   0  0  0  0  0  0  0  0  0  0  0  0
   -2.4314   -1.5857    0.6985 H   0  0  0  0  0  0  0  0  0  0  0  0
    0.0342   -1.8244    1.1748 H   0  0  0  0  0  0  0  0  0  0  0  0
  1  2  1  0
  2  3  1  0
  3  4  1  0
  4  5  2  0
  5  6  1  0
  6  7  1  0
  7  8  1  0
  8  9  1  0
  9  3  1  0
  9  7  1  0
  1 10  1  0
  1 11  1  0
  1 12  1  0
  3 13  1  0
  4 14  1  0
  5 15  1  0
  6 16  1  0
  6 17  1  0
  7 18  1  0
  9 19  1  0
M  END
