
     RDKit          3D

 19 20  0  0  0  0  0  0  0  0999 V2000
    2.9208    0.2250   -0.3366 C   0  0  0  0  0  0  0  0  0  0  0  0
    1.6893    0.2871    0.3190 O   0  0  0  0  0  0  0  0  0  0  0  0
    0.7085   -0.4465   -0.3696 C   0  0  0  0  0  0  0  0  0  0  0  0
   -0.1399   -1.3449    0.5529 C   0  0  0  0  0  0  0  0  0  0  0  0
   -0.6711   -0.1425   -0.0997 C   0  0  0  0  0  0  0  0  0  0  0  0
   -1.1853    1.0431    0.6228 C   0  0  0  0  0  0  0  0  0  0  0  0
   -2.4181    0.9559   -0.2409 C   0  0  0  0  0  0  0  0  0  0  0  0
   -3.4742    1.5211   -0.2697 O   0  0  0  0  0  0  0  0  0  0  0  0
   -1.7895   -0.1409   -1.0689 C   0  0  0  0  0  0  0  0  0  0  0  0
    3.2782   -0.8281   -0.4179 H   0  0  0  0  0  0  0  0  0  0  0  0
    3.6213    0.8409    0.2609 H   0  0  0  0  0  0  0  0  0  0  0  0
    2.8146    0.7187   -1.3223 H   0  0  0  0  0  0  0  0  0  0  0  0
    1.0817   -0.9274   -1.2830 H   0  0  0  0  0  0  0  0  0  0  0  0
   -0.4012   -2.3446    0.1683 H   0  0  0  0  0  0  0  0  0  0  0  0
    0.0430   -1.2693    1.6438 H   0  0  0  0  0  0  0  0  0  0  0  0
   -1.4457    0.7814    1.6788 H   0  0  0  0  0  0  0  0  0  0  0  0
   -0.6093    1.9640    0.5009 H   0  0  0  0  0  0  0  0  0  0  0  0
   -2.4305   -1.0478   -1.0413 H   0  0  0  0  0  0  0  0  0  0  0  0
   -1.5927    0.1547   -2.1042 H   0  0  0  0  0  0  0  0  0  0  0  0
  1  2  1  0
  2  3  1  0
  3  4  1  0
  4  5  1  0
  5  6  1  0
  6  7  1  0
  7  8  2  0
  7  9  1  0
  5  3  1  0
  9  5  1  0
  1 10  1  0
  1 11  1  0
  1 12  1  0
  3 13  1  0
  4 14  1  0
  4 15  1  0
  6 16  1  0
  6 17  1  0
  9 18  1  0
  9 19  1  0
M  END
