
     RDKit          3D

 21 22  0  0  0  0  0  0  0  0999 V2000
    2.3849    0.4995    0.1932 C   0  0  0  0  0  0  0  0  0  0  0  0
    1.1025    0.8082   -0.1944 O   0  0  0  0  0  0  0  0  0  0  0  0
    0.2354   -0.2515   -0.2094 C   0  0  0  0  0  0  0  0  0  0  0  0
    0.6340   -1.3665   -1.1365 C   0  0  0  0  0  0  0  0  0  0  0  0
   -0.1448   -0.7403    1.1290 C   0  0  0  0  0  0  0  0  0  0  0  0
   -1.3895   -0.4363    1.4393 C   0  0  0  0  0  0  0  0  0  0  0  0
   -2.0558    0.3098    0.3580 C   0  0  0  0  0  0  0  0  0  0  0  0
   -1.4896    1.6220   -0.0476 C   0  0  0  0  0  0  0  0  0  0  0  0
   -1.0866    0.3077   -0.7431 C   0  0  0  0  0  0  0  0  0  0  0  0
    2.8836   -0.2542   -0.4617 H   0  0  0  0  0  0  0  0  0  0  0  0
    2.4716    0.2468    1.2711 H   0  0  0  0  0  0  0  0  0  0  0  0
    2.9950    1.4384    0.0566 H   0  0  0  0  0  0  0  0  0  0  0  0
    0.5675   -1.0299   -2.1798 H   0  0  0  0  0  0  0  0  0  0  0  0
    1.6233   -1.7818   -0.9513 H   0  0  0  0  0  0  0  0  0  0  0  0
   -0.0996   -2.1956   -0.9807 H   0  0  0  0  0  0  0  0  0  0  0  0
    0.5459   -1.2939    1.7797 H   0  0  0  0  0  0  0  0  0  0  0  0
   -1.8732   -0.6993    2.3749 H   0  0  0  0  0  0  0  0  0  0  0  0
   -3.1340    0.1793    0.1686 H   0  0  0  0  0  0  0  0  0  0  0  0
   -2.0982    2.3257   -0.6497 H   0  0  0  0  0  0  0  0  0  0  0  0
   -0.7377    2.1286    0.5755 H   0  0  0  0  0  0  0  0  0  0  0  0
   -1.3349    0.1833   -1.7915 H   0  0  0  0  0  0  0  0  0  0  0  0
  1  2  1  0
  2  3  1  0
  3  4  1  0
  3  5  1  0
  5  6  2  0
  6  7  1  0
  7  8  1  0
  8  9  1  0
  9  3  1  0
  9  7  1  0
  1 10  1  0
  1 11  1  0
  1 12  1  0
  4 13  1  0
  4 14  1  0
  4 15  1  0
  5 16  1  0
  6 17  1  0
  7 18  1  0
  8 19  1  0
  8 20  1  0
  9 21  1  0
M  END
