
     RDKit          3D

 21 21  0  0  0  0  0  0  0  0999 V2000
    2.6202   -0.7004   -0.1558 C   0  0  0  0  0  0  0  0  0  0  0  0
    1.5567   -0.1377   -0.8602 O   0  0  0  0  0  0  0  0  0  0  0  0
    0.5776    0.2050    0.0340 C   0  0  0  0  0  0  0  0  0  0  0  0
    0.1696    1.6713   -0.0621 C   0  0  0  0  0  0  0  0  0  0  0  0
   -1.2659    1.2834   -0.2415 C   0  0  0  0  0  0  0  0  0  0  0  0
   -0.8281   -0.1780   -0.3171 C   0  0  0  0  0  0  0  0  0  0  0  0
   -1.4756   -1.0272    0.7794 C   0  0  0  0  0  0  0  0  0  0  0  0
   -1.0579   -0.6938   -1.6740 C   0  0  0  0  0  0  0  0  0  0  0  0
   -0.2544   -1.3502   -2.3173 O   0  0  0  0  0  0  0  0  0  0  0  0
    3.0031    0.0678    0.5773 H   0  0  0  0  0  0  0  0  0  0  0  0
    2.1971   -1.5347    0.4476 H   0  0  0  0  0  0  0  0  0  0  0  0
    3.4419   -1.0408   -0.8133 H   0  0  0  0  0  0  0  0  0  0  0  0
    0.8218   -0.0258    1.0904 H   0  0  0  0  0  0  0  0  0  0  0  0
    0.3104    2.2523    0.8568 H   0  0  0  0  0  0  0  0  0  0  0  0
    0.6249    2.1460   -0.9586 H   0  0  0  0  0  0  0  0  0  0  0  0
   -1.9098    1.4813    0.6593 H   0  0  0  0  0  0  0  0  0  0  0  0
   -1.7164    1.6795   -1.1608 H   0  0  0  0  0  0  0  0  0  0  0  0
   -1.1337   -0.5919    1.7361 H   0  0  0  0  0  0  0  0  0  0  0  0
   -1.0746   -2.0586    0.6504 H   0  0  0  0  0  0  0  0  0  0  0  0
   -2.5806   -0.9811    0.6642 H   0  0  0  0  0  0  0  0  0  0  0  0
   -2.0262   -0.4662   -2.1324 H   0  0  0  0  0  0  0  0  0  0  0  0
  1  2  1  0
  2  3  1  0
  3  4  1  0
  4  5  1  0
  5  6  1  0
  6  7  1  0
  6  8  1  0
  8  9  2  0
  6  3  1  0
  1 10  1  0
  1 11  1  0
  1 12  1  0
  3 13  1  0
  4 14  1  0
  4 15  1  0
  5 16  1  0
  5 17  1  0
  7 18  1  0
  7 19  1  0
  7 20  1  0
  8 21  1  0
M  END
