
     RDKit          3D

 21 22  0  0  0  0  0  0  0  0999 V2000
    3.1383   -0.0072    0.3063 C   0  0  0  0  0  0  0  0  0  0  0  0
    2.1348   -0.3646   -0.5774 O   0  0  0  0  0  0  0  0  0  0  0  0
    0.8812    0.0004   -0.2118 C   0  0  0  0  0  0  0  0  0  0  0  0
    0.0028   -1.2136    0.0613 C   0  0  0  0  0  0  0  0  0  0  0  0
   -1.2443   -0.7186    0.7087 C   0  0  0  0  0  0  0  0  0  0  0  0
   -2.5119   -0.5318   -0.0313 C   0  0  0  0  0  0  0  0  0  0  0  0
   -1.6275    0.6516    0.4231 C   0  0  0  0  0  0  0  0  0  0  0  0
   -0.9084    1.3709   -0.6517 C   0  0  0  0  0  0  0  0  0  0  0  0
    0.2126    0.7770   -1.1420 O   0  0  0  0  0  0  0  0  0  0  0  0
    4.1148   -0.3533   -0.0903 H   0  0  0  0  0  0  0  0  0  0  0  0
    3.2247    1.1185    0.3441 H   0  0  0  0  0  0  0  0  0  0  0  0
    3.0125   -0.4052    1.3112 H   0  0  0  0  0  0  0  0  0  0  0  0
    0.9546    0.5379    0.7790 H   0  0  0  0  0  0  0  0  0  0  0  0
   -0.1873   -1.7934   -0.8690 H   0  0  0  0  0  0  0  0  0  0  0  0
    0.6156   -1.8803    0.7240 H   0  0  0  0  0  0  0  0  0  0  0  0
   -1.3693   -1.0848    1.7702 H   0  0  0  0  0  0  0  0  0  0  0  0
   -3.4688   -0.6694    0.5016 H   0  0  0  0  0  0  0  0  0  0  0  0
   -2.5805   -0.6890   -1.1187 H   0  0  0  0  0  0  0  0  0  0  0  0
   -2.1146    1.3182    1.1815 H   0  0  0  0  0  0  0  0  0  0  0  0
   -0.6535    2.4235   -0.3427 H   0  0  0  0  0  0  0  0  0  0  0  0
   -1.6256    1.5133   -1.5130 H   0  0  0  0  0  0  0  0  0  0  0  0
  1  2  1  0
  2  3  1  0
  3  4  1  0
  4  5  1  0
  5  6  1  0
  6  7  1  0
  7  8  1  0
  8  9  1  0
  9  3  1  0
  7  5  1  0
  1 10  1  0
  1 11  1  0
  1 12  1  0
  3 13  1  0
  4 14  1  0
  4 15  1  0
  5 16  1  0
  6 17  1  0
  6 18  1  0
  7 19  1  0
  8 20  1  0
  8 21  1  0
M  END
