
     RDKit          3D

 21 21  0  0  0  0  0  0  0  0999 V2000
    2.5522    1.1140   -0.2259 C   0  0  0  0  0  0  0  0  0  0  0  0
    1.2660    0.6447   -0.4860 O   0  0  0  0  0  0  0  0  0  0  0  0
    0.8042   -0.1396    0.5564 C   0  0  0  0  0  0  0  0  0  0  0  0
    0.6246   -1.5550    0.0547 C   0  0  0  0  0  0  0  0  0  0  0  0
   -0.5852   -2.0276    0.5399 O   0  0  0  0  0  0  0  0  0  0  0  0
   -1.5863   -1.2609   -0.0899 C   0  0  0  0  0  0  0  0  0  0  0  0
   -1.5030    0.1197    0.5283 C   0  0  0  0  0  0  0  0  0  0  0  0
   -1.7751    1.2136   -0.4488 C   0  0  0  0  0  0  0  0  0  0  0  0
   -0.3215    0.3701    1.1683 O   0  0  0  0  0  0  0  0  0  0  0  0
    2.5678    1.7330    0.7067 H   0  0  0  0  0  0  0  0  0  0  0  0
    3.2005    0.2253    0.0161 H   0  0  0  0  0  0  0  0  0  0  0  0
    2.9228    1.6789   -1.0817 H   0  0  0  0  0  0  0  0  0  0  0  0
    1.6011   -0.1798    1.3280 H   0  0  0  0  0  0  0  0  0  0  0  0
    1.4781   -2.1901    0.3158 H   0  0  0  0  0  0  0  0  0  0  0  0
    0.5658   -1.5710   -1.0711 H   0  0  0  0  0  0  0  0  0  0  0  0
   -2.5783   -1.7341    0.0984 H   0  0  0  0  0  0  0  0  0  0  0  0
   -1.3519   -1.2075   -1.1718 H   0  0  0  0  0  0  0  0  0  0  0  0
   -2.3161    0.1674    1.3082 H   0  0  0  0  0  0  0  0  0  0  0  0
   -2.4700    0.9304   -1.2654 H   0  0  0  0  0  0  0  0  0  0  0  0
   -0.8293    1.6030   -0.8752 H   0  0  0  0  0  0  0  0  0  0  0  0
   -2.2664    2.0657    0.0948 H   0  0  0  0  0  0  0  0  0  0  0  0
  1  2  1  0
  2  3  1  0
  3  4  1  0
  4  5  1  0
  5  6  1  0
  6  7  1  0
  7  8  1  0
  7  9  1  0
  9  3  1  0
  1 10  1  0
  1 11  1  0
  1 12  1  0
  3 13  1  0
  4 14  1  0
  4 15  1  0
  6 16  1  0
  6 17  1  0
  7 18  1  0
  8 19  1  0
  8 20  1  0
  8 21  1  0
M  END
