
     RDKit          3D

 21 21  0  0  0  0  0  0  0  0999 V2000
   -2.4694   -0.3180    0.1294 C   0  0  0  0  0  0  0  0  0  0  0  0
   -1.3520   -0.0994    0.8799 O   0  0  0  0  0  0  0  0  0  0  0  0
   -0.2299    0.2638    0.2092 C   0  0  0  0  0  0  0  0  0  0  0  0
   -0.3399    1.5608   -0.5953 C   0  0  0  0  0  0  0  0  0  0  0  0
    0.9686    0.2875    1.1524 C   0  0  0  0  0  0  0  0  0  0  0  0
    1.7238   -0.6615    0.2589 C   0  0  0  0  0  0  0  0  0  0  0  0
    2.8193   -0.0839   -0.3611 O   0  0  0  0  0  0  0  0  0  0  0  0
    0.4839   -0.7730   -0.5973 C   0  0  0  0  0  0  0  0  0  0  0  0
   -0.0784   -2.0405   -0.6069 O   0  0  0  0  0  0  0  0  0  0  0  0
   -3.2939   -0.6076    0.8451 H   0  0  0  0  0  0  0  0  0  0  0  0
   -2.3574   -1.0323   -0.6954 H   0  0  0  0  0  0  0  0  0  0  0  0
   -2.8142    0.6792   -0.2732 H   0  0  0  0  0  0  0  0  0  0  0  0
   -1.2104    1.4497   -1.2696 H   0  0  0  0  0  0  0  0  0  0  0  0
   -0.5347    2.4315    0.0590 H   0  0  0  0  0  0  0  0  0  0  0  0
    0.5429    1.6992   -1.2363 H   0  0  0  0  0  0  0  0  0  0  0  0
    0.7865   -0.1794    2.1383 H   0  0  0  0  0  0  0  0  0  0  0  0
    1.4133    1.2852    1.2915 H   0  0  0  0  0  0  0  0  0  0  0  0
    1.9866   -1.6335    0.7116 H   0  0  0  0  0  0  0  0  0  0  0  0
    2.7672    0.8982   -0.3825 H   0  0  0  0  0  0  0  0  0  0  0  0
    0.7500   -0.4769   -1.6475 H   0  0  0  0  0  0  0  0  0  0  0  0
    0.4381   -2.6492   -0.0102 H   0  0  0  0  0  0  0  0  0  0  0  0
  1  2  1  0
  2  3  1  0
  3  4  1  0
  3  5  1  0
  5  6  1  0
  6  7  1  0
  6  8  1  0
  8  9  1  0
  8  3  1  0
  1 10  1  0
  1 11  1  0
  1 12  1  0
  4 13  1  0
  4 14  1  0
  4 15  1  0
  5 16  1  0
  5 17  1  0
  6 18  1  0
  7 19  1  0
  8 20  1  0
  9 21  1  0
M  END
