
     RDKit          3D

 17 20  0  0  0  0  0  0  0  0999 V2000
    2.2442    0.3688   -0.5147 C   0  0  0  0  0  0  0  0  0  0  0  0
    1.2852   -0.6035   -0.6737 O   0  0  0  0  0  0  0  0  0  0  0  0
    0.3651   -0.4921    0.2580 C   0  0  0  0  0  0  0  0  0  0  0  0
   -0.5190    0.8465    0.4248 C   0  0  0  0  0  0  0  0  0  0  0  0
   -1.8667   -0.0220    0.3861 C   0  0  0  0  0  0  0  0  0  0  0  0
   -0.9520   -1.3869    0.2079 C   0  0  0  0  0  0  0  0  0  0  0  0
   -1.0946   -0.4017   -0.4072 C   0  0  0  0  0  0  0  0  0  0  0  0
   -0.5382    0.1349   -1.5098 O   0  0  0  0  0  0  0  0  0  0  0  0
   -0.3938   -0.1269    1.1029 C   0  0  0  0  0  0  0  0  0  0  0  0
    1.8018    1.4050   -0.5846 H   0  0  0  0  0  0  0  0  0  0  0  0
    2.6561    0.2909    0.5259 H   0  0  0  0  0  0  0  0  0  0  0  0
    3.0386    0.3440   -1.2816 H   0  0  0  0  0  0  0  0  0  0  0  0
   -0.4092    1.6092   -0.3066 H   0  0  0  0  0  0  0  0  0  0  0  0
   -2.4330   -0.0289    1.3258 H   0  0  0  0  0  0  0  0  0  0  0  0
   -1.0726   -2.0725    1.0573 H   0  0  0  0  0  0  0  0  0  0  0  0
   -1.2338    0.6942   -1.9806 H   0  0  0  0  0  0  0  0  0  0  0  0
   -0.8781   -0.5588    1.9700 H   0  0  0  0  0  0  0  0  0  0  0  0
  1  2  1  0
  2  3  1  0
  3  4  1  0
  4  5  1  0
  5  6  1  0
  6  7  1  0
  7  8  1  0
  7  9  1  0
  6  3  1  0
  9  3  1  0
  9  4  1  0
  7  5  1  0
  1 10  1  0
  1 11  1  0
  1 12  1  0
  4 13  1  0
  5 14  1  0
  6 15  1  0
  8 16  1  0
  9 17  1  0
M  END
