
     RDKit          3D

 19 20  0  0  0  0  0  0  0  0999 V2000
    2.6897    0.0717   -0.0584 C   0  0  0  0  0  0  0  0  0  0  0  0
    1.5411   -0.2935    0.6780 O   0  0  0  0  0  0  0  0  0  0  0  0
    0.4580    0.1005   -0.0327 C   0  0  0  0  0  0  0  0  0  0  0  0
   -0.5188    0.9684    0.7045 C   0  0  0  0  0  0  0  0  0  0  0  0
   -1.6298    1.0751   -0.3493 C   0  0  0  0  0  0  0  0  0  0  0  0
   -1.7787   -0.3347    0.1009 C   0  0  0  0  0  0  0  0  0  0  0  0
   -1.3751    0.1059    1.3808 O   0  0  0  0  0  0  0  0  0  0  0  0
   -0.5072   -1.0534   -0.3578 C   0  0  0  0  0  0  0  0  0  0  0  0
   -0.2758   -2.1428    0.4675 O   0  0  0  0  0  0  0  0  0  0  0  0
    2.7108    1.1896   -0.2119 H   0  0  0  0  0  0  0  0  0  0  0  0
    3.6061   -0.2203    0.4710 H   0  0  0  0  0  0  0  0  0  0  0  0
    2.6328   -0.3660   -1.0673 H   0  0  0  0  0  0  0  0  0  0  0  0
    0.6848    0.6030   -0.9974 H   0  0  0  0  0  0  0  0  0  0  0  0
   -0.1981    1.8677    1.1692 H   0  0  0  0  0  0  0  0  0  0  0  0
   -1.2062    1.2393   -1.3582 H   0  0  0  0  0  0  0  0  0  0  0  0
   -2.4813    1.6870   -0.0639 H   0  0  0  0  0  0  0  0  0  0  0  0
   -2.7008   -0.8510    0.0189 H   0  0  0  0  0  0  0  0  0  0  0  0
   -0.5109   -1.2795   -1.4219 H   0  0  0  0  0  0  0  0  0  0  0  0
   -1.1408   -2.3671    0.9281 H   0  0  0  0  0  0  0  0  0  0  0  0
  1  2  1  0
  2  3  1  0
  3  4  1  0
  4  5  1  0
  5  6  1  0
  6  7  1  0
  6  8  1  0
  8  9  1  0
  8  3  1  0
  7  4  1  0
  1 10  1  0
  1 11  1  0
  1 12  1  0
  3 13  1  0
  4 14  1  0
  5 15  1  0
  5 16  1  0
  6 17  1  0
  8 18  1  0
  9 19  1  0
M  END
