
     RDKit          3D

 19 20  0  0  0  0  0  0  0  0999 V2000
   -1.4932    1.4874   -0.4158 C   0  0  0  0  0  0  0  0  0  0  0  0
   -0.4164    1.2281    0.3923 O   0  0  0  0  0  0  0  0  0  0  0  0
    0.1097   -0.0257    0.3390 C   0  0  0  0  0  0  0  0  0  0  0  0
   -0.7354   -1.2010    0.6899 C   0  0  0  0  0  0  0  0  0  0  0  0
   -1.8605   -1.3664   -0.1119 O   0  0  0  0  0  0  0  0  0  0  0  0
    1.5149   -0.0976    0.8450 C   0  0  0  0  0  0  0  0  0  0  0  0
    1.9404    0.6908   -0.3443 C   0  0  0  0  0  0  0  0  0  0  0  0
    1.0021   -0.3475   -0.8203 C   0  0  0  0  0  0  0  0  0  0  0  0
    1.6530   -1.2310    0.0508 O   0  0  0  0  0  0  0  0  0  0  0  0
   -1.8531    2.5501   -0.3097 H   0  0  0  0  0  0  0  0  0  0  0  0
   -1.2234    1.2958   -1.4733 H   0  0  0  0  0  0  0  0  0  0  0  0
   -2.3962    0.8817   -0.1942 H   0  0  0  0  0  0  0  0  0  0  0  0
   -0.1034   -2.1186    0.5082 H   0  0  0  0  0  0  0  0  0  0  0  0
   -0.9963   -1.2532    1.7670 H   0  0  0  0  0  0  0  0  0  0  0  0
   -2.2841   -2.2113    0.1077 H   0  0  0  0  0  0  0  0  0  0  0  0
    1.8256    0.0032    1.7994 H   0  0  0  0  0  0  0  0  0  0  0  0
    1.5996    1.7353   -0.4063 H   0  0  0  0  0  0  0  0  0  0  0  0
    2.9992    0.5450   -0.6621 H   0  0  0  0  0  0  0  0  0  0  0  0
    0.7176   -0.5652   -1.7613 H   0  0  0  0  0  0  0  0  0  0  0  0
  1  2  1  0
  2  3  1  0
  3  4  1  0
  4  5  1  0
  3  6  1  0
  6  7  1  0
  7  8  1  0
  8  9  1  0
  8  3  1  0
  9  6  1  0
  1 10  1  0
  1 11  1  0
  1 12  1  0
  4 13  1  0
  4 14  1  0
  5 15  1  0
  6 16  1  0
  7 17  1  0
  7 18  1  0
  8 19  1  0
M  END
