
     RDKit          3D

 23 24  0  0  0  0  0  0  0  0999 V2000
    3.1613   -0.2960    0.5803 C   0  0  0  0  0  0  0  0  0  0  0  0
    1.8606    0.1327    0.8076 O   0  0  0  0  0  0  0  0  0  0  0  0
    1.1850    0.1364   -0.4344 C   0  0  0  0  0  0  0  0  0  0  0  0
    0.0552    1.0759   -0.5993 C   0  0  0  0  0  0  0  0  0  0  0  0
   -0.5849    1.5076    0.7199 C   0  0  0  0  0  0  0  0  0  0  0  0
   -1.0806    0.0678    0.8367 C   0  0  0  0  0  0  0  0  0  0  0  0
   -2.5615    0.0375    0.5312 C   0  0  0  0  0  0  0  0  0  0  0  0
   -0.2313   -0.3358   -0.3021 C   0  0  0  0  0  0  0  0  0  0  0  0
   -0.6910   -1.3097   -1.3428 C   0  0  0  0  0  0  0  0  0  0  0  0
    3.6124    0.4371   -0.1376 H   0  0  0  0  0  0  0  0  0  0  0  0
    3.7271   -0.3898    1.5129 H   0  0  0  0  0  0  0  0  0  0  0  0
    3.0833   -1.3054    0.1025 H   0  0  0  0  0  0  0  0  0  0  0  0
    1.7464   -0.1743   -1.3125 H   0  0  0  0  0  0  0  0  0  0  0  0
   -0.1972    1.5814   -1.5201 H   0  0  0  0  0  0  0  0  0  0  0  0
   -1.3601    2.2607    0.6129 H   0  0  0  0  0  0  0  0  0  0  0  0
    0.1913    1.7027    1.5101 H   0  0  0  0  0  0  0  0  0  0  0  0
   -0.8254   -0.4058    1.7911 H   0  0  0  0  0  0  0  0  0  0  0  0
   -3.0904    0.5159    1.3752 H   0  0  0  0  0  0  0  0  0  0  0  0
   -2.7286    0.5870   -0.4395 H   0  0  0  0  0  0  0  0  0  0  0  0
   -2.8849   -1.0085    0.4718 H   0  0  0  0  0  0  0  0  0  0  0  0
   -1.7727   -1.2700   -1.5491 H   0  0  0  0  0  0  0  0  0  0  0  0
   -0.1209   -1.2093   -2.2829 H   0  0  0  0  0  0  0  0  0  0  0  0
   -0.4930   -2.3383   -0.9318 H   0  0  0  0  0  0  0  0  0  0  0  0
  1  2  1  0
  2  3  1  0
  3  4  1  0
  4  5  1  0
  5  6  1  0
  6  7  1  0
  6  8  1  0
  8  9  1  0
  8  3  1  0
  8  4  1  0
  1 10  1  0
  1 11  1  0
  1 12  1  0
  3 13  1  0
  4 14  1  0
  5 15  1  0
  5 16  1  0
  6 17  1  0
  7 18  1  0
  7 19  1  0
  7 20  1  0
  9 21  1  0
  9 22  1  0
  9 23  1  0
M  END
