
     RDKit          3D

 21 21  0  0  0  0  0  0  0  0999 V2000
    2.8424   -0.7972   -0.7633 C   0  0  0  0  0  0  0  0  0  0  0  0
    2.0245   -0.3202    0.2327 O   0  0  0  0  0  0  0  0  0  0  0  0
    0.7249   -0.0492   -0.1938 C   0  0  0  0  0  0  0  0  0  0  0  0
    0.4040    1.3568   -0.0833 C   0  0  0  0  0  0  0  0  0  0  0  0
   -0.6826    2.0134    0.2764 C   0  0  0  0  0  0  0  0  0  0  0  0
   -1.9342    1.3836    0.6860 C   0  0  0  0  0  0  0  0  0  0  0  0
   -2.3817    0.1410    0.5991 C   0  0  0  0  0  0  0  0  0  0  0  0
   -1.6138   -0.9841    0.0013 C   0  0  0  0  0  0  0  0  0  0  0  0
   -0.1865   -1.0056    0.4844 C   0  0  0  0  0  0  0  0  0  0  0  0
    3.8406   -0.9756   -0.3131 H   0  0  0  0  0  0  0  0  0  0  0  0
    2.9573   -0.1064   -1.6226 H   0  0  0  0  0  0  0  0  0  0  0  0
    2.5146   -1.7701   -1.1838 H   0  0  0  0  0  0  0  0  0  0  0  0
    0.7174   -0.3137   -1.2938 H   0  0  0  0  0  0  0  0  0  0  0  0
    1.2113    2.0542   -0.3457 H   0  0  0  0  0  0  0  0  0  0  0  0
   -0.6470    3.1030    0.2684 H   0  0  0  0  0  0  0  0  0  0  0  0
   -2.6444    2.0764    1.1592 H   0  0  0  0  0  0  0  0  0  0  0  0
   -3.3717   -0.0679    0.9894 H   0  0  0  0  0  0  0  0  0  0  0  0
   -2.0793   -1.9334    0.2836 H   0  0  0  0  0  0  0  0  0  0  0  0
   -1.6466   -0.9290   -1.1136 H   0  0  0  0  0  0  0  0  0  0  0  0
    0.1714   -2.0481    0.3524 H   0  0  0  0  0  0  0  0  0  0  0  0
   -0.2207   -0.8281    1.5803 H   0  0  0  0  0  0  0  0  0  0  0  0
  1  2  1  0
  2  3  1  0
  3  4  1  0
  4  5  2  0
  5  6  1  0
  6  7  2  0
  7  8  1  0
  8  9  1  0
  9  3  1  0
  1 10  1  0
  1 11  1  0
  1 12  1  0
  3 13  1  0
  4 14  1  0
  5 15  1  0
  6 16  1  0
  7 17  1  0
  8 18  1  0
  8 19  1  0
  9 20  1  0
  9 21  1  0
M  END
