
     RDKit          3D

 17 17  0  0  0  0  0  0  0  0999 V2000
    1.8115    1.1545   -0.1166 C   0  0  0  0  0  0  0  0  0  0  0  0
    1.0677    0.5055    0.8067 O   0  0  0  0  0  0  0  0  0  0  0  0
    0.0047   -0.2212    0.3729 C   0  0  0  0  0  0  0  0  0  0  0  0
   -0.7569   -0.9097    1.5183 C   0  0  0  0  0  0  0  0  0  0  0  0
    0.0000   -0.9835   -0.8955 C   0  0  0  0  0  0  0  0  0  0  0  0
   -0.7754    0.2763   -0.7938 C   0  0  0  0  0  0  0  0  0  0  0  0
   -2.1744    0.1920   -0.6318 O   0  0  0  0  0  0  0  0  0  0  0  0
    2.6372    1.6925    0.4385 H   0  0  0  0  0  0  0  0  0  0  0  0
    2.3558    0.3989   -0.7433 H   0  0  0  0  0  0  0  0  0  0  0  0
    1.3072    1.9235   -0.7144 H   0  0  0  0  0  0  0  0  0  0  0  0
   -0.9332   -0.2045    2.3522 H   0  0  0  0  0  0  0  0  0  0  0  0
   -1.6830   -1.3773    1.1429 H   0  0  0  0  0  0  0  0  0  0  0  0
   -0.0758   -1.7275    1.8543 H   0  0  0  0  0  0  0  0  0  0  0  0
   -0.6141   -1.9046   -0.9701 H   0  0  0  0  0  0  0  0  0  0  0  0
    0.9241   -1.0463   -1.5015 H   0  0  0  0  0  0  0  0  0  0  0  0
   -0.4818    1.1840   -1.3454 H   0  0  0  0  0  0  0  0  0  0  0  0
   -2.6136    1.0475   -0.7733 H   0  0  0  0  0  0  0  0  0  0  0  0
  1  2  1  0
  2  3  1  0
  3  4  1  0
  3  5  1  0
  5  6  1  0
  6  7  1  0
  6  3  1  0
  1  8  1  0
  1  9  1  0
  1 10  1  0
  4 11  1  0
  4 12  1  0
  4 13  1  0
  5 14  1  0
  5 15  1  0
  6 16  1  0
  7 17  1  0
M  END
