
     RDKit          3D

 23 23  0  0  0  0  0  0  0  0999 V2000
    2.1068    1.1839    0.5031 C   0  0  0  0  0  0  0  0  0  0  0  0
    1.6200   -0.0524    0.9744 O   0  0  0  0  0  0  0  0  0  0  0  0
    0.6946   -0.5389    0.0343 C   0  0  0  0  0  0  0  0  0  0  0  0
    1.3099   -0.7465   -1.3291 C   0  0  0  0  0  0  0  0  0  0  0  0
   -0.2449   -1.6235    0.4456 C   0  0  0  0  0  0  0  0  0  0  0  0
   -0.7472   -0.2485    0.1779 C   0  0  0  0  0  0  0  0  0  0  0  0
   -1.4826    0.0483   -1.1180 C   0  0  0  0  0  0  0  0  0  0  0  0
   -1.2647    0.4949    1.3755 C   0  0  0  0  0  0  0  0  0  0  0  0
   -2.6594    0.6119    1.2205 O   0  0  0  0  0  0  0  0  0  0  0  0
    2.8419    1.5712    1.2489 H   0  0  0  0  0  0  0  0  0  0  0  0
    1.2640    1.8615    0.3711 H   0  0  0  0  0  0  0  0  0  0  0  0
    2.6956    1.0388   -0.4385 H   0  0  0  0  0  0  0  0  0  0  0  0
    0.7768   -1.5204   -1.9217 H   0  0  0  0  0  0  0  0  0  0  0  0
    1.3900    0.2182   -1.8387 H   0  0  0  0  0  0  0  0  0  0  0  0
    2.3396   -1.1778   -1.1597 H   0  0  0  0  0  0  0  0  0  0  0  0
   -0.5687   -2.3937   -0.2806 H   0  0  0  0  0  0  0  0  0  0  0  0
   -0.1645   -1.9736    1.4818 H   0  0  0  0  0  0  0  0  0  0  0  0
   -1.7927    1.1286   -1.0566 H   0  0  0  0  0  0  0  0  0  0  0  0
   -2.4225   -0.5354   -1.1944 H   0  0  0  0  0  0  0  0  0  0  0  0
   -0.8639   -0.0963   -2.0078 H   0  0  0  0  0  0  0  0  0  0  0  0
   -0.7924    1.4652    1.5430 H   0  0  0  0  0  0  0  0  0  0  0  0
   -1.1308   -0.0974    2.3205 H   0  0  0  0  0  0  0  0  0  0  0  0
   -2.9048    1.3816    0.6484 H   0  0  0  0  0  0  0  0  0  0  0  0
  1  2  1  0
  2  3  1  0
  3  4  1  0
  3  5  1  0
  5  6  1  0
  6  7  1  0
  6  8  1  0
  8  9  1  0
  6  3  1  0
  1 10  1  0
  1 11  1  0
  1 12  1  0
  4 13  1  0
  4 14  1  0
  4 15  1  0
  5 16  1  0
  5 17  1  0
  7 18  1  0
  7 19  1  0
  7 20  1  0
  8 21  1  0
  8 22  1  0
  9 23  1  0
M  END
