
     RDKit          3D

 21 22  0  0  0  0  0  0  0  0999 V2000
    0.2910    2.2313   -0.7960 C   0  0  0  0  0  0  0  0  0  0  0  0
    0.2148    0.9291   -1.1665 O   0  0  0  0  0  0  0  0  0  0  0  0
   -0.1878    0.1424   -0.0814 C   0  0  0  0  0  0  0  0  0  0  0  0
    0.8330    0.2633    1.0076 C   0  0  0  0  0  0  0  0  0  0  0  0
    1.9886   -0.1559    0.1164 C   0  0  0  0  0  0  0  0  0  0  0  0
    1.5241   -1.1583   -0.6143 C   0  0  0  0  0  0  0  0  0  0  0  0
    0.1564   -1.4015   -0.2381 C   0  0  0  0  0  0  0  0  0  0  0  0
   -1.1233   -0.8557   -0.4390 C   0  0  0  0  0  0  0  0  0  0  0  0
   -2.2635   -1.0635    0.5705 C   0  0  0  0  0  0  0  0  0  0  0  0
    0.9971    2.5037   -0.0118 H   0  0  0  0  0  0  0  0  0  0  0  0
   -0.7195    2.5131   -0.4005 H   0  0  0  0  0  0  0  0  0  0  0  0
    0.5180    2.8467   -1.7020 H   0  0  0  0  0  0  0  0  0  0  0  0
    0.7052   -0.5012    1.8094 H   0  0  0  0  0  0  0  0  0  0  0  0
    0.9239    1.2263    1.4476 H   0  0  0  0  0  0  0  0  0  0  0  0
    2.9604    0.2648    0.0861 H   0  0  0  0  0  0  0  0  0  0  0  0
    2.1129   -1.6707   -1.3522 H   0  0  0  0  0  0  0  0  0  0  0  0
    0.1853   -1.9868    0.7491 H   0  0  0  0  0  0  0  0  0  0  0  0
   -1.5511   -0.9009   -1.4605 H   0  0  0  0  0  0  0  0  0  0  0  0
   -2.7129   -0.0714    0.7429 H   0  0  0  0  0  0  0  0  0  0  0  0
   -1.8286   -1.4021    1.5416 H   0  0  0  0  0  0  0  0  0  0  0  0
   -3.0242   -1.7526    0.1910 H   0  0  0  0  0  0  0  0  0  0  0  0
  1  2  1  0
  2  3  1  0
  3  4  1  0
  4  5  1  0
  5  6  2  0
  6  7  1  0
  7  8  1  0
  8  9  1  0
  7  3  1  0
  8  3  1  0
  1 10  1  0
  1 11  1  0
  1 12  1  0
  4 13  1  0
  4 14  1  0
  5 15  1  0
  6 16  1  0
  7 17  1  0
  8 18  1  0
  9 19  1  0
  9 20  1  0
  9 21  1  0
M  END
