
     RDKit          3D

 23 24  0  0  0  0  0  0  0  0999 V2000
    3.0766    0.7007    0.2094 C   0  0  0  0  0  0  0  0  0  0  0  0
    1.8217    0.7836    0.7946 O   0  0  0  0  0  0  0  0  0  0  0  0
    0.8404    0.1452    0.0358 C   0  0  0  0  0  0  0  0  0  0  0  0
    0.3098   -0.9966    0.8672 C   0  0  0  0  0  0  0  0  0  0  0  0
   -0.8011   -1.6461    0.1273 C   0  0  0  0  0  0  0  0  0  0  0  0
   -1.8817   -0.7247   -0.3136 C   0  0  0  0  0  0  0  0  0  0  0  0
   -2.4453    0.3250    0.5621 C   0  0  0  0  0  0  0  0  0  0  0  0
   -1.5334    0.6334   -0.6428 C   0  0  0  0  0  0  0  0  0  0  0  0
   -0.2109    1.1624   -0.2915 C   0  0  0  0  0  0  0  0  0  0  0  0
    2.9848    1.2003   -0.7961 H   0  0  0  0  0  0  0  0  0  0  0  0
    3.7661    1.3437    0.7876 H   0  0  0  0  0  0  0  0  0  0  0  0
    3.4873   -0.3041    0.1499 H   0  0  0  0  0  0  0  0  0  0  0  0
    1.3392   -0.2707   -0.8593 H   0  0  0  0  0  0  0  0  0  0  0  0
    1.1496   -1.7374    0.9503 H   0  0  0  0  0  0  0  0  0  0  0  0
    0.0722   -0.6987    1.9038 H   0  0  0  0  0  0  0  0  0  0  0  0
   -0.3724   -2.1377   -0.7777 H   0  0  0  0  0  0  0  0  0  0  0  0
   -1.2232   -2.4661    0.7415 H   0  0  0  0  0  0  0  0  0  0  0  0
   -2.6424   -1.2298   -0.9804 H   0  0  0  0  0  0  0  0  0  0  0  0
   -3.5134    0.5990    0.4619 H   0  0  0  0  0  0  0  0  0  0  0  0
   -2.0446    0.5316    1.5708 H   0  0  0  0  0  0  0  0  0  0  0  0
   -2.0614    1.1765   -1.4767 H   0  0  0  0  0  0  0  0  0  0  0  0
    0.2020    1.7984   -1.1164 H   0  0  0  0  0  0  0  0  0  0  0  0
   -0.3199    1.8121    0.6262 H   0  0  0  0  0  0  0  0  0  0  0  0
  1  2  1  0
  2  3  1  0
  3  4  1  0
  4  5  1  0
  5  6  1  0
  6  7  1  0
  7  8  1  0
  8  9  1  0
  9  3  1  0
  8  6  1  0
  1 10  1  0
  1 11  1  0
  1 12  1  0
  3 13  1  0
  4 14  1  0
  4 15  1  0
  5 16  1  0
  5 17  1  0
  6 18  1  0
  7 19  1  0
  7 20  1  0
  8 21  1  0
  9 22  1  0
  9 23  1  0
M  END
