
     RDKit          3D

 19 20  0  0  0  0  0  0  0  0999 V2000
    2.6283   -0.3112    0.5596 C   0  0  0  0  0  0  0  0  0  0  0  0
    1.4580    0.3762    0.8542 O   0  0  0  0  0  0  0  0  0  0  0  0
    0.5615    0.1762   -0.1885 C   0  0  0  0  0  0  0  0  0  0  0  0
    0.1151    1.5408   -0.6667 C   0  0  0  0  0  0  0  0  0  0  0  0
    0.6156    2.3251   -1.4387 O   0  0  0  0  0  0  0  0  0  0  0  0
   -1.0777    1.3725    0.2117 C   0  0  0  0  0  0  0  0  0  0  0  0
   -0.8454   -0.0576    0.1707 C   0  0  0  0  0  0  0  0  0  0  0  0
   -1.6453   -0.8558   -0.8574 C   0  0  0  0  0  0  0  0  0  0  0  0
   -1.5266   -1.1849    0.6359 C   0  0  0  0  0  0  0  0  0  0  0  0
    3.3889   -0.1932    1.3540 H   0  0  0  0  0  0  0  0  0  0  0  0
    2.3500   -1.3905    0.4962 H   0  0  0  0  0  0  0  0  0  0  0  0
    3.0044    0.0564   -0.4137 H   0  0  0  0  0  0  0  0  0  0  0  0
    0.9831   -0.4557   -0.9658 H   0  0  0  0  0  0  0  0  0  0  0  0
   -2.0174    1.7914   -0.1922 H   0  0  0  0  0  0  0  0  0  0  0  0
   -0.8534    1.9126    1.1778 H   0  0  0  0  0  0  0  0  0  0  0  0
   -2.5842   -0.3849   -1.2126 H   0  0  0  0  0  0  0  0  0  0  0  0
   -1.1167   -1.4796   -1.5818 H   0  0  0  0  0  0  0  0  0  0  0  0
   -0.9598   -2.1209    0.8959 H   0  0  0  0  0  0  0  0  0  0  0  0
   -2.4784   -1.1169    1.1613 H   0  0  0  0  0  0  0  0  0  0  0  0
  1  2  1  0
  2  3  1  0
  3  4  1  0
  4  5  2  0
  4  6  1  0
  6  7  1  0
  7  8  1  0
  8  9  1  0
  7  3  1  0
  9  7  1  0
  1 10  1  0
  1 11  1  0
  1 12  1  0
  3 13  1  0
  6 14  1  0
  6 15  1  0
  8 16  1  0
  8 17  1  0
  9 18  1  0
  9 19  1  0
M  END
