
     RDKit          3D

 16 17  0  0  0  0  0  0  0  0999 V2000
    2.1064    0.2035   -0.0023 C   0  0  0  0  0  0  0  0  0  0  0  0
    1.1295   -0.5875    0.5858 O   0  0  0  0  0  0  0  0  0  0  0  0
   -0.1534   -0.1543    0.3540 C   0  0  0  0  0  0  0  0  0  0  0  0
   -1.2443   -0.9645    0.9609 C   0  0  0  0  0  0  0  0  0  0  0  0
   -2.0261   -0.9112   -0.2067 O   0  0  0  0  0  0  0  0  0  0  0  0
   -0.8936   -0.5378   -0.8893 C   0  0  0  0  0  0  0  0  0  0  0  0
   -0.4424    0.8650   -0.6862 C   0  0  0  0  0  0  0  0  0  0  0  0
   -1.4680    1.7652   -0.3370 O   0  0  0  0  0  0  0  0  0  0  0  0
    2.0951    1.2399    0.3407 H   0  0  0  0  0  0  0  0  0  0  0  0
    3.0916   -0.2320    0.3160 H   0  0  0  0  0  0  0  0  0  0  0  0
    2.0441    0.0742   -1.0972 H   0  0  0  0  0  0  0  0  0  0  0  0
   -0.9107   -2.0373    1.0805 H   0  0  0  0  0  0  0  0  0  0  0  0
   -1.7624   -0.5526    1.8330 H   0  0  0  0  0  0  0  0  0  0  0  0
   -0.3594   -1.2314   -1.5471 H   0  0  0  0  0  0  0  0  0  0  0  0
    0.3187    1.2262   -1.3687 H   0  0  0  0  0  0  0  0  0  0  0  0
   -1.5251    1.8346    0.6635 H   0  0  0  0  0  0  0  0  0  0  0  0
  1  2  1  0
  2  3  1  0
  3  4  1  0
  4  5  1  0
  5  6  1  0
  6  7  1  0
  7  8  1  0
  6  3  1  0
  7  3  1  0
  1  9  1  0
  1 10  1  0
  1 11  1  0
  4 12  1  0
  4 13  1  0
  6 14  1  0
  7 15  1  0
  8 16  1  0
M  END
