
     RDKit          3D

 21 21  0  0  0  0  0  0  0  0999 V2000
    2.7401   -0.8266   -0.2095 C   0  0  0  0  0  0  0  0  0  0  0  0
    1.4655   -0.5865   -0.7453 O   0  0  0  0  0  0  0  0  0  0  0  0
    0.7326    0.2801    0.0378 C   0  0  0  0  0  0  0  0  0  0  0  0
    0.3310    1.5094   -0.6780 C   0  0  0  0  0  0  0  0  0  0  0  0
   -0.8739    1.8939   -0.3043 C   0  0  0  0  0  0  0  0  0  0  0  0
   -1.4152    0.9391    0.7242 C   0  0  0  0  0  0  0  0  0  0  0  0
   -0.5543   -0.3060    0.5308 C   0  0  0  0  0  0  0  0  0  0  0  0
   -1.2418   -1.1584   -0.5089 C   0  0  0  0  0  0  0  0  0  0  0  0
   -2.4123   -1.6490    0.0422 O   0  0  0  0  0  0  0  0  0  0  0  0
    2.6634   -1.2770    0.8089 H   0  0  0  0  0  0  0  0  0  0  0  0
    3.2625   -1.5704   -0.8443 H   0  0  0  0  0  0  0  0  0  0  0  0
    3.3711    0.0844   -0.2161 H   0  0  0  0  0  0  0  0  0  0  0  0
    1.3505    0.5722    0.9094 H   0  0  0  0  0  0  0  0  0  0  0  0
    0.9377    2.0178   -1.4019 H   0  0  0  0  0  0  0  0  0  0  0  0
   -1.4707    2.7533   -0.6297 H   0  0  0  0  0  0  0  0  0  0  0  0
   -1.3502    1.3416    1.7427 H   0  0  0  0  0  0  0  0  0  0  0  0
   -2.4711    0.7458    0.4806 H   0  0  0  0  0  0  0  0  0  0  0  0
   -0.4841   -0.7894    1.5137 H   0  0  0  0  0  0  0  0  0  0  0  0
   -0.5874   -1.9255   -0.9294 H   0  0  0  0  0  0  0  0  0  0  0  0
   -1.5378   -0.4789   -1.3500 H   0  0  0  0  0  0  0  0  0  0  0  0
   -2.4554   -1.5698    1.0269 H   0  0  0  0  0  0  0  0  0  0  0  0
  1  2  1  0
  2  3  1  0
  3  4  1  0
  4  5  2  0
  5  6  1  0
  6  7  1  0
  7  8  1  0
  8  9  1  0
  7  3  1  0
  1 10  1  0
  1 11  1  0
  1 12  1  0
  3 13  1  0
  4 14  1  0
  5 15  1  0
  6 16  1  0
  6 17  1  0
  7 18  1  0
  8 19  1  0
  8 20  1  0
  9 21  1  0
M  END
