
     RDKit          3D

 23 24  0  0  0  0  0  0  0  0999 V2000
    2.9384   -0.4150    0.3398 C   0  0  0  0  0  0  0  0  0  0  0  0
    1.6997    0.1309    0.6503 O   0  0  0  0  0  0  0  0  0  0  0  0
    0.7339   -0.1875   -0.3162 C   0  0  0  0  0  0  0  0  0  0  0  0
    0.1954    1.0862   -0.8592 C   0  0  0  0  0  0  0  0  0  0  0  0
   -1.2533    1.3241   -0.6328 C   0  0  0  0  0  0  0  0  0  0  0  0
   -1.8871    0.3142    0.2786 C   0  0  0  0  0  0  0  0  0  0  0  0
   -0.9748   -0.1277    1.3980 C   0  0  0  0  0  0  0  0  0  0  0  0
   -0.3011   -1.0328    0.3563 C   0  0  0  0  0  0  0  0  0  0  0  0
   -1.6240   -1.0490   -0.3753 C   0  0  0  0  0  0  0  0  0  0  0  0
    2.9024   -1.5316    0.2720 H   0  0  0  0  0  0  0  0  0  0  0  0
    3.3574    0.0253   -0.5892 H   0  0  0  0  0  0  0  0  0  0  0  0
    3.6198   -0.1481    1.1738 H   0  0  0  0  0  0  0  0  0  0  0  0
    1.2382   -0.8170   -1.1041 H   0  0  0  0  0  0  0  0  0  0  0  0
    0.7495    1.9896   -0.4662 H   0  0  0  0  0  0  0  0  0  0  0  0
    0.4207    1.1048   -1.9663 H   0  0  0  0  0  0  0  0  0  0  0  0
   -1.4650    2.3795   -0.3007 H   0  0  0  0  0  0  0  0  0  0  0  0
   -1.8026    1.2439   -1.6182 H   0  0  0  0  0  0  0  0  0  0  0  0
   -2.9206    0.5188    0.5297 H   0  0  0  0  0  0  0  0  0  0  0  0
   -0.2832    0.6330    1.7898 H   0  0  0  0  0  0  0  0  0  0  0  0
   -1.5519   -0.6900    2.1492 H   0  0  0  0  0  0  0  0  0  0  0  0
    0.0669   -1.9805    0.7344 H   0  0  0  0  0  0  0  0  0  0  0  0
   -1.5474   -0.9806   -1.4680 H   0  0  0  0  0  0  0  0  0  0  0  0
   -2.3113   -1.7904    0.0243 H   0  0  0  0  0  0  0  0  0  0  0  0
  1  2  1  0
  2  3  1  0
  3  4  1  0
  4  5  1  0
  5  6  1  0
  6  7  1  0
  7  8  1  0
  8  9  1  0
  8  3  1  0
  9  6  1  0
  1 10  1  0
  1 11  1  0
  1 12  1  0
  3 13  1  0
  4 14  1  0
  4 15  1  0
  5 16  1  0
  5 17  1  0
  6 18  1  0
  7 19  1  0
  7 20  1  0
  8 21  1  0
  9 22  1  0
  9 23  1  0
M  END
