
     RDKit          3D

 19 20  0  0  0  0  0  0  0  0999 V2000
    3.0462   -0.0495   -0.0547 C   0  0  0  0  0  0  0  0  0  0  0  0
    1.7920   -0.6447   -0.0012 O   0  0  0  0  0  0  0  0  0  0  0  0
    0.7892    0.2565    0.3381 C   0  0  0  0  0  0  0  0  0  0  0  0
   -0.1940    0.3139   -0.7997 C   0  0  0  0  0  0  0  0  0  0  0  0
   -1.5205    0.0832   -0.1501 C   0  0  0  0  0  0  0  0  0  0  0  0
   -1.2080    0.0994    1.3276 C   0  0  0  0  0  0  0  0  0  0  0  0
    0.1298   -0.2387    1.4426 O   0  0  0  0  0  0  0  0  0  0  0  0
   -2.5378   -0.7770   -0.7192 C   0  0  0  0  0  0  0  0  0  0  0  0
   -2.6627    0.6841   -0.6086 O   0  0  0  0  0  0  0  0  0  0  0  0
    3.7678   -0.8477   -0.3312 H   0  0  0  0  0  0  0  0  0  0  0  0
    3.0897    0.7606   -0.8059 H   0  0  0  0  0  0  0  0  0  0  0  0
    3.3265    0.3478    0.9595 H   0  0  0  0  0  0  0  0  0  0  0  0
    1.2145    1.2560    0.4918 H   0  0  0  0  0  0  0  0  0  0  0  0
   -0.0268   -0.5412   -1.5156 H   0  0  0  0  0  0  0  0  0  0  0  0
   -0.1302    1.2947   -1.3296 H   0  0  0  0  0  0  0  0  0  0  0  0
   -1.3522    1.1122    1.7302 H   0  0  0  0  0  0  0  0  0  0  0  0
   -1.8688   -0.6095    1.8688 H   0  0  0  0  0  0  0  0  0  0  0  0
   -2.4618   -1.0307   -1.7909 H   0  0  0  0  0  0  0  0  0  0  0  0
   -3.1929   -1.3410   -0.0520 H   0  0  0  0  0  0  0  0  0  0  0  0
  1  2  1  0
  2  3  1  0
  3  4  1  0
  4  5  1  0
  5  6  1  0
  6  7  1  0
  5  8  1  0
  8  9  1  0
  7  3  1  0
  9  5  1  0
  1 10  1  0
  1 11  1  0
  1 12  1  0
  3 13  1  0
  4 14  1  0
  4 15  1  0
  6 16  1  0
  6 17  1  0
  8 18  1  0
  8 19  1  0
M  END
