
     RDKit          3D

 19 20  0  0  0  0  0  0  0  0999 V2000
    2.3977   -0.9552    0.0467 C   0  0  0  0  0  0  0  0  0  0  0  0
    1.9143    0.3347   -0.0389 O   0  0  0  0  0  0  0  0  0  0  0  0
    0.5512    0.4180   -0.2182 C   0  0  0  0  0  0  0  0  0  0  0  0
   -0.0953   -0.1871   -1.3983 C   0  0  0  0  0  0  0  0  0  0  0  0
   -1.3460   -0.4523   -1.1139 C   0  0  0  0  0  0  0  0  0  0  0  0
   -1.7089   -0.0688    0.2739 C   0  0  0  0  0  0  0  0  0  0  0  0
   -2.1839   -1.1465    0.9958 O   0  0  0  0  0  0  0  0  0  0  0  0
   -0.4305    0.5002    0.8383 C   0  0  0  0  0  0  0  0  0  0  0  0
   -0.0150    1.7948    0.1973 C   0  0  0  0  0  0  0  0  0  0  0  0
    1.9696   -1.5247    0.8807 H   0  0  0  0  0  0  0  0  0  0  0  0
    3.4918   -0.8807    0.2370 H   0  0  0  0  0  0  0  0  0  0  0  0
    2.2527   -1.5443   -0.8778 H   0  0  0  0  0  0  0  0  0  0  0  0
    0.3768   -0.3868   -2.3554 H   0  0  0  0  0  0  0  0  0  0  0  0
   -2.0583   -0.9015   -1.7974 H   0  0  0  0  0  0  0  0  0  0  0  0
   -2.4668    0.7583    0.2375 H   0  0  0  0  0  0  0  0  0  0  0  0
   -2.3341   -0.8472    1.9227 H   0  0  0  0  0  0  0  0  0  0  0  0
   -0.2458    0.3285    1.9094 H   0  0  0  0  0  0  0  0  0  0  0  0
   -0.6849    2.3013   -0.5252 H   0  0  0  0  0  0  0  0  0  0  0  0
    0.6153    2.4594    0.7857 H   0  0  0  0  0  0  0  0  0  0  0  0
  1  2  1  0
  2  3  1  0
  3  4  1  0
  4  5  2  0
  5  6  1  0
  6  7  1  0
  6  8  1  0
  8  9  1  0
  8  3  1  0
  9  3  1  0
  1 10  1  0
  1 11  1  0
  1 12  1  0
  4 13  1  0
  5 14  1  0
  6 15  1  0
  7 16  1  0
  8 17  1  0
  9 18  1  0
  9 19  1  0
M  END
