
     RDKit          3D

 17 18  0  0  0  0  0  0  0  0999 V2000
    2.6703   -0.1026    0.1221 C   0  0  0  0  0  0  0  0  0  0  0  0
    1.3262    0.1465    0.3260 O   0  0  0  0  0  0  0  0  0  0  0  0
    0.4935   -0.5715   -0.4988 C   0  0  0  0  0  0  0  0  0  0  0  0
   -0.6639    0.2806   -1.0516 C   0  0  0  0  0  0  0  0  0  0  0  0
   -1.2124    1.3469   -0.2009 C   0  0  0  0  0  0  0  0  0  0  0  0
   -1.4531    2.5529   -0.2653 O   0  0  0  0  0  0  0  0  0  0  0  0
   -1.3991    0.3532    0.8933 C   0  0  0  0  0  0  0  0  0  0  0  0
   -2.6772    0.2129    1.3658 O   0  0  0  0  0  0  0  0  0  0  0  0
   -0.9056   -0.7358   -0.0367 C   0  0  0  0  0  0  0  0  0  0  0  0
    2.9446   -1.1522    0.2840 H   0  0  0  0  0  0  0  0  0  0  0  0
    3.2182    0.4895    0.9116 H   0  0  0  0  0  0  0  0  0  0  0  0
    3.0342    0.2901   -0.8613 H   0  0  0  0  0  0  0  0  0  0  0  0
    0.8944   -1.2742   -1.2446 H   0  0  0  0  0  0  0  0  0  0  0  0
   -0.9191    0.1921   -2.1103 H   0  0  0  0  0  0  0  0  0  0  0  0
   -0.6320    0.4329    1.7198 H   0  0  0  0  0  0  0  0  0  0  0  0
   -3.2547   -0.3603    0.8179 H   0  0  0  0  0  0  0  0  0  0  0  0
   -1.4643   -1.6559   -0.1710 H   0  0  0  0  0  0  0  0  0  0  0  0
  1  2  1  0
  2  3  1  0
  3  4  1  0
  4  5  1  0
  5  6  2  0
  5  7  1  0
  7  8  1  0
  7  9  1  0
  9  3  1  0
  9  4  1  0
  1 10  1  0
  1 11  1  0
  1 12  1  0
  3 13  1  0
  4 14  1  0
  7 15  1  0
  8 16  1  0
  9 17  1  0
M  END
