
     RDKit          3D

 15 16  0  0  0  0  0  0  0  0999 V2000
   -2.2342    0.1041   -0.0549 C   0  0  0  0  0  0  0  0  0  0  0  0
   -0.8976    0.3627    0.3005 O   0  0  0  0  0  0  0  0  0  0  0  0
   -0.1110   -0.2330   -0.6588 C   0  0  0  0  0  0  0  0  0  0  0  0
    1.0454    0.5667   -1.1748 C   0  0  0  0  0  0  0  0  0  0  0  0
    1.6715    0.4421    0.1733 C   0  0  0  0  0  0  0  0  0  0  0  0
    1.1364   -0.9045   -0.2158 C   0  0  0  0  0  0  0  0  0  0  0  0
    1.6355   -0.6484   -1.4869 O   0  0  0  0  0  0  0  0  0  0  0  0
   -2.9536    0.5334    0.6419 H   0  0  0  0  0  0  0  0  0  0  0  0
   -2.4094   -0.9926   -0.0783 H   0  0  0  0  0  0  0  0  0  0  0  0
   -2.4594    0.4984   -1.0725 H   0  0  0  0  0  0  0  0  0  0  0  0
   -0.6180   -0.7658   -1.4726 H   0  0  0  0  0  0  0  0  0  0  0  0
    1.0026    1.3856   -1.7612 H   0  0  0  0  0  0  0  0  0  0  0  0
    1.1828    0.9364    1.0151 H   0  0  0  0  0  0  0  0  0  0  0  0
    2.7747    0.4782    0.1290 H   0  0  0  0  0  0  0  0  0  0  0  0
    1.2345   -1.7633    0.3032 H   0  0  0  0  0  0  0  0  0  0  0  0
  1  2  1  0
  2  3  1  0
  3  4  1  0
  4  5  1  0
  5  6  1  0
  6  7  1  0
  6  3  1  0
  7  4  1  0
  1  8  1  0
  1  9  1  0
  1 10  1  0
  3 11  1  0
  4 12  1  0
  5 13  1  0
  5 14  1  0
  6 15  1  0
M  END
