
     RDKit          3D

 19 21  0  0  0  0  0  0  0  0999 V2000
    2.7534   -0.2046   -0.2457 C   0  0  0  0  0  0  0  0  0  0  0  0
    1.6520    0.1901   -0.9900 O   0  0  0  0  0  0  0  0  0  0  0  0
    0.4662    0.1131   -0.3133 C   0  0  0  0  0  0  0  0  0  0  0  0
    0.2735    0.9060    0.9316 C   0  0  0  0  0  0  0  0  0  0  0  0
   -1.0212    1.1291    1.1310 C   0  0  0  0  0  0  0  0  0  0  0  0
   -1.8154    0.5044    0.0348 C   0  0  0  0  0  0  0  0  0  0  0  0
   -1.7600   -1.0079    0.2182 C   0  0  0  0  0  0  0  0  0  0  0  0
   -0.4888   -0.9985   -0.5949 C   0  0  0  0  0  0  0  0  0  0  0  0
   -0.7936    0.3580   -1.0428 C   0  0  0  0  0  0  0  0  0  0  0  0
    2.8998    0.4084    0.6684 H   0  0  0  0  0  0  0  0  0  0  0  0
    3.6627   -0.0537   -0.8630 H   0  0  0  0  0  0  0  0  0  0  0  0
    2.7356   -1.2834    0.0225 H   0  0  0  0  0  0  0  0  0  0  0  0
    1.0301    1.2710    1.6076 H   0  0  0  0  0  0  0  0  0  0  0  0
   -1.4590    1.6776    1.9553 H   0  0  0  0  0  0  0  0  0  0  0  0
   -2.7755    0.9340   -0.1976 H   0  0  0  0  0  0  0  0  0  0  0  0
   -2.6115   -1.5527   -0.2136 H   0  0  0  0  0  0  0  0  0  0  0  0
   -1.5897   -1.3405    1.2592 H   0  0  0  0  0  0  0  0  0  0  0  0
   -0.2639   -1.7633   -1.3244 H   0  0  0  0  0  0  0  0  0  0  0  0
   -0.8947    0.7129   -2.0432 H   0  0  0  0  0  0  0  0  0  0  0  0
  1  2  1  0
  2  3  1  0
  3  4  1  0
  4  5  2  0
  5  6  1  0
  6  7  1  0
  7  8  1  0
  8  9  1  0
  8  3  1  0
  9  3  1  0
  9  6  1  0
  1 10  1  0
  1 11  1  0
  1 12  1  0
  4 13  1  0
  5 14  1  0
  6 15  1  0
  7 16  1  0
  7 17  1  0
  8 18  1  0
  9 19  1  0
M  END
