
     RDKit          3D

 17 20  0  0  0  0  0  0  0  0999 V2000
    2.3225    0.0607   -0.6492 C   0  0  0  0  0  0  0  0  0  0  0  0
    1.0849    0.7245   -0.8358 O   0  0  0  0  0  0  0  0  0  0  0  0
    0.1519    0.2146   -0.2394 C   0  0  0  0  0  0  0  0  0  0  0  0
   -0.5440   -1.1932   -0.2532 C   0  0  0  0  0  0  0  0  0  0  0  0
   -1.3688   -0.3498   -0.3855 C   0  0  0  0  0  0  0  0  0  0  0  0
   -1.7713   -0.5837    0.6813 C   0  0  0  0  0  0  0  0  0  0  0  0
   -1.0145    0.8455    0.6810 C   0  0  0  0  0  0  0  0  0  0  0  0
   -1.7191    1.8639    0.1200 O   0  0  0  0  0  0  0  0  0  0  0  0
   -0.2770   -0.0391    0.8553 C   0  0  0  0  0  0  0  0  0  0  0  0
    3.1346    0.5438   -1.1968 H   0  0  0  0  0  0  0  0  0  0  0  0
    2.2118   -0.9727   -1.0823 H   0  0  0  0  0  0  0  0  0  0  0  0
    2.5044   -0.0869    0.4246 H   0  0  0  0  0  0  0  0  0  0  0  0
   -0.0086   -1.9996    0.2685 H   0  0  0  0  0  0  0  0  0  0  0  0
   -1.5511    0.4165   -1.1314 H   0  0  0  0  0  0  0  0  0  0  0  0
   -1.8375   -1.0772    1.6518 H   0  0  0  0  0  0  0  0  0  0  0  0
   -1.2272    2.4475   -0.4960 H   0  0  0  0  0  0  0  0  0  0  0  0
   -0.0909   -0.8150    1.5869 H   0  0  0  0  0  0  0  0  0  0  0  0
  1  2  1  0
  2  3  1  0
  3  4  1  0
  4  5  1  0
  5  6  1  0
  6  7  1  0
  7  8  1  0
  7  9  1  0
  7  3  1  0
  9  3  1  0
  6  4  1  0
  9  5  1  0
  1 10  1  0
  1 11  1  0
  1 12  1  0
  4 13  1  0
  5 14  1  0
  6 15  1  0
  8 16  1  0
  9 17  1  0
M  END
