
     RDKit          3D

 21 21  0  0  0  0  0  0  0  0999 V2000
    3.0625    0.1805   -0.1965 C   0  0  0  0  0  0  0  0  0  0  0  0
    1.8288   -0.2881   -0.6411 O   0  0  0  0  0  0  0  0  0  0  0  0
    0.9386   -0.3227    0.4089 C   0  0  0  0  0  0  0  0  0  0  0  0
    0.5615   -1.6406    0.6678 O   0  0  0  0  0  0  0  0  0  0  0  0
   -0.6252   -1.8540    0.0212 C   0  0  0  0  0  0  0  0  0  0  0  0
   -1.2567   -0.5188   -0.0759 C   0  0  0  0  0  0  0  0  0  0  0  0
   -2.6993   -0.2047   -0.3808 C   0  0  0  0  0  0  0  0  0  0  0  0
   -0.3170    0.3810    0.1563 C   0  0  0  0  0  0  0  0  0  0  0  0
   -0.5288    1.8696    0.1550 C   0  0  0  0  0  0  0  0  0  0  0  0
    3.4657   -0.4967    0.6040 H   0  0  0  0  0  0  0  0  0  0  0  0
    3.8150    0.1768   -1.0114 H   0  0  0  0  0  0  0  0  0  0  0  0
    2.9765    1.1797    0.2997 H   0  0  0  0  0  0  0  0  0  0  0  0
    1.4395    0.0358    1.3488 H   0  0  0  0  0  0  0  0  0  0  0  0
   -0.4879   -2.2142   -1.0398 H   0  0  0  0  0  0  0  0  0  0  0  0
   -1.3207   -2.5312    0.5534 H   0  0  0  0  0  0  0  0  0  0  0  0
   -3.2512   -1.1373   -0.2906 H   0  0  0  0  0  0  0  0  0  0  0  0
   -3.1198    0.5060    0.3603 H   0  0  0  0  0  0  0  0  0  0  0  0
   -2.7076    0.2018   -1.4038 H   0  0  0  0  0  0  0  0  0  0  0  0
   -1.5499    2.1048   -0.1953 H   0  0  0  0  0  0  0  0  0  0  0  0
    0.1850    2.3704   -0.5289 H   0  0  0  0  0  0  0  0  0  0  0  0
   -0.4090    2.2020    1.1890 H   0  0  0  0  0  0  0  0  0  0  0  0
  1  2  1  0
  2  3  1  0
  3  4  1  0
  4  5  1  0
  5  6  1  0
  6  7  1  0
  6  8  2  0
  8  9  1  0
  8  3  1  0
  1 10  1  0
  1 11  1  0
  1 12  1  0
  3 13  1  0
  5 14  1  0
  5 15  1  0
  7 16  1  0
  7 17  1  0
  7 18  1  0
  9 19  1  0
  9 20  1  0
  9 21  1  0
M  END
