
     RDKit          3D

 21 21  0  0  0  0  0  0  0  0999 V2000
    2.9714   -0.3211   -0.9019 C   0  0  0  0  0  0  0  0  0  0  0  0
    1.6157   -0.0282   -1.0963 O   0  0  0  0  0  0  0  0  0  0  0  0
    0.9005   -0.2282    0.0719 C   0  0  0  0  0  0  0  0  0  0  0  0
   -0.5004   -0.7451    0.0093 C   0  0  0  0  0  0  0  0  0  0  0  0
   -0.9672   -1.4494    1.0933 O   0  0  0  0  0  0  0  0  0  0  0  0
   -1.9832   -2.3420    0.7864 C   0  0  0  0  0  0  0  0  0  0  0  0
   -0.2179    0.7454    0.2945 C   0  0  0  0  0  0  0  0  0  0  0  0
   -0.5513    1.6075   -0.7535 O   0  0  0  0  0  0  0  0  0  0  0  0
   -1.0334    2.7901   -0.2436 C   0  0  0  0  0  0  0  0  0  0  0  0
    3.5412   -0.1666   -1.8153 H   0  0  0  0  0  0  0  0  0  0  0  0
    3.0085   -1.3638   -0.5186 H   0  0  0  0  0  0  0  0  0  0  0  0
    3.3343    0.3362   -0.0983 H   0  0  0  0  0  0  0  0  0  0  0  0
    1.5016   -0.5750    0.9355 H   0  0  0  0  0  0  0  0  0  0  0  0
   -0.9854   -0.9740   -0.9577 H   0  0  0  0  0  0  0  0  0  0  0  0
   -2.8562   -1.8080    0.3553 H   0  0  0  0  0  0  0  0  0  0  0  0
   -2.2665   -2.8344    1.7572 H   0  0  0  0  0  0  0  0  0  0  0  0
   -1.5784   -3.1051    0.1099 H   0  0  0  0  0  0  0  0  0  0  0  0
   -0.3723    1.0968    1.3230 H   0  0  0  0  0  0  0  0  0  0  0  0
   -1.2987    3.4764   -1.0871 H   0  0  0  0  0  0  0  0  0  0  0  0
   -1.9721    2.6064    0.3321 H   0  0  0  0  0  0  0  0  0  0  0  0
   -0.2902    3.2822    0.4039 H   0  0  0  0  0  0  0  0  0  0  0  0
  1  2  1  0
  2  3  1  0
  3  4  1  0
  4  5  1  0
  5  6  1  0
  4  7  1  0
  7  8  1  0
  8  9  1  0
  7  3  1  0
  1 10  1  0
  1 11  1  0
  1 12  1  0
  3 13  1  0
  4 14  1  0
  6 15  1  0
  6 16  1  0
  6 17  1  0
  7 18  1  0
  9 19  1  0
  9 20  1  0
  9 21  1  0
M  END
