
     RDKit          2D

 19 21  0  0  0  0  0  0  0  0999 V2000
   -1.7331    2.5095    0.0000 C   0  0  0  0  0  0  0  0  0  0  0  0
   -2.1213    1.0607    0.0000 O   0  0  0  0  0  0  0  0  0  0  0  0
   -1.0607    0.0000    0.0000 C   0  0  0  0  0  0  0  0  0  0  0  0
   -0.0000   -1.0607    0.0000 C   0  0  0  0  0  0  0  0  0  0  0  0
    1.0607    0.0000    0.0000 O   0  0  0  0  0  0  0  0  0  0  0  0
    0.0000    1.0607    0.0000 C   0  0  0  0  0  0  0  0  0  0  0  0
   -2.1213   -1.0607    0.0000 C   0  0  0  0  0  0  0  0  0  0  0  0
   -1.0607   -2.1213    0.0000 C   0  0  0  0  0  0  0  0  0  0  0  0
   -0.0000   -3.1820    0.0000 C   0  0  0  0  0  0  0  0  0  0  0  0
   -1.3449    3.9584    0.0000 H   0  0  0  0  0  0  0  0  0  0  0  0
   -3.1820    2.8978    0.0000 H   0  0  0  0  0  0  0  0  0  0  0  0
   -0.7585    2.3726    0.0000 H   0  0  0  0  0  0  0  0  0  0  0  0
    0.6980   -1.6060    0.0000 H   0  0  0  0  0  0  0  0  0  0  0  0
    0.1200    2.0375    0.0000 H   0  0  0  0  0  0  0  0  0  0  0  0
   -3.6213   -1.0607    0.0000 H   0  0  0  0  0  0  0  0  0  0  0  0
   -2.1213   -3.1820    0.0000 H   0  0  0  0  0  0  0  0  0  0  0  0
    1.0607   -4.2426    0.0000 H   0  0  0  0  0  0  0  0  0  0  0  0
   -1.0607   -4.2426    0.0000 H   0  0  0  0  0  0  0  0  0  0  0  0
    0.6980   -2.6367    0.0000 H   0  0  0  0  0  0  0  0  0  0  0  0
  1  2  1  0
  2  3  1  0
  3  4  1  0
  4  5  1  0
  5  6  1  0
  6  7  1  0
  7  8  1  0
  8  9  1  0
  6  3  1  0
  7  3  1  0
  8  4  1  0
  1 10  1  0
  1 11  1  0
  1 12  1  0
  4 13  1  0
  6 14  1  0
  7 15  1  0
  8 16  1  0
  9 17  1  0
  9 18  1  0
  9 19  1  0
M  END
