
     RDKit          3D

 23 23  0  0  0  0  0  0  0  0999 V2000
   -3.2950    0.2323    0.3605 C   0  0  0  0  0  0  0  0  0  0  0  0
   -1.9693    0.6639    0.3698 O   0  0  0  0  0  0  0  0  0  0  0  0
   -1.1076   -0.2689   -0.1799 C   0  0  0  0  0  0  0  0  0  0  0  0
   -0.2707    0.3375   -1.2720 C   0  0  0  0  0  0  0  0  0  0  0  0
    1.1989    0.2427   -1.0361 C   0  0  0  0  0  0  0  0  0  0  0  0
    1.6116    0.6200    0.3671 C   0  0  0  0  0  0  0  0  0  0  0  0
    2.8190   -0.1544    0.8423 C   0  0  0  0  0  0  0  0  0  0  0  0
    0.5879    0.4116    1.2766 O   0  0  0  0  0  0  0  0  0  0  0  0
   -0.1611   -0.7198    0.9189 C   0  0  0  0  0  0  0  0  0  0  0  0
   -3.4686   -0.6871    0.9193 H   0  0  0  0  0  0  0  0  0  0  0  0
   -3.9676    1.0318    0.7314 H   0  0  0  0  0  0  0  0  0  0  0  0
   -3.6118    0.0601   -0.7091 H   0  0  0  0  0  0  0  0  0  0  0  0
   -1.6631   -1.1627   -0.5103 H   0  0  0  0  0  0  0  0  0  0  0  0
   -0.4988   -0.2376   -2.2052 H   0  0  0  0  0  0  0  0  0  0  0  0
   -0.5698    1.3842   -1.4781 H   0  0  0  0  0  0  0  0  0  0  0  0
    1.6952    0.9955   -1.7163 H   0  0  0  0  0  0  0  0  0  0  0  0
    1.6229   -0.7370   -1.2892 H   0  0  0  0  0  0  0  0  0  0  0  0
    1.8939    1.7038    0.4345 H   0  0  0  0  0  0  0  0  0  0  0  0
    3.3483   -0.6579    0.0092 H   0  0  0  0  0  0  0  0  0  0  0  0
    2.5062   -0.9532    1.5463 H   0  0  0  0  0  0  0  0  0  0  0  0
    3.5728    0.5047    1.3445 H   0  0  0  0  0  0  0  0  0  0  0  0
    0.4645   -1.5253    0.5326 H   0  0  0  0  0  0  0  0  0  0  0  0
   -0.7379   -1.0841    1.8029 H   0  0  0  0  0  0  0  0  0  0  0  0
  1  2  1  0
  2  3  1  0
  3  4  1  0
  4  5  1  0
  5  6  1  0
  6  7  1  0
  6  8  1  0
  8  9  1  0
  9  3  1  0
  1 10  1  0
  1 11  1  0
  1 12  1  0
  3 13  1  0
  4 14  1  0
  4 15  1  0
  5 16  1  0
  5 17  1  0
  6 18  1  0
  7 19  1  0
  7 20  1  0
  7 21  1  0
  9 22  1  0
  9 23  1  0
M  END
