
     RDKit          3D

 13 13  0  0  0  0  0  0  0  0999 V2000
   -1.9004   -0.5056    0.0633 C   0  0  0  0  0  0  0  0  0  0  0  0
   -0.7046   -0.3039    0.7477 O   0  0  0  0  0  0  0  0  0  0  0  0
    0.2392    0.1478   -0.1399 C   0  0  0  0  0  0  0  0  0  0  0  0
    1.6052   -0.4859   -0.0384 C   0  0  0  0  0  0  0  0  0  0  0  0
    1.8407    0.4415    1.0234 O   0  0  0  0  0  0  0  0  0  0  0  0
    1.0036    1.3122    0.3568 C   0  0  0  0  0  0  0  0  0  0  0  0
    0.9414    2.5484    0.2402 O   0  0  0  0  0  0  0  0  0  0  0  0
   -1.7973   -1.2530   -0.7519 H   0  0  0  0  0  0  0  0  0  0  0  0
   -2.1820    0.4820   -0.3995 H   0  0  0  0  0  0  0  0  0  0  0  0
   -2.7190   -0.8552    0.7190 H   0  0  0  0  0  0  0  0  0  0  0  0
   -0.1553    0.2449   -1.1640 H   0  0  0  0  0  0  0  0  0  0  0  0
    2.1845   -0.2551   -0.9696 H   0  0  0  0  0  0  0  0  0  0  0  0
    1.6439   -1.5181    0.3130 H   0  0  0  0  0  0  0  0  0  0  0  0
  1  2  1  0
  2  3  1  0
  3  4  1  0
  4  5  1  0
  5  6  1  0
  6  7  2  0
  6  3  1  0
  1  8  1  0
  1  9  1  0
  1 10  1  0
  3 11  1  0
  4 12  1  0
  4 13  1  0
M  END
