
     RDKit          3D

 19 20  0  0  0  0  0  0  0  0999 V2000
    2.5480   -0.3288    0.3587 C   0  0  0  0  0  0  0  0  0  0  0  0
    1.2085   -0.7089    0.5964 O   0  0  0  0  0  0  0  0  0  0  0  0
    0.4146    0.1494   -0.1122 C   0  0  0  0  0  0  0  0  0  0  0  0
   -0.6897    0.7703    0.7754 C   0  0  0  0  0  0  0  0  0  0  0  0
   -1.4661    1.3957   -0.3536 C   0  0  0  0  0  0  0  0  0  0  0  0
   -1.4635    0.4376   -1.3420 O   0  0  0  0  0  0  0  0  0  0  0  0
   -0.6369   -0.6024   -0.9496 C   0  0  0  0  0  0  0  0  0  0  0  0
   -1.3183   -1.3040    0.1999 C   0  0  0  0  0  0  0  0  0  0  0  0
   -1.2901   -0.3929    1.2490 O   0  0  0  0  0  0  0  0  0  0  0  0
    3.1722   -1.0275    0.9345 H   0  0  0  0  0  0  0  0  0  0  0  0
    2.7453    0.7026    0.6879 H   0  0  0  0  0  0  0  0  0  0  0  0
    2.6841   -0.4377   -0.7469 H   0  0  0  0  0  0  0  0  0  0  0  0
    0.9239    0.9136   -0.6884 H   0  0  0  0  0  0  0  0  0  0  0  0
   -0.3074    1.4319    1.5200 H   0  0  0  0  0  0  0  0  0  0  0  0
   -0.8289    2.2474   -0.7299 H   0  0  0  0  0  0  0  0  0  0  0  0
   -2.4493    1.7695   -0.0755 H   0  0  0  0  0  0  0  0  0  0  0  0
   -0.2294   -1.2159   -1.7147 H   0  0  0  0  0  0  0  0  0  0  0  0
   -0.6824   -2.1926    0.4839 H   0  0  0  0  0  0  0  0  0  0  0  0
   -2.3345   -1.6072   -0.0928 H   0  0  0  0  0  0  0  0  0  0  0  0
  1  2  1  0
  2  3  1  0
  3  4  1  0
  4  5  1  0
  5  6  1  0
  6  7  1  0
  7  8  1  0
  8  9  1  0
  7  3  1  0
  9  4  1  0
  1 10  1  0
  1 11  1  0
  1 12  1  0
  3 13  1  0
  4 14  1  0
  5 15  1  0
  5 16  1  0
  7 17  1  0
  8 18  1  0
  8 19  1  0
M  END
