
     RDKit          3D

 23 24  0  0  0  0  0  0  0  0999 V2000
    2.9105    0.2407    0.2271 C   0  0  0  0  0  0  0  0  0  0  0  0
    1.7960    1.0043   -0.0602 O   0  0  0  0  0  0  0  0  0  0  0  0
    0.7285    0.3576   -0.1321 C   0  0  0  0  0  0  0  0  0  0  0  0
    0.0786   -0.4758    0.9505 C   0  0  0  0  0  0  0  0  0  0  0  0
   -0.8368   -0.6264   -0.2196 C   0  0  0  0  0  0  0  0  0  0  0  0
   -1.9973   -1.3519   -0.3125 C   0  0  0  0  0  0  0  0  0  0  0  0
    0.4095   -0.7947   -1.0576 C   0  0  0  0  0  0  0  0  0  0  0  0
   -0.6454    0.8426   -0.4560 C   0  0  0  0  0  0  0  0  0  0  0  0
   -1.2918    1.7611    0.5411 C   0  0  0  0  0  0  0  0  0  0  0  0
    3.7932    0.9168    0.2657 H   0  0  0  0  0  0  0  0  0  0  0  0
    3.0931   -0.4543   -0.6190 H   0  0  0  0  0  0  0  0  0  0  0  0
    2.7911   -0.3678    1.1392 H   0  0  0  0  0  0  0  0  0  0  0  0
    0.5902   -1.4326    1.1812 H   0  0  0  0  0  0  0  0  0  0  0  0
   -0.3079    0.0725    1.8170 H   0  0  0  0  0  0  0  0  0  0  0  0
   -2.7661   -0.8627   -0.9687 H   0  0  0  0  0  0  0  0  0  0  0  0
   -2.5159   -1.5187    0.6539 H   0  0  0  0  0  0  0  0  0  0  0  0
   -1.8423   -2.3819   -0.7341 H   0  0  0  0  0  0  0  0  0  0  0  0
    0.3281   -0.4354   -2.1022 H   0  0  0  0  0  0  0  0  0  0  0  0
    0.9614   -1.7173   -0.8951 H   0  0  0  0  0  0  0  0  0  0  0  0
   -0.8469    1.0869   -1.5246 H   0  0  0  0  0  0  0  0  0  0  0  0
   -1.6105    2.6931   -0.0128 H   0  0  0  0  0  0  0  0  0  0  0  0
   -0.6181    2.1036    1.3353 H   0  0  0  0  0  0  0  0  0  0  0  0
   -2.2013    1.3401    0.9833 H   0  0  0  0  0  0  0  0  0  0  0  0
  1  2  1  0
  2  3  1  0
  3  4  1  0
  4  5  1  0
  5  6  1  0
  5  7  1  0
  5  8  1  0
  8  9  1  0
  7  3  1  0
  8  3  1  0
  1 10  1  0
  1 11  1  0
  1 12  1  0
  4 13  1  0
  4 14  1  0
  6 15  1  0
  6 16  1  0
  6 17  1  0
  7 18  1  0
  7 19  1  0
  8 20  1  0
  9 21  1  0
  9 22  1  0
  9 23  1  0
M  END
