
     RDKit          3D

 20 20  0  0  0  0  0  0  0  0999 V2000
   -2.4171    0.8065    0.3153 C   0  0  0  0  0  0  0  0  0  0  0  0
   -1.4630    0.2111   -0.5415 O   0  0  0  0  0  0  0  0  0  0  0  0
   -0.7595   -0.7118    0.1868 C   0  0  0  0  0  0  0  0  0  0  0  0
   -0.3643   -1.9397   -0.6066 C   0  0  0  0  0  0  0  0  0  0  0  0
    0.6896   -1.0300   -0.1539 C   0  0  0  0  0  0  0  0  0  0  0  0
    1.3495   -0.0217   -1.0235 C   0  0  0  0  0  0  0  0  0  0  0  0
    1.3375    1.3178   -0.3170 C   0  0  0  0  0  0  0  0  0  0  0  0
    2.0237    1.2366    0.8980 O   0  0  0  0  0  0  0  0  0  0  0  0
   -1.8103    1.2783    1.1334 H   0  0  0  0  0  0  0  0  0  0  0  0
   -2.9590    1.5370   -0.2940 H   0  0  0  0  0  0  0  0  0  0  0  0
   -3.0664    0.0390    0.7840 H   0  0  0  0  0  0  0  0  0  0  0  0
   -1.0057   -0.8566    1.2594 H   0  0  0  0  0  0  0  0  0  0  0  0
   -0.5973   -1.9905   -1.6878 H   0  0  0  0  0  0  0  0  0  0  0  0
   -0.5240   -2.8871   -0.0777 H   0  0  0  0  0  0  0  0  0  0  0  0
    1.3432   -1.4130    0.6646 H   0  0  0  0  0  0  0  0  0  0  0  0
    2.4071   -0.2527   -1.2457 H   0  0  0  0  0  0  0  0  0  0  0  0
    0.8131    0.1322   -1.9989 H   0  0  0  0  0  0  0  0  0  0  0  0
    0.3151    1.6754   -0.0785 H   0  0  0  0  0  0  0  0  0  0  0  0
    1.8106    2.1115   -0.9408 H   0  0  0  0  0  0  0  0  0  0  0  0
    2.8773    0.7577    0.8269 H   0  0  0  0  0  0  0  0  0  0  0  0
  1  2  1  0
  2  3  1  0
  3  4  1  0
  4  5  1  0
  5  6  1  0
  6  7  1  0
  7  8  1  0
  5  3  1  0
  1  9  1  0
  1 10  1  0
  1 11  1  0
  3 12  1  0
  4 13  1  0
  4 14  1  0
  5 15  1  0
  6 16  1  0
  6 17  1  0
  7 18  1  0
  7 19  1  0
  8 20  1  0
M  END
