
     RDKit          3D

 23 24  0  0  0  0  0  0  0  0999 V2000
    2.4933    0.0308    1.2102 C   0  0  0  0  0  0  0  0  0  0  0  0
    1.1894    0.5305    1.0719 O   0  0  0  0  0  0  0  0  0  0  0  0
    0.7321    0.1577   -0.1643 C   0  0  0  0  0  0  0  0  0  0  0  0
   -0.0548    1.2305   -0.9127 C   0  0  0  0  0  0  0  0  0  0  0  0
   -1.0273    1.6919    0.1095 C   0  0  0  0  0  0  0  0  0  0  0  0
   -1.5462    0.3308    0.6200 C   0  0  0  0  0  0  0  0  0  0  0  0
   -0.6262   -0.5555   -0.1618 C   0  0  0  0  0  0  0  0  0  0  0  0
   -0.6464   -1.9917    0.0031 C   0  0  0  0  0  0  0  0  0  0  0  0
   -0.7675    0.0327   -1.5559 C   0  0  0  0  0  0  0  0  0  0  0  0
    3.0929    0.4872    0.3927 H   0  0  0  0  0  0  0  0  0  0  0  0
    2.9085    0.2375    2.2099 H   0  0  0  0  0  0  0  0  0  0  0  0
    2.4433   -1.0594    0.9809 H   0  0  0  0  0  0  0  0  0  0  0  0
    1.4167   -0.4331   -0.8035 H   0  0  0  0  0  0  0  0  0  0  0  0
    0.4671    1.8958   -1.5447 H   0  0  0  0  0  0  0  0  0  0  0  0
   -1.8511    2.2890   -0.3038 H   0  0  0  0  0  0  0  0  0  0  0  0
   -0.5191    2.1620    0.9648 H   0  0  0  0  0  0  0  0  0  0  0  0
   -1.4576    0.2470    1.6984 H   0  0  0  0  0  0  0  0  0  0  0  0
   -2.5685    0.2032    0.2175 H   0  0  0  0  0  0  0  0  0  0  0  0
   -0.9193   -2.2752    1.0255 H   0  0  0  0  0  0  0  0  0  0  0  0
    0.3901   -2.4024   -0.1863 H   0  0  0  0  0  0  0  0  0  0  0  0
   -1.2884   -2.5590   -0.7287 H   0  0  0  0  0  0  0  0  0  0  0  0
   -0.0797   -0.4778   -2.2512 H   0  0  0  0  0  0  0  0  0  0  0  0
   -1.7814    0.2276   -1.8915 H   0  0  0  0  0  0  0  0  0  0  0  0
  1  2  1  0
  2  3  1  0
  3  4  1  0
  4  5  1  0
  5  6  1  0
  6  7  1  0
  7  8  1  0
  7  9  1  0
  7  3  1  0
  9  4  1  0
  1 10  1  0
  1 11  1  0
  1 12  1  0
  3 13  1  0
  4 14  1  0
  5 15  1  0
  5 16  1  0
  6 17  1  0
  6 18  1  0
  8 19  1  0
  8 20  1  0
  8 21  1  0
  9 22  1  0
  9 23  1  0
M  END
