
     RDKit          3D

 21 22  0  0  0  0  0  0  0  0999 V2000
    2.1800    0.1884    1.3752 C   0  0  0  0  0  0  0  0  0  0  0  0
    0.9922   -0.5180    1.2032 O   0  0  0  0  0  0  0  0  0  0  0  0
    0.3979   -0.2289    0.0009 C   0  0  0  0  0  0  0  0  0  0  0  0
    1.2597   -0.5605   -1.2139 C   0  0  0  0  0  0  0  0  0  0  0  0
   -0.5049    0.9455   -0.0247 C   0  0  0  0  0  0  0  0  0  0  0  0
   -1.3876    1.2488   -1.1892 C   0  0  0  0  0  0  0  0  0  0  0  0
   -1.5686   -0.0922   -1.4399 O   0  0  0  0  0  0  0  0  0  0  0  0
   -1.0555   -0.3958   -0.2124 C   0  0  0  0  0  0  0  0  0  0  0  0
   -1.9434   -1.0805    0.7630 C   0  0  0  0  0  0  0  0  0  0  0  0
    2.9083   -0.0569    0.5767 H   0  0  0  0  0  0  0  0  0  0  0  0
    2.0242    1.2860    1.3535 H   0  0  0  0  0  0  0  0  0  0  0  0
    2.6568   -0.1185    2.3300 H   0  0  0  0  0  0  0  0  0  0  0  0
    2.1333    0.0905   -1.3045 H   0  0  0  0  0  0  0  0  0  0  0  0
    1.6470   -1.6069   -1.0840 H   0  0  0  0  0  0  0  0  0  0  0  0
    0.6425   -0.4631   -2.1377 H   0  0  0  0  0  0  0  0  0  0  0  0
   -0.6065    1.5485    0.8793 H   0  0  0  0  0  0  0  0  0  0  0  0
   -0.8747    1.8454   -1.9537 H   0  0  0  0  0  0  0  0  0  0  0  0
   -2.3201    1.7869   -0.8501 H   0  0  0  0  0  0  0  0  0  0  0  0
   -1.4409   -1.3077    1.7233 H   0  0  0  0  0  0  0  0  0  0  0  0
   -2.8545   -0.4664    0.9122 H   0  0  0  0  0  0  0  0  0  0  0  0
   -2.2853   -2.0446    0.2927 H   0  0  0  0  0  0  0  0  0  0  0  0
  1  2  1  0
  2  3  1  0
  3  4  1  0
  3  5  1  0
  5  6  1  0
  6  7  1  0
  7  8  1  0
  8  9  1  0
  8  3  1  0
  8  5  1  0
  1 10  1  0
  1 11  1  0
  1 12  1  0
  4 13  1  0
  4 14  1  0
  4 15  1  0
  5 16  1  0
  6 17  1  0
  6 18  1  0
  9 19  1  0
  9 20  1  0
  9 21  1  0
M  END
