
     RDKit          3D

 19 21  0  0  0  0  0  0  0  0999 V2000
    3.0559    0.2683    0.2251 C   0  0  0  0  0  0  0  0  0  0  0  0
    2.0030   -0.5865   -0.1483 O   0  0  0  0  0  0  0  0  0  0  0  0
    0.7776   -0.0067    0.0302 C   0  0  0  0  0  0  0  0  0  0  0  0
   -0.3312   -0.8515    0.4317 C   0  0  0  0  0  0  0  0  0  0  0  0
   -1.6533   -0.2749    0.9662 C   0  0  0  0  0  0  0  0  0  0  0  0
   -2.4399   -0.3664   -0.3017 C   0  0  0  0  0  0  0  0  0  0  0  0
   -2.7672    0.4745   -1.2393 O   0  0  0  0  0  0  0  0  0  0  0  0
   -1.4842    0.6320   -1.0307 C   0  0  0  0  0  0  0  0  0  0  0  0
   -0.3245   -0.2643   -1.0243 C   0  0  0  0  0  0  0  0  0  0  0  0
    4.0186   -0.2298    0.0681 H   0  0  0  0  0  0  0  0  0  0  0  0
    2.9111    0.4487    1.3239 H   0  0  0  0  0  0  0  0  0  0  0  0
    3.0171    1.2349   -0.2877 H   0  0  0  0  0  0  0  0  0  0  0  0
    0.7681    1.0454    0.4394 H   0  0  0  0  0  0  0  0  0  0  0  0
   -0.1906   -1.9475    0.4936 H   0  0  0  0  0  0  0  0  0  0  0  0
   -1.5319    0.7301    1.3606 H   0  0  0  0  0  0  0  0  0  0  0  0
   -2.0550   -1.0180    1.6751 H   0  0  0  0  0  0  0  0  0  0  0  0
   -2.3880   -1.4355   -0.6832 H   0  0  0  0  0  0  0  0  0  0  0  0
   -1.2869    1.6028   -0.4756 H   0  0  0  0  0  0  0  0  0  0  0  0
   -0.0987   -0.9831   -1.8231 H   0  0  0  0  0  0  0  0  0  0  0  0
  1  2  1  0
  2  3  1  0
  3  4  1  0
  4  5  1  0
  5  6  1  0
  6  7  1  0
  7  8  1  0
  8  9  1  0
  9  3  1  0
  9  4  1  0
  8  6  1  0
  1 10  1  0
  1 11  1  0
  1 12  1  0
  3 13  1  0
  4 14  1  0
  5 15  1  0
  5 16  1  0
  6 17  1  0
  8 18  1  0
  9 19  1  0
M  END
