
     RDKit          3D

 21 22  0  0  0  0  0  0  0  0999 V2000
    2.6014    0.3366   -0.0646 C   0  0  0  0  0  0  0  0  0  0  0  0
    1.4820    0.2363   -0.8527 O   0  0  0  0  0  0  0  0  0  0  0  0
    0.4233   -0.2545   -0.1375 C   0  0  0  0  0  0  0  0  0  0  0  0
   -0.1085   -1.5732   -0.7178 C   0  0  0  0  0  0  0  0  0  0  0  0
   -1.3728   -1.7229    0.1120 C   0  0  0  0  0  0  0  0  0  0  0  0
   -2.5658   -1.2046   -0.3833 O   0  0  0  0  0  0  0  0  0  0  0  0
   -1.8530   -0.3155    0.4036 C   0  0  0  0  0  0  0  0  0  0  0  0
   -0.8285    0.5876   -0.2832 C   0  0  0  0  0  0  0  0  0  0  0  0
   -0.7263    1.9276    0.3411 C   0  0  0  0  0  0  0  0  0  0  0  0
    2.4662    1.0143    0.8143 H   0  0  0  0  0  0  0  0  0  0  0  0
    2.9789   -0.6299    0.3221 H   0  0  0  0  0  0  0  0  0  0  0  0
    3.4562    0.7728   -0.6529 H   0  0  0  0  0  0  0  0  0  0  0  0
    0.6559   -0.4764    0.9218 H   0  0  0  0  0  0  0  0  0  0  0  0
    0.5977   -2.3953   -0.5780 H   0  0  0  0  0  0  0  0  0  0  0  0
   -0.4049   -1.3734   -1.7518 H   0  0  0  0  0  0  0  0  0  0  0  0
   -1.3734   -2.3895    0.9809 H   0  0  0  0  0  0  0  0  0  0  0  0
   -2.2071   -0.0458    1.4023 H   0  0  0  0  0  0  0  0  0  0  0  0
   -1.0780    0.5991   -1.3625 H   0  0  0  0  0  0  0  0  0  0  0  0
   -1.2085    1.9967    1.3513 H   0  0  0  0  0  0  0  0  0  0  0  0
   -1.2647    2.6573   -0.3277 H   0  0  0  0  0  0  0  0  0  0  0  0
    0.3300    2.2526    0.3579 H   0  0  0  0  0  0  0  0  0  0  0  0
  1  2  1  0
  2  3  1  0
  3  4  1  0
  4  5  1  0
  5  6  1  0
  6  7  1  0
  7  8  1  0
  8  9  1  0
  8  3  1  0
  7  5  1  0
  1 10  1  0
  1 11  1  0
  1 12  1  0
  3 13  1  0
  4 14  1  0
  4 15  1  0
  5 16  1  0
  7 17  1  0
  8 18  1  0
  9 19  1  0
  9 20  1  0
  9 21  1  0
M  END
