
     RDKit          3D

 25 25  0  0  0  0  0  0  0  0999 V2000
   -3.6153    0.0526   -0.1318 C   0  0  0  0  0  0  0  0  0  0  0  0
   -2.2794    0.3641   -0.0517 O   0  0  0  0  0  0  0  0  0  0  0  0
   -1.4690   -0.6927    0.2851 C   0  0  0  0  0  0  0  0  0  0  0  0
   -0.4486   -0.2556    1.3516 C   0  0  0  0  0  0  0  0  0  0  0  0
    0.2383    0.4579    0.2140 C   0  0  0  0  0  0  0  0  0  0  0  0
    1.7180    0.6103    0.2703 C   0  0  0  0  0  0  0  0  0  0  0  0
    2.4463   -0.7153    0.3187 C   0  0  0  0  0  0  0  0  0  0  0  0
    2.1285    1.3300   -1.0224 C   0  0  0  0  0  0  0  0  0  0  0  0
   -0.2529   -0.7083   -0.6582 C   0  0  0  0  0  0  0  0  0  0  0  0
   -4.0022   -0.3252    0.8248 H   0  0  0  0  0  0  0  0  0  0  0  0
   -4.1607    1.0068   -0.3525 H   0  0  0  0  0  0  0  0  0  0  0  0
   -3.8539   -0.6918   -0.9115 H   0  0  0  0  0  0  0  0  0  0  0  0
   -1.9227   -1.6641    0.4582 H   0  0  0  0  0  0  0  0  0  0  0  0
    0.1736   -1.0784    1.7196 H   0  0  0  0  0  0  0  0  0  0  0  0
   -0.9087    0.3914    2.1213 H   0  0  0  0  0  0  0  0  0  0  0  0
   -0.3364    1.3510   -0.0800 H   0  0  0  0  0  0  0  0  0  0  0  0
    2.0747    1.1857    1.1434 H   0  0  0  0  0  0  0  0  0  0  0  0
    3.5328   -0.5303    0.4713 H   0  0  0  0  0  0  0  0  0  0  0  0
    2.1232   -1.2927    1.2062 H   0  0  0  0  0  0  0  0  0  0  0  0
    2.3343   -1.2654   -0.6372 H   0  0  0  0  0  0  0  0  0  0  0  0
    2.0950    0.6104   -1.8655 H   0  0  0  0  0  0  0  0  0  0  0  0
    1.4017    2.1595   -1.2203 H   0  0  0  0  0  0  0  0  0  0  0  0
    3.1222    1.7670   -0.9471 H   0  0  0  0  0  0  0  0  0  0  0  0
   -0.4771   -0.4426   -1.6886 H   0  0  0  0  0  0  0  0  0  0  0  0
    0.3382   -1.6242   -0.4888 H   0  0  0  0  0  0  0  0  0  0  0  0
  1  2  1  0
  2  3  1  0
  3  4  1  0
  4  5  1  0
  5  6  1  0
  6  7  1  0
  6  8  1  0
  5  9  1  0
  9  3  1  0
  1 10  1  0
  1 11  1  0
  1 12  1  0
  3 13  1  0
  4 14  1  0
  4 15  1  0
  5 16  1  0
  6 17  1  0
  7 18  1  0
  7 19  1  0
  7 20  1  0
  8 21  1  0
  8 22  1  0
  8 23  1  0
  9 24  1  0
  9 25  1  0
M  END
