
     RDKit          3D

 21 21  0  0  0  0  0  0  0  0999 V2000
    2.9470   -0.1774   -0.1543 C   0  0  0  0  0  0  0  0  0  0  0  0
    1.8867    0.4474    0.4829 O   0  0  0  0  0  0  0  0  0  0  0  0
    0.6709   -0.1132    0.1734 C   0  0  0  0  0  0  0  0  0  0  0  0
   -0.0988   -0.5894    1.3295 C   0  0  0  0  0  0  0  0  0  0  0  0
   -1.3797   -0.8146    1.1785 C   0  0  0  0  0  0  0  0  0  0  0  0
   -2.0798   -0.6066   -0.1170 C   0  0  0  0  0  0  0  0  0  0  0  0
   -1.3356    0.1994   -1.1213 C   0  0  0  0  0  0  0  0  0  0  0  0
   -0.2168    0.9590   -0.4690 C   0  0  0  0  0  0  0  0  0  0  0  0
   -0.7926    1.7026    0.5875 O   0  0  0  0  0  0  0  0  0  0  0  0
    2.9486   -1.2381    0.1687 H   0  0  0  0  0  0  0  0  0  0  0  0
    2.8514   -0.1900   -1.2580 H   0  0  0  0  0  0  0  0  0  0  0  0
    3.8643    0.3709    0.1175 H   0  0  0  0  0  0  0  0  0  0  0  0
    0.7631   -0.9746   -0.5395 H   0  0  0  0  0  0  0  0  0  0  0  0
    0.3876   -0.7429    2.2615 H   0  0  0  0  0  0  0  0  0  0  0  0
   -2.0052   -1.1736    2.0182 H   0  0  0  0  0  0  0  0  0  0  0  0
   -2.2664   -1.6310   -0.5286 H   0  0  0  0  0  0  0  0  0  0  0  0
   -3.0573   -0.1140    0.0592 H   0  0  0  0  0  0  0  0  0  0  0  0
   -0.8568   -0.4911   -1.8682 H   0  0  0  0  0  0  0  0  0  0  0  0
   -1.9891    0.8949   -1.6984 H   0  0  0  0  0  0  0  0  0  0  0  0
    0.3373    1.6189   -1.1312 H   0  0  0  0  0  0  0  0  0  0  0  0
   -0.5787    2.6633    0.5087 H   0  0  0  0  0  0  0  0  0  0  0  0
  1  2  1  0
  2  3  1  0
  3  4  1  0
  4  5  2  0
  5  6  1  0
  6  7  1  0
  7  8  1  0
  8  9  1  0
  8  3  1  0
  1 10  1  0
  1 11  1  0
  1 12  1  0
  3 13  1  0
  4 14  1  0
  5 15  1  0
  6 16  1  0
  6 17  1  0
  7 18  1  0
  7 19  1  0
  8 20  1  0
  9 21  1  0
M  END
