
     RDKit          3D

 20 20  0  0  0  0  0  0  0  0999 V2000
    2.7984   -0.2637    0.4288 C   0  0  0  0  0  0  0  0  0  0  0  0
    1.7456    0.1867   -0.3585 O   0  0  0  0  0  0  0  0  0  0  0  0
    0.5170    0.0453    0.2845 C   0  0  0  0  0  0  0  0  0  0  0  0
   -0.3176   -0.8847   -0.5538 C   0  0  0  0  0  0  0  0  0  0  0  0
   -1.7657   -0.5534   -0.4771 C   0  0  0  0  0  0  0  0  0  0  0  0
   -2.1411    0.3587    0.6350 C   0  0  0  0  0  0  0  0  0  0  0  0
   -1.3773    1.4633    0.7939 O   0  0  0  0  0  0  0  0  0  0  0  0
   -0.0813    1.4096    0.4281 C   0  0  0  0  0  0  0  0  0  0  0  0
    3.7730   -0.1512   -0.0822 H   0  0  0  0  0  0  0  0  0  0  0  0
    2.8717    0.2732    1.3902 H   0  0  0  0  0  0  0  0  0  0  0  0
    2.6123   -1.3385    0.6398 H   0  0  0  0  0  0  0  0  0  0  0  0
    0.7228   -0.3978    1.2697 H   0  0  0  0  0  0  0  0  0  0  0  0
    0.0405   -0.8889   -1.6118 H   0  0  0  0  0  0  0  0  0  0  0  0
   -0.1078   -1.9226   -0.1805 H   0  0  0  0  0  0  0  0  0  0  0  0
   -2.1346   -0.1842   -1.4645 H   0  0  0  0  0  0  0  0  0  0  0  0
   -2.3223   -1.5219   -0.3176 H   0  0  0  0  0  0  0  0  0  0  0  0
   -2.2517   -0.2620    1.5721 H   0  0  0  0  0  0  0  0  0  0  0  0
   -3.1987    0.7031    0.4270 H   0  0  0  0  0  0  0  0  0  0  0  0
    0.0679    1.9732   -0.5209 H   0  0  0  0  0  0  0  0  0  0  0  0
    0.5490    1.9559    1.1856 H   0  0  0  0  0  0  0  0  0  0  0  0
  1  2  1  0
  2  3  1  0
  3  4  1  0
  4  5  1  0
  5  6  1  0
  6  7  1  0
  7  8  1  0
  8  3  1  0
  1  9  1  0
  1 10  1  0
  1 11  1  0
  3 12  1  0
  4 13  1  0
  4 14  1  0
  5 15  1  0
  5 16  1  0
  6 17  1  0
  6 18  1  0
  8 19  1  0
  8 20  1  0
M  END
