
     RDKit          3D

 17 17  0  0  0  0  0  0  0  0999 V2000
    2.5650    0.0138   -0.0643 C   0  0  0  0  0  0  0  0  0  0  0  0
    1.4493    0.1579    0.7518 O   0  0  0  0  0  0  0  0  0  0  0  0
    0.3200    0.0820   -0.0533 C   0  0  0  0  0  0  0  0  0  0  0  0
   -0.5532   -1.0192    0.4887 C   0  0  0  0  0  0  0  0  0  0  0  0
   -1.9558   -0.5529    0.2737 C   0  0  0  0  0  0  0  0  0  0  0  0
   -1.8600    0.9177    0.4524 C   0  0  0  0  0  0  0  0  0  0  0  0
   -2.7646    1.7055    0.8898 O   0  0  0  0  0  0  0  0  0  0  0  0
   -0.5171    1.2994    0.0275 C   0  0  0  0  0  0  0  0  0  0  0  0
   -0.1950    2.4852   -0.2127 O   0  0  0  0  0  0  0  0  0  0  0  0
    3.4527    0.0779    0.6004 H   0  0  0  0  0  0  0  0  0  0  0  0
    2.5023   -0.9832   -0.5531 H   0  0  0  0  0  0  0  0  0  0  0  0
    2.5433    0.8441   -0.8049 H   0  0  0  0  0  0  0  0  0  0  0  0
    0.5926   -0.0684   -1.1011 H   0  0  0  0  0  0  0  0  0  0  0  0
   -0.3086   -1.9383   -0.0856 H   0  0  0  0  0  0  0  0  0  0  0  0
   -0.3314   -1.2547    1.5502 H   0  0  0  0  0  0  0  0  0  0  0  0
   -2.2691   -0.8389   -0.7466 H   0  0  0  0  0  0  0  0  0  0  0  0
   -2.6703   -0.9279    1.0279 H   0  0  0  0  0  0  0  0  0  0  0  0
  1  2  1  0
  2  3  1  0
  3  4  1  0
  4  5  1  0
  5  6  1  0
  6  7  2  0
  6  8  1  0
  8  9  2  0
  8  3  1  0
  1 10  1  0
  1 11  1  0
  1 12  1  0
  3 13  1  0
  4 14  1  0
  4 15  1  0
  5 16  1  0
  5 17  1  0
M  END
