
     RDKit          3D

 19 20  0  0  0  0  0  0  0  0999 V2000
    2.4945    0.4953   -0.2541 C   0  0  0  0  0  0  0  0  0  0  0  0
    1.5432   -0.1644   -0.9951 O   0  0  0  0  0  0  0  0  0  0  0  0
    0.3367   -0.1457   -0.3506 C   0  0  0  0  0  0  0  0  0  0  0  0
   -0.3383    1.1558   -0.0412 C   0  0  0  0  0  0  0  0  0  0  0  0
   -1.3753    0.8549    0.8493 O   0  0  0  0  0  0  0  0  0  0  0  0
   -2.3427    0.1290    0.2206 C   0  0  0  0  0  0  0  0  0  0  0  0
   -1.9428   -0.9998   -0.4195 O   0  0  0  0  0  0  0  0  0  0  0  0
   -0.6247   -1.2444   -0.5330 C   0  0  0  0  0  0  0  0  0  0  0  0
    0.2059   -1.2514    0.7297 C   0  0  0  0  0  0  0  0  0  0  0  0
    2.1937    1.5424   -0.1171 H   0  0  0  0  0  0  0  0  0  0  0  0
    3.4944    0.5115   -0.7297 H   0  0  0  0  0  0  0  0  0  0  0  0
    2.5514   -0.0009    0.7488 H   0  0  0  0  0  0  0  0  0  0  0  0
    0.2978    1.9589    0.3194 H   0  0  0  0  0  0  0  0  0  0  0  0
   -0.8556    1.4889   -0.9834 H   0  0  0  0  0  0  0  0  0  0  0  0
   -2.8812    0.7782   -0.5221 H   0  0  0  0  0  0  0  0  0  0  0  0
   -3.0983   -0.1721    1.0040 H   0  0  0  0  0  0  0  0  0  0  0  0
   -0.3614   -1.9923   -1.3382 H   0  0  0  0  0  0  0  0  0  0  0  0
   -0.2782   -0.9150    1.6600 H   0  0  0  0  0  0  0  0  0  0  0  0
    0.9810   -2.0290    0.7520 H   0  0  0  0  0  0  0  0  0  0  0  0
  1  2  1  0
  2  3  1  0
  3  4  1  0
  4  5  1  0
  5  6  1  0
  6  7  1  0
  7  8  1  0
  8  9  1  0
  8  3  1  0
  9  3  1  0
  1 10  1  0
  1 11  1  0
  1 12  1  0
  4 13  1  0
  4 14  1  0
  6 15  1  0
  6 16  1  0
  8 17  1  0
  9 18  1  0
  9 19  1  0
M  END
