
     RDKit          3D

 20 20  0  0  0  0  0  0  0  0999 V2000
    2.5577   -0.9758    0.1470 C   0  0  0  0  0  0  0  0  0  0  0  0
    1.5666   -0.1350    0.5619 O   0  0  0  0  0  0  0  0  0  0  0  0
    0.5465    0.1245   -0.2658 C   0  0  0  0  0  0  0  0  0  0  0  0
    0.0120    1.4892   -0.4450 C   0  0  0  0  0  0  0  0  0  0  0  0
   -1.3024    1.1169    0.2194 C   0  0  0  0  0  0  0  0  0  0  0  0
   -1.5325    1.7729    1.4373 O   0  0  0  0  0  0  0  0  0  0  0  0
   -0.7789   -0.2838    0.3602 C   0  0  0  0  0  0  0  0  0  0  0  0
   -1.5977   -1.2422   -0.4523 C   0  0  0  0  0  0  0  0  0  0  0  0
    2.1943   -2.0103   -0.1055 H   0  0  0  0  0  0  0  0  0  0  0  0
    3.1664   -0.6383   -0.6829 H   0  0  0  0  0  0  0  0  0  0  0  0
    3.2524   -1.1329    1.0134 H   0  0  0  0  0  0  0  0  0  0  0  0
    0.6558   -0.4186   -1.2439 H   0  0  0  0  0  0  0  0  0  0  0  0
   -0.1053    1.7837   -1.5085 H   0  0  0  0  0  0  0  0  0  0  0  0
    0.4759    2.3184    0.1089 H   0  0  0  0  0  0  0  0  0  0  0  0
   -2.1621    1.2447   -0.4461 H   0  0  0  0  0  0  0  0  0  0  0  0
   -0.6756    2.0448    1.8563 H   0  0  0  0  0  0  0  0  0  0  0  0
   -0.6985   -0.6081    1.4197 H   0  0  0  0  0  0  0  0  0  0  0  0
   -2.5661   -0.7649   -0.7839 H   0  0  0  0  0  0  0  0  0  0  0  0
   -1.0732   -1.5638   -1.3566 H   0  0  0  0  0  0  0  0  0  0  0  0
   -1.9354   -2.1212    0.1664 H   0  0  0  0  0  0  0  0  0  0  0  0
  1  2  1  0
  2  3  1  0
  3  4  1  0
  4  5  1  0
  5  6  1  0
  5  7  1  0
  7  8  1  0
  7  3  1  0
  1  9  1  0
  1 10  1  0
  1 11  1  0
  3 12  1  0
  4 13  1  0
  4 14  1  0
  5 15  1  0
  6 16  1  0
  7 17  1  0
  8 18  1  0
  8 19  1  0
  8 20  1  0
M  END
