
     RDKit          3D

 21 23  0  0  0  0  0  0  0  0999 V2000
    2.6159   -0.2799   -0.2831 C   0  0  0  0  0  0  0  0  0  0  0  0
    1.7074    0.6637    0.0584 O   0  0  0  0  0  0  0  0  0  0  0  0
    0.4241    0.3500    0.0735 C   0  0  0  0  0  0  0  0  0  0  0  0
   -0.0343   -0.7501    0.9946 C   0  0  0  0  0  0  0  0  0  0  0  0
   -1.5416   -0.7171    0.6922 C   0  0  0  0  0  0  0  0  0  0  0  0
   -1.6295   -0.3279   -0.7165 C   0  0  0  0  0  0  0  0  0  0  0  0
   -0.2045   -0.0928   -1.2383 C   0  0  0  0  0  0  0  0  0  0  0  0
   -1.8374    0.6872    0.3907 C   0  0  0  0  0  0  0  0  0  0  0  0
   -0.5217    1.4662    0.4660 C   0  0  0  0  0  0  0  0  0  0  0  0
    2.4828   -0.6882   -1.2876 H   0  0  0  0  0  0  0  0  0  0  0  0
    2.6549   -1.1608    0.4206 H   0  0  0  0  0  0  0  0  0  0  0  0
    3.6420    0.1876   -0.2250 H   0  0  0  0  0  0  0  0  0  0  0  0
    0.3115   -1.7514    0.6783 H   0  0  0  0  0  0  0  0  0  0  0  0
    0.1176   -0.5381    2.0573 H   0  0  0  0  0  0  0  0  0  0  0  0
   -2.2020   -1.4054    1.2008 H   0  0  0  0  0  0  0  0  0  0  0  0
   -2.4191   -0.5898   -1.4008 H   0  0  0  0  0  0  0  0  0  0  0  0
    0.1702   -1.0584   -1.5878 H   0  0  0  0  0  0  0  0  0  0  0  0
   -0.1568    0.7268   -1.9535 H   0  0  0  0  0  0  0  0  0  0  0  0
   -2.7822    1.1868    0.5330 H   0  0  0  0  0  0  0  0  0  0  0  0
   -0.3270    1.8612    1.4658 H   0  0  0  0  0  0  0  0  0  0  0  0
   -0.4702    2.2304   -0.3387 H   0  0  0  0  0  0  0  0  0  0  0  0
  1  2  1  0
  2  3  1  0
  3  4  1  0
  4  5  1  0
  5  6  1  0
  6  7  1  0
  6  8  1  0
  8  9  1  0
  7  3  1  0
  9  3  1  0
  8  5  1  0
  1 10  1  0
  1 11  1  0
  1 12  1  0
  4 13  1  0
  4 14  1  0
  5 15  1  0
  6 16  1  0
  7 17  1  0
  7 18  1  0
  8 19  1  0
  9 20  1  0
  9 21  1  0
M  END
