
     RDKit          3D

 14 15  0  0  0  0  0  0  0  0999 V2000
    1.9687   -0.1997   -0.1453 C   0  0  0  0  0  0  0  0  0  0  0  0
    0.7949   -0.8776   -0.3047 O   0  0  0  0  0  0  0  0  0  0  0  0
   -0.3391   -0.1068   -0.2968 C   0  0  0  0  0  0  0  0  0  0  0  0
   -1.6518   -0.7641   -0.4637 C   0  0  0  0  0  0  0  0  0  0  0  0
   -1.3091   -0.1017    0.8131 C   0  0  0  0  0  0  0  0  0  0  0  0
   -1.3109    1.3057    0.8819 O   0  0  0  0  0  0  0  0  0  0  0  0
   -0.2591    1.3525   -0.0502 C   0  0  0  0  0  0  0  0  0  0  0  0
    0.4071    2.3550   -0.4285 O   0  0  0  0  0  0  0  0  0  0  0  0
    1.9473    0.3315    0.8384 H   0  0  0  0  0  0  0  0  0  0  0  0
    2.7890   -0.9438   -0.0612 H   0  0  0  0  0  0  0  0  0  0  0  0
    2.1764    0.5433   -0.9427 H   0  0  0  0  0  0  0  0  0  0  0  0
   -1.6374   -1.8752   -0.4452 H   0  0  0  0  0  0  0  0  0  0  0  0
   -2.4271   -0.3618   -1.1456 H   0  0  0  0  0  0  0  0  0  0  0  0
   -1.1490   -0.6573    1.7506 H   0  0  0  0  0  0  0  0  0  0  0  0
  1  2  1  0
  2  3  1  0
  3  4  1  0
  4  5  1  0
  5  6  1  0
  6  7  1  0
  7  8  2  0
  5  3  1  0
  7  3  1  0
  1  9  1  0
  1 10  1  0
  1 11  1  0
  4 12  1  0
  4 13  1  0
  5 14  1  0
M  END
