
     RDKit          3D

 20 20  0  0  0  0  0  0  0  0999 V2000
    2.7721   -0.3414    0.1707 C   0  0  0  0  0  0  0  0  0  0  0  0
    1.4672   -0.5066    0.6163 O   0  0  0  0  0  0  0  0  0  0  0  0
    0.5755   -0.0491   -0.3261 C   0  0  0  0  0  0  0  0  0  0  0  0
   -0.3763   -1.1471   -0.7357 C   0  0  0  0  0  0  0  0  0  0  0  0
   -1.5469   -0.8906    0.2222 C   0  0  0  0  0  0  0  0  0  0  0  0
   -1.6901    0.6202   -0.0111 C   0  0  0  0  0  0  0  0  0  0  0  0
   -2.5157    1.2117    0.8983 O   0  0  0  0  0  0  0  0  0  0  0  0
   -0.2476    1.0529    0.2801 C   0  0  0  0  0  0  0  0  0  0  0  0
    3.4766   -0.7206    0.9540 H   0  0  0  0  0  0  0  0  0  0  0  0
    3.0399    0.7207    0.0132 H   0  0  0  0  0  0  0  0  0  0  0  0
    2.8693   -0.8598   -0.7891 H   0  0  0  0  0  0  0  0  0  0  0  0
    1.0515    0.3527   -1.2354 H   0  0  0  0  0  0  0  0  0  0  0  0
    0.0317   -2.1524   -0.6256 H   0  0  0  0  0  0  0  0  0  0  0  0
   -0.7872   -0.9455   -1.7544 H   0  0  0  0  0  0  0  0  0  0  0  0
   -1.2583   -1.0487    1.2702 H   0  0  0  0  0  0  0  0  0  0  0  0
   -2.4568   -1.3986   -0.0854 H   0  0  0  0  0  0  0  0  0  0  0  0
   -1.9125    0.8353   -1.0632 H   0  0  0  0  0  0  0  0  0  0  0  0
   -2.2864    2.1767    0.9545 H   0  0  0  0  0  0  0  0  0  0  0  0
   -0.0262    2.0332   -0.1575 H   0  0  0  0  0  0  0  0  0  0  0  0
   -0.1798    1.0570    1.4038 H   0  0  0  0  0  0  0  0  0  0  0  0
  1  2  1  0
  2  3  1  0
  3  4  1  0
  4  5  1  0
  5  6  1  0
  6  7  1  0
  6  8  1  0
  8  3  1  0
  1  9  1  0
  1 10  1  0
  1 11  1  0
  3 12  1  0
  4 13  1  0
  4 14  1  0
  5 15  1  0
  5 16  1  0
  6 17  1  0
  7 18  1  0
  8 19  1  0
  8 20  1  0
M  END
