
     RDKit          3D

 21 22  0  0  0  0  0  0  0  0999 V2000
    3.0912   -0.4899    0.2019 C   0  0  0  0  0  0  0  0  0  0  0  0
    2.0844    0.4754   -0.0370 O   0  0  0  0  0  0  0  0  0  0  0  0
    0.8897   -0.2082   -0.0722 C   0  0  0  0  0  0  0  0  0  0  0  0
    0.0003    0.1018   -1.2688 C   0  0  0  0  0  0  0  0  0  0  0  0
   -0.9626    0.7199   -0.2845 C   0  0  0  0  0  0  0  0  0  0  0  0
   -1.5473   -0.0214    0.8331 C   0  0  0  0  0  0  0  0  0  0  0  0
   -2.8577   -0.3366    0.3849 C   0  0  0  0  0  0  0  0  0  0  0  0
   -0.2011    0.4739    0.7630 C   0  0  0  0  0  0  0  0  0  0  0  0
    0.2038    1.4089    1.7139 O   0  0  0  0  0  0  0  0  0  0  0  0
    4.0943   -0.0272    0.2466 H   0  0  0  0  0  0  0  0  0  0  0  0
    2.8962   -1.0509    1.1339 H   0  0  0  0  0  0  0  0  0  0  0  0
    3.0706   -1.2559   -0.6186 H   0  0  0  0  0  0  0  0  0  0  0  0
    0.9491   -1.2991    0.0822 H   0  0  0  0  0  0  0  0  0  0  0  0
    0.4837    0.9270   -1.8624 H   0  0  0  0  0  0  0  0  0  0  0  0
   -0.3538   -0.7556   -1.8365 H   0  0  0  0  0  0  0  0  0  0  0  0
   -1.4740    1.6684   -0.5309 H   0  0  0  0  0  0  0  0  0  0  0  0
   -1.2368   -0.9215    1.4132 H   0  0  0  0  0  0  0  0  0  0  0  0
   -2.9647   -1.3118   -0.1815 H   0  0  0  0  0  0  0  0  0  0  0  0
   -3.4705    0.3808   -0.2202 H   0  0  0  0  0  0  0  0  0  0  0  0
   -3.5400   -0.5000    1.2802 H   0  0  0  0  0  0  0  0  0  0  0  0
    0.8451    2.0218    1.2435 H   0  0  0  0  0  0  0  0  0  0  0  0
  1  2  1  0
  2  3  1  0
  3  4  1  0
  4  5  1  0
  5  6  1  0
  6  7  1  0
  6  8  1  0
  8  9  1  0
  8  3  1  0
  8  5  1  0
  1 10  1  0
  1 11  1  0
  1 12  1  0
  3 13  1  0
  4 14  1  0
  4 15  1  0
  5 16  1  0
  6 17  1  0
  7 18  1  0
  7 19  1  0
  7 20  1  0
  9 21  1  0
M  END
