
     RDKit          3D

 21 22  0  0  0  0  0  0  0  0999 V2000
    3.2775    0.3053   -0.6529 C   0  0  0  0  0  0  0  0  0  0  0  0
    1.9137    0.3540   -0.9052 O   0  0  0  0  0  0  0  0  0  0  0  0
    1.2298   -0.1344    0.2004 C   0  0  0  0  0  0  0  0  0  0  0  0
    0.0185    0.5236    0.5450 C   0  0  0  0  0  0  0  0  0  0  0  0
   -1.0748    1.1063   -0.2664 C   0  0  0  0  0  0  0  0  0  0  0  0
   -2.2320    0.1572   -0.1850 C   0  0  0  0  0  0  0  0  0  0  0  0
   -2.0636   -1.0131    0.7069 C   0  0  0  0  0  0  0  0  0  0  0  0
   -0.8044   -1.5621    0.8038 O   0  0  0  0  0  0  0  0  0  0  0  0
    0.0523   -0.9329   -0.0109 C   0  0  0  0  0  0  0  0  0  0  0  0
    3.6205   -0.7525   -0.4518 H   0  0  0  0  0  0  0  0  0  0  0  0
    3.8812    0.6539   -1.5037 H   0  0  0  0  0  0  0  0  0  0  0  0
    3.5285    0.8627    0.2956 H   0  0  0  0  0  0  0  0  0  0  0  0
    1.9060   -0.4475    1.0196 H   0  0  0  0  0  0  0  0  0  0  0  0
   -0.1967    0.6483    1.6442 H   0  0  0  0  0  0  0  0  0  0  0  0
   -0.7374    1.1495   -1.3220 H   0  0  0  0  0  0  0  0  0  0  0  0
   -1.3374    2.1411    0.0737 H   0  0  0  0  0  0  0  0  0  0  0  0
   -3.1207    0.7721    0.1508 H   0  0  0  0  0  0  0  0  0  0  0  0
   -2.5139   -0.1960   -1.1975 H   0  0  0  0  0  0  0  0  0  0  0  0
   -2.3628   -0.7234    1.7366 H   0  0  0  0  0  0  0  0  0  0  0  0
   -2.7577   -1.8259    0.4083 H   0  0  0  0  0  0  0  0  0  0  0  0
   -0.2266   -1.0861   -1.0892 H   0  0  0  0  0  0  0  0  0  0  0  0
  1  2  1  0
  2  3  1  0
  3  4  1  0
  4  5  1  0
  5  6  1  0
  6  7  1  0
  7  8  1  0
  8  9  1  0
  9  3  1  0
  9  4  1  0
  1 10  1  0
  1 11  1  0
  1 12  1  0
  3 13  1  0
  4 14  1  0
  5 15  1  0
  5 16  1  0
  6 17  1  0
  6 18  1  0
  7 19  1  0
  7 20  1  0
  9 21  1  0
M  END
