
     RDKit          3D

 21 21  0  0  0  0  0  0  0  0999 V2000
    3.0008   -0.9029    0.2945 C   0  0  0  0  0  0  0  0  0  0  0  0
    2.0472   -0.1821   -0.4086 O   0  0  0  0  0  0  0  0  0  0  0  0
    0.8123   -0.1597    0.2317 C   0  0  0  0  0  0  0  0  0  0  0  0
    0.3578    1.2209    0.5326 C   0  0  0  0  0  0  0  0  0  0  0  0
   -0.8308    1.6675    0.1573 C   0  0  0  0  0  0  0  0  0  0  0  0
   -1.8438    0.8749   -0.5934 C   0  0  0  0  0  0  0  0  0  0  0  0
   -3.1363    1.2558   -0.2446 O   0  0  0  0  0  0  0  0  0  0  0  0
   -1.5988   -0.5786   -0.2445 C   0  0  0  0  0  0  0  0  0  0  0  0
   -0.1583   -0.8648   -0.6939 C   0  0  0  0  0  0  0  0  0  0  0  0
    3.9384   -0.8560   -0.3004 H   0  0  0  0  0  0  0  0  0  0  0  0
    2.6900   -1.9793    0.2714 H   0  0  0  0  0  0  0  0  0  0  0  0
    3.1267   -0.5666    1.3366 H   0  0  0  0  0  0  0  0  0  0  0  0
    0.8585   -0.7422    1.1981 H   0  0  0  0  0  0  0  0  0  0  0  0
    1.0083    1.8997    1.0768 H   0  0  0  0  0  0  0  0  0  0  0  0
   -1.1000    2.6929    0.4119 H   0  0  0  0  0  0  0  0  0  0  0  0
   -1.6549    0.9877   -1.6808 H   0  0  0  0  0  0  0  0  0  0  0  0
   -3.5560    0.5662    0.3476 H   0  0  0  0  0  0  0  0  0  0  0  0
   -2.2470   -1.2699   -0.7810 H   0  0  0  0  0  0  0  0  0  0  0  0
   -1.6752   -0.6796    0.8733 H   0  0  0  0  0  0  0  0  0  0  0  0
    0.0344   -1.9382   -0.7288 H   0  0  0  0  0  0  0  0  0  0  0  0
   -0.0732   -0.4456   -1.7185 H   0  0  0  0  0  0  0  0  0  0  0  0
  1  2  1  0
  2  3  1  0
  3  4  1  0
  4  5  2  0
  5  6  1  0
  6  7  1  0
  6  8  1  0
  8  9  1  0
  9  3  1  0
  1 10  1  0
  1 11  1  0
  1 12  1  0
  3 13  1  0
  4 14  1  0
  5 15  1  0
  6 16  1  0
  7 17  1  0
  8 18  1  0
  8 19  1  0
  9 20  1  0
  9 21  1  0
M  END
