
     RDKit          3D

 21 22  0  0  0  0  0  0  0  0999 V2000
    2.9188    0.5873    0.4100 C   0  0  0  0  0  0  0  0  0  0  0  0
    1.6566    0.1312    0.7663 O   0  0  0  0  0  0  0  0  0  0  0  0
    0.8711   -0.1751   -0.3390 C   0  0  0  0  0  0  0  0  0  0  0  0
    0.3569   -1.5847   -0.2352 C   0  0  0  0  0  0  0  0  0  0  0  0
   -0.9303   -1.5488    0.2084 O   0  0  0  0  0  0  0  0  0  0  0  0
   -1.4232   -0.2827    0.1379 C   0  0  0  0  0  0  0  0  0  0  0  0
   -2.7615   -0.0965   -0.5535 C   0  0  0  0  0  0  0  0  0  0  0  0
   -0.9947    0.7457    1.1094 C   0  0  0  0  0  0  0  0  0  0  0  0
   -0.3650    0.6614   -0.2723 C   0  0  0  0  0  0  0  0  0  0  0  0
    3.4967   -0.1399   -0.1746 H   0  0  0  0  0  0  0  0  0  0  0  0
    2.7834    1.5000   -0.2044 H   0  0  0  0  0  0  0  0  0  0  0  0
    3.4281    0.8986    1.3482 H   0  0  0  0  0  0  0  0  0  0  0  0
    1.3973    0.0011   -1.3036 H   0  0  0  0  0  0  0  0  0  0  0  0
    0.3771   -2.0633   -1.2330 H   0  0  0  0  0  0  0  0  0  0  0  0
    0.9769   -2.1905    0.4796 H   0  0  0  0  0  0  0  0  0  0  0  0
   -2.9221    1.0128   -0.6029 H   0  0  0  0  0  0  0  0  0  0  0  0
   -3.5739   -0.4998    0.0609 H   0  0  0  0  0  0  0  0  0  0  0  0
   -2.7421   -0.5271   -1.5811 H   0  0  0  0  0  0  0  0  0  0  0  0
   -1.6257    1.6372    1.2906 H   0  0  0  0  0  0  0  0  0  0  0  0
   -0.3880    0.4518    1.9854 H   0  0  0  0  0  0  0  0  0  0  0  0
   -0.5363    1.4814   -0.9869 H   0  0  0  0  0  0  0  0  0  0  0  0
  1  2  1  0
  2  3  1  0
  3  4  1  0
  4  5  1  0
  5  6  1  0
  6  7  1  0
  6  8  1  0
  8  9  1  0
  9  3  1  0
  9  6  1  0
  1 10  1  0
  1 11  1  0
  1 12  1  0
  3 13  1  0
  4 14  1  0
  4 15  1  0
  7 16  1  0
  7 17  1  0
  7 18  1  0
  8 19  1  0
  8 20  1  0
  9 21  1  0
M  END
