
     RDKit          3D

 21 22  0  0  0  0  0  0  0  0999 V2000
    3.1438    0.4299    0.0376 C   0  0  0  0  0  0  0  0  0  0  0  0
    2.1165   -0.4112    0.3834 O   0  0  0  0  0  0  0  0  0  0  0  0
    0.8647    0.0265    0.0371 C   0  0  0  0  0  0  0  0  0  0  0  0
   -0.1853   -0.2393    1.0824 C   0  0  0  0  0  0  0  0  0  0  0  0
   -1.4244    0.5814    1.1566 C   0  0  0  0  0  0  0  0  0  0  0  0
   -1.8520    0.8402   -0.2465 C   0  0  0  0  0  0  0  0  0  0  0  0
   -1.4553   -0.4118   -0.9775 C   0  0  0  0  0  0  0  0  0  0  0  0
   -0.2479   -0.8844   -0.2625 C   0  0  0  0  0  0  0  0  0  0  0  0
   -0.0836   -2.2752   -0.2311 O   0  0  0  0  0  0  0  0  0  0  0  0
    3.2265    0.6287   -1.0500 H   0  0  0  0  0  0  0  0  0  0  0  0
    4.0929   -0.0433    0.3755 H   0  0  0  0  0  0  0  0  0  0  0  0
    3.0512    1.3679    0.6264 H   0  0  0  0  0  0  0  0  0  0  0  0
    0.8261    1.0214   -0.4887 H   0  0  0  0  0  0  0  0  0  0  0  0
    0.0663   -0.8474    1.9711 H   0  0  0  0  0  0  0  0  0  0  0  0
   -1.3068    1.5035    1.7620 H   0  0  0  0  0  0  0  0  0  0  0  0
   -2.2134   -0.0480    1.6490 H   0  0  0  0  0  0  0  0  0  0  0  0
   -2.9661    0.9631   -0.2465 H   0  0  0  0  0  0  0  0  0  0  0  0
   -1.3585    1.7583   -0.6645 H   0  0  0  0  0  0  0  0  0  0  0  0
   -1.3149   -0.2113   -2.0554 H   0  0  0  0  0  0  0  0  0  0  0  0
   -2.2753   -1.1583   -0.7994 H   0  0  0  0  0  0  0  0  0  0  0  0
   -0.7046   -2.5905    0.4975 H   0  0  0  0  0  0  0  0  0  0  0  0
  1  2  1  0
  2  3  1  0
  3  4  1  0
  4  5  1  0
  5  6  1  0
  6  7  1  0
  7  8  1  0
  8  9  1  0
  8  3  1  0
  8  4  1  0
  1 10  1  0
  1 11  1  0
  1 12  1  0
  3 13  1  0
  4 14  1  0
  5 15  1  0
  5 16  1  0
  6 17  1  0
  6 18  1  0
  7 19  1  0
  7 20  1  0
  9 21  1  0
M  END
