
     RDKit          3D

 17 17  0  0  0  0  0  0  0  0999 V2000
    2.4015   -0.1788    0.3382 C   0  0  0  0  0  0  0  0  0  0  0  0
    1.4010   -0.5894   -0.5502 O   0  0  0  0  0  0  0  0  0  0  0  0
    0.1953   -0.4301    0.0715 C   0  0  0  0  0  0  0  0  0  0  0  0
   -0.7728   -1.5458   -0.0307 C   0  0  0  0  0  0  0  0  0  0  0  0
   -0.7494   -2.7498   -0.0874 O   0  0  0  0  0  0  0  0  0  0  0  0
   -1.8387   -0.5158   -0.0344 C   0  0  0  0  0  0  0  0  0  0  0  0
   -0.8254    0.3887   -0.7333 C   0  0  0  0  0  0  0  0  0  0  0  0
   -0.8379    1.7913   -0.3048 C   0  0  0  0  0  0  0  0  0  0  0  0
   -0.6441    2.0334    0.8778 O   0  0  0  0  0  0  0  0  0  0  0  0
    2.3604   -0.8028    1.2646 H   0  0  0  0  0  0  0  0  0  0  0  0
    3.3915   -0.2351   -0.1349 H   0  0  0  0  0  0  0  0  0  0  0  0
    2.2344    0.8829    0.6645 H   0  0  0  0  0  0  0  0  0  0  0  0
    0.2469   -0.0269    1.1054 H   0  0  0  0  0  0  0  0  0  0  0  0
   -2.0591   -0.0814    0.9851 H   0  0  0  0  0  0  0  0  0  0  0  0
   -2.7319   -0.7473   -0.6283 H   0  0  0  0  0  0  0  0  0  0  0  0
   -0.7607    0.1866   -1.8135 H   0  0  0  0  0  0  0  0  0  0  0  0
   -1.0112    2.6203   -0.9897 H   0  0  0  0  0  0  0  0  0  0  0  0
  1  2  1  0
  2  3  1  0
  3  4  1  0
  4  5  2  0
  4  6  1  0
  6  7  1  0
  7  8  1  0
  8  9  2  0
  7  3  1  0
  1 10  1  0
  1 11  1  0
  1 12  1  0
  3 13  1  0
  6 14  1  0
  6 15  1  0
  7 16  1  0
  8 17  1  0
M  END
