
     RDKit          3D

 21 21  0  0  0  0  0  0  0  0999 V2000
    3.0391    0.5939    0.3279 C   0  0  0  0  0  0  0  0  0  0  0  0
    1.7701    0.3552    0.8672 O   0  0  0  0  0  0  0  0  0  0  0  0
    0.9291   -0.1387   -0.1281 C   0  0  0  0  0  0  0  0  0  0  0  0
    0.3739   -1.4545    0.3439 C   0  0  0  0  0  0  0  0  0  0  0  0
   -1.1309   -1.2282    0.4173 C   0  0  0  0  0  0  0  0  0  0  0  0
   -1.2824    0.0008   -0.4325 C   0  0  0  0  0  0  0  0  0  0  0  0
   -2.4362    0.8634   -0.0415 C   0  0  0  0  0  0  0  0  0  0  0  0
   -2.4397    1.9632   -0.9244 O   0  0  0  0  0  0  0  0  0  0  0  0
   -0.1193    0.7268   -0.3197 O   0  0  0  0  0  0  0  0  0  0  0  0
    3.6594    0.9836    1.1643 H   0  0  0  0  0  0  0  0  0  0  0  0
    3.5128   -0.3067   -0.0748 H   0  0  0  0  0  0  0  0  0  0  0  0
    2.9203    1.3927   -0.4536 H   0  0  0  0  0  0  0  0  0  0  0  0
    1.4658   -0.2248   -1.1101 H   0  0  0  0  0  0  0  0  0  0  0  0
    0.6285   -2.2303   -0.4053 H   0  0  0  0  0  0  0  0  0  0  0  0
    0.7470   -1.7649    1.3270 H   0  0  0  0  0  0  0  0  0  0  0  0
   -1.4574   -1.1066    1.4482 H   0  0  0  0  0  0  0  0  0  0  0  0
   -1.6553   -2.0811   -0.0694 H   0  0  0  0  0  0  0  0  0  0  0  0
   -1.3912   -0.3237   -1.4887 H   0  0  0  0  0  0  0  0  0  0  0  0
   -3.3974    0.3576   -0.0071 H   0  0  0  0  0  0  0  0  0  0  0  0
   -2.2291    1.3136    0.9684 H   0  0  0  0  0  0  0  0  0  0  0  0
   -1.5072    2.3087   -0.9021 H   0  0  0  0  0  0  0  0  0  0  0  0
  1  2  1  0
  2  3  1  0
  3  4  1  0
  4  5  1  0
  5  6  1  0
  6  7  1  0
  7  8  1  0
  6  9  1  0
  9  3  1  0
  1 10  1  0
  1 11  1  0
  1 12  1  0
  3 13  1  0
  4 14  1  0
  4 15  1  0
  5 16  1  0
  5 17  1  0
  6 18  1  0
  7 19  1  0
  7 20  1  0
  8 21  1  0
M  END
