
     RDKit          3D

 23 23  0  0  0  0  0  0  0  0999 V2000
   -1.7145   -2.0584   -0.2158 C   0  0  0  0  0  0  0  0  0  0  0  0
   -1.1922   -1.1302   -1.0729 O   0  0  0  0  0  0  0  0  0  0  0  0
   -0.3419   -0.2140   -0.4550 C   0  0  0  0  0  0  0  0  0  0  0  0
    0.8184   -0.8748    0.1658 C   0  0  0  0  0  0  0  0  0  0  0  0
    1.8199    0.0092    0.8350 C   0  0  0  0  0  0  0  0  0  0  0  0
    1.5159   -1.5690   -0.8301 O   0  0  0  0  0  0  0  0  0  0  0  0
   -0.0651    0.9747   -1.3711 C   0  0  0  0  0  0  0  0  0  0  0  0
   -0.9335    1.0605   -0.0960 C   0  0  0  0  0  0  0  0  0  0  0  0
   -0.4444    2.0543    0.8728 C   0  0  0  0  0  0  0  0  0  0  0  0
   -2.2734   -1.5176    0.5781 H   0  0  0  0  0  0  0  0  0  0  0  0
   -0.9471   -2.7323    0.1829 H   0  0  0  0  0  0  0  0  0  0  0  0
   -2.4918   -2.6877   -0.7177 H   0  0  0  0  0  0  0  0  0  0  0  0
    0.5019   -1.6170    0.9163 H   0  0  0  0  0  0  0  0  0  0  0  0
    2.6904   -0.6679    1.0987 H   0  0  0  0  0  0  0  0  0  0  0  0
    2.2542    0.7486    0.1433 H   0  0  0  0  0  0  0  0  0  0  0  0
    1.4942    0.4166    1.8074 H   0  0  0  0  0  0  0  0  0  0  0  0
    2.0497   -0.8848   -1.3111 H   0  0  0  0  0  0  0  0  0  0  0  0
    0.9608    1.3584   -1.3103 H   0  0  0  0  0  0  0  0  0  0  0  0
   -0.5736    1.0755   -2.3317 H   0  0  0  0  0  0  0  0  0  0  0  0
   -2.0371    1.1897   -0.3155 H   0  0  0  0  0  0  0  0  0  0  0  0
   -1.0314    2.9914    0.7544 H   0  0  0  0  0  0  0  0  0  0  0  0
   -0.6651    1.7031    1.9185 H   0  0  0  0  0  0  0  0  0  0  0  0
    0.6057    2.3719    0.7539 H   0  0  0  0  0  0  0  0  0  0  0  0
  1  2  1  0
  2  3  1  0
  3  4  1  0
  4  5  1  0
  4  6  1  0
  3  7  1  0
  7  8  1  0
  8  9  1  0
  8  3  1  0
  1 10  1  0
  1 11  1  0
  1 12  1  0
  4 13  1  0
  5 14  1  0
  5 15  1  0
  5 16  1  0
  6 17  1  0
  7 18  1  0
  7 19  1  0
  8 20  1  0
  9 21  1  0
  9 22  1  0
  9 23  1  0
M  END
