
     RDKit          3D

 23 24  0  0  0  0  0  0  0  0999 V2000
    3.0426   -0.4594    0.2505 C   0  0  0  0  0  0  0  0  0  0  0  0
    1.7007   -0.8170    0.2557 O   0  0  0  0  0  0  0  0  0  0  0  0
    0.8491    0.2341   -0.0144 C   0  0  0  0  0  0  0  0  0  0  0  0
   -0.2615   -0.2130   -0.9310 C   0  0  0  0  0  0  0  0  0  0  0  0
   -1.1198    0.8039   -0.2451 C   0  0  0  0  0  0  0  0  0  0  0  0
   -0.7576    2.2388   -0.4365 C   0  0  0  0  0  0  0  0  0  0  0  0
   -0.3636    0.1634    0.8816 C   0  0  0  0  0  0  0  0  0  0  0  0
   -0.6167   -1.1445    0.1962 C   0  0  0  0  0  0  0  0  0  0  0  0
   -2.0005   -1.6761    0.2196 C   0  0  0  0  0  0  0  0  0  0  0  0
    3.6115   -1.3990    0.4818 H   0  0  0  0  0  0  0  0  0  0  0  0
    3.2989   -0.2357   -0.8191 H   0  0  0  0  0  0  0  0  0  0  0  0
    3.2827    0.3622    0.9293 H   0  0  0  0  0  0  0  0  0  0  0  0
    1.2751    1.2100   -0.2006 H   0  0  0  0  0  0  0  0  0  0  0  0
   -0.1976   -0.4254   -1.9026 H   0  0  0  0  0  0  0  0  0  0  0  0
   -2.2000    0.5546   -0.2356 H   0  0  0  0  0  0  0  0  0  0  0  0
   -0.3798    2.4869   -1.4425 H   0  0  0  0  0  0  0  0  0  0  0  0
   -0.0790    2.6316    0.3599 H   0  0  0  0  0  0  0  0  0  0  0  0
   -1.7078    2.8344   -0.3101 H   0  0  0  0  0  0  0  0  0  0  0  0
   -0.4068    0.3733    1.8550 H   0  0  0  0  0  0  0  0  0  0  0  0
    0.1331   -1.9358    0.4068 H   0  0  0  0  0  0  0  0  0  0  0  0
   -2.0018   -2.8055    0.2440 H   0  0  0  0  0  0  0  0  0  0  0  0
   -2.6005   -1.4218   -0.6881 H   0  0  0  0  0  0  0  0  0  0  0  0
   -2.5006   -1.3600    1.1452 H   0  0  0  0  0  0  0  0  0  0  0  0
  1  2  1  0
  2  3  1  0
  3  4  1  0
  4  5  1  0
  5  6  1  0
  5  7  1  0
  7  8  1  0
  8  9  1  0
  7  3  1  0
  8  4  1  0
  1 10  1  0
  1 11  1  0
  1 12  1  0
  3 13  1  0
  4 14  1  0
  5 15  1  0
  6 16  1  0
  6 17  1  0
  6 18  1  0
  7 19  1  0
  8 20  1  0
  9 21  1  0
  9 22  1  0
  9 23  1  0
M  END
