
     RDKit          3D

 18 18  0  0  0  0  0  0  0  0999 V2000
    2.6601    0.3339   -0.4821 C   0  0  0  0  0  0  0  0  0  0  0  0
    1.3952    0.7652   -0.0518 O   0  0  0  0  0  0  0  0  0  0  0  0
    0.4732   -0.2887   -0.0601 C   0  0  0  0  0  0  0  0  0  0  0  0
   -0.4857   -0.4022    1.0957 C   0  0  0  0  0  0  0  0  0  0  0  0
   -0.8711   -1.6414    1.5669 O   0  0  0  0  0  0  0  0  0  0  0  0
   -0.9450   -0.0839   -0.3305 C   0  0  0  0  0  0  0  0  0  0  0  0
   -1.5710    1.2808   -0.4500 C   0  0  0  0  0  0  0  0  0  0  0  0
   -1.6345   -1.0806   -1.0166 O   0  0  0  0  0  0  0  0  0  0  0  0
    3.3165    1.2070   -0.4474 H   0  0  0  0  0  0  0  0  0  0  0  0
    3.0394   -0.4064    0.2480 H   0  0  0  0  0  0  0  0  0  0  0  0
    2.5827   -0.1250   -1.4886 H   0  0  0  0  0  0  0  0  0  0  0  0
    0.9101   -1.2585   -0.4018 H   0  0  0  0  0  0  0  0  0  0  0  0
   -0.4461    0.4100    1.8327 H   0  0  0  0  0  0  0  0  0  0  0  0
   -1.8040   -1.6263    1.9059 H   0  0  0  0  0  0  0  0  0  0  0  0
   -1.9803    1.4774   -1.4538 H   0  0  0  0  0  0  0  0  0  0  0  0
   -2.4179    1.2982    0.2975 H   0  0  0  0  0  0  0  0  0  0  0  0
   -0.8937    2.0968   -0.1259 H   0  0  0  0  0  0  0  0  0  0  0  0
   -1.3278   -1.9562   -0.6381 H   0  0  0  0  0  0  0  0  0  0  0  0
  1  2  1  0
  2  3  1  0
  3  4  1  0
  4  5  1  0
  4  6  1  0
  6  7  1  0
  6  8  1  0
  6  3  1  0
  1  9  1  0
  1 10  1  0
  1 11  1  0
  3 12  1  0
  4 13  1  0
  5 14  1  0
  7 15  1  0
  7 16  1  0
  7 17  1  0
  8 18  1  0
M  END
