
     RDKit          3D

 21 22  0  0  0  0  0  0  0  0999 V2000
   -0.4709    2.3571    0.9212 C   0  0  0  0  0  0  0  0  0  0  0  0
   -1.1064    1.3341    0.2589 O   0  0  0  0  0  0  0  0  0  0  0  0
   -0.3218    0.2281   -0.0112 C   0  0  0  0  0  0  0  0  0  0  0  0
   -1.0615   -0.8595   -0.7397 C   0  0  0  0  0  0  0  0  0  0  0  0
   -1.5300   -2.0109    0.0922 C   0  0  0  0  0  0  0  0  0  0  0  0
    0.0121   -1.1237   -1.5857 O   0  0  0  0  0  0  0  0  0  0  0  0
    0.4479    0.1789   -1.3495 C   0  0  0  0  0  0  0  0  0  0  0  0
    1.1205    0.3926   -0.0524 C   0  0  0  0  0  0  0  0  0  0  0  0
    2.0624   -0.7404    0.3564 C   0  0  0  0  0  0  0  0  0  0  0  0
   -1.2232    3.1869    1.0923 H   0  0  0  0  0  0  0  0  0  0  0  0
   -0.0576    2.1031    1.8963 H   0  0  0  0  0  0  0  0  0  0  0  0
    0.2883    2.8785    0.2604 H   0  0  0  0  0  0  0  0  0  0  0  0
   -1.9140   -0.4796   -1.3697 H   0  0  0  0  0  0  0  0  0  0  0  0
   -2.0725   -2.7100   -0.5654 H   0  0  0  0  0  0  0  0  0  0  0  0
   -2.2793   -1.6166    0.8150 H   0  0  0  0  0  0  0  0  0  0  0  0
   -0.7175   -2.4849    0.6649 H   0  0  0  0  0  0  0  0  0  0  0  0
    0.1867    0.9831   -2.0354 H   0  0  0  0  0  0  0  0  0  0  0  0
    1.6065    1.3800    0.0615 H   0  0  0  0  0  0  0  0  0  0  0  0
    1.6416   -1.7195    0.1226 H   0  0  0  0  0  0  0  0  0  0  0  0
    3.0135   -0.6607   -0.2471 H   0  0  0  0  0  0  0  0  0  0  0  0
    2.3751   -0.6168    1.4144 H   0  0  0  0  0  0  0  0  0  0  0  0
  1  2  1  0
  2  3  1  0
  3  4  1  0
  4  5  1  0
  4  6  1  0
  6  7  1  0
  7  8  1  0
  8  9  1  0
  7  3  1  0
  8  3  1  0
  1 10  1  0
  1 11  1  0
  1 12  1  0
  4 13  1  0
  5 14  1  0
  5 15  1  0
  5 16  1  0
  7 17  1  0
  8 18  1  0
  9 19  1  0
  9 20  1  0
  9 21  1  0
M  END
