
     RDKit          3D

 21 22  0  0  0  0  0  0  0  0999 V2000
    2.3775    1.0418    0.1630 C   0  0  0  0  0  0  0  0  0  0  0  0
    2.0758   -0.2799   -0.1086 O   0  0  0  0  0  0  0  0  0  0  0  0
    0.7694   -0.5401   -0.3633 C   0  0  0  0  0  0  0  0  0  0  0  0
    0.0756    0.1216   -1.5102 C   0  0  0  0  0  0  0  0  0  0  0  0
   -1.2707   -0.1050   -1.3745 O   0  0  0  0  0  0  0  0  0  0  0  0
   -1.5585   -0.3099   -0.0457 C   0  0  0  0  0  0  0  0  0  0  0  0
   -2.1694    0.8766    0.6334 C   0  0  0  0  0  0  0  0  0  0  0  0
   -0.2772   -0.7763    0.6265 C   0  0  0  0  0  0  0  0  0  0  0  0
    0.3379   -1.9698   -0.0024 C   0  0  0  0  0  0  0  0  0  0  0  0
    1.8416    1.4322    1.0489 H   0  0  0  0  0  0  0  0  0  0  0  0
    3.4614    1.1073    0.3940 H   0  0  0  0  0  0  0  0  0  0  0  0
    2.2168    1.6632   -0.7386 H   0  0  0  0  0  0  0  0  0  0  0  0
    0.4277   -0.2499   -2.5070 H   0  0  0  0  0  0  0  0  0  0  0  0
    0.3101    1.2123   -1.4698 H   0  0  0  0  0  0  0  0  0  0  0  0
   -2.2907   -1.1622    0.0792 H   0  0  0  0  0  0  0  0  0  0  0  0
   -3.2643    0.8447    0.7132 H   0  0  0  0  0  0  0  0  0  0  0  0
   -1.9094    1.8398    0.1418 H   0  0  0  0  0  0  0  0  0  0  0  0
   -1.7824    0.9163    1.6818 H   0  0  0  0  0  0  0  0  0  0  0  0
   -0.1986   -0.5475    1.6905 H   0  0  0  0  0  0  0  0  0  0  0  0
   -0.1787   -2.5465   -0.7890 H   0  0  0  0  0  0  0  0  0  0  0  0
    1.0061   -2.5687    0.6237 H   0  0  0  0  0  0  0  0  0  0  0  0
  1  2  1  0
  2  3  1  0
  3  4  1  0
  4  5  1  0
  5  6  1  0
  6  7  1  0
  6  8  1  0
  8  9  1  0
  8  3  1  0
  9  3  1  0
  1 10  1  0
  1 11  1  0
  1 12  1  0
  4 13  1  0
  4 14  1  0
  6 15  1  0
  7 16  1  0
  7 17  1  0
  7 18  1  0
  8 19  1  0
  9 20  1  0
  9 21  1  0
M  END
