
     RDKit          3D

 19 20  0  0  0  0  0  0  0  0999 V2000
    2.5620   -0.1333   -0.4279 C   0  0  0  0  0  0  0  0  0  0  0  0
    1.5586    0.7597   -0.2045 O   0  0  0  0  0  0  0  0  0  0  0  0
    0.3894    0.3265   -0.2283 C   0  0  0  0  0  0  0  0  0  0  0  0
   -0.3288   -0.3493   -1.3755 C   0  0  0  0  0  0  0  0  0  0  0  0
   -1.3703   -0.3008   -0.2807 C   0  0  0  0  0  0  0  0  0  0  0  0
   -2.5494   -0.7062   -0.3202 O   0  0  0  0  0  0  0  0  0  0  0  0
   -0.2513   -0.7295    0.6341 C   0  0  0  0  0  0  0  0  0  0  0  0
   -0.8773    1.1083   -0.0309 C   0  0  0  0  0  0  0  0  0  0  0  0
   -1.1048    1.5729    1.2598 O   0  0  0  0  0  0  0  0  0  0  0  0
    2.5252   -0.6419   -1.4088 H   0  0  0  0  0  0  0  0  0  0  0  0
    2.5788   -0.8696    0.4094 H   0  0  0  0  0  0  0  0  0  0  0  0
    3.5318    0.4287   -0.4170 H   0  0  0  0  0  0  0  0  0  0  0  0
   -0.4830    0.3270   -2.2139 H   0  0  0  0  0  0  0  0  0  0  0  0
   -0.0196   -1.3790   -1.5853 H   0  0  0  0  0  0  0  0  0  0  0  0
   -2.9078   -1.2069    0.4343 H   0  0  0  0  0  0  0  0  0  0  0  0
    0.1063   -1.7298    0.3709 H   0  0  0  0  0  0  0  0  0  0  0  0
   -0.4043   -0.4880    1.6861 H   0  0  0  0  0  0  0  0  0  0  0  0
   -1.0786    1.8064   -0.8459 H   0  0  0  0  0  0  0  0  0  0  0  0
   -1.8768    2.2048    1.1936 H   0  0  0  0  0  0  0  0  0  0  0  0
  1  2  1  0
  2  3  1  0
  3  4  1  0
  4  5  1  0
  5  6  1  0
  5  7  1  0
  5  8  1  0
  8  9  1  0
  7  3  1  0
  8  3  1  0
  1 10  1  0
  1 11  1  0
  1 12  1  0
  4 13  1  0
  4 14  1  0
  6 15  1  0
  7 16  1  0
  7 17  1  0
  8 18  1  0
  9 19  1  0
M  END
