
     RDKit          3D

 21 22  0  0  0  0  0  0  0  0999 V2000
    2.6990   -0.4213    0.7366 C   0  0  0  0  0  0  0  0  0  0  0  0
    1.3381   -0.8047    0.7403 O   0  0  0  0  0  0  0  0  0  0  0  0
    0.6927   -0.0047   -0.1569 C   0  0  0  0  0  0  0  0  0  0  0  0
   -0.0115   -0.8113   -1.2538 C   0  0  0  0  0  0  0  0  0  0  0  0
   -1.1458   -1.2461   -0.7142 C   0  0  0  0  0  0  0  0  0  0  0  0
   -1.1923   -0.7739    0.6386 C   0  0  0  0  0  0  0  0  0  0  0  0
   -1.5035    0.3953    1.3375 C   0  0  0  0  0  0  0  0  0  0  0  0
   -0.5788    0.6326    0.3270 C   0  0  0  0  0  0  0  0  0  0  0  0
   -1.1741    1.3681   -0.9011 C   0  0  0  0  0  0  0  0  0  0  0  0
    3.0886   -0.5700   -0.2973 H   0  0  0  0  0  0  0  0  0  0  0  0
    3.2962   -0.9674    1.4554 H   0  0  0  0  0  0  0  0  0  0  0  0
    2.6877    0.6899    0.8960 H   0  0  0  0  0  0  0  0  0  0  0  0
    1.3385    0.7333   -0.6678 H   0  0  0  0  0  0  0  0  0  0  0  0
    0.4025   -0.9507   -2.2452 H   0  0  0  0  0  0  0  0  0  0  0  0
   -1.8453   -1.8568   -1.3114 H   0  0  0  0  0  0  0  0  0  0  0  0
   -0.5267   -1.4824    1.2487 H   0  0  0  0  0  0  0  0  0  0  0  0
   -1.1787    0.5386    2.4074 H   0  0  0  0  0  0  0  0  0  0  0  0
   -2.5575    0.7902    1.2652 H   0  0  0  0  0  0  0  0  0  0  0  0
   -0.3660    2.0708   -1.2348 H   0  0  0  0  0  0  0  0  0  0  0  0
   -1.4501    0.6482   -1.6874 H   0  0  0  0  0  0  0  0  0  0  0  0
   -2.0128    2.0222   -0.5829 H   0  0  0  0  0  0  0  0  0  0  0  0
  1  2  1  0
  2  3  1  0
  3  4  1  0
  4  5  2  0
  5  6  1  0
  6  7  1  0
  7  8  1  0
  8  9  1  0
  8  3  1  0
  8  6  1  0
  1 10  1  0
  1 11  1  0
  1 12  1  0
  3 13  1  0
  4 14  1  0
  5 15  1  0
  6 16  1  0
  7 17  1  0
  7 18  1  0
  9 19  1  0
  9 20  1  0
  9 21  1  0
M  END
