
     RDKit          3D

 19 20  0  0  0  0  0  0  0  0999 V2000
    2.7314    0.2222   -0.0127 C   0  0  0  0  0  0  0  0  0  0  0  0
    1.6953   -0.5942    0.4894 O   0  0  0  0  0  0  0  0  0  0  0  0
    0.5114   -0.0477    0.0673 C   0  0  0  0  0  0  0  0  0  0  0  0
   -0.3831   -1.0892   -0.6360 C   0  0  0  0  0  0  0  0  0  0  0  0
   -1.6012   -0.9106    0.2352 C   0  0  0  0  0  0  0  0  0  0  0  0
   -1.0184   -0.9582    1.5230 O   0  0  0  0  0  0  0  0  0  0  0  0
   -0.4479    0.2567    1.2100 C   0  0  0  0  0  0  0  0  0  0  0  0
   -1.7161    0.5648    0.4394 C   0  0  0  0  0  0  0  0  0  0  0  0
   -1.3994    1.3595   -0.6635 O   0  0  0  0  0  0  0  0  0  0  0  0
    2.6597    0.2238   -1.1089 H   0  0  0  0  0  0  0  0  0  0  0  0
    3.7221   -0.1161    0.3024 H   0  0  0  0  0  0  0  0  0  0  0  0
    2.4958    1.2647    0.3366 H   0  0  0  0  0  0  0  0  0  0  0  0
    0.6081    0.8627   -0.5410 H   0  0  0  0  0  0  0  0  0  0  0  0
   -0.5359   -0.8571   -1.6835 H   0  0  0  0  0  0  0  0  0  0  0  0
    0.0614   -2.0751   -0.4226 H   0  0  0  0  0  0  0  0  0  0  0  0
   -2.4654   -1.5062    0.0622 H   0  0  0  0  0  0  0  0  0  0  0  0
   -0.1337    0.9257    1.9736 H   0  0  0  0  0  0  0  0  0  0  0  0
   -2.5648    0.8916    1.0393 H   0  0  0  0  0  0  0  0  0  0  0  0
   -2.2196    1.5829   -1.1778 H   0  0  0  0  0  0  0  0  0  0  0  0
  1  2  1  0
  2  3  1  0
  3  4  1  0
  4  5  1  0
  5  6  1  0
  6  7  1  0
  7  8  1  0
  8  9  1  0
  7  3  1  0
  8  5  1  0
  1 10  1  0
  1 11  1  0
  1 12  1  0
  3 13  1  0
  4 14  1  0
  4 15  1  0
  5 16  1  0
  7 17  1  0
  8 18  1  0
  9 19  1  0
M  END
