
     RDKit          3D

 20 20  0  0  0  0  0  0  0  0999 V2000
    2.0910   -0.4997    0.6908 C   0  0  0  0  0  0  0  0  0  0  0  0
    1.3648    0.6774    0.6079 O   0  0  0  0  0  0  0  0  0  0  0  0
    0.1967    0.5890   -0.0734 C   0  0  0  0  0  0  0  0  0  0  0  0
    0.2531    0.1688   -1.5140 C   0  0  0  0  0  0  0  0  0  0  0  0
   -0.6280    1.8494    0.0829 C   0  0  0  0  0  0  0  0  0  0  0  0
   -1.7706    1.0434    0.0655 O   0  0  0  0  0  0  0  0  0  0  0  0
   -0.9951    0.0400    0.6496 C   0  0  0  0  0  0  0  0  0  0  0  0
   -1.4352   -1.3394    0.2778 C   0  0  0  0  0  0  0  0  0  0  0  0
    3.0190   -0.3522    1.2533 H   0  0  0  0  0  0  0  0  0  0  0  0
    2.3402   -0.9303   -0.2908 H   0  0  0  0  0  0  0  0  0  0  0  0
    1.4567   -1.2339    1.2345 H   0  0  0  0  0  0  0  0  0  0  0  0
    0.2258   -0.9562   -1.5889 H   0  0  0  0  0  0  0  0  0  0  0  0
    1.1070    0.5941   -2.0390 H   0  0  0  0  0  0  0  0  0  0  0  0
   -0.6668    0.5291   -2.0254 H   0  0  0  0  0  0  0  0  0  0  0  0
   -0.4314    2.3410    1.0694 H   0  0  0  0  0  0  0  0  0  0  0  0
   -0.5267    2.5288   -0.7865 H   0  0  0  0  0  0  0  0  0  0  0  0
   -0.8524    0.1457    1.7498 H   0  0  0  0  0  0  0  0  0  0  0  0
   -1.9793   -1.8204    1.1374 H   0  0  0  0  0  0  0  0  0  0  0  0
   -0.5810   -2.0266    0.0610 H   0  0  0  0  0  0  0  0  0  0  0  0
   -2.1878   -1.3483   -0.5619 H   0  0  0  0  0  0  0  0  0  0  0  0
  1  2  1  0
  2  3  1  0
  3  4  1  0
  3  5  1  0
  5  6  1  0
  6  7  1  0
  7  8  1  0
  7  3  1  0
  1  9  1  0
  1 10  1  0
  1 11  1  0
  4 12  1  0
  4 13  1  0
  4 14  1  0
  5 15  1  0
  5 16  1  0
  7 17  1  0
  8 18  1  0
  8 19  1  0
  8 20  1  0
M  END
