
     RDKit          3D

 21 22  0  0  0  0  0  0  0  0999 V2000
    2.1147    1.2811    0.1411 C   0  0  0  0  0  0  0  0  0  0  0  0
    0.9709    0.8410    0.8056 O   0  0  0  0  0  0  0  0  0  0  0  0
    0.3030   -0.0094   -0.0515 C   0  0  0  0  0  0  0  0  0  0  0  0
    1.0628   -1.2097   -0.4833 C   0  0  0  0  0  0  0  0  0  0  0  0
    0.0982   -2.0878   -0.9638 O   0  0  0  0  0  0  0  0  0  0  0  0
   -0.8879   -2.0885    0.0164 C   0  0  0  0  0  0  0  0  0  0  0  0
   -0.9886   -0.6770    0.4743 C   0  0  0  0  0  0  0  0  0  0  0  0
   -1.0074    0.3567   -0.6193 C   0  0  0  0  0  0  0  0  0  0  0  0
   -1.6219    1.6570   -0.2181 C   0  0  0  0  0  0  0  0  0  0  0  0
    2.7548    0.4196   -0.1197 H   0  0  0  0  0  0  0  0  0  0  0  0
    1.8110    1.8708   -0.7547 H   0  0  0  0  0  0  0  0  0  0  0  0
    2.6893    1.9797    0.7898 H   0  0  0  0  0  0  0  0  0  0  0  0
    1.8492   -1.0242   -1.2346 H   0  0  0  0  0  0  0  0  0  0  0  0
    1.5293   -1.6678    0.4182 H   0  0  0  0  0  0  0  0  0  0  0  0
   -0.6930   -2.8175    0.8191 H   0  0  0  0  0  0  0  0  0  0  0  0
   -1.8487   -2.3310   -0.5248 H   0  0  0  0  0  0  0  0  0  0  0  0
   -1.3165   -0.4167    1.4929 H   0  0  0  0  0  0  0  0  0  0  0  0
   -1.2650    0.0263   -1.6442 H   0  0  0  0  0  0  0  0  0  0  0  0
   -1.3395    2.5082   -0.8383 H   0  0  0  0  0  0  0  0  0  0  0  0
   -2.7392    1.5277   -0.3251 H   0  0  0  0  0  0  0  0  0  0  0  0
   -1.4754    1.8615    0.8820 H   0  0  0  0  0  0  0  0  0  0  0  0
  1  2  1  0
  2  3  1  0
  3  4  1  0
  4  5  1  0
  5  6  1  0
  6  7  1  0
  7  8  1  0
  8  9  1  0
  7  3  1  0
  8  3  1  0
  1 10  1  0
  1 11  1  0
  1 12  1  0
  4 13  1  0
  4 14  1  0
  6 15  1  0
  6 16  1  0
  7 17  1  0
  8 18  1  0
  9 19  1  0
  9 20  1  0
  9 21  1  0
M  END
