
     RDKit          3D

 17 19  0  0  0  0  0  0  0  0999 V2000
   -2.4882    0.2365   -0.3768 C   0  0  0  0  0  0  0  0  0  0  0  0
   -1.1218    0.5340   -0.5189 O   0  0  0  0  0  0  0  0  0  0  0  0
   -0.3293   -0.3657    0.1350 C   0  0  0  0  0  0  0  0  0  0  0  0
    0.7180   -0.8649   -0.8549 C   0  0  0  0  0  0  0  0  0  0  0  0
    1.2998    0.3439   -1.2333 O   0  0  0  0  0  0  0  0  0  0  0  0
    1.6398    0.8800   -0.0052 C   0  0  0  0  0  0  0  0  0  0  0  0
    1.9006   -0.2704    0.8553 C   0  0  0  0  0  0  0  0  0  0  0  0
    1.6671   -1.3787    0.0037 O   0  0  0  0  0  0  0  0  0  0  0  0
    0.6382    0.4186    1.0132 C   0  0  0  0  0  0  0  0  0  0  0  0
   -2.6903    0.2718    0.7302 H   0  0  0  0  0  0  0  0  0  0  0  0
   -2.6888   -0.7701   -0.7959 H   0  0  0  0  0  0  0  0  0  0  0  0
   -3.1003    1.0350   -0.8425 H   0  0  0  0  0  0  0  0  0  0  0  0
   -0.8392   -1.1638    0.6598 H   0  0  0  0  0  0  0  0  0  0  0  0
    0.3562   -1.4880   -1.6323 H   0  0  0  0  0  0  0  0  0  0  0  0
    2.0221    1.8783    0.1176 H   0  0  0  0  0  0  0  0  0  0  0  0
    2.7173   -0.3205    1.5670 H   0  0  0  0  0  0  0  0  0  0  0  0
    0.2987    1.0240    1.8274 H   0  0  0  0  0  0  0  0  0  0  0  0
  1  2  1  0
  2  3  1  0
  3  4  1  0
  4  5  1  0
  5  6  1  0
  6  7  1  0
  7  8  1  0
  7  9  1  0
  9  3  1  0
  8  4  1  0
  9  6  1  0
  1 10  1  0
  1 11  1  0
  1 12  1  0
  3 13  1  0
  4 14  1  0
  6 15  1  0
  7 16  1  0
  9 17  1  0
M  END
