
     RDKit          3D

 19 20  0  0  0  0  0  0  0  0999 V2000
    2.6895   -0.3015   -0.0683 C   0  0  0  0  0  0  0  0  0  0  0  0
    1.4295   -0.3067    0.5559 O   0  0  0  0  0  0  0  0  0  0  0  0
    0.5525    0.4430   -0.2198 C   0  0  0  0  0  0  0  0  0  0  0  0
    0.1346    1.5434    0.5011 O   0  0  0  0  0  0  0  0  0  0  0  0
   -1.1731    1.3940    0.8395 C   0  0  0  0  0  0  0  0  0  0  0  0
   -1.8042    0.3636   -0.0363 C   0  0  0  0  0  0  0  0  0  0  0  0
   -2.1320   -0.7858    0.6682 O   0  0  0  0  0  0  0  0  0  0  0  0
   -1.0742   -1.4968    0.0812 C   0  0  0  0  0  0  0  0  0  0  0  0
   -0.6341   -0.3028   -0.6959 C   0  0  0  0  0  0  0  0  0  0  0  0
    3.4154   -0.8930    0.5272 H   0  0  0  0  0  0  0  0  0  0  0  0
    3.0321    0.7360   -0.2539 H   0  0  0  0  0  0  0  0  0  0  0  0
    2.5443   -0.7579   -1.0872 H   0  0  0  0  0  0  0  0  0  0  0  0
    1.0813    0.8497   -1.1319 H   0  0  0  0  0  0  0  0  0  0  0  0
   -1.2134    1.0947    1.9257 H   0  0  0  0  0  0  0  0  0  0  0  0
   -1.6780    2.3778    0.7497 H   0  0  0  0  0  0  0  0  0  0  0  0
   -2.5471    0.7327   -0.7523 H   0  0  0  0  0  0  0  0  0  0  0  0
   -1.5221   -2.2933   -0.5826 H   0  0  0  0  0  0  0  0  0  0  0  0
   -0.3676   -1.9580    0.7671 H   0  0  0  0  0  0  0  0  0  0  0  0
   -0.7335   -0.4391   -1.7876 H   0  0  0  0  0  0  0  0  0  0  0  0
  1  2  1  0
  2  3  1  0
  3  4  1  0
  4  5  1  0
  5  6  1  0
  6  7  1  0
  7  8  1  0
  8  9  1  0
  9  3  1  0
  9  6  1  0
  1 10  1  0
  1 11  1  0
  1 12  1  0
  3 13  1  0
  5 14  1  0
  5 15  1  0
  6 16  1  0
  8 17  1  0
  8 18  1  0
  9 19  1  0
M  END
