
     RDKit          3D

 19 19  0  0  0  0  0  0  0  0999 V2000
   -2.6813   -1.0882    0.5466 C   0  0  0  0  0  0  0  0  0  0  0  0
   -1.4547   -0.4910    0.8013 O   0  0  0  0  0  0  0  0  0  0  0  0
   -1.0541    0.3699   -0.2045 C   0  0  0  0  0  0  0  0  0  0  0  0
   -0.2988    1.5792    0.2781 C   0  0  0  0  0  0  0  0  0  0  0  0
    0.3989    0.4471   -0.4875 C   0  0  0  0  0  0  0  0  0  0  0  0
    0.8618    0.8635   -1.7325 O   0  0  0  0  0  0  0  0  0  0  0  0
    1.3523   -0.3883    0.2773 C   0  0  0  0  0  0  0  0  0  0  0  0
    2.6696   -0.7248   -0.2743 C   0  0  0  0  0  0  0  0  0  0  0  0
    1.0144   -0.7868    1.3722 O   0  0  0  0  0  0  0  0  0  0  0  0
   -2.6378   -1.6836   -0.3987 H   0  0  0  0  0  0  0  0  0  0  0  0
   -3.5226   -0.3768    0.5329 H   0  0  0  0  0  0  0  0  0  0  0  0
   -2.8669   -1.8173    1.3662 H   0  0  0  0  0  0  0  0  0  0  0  0
   -1.7093    0.5134   -1.0969 H   0  0  0  0  0  0  0  0  0  0  0  0
   -0.0065    1.6473    1.3464 H   0  0  0  0  0  0  0  0  0  0  0  0
   -0.4410    2.5500   -0.2099 H   0  0  0  0  0  0  0  0  0  0  0  0
    1.1612    1.8242   -1.6456 H   0  0  0  0  0  0  0  0  0  0  0  0
    3.0476    0.0314   -1.0148 H   0  0  0  0  0  0  0  0  0  0  0  0
    2.7048   -1.7208   -0.7774 H   0  0  0  0  0  0  0  0  0  0  0  0
    3.4626   -0.7485    0.5229 H   0  0  0  0  0  0  0  0  0  0  0  0
  1  2  1  0
  2  3  1  0
  3  4  1  0
  4  5  1  0
  5  6  1  0
  5  7  1  0
  7  8  1  0
  7  9  2  0
  5  3  1  0
  1 10  1  0
  1 11  1  0
  1 12  1  0
  3 13  1  0
  4 14  1  0
  4 15  1  0
  6 16  1  0
  8 17  1  0
  8 18  1  0
  8 19  1  0
M  END
