
     RDKit          3D

 21 22  0  0  0  0  0  0  0  0999 V2000
   -3.0409   -0.5396   -0.0399 C   0  0  0  0  0  0  0  0  0  0  0  0
   -1.8321   -0.3606   -0.6962 O   0  0  0  0  0  0  0  0  0  0  0  0
   -0.8792    0.2543    0.1215 C   0  0  0  0  0  0  0  0  0  0  0  0
   -0.0408    1.3109   -0.6150 C   0  0  0  0  0  0  0  0  0  0  0  0
    0.2363    2.4847    0.1148 O   0  0  0  0  0  0  0  0  0  0  0  0
    0.5184    0.0369   -0.2003 C   0  0  0  0  0  0  0  0  0  0  0  0
    1.6599   -0.0227    0.7112 C   0  0  0  0  0  0  0  0  0  0  0  0
    2.3681   -0.9462   -0.2867 C   0  0  0  0  0  0  0  0  0  0  0  0
    1.0660   -1.0109   -1.0655 C   0  0  0  0  0  0  0  0  0  0  0  0
   -3.7274   -1.0292   -0.7605 H   0  0  0  0  0  0  0  0  0  0  0  0
   -3.4722    0.4510    0.2082 H   0  0  0  0  0  0  0  0  0  0  0  0
   -2.9350   -1.1939    0.8576 H   0  0  0  0  0  0  0  0  0  0  0  0
   -1.2337    0.4948    1.1398 H   0  0  0  0  0  0  0  0  0  0  0  0
   -0.2709    1.5080   -1.6740 H   0  0  0  0  0  0  0  0  0  0  0  0
    0.1375    3.2885   -0.4244 H   0  0  0  0  0  0  0  0  0  0  0  0
    2.2137    0.9390    0.7648 H   0  0  0  0  0  0  0  0  0  0  0  0
    1.5426   -0.4553    1.7134 H   0  0  0  0  0  0  0  0  0  0  0  0
    2.7021   -1.8917    0.1515 H   0  0  0  0  0  0  0  0  0  0  0  0
    3.1811   -0.4568   -0.8536 H   0  0  0  0  0  0  0  0  0  0  0  0
    1.1767   -0.8178   -2.1460 H   0  0  0  0  0  0  0  0  0  0  0  0
    0.6300   -2.0434   -0.9409 H   0  0  0  0  0  0  0  0  0  0  0  0
  1  2  1  0
  2  3  1  0
  3  4  1  0
  4  5  1  0
  4  6  1  0
  6  7  1  0
  7  8  1  0
  8  9  1  0
  6  3  1  0
  9  6  1  0
  1 10  1  0
  1 11  1  0
  1 12  1  0
  3 13  1  0
  4 14  1  0
  5 15  1  0
  7 16  1  0
  7 17  1  0
  8 18  1  0
  8 19  1  0
  9 20  1  0
  9 21  1  0
M  END
