
     RDKit          3D

 23 23  0  0  0  0  0  0  0  0999 V2000
    2.6369   -1.0296   -0.0270 C   0  0  0  0  0  0  0  0  0  0  0  0
    1.8957   -0.1506   -0.8188 O   0  0  0  0  0  0  0  0  0  0  0  0
    0.8416    0.3408   -0.0563 C   0  0  0  0  0  0  0  0  0  0  0  0
    0.7655    1.8731   -0.0674 C   0  0  0  0  0  0  0  0  0  0  0  0
   -0.5806    1.7450   -0.7138 C   0  0  0  0  0  0  0  0  0  0  0  0
   -0.5155    0.2275   -0.6735 C   0  0  0  0  0  0  0  0  0  0  0  0
   -1.5842   -0.3041    0.2523 C   0  0  0  0  0  0  0  0  0  0  0  0
   -1.2474   -1.6858    0.7514 C   0  0  0  0  0  0  0  0  0  0  0  0
   -2.7986   -0.3674   -0.3969 O   0  0  0  0  0  0  0  0  0  0  0  0
    3.4939   -1.4505   -0.5939 H   0  0  0  0  0  0  0  0  0  0  0  0
    3.0033   -0.5448    0.8985 H   0  0  0  0  0  0  0  0  0  0  0  0
    1.9768   -1.8770    0.2598 H   0  0  0  0  0  0  0  0  0  0  0  0
    0.8207   -0.0605    0.9818 H   0  0  0  0  0  0  0  0  0  0  0  0
    0.8022    2.2843    0.9441 H   0  0  0  0  0  0  0  0  0  0  0  0
    1.4866    2.3476   -0.7582 H   0  0  0  0  0  0  0  0  0  0  0  0
   -0.6675    2.0920   -1.7500 H   0  0  0  0  0  0  0  0  0  0  0  0
   -1.3593    2.1946   -0.0658 H   0  0  0  0  0  0  0  0  0  0  0  0
   -0.4668   -0.2661   -1.6561 H   0  0  0  0  0  0  0  0  0  0  0  0
   -1.6907    0.4060    1.0991 H   0  0  0  0  0  0  0  0  0  0  0  0
   -0.7151   -2.2402   -0.0699 H   0  0  0  0  0  0  0  0  0  0  0  0
   -0.5624   -1.6769    1.6266 H   0  0  0  0  0  0  0  0  0  0  0  0
   -2.1591   -2.2491    1.0458 H   0  0  0  0  0  0  0  0  0  0  0  0
   -3.3760    0.3917   -0.2117 H   0  0  0  0  0  0  0  0  0  0  0  0
  1  2  1  0
  2  3  1  0
  3  4  1  0
  4  5  1  0
  5  6  1  0
  6  7  1  0
  7  8  1  0
  7  9  1  0
  6  3  1  0
  1 10  1  0
  1 11  1  0
  1 12  1  0
  3 13  1  0
  4 14  1  0
  4 15  1  0
  5 16  1  0
  5 17  1  0
  6 18  1  0
  7 19  1  0
  8 20  1  0
  8 21  1  0
  8 22  1  0
  9 23  1  0
M  END
