
     RDKit          3D

 17 18  0  0  0  0  0  0  0  0999 V2000
    2.1600    0.0577    0.4782 C   0  0  0  0  0  0  0  0  0  0  0  0
    1.3763   -0.0489   -0.6574 O   0  0  0  0  0  0  0  0  0  0  0  0
    0.0509    0.1372   -0.3319 C   0  0  0  0  0  0  0  0  0  0  0  0
   -0.2532    1.4647    0.2753 C   0  0  0  0  0  0  0  0  0  0  0  0
   -1.3936    1.7278    0.5983 O   0  0  0  0  0  0  0  0  0  0  0  0
   -0.5658   -0.9517    0.5221 C   0  0  0  0  0  0  0  0  0  0  0  0
   -1.7169   -0.9479   -0.4444 C   0  0  0  0  0  0  0  0  0  0  0  0
   -1.3979   -1.3877   -1.7069 O   0  0  0  0  0  0  0  0  0  0  0  0
   -0.9263   -0.1321   -1.4507 C   0  0  0  0  0  0  0  0  0  0  0  0
    3.2286   -0.0944    0.2033 H   0  0  0  0  0  0  0  0  0  0  0  0
    1.7972   -0.7117    1.1970 H   0  0  0  0  0  0  0  0  0  0  0  0
    2.0820    1.0473    0.9753 H   0  0  0  0  0  0  0  0  0  0  0  0
    0.5029    2.2256    0.4489 H   0  0  0  0  0  0  0  0  0  0  0  0
   -0.0377   -1.9324    0.4663 H   0  0  0  0  0  0  0  0  0  0  0  0
   -0.8166   -0.6637    1.5552 H   0  0  0  0  0  0  0  0  0  0  0  0
   -2.6788   -0.5189   -0.1894 H   0  0  0  0  0  0  0  0  0  0  0  0
   -1.4111    0.7293   -1.9393 H   0  0  0  0  0  0  0  0  0  0  0  0
  1  2  1  0
  2  3  1  0
  3  4  1  0
  4  5  2  0
  3  6  1  0
  6  7  1  0
  7  8  1  0
  8  9  1  0
  9  3  1  0
  9  7  1  0
  1 10  1  0
  1 11  1  0
  1 12  1  0
  4 13  1  0
  6 14  1  0
  6 15  1  0
  7 16  1  0
  9 17  1  0
M  END
