
     RDKit          3D

 21 21  0  0  0  0  0  0  0  0999 V2000
    2.6461   -0.3812    0.4888 C   0  0  0  0  0  0  0  0  0  0  0  0
    1.2838   -0.5368    0.6903 O   0  0  0  0  0  0  0  0  0  0  0  0
    0.6121   -0.1336   -0.4505 C   0  0  0  0  0  0  0  0  0  0  0  0
   -0.7178   -0.6983   -0.7697 C   0  0  0  0  0  0  0  0  0  0  0  0
   -1.2842   -1.8221    0.0757 C   0  0  0  0  0  0  0  0  0  0  0  0
   -0.6955    0.6255   -0.2573 C   0  0  0  0  0  0  0  0  0  0  0  0
   -1.0121    1.0669    1.1362 C   0  0  0  0  0  0  0  0  0  0  0  0
   -0.7916    1.7718   -1.2323 C   0  0  0  0  0  0  0  0  0  0  0  0
   -1.4248    1.7689   -2.2272 O   0  0  0  0  0  0  0  0  0  0  0  0
    2.9554   -0.9298   -0.4433 H   0  0  0  0  0  0  0  0  0  0  0  0
    3.2751   -0.7323    1.3370 H   0  0  0  0  0  0  0  0  0  0  0  0
    2.8541    0.6769    0.3242 H   0  0  0  0  0  0  0  0  0  0  0  0
    1.2580    0.2065   -1.2983 H   0  0  0  0  0  0  0  0  0  0  0  0
   -0.9679   -0.8342   -1.8788 H   0  0  0  0  0  0  0  0  0  0  0  0
   -0.5776   -2.1120    0.8666 H   0  0  0  0  0  0  0  0  0  0  0  0
   -2.2030   -1.4620    0.5884 H   0  0  0  0  0  0  0  0  0  0  0  0
   -1.4831   -2.7098   -0.5418 H   0  0  0  0  0  0  0  0  0  0  0  0
   -1.2617    2.1390    1.2368 H   0  0  0  0  0  0  0  0  0  0  0  0
   -0.2540    0.7908    1.9120 H   0  0  0  0  0  0  0  0  0  0  0  0
   -2.0007    0.5676    1.4290 H   0  0  0  0  0  0  0  0  0  0  0  0
   -0.2105    2.7386   -0.9856 H   0  0  0  0  0  0  0  0  0  0  0  0
  1  2  1  0
  2  3  1  0
  3  4  1  0
  4  5  1  0
  4  6  1  0
  6  7  1  0
  6  8  1  0
  8  9  2  0
  6  3  1  0
  1 10  1  0
  1 11  1  0
  1 12  1  0
  3 13  1  0
  4 14  1  0
  5 15  1  0
  5 16  1  0
  5 17  1  0
  7 18  1  0
  7 19  1  0
  7 20  1  0
  8 21  1  0
M  END
