
     RDKit          3D

 21 21  0  0  0  0  0  0  0  0999 V2000
    3.0693   -0.1134    0.4864 C   0  0  0  0  0  0  0  0  0  0  0  0
    2.2248    0.1698   -0.5868 O   0  0  0  0  0  0  0  0  0  0  0  0
    0.9121    0.3684   -0.1580 C   0  0  0  0  0  0  0  0  0  0  0  0
    0.0781   -0.7245   -0.7917 C   0  0  0  0  0  0  0  0  0  0  0  0
   -1.3516   -0.4307   -0.5184 C   0  0  0  0  0  0  0  0  0  0  0  0
   -2.2860   -1.5969   -0.4252 C   0  0  0  0  0  0  0  0  0  0  0  0
   -1.7196    0.8142   -0.3746 C   0  0  0  0  0  0  0  0  0  0  0  0
   -0.7824    1.9244   -0.4718 C   0  0  0  0  0  0  0  0  0  0  0  0
    0.5356    1.6272   -0.5196 O   0  0  0  0  0  0  0  0  0  0  0  0
    2.9992    0.7888    1.1618 H   0  0  0  0  0  0  0  0  0  0  0  0
    2.7335   -0.9985    1.0666 H   0  0  0  0  0  0  0  0  0  0  0  0
    4.1182   -0.1966    0.1592 H   0  0  0  0  0  0  0  0  0  0  0  0
    0.9049    0.2424    0.9477 H   0  0  0  0  0  0  0  0  0  0  0  0
    0.2641   -0.7116   -1.8721 H   0  0  0  0  0  0  0  0  0  0  0  0
    0.4037   -1.6836   -0.3215 H   0  0  0  0  0  0  0  0  0  0  0  0
   -1.9660   -2.1801    0.4628 H   0  0  0  0  0  0  0  0  0  0  0  0
   -2.0617   -2.2421   -1.3165 H   0  0  0  0  0  0  0  0  0  0  0  0
   -3.3257   -1.2734   -0.3883 H   0  0  0  0  0  0  0  0  0  0  0  0
   -2.7614    1.0317   -0.1752 H   0  0  0  0  0  0  0  0  0  0  0  0
   -1.0239    2.5718   -1.3658 H   0  0  0  0  0  0  0  0  0  0  0  0
   -0.9653    2.6125    0.4046 H   0  0  0  0  0  0  0  0  0  0  0  0
  1  2  1  0
  2  3  1  0
  3  4  1  0
  4  5  1  0
  5  6  1  0
  5  7  2  0
  7  8  1  0
  8  9  1  0
  9  3  1  0
  1 10  1  0
  1 11  1  0
  1 12  1  0
  3 13  1  0
  4 14  1  0
  4 15  1  0
  6 16  1  0
  6 17  1  0
  6 18  1  0
  7 19  1  0
  8 20  1  0
  8 21  1  0
M  END
