
     RDKit          3D

 19 21  0  0  0  0  0  0  0  0999 V2000
    2.5499   -0.6999    0.2707 C   0  0  0  0  0  0  0  0  0  0  0  0
    1.9404    0.5222    0.2348 O   0  0  0  0  0  0  0  0  0  0  0  0
    0.5755    0.5110    0.3237 C   0  0  0  0  0  0  0  0  0  0  0  0
   -0.1237    1.8195    0.2880 C   0  0  0  0  0  0  0  0  0  0  0  0
   -0.3236    0.7989   -0.8048 C   0  0  0  0  0  0  0  0  0  0  0  0
   -1.1954   -0.3385   -0.4212 C   0  0  0  0  0  0  0  0  0  0  0  0
   -2.5495   -0.3495   -0.4336 C   0  0  0  0  0  0  0  0  0  0  0  0
   -1.7848   -1.1777   -1.3068 O   0  0  0  0  0  0  0  0  0  0  0  0
   -0.1847   -0.7609    0.5863 C   0  0  0  0  0  0  0  0  0  0  0  0
    2.1882   -1.3145   -0.5775 H   0  0  0  0  0  0  0  0  0  0  0  0
    3.6348   -0.5562    0.1208 H   0  0  0  0  0  0  0  0  0  0  0  0
    2.3113   -1.1806    1.2531 H   0  0  0  0  0  0  0  0  0  0  0  0
    0.4534    2.6893   -0.0085 H   0  0  0  0  0  0  0  0  0  0  0  0
   -0.9313    2.0212    1.0056 H   0  0  0  0  0  0  0  0  0  0  0  0
    0.0089    0.9859   -1.8227 H   0  0  0  0  0  0  0  0  0  0  0  0
   -3.1991   -0.8986    0.3070 H   0  0  0  0  0  0  0  0  0  0  0  0
   -3.1601    0.4567   -0.9378 H   0  0  0  0  0  0  0  0  0  0  0  0
    0.3852   -1.6666    0.3090 H   0  0  0  0  0  0  0  0  0  0  0  0
   -0.5954   -0.8615    1.6139 H   0  0  0  0  0  0  0  0  0  0  0  0
  1  2  1  0
  2  3  1  0
  3  4  1  0
  4  5  1  0
  5  6  1  0
  6  7  1  0
  7  8  1  0
  6  9  1  0
  5  3  1  0
  8  6  1  0
  9  3  1  0
  1 10  1  0
  1 11  1  0
  1 12  1  0
  4 13  1  0
  4 14  1  0
  5 15  1  0
  7 16  1  0
  7 17  1  0
  9 18  1  0
  9 19  1  0
M  END
