
     RDKit          3D

 18 19  0  0  0  0  0  0  0  0999 V2000
    2.4615    0.1389   -0.3832 C   0  0  0  0  0  0  0  0  0  0  0  0
    1.5437   -0.5015    0.3983 O   0  0  0  0  0  0  0  0  0  0  0  0
    0.3234   -0.2673    0.3058 C   0  0  0  0  0  0  0  0  0  0  0  0
   -0.4126    1.0315    0.5137 C   0  0  0  0  0  0  0  0  0  0  0  0
   -1.5039    0.0603    0.1131 C   0  0  0  0  0  0  0  0  0  0  0  0
   -2.7250    0.2847   -0.0101 O   0  0  0  0  0  0  0  0  0  0  0  0
   -0.8092   -0.9207    1.0211 C   0  0  0  0  0  0  0  0  0  0  0  0
   -0.5306   -0.4044   -0.9535 C   0  0  0  0  0  0  0  0  0  0  0  0
    3.5117   -0.1953   -0.1652 H   0  0  0  0  0  0  0  0  0  0  0  0
    2.2894   -0.1942   -1.4482 H   0  0  0  0  0  0  0  0  0  0  0  0
    2.4047    1.2436   -0.3364 H   0  0  0  0  0  0  0  0  0  0  0  0
   -0.2288    1.7360   -0.3048 H   0  0  0  0  0  0  0  0  0  0  0  0
   -0.4633    1.4192    1.5285 H   0  0  0  0  0  0  0  0  0  0  0  0
   -3.0795    0.3840   -0.9429 H   0  0  0  0  0  0  0  0  0  0  0  0
   -0.9712   -1.9591    0.7019 H   0  0  0  0  0  0  0  0  0  0  0  0
   -0.8739   -0.7142    2.0963 H   0  0  0  0  0  0  0  0  0  0  0  0
   -0.6193   -1.4627   -1.2452 H   0  0  0  0  0  0  0  0  0  0  0  0
   -0.3173    0.3214   -1.7435 H   0  0  0  0  0  0  0  0  0  0  0  0
  1  2  1  0
  2  3  1  0
  3  4  1  0
  4  5  1  0
  5  6  1  0
  5  7  1  0
  5  8  1  0
  7  3  1  0
  8  3  1  0
  1  9  1  0
  1 10  1  0
  1 11  1  0
  4 12  1  0
  4 13  1  0
  6 14  1  0
  7 15  1  0
  7 16  1  0
  8 17  1  0
  8 18  1  0
M  END
