
     RDKit          3D

 16 18  0  0  0  0  0  0  0  0999 V2000
    2.6495    0.3038   -0.3074 C   0  0  0  0  0  0  0  0  0  0  0  0
    1.5414   -0.1256    0.3593 O   0  0  0  0  0  0  0  0  0  0  0  0
    0.3343    0.1033   -0.2870 C   0  0  0  0  0  0  0  0  0  0  0  0
   -0.8124    0.4001    0.5349 C   0  0  0  0  0  0  0  0  0  0  0  0
   -1.7869   -0.5470    1.1788 C   0  0  0  0  0  0  0  0  0  0  0  0
   -2.9954   -0.8860    0.7228 O   0  0  0  0  0  0  0  0  0  0  0  0
   -2.1824   -0.7040   -0.3223 C   0  0  0  0  0  0  0  0  0  0  0  0
   -0.6897   -0.9092   -0.3488 C   0  0  0  0  0  0  0  0  0  0  0  0
    2.7945   -0.1608   -1.3004 H   0  0  0  0  0  0  0  0  0  0  0  0
    3.5366    0.0439    0.3058 H   0  0  0  0  0  0  0  0  0  0  0  0
    2.6350    1.4157   -0.3681 H   0  0  0  0  0  0  0  0  0  0  0  0
    0.5314    0.6230   -1.2773 H   0  0  0  0  0  0  0  0  0  0  0  0
   -1.4468    1.2221    0.0775 H   0  0  0  0  0  0  0  0  0  0  0  0
   -1.2500   -1.4121    1.6410 H   0  0  0  0  0  0  0  0  0  0  0  0
   -2.4226    0.2599   -0.8655 H   0  0  0  0  0  0  0  0  0  0  0  0
   -0.4366   -1.8312    0.2567 H   0  0  0  0  0  0  0  0  0  0  0  0
  1  2  1  0
  2  3  1  0
  3  4  1  0
  4  5  1  0
  5  6  1  0
  6  7  1  0
  7  8  1  0
  8  3  1  0
  8  4  1  0
  7  5  1  0
  1  9  1  0
  1 10  1  0
  1 11  1  0
  3 12  1  0
  4 13  1  0
  5 14  1  0
  7 15  1  0
  8 16  1  0
M  END
