
     RDKit          3D

 21 22  0  0  0  0  0  0  0  0999 V2000
    3.0564    0.6969    0.9269 C   0  0  0  0  0  0  0  0  0  0  0  0
    1.8225    0.7377    0.2933 O   0  0  0  0  0  0  0  0  0  0  0  0
    1.3221   -0.5321    0.2013 C   0  0  0  0  0  0  0  0  0  0  0  0
    0.8047   -0.8792   -1.1869 C   0  0  0  0  0  0  0  0  0  0  0  0
   -0.1043   -0.8423    0.0595 C   0  0  0  0  0  0  0  0  0  0  0  0
   -1.1705    0.2097   -0.0010 C   0  0  0  0  0  0  0  0  0  0  0  0
   -2.6032   -0.3086   -0.1509 C   0  0  0  0  0  0  0  0  0  0  0  0
   -2.1429    0.4305    1.0674 C   0  0  0  0  0  0  0  0  0  0  0  0
   -2.7107    1.7161    1.1863 O   0  0  0  0  0  0  0  0  0  0  0  0
    3.4750    1.7139    1.0096 H   0  0  0  0  0  0  0  0  0  0  0  0
    3.0085    0.2388    1.9380 H   0  0  0  0  0  0  0  0  0  0  0  0
    3.8040    0.0965    0.3493 H   0  0  0  0  0  0  0  0  0  0  0  0
    1.9585   -1.3329    0.6281 H   0  0  0  0  0  0  0  0  0  0  0  0
    0.9772   -1.8942   -1.5864 H   0  0  0  0  0  0  0  0  0  0  0  0
    0.6849   -0.0767   -1.9260 H   0  0  0  0  0  0  0  0  0  0  0  0
   -0.4586   -1.8154    0.4508 H   0  0  0  0  0  0  0  0  0  0  0  0
   -0.9412    1.0922   -0.6476 H   0  0  0  0  0  0  0  0  0  0  0  0
   -3.2737    0.1664   -0.8662 H   0  0  0  0  0  0  0  0  0  0  0  0
   -2.7394   -1.4255   -0.0819 H   0  0  0  0  0  0  0  0  0  0  0  0
   -2.1242   -0.1175    2.0236 H   0  0  0  0  0  0  0  0  0  0  0  0
   -2.6451    2.1258    0.2744 H   0  0  0  0  0  0  0  0  0  0  0  0
  1  2  1  0
  2  3  1  0
  3  4  1  0
  4  5  1  0
  5  6  1  0
  6  7  1  0
  7  8  1  0
  8  9  1  0
  5  3  1  0
  8  6  1  0
  1 10  1  0
  1 11  1  0
  1 12  1  0
  3 13  1  0
  4 14  1  0
  4 15  1  0
  5 16  1  0
  6 17  1  0
  7 18  1  0
  7 19  1  0
  8 20  1  0
  9 21  1  0
M  END
