
     RDKit          3D

 15 15  0  0  0  0  0  0  0  0999 V2000
    2.3741    0.1700   -0.5429 C   0  0  0  0  0  0  0  0  0  0  0  0
    1.0046    0.1613   -0.8071 O   0  0  0  0  0  0  0  0  0  0  0  0
    0.2476   -0.1215    0.3065 C   0  0  0  0  0  0  0  0  0  0  0  0
   -0.7308    0.9478    0.5949 C   0  0  0  0  0  0  0  0  0  0  0  0
   -1.9249    0.4974    0.2980 C   0  0  0  0  0  0  0  0  0  0  0  0
   -1.7787   -0.9004   -0.2026 C   0  0  0  0  0  0  0  0  0  0  0  0
   -0.4871   -1.2861    0.1240 O   0  0  0  0  0  0  0  0  0  0  0  0
    2.9753    0.3936   -1.4223 H   0  0  0  0  0  0  0  0  0  0  0  0
    2.6305   -0.8850   -0.2384 H   0  0  0  0  0  0  0  0  0  0  0  0
    2.6254    0.7956    0.3365 H   0  0  0  0  0  0  0  0  0  0  0  0
    0.8778   -0.2909    1.2139 H   0  0  0  0  0  0  0  0  0  0  0  0
   -0.5078    1.9383    0.9856 H   0  0  0  0  0  0  0  0  0  0  0  0
   -2.8613    1.0102    0.3853 H   0  0  0  0  0  0  0  0  0  0  0  0
   -2.5574   -1.5277    0.2640 H   0  0  0  0  0  0  0  0  0  0  0  0
   -1.8872   -0.9025   -1.2956 H   0  0  0  0  0  0  0  0  0  0  0  0
  1  2  1  0
  2  3  1  0
  3  4  1  0
  4  5  2  0
  5  6  1  0
  6  7  1  0
  7  3  1  0
  1  8  1  0
  1  9  1  0
  1 10  1  0
  3 11  1  0
  4 12  1  0
  5 13  1  0
  6 14  1  0
  6 15  1  0
M  END
