
     RDKit          3D

 19 20  0  0  0  0  0  0  0  0999 V2000
    2.0875   -0.4282    0.5648 C   0  0  0  0  0  0  0  0  0  0  0  0
    1.0168   -0.9441   -0.1597 O   0  0  0  0  0  0  0  0  0  0  0  0
    0.1279    0.0527   -0.4649 C   0  0  0  0  0  0  0  0  0  0  0  0
    0.6496    1.1965   -1.2899 C   0  0  0  0  0  0  0  0  0  0  0  0
   -1.2122   -0.4769   -0.8287 C   0  0  0  0  0  0  0  0  0  0  0  0
   -1.7367    0.7333   -0.4071 O   0  0  0  0  0  0  0  0  0  0  0  0
   -0.8241    0.4576    0.6055 C   0  0  0  0  0  0  0  0  0  0  0  0
   -1.3608   -0.9383    0.5948 C   0  0  0  0  0  0  0  0  0  0  0  0
   -2.6754   -1.0629    1.0368 O   0  0  0  0  0  0  0  0  0  0  0  0
    1.7118    0.0180    1.4925 H   0  0  0  0  0  0  0  0  0  0  0  0
    2.7905   -1.2846    0.7391 H   0  0  0  0  0  0  0  0  0  0  0  0
    2.5758    0.3801   -0.0206 H   0  0  0  0  0  0  0  0  0  0  0  0
    1.3372    0.8431   -2.0766 H   0  0  0  0  0  0  0  0  0  0  0  0
   -0.1895    1.7992   -1.6694 H   0  0  0  0  0  0  0  0  0  0  0  0
    1.2595    1.8813   -0.6350 H   0  0  0  0  0  0  0  0  0  0  0  0
   -1.4747   -0.9961   -1.6529 H   0  0  0  0  0  0  0  0  0  0  0  0
   -0.6391    1.0315    1.4139 H   0  0  0  0  0  0  0  0  0  0  0  0
   -0.6962   -1.7448    0.8945 H   0  0  0  0  0  0  0  0  0  0  0  0
   -2.7477   -0.5173    1.8629 H   0  0  0  0  0  0  0  0  0  0  0  0
  1  2  1  0
  2  3  1  0
  3  4  1  0
  3  5  1  0
  5  6  1  0
  6  7  1  0
  7  8  1  0
  8  9  1  0
  7  3  1  0
  8  5  1  0
  1 10  1  0
  1 11  1  0
  1 12  1  0
  4 13  1  0
  4 14  1  0
  4 15  1  0
  5 16  1  0
  7 17  1  0
  8 18  1  0
  9 19  1  0
M  END
