
     RDKit          3D

 17 18  0  0  0  0  0  0  0  0999 V2000
    2.1493   -0.3844   -0.0631 C   0  0  0  0  0  0  0  0  0  0  0  0
    1.2876    0.4364    0.6111 O   0  0  0  0  0  0  0  0  0  0  0  0
    0.1120    0.4576    0.1810 C   0  0  0  0  0  0  0  0  0  0  0  0
   -0.3583    0.8609   -1.1973 C   0  0  0  0  0  0  0  0  0  0  0  0
   -1.6155    0.5063   -0.4434 C   0  0  0  0  0  0  0  0  0  0  0  0
   -1.0332    1.2246    0.6795 C   0  0  0  0  0  0  0  0  0  0  0  0
   -1.4058    2.0143    1.5126 O   0  0  0  0  0  0  0  0  0  0  0  0
   -0.8513   -0.6920    0.0444 C   0  0  0  0  0  0  0  0  0  0  0  0
   -0.5739   -1.6151   -0.9339 O   0  0  0  0  0  0  0  0  0  0  0  0
    1.7886   -1.4264   -0.0176 H   0  0  0  0  0  0  0  0  0  0  0  0
    2.1478   -0.0980   -1.1355 H   0  0  0  0  0  0  0  0  0  0  0  0
    3.1872   -0.3561    0.2985 H   0  0  0  0  0  0  0  0  0  0  0  0
   -0.0755    0.2057   -2.0232 H   0  0  0  0  0  0  0  0  0  0  0  0
   -0.2130    1.9500   -1.3383 H   0  0  0  0  0  0  0  0  0  0  0  0
   -2.5497    0.5221   -0.8031 H   0  0  0  0  0  0  0  0  0  0  0  0
   -1.1510   -1.0903    1.0356 H   0  0  0  0  0  0  0  0  0  0  0  0
   -0.8452   -2.5156   -0.5705 H   0  0  0  0  0  0  0  0  0  0  0  0
  1  2  1  0
  2  3  1  0
  3  4  1  0
  4  5  1  0
  5  6  1  0
  6  7  2  0
  5  8  1  0
  8  9  1  0
  6  3  1  0
  8  3  1  0
  1 10  1  0
  1 11  1  0
  1 12  1  0
  4 13  1  0
  4 14  1  0
  5 15  1  0
  8 16  1  0
  9 17  1  0
M  END
