
     RDKit          3D

 23 23  0  0  0  0  0  0  0  0999 V2000
    2.1535   -1.4807    1.1188 C   0  0  0  0  0  0  0  0  0  0  0  0
    1.3493   -1.3710    0.0137 O   0  0  0  0  0  0  0  0  0  0  0  0
    0.4342   -0.3746    0.0060 C   0  0  0  0  0  0  0  0  0  0  0  0
   -0.9714   -0.9291   -0.1951 C   0  0  0  0  0  0  0  0  0  0  0  0
   -1.8978   -0.6006    0.9540 C   0  0  0  0  0  0  0  0  0  0  0  0
   -1.1434   -0.0466   -1.4063 C   0  0  0  0  0  0  0  0  0  0  0  0
    0.2554    0.4976   -1.1627 C   0  0  0  0  0  0  0  0  0  0  0  0
    0.1405    1.9863   -0.8246 C   0  0  0  0  0  0  0  0  0  0  0  0
    1.2895    2.4352   -0.1728 O   0  0  0  0  0  0  0  0  0  0  0  0
    1.6067   -1.6528    2.0656 H   0  0  0  0  0  0  0  0  0  0  0  0
    2.8007   -2.3762    0.9745 H   0  0  0  0  0  0  0  0  0  0  0  0
    2.8623   -0.6243    1.2327 H   0  0  0  0  0  0  0  0  0  0  0  0
    0.4881    0.2250    0.9503 H   0  0  0  0  0  0  0  0  0  0  0  0
   -0.9794   -1.9944   -0.5087 H   0  0  0  0  0  0  0  0  0  0  0  0
   -2.5586   -1.4613    1.1717 H   0  0  0  0  0  0  0  0  0  0  0  0
   -1.3098   -0.4190    1.8744 H   0  0  0  0  0  0  0  0  0  0  0  0
   -2.5391    0.2848    0.7004 H   0  0  0  0  0  0  0  0  0  0  0  0
   -1.9617    0.6638   -1.2786 H   0  0  0  0  0  0  0  0  0  0  0  0
   -1.2572   -0.5855   -2.3660 H   0  0  0  0  0  0  0  0  0  0  0  0
    0.8871    0.3452   -2.0485 H   0  0  0  0  0  0  0  0  0  0  0  0
   -0.0333    2.5587   -1.7797 H   0  0  0  0  0  0  0  0  0  0  0  0
   -0.7129    2.1957   -0.1772 H   0  0  0  0  0  0  0  0  0  0  0  0
    1.0974    2.7238    0.7413 H   0  0  0  0  0  0  0  0  0  0  0  0
  1  2  1  0
  2  3  1  0
  3  4  1  0
  4  5  1  0
  4  6  1  0
  6  7  1  0
  7  8  1  0
  8  9  1  0
  7  3  1  0
  1 10  1  0
  1 11  1  0
  1 12  1  0
  3 13  1  0
  4 14  1  0
  5 15  1  0
  5 16  1  0
  5 17  1  0
  6 18  1  0
  6 19  1  0
  7 20  1  0
  8 21  1  0
  8 22  1  0
  9 23  1  0
M  END
