
     RDKit          3D

 23 24  0  0  0  0  0  0  0  0999 V2000
    2.7576   -0.0420    0.4414 C   0  0  0  0  0  0  0  0  0  0  0  0
    1.4722   -0.4106    0.8382 O   0  0  0  0  0  0  0  0  0  0  0  0
    0.4995    0.0083   -0.0273 C   0  0  0  0  0  0  0  0  0  0  0  0
    0.3138    1.4804   -0.3109 C   0  0  0  0  0  0  0  0  0  0  0  0
   -1.1732    1.7289   -0.2309 C   0  0  0  0  0  0  0  0  0  0  0  0
   -1.8397    0.4152    0.0204 C   0  0  0  0  0  0  0  0  0  0  0  0
   -0.7980   -0.6547   -0.0062 C   0  0  0  0  0  0  0  0  0  0  0  0
   -1.0944   -1.8529    0.8611 C   0  0  0  0  0  0  0  0  0  0  0  0
    0.0769   -0.8803   -1.1839 C   0  0  0  0  0  0  0  0  0  0  0  0
    3.5052   -0.4036    1.1730 H   0  0  0  0  0  0  0  0  0  0  0  0
    2.8320    1.0285    0.2121 H   0  0  0  0  0  0  0  0  0  0  0  0
    2.9531   -0.5909   -0.5225 H   0  0  0  0  0  0  0  0  0  0  0  0
    0.6356    1.6296   -1.3689 H   0  0  0  0  0  0  0  0  0  0  0  0
    0.8946    2.0641    0.4117 H   0  0  0  0  0  0  0  0  0  0  0  0
   -1.5438    2.2548   -1.1346 H   0  0  0  0  0  0  0  0  0  0  0  0
   -1.3393    2.4384    0.6220 H   0  0  0  0  0  0  0  0  0  0  0  0
   -2.2635    0.4303    1.0657 H   0  0  0  0  0  0  0  0  0  0  0  0
   -2.6992    0.2156   -0.6427 H   0  0  0  0  0  0  0  0  0  0  0  0
   -1.9724   -2.3964    0.4233 H   0  0  0  0  0  0  0  0  0  0  0  0
   -0.2615   -2.5904    0.8562 H   0  0  0  0  0  0  0  0  0  0  0  0
   -1.2956   -1.5807    1.9191 H   0  0  0  0  0  0  0  0  0  0  0  0
   -0.2213   -0.4272   -2.1366 H   0  0  0  0  0  0  0  0  0  0  0  0
    0.5613   -1.8643   -1.2795 H   0  0  0  0  0  0  0  0  0  0  0  0
  1  2  1  0
  2  3  1  0
  3  4  1  0
  4  5  1  0
  5  6  1  0
  6  7  1  0
  7  8  1  0
  7  9  1  0
  7  3  1  0
  9  3  1  0
  1 10  1  0
  1 11  1  0
  1 12  1  0
  4 13  1  0
  4 14  1  0
  5 15  1  0
  5 16  1  0
  6 17  1  0
  6 18  1  0
  8 19  1  0
  8 20  1  0
  8 21  1  0
  9 22  1  0
  9 23  1  0
M  END
