
     RDKit          3D

 21 21  0  0  0  0  0  0  0  0999 V2000
    3.0224    0.3099   -0.0469 C   0  0  0  0  0  0  0  0  0  0  0  0
    1.8690   -0.2901    0.2528 O   0  0  0  0  0  0  0  0  0  0  0  0
    0.6729    0.1751   -0.0699 C   0  0  0  0  0  0  0  0  0  0  0  0
    0.0393    0.6518    1.2519 C   0  0  0  0  0  0  0  0  0  0  0  0
   -1.1354    1.3292    0.9680 O   0  0  0  0  0  0  0  0  0  0  0  0
   -2.0491    0.3428    0.6192 C   0  0  0  0  0  0  0  0  0  0  0  0
   -1.7195   -0.3488   -0.6528 C   0  0  0  0  0  0  0  0  0  0  0  0
   -2.5090   -1.5242   -0.6929 O   0  0  0  0  0  0  0  0  0  0  0  0
   -0.2677   -0.6522   -0.8549 C   0  0  0  0  0  0  0  0  0  0  0  0
    3.8693   -0.2968    0.3431 H   0  0  0  0  0  0  0  0  0  0  0  0
    3.0928    1.2855    0.5014 H   0  0  0  0  0  0  0  0  0  0  0  0
    3.2481    0.5248   -1.0963 H   0  0  0  0  0  0  0  0  0  0  0  0
    0.8135    1.1498   -0.6315 H   0  0  0  0  0  0  0  0  0  0  0  0
   -0.2052   -0.2567    1.8347 H   0  0  0  0  0  0  0  0  0  0  0  0
    0.7385    1.3260    1.7730 H   0  0  0  0  0  0  0  0  0  0  0  0
   -2.0469   -0.3980    1.4497 H   0  0  0  0  0  0  0  0  0  0  0  0
   -3.0847    0.7247    0.5540 H   0  0  0  0  0  0  0  0  0  0  0  0
   -2.1366    0.2822   -1.4926 H   0  0  0  0  0  0  0  0  0  0  0  0
   -1.9993   -2.1303   -1.3195 H   0  0  0  0  0  0  0  0  0  0  0  0
   -0.0580   -0.4605   -1.9501 H   0  0  0  0  0  0  0  0  0  0  0  0
   -0.1545   -1.7442   -0.7404 H   0  0  0  0  0  0  0  0  0  0  0  0
  1  2  1  0
  2  3  1  0
  3  4  1  0
  4  5  1  0
  5  6  1  0
  6  7  1  0
  7  8  1  0
  7  9  1  0
  9  3  1  0
  1 10  1  0
  1 11  1  0
  1 12  1  0
  3 13  1  0
  4 14  1  0
  4 15  1  0
  6 16  1  0
  6 17  1  0
  7 18  1  0
  8 19  1  0
  9 20  1  0
  9 21  1  0
M  END
