
     RDKit          3D

 16 17  0  0  0  0  0  0  0  0999 V2000
   -2.3994   -0.1365   -0.0757 C   0  0  0  0  0  0  0  0  0  0  0  0
   -1.2229    0.2618   -0.7182 O   0  0  0  0  0  0  0  0  0  0  0  0
   -0.1567    0.0878    0.1169 C   0  0  0  0  0  0  0  0  0  0  0  0
    0.9733   -0.6248   -0.5973 C   0  0  0  0  0  0  0  0  0  0  0  0
    1.4122   -1.7905   -0.0338 O   0  0  0  0  0  0  0  0  0  0  0  0
    1.8231    0.6087   -0.2548 C   0  0  0  0  0  0  0  0  0  0  0  0
    1.9137    0.8851    1.0941 O   0  0  0  0  0  0  0  0  0  0  0  0
    0.7711    1.2743    0.2247 C   0  0  0  0  0  0  0  0  0  0  0  0
   -3.2615    0.0066   -0.7571 H   0  0  0  0  0  0  0  0  0  0  0  0
   -2.4873    0.4111    0.8706 H   0  0  0  0  0  0  0  0  0  0  0  0
   -2.3815   -1.2348    0.1707 H   0  0  0  0  0  0  0  0  0  0  0  0
   -0.3850   -0.3176    1.1110 H   0  0  0  0  0  0  0  0  0  0  0  0
    0.8675   -0.7077   -1.6764 H   0  0  0  0  0  0  0  0  0  0  0  0
    1.4575   -1.7905    0.9468 H   0  0  0  0  0  0  0  0  0  0  0  0
    2.6400    0.8221   -0.9479 H   0  0  0  0  0  0  0  0  0  0  0  0
    0.4360    2.2449    0.5266 H   0  0  0  0  0  0  0  0  0  0  0  0
  1  2  1  0
  2  3  1  0
  3  4  1  0
  4  5  1  0
  4  6  1  0
  6  7  1  0
  7  8  1  0
  8  3  1  0
  8  6  1  0
  1  9  1  0
  1 10  1  0
  1 11  1  0
  3 12  1  0
  4 13  1  0
  5 14  1  0
  6 15  1  0
  8 16  1  0
M  END
