
     RDKit          3D

 23 23  0  0  0  0  0  0  0  0999 V2000
    2.9070   -0.3409    0.4963 C   0  0  0  0  0  0  0  0  0  0  0  0
    2.0940   -0.6048   -0.6298 O   0  0  0  0  0  0  0  0  0  0  0  0
    0.9402    0.1092   -0.4687 C   0  0  0  0  0  0  0  0  0  0  0  0
    0.7016    1.0252   -1.5070 O   0  0  0  0  0  0  0  0  0  0  0  0
   -0.5617    1.5135   -1.1804 C   0  0  0  0  0  0  0  0  0  0  0  0
   -1.3676    0.3346   -0.6800 C   0  0  0  0  0  0  0  0  0  0  0  0
   -1.9994    0.6803    0.6444 C   0  0  0  0  0  0  0  0  0  0  0  0
   -0.3167   -0.7433   -0.5549 C   0  0  0  0  0  0  0  0  0  0  0  0
   -0.5001   -1.6100    0.6482 C   0  0  0  0  0  0  0  0  0  0  0  0
    3.8591   -0.8731    0.4553 H   0  0  0  0  0  0  0  0  0  0  0  0
    3.0203    0.7775    0.4990 H   0  0  0  0  0  0  0  0  0  0  0  0
    2.3595   -0.6578    1.3890 H   0  0  0  0  0  0  0  0  0  0  0  0
    0.9114    0.7059    0.4712 H   0  0  0  0  0  0  0  0  0  0  0  0
   -0.4095    2.2195   -0.3357 H   0  0  0  0  0  0  0  0  0  0  0  0
   -1.0437    2.0350   -2.0246 H   0  0  0  0  0  0  0  0  0  0  0  0
   -2.1341    0.0532   -1.4215 H   0  0  0  0  0  0  0  0  0  0  0  0
   -2.9572    1.2147    0.4481 H   0  0  0  0  0  0  0  0  0  0  0  0
   -1.2714    1.3238    1.2002 H   0  0  0  0  0  0  0  0  0  0  0  0
   -2.2299   -0.1770    1.2727 H   0  0  0  0  0  0  0  0  0  0  0  0
   -0.2891   -1.3628   -1.4516 H   0  0  0  0  0  0  0  0  0  0  0  0
   -1.5567   -1.9892    0.6214 H   0  0  0  0  0  0  0  0  0  0  0  0
   -0.3085   -1.1192    1.6061 H   0  0  0  0  0  0  0  0  0  0  0  0
    0.1526   -2.5144    0.5024 H   0  0  0  0  0  0  0  0  0  0  0  0
  1  2  1  0
  2  3  1  0
  3  4  1  0
  4  5  1  0
  5  6  1  0
  6  7  1  0
  6  8  1  0
  8  9  1  0
  8  3  1  0
  1 10  1  0
  1 11  1  0
  1 12  1  0
  3 13  1  0
  5 14  1  0
  5 15  1  0
  6 16  1  0
  7 17  1  0
  7 18  1  0
  7 19  1  0
  8 20  1  0
  9 21  1  0
  9 22  1  0
  9 23  1  0
M  END
