
     RDKit          3D

 23 24  0  0  0  0  0  0  0  0999 V2000
    2.2009    0.7120    1.1095 C   0  0  0  0  0  0  0  0  0  0  0  0
    1.1821   -0.2269    1.2664 O   0  0  0  0  0  0  0  0  0  0  0  0
    0.6407   -0.4730    0.0157 C   0  0  0  0  0  0  0  0  0  0  0  0
    1.5638   -1.0119   -1.0249 C   0  0  0  0  0  0  0  0  0  0  0  0
   -0.2433    0.6751   -0.4003 C   0  0  0  0  0  0  0  0  0  0  0  0
   -0.9208   -0.3309   -1.2884 C   0  0  0  0  0  0  0  0  0  0  0  0
   -0.7530   -1.0581    0.0113 C   0  0  0  0  0  0  0  0  0  0  0  0
   -1.1664    0.2104    0.6872 C   0  0  0  0  0  0  0  0  0  0  0  0
   -2.5865    0.6137    0.6047 C   0  0  0  0  0  0  0  0  0  0  0  0
    2.6742    0.9455    2.1064 H   0  0  0  0  0  0  0  0  0  0  0  0
    1.7988    1.6893    0.7554 H   0  0  0  0  0  0  0  0  0  0  0  0
    2.9860    0.3973    0.4123 H   0  0  0  0  0  0  0  0  0  0  0  0
    1.1097   -1.9597   -1.4145 H   0  0  0  0  0  0  0  0  0  0  0  0
    2.5206   -1.3488   -0.5337 H   0  0  0  0  0  0  0  0  0  0  0  0
    1.8412   -0.3073   -1.8146 H   0  0  0  0  0  0  0  0  0  0  0  0
    0.0341    1.6053   -0.6239 H   0  0  0  0  0  0  0  0  0  0  0  0
   -1.9292   -0.1087   -1.6233 H   0  0  0  0  0  0  0  0  0  0  0  0
   -0.2975   -0.6701   -2.1338 H   0  0  0  0  0  0  0  0  0  0  0  0
   -1.0083   -1.9969    0.2337 H   0  0  0  0  0  0  0  0  0  0  0  0
   -0.7501    0.3570    1.7041 H   0  0  0  0  0  0  0  0  0  0  0  0
   -3.2245    0.0293   -0.0534 H   0  0  0  0  0  0  0  0  0  0  0  0
   -3.0415    0.5428    1.6363 H   0  0  0  0  0  0  0  0  0  0  0  0
   -2.6310    1.7143    0.3681 H   0  0  0  0  0  0  0  0  0  0  0  0
  1  2  1  0
  2  3  1  0
  3  4  1  0
  3  5  1  0
  5  6  1  0
  6  7  1  0
  7  8  1  0
  8  9  1  0
  7  3  1  0
  8  5  1  0
  1 10  1  0
  1 11  1  0
  1 12  1  0
  4 13  1  0
  4 14  1  0
  4 15  1  0
  5 16  1  0
  6 17  1  0
  6 18  1  0
  7 19  1  0
  8 20  1  0
  9 21  1  0
  9 22  1  0
  9 23  1  0
M  END
