
     RDKit          3D

 23 24  0  0  0  0  0  0  0  0999 V2000
   -0.4313    2.3405    0.6429 C   0  0  0  0  0  0  0  0  0  0  0  0
   -0.1675    1.6525   -0.5219 O   0  0  0  0  0  0  0  0  0  0  0  0
   -0.1324    0.4029   -0.5037 C   0  0  0  0  0  0  0  0  0  0  0  0
    0.1432   -0.4940   -1.7089 C   0  0  0  0  0  0  0  0  0  0  0  0
   -0.0157   -1.4545   -0.5645 C   0  0  0  0  0  0  0  0  0  0  0  0
   -1.1853   -0.5943   -0.1606 C   0  0  0  0  0  0  0  0  0  0  0  0
   -1.6201   -0.6857    1.2555 C   0  0  0  0  0  0  0  0  0  0  0  0
    0.8385   -0.4946    0.2179 C   0  0  0  0  0  0  0  0  0  0  0  0
    2.2645   -0.4326   -0.2871 C   0  0  0  0  0  0  0  0  0  0  0  0
   -1.4092    2.1127    1.1017 H   0  0  0  0  0  0  0  0  0  0  0  0
    0.3950    2.2326    1.4023 H   0  0  0  0  0  0  0  0  0  0  0  0
   -0.4912    3.4324    0.3570 H   0  0  0  0  0  0  0  0  0  0  0  0
    1.1274   -0.3973   -2.1541 H   0  0  0  0  0  0  0  0  0  0  0  0
   -0.7193   -0.4659   -2.4224 H   0  0  0  0  0  0  0  0  0  0  0  0
    0.0344   -2.4505   -0.5822 H   0  0  0  0  0  0  0  0  0  0  0  0
   -1.9949   -0.6343   -0.9318 H   0  0  0  0  0  0  0  0  0  0  0  0
   -1.5711   -1.7721    1.5533 H   0  0  0  0  0  0  0  0  0  0  0  0
   -2.7195   -0.4473    1.2878 H   0  0  0  0  0  0  0  0  0  0  0  0
   -1.0728   -0.0854    1.9812 H   0  0  0  0  0  0  0  0  0  0  0  0
    0.7867   -0.5443    1.3035 H   0  0  0  0  0  0  0  0  0  0  0  0
    2.4247    0.5018   -0.8578 H   0  0  0  0  0  0  0  0  0  0  0  0
    2.5151   -1.2891   -0.9493 H   0  0  0  0  0  0  0  0  0  0  0  0
    3.0006   -0.4335    0.5412 H   0  0  0  0  0  0  0  0  0  0  0  0
  1  2  1  0
  2  3  1  0
  3  4  1  0
  4  5  1  0
  5  6  1  0
  6  7  1  0
  5  8  1  0
  8  9  1  0
  6  3  1  0
  8  3  1  0
  1 10  1  0
  1 11  1  0
  1 12  1  0
  4 13  1  0
  4 14  1  0
  5 15  1  0
  6 16  1  0
  7 17  1  0
  7 18  1  0
  7 19  1  0
  8 20  1  0
  9 21  1  0
  9 22  1  0
  9 23  1  0
M  END
