
     RDKit          3D

 17 17  0  0  0  0  0  0  0  0999 V2000
    2.4881   -0.1109   -0.0386 C   0  0  0  0  0  0  0  0  0  0  0  0
    1.3233    0.5447   -0.4330 O   0  0  0  0  0  0  0  0  0  0  0  0
    0.1810   -0.1051   -0.0410 C   0  0  0  0  0  0  0  0  0  0  0  0
   -0.7536    0.8056    0.7681 C   0  0  0  0  0  0  0  0  0  0  0  0
   -2.0701    0.0773    0.5163 C   0  0  0  0  0  0  0  0  0  0  0  0
   -2.0169   -0.4418   -0.7475 O   0  0  0  0  0  0  0  0  0  0  0  0
   -0.7330   -0.4382   -1.2049 C   0  0  0  0  0  0  0  0  0  0  0  0
    2.5482   -0.2122    1.0670 H   0  0  0  0  0  0  0  0  0  0  0  0
    3.3732    0.4845   -0.3389 H   0  0  0  0  0  0  0  0  0  0  0  0
    2.5578   -1.1415   -0.4918 H   0  0  0  0  0  0  0  0  0  0  0  0
    0.3706   -1.0471    0.5264 H   0  0  0  0  0  0  0  0  0  0  0  0
   -0.4771    0.8173    1.8248 H   0  0  0  0  0  0  0  0  0  0  0  0
   -0.7312    1.7835    0.2691 H   0  0  0  0  0  0  0  0  0  0  0  0
   -2.0842   -0.7603    1.2735 H   0  0  0  0  0  0  0  0  0  0  0  0
   -2.9385    0.6994    0.7343 H   0  0  0  0  0  0  0  0  0  0  0  0
   -0.6257    0.3962   -1.9567 H   0  0  0  0  0  0  0  0  0  0  0  0
   -0.4118   -1.3515   -1.7272 H   0  0  0  0  0  0  0  0  0  0  0  0
  1  2  1  0
  2  3  1  0
  3  4  1  0
  4  5  1  0
  5  6  1  0
  6  7  1  0
  7  3  1  0
  1  8  1  0
  1  9  1  0
  1 10  1  0
  3 11  1  0
  4 12  1  0
  4 13  1  0
  5 14  1  0
  5 15  1  0
  7 16  1  0
  7 17  1  0
M  END
