
     RDKit          3D

 21 22  0  0  0  0  0  0  0  0999 V2000
    3.2971    0.2219   -0.4434 C   0  0  0  0  0  0  0  0  0  0  0  0
    2.3494    0.1113    0.5506 O   0  0  0  0  0  0  0  0  0  0  0  0
    1.0608    0.3064    0.1710 C   0  0  0  0  0  0  0  0  0  0  0  0
    0.1263   -0.8398    0.3916 C   0  0  0  0  0  0  0  0  0  0  0  0
   -1.2058   -0.1060    0.5251 C   0  0  0  0  0  0  0  0  0  0  0  0
   -2.3533   -0.4575   -0.3089 C   0  0  0  0  0  0  0  0  0  0  0  0
   -2.3193   -0.7930    1.1701 C   0  0  0  0  0  0  0  0  0  0  0  0
   -0.8225    1.3034    0.8514 C   0  0  0  0  0  0  0  0  0  0  0  0
    0.5459    1.4076    0.8135 O   0  0  0  0  0  0  0  0  0  0  0  0
    4.2920    0.0320    0.0459 H   0  0  0  0  0  0  0  0  0  0  0  0
    3.2087   -0.5486   -1.2355 H   0  0  0  0  0  0  0  0  0  0  0  0
    3.3742    1.2414   -0.8756 H   0  0  0  0  0  0  0  0  0  0  0  0
    1.0544    0.5279   -0.9358 H   0  0  0  0  0  0  0  0  0  0  0  0
    0.2746   -1.3536    1.3619 H   0  0  0  0  0  0  0  0  0  0  0  0
    0.1211   -1.5534   -0.4409 H   0  0  0  0  0  0  0  0  0  0  0  0
   -2.3195   -1.3557   -0.9528 H   0  0  0  0  0  0  0  0  0  0  0  0
   -3.0885    0.3197   -0.5958 H   0  0  0  0  0  0  0  0  0  0  0  0
   -2.1836   -1.8412    1.4885 H   0  0  0  0  0  0  0  0  0  0  0  0
   -2.9337   -0.2018    1.8756 H   0  0  0  0  0  0  0  0  0  0  0  0
   -1.1363    1.5157    1.9131 H   0  0  0  0  0  0  0  0  0  0  0  0
   -1.3421    2.0632    0.2344 H   0  0  0  0  0  0  0  0  0  0  0  0
  1  2  1  0
  2  3  1  0
  3  4  1  0
  4  5  1  0
  5  6  1  0
  6  7  1  0
  5  8  1  0
  8  9  1  0
  9  3  1  0
  7  5  1  0
  1 10  1  0
  1 11  1  0
  1 12  1  0
  3 13  1  0
  4 14  1  0
  4 15  1  0
  6 16  1  0
  6 17  1  0
  7 18  1  0
  7 19  1  0
  8 20  1  0
  8 21  1  0
M  END
