
     RDKit          3D

 19 20  0  0  0  0  0  0  0  0999 V2000
    3.1291   -0.1795   -0.1951 C   0  0  0  0  0  0  0  0  0  0  0  0
    1.9533   -0.7387    0.3490 O   0  0  0  0  0  0  0  0  0  0  0  0
    0.8421   -0.0259   -0.0709 C   0  0  0  0  0  0  0  0  0  0  0  0
   -0.3341   -0.8632   -0.4254 C   0  0  0  0  0  0  0  0  0  0  0  0
   -0.4021   -1.2138    0.9255 O   0  0  0  0  0  0  0  0  0  0  0  0
   -0.1749    0.1506    1.0019 C   0  0  0  0  0  0  0  0  0  0  0  0
   -1.2096    0.2953   -0.0769 C   0  0  0  0  0  0  0  0  0  0  0  0
   -2.6177   -0.0260    0.3381 C   0  0  0  0  0  0  0  0  0  0  0  0
   -1.0554    1.3956   -0.9017 O   0  0  0  0  0  0  0  0  0  0  0  0
    3.9937   -0.7728    0.1608 H   0  0  0  0  0  0  0  0  0  0  0  0
    3.0041   -0.1727   -1.2849 H   0  0  0  0  0  0  0  0  0  0  0  0
    3.2126    0.8846    0.1383 H   0  0  0  0  0  0  0  0  0  0  0  0
    1.0331    0.8316   -0.7364 H   0  0  0  0  0  0  0  0  0  0  0  0
   -0.4370   -1.4970   -1.2009 H   0  0  0  0  0  0  0  0  0  0  0  0
   -0.1014    0.7059    1.8402 H   0  0  0  0  0  0  0  0  0  0  0  0
   -3.3838    0.5715   -0.1946 H   0  0  0  0  0  0  0  0  0  0  0  0
   -2.7615    0.1382    1.4465 H   0  0  0  0  0  0  0  0  0  0  0  0
   -2.7739   -1.1277    0.2002 H   0  0  0  0  0  0  0  0  0  0  0  0
   -1.9166    1.6440   -1.3137 H   0  0  0  0  0  0  0  0  0  0  0  0
  1  2  1  0
  2  3  1  0
  3  4  1  0
  4  5  1  0
  5  6  1  0
  6  7  1  0
  7  8  1  0
  7  9  1  0
  6  3  1  0
  7  4  1  0
  1 10  1  0
  1 11  1  0
  1 12  1  0
  3 13  1  0
  4 14  1  0
  6 15  1  0
  8 16  1  0
  8 17  1  0
  8 18  1  0
  9 19  1  0
M  END
