
     RDKit          3D

 21 22  0  0  0  0  0  0  0  0999 V2000
    3.1522   -0.2272    0.3310 C   0  0  0  0  0  0  0  0  0  0  0  0
    2.0233   -0.2924   -0.4746 O   0  0  0  0  0  0  0  0  0  0  0  0
    0.8565   -0.1471    0.2528 C   0  0  0  0  0  0  0  0  0  0  0  0
    0.0690    1.0265   -0.2071 C   0  0  0  0  0  0  0  0  0  0  0  0
   -1.1547    0.7011   -0.5396 C   0  0  0  0  0  0  0  0  0  0  0  0
   -2.2046    1.6258   -1.0390 C   0  0  0  0  0  0  0  0  0  0  0  0
   -1.3385   -0.7430   -0.3413 C   0  0  0  0  0  0  0  0  0  0  0  0
   -1.2719   -1.2877    1.0416 C   0  0  0  0  0  0  0  0  0  0  0  0
   -0.0678   -1.3123    0.1427 C   0  0  0  0  0  0  0  0  0  0  0  0
    3.1871   -1.0015    1.1093 H   0  0  0  0  0  0  0  0  0  0  0  0
    3.2334    0.8052    0.7189 H   0  0  0  0  0  0  0  0  0  0  0  0
    4.0387   -0.4138   -0.3297 H   0  0  0  0  0  0  0  0  0  0  0  0
    1.0816   -0.0069    1.3461 H   0  0  0  0  0  0  0  0  0  0  0  0
    0.4714    2.0274   -0.2568 H   0  0  0  0  0  0  0  0  0  0  0  0
   -3.2038    1.1541   -0.9914 H   0  0  0  0  0  0  0  0  0  0  0  0
   -1.9934    1.9436   -2.0796 H   0  0  0  0  0  0  0  0  0  0  0  0
   -2.2010    2.5708   -0.4241 H   0  0  0  0  0  0  0  0  0  0  0  0
   -1.8390   -1.2987   -1.1555 H   0  0  0  0  0  0  0  0  0  0  0  0
   -1.2558   -0.5793    1.8929 H   0  0  0  0  0  0  0  0  0  0  0  0
   -1.8670   -2.2371    1.1787 H   0  0  0  0  0  0  0  0  0  0  0  0
    0.2843   -2.3074   -0.1752 H   0  0  0  0  0  0  0  0  0  0  0  0
  1  2  1  0
  2  3  1  0
  3  4  1  0
  4  5  2  0
  5  6  1  0
  5  7  1  0
  7  8  1  0
  8  9  1  0
  9  3  1  0
  9  7  1  0
  1 10  1  0
  1 11  1  0
  1 12  1  0
  3 13  1  0
  4 14  1  0
  6 15  1  0
  6 16  1  0
  6 17  1  0
  7 18  1  0
  8 19  1  0
  8 20  1  0
  9 21  1  0
M  END
