
     RDKit          3D

 19 19  0  0  0  0  0  0  0  0999 V2000
    1.2437    1.7445   -0.5295 C   0  0  0  0  0  0  0  0  0  0  0  0
    0.6183    1.0981    0.5133 O   0  0  0  0  0  0  0  0  0  0  0  0
   -0.0354   -0.0177    0.0507 C   0  0  0  0  0  0  0  0  0  0  0  0
    0.8821   -1.0003   -0.5848 C   0  0  0  0  0  0  0  0  0  0  0  0
    1.8333   -1.3865    0.3841 O   0  0  0  0  0  0  0  0  0  0  0  0
   -1.2584    0.3731   -0.7232 C   0  0  0  0  0  0  0  0  0  0  0  0
   -2.1251   -0.2761    0.2852 C   0  0  0  0  0  0  0  0  0  0  0  0
   -3.3471   -0.3724    0.3774 O   0  0  0  0  0  0  0  0  0  0  0  0
   -0.9394   -0.7069    1.0468 C   0  0  0  0  0  0  0  0  0  0  0  0
    0.5188    2.0662   -1.3334 H   0  0  0  0  0  0  0  0  0  0  0  0
    2.0703    1.2233   -1.0052 H   0  0  0  0  0  0  0  0  0  0  0  0
    1.6580    2.7420   -0.1753 H   0  0  0  0  0  0  0  0  0  0  0  0
    1.4569   -0.6246   -1.4513 H   0  0  0  0  0  0  0  0  0  0  0  0
    0.3566   -1.9570   -0.8328 H   0  0  0  0  0  0  0  0  0  0  0  0
    1.5925   -2.2081    0.8435 H   0  0  0  0  0  0  0  0  0  0  0  0
   -1.3381   -0.0249   -1.7508 H   0  0  0  0  0  0  0  0  0  0  0  0
   -1.4628    1.4626   -0.7433 H   0  0  0  0  0  0  0  0  0  0  0  0
   -0.8718   -1.8118    1.0609 H   0  0  0  0  0  0  0  0  0  0  0  0
   -0.8523   -0.3235    2.0786 H   0  0  0  0  0  0  0  0  0  0  0  0
  1  2  1  0
  2  3  1  0
  3  4  1  0
  4  5  1  0
  3  6  1  0
  6  7  1  0
  7  8  2  0
  7  9  1  0
  9  3  1  0
  1 10  1  0
  1 11  1  0
  1 12  1  0
  4 13  1  0
  4 14  1  0
  5 15  1  0
  6 16  1  0
  6 17  1  0
  9 18  1  0
  9 19  1  0
M  END
