
     RDKit          3D

 20 20  0  0  0  0  0  0  0  0999 V2000
    2.3366    1.1546   -0.3366 C   0  0  0  0  0  0  0  0  0  0  0  0
    1.1266    0.7852   -0.9191 O   0  0  0  0  0  0  0  0  0  0  0  0
    0.5214   -0.1214   -0.1022 C   0  0  0  0  0  0  0  0  0  0  0  0
    0.3587   -1.4251   -0.8629 C   0  0  0  0  0  0  0  0  0  0  0  0
   -0.9249   -1.9253   -0.3132 C   0  0  0  0  0  0  0  0  0  0  0  0
   -1.5910   -1.0100    0.3551 C   0  0  0  0  0  0  0  0  0  0  0  0
   -0.8505    0.2727    0.3622 C   0  0  0  0  0  0  0  0  0  0  0  0
   -1.5428    1.2385   -0.5467 C   0  0  0  0  0  0  0  0  0  0  0  0
    2.8945    1.8924   -0.9393 H   0  0  0  0  0  0  0  0  0  0  0  0
    2.9039    0.2201   -0.1502 H   0  0  0  0  0  0  0  0  0  0  0  0
    2.0808    1.5516    0.6789 H   0  0  0  0  0  0  0  0  0  0  0  0
    1.1283   -0.3279    0.7909 H   0  0  0  0  0  0  0  0  0  0  0  0
    0.3356   -1.2770   -1.9556 H   0  0  0  0  0  0  0  0  0  0  0  0
    1.1823   -2.1329   -0.5584 H   0  0  0  0  0  0  0  0  0  0  0  0
   -1.2773   -2.9578   -0.4543 H   0  0  0  0  0  0  0  0  0  0  0  0
   -2.5426   -1.1519    0.8374 H   0  0  0  0  0  0  0  0  0  0  0  0
   -0.8104    0.7262    1.3752 H   0  0  0  0  0  0  0  0  0  0  0  0
   -2.6512    1.1317   -0.3660 H   0  0  0  0  0  0  0  0  0  0  0  0
   -1.3703    1.0696   -1.6086 H   0  0  0  0  0  0  0  0  0  0  0  0
   -1.3078    2.2867   -0.2466 H   0  0  0  0  0  0  0  0  0  0  0  0
  1  2  1  0
  2  3  1  0
  3  4  1  0
  4  5  1  0
  5  6  2  0
  6  7  1  0
  7  8  1  0
  7  3  1  0
  1  9  1  0
  1 10  1  0
  1 11  1  0
  3 12  1  0
  4 13  1  0
  4 14  1  0
  5 15  1  0
  6 16  1  0
  7 17  1  0
  8 18  1  0
  8 19  1  0
  8 20  1  0
M  END
