
     RDKit          3D

 21 22  0  0  0  0  0  0  0  0999 V2000
    2.7136   -0.9246    0.3881 C   0  0  0  0  0  0  0  0  0  0  0  0
    1.7665   -0.7367   -0.6455 O   0  0  0  0  0  0  0  0  0  0  0  0
    0.7244   -0.0503   -0.0938 C   0  0  0  0  0  0  0  0  0  0  0  0
    0.3626    1.1780   -0.9465 C   0  0  0  0  0  0  0  0  0  0  0  0
   -1.0585    0.8663   -0.5686 C   0  0  0  0  0  0  0  0  0  0  0  0
   -1.9084    1.6352    0.1698 C   0  0  0  0  0  0  0  0  0  0  0  0
   -2.1193    1.3085   -1.2830 O   0  0  0  0  0  0  0  0  0  0  0  0
   -0.6717   -0.5640   -0.4560 C   0  0  0  0  0  0  0  0  0  0  0  0
   -1.2617   -1.3583    0.6626 C   0  0  0  0  0  0  0  0  0  0  0  0
    2.1922   -1.5043    1.1770 H   0  0  0  0  0  0  0  0  0  0  0  0
    3.6258   -1.4039    0.0245 H   0  0  0  0  0  0  0  0  0  0  0  0
    2.8811    0.0957    0.8089 H   0  0  0  0  0  0  0  0  0  0  0  0
    0.7720    0.2238    0.9567 H   0  0  0  0  0  0  0  0  0  0  0  0
    0.5807    1.0342   -2.0232 H   0  0  0  0  0  0  0  0  0  0  0  0
    0.7883    2.1095   -0.5699 H   0  0  0  0  0  0  0  0  0  0  0  0
   -2.7435    1.2292    0.7841 H   0  0  0  0  0  0  0  0  0  0  0  0
   -1.7839    2.7286    0.3122 H   0  0  0  0  0  0  0  0  0  0  0  0
   -0.6909   -1.0730   -1.4611 H   0  0  0  0  0  0  0  0  0  0  0  0
   -0.6963   -1.1882    1.6018 H   0  0  0  0  0  0  0  0  0  0  0  0
   -1.1404   -2.4402    0.4005 H   0  0  0  0  0  0  0  0  0  0  0  0
   -2.3326   -1.1654    0.7614 H   0  0  0  0  0  0  0  0  0  0  0  0
  1  2  1  0
  2  3  1  0
  3  4  1  0
  4  5  1  0
  5  6  1  0
  6  7  1  0
  5  8  1  0
  8  9  1  0
  8  3  1  0
  7  5  1  0
  1 10  1  0
  1 11  1  0
  1 12  1  0
  3 13  1  0
  4 14  1  0
  4 15  1  0
  6 16  1  0
  6 17  1  0
  8 18  1  0
  9 19  1  0
  9 20  1  0
  9 21  1  0
M  END
