
     RDKit          3D

 19 21  0  0  0  0  0  0  0  0999 V2000
    3.2191   -0.5299   -0.2158 C   0  0  0  0  0  0  0  0  0  0  0  0
    1.8886   -0.5645    0.1188 O   0  0  0  0  0  0  0  0  0  0  0  0
    1.1129    0.3880   -0.5626 C   0  0  0  0  0  0  0  0  0  0  0  0
    0.1096    1.1131    0.1277 C   0  0  0  0  0  0  0  0  0  0  0  0
   -1.1185    1.5918   -0.3300 O   0  0  0  0  0  0  0  0  0  0  0  0
   -1.4921    0.2753   -0.1264 C   0  0  0  0  0  0  0  0  0  0  0  0
   -2.0257   -0.3436    1.0122 C   0  0  0  0  0  0  0  0  0  0  0  0
   -2.7738   -0.3116   -0.3647 C   0  0  0  0  0  0  0  0  0  0  0  0
   -0.2325   -0.0493   -0.8863 C   0  0  0  0  0  0  0  0  0  0  0  0
    3.3911   -0.7240   -1.3143 H   0  0  0  0  0  0  0  0  0  0  0  0
    3.7264    0.4261    0.0235 H   0  0  0  0  0  0  0  0  0  0  0  0
    3.7273   -1.3075    0.3926 H   0  0  0  0  0  0  0  0  0  0  0  0
    1.7766    0.9897   -1.2566 H   0  0  0  0  0  0  0  0  0  0  0  0
   -0.0483    0.7995    1.2092 H   0  0  0  0  0  0  0  0  0  0  0  0
   -1.7448   -1.3583    1.3395 H   0  0  0  0  0  0  0  0  0  0  0  0
   -2.5283    0.2537    1.8147 H   0  0  0  0  0  0  0  0  0  0  0  0
   -2.8343   -1.2819   -0.8963 H   0  0  0  0  0  0  0  0  0  0  0  0
   -3.6722    0.3422   -0.4006 H   0  0  0  0  0  0  0  0  0  0  0  0
   -0.4814    0.2913   -1.9422 H   0  0  0  0  0  0  0  0  0  0  0  0
  1  2  1  0
  2  3  1  0
  3  4  1  0
  4  5  1  0
  5  6  1  0
  6  7  1  0
  7  8  1  0
  6  9  1  0
  9  3  1  0
  9  4  1  0
  8  6  1  0
  1 10  1  0
  1 11  1  0
  1 12  1  0
  3 13  1  0
  4 14  1  0
  7 15  1  0
  7 16  1  0
  8 17  1  0
  8 18  1  0
  9 19  1  0
M  END
