
     RDKit          3D

 16 16  0  0  0  0  0  0  0  0999 V2000
    2.0586   -0.5313    0.2472 C   0  0  0  0  0  0  0  0  0  0  0  0
    0.9032   -0.8119   -0.4306 O   0  0  0  0  0  0  0  0  0  0  0  0
   -0.0755    0.1582   -0.3268 C   0  0  0  0  0  0  0  0  0  0  0  0
    0.1946    1.5322   -0.7953 C   0  0  0  0  0  0  0  0  0  0  0  0
    1.1231    1.7416   -1.5561 O   0  0  0  0  0  0  0  0  0  0  0  0
   -1.4568   -0.3538   -0.7689 C   0  0  0  0  0  0  0  0  0  0  0  0
   -1.1924   -0.0256    0.6691 C   0  0  0  0  0  0  0  0  0  0  0  0
   -1.0678   -1.0581    1.5989 O   0  0  0  0  0  0  0  0  0  0  0  0
    2.5620    0.4187   -0.0901 H   0  0  0  0  0  0  0  0  0  0  0  0
    1.9477   -0.5067    1.3611 H   0  0  0  0  0  0  0  0  0  0  0  0
    2.7964   -1.3307    0.0288 H   0  0  0  0  0  0  0  0  0  0  0  0
   -0.3919    2.3890   -0.4993 H   0  0  0  0  0  0  0  0  0  0  0  0
   -1.5839   -1.4257   -0.9681 H   0  0  0  0  0  0  0  0  0  0  0  0
   -2.0939    0.2931   -1.3785 H   0  0  0  0  0  0  0  0  0  0  0  0
   -1.7348    0.8502    1.0384 H   0  0  0  0  0  0  0  0  0  0  0  0
   -1.9887   -1.3392    1.8701 H   0  0  0  0  0  0  0  0  0  0  0  0
  1  2  1  0
  2  3  1  0
  3  4  1  0
  4  5  2  0
  3  6  1  0
  6  7  1  0
  7  8  1  0
  7  3  1  0
  1  9  1  0
  1 10  1  0
  1 11  1  0
  4 12  1  0
  6 13  1  0
  6 14  1  0
  7 15  1  0
  8 16  1  0
M  END
