
     RDKit          3D

 18 18  0  0  0  0  0  0  0  0999 V2000
    2.2747   -0.3393    0.1959 C   0  0  0  0  0  0  0  0  0  0  0  0
    1.2123    0.3359    0.7043 O   0  0  0  0  0  0  0  0  0  0  0  0
    0.0234    0.2121    0.0877 C   0  0  0  0  0  0  0  0  0  0  0  0
   -0.1054    0.6289   -1.3421 C   0  0  0  0  0  0  0  0  0  0  0  0
   -1.0876    0.8694    0.9143 C   0  0  0  0  0  0  0  0  0  0  0  0
   -1.9909   -0.1940    0.3743 C   0  0  0  0  0  0  0  0  0  0  0  0
   -3.1513   -0.2971    0.0931 O   0  0  0  0  0  0  0  0  0  0  0  0
   -0.7650   -1.0693    0.3501 C   0  0  0  0  0  0  0  0  0  0  0  0
    3.1685   -0.1255    0.8222 H   0  0  0  0  0  0  0  0  0  0  0  0
    2.0483   -1.4309    0.2503 H   0  0  0  0  0  0  0  0  0  0  0  0
    2.5215   -0.1241   -0.8551 H   0  0  0  0  0  0  0  0  0  0  0  0
    0.3368   -0.0947   -2.0590 H   0  0  0  0  0  0  0  0  0  0  0  0
    0.2526    1.6638   -1.5191 H   0  0  0  0  0  0  0  0  0  0  0  0
   -1.2097    0.6246   -1.5773 H   0  0  0  0  0  0  0  0  0  0  0  0
   -1.3342    1.8924    0.6277 H   0  0  0  0  0  0  0  0  0  0  0  0
   -0.9136    0.6740    1.9920 H   0  0  0  0  0  0  0  0  0  0  0  0
   -0.7373   -1.8121   -0.4420 H   0  0  0  0  0  0  0  0  0  0  0  0
   -0.5432   -1.4142    1.3827 H   0  0  0  0  0  0  0  0  0  0  0  0
  1  2  1  0
  2  3  1  0
  3  4  1  0
  3  5  1  0
  5  6  1  0
  6  7  2  0
  6  8  1  0
  8  3  1  0
  1  9  1  0
  1 10  1  0
  1 11  1  0
  4 12  1  0
  4 13  1  0
  4 14  1  0
  5 15  1  0
  5 16  1  0
  8 17  1  0
  8 18  1  0
M  END
