
     RDKit          3D

 23 23  0  0  0  0  0  0  0  0999 V2000
    3.1236   -0.4913    0.0054 C   0  0  0  0  0  0  0  0  0  0  0  0
    1.9479   -0.6187   -0.7453 O   0  0  0  0  0  0  0  0  0  0  0  0
    0.8507   -0.2750    0.0324 C   0  0  0  0  0  0  0  0  0  0  0  0
   -0.1227   -1.3929    0.2174 C   0  0  0  0  0  0  0  0  0  0  0  0
   -1.3503   -1.2760   -0.5741 C   0  0  0  0  0  0  0  0  0  0  0  0
   -2.2307   -0.2952   -0.5706 C   0  0  0  0  0  0  0  0  0  0  0  0
   -2.2019    0.9407    0.2364 C   0  0  0  0  0  0  0  0  0  0  0  0
   -0.8175    1.4211    0.5319 C   0  0  0  0  0  0  0  0  0  0  0  0
    0.1870    0.9879   -0.5112 C   0  0  0  0  0  0  0  0  0  0  0  0
    3.2038    0.5765    0.3349 H   0  0  0  0  0  0  0  0  0  0  0  0
    2.9782   -1.0941    0.9271 H   0  0  0  0  0  0  0  0  0  0  0  0
    3.9994   -0.7910   -0.5669 H   0  0  0  0  0  0  0  0  0  0  0  0
    1.2091    0.0150    1.0639 H   0  0  0  0  0  0  0  0  0  0  0  0
   -0.3544   -1.5983    1.3034 H   0  0  0  0  0  0  0  0  0  0  0  0
    0.4027   -2.3347   -0.1199 H   0  0  0  0  0  0  0  0  0  0  0  0
   -1.6099   -2.0820   -1.2703 H   0  0  0  0  0  0  0  0  0  0  0  0
   -3.0993   -0.3632   -1.2268 H   0  0  0  0  0  0  0  0  0  0  0  0
   -2.7283    0.7503    1.1770 H   0  0  0  0  0  0  0  0  0  0  0  0
   -2.7571    1.7538   -0.3123 H   0  0  0  0  0  0  0  0  0  0  0  0
   -0.8386    2.5272    0.5848 H   0  0  0  0  0  0  0  0  0  0  0  0
   -0.5207    1.0495    1.5226 H   0  0  0  0  0  0  0  0  0  0  0  0
   -0.2526    0.8293   -1.4964 H   0  0  0  0  0  0  0  0  0  0  0  0
    0.9816    1.7612   -0.5437 H   0  0  0  0  0  0  0  0  0  0  0  0
  1  2  1  0
  2  3  1  0
  3  4  1  0
  4  5  1  0
  5  6  2  0
  6  7  1  0
  7  8  1  0
  8  9  1  0
  9  3  1  0
  1 10  1  0
  1 11  1  0
  1 12  1  0
  3 13  1  0
  4 14  1  0
  4 15  1  0
  5 16  1  0
  6 17  1  0
  7 18  1  0
  7 19  1  0
  8 20  1  0
  8 21  1  0
  9 22  1  0
  9 23  1  0
M  END
