
     RDKit          3D

 21 22  0  0  0  0  0  0  0  0999 V2000
    2.0474   -1.0616    0.1829 C   0  0  0  0  0  0  0  0  0  0  0  0
    1.1901   -0.2495    0.8549 O   0  0  0  0  0  0  0  0  0  0  0  0
    0.3000    0.4633    0.1327 C   0  0  0  0  0  0  0  0  0  0  0  0
    0.8403    1.4375   -0.8821 C   0  0  0  0  0  0  0  0  0  0  0  0
   -0.8509    1.0594    0.9702 C   0  0  0  0  0  0  0  0  0  0  0  0
   -1.1790   -0.3970    1.1535 C   0  0  0  0  0  0  0  0  0  0  0  0
   -1.6215   -1.3684    0.1923 C   0  0  0  0  0  0  0  0  0  0  0  0
   -0.8523   -0.3371   -0.3975 C   0  0  0  0  0  0  0  0  0  0  0  0
   -1.6866    0.5634   -1.1242 O   0  0  0  0  0  0  0  0  0  0  0  0
    2.7041   -1.5671    0.9391 H   0  0  0  0  0  0  0  0  0  0  0  0
    2.7475   -0.5361   -0.4997 H   0  0  0  0  0  0  0  0  0  0  0  0
    1.5385   -1.9204   -0.3473 H   0  0  0  0  0  0  0  0  0  0  0  0
    1.0884    0.9450   -1.8580 H   0  0  0  0  0  0  0  0  0  0  0  0
    1.6862    2.0314   -0.4952 H   0  0  0  0  0  0  0  0  0  0  0  0
    0.0232    2.1711   -1.0854 H   0  0  0  0  0  0  0  0  0  0  0  0
   -0.5305    1.5408    1.8987 H   0  0  0  0  0  0  0  0  0  0  0  0
   -1.5504    1.6786    0.4215 H   0  0  0  0  0  0  0  0  0  0  0  0
   -0.3552   -0.8429    1.7955 H   0  0  0  0  0  0  0  0  0  0  0  0
   -1.1952   -2.4145    0.0997 H   0  0  0  0  0  0  0  0  0  0  0  0
   -2.7471   -1.4600    0.1101 H   0  0  0  0  0  0  0  0  0  0  0  0
   -1.5972    0.2640   -2.0619 H   0  0  0  0  0  0  0  0  0  0  0  0
  1  2  1  0
  2  3  1  0
  3  4  1  0
  3  5  1  0
  5  6  1  0
  6  7  1  0
  7  8  1  0
  8  9  1  0
  8  3  1  0
  8  6  1  0
  1 10  1  0
  1 11  1  0
  1 12  1  0
  4 13  1  0
  4 14  1  0
  4 15  1  0
  5 16  1  0
  5 17  1  0
  6 18  1  0
  7 19  1  0
  7 20  1  0
  9 21  1  0
M  END
