
     RDKit          3D

 17 17  0  0  0  0  0  0  0  0999 V2000
    2.3282   -0.0152    0.0334 C   0  0  0  0  0  0  0  0  0  0  0  0
    0.9746    0.0408    0.4098 O   0  0  0  0  0  0  0  0  0  0  0  0
    0.1365    0.0636   -0.6849 C   0  0  0  0  0  0  0  0  0  0  0  0
   -0.8597    1.2283   -0.5772 C   0  0  0  0  0  0  0  0  0  0  0  0
   -1.6777    0.3057    0.3134 C   0  0  0  0  0  0  0  0  0  0  0  0
   -1.0767   -0.8399   -0.5138 C   0  0  0  0  0  0  0  0  0  0  0  0
   -0.8541   -1.9844    0.2290 O   0  0  0  0  0  0  0  0  0  0  0  0
    2.9452   -0.0313    0.9396 H   0  0  0  0  0  0  0  0  0  0  0  0
    2.4670   -0.9598   -0.5226 H   0  0  0  0  0  0  0  0  0  0  0  0
    2.5666    0.8565   -0.6283 H   0  0  0  0  0  0  0  0  0  0  0  0
    0.6038    0.0367   -1.6791 H   0  0  0  0  0  0  0  0  0  0  0  0
   -1.3696    1.3862   -1.5420 H   0  0  0  0  0  0  0  0  0  0  0  0
   -0.4509    2.1158   -0.0731 H   0  0  0  0  0  0  0  0  0  0  0  0
   -1.2610    0.3049    1.3378 H   0  0  0  0  0  0  0  0  0  0  0  0
   -2.7551    0.3715    0.2024 H   0  0  0  0  0  0  0  0  0  0  0  0
   -1.6220   -0.9632   -1.4496 H   0  0  0  0  0  0  0  0  0  0  0  0
   -0.0950   -1.9161    0.8286 H   0  0  0  0  0  0  0  0  0  0  0  0
  1  2  1  0
  2  3  1  0
  3  4  1  0
  4  5  1  0
  5  6  1  0
  6  7  1  0
  6  3  1  0
  1  8  1  0
  1  9  1  0
  1 10  1  0
  3 11  1  0
  4 12  1  0
  4 13  1  0
  5 14  1  0
  5 15  1  0
  6 16  1  0
  7 17  1  0
M  END
