
     RDKit          3D

 23 23  0  0  0  0  0  0  0  0999 V2000
   -2.5161   -0.3957    1.1574 C   0  0  0  0  0  0  0  0  0  0  0  0
   -1.3706    0.2697    1.4825 O   0  0  0  0  0  0  0  0  0  0  0  0
   -0.4681    0.3774    0.4683 C   0  0  0  0  0  0  0  0  0  0  0  0
   -1.0862    1.2622   -0.6160 C   0  0  0  0  0  0  0  0  0  0  0  0
   -0.0010   -0.9420   -0.0488 C   0  0  0  0  0  0  0  0  0  0  0  0
    1.3699   -1.2808    0.5647 C   0  0  0  0  0  0  0  0  0  0  0  0
    2.4088   -0.2363    0.1805 C   0  0  0  0  0  0  0  0  0  0  0  0
    1.5934    1.0321   -0.1022 C   0  0  0  0  0  0  0  0  0  0  0  0
    0.6709    1.1051    0.9346 O   0  0  0  0  0  0  0  0  0  0  0  0
   -3.0597    0.0962    0.3024 H   0  0  0  0  0  0  0  0  0  0  0  0
   -2.3898   -1.4522    0.8990 H   0  0  0  0  0  0  0  0  0  0  0  0
   -3.1716   -0.3476    2.0740 H   0  0  0  0  0  0  0  0  0  0  0  0
   -1.3886    0.6770   -1.4996 H   0  0  0  0  0  0  0  0  0  0  0  0
   -2.0261    1.7573   -0.2315 H   0  0  0  0  0  0  0  0  0  0  0  0
   -0.4296    2.1325   -0.8741 H   0  0  0  0  0  0  0  0  0  0  0  0
   -0.6211   -1.8122    0.2144 H   0  0  0  0  0  0  0  0  0  0  0  0
    0.1201   -0.9487   -1.1581 H   0  0  0  0  0  0  0  0  0  0  0  0
    1.1980   -1.2924    1.6653 H   0  0  0  0  0  0  0  0  0  0  0  0
    1.7392   -2.2416    0.1811 H   0  0  0  0  0  0  0  0  0  0  0  0
    3.1252   -0.0373    0.9999 H   0  0  0  0  0  0  0  0  0  0  0  0
    2.9539   -0.4873   -0.7228 H   0  0  0  0  0  0  0  0  0  0  0  0
    2.2307    1.9190   -0.1953 H   0  0  0  0  0  0  0  0  0  0  0  0
    1.1184    0.8456   -1.0929 H   0  0  0  0  0  0  0  0  0  0  0  0
  1  2  1  0
  2  3  1  0
  3  4  1  0
  3  5  1  0
  5  6  1  0
  6  7  1  0
  7  8  1  0
  8  9  1  0
  9  3  1  0
  1 10  1  0
  1 11  1  0
  1 12  1  0
  4 13  1  0
  4 14  1  0
  4 15  1  0
  5 16  1  0
  5 17  1  0
  6 18  1  0
  6 19  1  0
  7 20  1  0
  7 21  1  0
  8 22  1  0
  8 23  1  0
M  END
