
     RDKit          3D

 17 17  0  0  0  0  0  0  0  0999 V2000
    2.4762   -0.1822   -0.5641 C   0  0  0  0  0  0  0  0  0  0  0  0
    1.3355    0.4465   -0.1161 O   0  0  0  0  0  0  0  0  0  0  0  0
    0.1791   -0.2725   -0.2856 C   0  0  0  0  0  0  0  0  0  0  0  0
   -0.7967   -0.1596    0.8872 C   0  0  0  0  0  0  0  0  0  0  0  0
   -1.4481   -1.4171    1.3137 C   0  0  0  0  0  0  0  0  0  0  0  0
   -1.8028   -2.2458    0.4789 O   0  0  0  0  0  0  0  0  0  0  0  0
   -1.1360    0.4458   -0.4530 C   0  0  0  0  0  0  0  0  0  0  0  0
   -1.1109    1.9194   -0.4797 C   0  0  0  0  0  0  0  0  0  0  0  0
   -1.9545    2.5366   -1.0832 O   0  0  0  0  0  0  0  0  0  0  0  0
    2.4630   -0.4218   -1.6400 H   0  0  0  0  0  0  0  0  0  0  0  0
    3.3230    0.5283   -0.4032 H   0  0  0  0  0  0  0  0  0  0  0  0
    2.6972   -1.1181   -0.0014 H   0  0  0  0  0  0  0  0  0  0  0  0
    0.2343   -1.2948   -0.7634 H   0  0  0  0  0  0  0  0  0  0  0  0
   -0.5241    0.5048    1.7338 H   0  0  0  0  0  0  0  0  0  0  0  0
   -1.6414   -1.6685    2.3423 H   0  0  0  0  0  0  0  0  0  0  0  0
   -1.9570   -0.0476   -1.0077 H   0  0  0  0  0  0  0  0  0  0  0  0
   -0.3366    2.4467    0.0416 H   0  0  0  0  0  0  0  0  0  0  0  0
  1  2  1  0
  2  3  1  0
  3  4  1  0
  4  5  1  0
  5  6  2  0
  4  7  1  0
  7  8  1  0
  8  9  2  0
  7  3  1  0
  1 10  1  0
  1 11  1  0
  1 12  1  0
  3 13  1  0
  4 14  1  0
  5 15  1  0
  7 16  1  0
  8 17  1  0
M  END
