
     RDKit          3D

 23 23  0  0  0  0  0  0  0  0999 V2000
    2.7672    0.4175    0.0145 C   0  0  0  0  0  0  0  0  0  0  0  0
    1.5874    0.5396    0.7431 O   0  0  0  0  0  0  0  0  0  0  0  0
    0.5769   -0.2538    0.2663 C   0  0  0  0  0  0  0  0  0  0  0  0
    0.0708   -1.1790    1.3596 C   0  0  0  0  0  0  0  0  0  0  0  0
   -0.9836   -1.9533    0.9504 O   0  0  0  0  0  0  0  0  0  0  0  0
   -2.0364   -1.2677    0.4027 C   0  0  0  0  0  0  0  0  0  0  0  0
   -1.6186   -0.3422   -0.7329 C   0  0  0  0  0  0  0  0  0  0  0  0
   -0.5959    0.6134   -0.1439 C   0  0  0  0  0  0  0  0  0  0  0  0
   -0.2284    1.7265   -1.0531 C   0  0  0  0  0  0  0  0  0  0  0  0
    2.6292    0.6974   -1.0509 H   0  0  0  0  0  0  0  0  0  0  0  0
    3.1569   -0.6178    0.0263 H   0  0  0  0  0  0  0  0  0  0  0  0
    3.4973    1.1551    0.4274 H   0  0  0  0  0  0  0  0  0  0  0  0
    0.8680   -0.8598   -0.6198 H   0  0  0  0  0  0  0  0  0  0  0  0
    0.9180   -1.8515    1.6118 H   0  0  0  0  0  0  0  0  0  0  0  0
   -0.1299   -0.5718    2.2559 H   0  0  0  0  0  0  0  0  0  0  0  0
   -2.6030   -0.6511    1.1206 H   0  0  0  0  0  0  0  0  0  0  0  0
   -2.7571   -2.0280    0.0078 H   0  0  0  0  0  0  0  0  0  0  0  0
   -1.0950   -0.9531   -1.5022 H   0  0  0  0  0  0  0  0  0  0  0  0
   -2.5091    0.1634   -1.1189 H   0  0  0  0  0  0  0  0  0  0  0  0
   -1.0227    1.0503    0.7948 H   0  0  0  0  0  0  0  0  0  0  0  0
   -0.2472    1.4721   -2.1333 H   0  0  0  0  0  0  0  0  0  0  0  0
    0.7443    2.1457   -0.7215 H   0  0  0  0  0  0  0  0  0  0  0  0
   -0.9891    2.5480   -0.9048 H   0  0  0  0  0  0  0  0  0  0  0  0
  1  2  1  0
  2  3  1  0
  3  4  1  0
  4  5  1  0
  5  6  1  0
  6  7  1  0
  7  8  1  0
  8  9  1  0
  8  3  1  0
  1 10  1  0
  1 11  1  0
  1 12  1  0
  3 13  1  0
  4 14  1  0
  4 15  1  0
  6 16  1  0
  6 17  1  0
  7 18  1  0
  7 19  1  0
  8 20  1  0
  9 21  1  0
  9 22  1  0
  9 23  1  0
M  END
