
     RDKit          3D

 23 23  0  0  0  0  0  0  0  0999 V2000
    2.9102    0.9448   -0.0876 C   0  0  0  0  0  0  0  0  0  0  0  0
    2.0484    0.0294    0.5114 O   0  0  0  0  0  0  0  0  0  0  0  0
    0.9512   -0.1416   -0.3271 C   0  0  0  0  0  0  0  0  0  0  0  0
    0.7499   -1.5868   -0.6953 C   0  0  0  0  0  0  0  0  0  0  0  0
   -0.7099   -1.7018   -0.8949 C   0  0  0  0  0  0  0  0  0  0  0  0
   -1.3050   -0.7184   -0.2449 C   0  0  0  0  0  0  0  0  0  0  0  0
   -2.7899   -0.4909   -0.2021 C   0  0  0  0  0  0  0  0  0  0  0  0
   -0.3296    0.1706    0.4510 C   0  0  0  0  0  0  0  0  0  0  0  0
   -0.7481    1.5900    0.2231 C   0  0  0  0  0  0  0  0  0  0  0  0
    3.2646    0.5889   -1.0836 H   0  0  0  0  0  0  0  0  0  0  0  0
    3.8025    1.0090    0.5919 H   0  0  0  0  0  0  0  0  0  0  0  0
    2.4016    1.9100   -0.1932 H   0  0  0  0  0  0  0  0  0  0  0  0
    1.0213    0.4747   -1.2474 H   0  0  0  0  0  0  0  0  0  0  0  0
    1.3255   -1.8785   -1.5952 H   0  0  0  0  0  0  0  0  0  0  0  0
    0.9976   -2.2398    0.1833 H   0  0  0  0  0  0  0  0  0  0  0  0
   -1.2515   -2.4700   -1.4841 H   0  0  0  0  0  0  0  0  0  0  0  0
   -3.3427   -1.4460   -0.3329 H   0  0  0  0  0  0  0  0  0  0  0  0
   -3.0242   -0.1432    0.8254 H   0  0  0  0  0  0  0  0  0  0  0  0
   -3.1133    0.2891   -0.9080 H   0  0  0  0  0  0  0  0  0  0  0  0
   -0.2397   -0.1135    1.4965 H   0  0  0  0  0  0  0  0  0  0  0  0
   -0.9176    2.0657    1.2140 H   0  0  0  0  0  0  0  0  0  0  0  0
   -1.7224    1.6701   -0.3434 H   0  0  0  0  0  0  0  0  0  0  0  0
    0.0209    2.1881   -0.3056 H   0  0  0  0  0  0  0  0  0  0  0  0
  1  2  1  0
  2  3  1  0
  3  4  1  0
  4  5  1  0
  5  6  2  0
  6  7  1  0
  6  8  1  0
  8  9  1  0
  8  3  1  0
  1 10  1  0
  1 11  1  0
  1 12  1  0
  3 13  1  0
  4 14  1  0
  4 15  1  0
  5 16  1  0
  7 17  1  0
  7 18  1  0
  7 19  1  0
  8 20  1  0
  9 21  1  0
  9 22  1  0
  9 23  1  0
M  END
