
     RDKit          3D

 21 22  0  0  0  0  0  0  0  0999 V2000
    2.7388    0.0494   -0.3775 C   0  0  0  0  0  0  0  0  0  0  0  0
    1.4315    0.2147   -0.8106 O   0  0  0  0  0  0  0  0  0  0  0  0
    0.5212    0.2575    0.2296 C   0  0  0  0  0  0  0  0  0  0  0  0
   -0.3828    1.4666    0.1523 C   0  0  0  0  0  0  0  0  0  0  0  0
   -0.4012    2.2783    1.2594 O   0  0  0  0  0  0  0  0  0  0  0  0
   -1.5553    0.5057    0.0296 C   0  0  0  0  0  0  0  0  0  0  0  0
   -1.5582   -0.2937   -1.2182 C   0  0  0  0  0  0  0  0  0  0  0  0
   -0.6608   -0.6348   -0.0778 C   0  0  0  0  0  0  0  0  0  0  0  0
   -0.8416   -1.9261    0.6424 C   0  0  0  0  0  0  0  0  0  0  0  0
    3.0331    0.9019    0.2920 H   0  0  0  0  0  0  0  0  0  0  0  0
    2.8865   -0.8828    0.2103 H   0  0  0  0  0  0  0  0  0  0  0  0
    3.3837   -0.0002   -1.2785 H   0  0  0  0  0  0  0  0  0  0  0  0
    0.9260    0.1590    1.2431 H   0  0  0  0  0  0  0  0  0  0  0  0
   -0.2528    2.0158   -0.7993 H   0  0  0  0  0  0  0  0  0  0  0  0
   -0.8831    3.1094    1.0116 H   0  0  0  0  0  0  0  0  0  0  0  0
   -2.4121    0.5962    0.6916 H   0  0  0  0  0  0  0  0  0  0  0  0
   -1.0102    0.1260   -2.1113 H   0  0  0  0  0  0  0  0  0  0  0  0
   -2.3352   -1.0242   -1.4604 H   0  0  0  0  0  0  0  0  0  0  0  0
   -0.4476   -2.7403   -0.0346 H   0  0  0  0  0  0  0  0  0  0  0  0
   -1.9016   -2.2007    0.8302 H   0  0  0  0  0  0  0  0  0  0  0  0
   -0.2782   -1.9777    1.5763 H   0  0  0  0  0  0  0  0  0  0  0  0
  1  2  1  0
  2  3  1  0
  3  4  1  0
  4  5  1  0
  4  6  1  0
  6  7  1  0
  7  8  1  0
  8  9  1  0
  8  3  1  0
  8  6  1  0
  1 10  1  0
  1 11  1  0
  1 12  1  0
  3 13  1  0
  4 14  1  0
  5 15  1  0
  6 16  1  0
  7 17  1  0
  7 18  1  0
  9 19  1  0
  9 20  1  0
  9 21  1  0
M  END
