
     RDKit          3D

 21 21  0  0  0  0  0  0  0  0999 V2000
    2.4481    0.6472   -0.3566 C   0  0  0  0  0  0  0  0  0  0  0  0
    1.1875    0.7952   -0.9743 O   0  0  0  0  0  0  0  0  0  0  0  0
    0.3215   -0.0296   -0.2646 C   0  0  0  0  0  0  0  0  0  0  0  0
    0.7197   -1.4939   -0.2803 C   0  0  0  0  0  0  0  0  0  0  0  0
   -0.0678    0.5705    1.0873 C   0  0  0  0  0  0  0  0  0  0  0  0
   -1.0702    0.3329    0.0237 C   0  0  0  0  0  0  0  0  0  0  0  0
   -2.0527   -0.7857    0.3148 C   0  0  0  0  0  0  0  0  0  0  0  0
   -1.6521    1.4569   -0.7373 C   0  0  0  0  0  0  0  0  0  0  0  0
   -2.8457    1.6259   -0.8086 O   0  0  0  0  0  0  0  0  0  0  0  0
    2.3523    0.9647    0.7188 H   0  0  0  0  0  0  0  0  0  0  0  0
    2.7613   -0.4175   -0.3291 H   0  0  0  0  0  0  0  0  0  0  0  0
    3.2096    1.3014   -0.8234 H   0  0  0  0  0  0  0  0  0  0  0  0
   -0.1556   -2.1716   -0.2942 H   0  0  0  0  0  0  0  0  0  0  0  0
    1.3241   -1.6641    0.6352 H   0  0  0  0  0  0  0  0  0  0  0  0
    1.2830   -1.6862   -1.2079 H   0  0  0  0  0  0  0  0  0  0  0  0
    0.2160    1.6012    1.3221 H   0  0  0  0  0  0  0  0  0  0  0  0
   -0.0093   -0.1345    1.9197 H   0  0  0  0  0  0  0  0  0  0  0  0
   -2.4773   -1.2077   -0.6040 H   0  0  0  0  0  0  0  0  0  0  0  0
   -2.8922   -0.3136    0.8962 H   0  0  0  0  0  0  0  0  0  0  0  0
   -1.6043   -1.5342    1.0040 H   0  0  0  0  0  0  0  0  0  0  0  0
   -0.9960    2.1426   -1.2413 H   0  0  0  0  0  0  0  0  0  0  0  0
  1  2  1  0
  2  3  1  0
  3  4  1  0
  3  5  1  0
  5  6  1  0
  6  7  1  0
  6  8  1  0
  8  9  2  0
  6  3  1  0
  1 10  1  0
  1 11  1  0
  1 12  1  0
  4 13  1  0
  4 14  1  0
  4 15  1  0
  5 16  1  0
  5 17  1  0
  7 18  1  0
  7 19  1  0
  7 20  1  0
  8 21  1  0
M  END
