
     RDKit          3D

 21 22  0  0  0  0  0  0  0  0999 V2000
    2.7919   -0.9753   -0.4721 C   0  0  0  0  0  0  0  0  0  0  0  0
    1.4293   -1.2015   -0.2074 O   0  0  0  0  0  0  0  0  0  0  0  0
    0.7549   -0.0231   -0.4622 C   0  0  0  0  0  0  0  0  0  0  0  0
   -0.2471   -0.1572   -1.4076 O   0  0  0  0  0  0  0  0  0  0  0  0
   -1.3858    0.4645   -0.9612 C   0  0  0  0  0  0  0  0  0  0  0  0
   -2.0470   -0.4520    0.0514 C   0  0  0  0  0  0  0  0  0  0  0  0
   -0.9869   -0.4912    1.1598 C   0  0  0  0  0  0  0  0  0  0  0  0
    0.0367    0.5172    0.7625 C   0  0  0  0  0  0  0  0  0  0  0  0
   -0.8434    1.5312    0.0071 C   0  0  0  0  0  0  0  0  0  0  0  0
    3.1952   -0.1605    0.1795 H   0  0  0  0  0  0  0  0  0  0  0  0
    3.3013   -1.9458   -0.2957 H   0  0  0  0  0  0  0  0  0  0  0  0
    2.9339   -0.7037   -1.5555 H   0  0  0  0  0  0  0  0  0  0  0  0
    1.4342    0.7907   -0.8038 H   0  0  0  0  0  0  0  0  0  0  0  0
   -2.0446    0.8653   -1.7049 H   0  0  0  0  0  0  0  0  0  0  0  0
   -2.2349   -1.4430   -0.3752 H   0  0  0  0  0  0  0  0  0  0  0  0
   -2.9693    0.0382    0.3846 H   0  0  0  0  0  0  0  0  0  0  0  0
   -0.5423   -1.5059    1.1128 H   0  0  0  0  0  0  0  0  0  0  0  0
   -1.4501   -0.2699    2.1480 H   0  0  0  0  0  0  0  0  0  0  0  0
    0.6505    0.9440    1.5170 H   0  0  0  0  0  0  0  0  0  0  0  0
   -0.1634    2.2223   -0.4821 H   0  0  0  0  0  0  0  0  0  0  0  0
   -1.6130    1.9557    0.6315 H   0  0  0  0  0  0  0  0  0  0  0  0
  1  2  1  0
  2  3  1  0
  3  4  1  0
  4  5  1  0
  5  6  1  0
  6  7  1  0
  7  8  1  0
  8  9  1  0
  8  3  1  0
  9  5  1  0
  1 10  1  0
  1 11  1  0
  1 12  1  0
  3 13  1  0
  5 14  1  0
  6 15  1  0
  6 16  1  0
  7 17  1  0
  7 18  1  0
  8 19  1  0
  9 20  1  0
  9 21  1  0
M  END
