
     RDKit          3D

 21 21  0  0  0  0  0  0  0  0999 V2000
    2.8652   -0.7410    0.2921 C   0  0  0  0  0  0  0  0  0  0  0  0
    1.5461   -0.7735   -0.1502 O   0  0  0  0  0  0  0  0  0  0  0  0
    0.9314    0.4160    0.2578 C   0  0  0  0  0  0  0  0  0  0  0  0
    0.4623    1.1590   -0.9394 C   0  0  0  0  0  0  0  0  0  0  0  0
   -0.8529    1.0814   -1.0663 C   0  0  0  0  0  0  0  0  0  0  0  0
   -1.4037    0.2834    0.0249 C   0  0  0  0  0  0  0  0  0  0  0  0
   -1.8878   -1.0830   -0.4160 C   0  0  0  0  0  0  0  0  0  0  0  0
   -2.4590    0.8949    0.6997 O   0  0  0  0  0  0  0  0  0  0  0  0
   -0.2977    0.0791    1.0353 C   0  0  0  0  0  0  0  0  0  0  0  0
    3.3737    0.1400   -0.1610 H   0  0  0  0  0  0  0  0  0  0  0  0
    3.4291   -1.6388   -0.0187 H   0  0  0  0  0  0  0  0  0  0  0  0
    2.8538   -0.7213    1.3842 H   0  0  0  0  0  0  0  0  0  0  0  0
    1.6269    1.0698    0.8155 H   0  0  0  0  0  0  0  0  0  0  0  0
    1.1521    1.6948   -1.6128 H   0  0  0  0  0  0  0  0  0  0  0  0
   -1.4052    1.5469   -1.8639 H   0  0  0  0  0  0  0  0  0  0  0  0
   -2.7835   -1.0353   -1.0552 H   0  0  0  0  0  0  0  0  0  0  0  0
   -1.0805   -1.6772   -0.8886 H   0  0  0  0  0  0  0  0  0  0  0  0
   -2.1727   -1.6335    0.5084 H   0  0  0  0  0  0  0  0  0  0  0  0
   -3.1517    1.0894    0.0206 H   0  0  0  0  0  0  0  0  0  0  0  0
   -0.3329   -0.9383    1.4325 H   0  0  0  0  0  0  0  0  0  0  0  0
   -0.4130    0.7871    1.8811 H   0  0  0  0  0  0  0  0  0  0  0  0
  1  2  1  0
  2  3  1  0
  3  4  1  0
  4  5  2  0
  5  6  1  0
  6  7  1  0
  6  8  1  0
  6  9  1  0
  9  3  1  0
  1 10  1  0
  1 11  1  0
  1 12  1  0
  3 13  1  0
  4 14  1  0
  5 15  1  0
  7 16  1  0
  7 17  1  0
  7 18  1  0
  8 19  1  0
  9 20  1  0
  9 21  1  0
M  END
