
     RDKit          3D

 19 21  0  0  0  0  0  0  0  0999 V2000
   -2.7158   -0.1621   -0.1394 C   0  0  0  0  0  0  0  0  0  0  0  0
   -1.4776   -0.4973    0.3564 O   0  0  0  0  0  0  0  0  0  0  0  0
   -0.4204    0.0749   -0.2952 C   0  0  0  0  0  0  0  0  0  0  0  0
   -0.2141    1.5277   -0.4045 C   0  0  0  0  0  0  0  0  0  0  0  0
    0.5258    0.8335    0.6606 C   0  0  0  0  0  0  0  0  0  0  0  0
    1.5097   -0.2615    0.3786 C   0  0  0  0  0  0  0  0  0  0  0  0
    1.9023   -1.0894    1.3965 O   0  0  0  0  0  0  0  0  0  0  0  0
    2.0697   -0.2993   -0.9765 C   0  0  0  0  0  0  0  0  0  0  0  0
    0.6984   -0.7977   -0.7735 C   0  0  0  0  0  0  0  0  0  0  0  0
   -2.9204    0.9344   -0.0984 H   0  0  0  0  0  0  0  0  0  0  0  0
   -3.4752   -0.6144    0.5599 H   0  0  0  0  0  0  0  0  0  0  0  0
   -2.9438   -0.5756   -1.1313 H   0  0  0  0  0  0  0  0  0  0  0  0
    0.3515    1.8792   -1.2856 H   0  0  0  0  0  0  0  0  0  0  0  0
   -1.0278    2.1841   -0.1020 H   0  0  0  0  0  0  0  0  0  0  0  0
    0.2174    0.9928    1.6905 H   0  0  0  0  0  0  0  0  0  0  0  0
    2.2838   -1.9154    0.9806 H   0  0  0  0  0  0  0  0  0  0  0  0
    2.8431   -1.0436   -1.1694 H   0  0  0  0  0  0  0  0  0  0  0  0
    2.2794    0.6950   -1.4415 H   0  0  0  0  0  0  0  0  0  0  0  0
    0.5139   -1.8651   -0.8840 H   0  0  0  0  0  0  0  0  0  0  0  0
  1  2  1  0
  2  3  1  0
  3  4  1  0
  4  5  1  0
  5  6  1  0
  6  7  1  0
  6  8  1  0
  8  9  1  0
  5  3  1  0
  9  6  1  0
  9  3  1  0
  1 10  1  0
  1 11  1  0
  1 12  1  0
  4 13  1  0
  4 14  1  0
  5 15  1  0
  7 16  1  0
  8 17  1  0
  8 18  1  0
  9 19  1  0
M  END
