
     RDKit          3D

 19 19  0  0  0  0  0  0  0  0999 V2000
    2.9435   -0.5115    0.2262 C   0  0  0  0  0  0  0  0  0  0  0  0
    1.8715   -0.5079   -0.6658 O   0  0  0  0  0  0  0  0  0  0  0  0
    0.6955   -0.0902   -0.0560 C   0  0  0  0  0  0  0  0  0  0  0  0
    0.1738    1.1592   -0.6508 C   0  0  0  0  0  0  0  0  0  0  0  0
   -1.0631    1.6419   -0.5663 C   0  0  0  0  0  0  0  0  0  0  0  0
   -2.2397    1.1066    0.1126 C   0  0  0  0  0  0  0  0  0  0  0  0
   -2.4603   -0.1671    0.4069 C   0  0  0  0  0  0  0  0  0  0  0  0
   -1.5634   -1.3085    0.1099 C   0  0  0  0  0  0  0  0  0  0  0  0
   -0.2545   -1.2256   -0.0752 C   0  0  0  0  0  0  0  0  0  0  0  0
    3.8661   -0.8477   -0.2850 H   0  0  0  0  0  0  0  0  0  0  0  0
    3.0659    0.5343    0.5767 H   0  0  0  0  0  0  0  0  0  0  0  0
    2.7712   -1.2186    1.0639 H   0  0  0  0  0  0  0  0  0  0  0  0
    0.8722    0.1531    1.0272 H   0  0  0  0  0  0  0  0  0  0  0  0
    0.8418    1.7893   -1.2334 H   0  0  0  0  0  0  0  0  0  0  0  0
   -1.2782    2.5867   -1.0661 H   0  0  0  0  0  0  0  0  0  0  0  0
   -2.9923    1.8191    0.3967 H   0  0  0  0  0  0  0  0  0  0  0  0
   -3.3779   -0.4179    0.9127 H   0  0  0  0  0  0  0  0  0  0  0  0
   -2.0564   -2.2757    0.0485 H   0  0  0  0  0  0  0  0  0  0  0  0
    0.1845   -2.2196   -0.2826 H   0  0  0  0  0  0  0  0  0  0  0  0
  1  2  1  0
  2  3  1  0
  3  4  1  0
  4  5  2  0
  5  6  1  0
  6  7  2  0
  7  8  1  0
  8  9  2  0
  9  3  1  0
  1 10  1  0
  1 11  1  0
  1 12  1  0
  3 13  1  0
  4 14  1  0
  5 15  1  0
  6 16  1  0
  7 17  1  0
  8 18  1  0
  9 19  1  0
M  END
