
     RDKit          3D

 17 17  0  0  0  0  0  0  0  0999 V2000
   -2.4840    0.4781   -0.3339 C   0  0  0  0  0  0  0  0  0  0  0  0
   -1.2147    0.4391   -0.8971 O   0  0  0  0  0  0  0  0  0  0  0  0
   -0.2853   -0.1673   -0.0572 C   0  0  0  0  0  0  0  0  0  0  0  0
    0.4323   -1.2735   -0.7090 C   0  0  0  0  0  0  0  0  0  0  0  0
    1.6993   -1.2142   -0.3600 C   0  0  0  0  0  0  0  0  0  0  0  0
    1.9381   -0.0912    0.5329 C   0  0  0  0  0  0  0  0  0  0  0  0
    2.9085    0.0392    1.3029 O   0  0  0  0  0  0  0  0  0  0  0  0
    0.7818    0.8127    0.2981 C   0  0  0  0  0  0  0  0  0  0  0  0
    1.1226    1.5820   -0.8389 O   0  0  0  0  0  0  0  0  0  0  0  0
   -3.1525    0.9729   -1.0653 H   0  0  0  0  0  0  0  0  0  0  0  0
   -2.5259    1.0174    0.6158 H   0  0  0  0  0  0  0  0  0  0  0  0
   -2.9136   -0.5405   -0.1723 H   0  0  0  0  0  0  0  0  0  0  0  0
   -0.7777   -0.4944    0.9032 H   0  0  0  0  0  0  0  0  0  0  0  0
   -0.0134   -2.0305   -1.3804 H   0  0  0  0  0  0  0  0  0  0  0  0
    2.4497   -1.9242   -0.7072 H   0  0  0  0  0  0  0  0  0  0  0  0
    0.5578    1.4555    1.1564 H   0  0  0  0  0  0  0  0  0  0  0  0
    1.4771    0.9389   -1.5275 H   0  0  0  0  0  0  0  0  0  0  0  0
  1  2  1  0
  2  3  1  0
  3  4  1  0
  4  5  2  0
  5  6  1  0
  6  7  2  0
  6  8  1  0
  8  9  1  0
  8  3  1  0
  1 10  1  0
  1 11  1  0
  1 12  1  0
  3 13  1  0
  4 14  1  0
  5 15  1  0
  8 16  1  0
  9 17  1  0
M  END
