
     RDKit          3D

 23 23  0  0  0  0  0  0  0  0999 V2000
    3.0505    0.5540    0.1839 C   0  0  0  0  0  0  0  0  0  0  0  0
    1.9707    0.0418   -0.5138 O   0  0  0  0  0  0  0  0  0  0  0  0
    0.7899    0.0644    0.2170 C   0  0  0  0  0  0  0  0  0  0  0  0
    0.2896   -1.3428    0.3286 C   0  0  0  0  0  0  0  0  0  0  0  0
   -0.9213   -1.5261   -0.5443 C   0  0  0  0  0  0  0  0  0  0  0  0
   -2.0178   -0.6331    0.0317 C   0  0  0  0  0  0  0  0  0  0  0  0
   -1.5888    0.7823   -0.1643 C   0  0  0  0  0  0  0  0  0  0  0  0
   -1.8662    1.5201    0.9733 O   0  0  0  0  0  0  0  0  0  0  0  0
   -0.1607    0.9622   -0.5367 C   0  0  0  0  0  0  0  0  0  0  0  0
    2.9228    1.6012    0.4936 H   0  0  0  0  0  0  0  0  0  0  0  0
    3.9483    0.3982   -0.4580 H   0  0  0  0  0  0  0  0  0  0  0  0
    3.2302   -0.0358    1.1289 H   0  0  0  0  0  0  0  0  0  0  0  0
    0.9296    0.4946    1.2400 H   0  0  0  0  0  0  0  0  0  0  0  0
    0.0192   -1.5910    1.3712 H   0  0  0  0  0  0  0  0  0  0  0  0
    1.0421   -2.0981    0.0002 H   0  0  0  0  0  0  0  0  0  0  0  0
   -0.7442   -1.1827   -1.5666 H   0  0  0  0  0  0  0  0  0  0  0  0
   -1.2624   -2.5611   -0.5489 H   0  0  0  0  0  0  0  0  0  0  0  0
   -2.1207   -0.8951    1.0926 H   0  0  0  0  0  0  0  0  0  0  0  0
   -2.9389   -0.8742   -0.5589 H   0  0  0  0  0  0  0  0  0  0  0  0
   -2.2004    1.2211   -1.0082 H   0  0  0  0  0  0  0  0  0  0  0  0
   -2.5145    2.2469    0.7945 H   0  0  0  0  0  0  0  0  0  0  0  0
    0.0307    0.8250   -1.6282 H   0  0  0  0  0  0  0  0  0  0  0  0
    0.1122    2.0280   -0.3276 H   0  0  0  0  0  0  0  0  0  0  0  0
  1  2  1  0
  2  3  1  0
  3  4  1  0
  4  5  1  0
  5  6  1  0
  6  7  1  0
  7  8  1  0
  7  9  1  0
  9  3  1  0
  1 10  1  0
  1 11  1  0
  1 12  1  0
  3 13  1  0
  4 14  1  0
  4 15  1  0
  5 16  1  0
  5 17  1  0
  6 18  1  0
  6 19  1  0
  7 20  1  0
  8 21  1  0
  9 22  1  0
  9 23  1  0
M  END
