
     RDKit          3D

 21 22  0  0  0  0  0  0  0  0999 V2000
    2.7305   -0.3499   -0.0964 C   0  0  0  0  0  0  0  0  0  0  0  0
    1.7629    0.1781   -0.9837 O   0  0  0  0  0  0  0  0  0  0  0  0
    0.5943    0.2503   -0.2255 C   0  0  0  0  0  0  0  0  0  0  0  0
    0.1216   -1.0546    0.3091 C   0  0  0  0  0  0  0  0  0  0  0  0
   -1.3879   -1.0292    0.3131 C   0  0  0  0  0  0  0  0  0  0  0  0
   -1.7987    0.3583   -0.0402 C   0  0  0  0  0  0  0  0  0  0  0  0
   -2.8695    0.4458   -0.8977 O   0  0  0  0  0  0  0  0  0  0  0  0
   -0.5601    1.0448   -0.6128 C   0  0  0  0  0  0  0  0  0  0  0  0
    0.3706    1.5327    0.4734 C   0  0  0  0  0  0  0  0  0  0  0  0
    3.7074   -0.4617   -0.5636 H   0  0  0  0  0  0  0  0  0  0  0  0
    2.4061   -1.3305    0.3136 H   0  0  0  0  0  0  0  0  0  0  0  0
    2.8191    0.3272    0.8024 H   0  0  0  0  0  0  0  0  0  0  0  0
    0.4200   -1.8557   -0.4093 H   0  0  0  0  0  0  0  0  0  0  0  0
    0.5482   -1.3177    1.2908 H   0  0  0  0  0  0  0  0  0  0  0  0
   -1.7159   -1.3533    1.3312 H   0  0  0  0  0  0  0  0  0  0  0  0
   -1.8320   -1.7200   -0.4322 H   0  0  0  0  0  0  0  0  0  0  0  0
   -2.0936    0.8731    0.9106 H   0  0  0  0  0  0  0  0  0  0  0  0
   -3.5920   -0.1170   -0.5599 H   0  0  0  0  0  0  0  0  0  0  0  0
   -0.6422    1.5949   -1.5510 H   0  0  0  0  0  0  0  0  0  0  0  0
    0.9965    2.3958    0.1849 H   0  0  0  0  0  0  0  0  0  0  0  0
    0.0149    1.5886    1.5176 H   0  0  0  0  0  0  0  0  0  0  0  0
  1  2  1  0
  2  3  1  0
  3  4  1  0
  4  5  1  0
  5  6  1  0
  6  7  1  0
  6  8  1  0
  8  9  1  0
  8  3  1  0
  9  3  1  0
  1 10  1  0
  1 11  1  0
  1 12  1  0
  4 13  1  0
  4 14  1  0
  5 15  1  0
  5 16  1  0
  6 17  1  0
  7 18  1  0
  8 19  1  0
  9 20  1  0
  9 21  1  0
M  END
