
     RDKit          3D

 16 16  0  0  0  0  0  0  0  0999 V2000
    1.9855    0.0278   -0.2688 C   0  0  0  0  0  0  0  0  0  0  0  0
    0.8780    0.8277   -0.4879 O   0  0  0  0  0  0  0  0  0  0  0  0
   -0.3096    0.2465   -0.1254 C   0  0  0  0  0  0  0  0  0  0  0  0
   -0.6830   -1.0340   -0.8142 C   0  0  0  0  0  0  0  0  0  0  0  0
   -0.5883    0.2595    1.3753 C   0  0  0  0  0  0  0  0  0  0  0  0
   -0.8845    1.6445    1.1556 O   0  0  0  0  0  0  0  0  0  0  0  0
   -1.3931    1.2474   -0.0657 C   0  0  0  0  0  0  0  0  0  0  0  0
   -2.3615    1.6364   -0.7410 O   0  0  0  0  0  0  0  0  0  0  0  0
    1.9217   -0.9200   -0.8402 H   0  0  0  0  0  0  0  0  0  0  0  0
    2.8765    0.5637   -0.6617 H   0  0  0  0  0  0  0  0  0  0  0  0
    2.1065   -0.2469    0.8041 H   0  0  0  0  0  0  0  0  0  0  0  0
    0.0550   -1.8235   -0.6124 H   0  0  0  0  0  0  0  0  0  0  0  0
   -1.6541   -1.3687   -0.3990 H   0  0  0  0  0  0  0  0  0  0  0  0
   -0.7104   -0.8555   -1.9035 H   0  0  0  0  0  0  0  0  0  0  0  0
   -1.5171   -0.2729    1.5753 H   0  0  0  0  0  0  0  0  0  0  0  0
    0.2785    0.0679    2.0095 H   0  0  0  0  0  0  0  0  0  0  0  0
  1  2  1  0
  2  3  1  0
  3  4  1  0
  3  5  1  0
  5  6  1  0
  6  7  1  0
  7  8  2  0
  7  3  1  0
  1  9  1  0
  1 10  1  0
  1 11  1  0
  4 12  1  0
  4 13  1  0
  4 14  1  0
  5 15  1  0
  5 16  1  0
M  END
