
     RDKit          3D

 17 17  0  0  0  0  0  0  0  0999 V2000
    2.5587   -0.3841    0.0009 C   0  0  0  0  0  0  0  0  0  0  0  0
    1.4035    0.3226    0.2801 O   0  0  0  0  0  0  0  0  0  0  0  0
    0.3142   -0.3829   -0.1897 C   0  0  0  0  0  0  0  0  0  0  0  0
   -0.4345    0.4367   -1.2027 C   0  0  0  0  0  0  0  0  0  0  0  0
   -0.0594    0.7812   -2.3012 O   0  0  0  0  0  0  0  0  0  0  0  0
   -1.7542    0.7670   -0.6178 C   0  0  0  0  0  0  0  0  0  0  0  0
   -1.6326    0.4647    0.8653 C   0  0  0  0  0  0  0  0  0  0  0  0
   -0.6759   -0.6545    0.8746 C   0  0  0  0  0  0  0  0  0  0  0  0
   -0.6944   -1.6052    1.6047 O   0  0  0  0  0  0  0  0  0  0  0  0
    3.4741    0.1274    0.3522 H   0  0  0  0  0  0  0  0  0  0  0  0
    2.5491   -1.3754    0.5111 H   0  0  0  0  0  0  0  0  0  0  0  0
    2.6804   -0.5980   -1.0798 H   0  0  0  0  0  0  0  0  0  0  0  0
    0.6890   -1.3236   -0.6604 H   0  0  0  0  0  0  0  0  0  0  0  0
   -2.4975    0.0617   -1.0412 H   0  0  0  0  0  0  0  0  0  0  0  0
   -1.9944    1.8288   -0.8096 H   0  0  0  0  0  0  0  0  0  0  0  0
   -1.2875    1.3620    1.3866 H   0  0  0  0  0  0  0  0  0  0  0  0
   -2.6386    0.1716    1.2649 H   0  0  0  0  0  0  0  0  0  0  0  0
  1  2  1  0
  2  3  1  0
  3  4  1  0
  4  5  2  0
  4  6  1  0
  6  7  1  0
  7  8  1  0
  8  9  2  0
  8  3  1  0
  1 10  1  0
  1 11  1  0
  1 12  1  0
  3 13  1  0
  6 14  1  0
  6 15  1  0
  7 16  1  0
  7 17  1  0
M  END
