
     RDKit          3D

 19 21  0  0  0  0  0  0  0  0999 V2000
    2.4493   -0.2286    0.0882 C   0  0  0  0  0  0  0  0  0  0  0  0
    1.3857   -0.7399   -0.6046 O   0  0  0  0  0  0  0  0  0  0  0  0
    0.2123   -0.1679   -0.2400 C   0  0  0  0  0  0  0  0  0  0  0  0
    0.0773    1.3325   -0.4311 C   0  0  0  0  0  0  0  0  0  0  0  0
   -1.1721    1.5533   -1.0099 O   0  0  0  0  0  0  0  0  0  0  0  0
   -1.9696    0.4589   -0.6748 C   0  0  0  0  0  0  0  0  0  0  0  0
   -1.7250   -0.3382    0.5308 C   0  0  0  0  0  0  0  0  0  0  0  0
   -0.3756   -0.6033    1.1018 C   0  0  0  0  0  0  0  0  0  0  0  0
   -1.0521   -0.6647   -0.8454 C   0  0  0  0  0  0  0  0  0  0  0  0
    2.2991   -0.4088    1.1851 H   0  0  0  0  0  0  0  0  0  0  0  0
    2.5284    0.8684   -0.0757 H   0  0  0  0  0  0  0  0  0  0  0  0
    3.3938   -0.6690   -0.2445 H   0  0  0  0  0  0  0  0  0  0  0  0
    0.0351    1.8531    0.5700 H   0  0  0  0  0  0  0  0  0  0  0  0
    0.9025    1.7536   -1.0223 H   0  0  0  0  0  0  0  0  0  0  0  0
   -2.9401    0.4127   -1.1502 H   0  0  0  0  0  0  0  0  0  0  0  0
   -2.5224   -1.0099    0.8585 H   0  0  0  0  0  0  0  0  0  0  0  0
   -0.2259   -1.7205    1.1791 H   0  0  0  0  0  0  0  0  0  0  0  0
   -0.0507   -0.0296    1.9630 H   0  0  0  0  0  0  0  0  0  0  0  0
   -1.2499   -1.6519   -1.1778 H   0  0  0  0  0  0  0  0  0  0  0  0
  1  2  1  0
  2  3  1  0
  3  4  1  0
  4  5  1  0
  5  6  1  0
  6  7  1  0
  7  8  1  0
  7  9  1  0
  8  3  1  0
  9  3  1  0
  9  6  1  0
  1 10  1  0
  1 11  1  0
  1 12  1  0
  4 13  1  0
  4 14  1  0
  6 15  1  0
  7 16  1  0
  8 17  1  0
  8 18  1  0
  9 19  1  0
M  END
