
     RDKit          3D

 19 19  0  0  0  0  0  0  0  0999 V2000
    2.9695   -0.3940   -0.2076 C   0  0  0  0  0  0  0  0  0  0  0  0
    1.6806   -0.4951   -0.6672 O   0  0  0  0  0  0  0  0  0  0  0  0
    0.7283    0.0576    0.1506 C   0  0  0  0  0  0  0  0  0  0  0  0
   -0.0495    1.0759   -0.6723 C   0  0  0  0  0  0  0  0  0  0  0  0
   -1.4381    0.9311   -0.1544 C   0  0  0  0  0  0  0  0  0  0  0  0
   -1.4250   -0.3597    0.5896 C   0  0  0  0  0  0  0  0  0  0  0  0
   -2.4380   -1.3114    0.0460 C   0  0  0  0  0  0  0  0  0  0  0  0
   -3.6404   -1.0248    0.0288 O   0  0  0  0  0  0  0  0  0  0  0  0
   -0.1876   -0.9310    0.4848 O   0  0  0  0  0  0  0  0  0  0  0  0
    3.3219    0.6425   -0.0579 H   0  0  0  0  0  0  0  0  0  0  0  0
    3.6286   -0.9156   -0.9356 H   0  0  0  0  0  0  0  0  0  0  0  0
    3.0767   -0.9755    0.7475 H   0  0  0  0  0  0  0  0  0  0  0  0
    1.1300    0.5133    1.0766 H   0  0  0  0  0  0  0  0  0  0  0  0
    0.0323    0.8703   -1.7603 H   0  0  0  0  0  0  0  0  0  0  0  0
    0.3100    2.1079   -0.4852 H   0  0  0  0  0  0  0  0  0  0  0  0
   -2.2143    0.9142   -0.9679 H   0  0  0  0  0  0  0  0  0  0  0  0
   -1.6729    1.7625    0.5475 H   0  0  0  0  0  0  0  0  0  0  0  0
   -1.6304   -0.1947    1.6836 H   0  0  0  0  0  0  0  0  0  0  0  0
   -2.1817   -2.2736   -0.3500 H   0  0  0  0  0  0  0  0  0  0  0  0
  1  2  1  0
  2  3  1  0
  3  4  1  0
  4  5  1  0
  5  6  1  0
  6  7  1  0
  7  8  2  0
  6  9  1  0
  9  3  1  0
  1 10  1  0
  1 11  1  0
  1 12  1  0
  3 13  1  0
  4 14  1  0
  4 15  1  0
  5 16  1  0
  5 17  1  0
  6 18  1  0
  7 19  1  0
M  END
