
     RDKit          3D

 21 21  0  0  0  0  0  0  0  0999 V2000
    3.0952    0.5208   -0.0679 C   0  0  0  0  0  0  0  0  0  0  0  0
    1.7928    0.7589    0.3498 O   0  0  0  0  0  0  0  0  0  0  0  0
    0.9480   -0.2279   -0.0863 C   0  0  0  0  0  0  0  0  0  0  0  0
   -0.0574   -0.6898    0.9915 C   0  0  0  0  0  0  0  0  0  0  0  0
   -0.1739   -2.0741    1.1091 O   0  0  0  0  0  0  0  0  0  0  0  0
   -0.5078   -0.0117   -0.2582 C   0  0  0  0  0  0  0  0  0  0  0  0
   -1.1123    1.3644   -0.1413 C   0  0  0  0  0  0  0  0  0  0  0  0
   -1.1381   -0.8502   -1.1763 O   0  0  0  0  0  0  0  0  0  0  0  0
   -2.4836   -0.5293   -1.2261 C   0  0  0  0  0  0  0  0  0  0  0  0
    3.8025    1.2951    0.2648 H   0  0  0  0  0  0  0  0  0  0  0  0
    3.1109    0.5573   -1.1942 H   0  0  0  0  0  0  0  0  0  0  0  0
    3.4507   -0.4988    0.1944 H   0  0  0  0  0  0  0  0  0  0  0  0
    1.4284   -1.0292   -0.6825 H   0  0  0  0  0  0  0  0  0  0  0  0
   -0.1415   -0.0779    1.9089 H   0  0  0  0  0  0  0  0  0  0  0  0
    0.4414   -2.3819    1.8062 H   0  0  0  0  0  0  0  0  0  0  0  0
   -0.5405    2.0015    0.5662 H   0  0  0  0  0  0  0  0  0  0  0  0
   -2.1359    1.2826    0.2889 H   0  0  0  0  0  0  0  0  0  0  0  0
   -1.1852    1.8976   -1.0882 H   0  0  0  0  0  0  0  0  0  0  0  0
   -2.6222    0.5225   -1.5400 H   0  0  0  0  0  0  0  0  0  0  0  0
   -3.0177   -1.2369   -1.8888 H   0  0  0  0  0  0  0  0  0  0  0  0
   -2.9537   -0.5929   -0.2035 H   0  0  0  0  0  0  0  0  0  0  0  0
  1  2  1  0
  2  3  1  0
  3  4  1  0
  4  5  1  0
  4  6  1  0
  6  7  1  0
  6  8  1  0
  8  9  1  0
  6  3  1  0
  1 10  1  0
  1 11  1  0
  1 12  1  0
  3 13  1  0
  4 14  1  0
  5 15  1  0
  7 16  1  0
  7 17  1  0
  7 18  1  0
  9 19  1  0
  9 20  1  0
  9 21  1  0
M  END
