
     RDKit          3D

 17 17  0  0  0  0  0  0  0  0999 V2000
    2.2926    0.3855   -0.8517 C   0  0  0  0  0  0  0  0  0  0  0  0
    1.3660   -0.0446    0.0944 O   0  0  0  0  0  0  0  0  0  0  0  0
    0.0914    0.4446   -0.1646 C   0  0  0  0  0  0  0  0  0  0  0  0
   -0.4739    1.1871    0.9741 C   0  0  0  0  0  0  0  0  0  0  0  0
   -0.1896    2.3445    1.3200 O   0  0  0  0  0  0  0  0  0  0  0  0
   -1.4389    0.3320    1.6442 C   0  0  0  0  0  0  0  0  0  0  0  0
   -1.7014   -0.7295    0.9078 C   0  0  0  0  0  0  0  0  0  0  0  0
   -0.9164   -0.6660   -0.3386 C   0  0  0  0  0  0  0  0  0  0  0  0
   -0.2514   -1.8741   -0.5887 O   0  0  0  0  0  0  0  0  0  0  0  0
    2.3866    1.4878   -0.8956 H   0  0  0  0  0  0  0  0  0  0  0  0
    3.2919    0.0155   -0.4969 H   0  0  0  0  0  0  0  0  0  0  0  0
    2.0516   -0.0241   -1.8581 H   0  0  0  0  0  0  0  0  0  0  0  0
    0.1528    1.0749   -1.0961 H   0  0  0  0  0  0  0  0  0  0  0  0
   -1.9214    0.4797    2.6168 H   0  0  0  0  0  0  0  0  0  0  0  0
   -2.3755   -1.5559    1.1226 H   0  0  0  0  0  0  0  0  0  0  0  0
   -1.5483   -0.4000   -1.2093 H   0  0  0  0  0  0  0  0  0  0  0  0
   -0.8160   -2.4575   -1.1802 H   0  0  0  0  0  0  0  0  0  0  0  0
  1  2  1  0
  2  3  1  0
  3  4  1  0
  4  5  2  0
  4  6  1  0
  6  7  2  0
  7  8  1  0
  8  9  1  0
  8  3  1  0
  1 10  1  0
  1 11  1  0
  1 12  1  0
  3 13  1  0
  6 14  1  0
  7 15  1  0
  8 16  1  0
  9 17  1  0
M  END
