
     RDKit          3D

 23 23  0  0  0  0  0  0  0  0999 V2000
    3.2899   -0.2822   -0.1821 C   0  0  0  0  0  0  0  0  0  0  0  0
    2.2226   -0.1853    0.6966 O   0  0  0  0  0  0  0  0  0  0  0  0
    1.0474    0.2077    0.0787 C   0  0  0  0  0  0  0  0  0  0  0  0
    0.5319    1.4918    0.5610 C   0  0  0  0  0  0  0  0  0  0  0  0
   -0.7144    1.7512    0.8529 C   0  0  0  0  0  0  0  0  0  0  0  0
   -1.7514    0.6961    0.7052 C   0  0  0  0  0  0  0  0  0  0  0  0
   -1.2903   -0.2362   -0.3909 C   0  0  0  0  0  0  0  0  0  0  0  0
   -2.3198   -1.2322   -0.8026 C   0  0  0  0  0  0  0  0  0  0  0  0
   -0.0103   -0.8724    0.1173 C   0  0  0  0  0  0  0  0  0  0  0  0
    4.1757   -0.5991    0.3982 H   0  0  0  0  0  0  0  0  0  0  0  0
    3.0770   -1.1252   -0.8986 H   0  0  0  0  0  0  0  0  0  0  0  0
    3.4433    0.6130   -0.7862 H   0  0  0  0  0  0  0  0  0  0  0  0
    1.3000    0.3444   -1.0129 H   0  0  0  0  0  0  0  0  0  0  0  0
    1.2353    2.3300    0.6991 H   0  0  0  0  0  0  0  0  0  0  0  0
   -1.0582    2.7387    1.2148 H   0  0  0  0  0  0  0  0  0  0  0  0
   -1.8221    0.0930    1.6441 H   0  0  0  0  0  0  0  0  0  0  0  0
   -2.7325    1.1149    0.4050 H   0  0  0  0  0  0  0  0  0  0  0  0
   -0.9899    0.4121   -1.2612 H   0  0  0  0  0  0  0  0  0  0  0  0
   -2.2223   -1.4596   -1.8777 H   0  0  0  0  0  0  0  0  0  0  0  0
   -3.3328   -0.7473   -0.6803 H   0  0  0  0  0  0  0  0  0  0  0  0
   -2.2287   -2.1271   -0.1848 H   0  0  0  0  0  0  0  0  0  0  0  0
   -0.1147   -1.1792    1.1936 H   0  0  0  0  0  0  0  0  0  0  0  0
    0.2645   -1.7470   -0.4890 H   0  0  0  0  0  0  0  0  0  0  0  0
  1  2  1  0
  2  3  1  0
  3  4  1  0
  4  5  2  0
  5  6  1  0
  6  7  1  0
  7  8  1  0
  7  9  1  0
  9  3  1  0
  1 10  1  0
  1 11  1  0
  1 12  1  0
  3 13  1  0
  4 14  1  0
  5 15  1  0
  6 16  1  0
  6 17  1  0
  7 18  1  0
  8 19  1  0
  8 20  1  0
  8 21  1  0
  9 22  1  0
  9 23  1  0
M  END
