
     RDKit          3D

 19 21  0  0  0  0  0  0  0  0999 V2000
    2.7645   -0.4223    0.7760 C   0  0  0  0  0  0  0  0  0  0  0  0
    1.6961   -0.6488   -0.0789 O   0  0  0  0  0  0  0  0  0  0  0  0
    0.7594    0.3528    0.0843 C   0  0  0  0  0  0  0  0  0  0  0  0
    0.2675    0.9721   -1.2653 C   0  0  0  0  0  0  0  0  0  0  0  0
   -0.6194    0.2296   -0.3975 C   0  0  0  0  0  0  0  0  0  0  0  0
   -1.2928   -1.0418   -0.7072 C   0  0  0  0  0  0  0  0  0  0  0  0
   -2.5864   -0.4833   -0.1100 C   0  0  0  0  0  0  0  0  0  0  0  0
   -2.9904    0.7835   -0.4425 O   0  0  0  0  0  0  0  0  0  0  0  0
   -1.8072    0.7679    0.2941 C   0  0  0  0  0  0  0  0  0  0  0  0
    3.5338   -1.2333    0.6508 H   0  0  0  0  0  0  0  0  0  0  0  0
    3.2807    0.5293    0.5722 H   0  0  0  0  0  0  0  0  0  0  0  0
    2.3690   -0.4192    1.8263 H   0  0  0  0  0  0  0  0  0  0  0  0
    1.0299    1.1182    0.8391 H   0  0  0  0  0  0  0  0  0  0  0  0
    0.7237    0.5633   -2.1871 H   0  0  0  0  0  0  0  0  0  0  0  0
    0.2088    2.0857   -1.2927 H   0  0  0  0  0  0  0  0  0  0  0  0
   -1.4261   -1.1959   -1.7892 H   0  0  0  0  0  0  0  0  0  0  0  0
   -0.9952   -1.9391   -0.1185 H   0  0  0  0  0  0  0  0  0  0  0  0
   -3.1054   -1.0604    0.6665 H   0  0  0  0  0  0  0  0  0  0  0  0
   -1.8106    1.0418    1.3563 H   0  0  0  0  0  0  0  0  0  0  0  0
  1  2  1  0
  2  3  1  0
  3  4  1  0
  4  5  1  0
  5  6  1  0
  6  7  1  0
  7  8  1  0
  8  9  1  0
  5  3  1  0
  9  7  1  0
  9  5  1  0
  1 10  1  0
  1 11  1  0
  1 12  1  0
  3 13  1  0
  4 14  1  0
  4 15  1  0
  6 16  1  0
  6 17  1  0
  7 18  1  0
  9 19  1  0
M  END
