
     RDKit          3D

 21 22  0  0  0  0  0  0  0  0999 V2000
    2.8746    0.4599    0.0441 C   0  0  0  0  0  0  0  0  0  0  0  0
    1.6167    0.4790   -0.5513 O   0  0  0  0  0  0  0  0  0  0  0  0
    0.6273   -0.0468    0.2711 C   0  0  0  0  0  0  0  0  0  0  0  0
   -0.0514   -1.2458   -0.3697 C   0  0  0  0  0  0  0  0  0  0  0  0
   -1.5008   -1.3038    0.0313 C   0  0  0  0  0  0  0  0  0  0  0  0
   -2.0509    0.0902    0.1826 C   0  0  0  0  0  0  0  0  0  0  0  0
   -1.3487    1.0841   -0.6912 C   0  0  0  0  0  0  0  0  0  0  0  0
   -0.3928    1.0524    0.4861 C   0  0  0  0  0  0  0  0  0  0  0  0
   -1.4250    0.6671    1.3112 O   0  0  0  0  0  0  0  0  0  0  0  0
    3.1260   -0.6099    0.2753 H   0  0  0  0  0  0  0  0  0  0  0  0
    2.9296    1.0332    0.9781 H   0  0  0  0  0  0  0  0  0  0  0  0
    3.5816    0.8735   -0.7115 H   0  0  0  0  0  0  0  0  0  0  0  0
    1.0122   -0.3863    1.2496 H   0  0  0  0  0  0  0  0  0  0  0  0
    0.0494   -1.2498   -1.4714 H   0  0  0  0  0  0  0  0  0  0  0  0
    0.4396   -2.1685   -0.0073 H   0  0  0  0  0  0  0  0  0  0  0  0
   -2.1248   -1.8746   -0.6712 H   0  0  0  0  0  0  0  0  0  0  0  0
   -1.5281   -1.7652    1.0528 H   0  0  0  0  0  0  0  0  0  0  0  0
   -3.1415    0.1549    0.2336 H   0  0  0  0  0  0  0  0  0  0  0  0
   -1.8762    2.0463   -0.7358 H   0  0  0  0  0  0  0  0  0  0  0  0
   -0.9205    0.7047   -1.6227 H   0  0  0  0  0  0  0  0  0  0  0  0
    0.1040    2.0055    0.7164 H   0  0  0  0  0  0  0  0  0  0  0  0
  1  2  1  0
  2  3  1  0
  3  4  1  0
  4  5  1  0
  5  6  1  0
  6  7  1  0
  7  8  1  0
  8  9  1  0
  8  3  1  0
  9  6  1  0
  1 10  1  0
  1 11  1  0
  1 12  1  0
  3 13  1  0
  4 14  1  0
  4 15  1  0
  5 16  1  0
  5 17  1  0
  6 18  1  0
  7 19  1  0
  7 20  1  0
  8 21  1  0
M  END
