
     RDKit          3D

 20 20  0  0  0  0  0  0  0  0999 V2000
    2.1337    0.4981    0.7229 C   0  0  0  0  0  0  0  0  0  0  0  0
    0.8801    0.1491    1.2146 O   0  0  0  0  0  0  0  0  0  0  0  0
   -0.0968    0.3058    0.2614 C   0  0  0  0  0  0  0  0  0  0  0  0
   -0.2863    1.6865   -0.2975 C   0  0  0  0  0  0  0  0  0  0  0  0
   -1.3957   -0.3415    0.7622 C   0  0  0  0  0  0  0  0  0  0  0  0
   -0.7901   -1.6609    0.2583 C   0  0  0  0  0  0  0  0  0  0  0  0
   -0.1240   -0.7932   -0.8139 C   0  0  0  0  0  0  0  0  0  0  0  0
   -1.0239   -0.4621   -1.8048 O   0  0  0  0  0  0  0  0  0  0  0  0
    2.9069    0.3698    1.4909 H   0  0  0  0  0  0  0  0  0  0  0  0
    2.0549    1.5098    0.3132 H   0  0  0  0  0  0  0  0  0  0  0  0
    2.3690   -0.2334   -0.0869 H   0  0  0  0  0  0  0  0  0  0  0  0
    0.3132    1.8651   -1.2207 H   0  0  0  0  0  0  0  0  0  0  0  0
   -0.0549    2.4102    0.5041 H   0  0  0  0  0  0  0  0  0  0  0  0
   -1.3426    1.8465   -0.5751 H   0  0  0  0  0  0  0  0  0  0  0  0
   -1.5396   -0.2941    1.8429 H   0  0  0  0  0  0  0  0  0  0  0  0
   -2.2325   -0.0705    0.1184 H   0  0  0  0  0  0  0  0  0  0  0  0
   -1.5143   -2.3824   -0.1069 H   0  0  0  0  0  0  0  0  0  0  0  0
   -0.0334   -2.0228    0.9729 H   0  0  0  0  0  0  0  0  0  0  0  0
    0.8500   -1.1680   -1.1135 H   0  0  0  0  0  0  0  0  0  0  0  0
   -1.0739   -1.2119   -2.4426 H   0  0  0  0  0  0  0  0  0  0  0  0
  1  2  1  0
  2  3  1  0
  3  4  1  0
  3  5  1  0
  5  6  1  0
  6  7  1  0
  7  8  1  0
  7  3  1  0
  1  9  1  0
  1 10  1  0
  1 11  1  0
  4 12  1  0
  4 13  1  0
  4 14  1  0
  5 15  1  0
  5 16  1  0
  6 17  1  0
  6 18  1  0
  7 19  1  0
  8 20  1  0
M  END
