
     RDKit          3D

 20 21  0  0  0  0  0  0  0  0999 V2000
    2.4596   -0.5596   -0.6765 C   0  0  0  0  0  0  0  0  0  0  0  0
    1.1057   -0.8863   -0.6587 O   0  0  0  0  0  0  0  0  0  0  0  0
    0.4014   -0.0370    0.1494 C   0  0  0  0  0  0  0  0  0  0  0  0
    0.3483    1.4342   -0.0889 C   0  0  0  0  0  0  0  0  0  0  0  0
   -1.1733    1.3163   -0.1400 C   0  0  0  0  0  0  0  0  0  0  0  0
   -1.0459   -0.0935    0.3356 C   0  0  0  0  0  0  0  0  0  0  0  0
   -1.9378   -1.1025   -0.2914 C   0  0  0  0  0  0  0  0  0  0  0  0
   -0.1794   -0.4898    1.4548 C   0  0  0  0  0  0  0  0  0  0  0  0
    2.8894   -0.6234    0.3492 H   0  0  0  0  0  0  0  0  0  0  0  0
    2.6262    0.4846   -1.0259 H   0  0  0  0  0  0  0  0  0  0  0  0
    3.0021   -1.2455   -1.3700 H   0  0  0  0  0  0  0  0  0  0  0  0
    0.8166    1.8294   -0.9926 H   0  0  0  0  0  0  0  0  0  0  0  0
    0.6264    2.0174    0.8176 H   0  0  0  0  0  0  0  0  0  0  0  0
   -1.5040    1.4505   -1.1771 H   0  0  0  0  0  0  0  0  0  0  0  0
   -1.7060    1.9962    0.5462 H   0  0  0  0  0  0  0  0  0  0  0  0
   -2.7815   -1.2997    0.4310 H   0  0  0  0  0  0  0  0  0  0  0  0
   -1.4574   -2.0920   -0.4424 H   0  0  0  0  0  0  0  0  0  0  0  0
   -2.4240   -0.7488   -1.2211 H   0  0  0  0  0  0  0  0  0  0  0  0
   -0.1274   -1.5463    1.6992 H   0  0  0  0  0  0  0  0  0  0  0  0
    0.0612    0.1957    2.3015 H   0  0  0  0  0  0  0  0  0  0  0  0
  1  2  1  0
  2  3  1  0
  3  4  1  0
  4  5  1  0
  5  6  1  0
  6  7  1  0
  6  8  1  0
  6  3  1  0
  8  3  1  0
  1  9  1  0
  1 10  1  0
  1 11  1  0
  4 12  1  0
  4 13  1  0
  5 14  1  0
  5 15  1  0
  7 16  1  0
  7 17  1  0
  7 18  1  0
  8 19  1  0
  8 20  1  0
M  END
