
     RDKit          3D

 21 21  0  0  0  0  0  0  0  0999 V2000
    2.7543   -0.6347   -1.1236 C   0  0  0  0  0  0  0  0  0  0  0  0
    2.0164   -0.1685   -0.0573 O   0  0  0  0  0  0  0  0  0  0  0  0
    0.6746   -0.3605   -0.1559 C   0  0  0  0  0  0  0  0  0  0  0  0
   -0.1579    0.8602    0.3409 C   0  0  0  0  0  0  0  0  0  0  0  0
   -0.9771    1.4529   -0.7393 C   0  0  0  0  0  0  0  0  0  0  0  0
   -1.7336    2.5486   -0.2574 O   0  0  0  0  0  0  0  0  0  0  0  0
   -0.2468   -0.4240    0.9942 C   0  0  0  0  0  0  0  0  0  0  0  0
   -1.4839   -1.2596    0.9030 C   0  0  0  0  0  0  0  0  0  0  0  0
   -2.3277   -0.8694   -0.1138 O   0  0  0  0  0  0  0  0  0  0  0  0
    2.6170   -1.7196   -1.2532 H   0  0  0  0  0  0  0  0  0  0  0  0
    2.5464   -0.0416   -2.0176 H   0  0  0  0  0  0  0  0  0  0  0  0
    3.8316   -0.4749   -0.8662 H   0  0  0  0  0  0  0  0  0  0  0  0
    0.3330   -0.8639   -1.0721 H   0  0  0  0  0  0  0  0  0  0  0  0
    0.4334    1.6424    0.8994 H   0  0  0  0  0  0  0  0  0  0  0  0
   -0.2653    1.9783   -1.4750 H   0  0  0  0  0  0  0  0  0  0  0  0
   -1.5617    0.7735   -1.3668 H   0  0  0  0  0  0  0  0  0  0  0  0
   -1.1027    3.0383    0.3524 H   0  0  0  0  0  0  0  0  0  0  0  0
    0.2026   -0.4950    2.0465 H   0  0  0  0  0  0  0  0  0  0  0  0
   -1.2197   -2.3310    0.7370 H   0  0  0  0  0  0  0  0  0  0  0  0
   -2.0855   -1.1813    1.8490 H   0  0  0  0  0  0  0  0  0  0  0  0
   -2.2473   -1.4706   -0.8688 H   0  0  0  0  0  0  0  0  0  0  0  0
  1  2  1  0
  2  3  1  0
  3  4  1  0
  4  5  1  0
  5  6  1  0
  4  7  1  0
  7  8  1  0
  8  9  1  0
  7  3  1  0
  1 10  1  0
  1 11  1  0
  1 12  1  0
  3 13  1  0
  4 14  1  0
  5 15  1  0
  5 16  1  0
  6 17  1  0
  7 18  1  0
  8 19  1  0
  8 20  1  0
  9 21  1  0
M  END
