
     RDKit          3D

 20 20  0  0  0  0  0  0  0  0999 V2000
    2.5686    0.1109   -0.9029 C   0  0  0  0  0  0  0  0  0  0  0  0
    1.1903    0.1192   -0.9581 O   0  0  0  0  0  0  0  0  0  0  0  0
    0.6852    0.1503    0.3357 C   0  0  0  0  0  0  0  0  0  0  0  0
   -0.1112    1.3499    0.6147 C   0  0  0  0  0  0  0  0  0  0  0  0
   -1.3787    1.3905    0.2359 C   0  0  0  0  0  0  0  0  0  0  0  0
   -1.9423    0.2166   -0.4575 C   0  0  0  0  0  0  0  0  0  0  0  0
   -1.4838   -1.1002    0.1111 C   0  0  0  0  0  0  0  0  0  0  0  0
   -0.1093   -1.0837    0.6649 C   0  0  0  0  0  0  0  0  0  0  0  0
    2.9666    1.0126   -0.3902 H   0  0  0  0  0  0  0  0  0  0  0  0
    3.0479   -0.0780   -1.8785 H   0  0  0  0  0  0  0  0  0  0  0  0
    2.8632   -0.7519   -0.2449 H   0  0  0  0  0  0  0  0  0  0  0  0
    1.5526    0.1591    1.0280 H   0  0  0  0  0  0  0  0  0  0  0  0
    0.3230    2.1928    1.1210 H   0  0  0  0  0  0  0  0  0  0  0  0
   -2.0087    2.2395    0.4124 H   0  0  0  0  0  0  0  0  0  0  0  0
   -1.6207    0.2276   -1.5356 H   0  0  0  0  0  0  0  0  0  0  0  0
   -3.0484    0.2879   -0.4898 H   0  0  0  0  0  0  0  0  0  0  0  0
   -1.6028   -1.9131   -0.6587 H   0  0  0  0  0  0  0  0  0  0  0  0
   -2.1958   -1.3664    0.9191 H   0  0  0  0  0  0  0  0  0  0  0  0
    0.4362   -1.9935    0.3040 H   0  0  0  0  0  0  0  0  0  0  0  0
   -0.1319   -1.1702    1.7692 H   0  0  0  0  0  0  0  0  0  0  0  0
  1  2  1  0
  2  3  1  0
  3  4  1  0
  4  5  2  0
  5  6  1  0
  6  7  1  0
  7  8  1  0
  8  3  1  0
  1  9  1  0
  1 10  1  0
  1 11  1  0
  3 12  1  0
  4 13  1  0
  5 14  1  0
  6 15  1  0
  6 16  1  0
  7 17  1  0
  7 18  1  0
  8 19  1  0
  8 20  1  0
M  END
