
     RDKit          3D

 19 20  0  0  0  0  0  0  0  0999 V2000
    2.9872   -0.5065   -0.4924 C   0  0  0  0  0  0  0  0  0  0  0  0
    1.7591   -0.6637    0.0887 O   0  0  0  0  0  0  0  0  0  0  0  0
    0.9826    0.4533    0.1525 C   0  0  0  0  0  0  0  0  0  0  0  0
    0.3597    0.7887    1.4475 C   0  0  0  0  0  0  0  0  0  0  0  0
    0.6332    0.9911    2.6126 O   0  0  0  0  0  0  0  0  0  0  0  0
   -0.9632    0.8066    0.7552 C   0  0  0  0  0  0  0  0  0  0  0  0
   -1.4384   -0.5045    0.2745 C   0  0  0  0  0  0  0  0  0  0  0  0
   -2.7721   -0.5896   -0.3933 C   0  0  0  0  0  0  0  0  0  0  0  0
   -0.3716    0.2184   -0.4649 C   0  0  0  0  0  0  0  0  0  0  0  0
    3.6492    0.2244    0.0046 H   0  0  0  0  0  0  0  0  0  0  0  0
    3.4951   -1.4922   -0.4966 H   0  0  0  0  0  0  0  0  0  0  0  0
    2.8302   -0.2120   -1.5651 H   0  0  0  0  0  0  0  0  0  0  0  0
    1.5092    1.3296   -0.2985 H   0  0  0  0  0  0  0  0  0  0  0  0
   -1.5193    1.7324    0.6517 H   0  0  0  0  0  0  0  0  0  0  0  0
   -1.1484   -1.3762    0.8989 H   0  0  0  0  0  0  0  0  0  0  0  0
   -2.9167   -1.6190   -0.7751 H   0  0  0  0  0  0  0  0  0  0  0  0
   -2.8630    0.1450   -1.2286 H   0  0  0  0  0  0  0  0  0  0  0  0
   -3.6191   -0.3402    0.3048 H   0  0  0  0  0  0  0  0  0  0  0  0
   -0.5936    0.6143   -1.4764 H   0  0  0  0  0  0  0  0  0  0  0  0
  1  2  1  0
  2  3  1  0
  3  4  1  0
  4  5  2  0
  4  6  1  0
  6  7  1  0
  7  8  1  0
  7  9  1  0
  9  3  1  0
  9  6  1  0
  1 10  1  0
  1 11  1  0
  1 12  1  0
  3 13  1  0
  6 14  1  0
  7 15  1  0
  8 16  1  0
  8 17  1  0
  8 18  1  0
  9 19  1  0
M  END
