
     RDKit          3D

 21 22  0  0  0  0  0  0  0  0999 V2000
    2.9498    0.6000    0.0900 C   0  0  0  0  0  0  0  0  0  0  0  0
    1.6960    0.3084    0.6559 O   0  0  0  0  0  0  0  0  0  0  0  0
    0.8081   -0.1603   -0.2824 C   0  0  0  0  0  0  0  0  0  0  0  0
   -0.5439    0.4678   -0.3222 C   0  0  0  0  0  0  0  0  0  0  0  0
   -0.6939    1.7764    0.4165 C   0  0  0  0  0  0  0  0  0  0  0  0
   -1.1555   -0.6918    0.3798 C   0  0  0  0  0  0  0  0  0  0  0  0
   -2.4197   -1.3275   -0.1580 C   0  0  0  0  0  0  0  0  0  0  0  0
   -0.4955   -1.3703    1.3814 O   0  0  0  0  0  0  0  0  0  0  0  0
    0.1614   -1.4441    0.1781 C   0  0  0  0  0  0  0  0  0  0  0  0
    3.6594    0.9734    0.8338 H   0  0  0  0  0  0  0  0  0  0  0  0
    3.3080   -0.3411   -0.3706 H   0  0  0  0  0  0  0  0  0  0  0  0
    2.8730    1.3532   -0.7150 H   0  0  0  0  0  0  0  0  0  0  0  0
    1.2753   -0.2080   -1.2913 H   0  0  0  0  0  0  0  0  0  0  0  0
   -0.9565    0.5628   -1.3521 H   0  0  0  0  0  0  0  0  0  0  0  0
   -0.3256    2.6331   -0.1424 H   0  0  0  0  0  0  0  0  0  0  0  0
   -1.8005    1.9312    0.5456 H   0  0  0  0  0  0  0  0  0  0  0  0
   -0.2189    1.7151    1.4029 H   0  0  0  0  0  0  0  0  0  0  0  0
   -3.2678   -0.8409    0.3589 H   0  0  0  0  0  0  0  0  0  0  0  0
   -2.4215   -2.3853    0.1380 H   0  0  0  0  0  0  0  0  0  0  0  0
   -2.4981   -1.2516   -1.2593 H   0  0  0  0  0  0  0  0  0  0  0  0
    0.0665   -2.3005   -0.4877 H   0  0  0  0  0  0  0  0  0  0  0  0
  1  2  1  0
  2  3  1  0
  3  4  1  0
  4  5  1  0
  4  6  1  0
  6  7  1  0
  6  8  1  0
  8  9  1  0
  9  3  1  0
  9  6  1  0
  1 10  1  0
  1 11  1  0
  1 12  1  0
  3 13  1  0
  4 14  1  0
  5 15  1  0
  5 16  1  0
  5 17  1  0
  7 18  1  0
  7 19  1  0
  7 20  1  0
  9 21  1  0
M  END
