
     RDKit          3D

 23 24  0  0  0  0  0  0  0  0999 V2000
   -2.9841    0.8210    0.0255 C   0  0  0  0  0  0  0  0  0  0  0  0
   -1.7453    0.6923   -0.5805 O   0  0  0  0  0  0  0  0  0  0  0  0
   -0.7875    0.4661    0.3767 C   0  0  0  0  0  0  0  0  0  0  0  0
    0.4320    1.3916    0.2739 C   0  0  0  0  0  0  0  0  0  0  0  0
    1.3109    0.2015    0.1551 C   0  0  0  0  0  0  0  0  0  0  0  0
    2.4792    0.1518   -0.7539 C   0  0  0  0  0  0  0  0  0  0  0  0
    1.1748   -0.9510    1.1206 C   0  0  0  0  0  0  0  0  0  0  0  0
    0.1590   -0.6783    0.0992 C   0  0  0  0  0  0  0  0  0  0  0  0
   -0.1608   -1.6050   -1.0147 C   0  0  0  0  0  0  0  0  0  0  0  0
   -3.0021    1.6758    0.7525 H   0  0  0  0  0  0  0  0  0  0  0  0
   -3.2121   -0.1157    0.6032 H   0  0  0  0  0  0  0  0  0  0  0  0
   -3.7945    1.0452   -0.7019 H   0  0  0  0  0  0  0  0  0  0  0  0
   -1.2346    0.4424    1.3862 H   0  0  0  0  0  0  0  0  0  0  0  0
    0.5082    1.9989    1.1823 H   0  0  0  0  0  0  0  0  0  0  0  0
    0.3708    1.9442   -0.6841 H   0  0  0  0  0  0  0  0  0  0  0  0
    2.4111    0.8214   -1.6367 H   0  0  0  0  0  0  0  0  0  0  0  0
    3.4065    0.4452   -0.2095 H   0  0  0  0  0  0  0  0  0  0  0  0
    2.6881   -0.8876   -1.1376 H   0  0  0  0  0  0  0  0  0  0  0  0
    1.0188   -0.5802    2.1754 H   0  0  0  0  0  0  0  0  0  0  0  0
    1.8288   -1.8072    0.9682 H   0  0  0  0  0  0  0  0  0  0  0  0
   -1.0360   -2.2362   -0.6864 H   0  0  0  0  0  0  0  0  0  0  0  0
   -0.5396   -1.0161   -1.8789 H   0  0  0  0  0  0  0  0  0  0  0  0
    0.7083   -2.2198   -1.3033 H   0  0  0  0  0  0  0  0  0  0  0  0
  1  2  1  0
  2  3  1  0
  3  4  1  0
  4  5  1  0
  5  6  1  0
  5  7  1  0
  7  8  1  0
  8  9  1  0
  8  3  1  0
  8  5  1  0
  1 10  1  0
  1 11  1  0
  1 12  1  0
  3 13  1  0
  4 14  1  0
  4 15  1  0
  6 16  1  0
  6 17  1  0
  6 18  1  0
  7 19  1  0
  7 20  1  0
  9 21  1  0
  9 22  1  0
  9 23  1  0
M  END
