
     RDKit          3D

 21 22  0  0  0  0  0  0  0  0999 V2000
    2.7045    0.2083    0.7631 C   0  0  0  0  0  0  0  0  0  0  0  0
    1.8006   -0.1961   -0.1960 O   0  0  0  0  0  0  0  0  0  0  0  0
    0.4831   -0.0977    0.1666 C   0  0  0  0  0  0  0  0  0  0  0  0
   -0.1034   -1.4956    0.1811 C   0  0  0  0  0  0  0  0  0  0  0  0
   -1.5731   -1.2296    0.0135 C   0  0  0  0  0  0  0  0  0  0  0  0
   -1.5457   -0.2325   -1.1533 C   0  0  0  0  0  0  0  0  0  0  0  0
   -0.4065    0.6549   -0.7154 C   0  0  0  0  0  0  0  0  0  0  0  0
   -0.8875    2.0035   -0.1615 C   0  0  0  0  0  0  0  0  0  0  0  0
   -0.1414    1.8382   -1.3109 O   0  0  0  0  0  0  0  0  0  0  0  0
    3.7201    0.0731    0.3315 H   0  0  0  0  0  0  0  0  0  0  0  0
    2.6336    1.3069    0.9930 H   0  0  0  0  0  0  0  0  0  0  0  0
    2.6804   -0.4079    1.6839 H   0  0  0  0  0  0  0  0  0  0  0  0
    0.4659    0.3131    1.2195 H   0  0  0  0  0  0  0  0  0  0  0  0
    0.2772   -2.0206   -0.7117 H   0  0  0  0  0  0  0  0  0  0  0  0
    0.1374   -2.0435    1.1088 H   0  0  0  0  0  0  0  0  0  0  0  0
   -1.9286   -0.7153    0.9290 H   0  0  0  0  0  0  0  0  0  0  0  0
   -2.1616   -2.1126   -0.2615 H   0  0  0  0  0  0  0  0  0  0  0  0
   -2.4986    0.2919   -1.2679 H   0  0  0  0  0  0  0  0  0  0  0  0
   -1.3290   -0.8024   -2.0695 H   0  0  0  0  0  0  0  0  0  0  0  0
   -0.3928    2.3702    0.7762 H   0  0  0  0  0  0  0  0  0  0  0  0
   -1.9345    2.2935   -0.3186 H   0  0  0  0  0  0  0  0  0  0  0  0
  1  2  1  0
  2  3  1  0
  3  4  1  0
  4  5  1  0
  5  6  1  0
  6  7  1  0
  7  8  1  0
  8  9  1  0
  7  3  1  0
  9  7  1  0
  1 10  1  0
  1 11  1  0
  1 12  1  0
  3 13  1  0
  4 14  1  0
  4 15  1  0
  5 16  1  0
  5 17  1  0
  6 18  1  0
  6 19  1  0
  8 20  1  0
  8 21  1  0
M  END
