
     RDKit          3D

 21 21  0  0  0  0  0  0  0  0999 V2000
   -2.5241    1.6915    0.2017 C   0  0  0  0  0  0  0  0  0  0  0  0
   -1.7962    0.5817    0.6170 O   0  0  0  0  0  0  0  0  0  0  0  0
   -0.6787    0.3470   -0.1691 C   0  0  0  0  0  0  0  0  0  0  0  0
    0.5817   -0.1860    0.4980 C   0  0  0  0  0  0  0  0  0  0  0  0
    1.7776    0.2078   -0.0988 O   0  0  0  0  0  0  0  0  0  0  0  0
    2.7276    0.5863    0.8474 C   0  0  0  0  0  0  0  0  0  0  0  0
   -0.2833   -1.0798   -0.3135 C   0  0  0  0  0  0  0  0  0  0  0  0
    0.2659   -1.5758   -1.6425 C   0  0  0  0  0  0  0  0  0  0  0  0
   -1.0901   -2.0442    0.3081 O   0  0  0  0  0  0  0  0  0  0  0  0
   -3.3887    1.7766    0.9035 H   0  0  0  0  0  0  0  0  0  0  0  0
   -1.9092    2.6133    0.2304 H   0  0  0  0  0  0  0  0  0  0  0  0
   -2.9416    1.4705   -0.7991 H   0  0  0  0  0  0  0  0  0  0  0  0
   -0.5354    1.0662   -0.9961 H   0  0  0  0  0  0  0  0  0  0  0  0
    0.5199   -0.1566    1.6043 H   0  0  0  0  0  0  0  0  0  0  0  0
    3.6447    0.8841    0.2982 H   0  0  0  0  0  0  0  0  0  0  0  0
    2.3745    1.4159    1.4888 H   0  0  0  0  0  0  0  0  0  0  0  0
    3.0172   -0.2483    1.5220 H   0  0  0  0  0  0  0  0  0  0  0  0
    0.6488   -0.7677   -2.2735 H   0  0  0  0  0  0  0  0  0  0  0  0
    1.0614   -2.3257   -1.3727 H   0  0  0  0  0  0  0  0  0  0  0  0
   -0.5312   -2.1704   -2.1336 H   0  0  0  0  0  0  0  0  0  0  0  0
   -0.9406   -2.0865    1.2795 H   0  0  0  0  0  0  0  0  0  0  0  0
  1  2  1  0
  2  3  1  0
  3  4  1  0
  4  5  1  0
  5  6  1  0
  4  7  1  0
  7  8  1  0
  7  9  1  0
  7  3  1  0
  1 10  1  0
  1 11  1  0
  1 12  1  0
  3 13  1  0
  4 14  1  0
  6 15  1  0
  6 16  1  0
  6 17  1  0
  8 18  1  0
  8 19  1  0
  8 20  1  0
  9 21  1  0
M  END
