
     RDKit          3D

 18 19  0  0  0  0  0  0  0  0999 V2000
    2.5583    0.5571   -0.0458 C   0  0  0  0  0  0  0  0  0  0  0  0
    1.2755    0.6572    0.4884 O   0  0  0  0  0  0  0  0  0  0  0  0
    0.3130    0.0801   -0.3244 C   0  0  0  0  0  0  0  0  0  0  0  0
   -0.4394   -0.9907    0.4409 C   0  0  0  0  0  0  0  0  0  0  0  0
   -0.1137   -2.2685    0.0961 O   0  0  0  0  0  0  0  0  0  0  0  0
   -1.6944   -0.4113   -0.1549 C   0  0  0  0  0  0  0  0  0  0  0  0
   -2.0601    0.9231    0.3738 C   0  0  0  0  0  0  0  0  0  0  0  0
   -0.9286    0.8768   -0.5626 C   0  0  0  0  0  0  0  0  0  0  0  0
    2.8884   -0.4778   -0.2053 H   0  0  0  0  0  0  0  0  0  0  0  0
    3.2410    1.0028    0.7318 H   0  0  0  0  0  0  0  0  0  0  0  0
    2.6940    1.1723   -0.9542 H   0  0  0  0  0  0  0  0  0  0  0  0
    0.7119   -0.3660   -1.2628 H   0  0  0  0  0  0  0  0  0  0  0  0
   -0.4301   -0.7824    1.5397 H   0  0  0  0  0  0  0  0  0  0  0  0
    0.1415   -2.7555    0.9274 H   0  0  0  0  0  0  0  0  0  0  0  0
   -2.1962   -0.8843   -0.9968 H   0  0  0  0  0  0  0  0  0  0  0  0
   -1.9042    1.0695    1.4822 H   0  0  0  0  0  0  0  0  0  0  0  0
   -2.9967    1.3469    0.0003 H   0  0  0  0  0  0  0  0  0  0  0  0
   -1.0602    1.2508   -1.5740 H   0  0  0  0  0  0  0  0  0  0  0  0
  1  2  1  0
  2  3  1  0
  3  4  1  0
  4  5  1  0
  4  6  1  0
  6  7  1  0
  7  8  1  0
  8  3  1  0
  8  6  1  0
  1  9  1  0
  1 10  1  0
  1 11  1  0
  3 12  1  0
  4 13  1  0
  5 14  1  0
  6 15  1  0
  7 16  1  0
  7 17  1  0
  8 18  1  0
M  END
