
     RDKit          3D

 15 16  0  0  0  0  0  0  0  0999 V2000
   -2.2555    0.9505    0.1433 C   0  0  0  0  0  0  0  0  0  0  0  0
   -1.3988   -0.0081   -0.2523 O   0  0  0  0  0  0  0  0  0  0  0  0
   -0.0638    0.2288   -0.1454 C   0  0  0  0  0  0  0  0  0  0  0  0
    0.6817   -0.9045    0.5844 C   0  0  0  0  0  0  0  0  0  0  0  0
    2.0048   -0.6554    1.0054 O   0  0  0  0  0  0  0  0  0  0  0  0
    2.3908   -0.2417   -0.2497 C   0  0  0  0  0  0  0  0  0  0  0  0
    3.4496    0.1595   -0.7484 O   0  0  0  0  0  0  0  0  0  0  0  0
    1.0273   -0.4674   -0.7745 C   0  0  0  0  0  0  0  0  0  0  0  0
    0.9622   -1.2740   -1.8796 O   0  0  0  0  0  0  0  0  0  0  0  0
   -2.1916    1.9202   -0.3699 H   0  0  0  0  0  0  0  0  0  0  0  0
   -3.2944    0.5827    0.0032 H   0  0  0  0  0  0  0  0  0  0  0  0
   -2.1515    1.1344    1.2510 H   0  0  0  0  0  0  0  0  0  0  0  0
    0.1715    1.2407    0.2798 H   0  0  0  0  0  0  0  0  0  0  0  0
    0.1924   -1.8547    0.7373 H   0  0  0  0  0  0  0  0  0  0  0  0
    0.4755   -0.8111   -2.6065 H   0  0  0  0  0  0  0  0  0  0  0  0
  1  2  1  0
  2  3  1  0
  3  4  1  0
  4  5  1  0
  5  6  1  0
  6  7  2  0
  6  8  1  0
  8  9  1  0
  8  3  1  0
  8  4  1  0
  1 10  1  0
  1 11  1  0
  1 12  1  0
  3 13  1  0
  4 14  1  0
  9 15  1  0
M  END
