
     RDKit          3D

 21 22  0  0  0  0  0  0  0  0999 V2000
   -2.9108    0.4788    0.3801 C   0  0  0  0  0  0  0  0  0  0  0  0
   -1.6127    0.0688    0.4592 O   0  0  0  0  0  0  0  0  0  0  0  0
   -0.8211    0.3463   -0.6110 C   0  0  0  0  0  0  0  0  0  0  0  0
    0.4256    1.0785   -0.0713 C   0  0  0  0  0  0  0  0  0  0  0  0
    1.3545   -0.1123   -0.1103 C   0  0  0  0  0  0  0  0  0  0  0  0
    2.7019    0.0149    0.4128 C   0  0  0  0  0  0  0  0  0  0  0  0
    0.5073   -1.2969    0.3647 C   0  0  0  0  0  0  0  0  0  0  0  0
   -0.1198   -0.9427   -0.9922 C   0  0  0  0  0  0  0  0  0  0  0  0
    1.1536   -0.6005   -1.3950 O   0  0  0  0  0  0  0  0  0  0  0  0
   -3.3795   -0.0203   -0.5018 H   0  0  0  0  0  0  0  0  0  0  0  0
   -3.0592    1.5740    0.3644 H   0  0  0  0  0  0  0  0  0  0  0  0
   -3.4470    0.1001    1.2822 H   0  0  0  0  0  0  0  0  0  0  0  0
   -1.2699    0.8667   -1.4410 H   0  0  0  0  0  0  0  0  0  0  0  0
    0.2549    1.4794    0.9272 H   0  0  0  0  0  0  0  0  0  0  0  0
    0.6933    1.8432   -0.8310 H   0  0  0  0  0  0  0  0  0  0  0  0
    3.4631    0.3419   -0.3499 H   0  0  0  0  0  0  0  0  0  0  0  0
    2.7292    0.7659    1.2338 H   0  0  0  0  0  0  0  0  0  0  0  0
    3.0502   -0.9869    0.8025 H   0  0  0  0  0  0  0  0  0  0  0  0
   -0.1349   -1.0842    1.2210 H   0  0  0  0  0  0  0  0  0  0  0  0
    1.0872   -2.2123    0.3461 H   0  0  0  0  0  0  0  0  0  0  0  0
   -0.6660   -1.7024   -1.4906 H   0  0  0  0  0  0  0  0  0  0  0  0
  1  2  1  0
  2  3  1  0
  3  4  1  0
  4  5  1  0
  5  6  1  0
  5  7  1  0
  7  8  1  0
  8  9  1  0
  8  3  1  0
  9  5  1  0
  1 10  1  0
  1 11  1  0
  1 12  1  0
  3 13  1  0
  4 14  1  0
  4 15  1  0
  6 16  1  0
  6 17  1  0
  6 18  1  0
  7 19  1  0
  7 20  1  0
  8 21  1  0
M  END
