
     RDKit          3D

 21 23  0  0  0  0  0  0  0  0999 V2000
    2.8606   -0.2986   -0.8792 C   0  0  0  0  0  0  0  0  0  0  0  0
    1.7405   -0.8309   -0.2616 O   0  0  0  0  0  0  0  0  0  0  0  0
    0.8208    0.1687   -0.0713 C   0  0  0  0  0  0  0  0  0  0  0  0
    0.4101    0.2715    1.4099 C   0  0  0  0  0  0  0  0  0  0  0  0
   -1.0862    0.1696    1.2526 C   0  0  0  0  0  0  0  0  0  0  0  0
   -1.3052   -0.9451    0.2733 C   0  0  0  0  0  0  0  0  0  0  0  0
   -2.5122   -0.1727   -0.1865 C   0  0  0  0  0  0  0  0  0  0  0  0
   -1.4609    0.8775   -0.0101 C   0  0  0  0  0  0  0  0  0  0  0  0
   -0.5221   -0.0964   -0.6807 C   0  0  0  0  0  0  0  0  0  0  0  0
    3.2997    0.5056   -0.2236 H   0  0  0  0  0  0  0  0  0  0  0  0
    3.6743   -1.0374   -1.0228 H   0  0  0  0  0  0  0  0  0  0  0  0
    2.5681    0.1766   -1.8332 H   0  0  0  0  0  0  0  0  0  0  0  0
    1.1855    1.1326   -0.4466 H   0  0  0  0  0  0  0  0  0  0  0  0
    0.8049   -0.5821    1.9739 H   0  0  0  0  0  0  0  0  0  0  0  0
    0.7454    1.2544    1.7740 H   0  0  0  0  0  0  0  0  0  0  0  0
   -1.7091    0.2466    2.1167 H   0  0  0  0  0  0  0  0  0  0  0  0
   -1.2334   -1.9284    0.4310 H   0  0  0  0  0  0  0  0  0  0  0  0
   -3.2799   -0.1469    0.6042 H   0  0  0  0  0  0  0  0  0  0  0  0
   -2.8634   -0.3680   -1.2090 H   0  0  0  0  0  0  0  0  0  0  0  0
   -1.5271    1.8604   -0.1782 H   0  0  0  0  0  0  0  0  0  0  0  0
   -0.6104   -0.2570   -1.7336 H   0  0  0  0  0  0  0  0  0  0  0  0
  1  2  1  0
  2  3  1  0
  3  4  1  0
  4  5  1  0
  5  6  1  0
  6  7  1  0
  7  8  1  0
  8  9  1  0
  9  3  1  0
  8  5  1  0
  9  6  1  0
  1 10  1  0
  1 11  1  0
  1 12  1  0
  3 13  1  0
  4 14  1  0
  4 15  1  0
  5 16  1  0
  6 17  1  0
  7 18  1  0
  7 19  1  0
  8 20  1  0
  9 21  1  0
M  END
