
     RDKit          3D

 19 20  0  0  0  0  0  0  0  0999 V2000
   -2.4682    0.8318    0.4179 C   0  0  0  0  0  0  0  0  0  0  0  0
   -1.5028    0.2053    1.2377 O   0  0  0  0  0  0  0  0  0  0  0  0
   -0.5733   -0.3629    0.4005 C   0  0  0  0  0  0  0  0  0  0  0  0
    0.1668    0.5319   -0.5193 C   0  0  0  0  0  0  0  0  0  0  0  0
    1.4762   -0.1915   -0.2233 C   0  0  0  0  0  0  0  0  0  0  0  0
    2.6184    0.6652    0.0699 C   0  0  0  0  0  0  0  0  0  0  0  0
    3.3324    0.4375    1.0148 O   0  0  0  0  0  0  0  0  0  0  0  0
    0.7697   -0.8163    0.9585 C   0  0  0  0  0  0  0  0  0  0  0  0
   -0.2784   -1.7886    0.5855 C   0  0  0  0  0  0  0  0  0  0  0  0
   -2.9561    0.0682   -0.2533 H   0  0  0  0  0  0  0  0  0  0  0  0
   -3.2476    1.3238    1.0022 H   0  0  0  0  0  0  0  0  0  0  0  0
   -2.0105    1.5721   -0.2557 H   0  0  0  0  0  0  0  0  0  0  0  0
   -0.1205    0.5707   -1.5662 H   0  0  0  0  0  0  0  0  0  0  0  0
    0.2495    1.5632   -0.0689 H   0  0  0  0  0  0  0  0  0  0  0  0
    1.6315   -0.9535   -1.0378 H   0  0  0  0  0  0  0  0  0  0  0  0
    2.8295    1.5098   -0.5606 H   0  0  0  0  0  0  0  0  0  0  0  0
    0.9600   -0.4791    1.9734 H   0  0  0  0  0  0  0  0  0  0  0  0
   -0.0972   -2.3759   -0.3536 H   0  0  0  0  0  0  0  0  0  0  0  0
   -0.7795   -2.3118    1.3975 H   0  0  0  0  0  0  0  0  0  0  0  0
  1  2  1  0
  2  3  1  0
  3  4  1  0
  4  5  1  0
  5  6  1  0
  6  7  2  0
  5  8  1  0
  8  9  1  0
  8  3  1  0
  9  3  1  0
  1 10  1  0
  1 11  1  0
  1 12  1  0
  4 13  1  0
  4 14  1  0
  5 15  1  0
  6 16  1  0
  8 17  1  0
  9 18  1  0
  9 19  1  0
M  END
