
     RDKit          3D

 19 20  0  0  0  0  0  0  0  0999 V2000
    2.6771    0.2171    0.8064 C   0  0  0  0  0  0  0  0  0  0  0  0
    1.3894    0.4452    1.2984 O   0  0  0  0  0  0  0  0  0  0  0  0
    0.4615    0.2505    0.2879 C   0  0  0  0  0  0  0  0  0  0  0  0
   -0.3061    1.4679   -0.0426 C   0  0  0  0  0  0  0  0  0  0  0  0
   -1.5837    1.1789   -0.1695 C   0  0  0  0  0  0  0  0  0  0  0  0
   -1.8033   -0.2596    0.0627 C   0  0  0  0  0  0  0  0  0  0  0  0
   -1.6425   -0.6715    1.5226 C   0  0  0  0  0  0  0  0  0  0  0  0
   -0.5207   -0.8334    0.5807 C   0  0  0  0  0  0  0  0  0  0  0  0
   -0.1397   -2.0982    0.1750 O   0  0  0  0  0  0  0  0  0  0  0  0
    2.8642    0.9448   -0.0362 H   0  0  0  0  0  0  0  0  0  0  0  0
    3.4482    0.2795    1.5689 H   0  0  0  0  0  0  0  0  0  0  0  0
    2.6309   -0.7800    0.2980 H   0  0  0  0  0  0  0  0  0  0  0  0
    0.9993   -0.0406   -0.6612 H   0  0  0  0  0  0  0  0  0  0  0  0
    0.1290    2.4420   -0.1596 H   0  0  0  0  0  0  0  0  0  0  0  0
   -2.3496    1.8909   -0.4074 H   0  0  0  0  0  0  0  0  0  0  0  0
   -2.4037   -0.8731   -0.6074 H   0  0  0  0  0  0  0  0  0  0  0  0
   -1.6893    0.1170    2.2857 H   0  0  0  0  0  0  0  0  0  0  0  0
   -2.2053   -1.5757    1.7758 H   0  0  0  0  0  0  0  0  0  0  0  0
    0.0444   -2.1016   -0.7983 H   0  0  0  0  0  0  0  0  0  0  0  0
  1  2  1  0
  2  3  1  0
  3  4  1  0
  4  5  2  0
  5  6  1  0
  6  7  1  0
  7  8  1  0
  8  9  1  0
  8  3  1  0
  8  6  1  0
  1 10  1  0
  1 11  1  0
  1 12  1  0
  3 13  1  0
  4 14  1  0
  5 15  1  0
  6 16  1  0
  7 17  1  0
  7 18  1  0
  9 19  1  0
M  END
