
     RDKit          3D

 19 20  0  0  0  0  0  0  0  0999 V2000
    3.1051   -0.4401    0.2066 C   0  0  0  0  0  0  0  0  0  0  0  0
    2.0779    0.4826    0.1205 O   0  0  0  0  0  0  0  0  0  0  0  0
    0.8221   -0.0922    0.0887 C   0  0  0  0  0  0  0  0  0  0  0  0
   -0.2421    0.5045   -0.7087 C   0  0  0  0  0  0  0  0  0  0  0  0
   -1.3459   -0.4467   -1.1774 C   0  0  0  0  0  0  0  0  0  0  0  0
   -2.5600    0.1243   -0.8062 O   0  0  0  0  0  0  0  0  0  0  0  0
   -2.5371    0.3792    0.5463 C   0  0  0  0  0  0  0  0  0  0  0  0
   -1.4128   -0.2029    1.1743 O   0  0  0  0  0  0  0  0  0  0  0  0
   -0.3029    0.5126    0.8081 C   0  0  0  0  0  0  0  0  0  0  0  0
    4.0569    0.1305    0.2250 H   0  0  0  0  0  0  0  0  0  0  0  0
    3.0785   -1.0230    1.1483 H   0  0  0  0  0  0  0  0  0  0  0  0
    3.1582   -1.1394   -0.6304 H   0  0  0  0  0  0  0  0  0  0  0  0
    0.8672   -1.2199    0.1392 H   0  0  0  0  0  0  0  0  0  0  0  0
   -0.1841    1.4435   -1.2554 H   0  0  0  0  0  0  0  0  0  0  0  0
   -1.2451   -0.5652   -2.2762 H   0  0  0  0  0  0  0  0  0  0  0  0
   -1.2808   -1.4214   -0.6439 H   0  0  0  0  0  0  0  0  0  0  0  0
   -3.4738    0.0333    0.9911 H   0  0  0  0  0  0  0  0  0  0  0  0
   -2.4796    1.4937    0.6926 H   0  0  0  0  0  0  0  0  0  0  0  0
   -0.1019    1.4465    1.3575 H   0  0  0  0  0  0  0  0  0  0  0  0
  1  2  1  0
  2  3  1  0
  3  4  1  0
  4  5  1  0
  5  6  1  0
  6  7  1  0
  7  8  1  0
  8  9  1  0
  9  3  1  0
  9  4  1  0
  1 10  1  0
  1 11  1  0
  1 12  1  0
  3 13  1  0
  4 14  1  0
  5 15  1  0
  5 16  1  0
  7 17  1  0
  7 18  1  0
  9 19  1  0
M  END
