
     RDKit          3D

 21 21  0  0  0  0  0  0  0  0999 V2000
    2.0700    0.2792   -0.7874 C   0  0  0  0  0  0  0  0  0  0  0  0
    0.7116    0.0259   -0.8960 O   0  0  0  0  0  0  0  0  0  0  0  0
    0.2294   -0.1251    0.4172 C   0  0  0  0  0  0  0  0  0  0  0  0
    0.8861   -1.2492    1.1544 C   0  0  0  0  0  0  0  0  0  0  0  0
    0.2259    1.1922    1.0861 C   0  0  0  0  0  0  0  0  0  0  0  0
    0.9683    1.7991    1.8060 O   0  0  0  0  0  0  0  0  0  0  0  0
   -1.0977    1.4291    0.4742 C   0  0  0  0  0  0  0  0  0  0  0  0
   -1.2814   -0.0867    0.5109 C   0  0  0  0  0  0  0  0  0  0  0  0
   -2.0267   -0.6680   -0.6338 C   0  0  0  0  0  0  0  0  0  0  0  0
    2.2809    1.2087   -0.1975 H   0  0  0  0  0  0  0  0  0  0  0  0
    2.5475    0.4382   -1.7851 H   0  0  0  0  0  0  0  0  0  0  0  0
    2.6270   -0.5416   -0.2930 H   0  0  0  0  0  0  0  0  0  0  0  0
    0.9856   -2.0976    0.4633 H   0  0  0  0  0  0  0  0  0  0  0  0
    1.8761   -0.9606    1.5578 H   0  0  0  0  0  0  0  0  0  0  0  0
    0.2520   -1.4955    2.0527 H   0  0  0  0  0  0  0  0  0  0  0  0
   -1.0584    1.7366   -0.6051 H   0  0  0  0  0  0  0  0  0  0  0  0
   -1.8203    2.0008    1.0666 H   0  0  0  0  0  0  0  0  0  0  0  0
   -1.6055   -0.4128    1.5115 H   0  0  0  0  0  0  0  0  0  0  0  0
   -2.3557   -1.6944   -0.3455 H   0  0  0  0  0  0  0  0  0  0  0  0
   -2.9716   -0.0868   -0.8388 H   0  0  0  0  0  0  0  0  0  0  0  0
   -1.4431   -0.6917   -1.5590 H   0  0  0  0  0  0  0  0  0  0  0  0
  1  2  1  0
  2  3  1  0
  3  4  1  0
  3  5  1  0
  5  6  2  0
  5  7  1  0
  7  8  1  0
  8  9  1  0
  8  3  1  0
  1 10  1  0
  1 11  1  0
  1 12  1  0
  4 13  1  0
  4 14  1  0
  4 15  1  0
  7 16  1  0
  7 17  1  0
  8 18  1  0
  9 19  1  0
  9 20  1  0
  9 21  1  0
M  END
