
     RDKit          3D

 23 23  0  0  0  0  0  0  0  0999 V2000
    3.2584   -0.1855   -0.0263 C   0  0  0  0  0  0  0  0  0  0  0  0
    2.0984   -0.1318    0.7314 O   0  0  0  0  0  0  0  0  0  0  0  0
    0.9700    0.1433   -0.0328 C   0  0  0  0  0  0  0  0  0  0  0  0
    0.4936    1.5253    0.3923 C   0  0  0  0  0  0  0  0  0  0  0  0
   -0.6745    1.7646   -0.3170 O   0  0  0  0  0  0  0  0  0  0  0  0
   -1.7243    1.0135    0.1620 C   0  0  0  0  0  0  0  0  0  0  0  0
   -1.4571   -0.4336    0.3113 C   0  0  0  0  0  0  0  0  0  0  0  0
   -2.3878   -1.1782   -0.6577 C   0  0  0  0  0  0  0  0  0  0  0  0
   -0.0774   -0.8974    0.1097 C   0  0  0  0  0  0  0  0  0  0  0  0
    3.2302   -0.9664   -0.8142 H   0  0  0  0  0  0  0  0  0  0  0  0
    4.0850   -0.4350    0.6775 H   0  0  0  0  0  0  0  0  0  0  0  0
    3.4470    0.7920   -0.4988 H   0  0  0  0  0  0  0  0  0  0  0  0
    1.2668    0.2616   -1.1162 H   0  0  0  0  0  0  0  0  0  0  0  0
    0.3417    1.5893    1.4894 H   0  0  0  0  0  0  0  0  0  0  0  0
    1.2272    2.2811    0.0836 H   0  0  0  0  0  0  0  0  0  0  0  0
   -2.0349    1.4927    1.1382 H   0  0  0  0  0  0  0  0  0  0  0  0
   -2.6015    1.2279   -0.5192 H   0  0  0  0  0  0  0  0  0  0  0  0
   -1.8261   -0.7436    1.3338 H   0  0  0  0  0  0  0  0  0  0  0  0
   -2.0776   -2.2278   -0.7726 H   0  0  0  0  0  0  0  0  0  0  0  0
   -3.4196   -1.1132   -0.2266 H   0  0  0  0  0  0  0  0  0  0  0  0
   -2.3690   -0.6342   -1.6136 H   0  0  0  0  0  0  0  0  0  0  0  0
   -0.0047   -1.5717   -0.7943 H   0  0  0  0  0  0  0  0  0  0  0  0
    0.2361   -1.5731    0.9601 H   0  0  0  0  0  0  0  0  0  0  0  0
  1  2  1  0
  2  3  1  0
  3  4  1  0
  4  5  1  0
  5  6  1  0
  6  7  1  0
  7  8  1  0
  7  9  1  0
  9  3  1  0
  1 10  1  0
  1 11  1  0
  1 12  1  0
  3 13  1  0
  4 14  1  0
  4 15  1  0
  6 16  1  0
  6 17  1  0
  7 18  1  0
  8 19  1  0
  8 20  1  0
  8 21  1  0
  9 22  1  0
  9 23  1  0
M  END
