
     RDKit          3D

 21 21  0  0  0  0  0  0  0  0999 V2000
    1.3185    1.5754   -0.6847 C   0  0  0  0  0  0  0  0  0  0  0  0
    0.6623    0.5270   -1.2831 O   0  0  0  0  0  0  0  0  0  0  0  0
    0.2537   -0.4115   -0.4010 C   0  0  0  0  0  0  0  0  0  0  0  0
   -0.7018   -0.0264    0.6617 C   0  0  0  0  0  0  0  0  0  0  0  0
   -1.9022    0.6122   -0.0646 C   0  0  0  0  0  0  0  0  0  0  0  0
   -0.2803    0.9366    1.5635 O   0  0  0  0  0  0  0  0  0  0  0  0
   -0.2019   -1.7185   -1.0355 C   0  0  0  0  0  0  0  0  0  0  0  0
    1.0647   -2.2768   -0.8929 O   0  0  0  0  0  0  0  0  0  0  0  0
    1.4126   -1.2902    0.0295 C   0  0  0  0  0  0  0  0  0  0  0  0
    2.2150    1.1980   -0.1121 H   0  0  0  0  0  0  0  0  0  0  0  0
    1.6793    2.2400   -1.5229 H   0  0  0  0  0  0  0  0  0  0  0  0
    0.7314    2.1847    0.0187 H   0  0  0  0  0  0  0  0  0  0  0  0
   -1.0684   -0.9004    1.2542 H   0  0  0  0  0  0  0  0  0  0  0  0
   -2.2577   -0.0579   -0.8629 H   0  0  0  0  0  0  0  0  0  0  0  0
   -1.5011    1.5203   -0.5604 H   0  0  0  0  0  0  0  0  0  0  0  0
   -2.6575    0.8296    0.7106 H   0  0  0  0  0  0  0  0  0  0  0  0
   -1.1079    1.3607    1.9482 H   0  0  0  0  0  0  0  0  0  0  0  0
   -0.5146   -1.5372   -2.1002 H   0  0  0  0  0  0  0  0  0  0  0  0
   -0.9237   -2.3002   -0.4318 H   0  0  0  0  0  0  0  0  0  0  0  0
    2.4041   -0.8751   -0.2411 H   0  0  0  0  0  0  0  0  0  0  0  0
    1.3755   -1.5903    1.0897 H   0  0  0  0  0  0  0  0  0  0  0  0
  1  2  1  0
  2  3  1  0
  3  4  1  0
  4  5  1  0
  4  6  1  0
  3  7  1  0
  7  8  1  0
  8  9  1  0
  9  3  1  0
  1 10  1  0
  1 11  1  0
  1 12  1  0
  4 13  1  0
  5 14  1  0
  5 15  1  0
  5 16  1  0
  6 17  1  0
  7 18  1  0
  7 19  1  0
  9 20  1  0
  9 21  1  0
M  END
