
     RDKit          3D

 21 22  0  0  0  0  0  0  0  0999 V2000
    1.8381    0.7563    1.2633 C   0  0  0  0  0  0  0  0  0  0  0  0
    0.9071   -0.2681    1.3243 O   0  0  0  0  0  0  0  0  0  0  0  0
    0.5763   -0.7622    0.0648 C   0  0  0  0  0  0  0  0  0  0  0  0
    1.6845   -1.3418   -0.7578 C   0  0  0  0  0  0  0  0  0  0  0  0
   -0.7458   -1.4961   -0.0753 C   0  0  0  0  0  0  0  0  0  0  0  0
   -0.5568   -0.0717   -0.6154 C   0  0  0  0  0  0  0  0  0  0  0  0
   -1.3907    0.9410    0.0895 C   0  0  0  0  0  0  0  0  0  0  0  0
   -2.4875    1.6500   -0.4721 C   0  0  0  0  0  0  0  0  0  0  0  0
   -2.8117    0.4606    0.1647 O   0  0  0  0  0  0  0  0  0  0  0  0
    1.4742    1.6284    0.6700 H   0  0  0  0  0  0  0  0  0  0  0  0
    2.8170    0.4476    0.9024 H   0  0  0  0  0  0  0  0  0  0  0  0
    1.9421    1.1459    2.3094 H   0  0  0  0  0  0  0  0  0  0  0  0
    2.0888   -2.2392   -0.2055 H   0  0  0  0  0  0  0  0  0  0  0  0
    2.5242   -0.6501   -0.9229 H   0  0  0  0  0  0  0  0  0  0  0  0
    1.2617   -1.7533   -1.6955 H   0  0  0  0  0  0  0  0  0  0  0  0
   -0.8373   -2.2913   -0.8384 H   0  0  0  0  0  0  0  0  0  0  0  0
   -1.3656   -1.6495    0.8091 H   0  0  0  0  0  0  0  0  0  0  0  0
   -0.4361    0.0003   -1.7319 H   0  0  0  0  0  0  0  0  0  0  0  0
   -1.0214    1.2164    1.1055 H   0  0  0  0  0  0  0  0  0  0  0  0
   -2.8716    2.5501    0.0501 H   0  0  0  0  0  0  0  0  0  0  0  0
   -2.5895    1.7267   -1.5736 H   0  0  0  0  0  0  0  0  0  0  0  0
  1  2  1  0
  2  3  1  0
  3  4  1  0
  3  5  1  0
  5  6  1  0
  6  7  1  0
  7  8  1  0
  8  9  1  0
  6  3  1  0
  9  7  1  0
  1 10  1  0
  1 11  1  0
  1 12  1  0
  4 13  1  0
  4 14  1  0
  4 15  1  0
  5 16  1  0
  5 17  1  0
  6 18  1  0
  7 19  1  0
  8 20  1  0
  8 21  1  0
M  END
