
     RDKit          3D

 23 23  0  0  0  0  0  0  0  0999 V2000
    2.2275    1.0397   -0.4342 C   0  0  0  0  0  0  0  0  0  0  0  0
    1.6283   -0.1399   -0.8106 O   0  0  0  0  0  0  0  0  0  0  0  0
    0.4802   -0.4493   -0.1388 C   0  0  0  0  0  0  0  0  0  0  0  0
    0.6909   -0.5910    1.3674 C   0  0  0  0  0  0  0  0  0  0  0  0
   -0.0977   -1.7534   -0.6751 C   0  0  0  0  0  0  0  0  0  0  0  0
   -1.2747   -0.9843   -1.2144 C   0  0  0  0  0  0  0  0  0  0  0  0
   -0.7692    0.2591   -0.5435 C   0  0  0  0  0  0  0  0  0  0  0  0
   -1.6317    0.7951    0.5503 C   0  0  0  0  0  0  0  0  0  0  0  0
   -0.9651    1.7099    1.3245 O   0  0  0  0  0  0  0  0  0  0  0  0
    3.1464    1.1534   -1.0674 H   0  0  0  0  0  0  0  0  0  0  0  0
    1.5755    1.8968   -0.6839 H   0  0  0  0  0  0  0  0  0  0  0  0
    2.5885    1.0483    0.6115 H   0  0  0  0  0  0  0  0  0  0  0  0
    1.5514   -1.3079    1.4763 H   0  0  0  0  0  0  0  0  0  0  0  0
   -0.1969   -1.0389    1.8536 H   0  0  0  0  0  0  0  0  0  0  0  0
    0.9256    0.4034    1.7488 H   0  0  0  0  0  0  0  0  0  0  0  0
    0.4783   -2.2085   -1.5026 H   0  0  0  0  0  0  0  0  0  0  0  0
   -0.3220   -2.5124    0.0797 H   0  0  0  0  0  0  0  0  0  0  0  0
   -2.2252   -1.3775   -0.8004 H   0  0  0  0  0  0  0  0  0  0  0  0
   -1.3240   -0.9445   -2.3247 H   0  0  0  0  0  0  0  0  0  0  0  0
   -0.6173    1.0580   -1.3242 H   0  0  0  0  0  0  0  0  0  0  0  0
   -2.0563    0.0118    1.2062 H   0  0  0  0  0  0  0  0  0  0  0  0
   -2.5063    1.2978    0.0687 H   0  0  0  0  0  0  0  0  0  0  0  0
   -1.3062    2.6344    1.2329 H   0  0  0  0  0  0  0  0  0  0  0  0
  1  2  1  0
  2  3  1  0
  3  4  1  0
  3  5  1  0
  5  6  1  0
  6  7  1  0
  7  8  1  0
  8  9  1  0
  7  3  1  0
  1 10  1  0
  1 11  1  0
  1 12  1  0
  4 13  1  0
  4 14  1  0
  4 15  1  0
  5 16  1  0
  5 17  1  0
  6 18  1  0
  6 19  1  0
  7 20  1  0
  8 21  1  0
  8 22  1  0
  9 23  1  0
M  END
