
     RDKit          3D

 19 20  0  0  0  0  0  0  0  0999 V2000
    1.9691    0.0955   -0.6901 C   0  0  0  0  0  0  0  0  0  0  0  0
    1.3566    0.5842    0.4370 O   0  0  0  0  0  0  0  0  0  0  0  0
    0.2740   -0.1469    0.8604 C   0  0  0  0  0  0  0  0  0  0  0  0
   -0.4747    0.3157    2.1012 C   0  0  0  0  0  0  0  0  0  0  0  0
   -1.6724    0.3638    1.4210 O   0  0  0  0  0  0  0  0  0  0  0  0
   -1.0801    0.0263    0.2206 C   0  0  0  0  0  0  0  0  0  0  0  0
   -1.1369    0.9510   -0.9503 C   0  0  0  0  0  0  0  0  0  0  0  0
   -0.3129   -1.2702    0.1354 C   0  0  0  0  0  0  0  0  0  0  0  0
    0.0126   -1.6580   -1.1385 O   0  0  0  0  0  0  0  0  0  0  0  0
    2.3533   -0.9446   -0.5537 H   0  0  0  0  0  0  0  0  0  0  0  0
    2.8631    0.7663   -0.8712 H   0  0  0  0  0  0  0  0  0  0  0  0
    1.3784    0.1698   -1.6140 H   0  0  0  0  0  0  0  0  0  0  0  0
   -0.4451   -0.4610    2.8855 H   0  0  0  0  0  0  0  0  0  0  0  0
   -0.1529    1.3336    2.4382 H   0  0  0  0  0  0  0  0  0  0  0  0
   -2.0863    1.5446   -0.9664 H   0  0  0  0  0  0  0  0  0  0  0  0
   -0.9958    0.3882   -1.8953 H   0  0  0  0  0  0  0  0  0  0  0  0
   -0.3162    1.7158   -0.9027 H   0  0  0  0  0  0  0  0  0  0  0  0
   -0.7158   -2.1034    0.7697 H   0  0  0  0  0  0  0  0  0  0  0  0
   -0.8179   -1.6707   -1.6867 H   0  0  0  0  0  0  0  0  0  0  0  0
  1  2  1  0
  2  3  1  0
  3  4  1  0
  4  5  1  0
  5  6  1  0
  6  7  1  0
  6  8  1  0
  8  9  1  0
  6  3  1  0
  8  3  1  0
  1 10  1  0
  1 11  1  0
  1 12  1  0
  4 13  1  0
  4 14  1  0
  7 15  1  0
  7 16  1  0
  7 17  1  0
  8 18  1  0
  9 19  1  0
M  END
