
     RDKit          3D

 23 23  0  0  0  0  0  0  0  0999 V2000
    2.7636    0.5527    0.3717 C   0  0  0  0  0  0  0  0  0  0  0  0
    1.5000    0.4115    0.9468 O   0  0  0  0  0  0  0  0  0  0  0  0
    0.5180    0.1528    0.0385 C   0  0  0  0  0  0  0  0  0  0  0  0
   -0.7576    0.9585    0.2163 C   0  0  0  0  0  0  0  0  0  0  0  0
   -0.8779    2.1922   -0.5764 C   0  0  0  0  0  0  0  0  0  0  0  0
   -1.4492   -0.2832   -0.3510 C   0  0  0  0  0  0  0  0  0  0  0  0
   -2.7334   -0.4761    0.0862 O   0  0  0  0  0  0  0  0  0  0  0  0
   -0.3728   -1.0469    0.3992 C   0  0  0  0  0  0  0  0  0  0  0  0
   -0.0100   -2.3220   -0.2795 C   0  0  0  0  0  0  0  0  0  0  0  0
    3.0829   -0.3619   -0.1703 H   0  0  0  0  0  0  0  0  0  0  0  0
    3.5000    0.6782    1.2079 H   0  0  0  0  0  0  0  0  0  0  0  0
    2.8414    1.3923   -0.3219 H   0  0  0  0  0  0  0  0  0  0  0  0
    0.8075    0.0827   -1.0261 H   0  0  0  0  0  0  0  0  0  0  0  0
   -1.0264    1.0166    1.2990 H   0  0  0  0  0  0  0  0  0  0  0  0
   -1.4765    2.0067   -1.4911 H   0  0  0  0  0  0  0  0  0  0  0  0
    0.0877    2.6578   -0.8551 H   0  0  0  0  0  0  0  0  0  0  0  0
   -1.4795    2.9389    0.0193 H   0  0  0  0  0  0  0  0  0  0  0  0
   -1.2805   -0.3291   -1.4476 H   0  0  0  0  0  0  0  0  0  0  0  0
   -3.1465   -1.1755   -0.4580 H   0  0  0  0  0  0  0  0  0  0  0  0
   -0.5993   -1.0840    1.4673 H   0  0  0  0  0  0  0  0  0  0  0  0
   -0.8849   -3.0064   -0.2120 H   0  0  0  0  0  0  0  0  0  0  0  0
    0.8316   -2.8263    0.2077 H   0  0  0  0  0  0  0  0  0  0  0  0
    0.1618   -2.1297   -1.3431 H   0  0  0  0  0  0  0  0  0  0  0  0
  1  2  1  0
  2  3  1  0
  3  4  1  0
  4  5  1  0
  4  6  1  0
  6  7  1  0
  6  8  1  0
  8  9  1  0
  8  3  1  0
  1 10  1  0
  1 11  1  0
  1 12  1  0
  3 13  1  0
  4 14  1  0
  5 15  1  0
  5 16  1  0
  5 17  1  0
  6 18  1  0
  7 19  1  0
  8 20  1  0
  9 21  1  0
  9 22  1  0
  9 23  1  0
M  END
