
     RDKit          3D

 17 18  0  0  0  0  0  0  0  0999 V2000
    2.0733   -0.0118    0.4824 C   0  0  0  0  0  0  0  0  0  0  0  0
    0.8487    0.1152    1.0921 O   0  0  0  0  0  0  0  0  0  0  0  0
   -0.1392    0.1149    0.1330 C   0  0  0  0  0  0  0  0  0  0  0  0
   -0.0811    1.2044   -0.8987 C   0  0  0  0  0  0  0  0  0  0  0  0
   -1.4897   -0.1732    0.6991 C   0  0  0  0  0  0  0  0  0  0  0  0
   -0.9976   -1.4527    0.9499 O   0  0  0  0  0  0  0  0  0  0  0  0
   -0.5750   -1.2305   -0.3625 C   0  0  0  0  0  0  0  0  0  0  0  0
   -1.8790   -0.6766   -0.5975 C   0  0  0  0  0  0  0  0  0  0  0  0
   -2.7602   -0.6502   -1.3944 O   0  0  0  0  0  0  0  0  0  0  0  0
    2.1021   -0.9753   -0.0894 H   0  0  0  0  0  0  0  0  0  0  0  0
    2.9152   -0.0948    1.2155 H   0  0  0  0  0  0  0  0  0  0  0  0
    2.2808    0.8672   -0.1304 H   0  0  0  0  0  0  0  0  0  0  0  0
    0.8153    1.1563   -1.5195 H   0  0  0  0  0  0  0  0  0  0  0  0
   -0.9996    1.1121   -1.5225 H   0  0  0  0  0  0  0  0  0  0  0  0
   -0.0780    2.1818   -0.3385 H   0  0  0  0  0  0  0  0  0  0  0  0
   -2.0109    0.3888    1.3537 H   0  0  0  0  0  0  0  0  0  0  0  0
   -0.0253   -1.8756   -0.9081 H   0  0  0  0  0  0  0  0  0  0  0  0
  1  2  1  0
  2  3  1  0
  3  4  1  0
  3  5  1  0
  5  6  1  0
  6  7  1  0
  7  8  1  0
  8  9  2  0
  7  3  1  0
  8  5  1  0
  1 10  1  0
  1 11  1  0
  1 12  1  0
  4 13  1  0
  4 14  1  0
  4 15  1  0
  5 16  1  0
  7 17  1  0
M  END
