
     RDKit          3D

 23 24  0  0  0  0  0  0  0  0999 V2000
    2.6872    0.8236    0.3118 C   0  0  0  0  0  0  0  0  0  0  0  0
    1.5730    0.5145   -0.4608 O   0  0  0  0  0  0  0  0  0  0  0  0
    0.6026   -0.1785    0.2478 C   0  0  0  0  0  0  0  0  0  0  0  0
    0.4754   -1.5447   -0.4397 C   0  0  0  0  0  0  0  0  0  0  0  0
   -0.9713   -1.8998   -0.2309 C   0  0  0  0  0  0  0  0  0  0  0  0
   -1.6493   -0.5503   -0.3874 C   0  0  0  0  0  0  0  0  0  0  0  0
   -1.8993    0.1610    0.9016 C   0  0  0  0  0  0  0  0  0  0  0  0
   -0.7208    0.4909    0.0978 C   0  0  0  0  0  0  0  0  0  0  0  0
   -0.6995    1.8611   -0.5719 C   0  0  0  0  0  0  0  0  0  0  0  0
    2.3937    1.4525    1.1694 H   0  0  0  0  0  0  0  0  0  0  0  0
    3.4002    1.3450   -0.3758 H   0  0  0  0  0  0  0  0  0  0  0  0
    3.2377   -0.0958    0.6469 H   0  0  0  0  0  0  0  0  0  0  0  0
    0.8986   -0.3565    1.3017 H   0  0  0  0  0  0  0  0  0  0  0  0
    0.7428   -1.4611   -1.5144 H   0  0  0  0  0  0  0  0  0  0  0  0
    1.1540   -2.2755    0.0061 H   0  0  0  0  0  0  0  0  0  0  0  0
   -1.0524   -2.2699    0.8321 H   0  0  0  0  0  0  0  0  0  0  0  0
   -1.3460   -2.6506   -0.9407 H   0  0  0  0  0  0  0  0  0  0  0  0
   -2.2918   -0.4290   -1.2604 H   0  0  0  0  0  0  0  0  0  0  0  0
   -2.7275    0.8884    0.9015 H   0  0  0  0  0  0  0  0  0  0  0  0
   -1.8452   -0.4284    1.8486 H   0  0  0  0  0  0  0  0  0  0  0  0
   -0.8281    1.7813   -1.6487 H   0  0  0  0  0  0  0  0  0  0  0  0
   -1.4356    2.4985   -0.0537 H   0  0  0  0  0  0  0  0  0  0  0  0
    0.3018    2.3230   -0.3808 H   0  0  0  0  0  0  0  0  0  0  0  0
  1  2  1  0
  2  3  1  0
  3  4  1  0
  4  5  1  0
  5  6  1  0
  6  7  1  0
  7  8  1  0
  8  9  1  0
  8  3  1  0
  8  6  1  0
  1 10  1  0
  1 11  1  0
  1 12  1  0
  3 13  1  0
  4 14  1  0
  4 15  1  0
  5 16  1  0
  5 17  1  0
  6 18  1  0
  7 19  1  0
  7 20  1  0
  9 21  1  0
  9 22  1  0
  9 23  1  0
M  END
