
     RDKit          3D

 19 20  0  0  0  0  0  0  0  0999 V2000
    2.8175    0.2800   -0.4779 C   0  0  0  0  0  0  0  0  0  0  0  0
    1.5476   -0.2004   -0.8614 O   0  0  0  0  0  0  0  0  0  0  0  0
    0.6534    0.2470    0.0818 C   0  0  0  0  0  0  0  0  0  0  0  0
   -0.6577    0.7818   -0.4391 C   0  0  0  0  0  0  0  0  0  0  0  0
   -1.0015   -0.6395   -0.7707 C   0  0  0  0  0  0  0  0  0  0  0  0
   -2.3626   -0.9448   -0.7387 O   0  0  0  0  0  0  0  0  0  0  0  0
   -0.3537   -0.7362    0.5818 C   0  0  0  0  0  0  0  0  0  0  0  0
   -1.1759    0.4872    0.9356 C   0  0  0  0  0  0  0  0  0  0  0  0
   -2.5243    0.2628    1.0570 O   0  0  0  0  0  0  0  0  0  0  0  0
    2.8405    1.3856   -0.4348 H   0  0  0  0  0  0  0  0  0  0  0  0
    3.0100   -0.0668    0.5743 H   0  0  0  0  0  0  0  0  0  0  0  0
    3.6238   -0.1263   -1.0888 H   0  0  0  0  0  0  0  0  0  0  0  0
    1.0550    0.8513    0.9017 H   0  0  0  0  0  0  0  0  0  0  0  0
   -0.7989    1.5990   -0.9935 H   0  0  0  0  0  0  0  0  0  0  0  0
   -0.4651   -1.0994   -1.6115 H   0  0  0  0  0  0  0  0  0  0  0  0
   -2.5688   -1.7214   -1.3316 H   0  0  0  0  0  0  0  0  0  0  0  0
   -0.2200   -1.5455    1.1455 H   0  0  0  0  0  0  0  0  0  0  0  0
   -0.7175    1.1690    1.6737 H   0  0  0  0  0  0  0  0  0  0  0  0
   -2.7017    0.0164    2.0017 H   0  0  0  0  0  0  0  0  0  0  0  0
  1  2  1  0
  2  3  1  0
  3  4  1  0
  4  5  1  0
  5  6  1  0
  5  7  1  0
  7  8  1  0
  8  9  1  0
  7  3  1  0
  8  4  1  0
  1 10  1  0
  1 11  1  0
  1 12  1  0
  3 13  1  0
  4 14  1  0
  5 15  1  0
  6 16  1  0
  7 17  1  0
  8 18  1  0
  9 19  1  0
M  END
