
     RDKit          3D

 21 22  0  0  0  0  0  0  0  0999 V2000
   -2.4695    0.1784   -0.1659 C   0  0  0  0  0  0  0  0  0  0  0  0
   -1.4672   -0.3136   -0.9621 O   0  0  0  0  0  0  0  0  0  0  0  0
   -0.2842   -0.4700   -0.2072 C   0  0  0  0  0  0  0  0  0  0  0  0
   -0.5080   -1.3961    0.8734 C   0  0  0  0  0  0  0  0  0  0  0  0
    0.8572   -0.6723   -1.1825 C   0  0  0  0  0  0  0  0  0  0  0  0
    1.7009   -0.1238   -0.0688 C   0  0  0  0  0  0  0  0  0  0  0  0
    1.6775    1.1366    0.5996 C   0  0  0  0  0  0  0  0  0  0  0  0
    2.5965    2.0876    0.0753 O   0  0  0  0  0  0  0  0  0  0  0  0
    0.4311    0.8200    0.0086 C   0  0  0  0  0  0  0  0  0  0  0  0
   -2.1752    1.1762    0.2590 H   0  0  0  0  0  0  0  0  0  0  0  0
   -3.3547    0.3544   -0.8431 H   0  0  0  0  0  0  0  0  0  0  0  0
   -2.8393   -0.4912    0.6219 H   0  0  0  0  0  0  0  0  0  0  0  0
   -1.4544   -1.9666    0.7399 H   0  0  0  0  0  0  0  0  0  0  0  0
   -0.6619   -0.8281    1.8387 H   0  0  0  0  0  0  0  0  0  0  0  0
    0.2348   -2.1701    1.1064 H   0  0  0  0  0  0  0  0  0  0  0  0
    0.7430    0.0085   -2.0392 H   0  0  0  0  0  0  0  0  0  0  0  0
    1.0976   -1.6824   -1.4747 H   0  0  0  0  0  0  0  0  0  0  0  0
    1.7703   -0.9356    0.7088 H   0  0  0  0  0  0  0  0  0  0  0  0
    1.6497    1.2912    1.7244 H   0  0  0  0  0  0  0  0  0  0  0  0
    2.1498    2.5651   -0.6639 H   0  0  0  0  0  0  0  0  0  0  0  0
    0.3062    1.4319   -0.9487 H   0  0  0  0  0  0  0  0  0  0  0  0
  1  2  1  0
  2  3  1  0
  3  4  1  0
  3  5  1  0
  5  6  1  0
  6  7  1  0
  7  8  1  0
  7  9  1  0
  9  3  1  0
  9  6  1  0
  1 10  1  0
  1 11  1  0
  1 12  1  0
  4 13  1  0
  4 14  1  0
  4 15  1  0
  5 16  1  0
  5 17  1  0
  6 18  1  0
  7 19  1  0
  8 20  1  0
  9 21  1  0
M  END
