
     RDKit          3D

 21 22  0  0  0  0  0  0  0  0999 V2000
    2.9196    0.2268   -0.2113 C   0  0  0  0  0  0  0  0  0  0  0  0
    1.6226    0.6176   -0.5668 O   0  0  0  0  0  0  0  0  0  0  0  0
    0.7489   -0.2984   -0.0015 C   0  0  0  0  0  0  0  0  0  0  0  0
   -0.0396   -0.9436   -0.9555 O   0  0  0  0  0  0  0  0  0  0  0  0
   -0.9362   -1.6380   -0.1155 C   0  0  0  0  0  0  0  0  0  0  0  0
   -1.4772   -0.4955    0.7110 C   0  0  0  0  0  0  0  0  0  0  0  0
   -2.0403    0.5861   -0.1631 C   0  0  0  0  0  0  0  0  0  0  0  0
   -0.9861    1.5246    0.3763 C   0  0  0  0  0  0  0  0  0  0  0  0
   -0.2412    0.3418    0.9351 C   0  0  0  0  0  0  0  0  0  0  0  0
    2.9918    0.2345    0.9166 H   0  0  0  0  0  0  0  0  0  0  0  0
    3.6720    0.9704   -0.5470 H   0  0  0  0  0  0  0  0  0  0  0  0
    3.1515   -0.8062   -0.5161 H   0  0  0  0  0  0  0  0  0  0  0  0
    1.2751   -1.0865    0.5720 H   0  0  0  0  0  0  0  0  0  0  0  0
   -0.2870   -2.2860    0.5212 H   0  0  0  0  0  0  0  0  0  0  0  0
   -1.6962   -2.1818   -0.6692 H   0  0  0  0  0  0  0  0  0  0  0  0
   -2.0470   -0.7609    1.6034 H   0  0  0  0  0  0  0  0  0  0  0  0
   -3.0816    0.8371    0.0895 H   0  0  0  0  0  0  0  0  0  0  0  0
   -1.8537    0.4420   -1.2625 H   0  0  0  0  0  0  0  0  0  0  0  0
   -1.3730    2.1762    1.1871 H   0  0  0  0  0  0  0  0  0  0  0  0
   -0.4442    2.1231   -0.3802 H   0  0  0  0  0  0  0  0  0  0  0  0
    0.1217    0.4165    1.9572 H   0  0  0  0  0  0  0  0  0  0  0  0
  1  2  1  0
  2  3  1  0
  3  4  1  0
  4  5  1  0
  5  6  1  0
  6  7  1  0
  7  8  1  0
  8  9  1  0
  9  3  1  0
  9  6  1  0
  1 10  1  0
  1 11  1  0
  1 12  1  0
  3 13  1  0
  5 14  1  0
  5 15  1  0
  6 16  1  0
  7 17  1  0
  7 18  1  0
  8 19  1  0
  8 20  1  0
  9 21  1  0
M  END
