
     RDKit          3D

 21 21  0  0  0  0  0  0  0  0999 V2000
   -2.7078    0.7196    1.1670 C   0  0  0  0  0  0  0  0  0  0  0  0
   -2.1639   -0.1277    0.2179 O   0  0  0  0  0  0  0  0  0  0  0  0
   -0.8098    0.0034    0.0561 C   0  0  0  0  0  0  0  0  0  0  0  0
   -0.4113    0.3797   -1.3318 C   0  0  0  0  0  0  0  0  0  0  0  0
    0.8646    0.6373   -1.6582 C   0  0  0  0  0  0  0  0  0  0  0  0
    2.0886    0.6262   -0.8473 C   0  0  0  0  0  0  0  0  0  0  0  0
    2.2079   -0.4597    0.1316 C   0  0  0  0  0  0  0  0  0  0  0  0
    1.2908   -1.2304    0.6612 C   0  0  0  0  0  0  0  0  0  0  0  0
   -0.1504   -1.2905    0.4762 C   0  0  0  0  0  0  0  0  0  0  0  0
   -3.7982    0.5132    1.1984 H   0  0  0  0  0  0  0  0  0  0  0  0
   -2.6128    1.7965    0.8883 H   0  0  0  0  0  0  0  0  0  0  0  0
   -2.3100    0.5580    2.1831 H   0  0  0  0  0  0  0  0  0  0  0  0
   -0.4573    0.7919    0.7553 H   0  0  0  0  0  0  0  0  0  0  0  0
   -1.1681    0.4490   -2.1037 H   0  0  0  0  0  0  0  0  0  0  0  0
    0.9514    0.8954   -2.7279 H   0  0  0  0  0  0  0  0  0  0  0  0
    2.9441    0.4945   -1.5775 H   0  0  0  0  0  0  0  0  0  0  0  0
    2.2977    1.6345   -0.4014 H   0  0  0  0  0  0  0  0  0  0  0  0
    3.2557   -0.6398    0.4626 H   0  0  0  0  0  0  0  0  0  0  0  0
    1.7152   -1.9579    1.3753 H   0  0  0  0  0  0  0  0  0  0  0  0
   -0.6798   -1.7098    1.3832 H   0  0  0  0  0  0  0  0  0  0  0  0
   -0.3468   -2.0833   -0.3084 H   0  0  0  0  0  0  0  0  0  0  0  0
  1  2  1  0
  2  3  1  0
  3  4  1  0
  4  5  2  0
  5  6  1  0
  6  7  1  0
  7  8  2  0
  8  9  1  0
  9  3  1  0
  1 10  1  0
  1 11  1  0
  1 12  1  0
  3 13  1  0
  4 14  1  0
  5 15  1  0
  6 16  1  0
  6 17  1  0
  7 18  1  0
  8 19  1  0
  9 20  1  0
  9 21  1  0
M  END
