
     RDKit          3D

 21 22  0  0  0  0  0  0  0  0999 V2000
   -2.9876    1.3944   -0.0756 C   0  0  0  0  0  0  0  0  0  0  0  0
   -1.9946    0.8555    0.7321 O   0  0  0  0  0  0  0  0  0  0  0  0
   -0.9671    0.2736    0.0314 C   0  0  0  0  0  0  0  0  0  0  0  0
   -0.4081   -0.9696    0.6792 C   0  0  0  0  0  0  0  0  0  0  0  0
    0.1842   -1.9831   -0.2429 C   0  0  0  0  0  0  0  0  0  0  0  0
    1.4253   -1.3093   -0.7102 C   0  0  0  0  0  0  0  0  0  0  0  0
    1.5402   -0.0765   -0.2370 C   0  0  0  0  0  0  0  0  0  0  0  0
    2.7098    0.8285   -0.5582 C   0  0  0  0  0  0  0  0  0  0  0  0
    0.3956    0.2528    0.6134 C   0  0  0  0  0  0  0  0  0  0  0  0
   -3.3957    0.5574   -0.6813 H   0  0  0  0  0  0  0  0  0  0  0  0
   -2.6435    2.2493   -0.6815 H   0  0  0  0  0  0  0  0  0  0  0  0
   -3.8175    1.6994    0.6062 H   0  0  0  0  0  0  0  0  0  0  0  0
   -1.0620    0.3090   -1.0730 H   0  0  0  0  0  0  0  0  0  0  0  0
   -0.7686   -1.2732    1.6784 H   0  0  0  0  0  0  0  0  0  0  0  0
   -0.4789   -2.2862   -1.0754 H   0  0  0  0  0  0  0  0  0  0  0  0
    0.5142   -2.8496    0.3755 H   0  0  0  0  0  0  0  0  0  0  0  0
    2.1675   -1.7808   -1.3755 H   0  0  0  0  0  0  0  0  0  0  0  0
    3.5384    0.6773    0.1626 H   0  0  0  0  0  0  0  0  0  0  0  0
    2.3896    1.8959   -0.4267 H   0  0  0  0  0  0  0  0  0  0  0  0
    3.0907    0.6222   -1.5741 H   0  0  0  0  0  0  0  0  0  0  0  0
    0.5681    0.9132    1.4810 H   0  0  0  0  0  0  0  0  0  0  0  0
  1  2  1  0
  2  3  1  0
  3  4  1  0
  4  5  1  0
  5  6  1  0
  6  7  2  0
  7  8  1  0
  7  9  1  0
  9  3  1  0
  9  4  1  0
  1 10  1  0
  1 11  1  0
  1 12  1  0
  3 13  1  0
  4 14  1  0
  5 15  1  0
  5 16  1  0
  6 17  1  0
  8 18  1  0
  8 19  1  0
  8 20  1  0
  9 21  1  0
M  END
