
     RDKit          3D

 21 22  0  0  0  0  0  0  0  0999 V2000
    2.3139   -0.0755    1.6174 C   0  0  0  0  0  0  0  0  0  0  0  0
    1.0067    0.3663    1.3255 O   0  0  0  0  0  0  0  0  0  0  0  0
    0.8144    0.1795   -0.0155 C   0  0  0  0  0  0  0  0  0  0  0  0
    0.5003    1.5024   -0.7494 C   0  0  0  0  0  0  0  0  0  0  0  0
   -0.9734    1.5555   -0.5425 C   0  0  0  0  0  0  0  0  0  0  0  0
   -1.4998    0.3714   -0.3110 C   0  0  0  0  0  0  0  0  0  0  0  0
   -2.3707   -0.8051   -0.0302 C   0  0  0  0  0  0  0  0  0  0  0  0
   -1.1389   -1.3180    0.7581 C   0  0  0  0  0  0  0  0  0  0  0  0
   -0.3810   -0.6678   -0.3638 C   0  0  0  0  0  0  0  0  0  0  0  0
    2.3962   -1.1488    1.3483 H   0  0  0  0  0  0  0  0  0  0  0  0
    3.0477    0.5043    1.0144 H   0  0  0  0  0  0  0  0  0  0  0  0
    2.5318    0.0058    2.7078 H   0  0  0  0  0  0  0  0  0  0  0  0
    1.6827   -0.2556   -0.5516 H   0  0  0  0  0  0  0  0  0  0  0  0
    0.7916    1.4340   -1.8043 H   0  0  0  0  0  0  0  0  0  0  0  0
    1.0089    2.3318   -0.2005 H   0  0  0  0  0  0  0  0  0  0  0  0
   -1.5618    2.4741   -0.5773 H   0  0  0  0  0  0  0  0  0  0  0  0
   -3.2459   -0.6177    0.5875 H   0  0  0  0  0  0  0  0  0  0  0  0
   -2.4971   -1.4258   -0.9340 H   0  0  0  0  0  0  0  0  0  0  0  0
   -0.9938   -0.7773    1.6982 H   0  0  0  0  0  0  0  0  0  0  0  0
   -1.0978   -2.4215    0.8032 H   0  0  0  0  0  0  0  0  0  0  0  0
   -0.3341   -1.2121   -1.3102 H   0  0  0  0  0  0  0  0  0  0  0  0
  1  2  1  0
  2  3  1  0
  3  4  1  0
  4  5  1  0
  5  6  2  0
  6  7  1  0
  7  8  1  0
  8  9  1  0
  9  3  1  0
  9  6  1  0
  1 10  1  0
  1 11  1  0
  1 12  1  0
  3 13  1  0
  4 14  1  0
  4 15  1  0
  5 16  1  0
  7 17  1  0
  7 18  1  0
  8 19  1  0
  8 20  1  0
  9 21  1  0
M  END
