
     RDKit          3D

 21 21  0  0  0  0  0  0  0  0999 V2000
    2.1883   -0.3665    0.8385 C   0  0  0  0  0  0  0  0  0  0  0  0
    1.1715    0.5140    1.1876 O   0  0  0  0  0  0  0  0  0  0  0  0
    0.3790    0.7234    0.0597 C   0  0  0  0  0  0  0  0  0  0  0  0
    1.0673    1.3116   -1.0812 C   0  0  0  0  0  0  0  0  0  0  0  0
    0.5515    1.5638   -2.1632 O   0  0  0  0  0  0  0  0  0  0  0  0
   -1.0169    1.3042    0.2715 C   0  0  0  0  0  0  0  0  0  0  0  0
   -0.7985   -0.1461   -0.0381 C   0  0  0  0  0  0  0  0  0  0  0  0
   -1.2834   -0.7000   -1.3565 C   0  0  0  0  0  0  0  0  0  0  0  0
   -1.1129   -1.0559    1.1343 C   0  0  0  0  0  0  0  0  0  0  0  0
    2.8383    0.0036    0.0299 H   0  0  0  0  0  0  0  0  0  0  0  0
    2.8037   -0.6711    1.7099 H   0  0  0  0  0  0  0  0  0  0  0  0
    1.7583   -1.3350    0.4460 H   0  0  0  0  0  0  0  0  0  0  0  0
    2.1172    1.5637   -1.0168 H   0  0  0  0  0  0  0  0  0  0  0  0
   -1.1961    1.6301    1.3167 H   0  0  0  0  0  0  0  0  0  0  0  0
   -1.4454    1.9831   -0.4718 H   0  0  0  0  0  0  0  0  0  0  0  0
   -1.4261   -1.7902   -1.3057 H   0  0  0  0  0  0  0  0  0  0  0  0
   -0.5811   -0.5069   -2.1881 H   0  0  0  0  0  0  0  0  0  0  0  0
   -2.2639   -0.2610   -1.6668 H   0  0  0  0  0  0  0  0  0  0  0  0
   -2.2392   -1.1181    1.1681 H   0  0  0  0  0  0  0  0  0  0  0  0
   -0.6825   -2.0624    1.0196 H   0  0  0  0  0  0  0  0  0  0  0  0
   -0.8290   -0.5842    2.1062 H   0  0  0  0  0  0  0  0  0  0  0  0
  1  2  1  0
  2  3  1  0
  3  4  1  0
  4  5  2  0
  3  6  1  0
  6  7  1  0
  7  8  1  0
  7  9  1  0
  7  3  1  0
  1 10  1  0
  1 11  1  0
  1 12  1  0
  4 13  1  0
  6 14  1  0
  6 15  1  0
  8 16  1  0
  8 17  1  0
  8 18  1  0
  9 19  1  0
  9 20  1  0
  9 21  1  0
M  END
