
     RDKit          3D

 19 19  0  0  0  0  0  0  0  0999 V2000
    2.8868    0.6356    0.0059 C   0  0  0  0  0  0  0  0  0  0  0  0
    1.6665    0.3732   -0.6169 O   0  0  0  0  0  0  0  0  0  0  0  0
    0.8949   -0.4031    0.2098 C   0  0  0  0  0  0  0  0  0  0  0  0
    0.0107   -1.4336   -0.3978 C   0  0  0  0  0  0  0  0  0  0  0  0
   -0.6118   -0.1707    0.0711 C   0  0  0  0  0  0  0  0  0  0  0  0
   -1.2372   -0.0847    1.4099 C   0  0  0  0  0  0  0  0  0  0  0  0
   -0.9164   -0.8917    2.2489 O   0  0  0  0  0  0  0  0  0  0  0  0
   -0.9942    0.7348   -0.9197 O   0  0  0  0  0  0  0  0  0  0  0  0
   -2.3697    0.8072   -0.9715 C   0  0  0  0  0  0  0  0  0  0  0  0
    3.4193   -0.3273    0.2173 H   0  0  0  0  0  0  0  0  0  0  0  0
    3.5717    1.1945   -0.6862 H   0  0  0  0  0  0  0  0  0  0  0  0
    2.7650    1.1868    0.9637 H   0  0  0  0  0  0  0  0  0  0  0  0
    1.3206   -0.6903    1.1844 H   0  0  0  0  0  0  0  0  0  0  0  0
    0.0984   -1.5797   -1.4847 H   0  0  0  0  0  0  0  0  0  0  0  0
   -0.2279   -2.3745    0.1473 H   0  0  0  0  0  0  0  0  0  0  0  0
   -1.9486    0.6635    1.6350 H   0  0  0  0  0  0  0  0  0  0  0  0
   -2.7972    1.1626   -0.0302 H   0  0  0  0  0  0  0  0  0  0  0  0
   -2.8161   -0.2187   -1.1351 H   0  0  0  0  0  0  0  0  0  0  0  0
   -2.7148    1.4161   -1.8512 H   0  0  0  0  0  0  0  0  0  0  0  0
  1  2  1  0
  2  3  1  0
  3  4  1  0
  4  5  1  0
  5  6  1  0
  6  7  2  0
  5  8  1  0
  8  9  1  0
  5  3  1  0
  1 10  1  0
  1 11  1  0
  1 12  1  0
  3 13  1  0
  4 14  1  0
  4 15  1  0
  6 16  1  0
  9 17  1  0
  9 18  1  0
  9 19  1  0
M  END
