
     RDKit          3D

 23 23  0  0  0  0  0  0  0  0999 V2000
    2.9361   -0.8490    0.1537 C   0  0  0  0  0  0  0  0  0  0  0  0
    1.7905   -0.3363   -0.4191 O   0  0  0  0  0  0  0  0  0  0  0  0
    0.9091    0.1628    0.5288 C   0  0  0  0  0  0  0  0  0  0  0  0
    0.0334    1.2586    0.0563 C   0  0  0  0  0  0  0  0  0  0  0  0
    0.2258    1.7955   -1.3580 C   0  0  0  0  0  0  0  0  0  0  0  0
   -0.5957   -0.0480    0.2926 C   0  0  0  0  0  0  0  0  0  0  0  0
   -1.4209   -0.1681    1.5792 C   0  0  0  0  0  0  0  0  0  0  0  0
   -0.8596   -0.9710   -0.6658 O   0  0  0  0  0  0  0  0  0  0  0  0
   -2.1723   -1.2140   -0.9330 C   0  0  0  0  0  0  0  0  0  0  0  0
    2.7016   -1.6797    0.8504 H   0  0  0  0  0  0  0  0  0  0  0  0
    3.4779   -0.0128    0.6596 H   0  0  0  0  0  0  0  0  0  0  0  0
    3.5433   -1.2938   -0.6758 H   0  0  0  0  0  0  0  0  0  0  0  0
    1.2575    0.0715    1.5587 H   0  0  0  0  0  0  0  0  0  0  0  0
   -0.1582    2.0671    0.7820 H   0  0  0  0  0  0  0  0  0  0  0  0
   -0.7658    2.1269   -1.7438 H   0  0  0  0  0  0  0  0  0  0  0  0
    0.9118    2.6685   -1.2531 H   0  0  0  0  0  0  0  0  0  0  0  0
    0.6254    1.0243   -2.0391 H   0  0  0  0  0  0  0  0  0  0  0  0
   -1.1401   -1.1253    2.0959 H   0  0  0  0  0  0  0  0  0  0  0  0
   -1.1542    0.6868    2.2632 H   0  0  0  0  0  0  0  0  0  0  0  0
   -2.4805   -0.1659    1.3285 H   0  0  0  0  0  0  0  0  0  0  0  0
   -2.7531   -0.3394   -1.2815 H   0  0  0  0  0  0  0  0  0  0  0  0
   -2.2192   -2.0094   -1.7245 H   0  0  0  0  0  0  0  0  0  0  0  0
   -2.6929   -1.6493   -0.0552 H   0  0  0  0  0  0  0  0  0  0  0  0
  1  2  1  0
  2  3  1  0
  3  4  1  0
  4  5  1  0
  4  6  1  0
  6  7  1  0
  6  8  1  0
  8  9  1  0
  6  3  1  0
  1 10  1  0
  1 11  1  0
  1 12  1  0
  3 13  1  0
  4 14  1  0
  5 15  1  0
  5 16  1  0
  5 17  1  0
  7 18  1  0
  7 19  1  0
  7 20  1  0
  9 21  1  0
  9 22  1  0
  9 23  1  0
M  END
