
     RDKit          3D

 19 19  0  0  0  0  0  0  0  0999 V2000
   -2.8694    0.9565    0.5770 C   0  0  0  0  0  0  0  0  0  0  0  0
   -1.7189    0.7396   -0.1768 O   0  0  0  0  0  0  0  0  0  0  0  0
   -1.0232   -0.2869    0.4339 C   0  0  0  0  0  0  0  0  0  0  0  0
   -0.5341   -1.3550   -0.5787 C   0  0  0  0  0  0  0  0  0  0  0  0
    0.4210   -0.4991    0.1962 C   0  0  0  0  0  0  0  0  0  0  0  0
    1.2035    0.4402   -0.6338 C   0  0  0  0  0  0  0  0  0  0  0  0
    0.6508    1.0553   -1.5537 O   0  0  0  0  0  0  0  0  0  0  0  0
    2.6502    0.6298   -0.3463 C   0  0  0  0  0  0  0  0  0  0  0  0
    3.0261   -0.1568    0.7132 O   0  0  0  0  0  0  0  0  0  0  0  0
   -3.4334   -0.0167    0.5558 H   0  0  0  0  0  0  0  0  0  0  0  0
   -3.4830    1.7964    0.1991 H   0  0  0  0  0  0  0  0  0  0  0  0
   -2.5464    1.0809    1.6274 H   0  0  0  0  0  0  0  0  0  0  0  0
   -1.4551   -0.7336    1.3461 H   0  0  0  0  0  0  0  0  0  0  0  0
   -0.6804   -1.1668   -1.6424 H   0  0  0  0  0  0  0  0  0  0  0  0
   -0.6753   -2.4209   -0.2970 H   0  0  0  0  0  0  0  0  0  0  0  0
    0.9771   -1.0167    1.0024 H   0  0  0  0  0  0  0  0  0  0  0  0
    2.8978    1.7035   -0.2021 H   0  0  0  0  0  0  0  0  0  0  0  0
    3.1924    0.2627   -1.2646 H   0  0  0  0  0  0  0  0  0  0  0  0
    3.4002   -1.0123    0.3887 H   0  0  0  0  0  0  0  0  0  0  0  0
  1  2  1  0
  2  3  1  0
  3  4  1  0
  4  5  1  0
  5  6  1  0
  6  7  2  0
  6  8  1  0
  8  9  1  0
  5  3  1  0
  1 10  1  0
  1 11  1  0
  1 12  1  0
  3 13  1  0
  4 14  1  0
  4 15  1  0
  5 16  1  0
  8 17  1  0
  8 18  1  0
  9 19  1  0
M  END
