
     RDKit          3D

 17 19  0  0  0  0  0  0  0  0999 V2000
    2.5987    0.1889    0.5667 C   0  0  0  0  0  0  0  0  0  0  0  0
    1.5359   -0.6822    0.3566 O   0  0  0  0  0  0  0  0  0  0  0  0
    0.3781   -0.0085    0.0180 C   0  0  0  0  0  0  0  0  0  0  0  0
   -0.4471   -0.6206   -1.0691 C   0  0  0  0  0  0  0  0  0  0  0  0
   -0.8588   -1.5851   -0.1197 O   0  0  0  0  0  0  0  0  0  0  0  0
   -0.7796   -0.5240    0.8117 C   0  0  0  0  0  0  0  0  0  0  0  0
   -1.9748    0.2968    0.3716 C   0  0  0  0  0  0  0  0  0  0  0  0
   -1.7726    1.3995   -0.4053 O   0  0  0  0  0  0  0  0  0  0  0  0
   -1.6714    0.2487   -1.1433 C   0  0  0  0  0  0  0  0  0  0  0  0
    2.8423    0.7978   -0.3238 H   0  0  0  0  0  0  0  0  0  0  0  0
    2.2951    0.9068    1.3698 H   0  0  0  0  0  0  0  0  0  0  0  0
    3.4601   -0.3943    0.9451 H   0  0  0  0  0  0  0  0  0  0  0  0
    0.4962    1.0928   -0.0265 H   0  0  0  0  0  0  0  0  0  0  0  0
    0.0111   -0.9741   -1.9633 H   0  0  0  0  0  0  0  0  0  0  0  0
   -0.6699   -0.7723    1.8373 H   0  0  0  0  0  0  0  0  0  0  0  0
   -2.9588   -0.1051    0.6052 H   0  0  0  0  0  0  0  0  0  0  0  0
   -2.4846    0.0458   -1.8311 H   0  0  0  0  0  0  0  0  0  0  0  0
  1  2  1  0
  2  3  1  0
  3  4  1  0
  4  5  1  0
  5  6  1  0
  6  7  1  0
  7  8  1  0
  8  9  1  0
  6  3  1  0
  9  7  1  0
  9  4  1  0
  1 10  1  0
  1 11  1  0
  1 12  1  0
  3 13  1  0
  4 14  1  0
  6 15  1  0
  7 16  1  0
  9 17  1  0
M  END
