
     RDKit          3D

 21 21  0  0  0  0  0  0  0  0999 V2000
    3.4123    0.3356   -0.3805 C   0  0  0  0  0  0  0  0  0  0  0  0
    2.1279    0.7751   -0.1006 O   0  0  0  0  0  0  0  0  0  0  0  0
    1.1659   -0.2011   -0.2615 C   0  0  0  0  0  0  0  0  0  0  0  0
    0.4936   -0.5407    1.0223 C   0  0  0  0  0  0  0  0  0  0  0  0
   -0.7700   -0.2675    1.2749 C   0  0  0  0  0  0  0  0  0  0  0  0
   -1.5147    0.4124    0.1942 C   0  0  0  0  0  0  0  0  0  0  0  0
   -2.9999    0.2719    0.3122 C   0  0  0  0  0  0  0  0  0  0  0  0
   -0.9901   -0.2051   -1.1079 C   0  0  0  0  0  0  0  0  0  0  0  0
    0.3111    0.1722   -1.2570 O   0  0  0  0  0  0  0  0  0  0  0  0
    3.6672   -0.5051    0.3033 H   0  0  0  0  0  0  0  0  0  0  0  0
    4.0934    1.1983   -0.1625 H   0  0  0  0  0  0  0  0  0  0  0  0
    3.5565    0.0081   -1.4151 H   0  0  0  0  0  0  0  0  0  0  0  0
    1.6948   -1.1314   -0.5895 H   0  0  0  0  0  0  0  0  0  0  0  0
    1.1293   -1.0460    1.7670 H   0  0  0  0  0  0  0  0  0  0  0  0
   -1.2167   -0.5286    2.2119 H   0  0  0  0  0  0  0  0  0  0  0  0
   -1.2536    1.4986    0.2297 H   0  0  0  0  0  0  0  0  0  0  0  0
   -3.4683    1.2137   -0.0882 H   0  0  0  0  0  0  0  0  0  0  0  0
   -3.3359    0.1541    1.3486 H   0  0  0  0  0  0  0  0  0  0  0  0
   -3.3716   -0.5693   -0.3398 H   0  0  0  0  0  0  0  0  0  0  0  0
   -1.5819    0.2556   -1.9296 H   0  0  0  0  0  0  0  0  0  0  0  0
   -1.1494   -1.3008   -1.0319 H   0  0  0  0  0  0  0  0  0  0  0  0
  1  2  1  0
  2  3  1  0
  3  4  1  0
  4  5  2  0
  5  6  1  0
  6  7  1  0
  6  8  1  0
  8  9  1  0
  9  3  1  0
  1 10  1  0
  1 11  1  0
  1 12  1  0
  3 13  1  0
  4 14  1  0
  5 15  1  0
  6 16  1  0
  7 17  1  0
  7 18  1  0
  7 19  1  0
  8 20  1  0
  8 21  1  0
M  END
