
     RDKit          3D

 19 20  0  0  0  0  0  0  0  0999 V2000
    2.6473    0.2856    0.1905 C   0  0  0  0  0  0  0  0  0  0  0  0
    1.6204   -0.6367    0.1159 O   0  0  0  0  0  0  0  0  0  0  0  0
    0.4152    0.0145    0.0844 C   0  0  0  0  0  0  0  0  0  0  0  0
   -0.6024   -0.4791   -0.9019 C   0  0  0  0  0  0  0  0  0  0  0  0
   -0.7545   -1.6822   -0.0094 C   0  0  0  0  0  0  0  0  0  0  0  0
   -0.6782   -0.5329    0.9520 C   0  0  0  0  0  0  0  0  0  0  0  0
   -1.6234    0.1611   -0.0064 C   0  0  0  0  0  0  0  0  0  0  0  0
   -1.5956    1.6248    0.0299 C   0  0  0  0  0  0  0  0  0  0  0  0
   -1.8919    2.2702   -0.9571 O   0  0  0  0  0  0  0  0  0  0  0  0
    3.6159   -0.2898    0.2141 H   0  0  0  0  0  0  0  0  0  0  0  0
    2.6303    0.9224    1.0755 H   0  0  0  0  0  0  0  0  0  0  0  0
    2.6605    0.8430   -0.7656 H   0  0  0  0  0  0  0  0  0  0  0  0
    0.5115    1.1204    0.1244 H   0  0  0  0  0  0  0  0  0  0  0  0
   -0.5583   -0.4604   -1.8978 H   0  0  0  0  0  0  0  0  0  0  0  0
   -1.7860   -2.0721   -0.0538 H   0  0  0  0  0  0  0  0  0  0  0  0
    0.0602   -2.3977   -0.0127 H   0  0  0  0  0  0  0  0  0  0  0  0
   -0.7382   -0.5478    1.9445 H   0  0  0  0  0  0  0  0  0  0  0  0
   -2.6187   -0.3061   -0.1158 H   0  0  0  0  0  0  0  0  0  0  0  0
   -1.3142    2.1627    0.9250 H   0  0  0  0  0  0  0  0  0  0  0  0
  1  2  1  0
  2  3  1  0
  3  4  1  0
  4  5  1  0
  5  6  1  0
  6  7  1  0
  7  8  1  0
  8  9  2  0
  6  3  1  0
  7  4  1  0
  1 10  1  0
  1 11  1  0
  1 12  1  0
  3 13  1  0
  4 14  1  0
  5 15  1  0
  5 16  1  0
  6 17  1  0
  7 18  1  0
  8 19  1  0
M  END
