
     RDKit          3D

 19 20  0  0  0  0  0  0  0  0999 V2000
    2.6003    0.4295    0.3970 C   0  0  0  0  0  0  0  0  0  0  0  0
    1.5737   -0.4900    0.5952 O   0  0  0  0  0  0  0  0  0  0  0  0
    0.8067   -0.5217   -0.5532 C   0  0  0  0  0  0  0  0  0  0  0  0
    0.0051   -1.7023   -0.9382 C   0  0  0  0  0  0  0  0  0  0  0  0
   -0.6937   -0.6255   -0.2745 C   0  0  0  0  0  0  0  0  0  0  0  0
   -1.5132    0.3954   -0.9044 C   0  0  0  0  0  0  0  0  0  0  0  0
   -2.0861    1.0889    0.0720 C   0  0  0  0  0  0  0  0  0  0  0  0
   -1.6382    0.5171    1.3942 C   0  0  0  0  0  0  0  0  0  0  0  0
   -1.1151   -0.7252    1.0437 O   0  0  0  0  0  0  0  0  0  0  0  0
    3.1895    0.0800   -0.4711 H   0  0  0  0  0  0  0  0  0  0  0  0
    2.1960    1.4437    0.1256 H   0  0  0  0  0  0  0  0  0  0  0  0
    3.1909    0.4628    1.3313 H   0  0  0  0  0  0  0  0  0  0  0  0
    1.1009    0.1478   -1.4135 H   0  0  0  0  0  0  0  0  0  0  0  0
   -0.1195   -1.9514   -2.0199 H   0  0  0  0  0  0  0  0  0  0  0  0
    0.1632   -2.6465   -0.3379 H   0  0  0  0  0  0  0  0  0  0  0  0
   -1.6717    0.6059   -1.9485 H   0  0  0  0  0  0  0  0  0  0  0  0
   -2.7670    1.9306    0.0031 H   0  0  0  0  0  0  0  0  0  0  0  0
   -2.4498    0.4443    2.1156 H   0  0  0  0  0  0  0  0  0  0  0  0
   -0.7720    1.1167    1.7835 H   0  0  0  0  0  0  0  0  0  0  0  0
  1  2  1  0
  2  3  1  0
  3  4  1  0
  4  5  1  0
  5  6  1  0
  6  7  2  0
  7  8  1  0
  8  9  1  0
  5  3  1  0
  9  5  1  0
  1 10  1  0
  1 11  1  0
  1 12  1  0
  3 13  1  0
  4 14  1  0
  4 15  1  0
  6 16  1  0
  7 17  1  0
  8 18  1  0
  8 19  1  0
M  END
