
     RDKit          3D

 18 19  0  0  0  0  0  0  0  0999 V2000
    2.4993   -0.0636   -0.3085 C   0  0  0  0  0  0  0  0  0  0  0  0
    1.3006    0.2993   -0.8581 O   0  0  0  0  0  0  0  0  0  0  0  0
    0.2747    0.4928    0.0089 C   0  0  0  0  0  0  0  0  0  0  0  0
   -0.2034   -0.6397    0.9103 C   0  0  0  0  0  0  0  0  0  0  0  0
   -1.3841   -0.7973   -0.0140 C   0  0  0  0  0  0  0  0  0  0  0  0
   -2.6098   -0.9658    0.5880 O   0  0  0  0  0  0  0  0  0  0  0  0
   -1.1127    0.5036   -0.6776 C   0  0  0  0  0  0  0  0  0  0  0  0
   -0.5961    1.6852    0.0178 C   0  0  0  0  0  0  0  0  0  0  0  0
    2.4522   -1.0230    0.2620 H   0  0  0  0  0  0  0  0  0  0  0  0
    3.2052   -0.2651   -1.1659 H   0  0  0  0  0  0  0  0  0  0  0  0
    2.9821    0.7493    0.2731 H   0  0  0  0  0  0  0  0  0  0  0  0
    0.4694   -1.4897    0.9983 H   0  0  0  0  0  0  0  0  0  0  0  0
   -0.4716   -0.1885    1.9022 H   0  0  0  0  0  0  0  0  0  0  0  0
   -1.1821   -1.6713   -0.6985 H   0  0  0  0  0  0  0  0  0  0  0  0
   -3.1610   -1.6714    0.1228 H   0  0  0  0  0  0  0  0  0  0  0  0
   -1.1534    0.5117   -1.7620 H   0  0  0  0  0  0  0  0  0  0  0  0
   -1.0369    2.0031    1.0059 H   0  0  0  0  0  0  0  0  0  0  0  0
   -0.2724    2.5303   -0.6046 H   0  0  0  0  0  0  0  0  0  0  0  0
  1  2  1  0
  2  3  1  0
  3  4  1  0
  4  5  1  0
  5  6  1  0
  5  7  1  0
  7  8  1  0
  7  3  1  0
  8  3  1  0
  1  9  1  0
  1 10  1  0
  1 11  1  0
  4 12  1  0
  4 13  1  0
  5 14  1  0
  6 15  1  0
  7 16  1  0
  8 17  1  0
  8 18  1  0
M  END
