
     RDKit          2D

 19 21  0  0  0  0  0  0  0  0999 V2000
   -4.0951   -0.4001    0.0000 C   0  0  0  0  0  0  0  0  0  0  0  0
   -2.8883   -1.2909    0.0000 O   0  0  0  0  0  0  0  0  0  0  0  0
   -1.5133   -0.6913    0.0000 C   0  0  0  0  0  0  0  0  0  0  0  0
   -1.0607   -2.1213    0.0000 C   0  0  0  0  0  0  0  0  0  0  0  0
   -2.1213   -1.0607    0.0000 C   0  0  0  0  0  0  0  0  0  0  0  0
   -1.0607    0.0000    0.0000 C   0  0  0  0  0  0  0  0  0  0  0  0
   -0.0000   -1.0607    0.0000 C   0  0  0  0  0  0  0  0  0  0  0  0
    1.0607    0.0000    0.0000 O   0  0  0  0  0  0  0  0  0  0  0  0
    0.0000    1.0607    0.0000 C   0  0  0  0  0  0  0  0  0  0  0  0
   -5.3018    0.4908    0.0000 H   0  0  0  0  0  0  0  0  0  0  0  0
   -3.4980    0.6581    0.0000 H   0  0  0  0  0  0  0  0  0  0  0  0
   -4.9859   -1.6069    0.0000 H   0  0  0  0  0  0  0  0  0  0  0  0
   -2.0997    0.0992    0.0000 H   0  0  0  0  0  0  0  0  0  0  0  0
   -1.0607   -3.6213    0.0000 H   0  0  0  0  0  0  0  0  0  0  0  0
   -2.6121   -0.4325    0.0000 H   0  0  0  0  0  0  0  0  0  0  0  0
   -3.4071   -1.8331    0.0000 H   0  0  0  0  0  0  0  0  0  0  0  0
   -1.9841    1.1820    0.0000 H   0  0  0  0  0  0  0  0  0  0  0  0
    1.0607   -2.1213    0.0000 H   0  0  0  0  0  0  0  0  0  0  0  0
    0.0000    2.5607    0.0000 H   0  0  0  0  0  0  0  0  0  0  0  0
  1  2  1  0
  2  3  1  0
  3  4  1  0
  4  5  1  0
  5  6  1  0
  6  7  1  0
  7  8  1  0
  8  9  1  0
  9  3  1  0
  7  4  1  0
  9  6  1  0
  1 10  1  0
  1 11  1  0
  1 12  1  0
  3 13  1  0
  4 14  1  0
  5 15  1  0
  5 16  1  0
  6 17  1  0
  7 18  1  0
  9 19  1  0
M  END
