
     RDKit          3D

 23 23  0  0  0  0  0  0  0  0999 V2000
   -3.3359    0.0171    0.0806 C   0  0  0  0  0  0  0  0  0  0  0  0
   -2.2185    0.1984   -0.7686 O   0  0  0  0  0  0  0  0  0  0  0  0
   -1.1072    0.1644    0.0333 C   0  0  0  0  0  0  0  0  0  0  0  0
   -0.2524    1.4148   -0.2206 C   0  0  0  0  0  0  0  0  0  0  0  0
    0.9543    0.5055    0.0388 C   0  0  0  0  0  0  0  0  0  0  0  0
    2.0237    0.7099   -0.7931 O   0  0  0  0  0  0  0  0  0  0  0  0
    3.2395    0.7366   -0.0791 C   0  0  0  0  0  0  0  0  0  0  0  0
    0.0705   -0.6344   -0.4901 C   0  0  0  0  0  0  0  0  0  0  0  0
    0.3049   -1.9509    0.2079 C   0  0  0  0  0  0  0  0  0  0  0  0
   -3.1662   -0.9829    0.5551 H   0  0  0  0  0  0  0  0  0  0  0  0
   -3.3382    0.8126    0.8619 H   0  0  0  0  0  0  0  0  0  0  0  0
   -4.2253    0.0075   -0.5504 H   0  0  0  0  0  0  0  0  0  0  0  0
   -1.2720    0.0133    1.1139 H   0  0  0  0  0  0  0  0  0  0  0  0
   -0.3896    2.2208    0.4962 H   0  0  0  0  0  0  0  0  0  0  0  0
   -0.2510    1.6905   -1.2859 H   0  0  0  0  0  0  0  0  0  0  0  0
    1.1700    0.3920    1.1193 H   0  0  0  0  0  0  0  0  0  0  0  0
    3.3381   -0.2372    0.4197 H   0  0  0  0  0  0  0  0  0  0  0  0
    4.0373    0.8675   -0.8401 H   0  0  0  0  0  0  0  0  0  0  0  0
    3.2753    1.6012    0.6178 H   0  0  0  0  0  0  0  0  0  0  0  0
    0.1014   -0.6865   -1.5974 H   0  0  0  0  0  0  0  0  0  0  0  0
   -0.6909   -2.4077    0.4079 H   0  0  0  0  0  0  0  0  0  0  0  0
    0.8615   -1.8229    1.1610 H   0  0  0  0  0  0  0  0  0  0  0  0
    0.8707   -2.6296   -0.4882 H   0  0  0  0  0  0  0  0  0  0  0  0
  1  2  1  0
  2  3  1  0
  3  4  1  0
  4  5  1  0
  5  6  1  0
  6  7  1  0
  5  8  1  0
  8  9  1  0
  8  3  1  0
  1 10  1  0
  1 11  1  0
  1 12  1  0
  3 13  1  0
  4 14  1  0
  4 15  1  0
  5 16  1  0
  7 17  1  0
  7 18  1  0
  7 19  1  0
  8 20  1  0
  9 21  1  0
  9 22  1  0
  9 23  1  0
M  END
