
     RDKit          3D

 19 20  0  0  0  0  0  0  0  0999 V2000
    2.0415    0.8296   -0.2290 C   0  0  0  0  0  0  0  0  0  0  0  0
    0.9648    0.1593   -0.7725 O   0  0  0  0  0  0  0  0  0  0  0  0
    0.2036   -0.5305    0.1468 C   0  0  0  0  0  0  0  0  0  0  0  0
    0.9351   -1.5625    0.8827 C   0  0  0  0  0  0  0  0  0  0  0  0
    0.4519   -2.2810    1.7348 O   0  0  0  0  0  0  0  0  0  0  0  0
   -1.0855   -1.0053   -0.5230 C   0  0  0  0  0  0  0  0  0  0  0  0
   -1.8625    0.1375    0.0140 C   0  0  0  0  0  0  0  0  0  0  0  0
   -1.2931    1.4752    0.2609 C   0  0  0  0  0  0  0  0  0  0  0  0
   -0.6848    0.3642    0.9947 C   0  0  0  0  0  0  0  0  0  0  0  0
    2.7364    0.1439    0.2776 H   0  0  0  0  0  0  0  0  0  0  0  0
    2.5972    1.2989   -1.0603 H   0  0  0  0  0  0  0  0  0  0  0  0
    1.6403    1.5669    0.4944 H   0  0  0  0  0  0  0  0  0  0  0  0
    1.9809   -1.7103    0.6661 H   0  0  0  0  0  0  0  0  0  0  0  0
   -1.3928   -1.9581   -0.0108 H   0  0  0  0  0  0  0  0  0  0  0  0
   -0.9955   -1.1146   -1.6061 H   0  0  0  0  0  0  0  0  0  0  0  0
   -2.8471   -0.0834    0.4483 H   0  0  0  0  0  0  0  0  0  0  0  0
   -0.6401    1.9518   -0.5218 H   0  0  0  0  0  0  0  0  0  0  0  0
   -1.8939    2.1895    0.8170 H   0  0  0  0  0  0  0  0  0  0  0  0
   -0.8566    0.1288    2.0405 H   0  0  0  0  0  0  0  0  0  0  0  0
  1  2  1  0
  2  3  1  0
  3  4  1  0
  4  5  2  0
  3  6  1  0
  6  7  1  0
  7  8  1  0
  8  9  1  0
  9  3  1  0
  9  7  1  0
  1 10  1  0
  1 11  1  0
  1 12  1  0
  4 13  1  0
  6 14  1  0
  6 15  1  0
  7 16  1  0
  8 17  1  0
  8 18  1  0
  9 19  1  0
M  END
