
     RDKit          3D

 23 24  0  0  0  0  0  0  0  0999 V2000
    1.9932   -0.1643   -1.2702 C   0  0  0  0  0  0  0  0  0  0  0  0
    0.6029   -0.1287   -1.3930 O   0  0  0  0  0  0  0  0  0  0  0  0
    0.0898    0.4844   -0.2799 C   0  0  0  0  0  0  0  0  0  0  0  0
    0.5827    1.8813   -0.1061 C   0  0  0  0  0  0  0  0  0  0  0  0
    0.1863   -0.4168    0.9252 C   0  0  0  0  0  0  0  0  0  0  0  0
   -0.4148   -1.6913    0.3716 C   0  0  0  0  0  0  0  0  0  0  0  0
   -1.6561   -1.0874   -0.3178 C   0  0  0  0  0  0  0  0  0  0  0  0
   -1.3903    0.3589   -0.0522 C   0  0  0  0  0  0  0  0  0  0  0  0
   -1.0434    0.2936    1.4434 C   0  0  0  0  0  0  0  0  0  0  0  0
    2.3041   -0.7365   -0.3550 H   0  0  0  0  0  0  0  0  0  0  0  0
    2.4086   -0.7538   -2.1285 H   0  0  0  0  0  0  0  0  0  0  0  0
    2.4428    0.8411   -1.2044 H   0  0  0  0  0  0  0  0  0  0  0  0
    0.6059    2.3603   -1.1071 H   0  0  0  0  0  0  0  0  0  0  0  0
    1.6064    1.9581    0.3014 H   0  0  0  0  0  0  0  0  0  0  0  0
   -0.0604    2.5174    0.5314 H   0  0  0  0  0  0  0  0  0  0  0  0
    1.0666   -0.4498    1.5037 H   0  0  0  0  0  0  0  0  0  0  0  0
   -0.6980   -2.4130    1.1407 H   0  0  0  0  0  0  0  0  0  0  0  0
    0.2364   -2.0679   -0.4201 H   0  0  0  0  0  0  0  0  0  0  0  0
   -2.5383   -1.3991    0.2522 H   0  0  0  0  0  0  0  0  0  0  0  0
   -1.6772   -1.3538   -1.3863 H   0  0  0  0  0  0  0  0  0  0  0  0
   -2.0529    1.1135   -0.3732 H   0  0  0  0  0  0  0  0  0  0  0  0
   -0.8920    1.2489    1.9271 H   0  0  0  0  0  0  0  0  0  0  0  0
   -1.7023   -0.3953    1.9972 H   0  0  0  0  0  0  0  0  0  0  0  0
  1  2  1  0
  2  3  1  0
  3  4  1  0
  3  5  1  0
  5  6  1  0
  6  7  1  0
  7  8  1  0
  8  9  1  0
  8  3  1  0
  9  5  1  0
  1 10  1  0
  1 11  1  0
  1 12  1  0
  4 13  1  0
  4 14  1  0
  4 15  1  0
  5 16  1  0
  6 17  1  0
  6 18  1  0
  7 19  1  0
  7 20  1  0
  8 21  1  0
  9 22  1  0
  9 23  1  0
M  END
