
     RDKit          3D

 21 22  0  0  0  0  0  0  0  0999 V2000
    3.2964    0.5347   -0.4089 C   0  0  0  0  0  0  0  0  0  0  0  0
    1.9524    0.9130   -0.4356 O   0  0  0  0  0  0  0  0  0  0  0  0
    1.1910   -0.1457    0.0489 C   0  0  0  0  0  0  0  0  0  0  0  0
    0.2901    0.3015    1.1842 C   0  0  0  0  0  0  0  0  0  0  0  0
   -0.8143   -0.5128    0.5429 C   0  0  0  0  0  0  0  0  0  0  0  0
   -2.1275    0.2151    0.5944 C   0  0  0  0  0  0  0  0  0  0  0  0
   -3.3654   -0.3188    0.0576 C   0  0  0  0  0  0  0  0  0  0  0  0
   -2.6377    0.6953   -0.6403 O   0  0  0  0  0  0  0  0  0  0  0  0
   -0.0672   -0.4155   -0.7536 C   0  0  0  0  0  0  0  0  0  0  0  0
    3.9502    1.3461   -0.7867 H   0  0  0  0  0  0  0  0  0  0  0  0
    3.6509    0.3197    0.6299 H   0  0  0  0  0  0  0  0  0  0  0  0
    3.3805   -0.4051   -0.9784 H   0  0  0  0  0  0  0  0  0  0  0  0
    1.7489   -1.0458    0.3517 H   0  0  0  0  0  0  0  0  0  0  0  0
    0.0614    1.3861    1.1136 H   0  0  0  0  0  0  0  0  0  0  0  0
    0.5972   -0.0633    2.1829 H   0  0  0  0  0  0  0  0  0  0  0  0
   -0.8223   -1.5497    0.9351 H   0  0  0  0  0  0  0  0  0  0  0  0
   -2.2198    0.9267    1.4554 H   0  0  0  0  0  0  0  0  0  0  0  0
   -3.4629   -1.2448   -0.5194 H   0  0  0  0  0  0  0  0  0  0  0  0
   -4.3324    0.0091    0.5165 H   0  0  0  0  0  0  0  0  0  0  0  0
   -0.3355    0.4398   -1.3941 H   0  0  0  0  0  0  0  0  0  0  0  0
    0.0659   -1.3854   -1.2977 H   0  0  0  0  0  0  0  0  0  0  0  0
  1  2  1  0
  2  3  1  0
  3  4  1  0
  4  5  1  0
  5  6  1  0
  6  7  1  0
  7  8  1  0
  5  9  1  0
  9  3  1  0
  8  6  1  0
  1 10  1  0
  1 11  1  0
  1 12  1  0
  3 13  1  0
  4 14  1  0
  4 15  1  0
  5 16  1  0
  6 17  1  0
  7 18  1  0
  7 19  1  0
  9 20  1  0
  9 21  1  0
M  END
