
     RDKit          3D

 23 23  0  0  0  0  0  0  0  0999 V2000
    2.8551   -1.5455    0.0477 C   0  0  0  0  0  0  0  0  0  0  0  0
    2.2902   -0.3078   -0.1085 O   0  0  0  0  0  0  0  0  0  0  0  0
    0.9542   -0.2196    0.1440 C   0  0  0  0  0  0  0  0  0  0  0  0
    0.5973    1.0068    1.0156 C   0  0  0  0  0  0  0  0  0  0  0  0
    1.5376    2.0078    1.1377 O   0  0  0  0  0  0  0  0  0  0  0  0
    0.0674    0.8080   -0.4131 C   0  0  0  0  0  0  0  0  0  0  0  0
   -1.4033    0.5831   -0.4776 C   0  0  0  0  0  0  0  0  0  0  0  0
   -2.0125    0.3550    0.8904 C   0  0  0  0  0  0  0  0  0  0  0  0
   -1.8103   -0.5686   -1.3528 C   0  0  0  0  0  0  0  0  0  0  0  0
    2.4254   -2.3292   -0.6035 H   0  0  0  0  0  0  0  0  0  0  0  0
    2.6543   -1.8780    1.0950 H   0  0  0  0  0  0  0  0  0  0  0  0
    3.9536   -1.4423   -0.0590 H   0  0  0  0  0  0  0  0  0  0  0  0
    0.4759   -1.1773    0.4511 H   0  0  0  0  0  0  0  0  0  0  0  0
   -0.0812    0.8296    1.8574 H   0  0  0  0  0  0  0  0  0  0  0  0
    1.4588    2.6273    0.3868 H   0  0  0  0  0  0  0  0  0  0  0  0
    0.4553    1.4821   -1.2064 H   0  0  0  0  0  0  0  0  0  0  0  0
   -1.8859    1.4970   -0.8821 H   0  0  0  0  0  0  0  0  0  0  0  0
   -3.0876    0.0771    0.7051 H   0  0  0  0  0  0  0  0  0  0  0  0
   -2.0257    1.2991    1.4586 H   0  0  0  0  0  0  0  0  0  0  0  0
   -1.5702   -0.4962    1.4269 H   0  0  0  0  0  0  0  0  0  0  0  0
   -2.8402   -0.3697   -1.7115 H   0  0  0  0  0  0  0  0  0  0  0  0
   -1.1178   -0.7603   -2.1812 H   0  0  0  0  0  0  0  0  0  0  0  0
   -1.8905   -1.4785   -0.7026 H   0  0  0  0  0  0  0  0  0  0  0  0
  1  2  1  0
  2  3  1  0
  3  4  1  0
  4  5  1  0
  4  6  1  0
  6  7  1  0
  7  8  1  0
  7  9  1  0
  6  3  1  0
  1 10  1  0
  1 11  1  0
  1 12  1  0
  3 13  1  0
  4 14  1  0
  5 15  1  0
  6 16  1  0
  7 17  1  0
  8 18  1  0
  8 19  1  0
  8 20  1  0
  9 21  1  0
  9 22  1  0
  9 23  1  0
M  END
