
     RDKit          3D

 17 18  0  0  0  0  0  0  0  0999 V2000
   -2.4801   -0.3388    0.1108 C   0  0  0  0  0  0  0  0  0  0  0  0
   -1.1934   -0.7245   -0.2456 O   0  0  0  0  0  0  0  0  0  0  0  0
   -0.3149    0.2713    0.0902 C   0  0  0  0  0  0  0  0  0  0  0  0
    0.7654   -0.2286    1.0736 C   0  0  0  0  0  0  0  0  0  0  0  0
    1.9642    0.1768    0.2315 C   0  0  0  0  0  0  0  0  0  0  0  0
    1.6032    1.3967   -0.3486 O   0  0  0  0  0  0  0  0  0  0  0  0
    0.6300    0.6391   -1.0425 C   0  0  0  0  0  0  0  0  0  0  0  0
    1.6334   -0.4334   -1.0919 C   0  0  0  0  0  0  0  0  0  0  0  0
    2.0242   -1.3428   -1.7949 O   0  0  0  0  0  0  0  0  0  0  0  0
   -2.7972    0.6062   -0.4146 H   0  0  0  0  0  0  0  0  0  0  0  0
   -2.5211   -0.1128    1.1975 H   0  0  0  0  0  0  0  0  0  0  0  0
   -3.1969   -1.1337   -0.1676 H   0  0  0  0  0  0  0  0  0  0  0  0
   -0.7599    1.1512    0.5569 H   0  0  0  0  0  0  0  0  0  0  0  0
    0.7648   -1.3221    1.1227 H   0  0  0  0  0  0  0  0  0  0  0  0
    0.7143    0.2897    2.0292 H   0  0  0  0  0  0  0  0  0  0  0  0
    2.9380    0.0542    0.6264 H   0  0  0  0  0  0  0  0  0  0  0  0
    0.2260    1.0515   -1.9332 H   0  0  0  0  0  0  0  0  0  0  0  0
  1  2  1  0
  2  3  1  0
  3  4  1  0
  4  5  1  0
  5  6  1  0
  6  7  1  0
  7  8  1  0
  8  9  2  0
  7  3  1  0
  8  5  1  0
  1 10  1  0
  1 11  1  0
  1 12  1  0
  3 13  1  0
  4 14  1  0
  4 15  1  0
  5 16  1  0
  7 17  1  0
M  END
