
     RDKit          3D

 17 18  0  0  0  0  0  0  0  0999 V2000
    2.4540    0.5286    0.3351 C   0  0  0  0  0  0  0  0  0  0  0  0
    1.1242    0.9616    0.2304 O   0  0  0  0  0  0  0  0  0  0  0  0
    0.3203   -0.1463    0.1694 C   0  0  0  0  0  0  0  0  0  0  0  0
   -0.7297   -0.1763   -0.9018 C   0  0  0  0  0  0  0  0  0  0  0  0
   -1.4508   -1.1547    0.0046 C   0  0  0  0  0  0  0  0  0  0  0  0
   -0.9771   -0.0756    0.9310 C   0  0  0  0  0  0  0  0  0  0  0  0
   -1.4228    0.8980   -0.1235 C   0  0  0  0  0  0  0  0  0  0  0  0
    3.1677    1.3594    0.3896 H   0  0  0  0  0  0  0  0  0  0  0  0
    2.7001   -0.1359   -0.5334 H   0  0  0  0  0  0  0  0  0  0  0  0
    2.6136   -0.0978    1.2425 H   0  0  0  0  0  0  0  0  0  0  0  0
    0.8443   -1.1279    0.2120 H   0  0  0  0  0  0  0  0  0  0  0  0
   -0.6085   -0.2571   -1.8870 H   0  0  0  0  0  0  0  0  0  0  0  0
   -2.5331   -1.2010   -0.0920 H   0  0  0  0  0  0  0  0  0  0  0  0
   -0.8987   -2.1012    0.0982 H   0  0  0  0  0  0  0  0  0  0  0  0
   -1.0991   -0.0096    1.9188 H   0  0  0  0  0  0  0  0  0  0  0  0
   -2.5302    0.8462   -0.2567 H   0  0  0  0  0  0  0  0  0  0  0  0
   -0.9743    1.8897   -0.1084 H   0  0  0  0  0  0  0  0  0  0  0  0
  1  2  1  0
  2  3  1  0
  3  4  1  0
  4  5  1  0
  5  6  1  0
  6  7  1  0
  6  3  1  0
  7  4  1  0
  1  8  1  0
  1  9  1  0
  1 10  1  0
  3 11  1  0
  4 12  1  0
  5 13  1  0
  5 14  1  0
  6 15  1  0
  7 16  1  0
  7 17  1  0
M  END
