
     RDKit          3D

 21 22  0  0  0  0  0  0  0  0999 V2000
    2.0619   -0.8687    1.0452 C   0  0  0  0  0  0  0  0  0  0  0  0
    0.9540   -0.0403    1.2290 O   0  0  0  0  0  0  0  0  0  0  0  0
    0.5473    0.4777    0.0181 C   0  0  0  0  0  0  0  0  0  0  0  0
    1.5218    1.3043   -0.7409 C   0  0  0  0  0  0  0  0  0  0  0  0
   -0.2895   -0.4852   -0.7466 C   0  0  0  0  0  0  0  0  0  0  0  0
   -0.8679    0.6082   -1.3619 O   0  0  0  0  0  0  0  0  0  0  0  0
   -0.8487    1.0284   -0.0419 C   0  0  0  0  0  0  0  0  0  0  0  0
   -1.3275   -0.3336    0.3273 C   0  0  0  0  0  0  0  0  0  0  0  0
   -2.7379   -0.6395   -0.0540 C   0  0  0  0  0  0  0  0  0  0  0  0
    2.9254   -0.3192    0.5990 H   0  0  0  0  0  0  0  0  0  0  0  0
    2.3107   -1.3102    2.0322 H   0  0  0  0  0  0  0  0  0  0  0  0
    1.8346   -1.6955    0.3204 H   0  0  0  0  0  0  0  0  0  0  0  0
    0.9660    1.9687   -1.4455 H   0  0  0  0  0  0  0  0  0  0  0  0
    2.3112    0.7175   -1.2515 H   0  0  0  0  0  0  0  0  0  0  0  0
    2.0224    1.9921   -0.0175 H   0  0  0  0  0  0  0  0  0  0  0  0
   -0.0005   -1.3482   -1.1825 H   0  0  0  0  0  0  0  0  0  0  0  0
   -1.1618    1.9141    0.3184 H   0  0  0  0  0  0  0  0  0  0  0  0
   -1.0127   -0.6873    1.3322 H   0  0  0  0  0  0  0  0  0  0  0  0
   -3.3421    0.2688   -0.1171 H   0  0  0  0  0  0  0  0  0  0  0  0
   -2.7120   -1.2318   -0.9964 H   0  0  0  0  0  0  0  0  0  0  0  0
   -3.1546   -1.3204    0.7340 H   0  0  0  0  0  0  0  0  0  0  0  0
  1  2  1  0
  2  3  1  0
  3  4  1  0
  3  5  1  0
  5  6  1  0
  6  7  1  0
  7  8  1  0
  8  9  1  0
  7  3  1  0
  8  5  1  0
  1 10  1  0
  1 11  1  0
  1 12  1  0
  4 13  1  0
  4 14  1  0
  4 15  1  0
  5 16  1  0
  7 17  1  0
  8 18  1  0
  9 19  1  0
  9 20  1  0
  9 21  1  0
M  END
