
     RDKit          3D

 25 25  0  0  0  0  0  0  0  0999 V2000
    2.5800    0.8456    0.3925 C   0  0  0  0  0  0  0  0  0  0  0  0
    1.5340    0.1758   -0.1922 O   0  0  0  0  0  0  0  0  0  0  0  0
    0.5076   -0.1459    0.6563 C   0  0  0  0  0  0  0  0  0  0  0  0
    0.2641   -1.6524    0.4790 C   0  0  0  0  0  0  0  0  0  0  0  0
    0.0669   -1.6484   -1.0449 C   0  0  0  0  0  0  0  0  0  0  0  0
   -0.6647   -0.3502   -1.3411 C   0  0  0  0  0  0  0  0  0  0  0  0
   -0.7851    0.3655    0.0053 C   0  0  0  0  0  0  0  0  0  0  0  0
   -0.7718    1.8562   -0.1466 C   0  0  0  0  0  0  0  0  0  0  0  0
   -2.0029   -0.1248    0.7440 C   0  0  0  0  0  0  0  0  0  0  0  0
    3.0466    0.2548    1.2037 H   0  0  0  0  0  0  0  0  0  0  0  0
    3.3292    1.0527   -0.4140 H   0  0  0  0  0  0  0  0  0  0  0  0
    2.2525    1.8377    0.7597 H   0  0  0  0  0  0  0  0  0  0  0  0
    0.6093    0.1479    1.6826 H   0  0  0  0  0  0  0  0  0  0  0  0
    1.1278   -2.2351    0.7851 H   0  0  0  0  0  0  0  0  0  0  0  0
   -0.6911   -1.9574    0.9057 H   0  0  0  0  0  0  0  0  0  0  0  0
    1.1121   -1.5710   -1.4576 H   0  0  0  0  0  0  0  0  0  0  0  0
   -0.4489   -2.5322   -1.4014 H   0  0  0  0  0  0  0  0  0  0  0  0
   -1.6572   -0.5383   -1.7902 H   0  0  0  0  0  0  0  0  0  0  0  0
   -0.0217    0.3099   -1.9692 H   0  0  0  0  0  0  0  0  0  0  0  0
   -0.3135    2.3217    0.7545 H   0  0  0  0  0  0  0  0  0  0  0  0
   -0.2187    2.1006   -1.0634 H   0  0  0  0  0  0  0  0  0  0  0  0
   -1.8469    2.1821   -0.2196 H   0  0  0  0  0  0  0  0  0  0  0  0
   -2.7631    0.7060    0.7149 H   0  0  0  0  0  0  0  0  0  0  0  0
   -2.4453   -0.9597    0.1805 H   0  0  0  0  0  0  0  0  0  0  0  0
   -1.7994   -0.4412    1.7766 H   0  0  0  0  0  0  0  0  0  0  0  0
  1  2  1  0
  2  3  1  0
  3  4  1  0
  4  5  1  0
  5  6  1  0
  6  7  1  0
  7  8  1  0
  7  9  1  0
  7  3  1  0
  1 10  1  0
  1 11  1  0
  1 12  1  0
  3 13  1  0
  4 14  1  0
  4 15  1  0
  5 16  1  0
  5 17  1  0
  6 18  1  0
  6 19  1  0
  8 20  1  0
  8 21  1  0
  8 22  1  0
  9 23  1  0
  9 24  1  0
  9 25  1  0
M  END
