
     RDKit          3D

 16 17  0  0  0  0  0  0  0  0999 V2000
    2.5412   -0.2999   -0.3544 C   0  0  0  0  0  0  0  0  0  0  0  0
    1.2369   -0.3906   -0.8445 O   0  0  0  0  0  0  0  0  0  0  0  0
    0.3304    0.2351   -0.0101 C   0  0  0  0  0  0  0  0  0  0  0  0
   -0.6627    1.0924   -0.7403 C   0  0  0  0  0  0  0  0  0  0  0  0
   -0.5571    2.0646   -1.4792 O   0  0  0  0  0  0  0  0  0  0  0  0
   -1.8207    0.3399   -0.2461 C   0  0  0  0  0  0  0  0  0  0  0  0
   -1.8942   -0.1732    1.1463 C   0  0  0  0  0  0  0  0  0  0  0  0
   -0.8202   -0.7063    0.2992 C   0  0  0  0  0  0  0  0  0  0  0  0
    3.2008   -0.8291   -1.0876 H   0  0  0  0  0  0  0  0  0  0  0  0
    2.6800   -0.7634    0.6177 H   0  0  0  0  0  0  0  0  0  0  0  0
    2.8638    0.7726   -0.3386 H   0  0  0  0  0  0  0  0  0  0  0  0
    0.7545    0.6969    0.8868 H   0  0  0  0  0  0  0  0  0  0  0  0
   -2.5623    0.0024   -0.9820 H   0  0  0  0  0  0  0  0  0  0  0  0
   -1.6443    0.4757    2.0072 H   0  0  0  0  0  0  0  0  0  0  0  0
   -2.7567   -0.8436    1.3481 H   0  0  0  0  0  0  0  0  0  0  0  0
   -0.8897   -1.6733   -0.2226 H   0  0  0  0  0  0  0  0  0  0  0  0
  1  2  1  0
  2  3  1  0
  3  4  1  0
  4  5  2  0
  4  6  1  0
  6  7  1  0
  7  8  1  0
  8  3  1  0
  8  6  1  0
  1  9  1  0
  1 10  1  0
  1 11  1  0
  3 12  1  0
  6 13  1  0
  7 14  1  0
  7 15  1  0
  8 16  1  0
M  END
