
     RDKit          3D

 23 24  0  0  0  0  0  0  0  0999 V2000
    3.5812   -0.1889    0.2938 C   0  0  0  0  0  0  0  0  0  0  0  0
    2.5259   -0.1004   -0.6037 O   0  0  0  0  0  0  0  0  0  0  0  0
    1.2991   -0.0931    0.0365 C   0  0  0  0  0  0  0  0  0  0  0  0
    0.1787   -0.7184   -0.6568 C   0  0  0  0  0  0  0  0  0  0  0  0
   -1.2326   -0.6695   -0.2057 C   0  0  0  0  0  0  0  0  0  0  0  0
   -1.6233   -1.5608    0.9398 C   0  0  0  0  0  0  0  0  0  0  0  0
   -1.0610    0.7513    0.2983 C   0  0  0  0  0  0  0  0  0  0  0  0
   -2.1440    1.6665   -0.1860 C   0  0  0  0  0  0  0  0  0  0  0  0
    0.2344    0.8078   -0.4723 C   0  0  0  0  0  0  0  0  0  0  0  0
    4.5212   -0.1875   -0.3198 H   0  0  0  0  0  0  0  0  0  0  0  0
    3.5504   -1.0625    0.9446 H   0  0  0  0  0  0  0  0  0  0  0  0
    3.5633    0.7721    0.8818 H   0  0  0  0  0  0  0  0  0  0  0  0
    1.3495   -0.1582    1.1530 H   0  0  0  0  0  0  0  0  0  0  0  0
    0.3403   -1.1195   -1.6761 H   0  0  0  0  0  0  0  0  0  0  0  0
   -1.9664   -0.7720   -1.0297 H   0  0  0  0  0  0  0  0  0  0  0  0
   -2.1890   -2.4607    0.6082 H   0  0  0  0  0  0  0  0  0  0  0  0
   -2.3670   -0.9704    1.5526 H   0  0  0  0  0  0  0  0  0  0  0  0
   -0.8025   -1.8032    1.6241 H   0  0  0  0  0  0  0  0  0  0  0  0
   -0.8366    0.8001    1.3904 H   0  0  0  0  0  0  0  0  0  0  0  0
   -1.8273    2.7211   -0.0860 H   0  0  0  0  0  0  0  0  0  0  0  0
   -3.0208    1.5288    0.4706 H   0  0  0  0  0  0  0  0  0  0  0  0
   -2.4157    1.3853   -1.2080 H   0  0  0  0  0  0  0  0  0  0  0  0
    0.3424    1.4321   -1.3549 H   0  0  0  0  0  0  0  0  0  0  0  0
  1  2  1  0
  2  3  1  0
  3  4  1  0
  4  5  1  0
  5  6  1  0
  5  7  1  0
  7  8  1  0
  7  9  1  0
  9  3  1  0
  9  4  1  0
  1 10  1  0
  1 11  1  0
  1 12  1  0
  3 13  1  0
  4 14  1  0
  5 15  1  0
  6 16  1  0
  6 17  1  0
  6 18  1  0
  7 19  1  0
  8 20  1  0
  8 21  1  0
  8 22  1  0
  9 23  1  0
M  END
