
     RDKit          3D

 19 20  0  0  0  0  0  0  0  0999 V2000
    2.4905   -0.2321    0.6257 C   0  0  0  0  0  0  0  0  0  0  0  0
    1.2970    0.4456    0.9477 O   0  0  0  0  0  0  0  0  0  0  0  0
    0.3814    0.2059   -0.0421 C   0  0  0  0  0  0  0  0  0  0  0  0
   -0.0577   -1.2200   -0.3462 C   0  0  0  0  0  0  0  0  0  0  0  0
   -1.4890   -0.7234   -0.1970 C   0  0  0  0  0  0  0  0  0  0  0  0
   -2.1093   -1.2262    0.9221 O   0  0  0  0  0  0  0  0  0  0  0  0
   -0.9881    0.6884   -0.0535 C   0  0  0  0  0  0  0  0  0  0  0  0
   -1.5506    1.5124    0.8785 O   0  0  0  0  0  0  0  0  0  0  0  0
   -0.0053    1.2492   -1.0202 C   0  0  0  0  0  0  0  0  0  0  0  0
    2.8344    0.1759   -0.3523 H   0  0  0  0  0  0  0  0  0  0  0  0
    3.2968    0.0156    1.3662 H   0  0  0  0  0  0  0  0  0  0  0  0
    2.3738   -1.3163    0.6166 H   0  0  0  0  0  0  0  0  0  0  0  0
    0.2919   -1.8987    0.4300 H   0  0  0  0  0  0  0  0  0  0  0  0
    0.1733   -1.5490   -1.3934 H   0  0  0  0  0  0  0  0  0  0  0  0
   -2.0887   -0.7968   -1.1462 H   0  0  0  0  0  0  0  0  0  0  0  0
   -2.8629   -0.6715    1.2464 H   0  0  0  0  0  0  0  0  0  0  0  0
   -2.1727    2.1322    0.3954 H   0  0  0  0  0  0  0  0  0  0  0  0
   -0.1347    0.9310   -2.0636 H   0  0  0  0  0  0  0  0  0  0  0  0
    0.3201    2.2779   -0.8139 H   0  0  0  0  0  0  0  0  0  0  0  0
  1  2  1  0
  2  3  1  0
  3  4  1  0
  4  5  1  0
  5  6  1  0
  5  7  1  0
  7  8  1  0
  7  9  1  0
  7  3  1  0
  9  3  1  0
  1 10  1  0
  1 11  1  0
  1 12  1  0
  4 13  1  0
  4 14  1  0
  5 15  1  0
  6 16  1  0
  8 17  1  0
  9 18  1  0
  9 19  1  0
M  END
