
     RDKit          3D

 21 21  0  0  0  0  0  0  0  0999 V2000
    2.7376    0.8642    0.1193 C   0  0  0  0  0  0  0  0  0  0  0  0
    1.3828    0.8808    0.4540 O   0  0  0  0  0  0  0  0  0  0  0  0
    0.8246   -0.2800   -0.0552 C   0  0  0  0  0  0  0  0  0  0  0  0
    0.2454   -0.9554    1.0427 O   0  0  0  0  0  0  0  0  0  0  0  0
   -0.8554   -0.2059    1.4135 C   0  0  0  0  0  0  0  0  0  0  0  0
   -1.2622    0.6350    0.2422 C   0  0  0  0  0  0  0  0  0  0  0  0
   -2.6091    0.5558   -0.0613 O   0  0  0  0  0  0  0  0  0  0  0  0
   -0.4368    0.0086   -0.8633 C   0  0  0  0  0  0  0  0  0  0  0  0
   -1.0369   -1.3296   -1.2183 C   0  0  0  0  0  0  0  0  0  0  0  0
    3.2632   -0.0145    0.5449 H   0  0  0  0  0  0  0  0  0  0  0  0
    2.7798    0.8432   -0.9959 H   0  0  0  0  0  0  0  0  0  0  0  0
    3.2595    1.7795    0.5134 H   0  0  0  0  0  0  0  0  0  0  0  0
    1.5325   -0.9069   -0.5728 H   0  0  0  0  0  0  0  0  0  0  0  0
   -0.5224    0.4188    2.2907 H   0  0  0  0  0  0  0  0  0  0  0  0
   -1.6660   -0.8454    1.8090 H   0  0  0  0  0  0  0  0  0  0  0  0
   -0.9136    1.6722    0.4320 H   0  0  0  0  0  0  0  0  0  0  0  0
   -3.0962    1.2367    0.4787 H   0  0  0  0  0  0  0  0  0  0  0  0
   -0.2620    0.6644   -1.7090 H   0  0  0  0  0  0  0  0  0  0  0  0
   -0.8635   -1.9955   -0.3356 H   0  0  0  0  0  0  0  0  0  0  0  0
   -2.0974   -1.2651   -1.4974 H   0  0  0  0  0  0  0  0  0  0  0  0
   -0.4040   -1.7609   -2.0315 H   0  0  0  0  0  0  0  0  0  0  0  0
  1  2  1  0
  2  3  1  0
  3  4  1  0
  4  5  1  0
  5  6  1  0
  6  7  1  0
  6  8  1  0
  8  9  1  0
  8  3  1  0
  1 10  1  0
  1 11  1  0
  1 12  1  0
  3 13  1  0
  5 14  1  0
  5 15  1  0
  6 16  1  0
  7 17  1  0
  8 18  1  0
  9 19  1  0
  9 20  1  0
  9 21  1  0
M  END
