
     RDKit          3D

 19 21  0  0  0  0  0  0  0  0999 V2000
   -2.1492    0.9877   -0.8912 C   0  0  0  0  0  0  0  0  0  0  0  0
   -0.9519    0.4923   -1.3725 O   0  0  0  0  0  0  0  0  0  0  0  0
   -0.1476    0.0869   -0.3471 C   0  0  0  0  0  0  0  0  0  0  0  0
   -0.5660   -1.0162    0.6058 C   0  0  0  0  0  0  0  0  0  0  0  0
   -1.6675   -1.7585    0.2541 O   0  0  0  0  0  0  0  0  0  0  0  0
    0.6168   -1.1513   -0.2800 C   0  0  0  0  0  0  0  0  0  0  0  0
    1.8764   -0.4665    0.1301 C   0  0  0  0  0  0  0  0  0  0  0  0
    2.3677    0.6604   -0.6925 C   0  0  0  0  0  0  0  0  0  0  0  0
    1.0952    0.8694    0.0043 C   0  0  0  0  0  0  0  0  0  0  0  0
   -1.8843    1.8595   -0.2288 H   0  0  0  0  0  0  0  0  0  0  0  0
   -2.6667    0.2631   -0.2363 H   0  0  0  0  0  0  0  0  0  0  0  0
   -2.8208    1.3337   -1.7145 H   0  0  0  0  0  0  0  0  0  0  0  0
   -0.4578   -0.7203    1.6730 H   0  0  0  0  0  0  0  0  0  0  0  0
   -2.1931   -2.0288    1.0500 H   0  0  0  0  0  0  0  0  0  0  0  0
    0.6080   -1.9355   -1.0414 H   0  0  0  0  0  0  0  0  0  0  0  0
    2.3445   -0.6618    1.1015 H   0  0  0  0  0  0  0  0  0  0  0  0
    3.2258    1.2375   -0.3466 H   0  0  0  0  0  0  0  0  0  0  0  0
    2.3555    0.4974   -1.7909 H   0  0  0  0  0  0  0  0  0  0  0  0
    1.0150    1.4509    0.9401 H   0  0  0  0  0  0  0  0  0  0  0  0
  1  2  1  0
  2  3  1  0
  3  4  1  0
  4  5  1  0
  4  6  1  0
  6  7  1  0
  7  8  1  0
  8  9  1  0
  6  3  1  0
  9  7  1  0
  9  3  1  0
  1 10  1  0
  1 11  1  0
  1 12  1  0
  4 13  1  0
  5 14  1  0
  6 15  1  0
  7 16  1  0
  8 17  1  0
  8 18  1  0
  9 19  1  0
M  END
