
     RDKit          3D

 21 22  0  0  0  0  0  0  0  0999 V2000
   -2.7776   -0.2421   -0.3672 C   0  0  0  0  0  0  0  0  0  0  0  0
   -1.4792   -0.4580   -0.8293 O   0  0  0  0  0  0  0  0  0  0  0  0
   -0.6323   -0.3386    0.2533 C   0  0  0  0  0  0  0  0  0  0  0  0
    0.5048   -1.3084    0.3314 C   0  0  0  0  0  0  0  0  0  0  0  0
    1.1953   -0.2585    1.1733 C   0  0  0  0  0  0  0  0  0  0  0  0
    0.5841    0.5228    0.0350 C   0  0  0  0  0  0  0  0  0  0  0  0
    0.6369    1.8680   -0.1797 C   0  0  0  0  0  0  0  0  0  0  0  0
    1.0876   -0.5842   -0.8519 C   0  0  0  0  0  0  0  0  0  0  0  0
    2.4871   -0.6959   -0.8980 O   0  0  0  0  0  0  0  0  0  0  0  0
   -2.9673   -1.0296    0.4039 H   0  0  0  0  0  0  0  0  0  0  0  0
   -3.5261   -0.2599   -1.1719 H   0  0  0  0  0  0  0  0  0  0  0  0
   -2.8271    0.7586    0.1178 H   0  0  0  0  0  0  0  0  0  0  0  0
   -1.0918   -0.1105    1.2239 H   0  0  0  0  0  0  0  0  0  0  0  0
    0.4805   -2.2900    0.4980 H   0  0  0  0  0  0  0  0  0  0  0  0
    2.2860   -0.3369    1.1850 H   0  0  0  0  0  0  0  0  0  0  0  0
    0.6971   -0.0003    2.1177 H   0  0  0  0  0  0  0  0  0  0  0  0
    0.7560    2.1896   -1.2387 H   0  0  0  0  0  0  0  0  0  0  0  0
   -0.2769    2.4318    0.1749 H   0  0  0  0  0  0  0  0  0  0  0  0
    1.4806    2.3932    0.3604 H   0  0  0  0  0  0  0  0  0  0  0  0
    0.5735   -0.7132   -1.8072 H   0  0  0  0  0  0  0  0  0  0  0  0
    2.8088   -1.5379   -0.5306 H   0  0  0  0  0  0  0  0  0  0  0  0
  1  2  1  0
  2  3  1  0
  3  4  1  0
  4  5  1  0
  5  6  1  0
  6  7  1  0
  6  8  1  0
  8  9  1  0
  6  3  1  0
  8  4  1  0
  1 10  1  0
  1 11  1  0
  1 12  1  0
  3 13  1  0
  4 14  1  0
  5 15  1  0
  5 16  1  0
  7 17  1  0
  7 18  1  0
  7 19  1  0
  8 20  1  0
  9 21  1  0
M  END
