
     RDKit          3D

 15 15  0  0  0  0  0  0  0  0999 V2000
    2.2438   -0.4474   -0.3935 C   0  0  0  0  0  0  0  0  0  0  0  0
    0.9566   -0.5304   -0.9184 O   0  0  0  0  0  0  0  0  0  0  0  0
    0.0750   -0.1083    0.0344 C   0  0  0  0  0  0  0  0  0  0  0  0
   -0.9042    0.9816   -0.4217 C   0  0  0  0  0  0  0  0  0  0  0  0
   -1.8550    0.2998    0.5752 C   0  0  0  0  0  0  0  0  0  0  0  0
   -1.1160   -0.9464    0.2813 C   0  0  0  0  0  0  0  0  0  0  0  0
   -1.3611   -2.1219    0.2522 O   0  0  0  0  0  0  0  0  0  0  0  0
    2.3720   -1.0779    0.5121 H   0  0  0  0  0  0  0  0  0  0  0  0
    3.0262   -0.7490   -1.1195 H   0  0  0  0  0  0  0  0  0  0  0  0
    2.3779    0.6233   -0.0773 H   0  0  0  0  0  0  0  0  0  0  0  0
    0.5436    0.2048    1.0006 H   0  0  0  0  0  0  0  0  0  0  0  0
   -0.6188    1.9874   -0.1173 H   0  0  0  0  0  0  0  0  0  0  0  0
   -1.1723    0.8130   -1.4698 H   0  0  0  0  0  0  0  0  0  0  0  0
   -2.9020    0.3377    0.2740 H   0  0  0  0  0  0  0  0  0  0  0  0
   -1.6658    0.7337    1.5879 H   0  0  0  0  0  0  0  0  0  0  0  0
  1  2  1  0
  2  3  1  0
  3  4  1  0
  4  5  1  0
  5  6  1  0
  6  7  2  0
  6  3  1  0
  1  8  1  0
  1  9  1  0
  1 10  1  0
  3 11  1  0
  4 12  1  0
  4 13  1  0
  5 14  1  0
  5 15  1  0
M  END
