
     RDKit          3D

 21 22  0  0  0  0  0  0  0  0999 V2000
    3.3342    0.4926   -0.0566 C   0  0  0  0  0  0  0  0  0  0  0  0
    2.2707   -0.1335    0.5814 O   0  0  0  0  0  0  0  0  0  0  0  0
    1.0469    0.2670    0.0971 C   0  0  0  0  0  0  0  0  0  0  0  0
   -0.0325    0.3864    1.0871 C   0  0  0  0  0  0  0  0  0  0  0  0
   -1.3616    0.8733    0.5514 C   0  0  0  0  0  0  0  0  0  0  0  0
   -1.4516   -0.4080   -0.2246 C   0  0  0  0  0  0  0  0  0  0  0  0
   -1.9263   -0.3007   -1.6413 C   0  0  0  0  0  0  0  0  0  0  0  0
   -2.2836   -1.3108    0.4764 O   0  0  0  0  0  0  0  0  0  0  0  0
   -0.0234   -0.7385   -0.0022 C   0  0  0  0  0  0  0  0  0  0  0  0
    3.3381    1.5782    0.0317 H   0  0  0  0  0  0  0  0  0  0  0  0
    3.2950    0.2673   -1.1621 H   0  0  0  0  0  0  0  0  0  0  0  0
    4.2599   -0.0053    0.2994 H   0  0  0  0  0  0  0  0  0  0  0  0
    1.1132    1.0214   -0.7203 H   0  0  0  0  0  0  0  0  0  0  0  0
    0.0470    0.0394    2.1182 H   0  0  0  0  0  0  0  0  0  0  0  0
   -1.1927    1.7729   -0.0803 H   0  0  0  0  0  0  0  0  0  0  0  0
   -2.0735    1.0005    1.3776 H   0  0  0  0  0  0  0  0  0  0  0  0
   -1.3211    0.3686   -2.2647 H   0  0  0  0  0  0  0  0  0  0  0  0
   -2.9845    0.0847   -1.6034 H   0  0  0  0  0  0  0  0  0  0  0  0
   -1.9310   -1.3139   -2.0756 H   0  0  0  0  0  0  0  0  0  0  0  0
   -2.3397   -2.1852    0.0125 H   0  0  0  0  0  0  0  0  0  0  0  0
    0.2165   -1.7563    0.3658 H   0  0  0  0  0  0  0  0  0  0  0  0
  1  2  1  0
  2  3  1  0
  3  4  1  0
  4  5  1  0
  5  6  1  0
  6  7  1  0
  6  8  1  0
  6  9  1  0
  9  3  1  0
  9  4  1  0
  1 10  1  0
  1 11  1  0
  1 12  1  0
  3 13  1  0
  4 14  1  0
  5 15  1  0
  5 16  1  0
  7 17  1  0
  7 18  1  0
  7 19  1  0
  8 20  1  0
  9 21  1  0
M  END
