
     RDKit          3D

 17 17  0  0  0  0  0  0  0  0999 V2000
    2.6142    0.1192    0.1317 C   0  0  0  0  0  0  0  0  0  0  0  0
    1.3860    0.7470    0.0244 O   0  0  0  0  0  0  0  0  0  0  0  0
    0.3212   -0.1455   -0.0685 C   0  0  0  0  0  0  0  0  0  0  0  0
   -0.4679    0.0646   -1.3091 C   0  0  0  0  0  0  0  0  0  0  0  0
   -1.7682    0.0670   -1.0624 C   0  0  0  0  0  0  0  0  0  0  0  0
   -2.0315   -0.1423    0.3851 C   0  0  0  0  0  0  0  0  0  0  0  0
   -0.6783    0.1139    1.0396 C   0  0  0  0  0  0  0  0  0  0  0  0
    2.8638   -0.5323   -0.7178 H   0  0  0  0  0  0  0  0  0  0  0  0
    2.6207   -0.5041    1.0517 H   0  0  0  0  0  0  0  0  0  0  0  0
    3.3804    0.9040    0.2198 H   0  0  0  0  0  0  0  0  0  0  0  0
    0.6390   -1.2039   -0.0406 H   0  0  0  0  0  0  0  0  0  0  0  0
   -0.0477    0.2055   -2.3318 H   0  0  0  0  0  0  0  0  0  0  0  0
   -2.5379    0.2089   -1.8509 H   0  0  0  0  0  0  0  0  0  0  0  0
   -2.7571    0.6675    0.6843 H   0  0  0  0  0  0  0  0  0  0  0  0
   -2.4313   -1.1383    0.6195 H   0  0  0  0  0  0  0  0  0  0  0  0
   -0.5989    1.1742    1.3598 H   0  0  0  0  0  0  0  0  0  0  0  0
   -0.5064   -0.6053    1.8652 H   0  0  0  0  0  0  0  0  0  0  0  0
  1  2  1  0
  2  3  1  0
  3  4  1  0
  4  5  2  0
  5  6  1  0
  6  7  1  0
  7  3  1  0
  1  8  1  0
  1  9  1  0
  1 10  1  0
  3 11  1  0
  4 12  1  0
  5 13  1  0
  6 14  1  0
  6 15  1  0
  7 16  1  0
  7 17  1  0
M  END
