
     RDKit          3D

 21 22  0  0  0  0  0  0  0  0999 V2000
    3.4608   -0.4492    0.1417 C   0  0  0  0  0  0  0  0  0  0  0  0
    2.2979   -0.1261    0.8272 O   0  0  0  0  0  0  0  0  0  0  0  0
    1.1607   -0.2472    0.0634 C   0  0  0  0  0  0  0  0  0  0  0  0
   -0.1616   -0.5209    0.6441 C   0  0  0  0  0  0  0  0  0  0  0  0
   -1.3369   -0.4781   -0.3022 C   0  0  0  0  0  0  0  0  0  0  0  0
   -2.6653   -0.7646    0.3179 C   0  0  0  0  0  0  0  0  0  0  0  0
   -1.0444    0.9611   -0.6265 C   0  0  0  0  0  0  0  0  0  0  0  0
   -1.9598    1.8716   -0.0546 O   0  0  0  0  0  0  0  0  0  0  0  0
    0.1989    0.9133    0.1914 C   0  0  0  0  0  0  0  0  0  0  0  0
    3.6285    0.1942   -0.7475 H   0  0  0  0  0  0  0  0  0  0  0  0
    3.4763   -1.5135   -0.1803 H   0  0  0  0  0  0  0  0  0  0  0  0
    4.3127   -0.2327    0.8400 H   0  0  0  0  0  0  0  0  0  0  0  0
    1.2855   -0.5853   -1.0056 H   0  0  0  0  0  0  0  0  0  0  0  0
   -0.3587   -0.6557    1.7070 H   0  0  0  0  0  0  0  0  0  0  0  0
   -1.1974   -1.0989   -1.2329 H   0  0  0  0  0  0  0  0  0  0  0  0
   -3.4633   -0.0456    0.0246 H   0  0  0  0  0  0  0  0  0  0  0  0
   -2.5977   -0.7895    1.4286 H   0  0  0  0  0  0  0  0  0  0  0  0
   -3.0140   -1.7970    0.0315 H   0  0  0  0  0  0  0  0  0  0  0  0
   -0.8953    1.2007   -1.6959 H   0  0  0  0  0  0  0  0  0  0  0  0
   -1.4645    2.5291    0.4965 H   0  0  0  0  0  0  0  0  0  0  0  0
    0.3374    1.6342    1.0185 H   0  0  0  0  0  0  0  0  0  0  0  0
  1  2  1  0
  2  3  1  0
  3  4  1  0
  4  5  1  0
  5  6  1  0
  5  7  1  0
  7  8  1  0
  7  9  1  0
  9  3  1  0
  9  4  1  0
  1 10  1  0
  1 11  1  0
  1 12  1  0
  3 13  1  0
  4 14  1  0
  5 15  1  0
  6 16  1  0
  6 17  1  0
  6 18  1  0
  7 19  1  0
  8 20  1  0
  9 21  1  0
M  END
