
     RDKit          3D

 21 22  0  0  0  0  0  0  0  0999 V2000
   -2.6829   -0.3655    0.3633 C   0  0  0  0  0  0  0  0  0  0  0  0
   -1.9506    0.7390    0.0445 O   0  0  0  0  0  0  0  0  0  0  0  0
   -0.6083    0.6213    0.0478 C   0  0  0  0  0  0  0  0  0  0  0  0
    0.1639    1.8918   -0.3143 C   0  0  0  0  0  0  0  0  0  0  0  0
    0.2859    0.6634   -1.0985 C   0  0  0  0  0  0  0  0  0  0  0  0
    1.0520   -0.5094   -0.5726 C   0  0  0  0  0  0  0  0  0  0  0  0
    2.5105   -0.2469   -0.3049 C   0  0  0  0  0  0  0  0  0  0  0  0
    0.1666   -0.4695    0.6657 C   0  0  0  0  0  0  0  0  0  0  0  0
   -0.5275   -1.6486    0.8038 O   0  0  0  0  0  0  0  0  0  0  0  0
   -3.7714   -0.0629    0.3010 H   0  0  0  0  0  0  0  0  0  0  0  0
   -2.5730   -1.2063   -0.3557 H   0  0  0  0  0  0  0  0  0  0  0  0
   -2.5672   -0.7000    1.4193 H   0  0  0  0  0  0  0  0  0  0  0  0
   -0.4362    2.7143   -0.7855 H   0  0  0  0  0  0  0  0  0  0  0  0
    0.9084    2.1906    0.4554 H   0  0  0  0  0  0  0  0  0  0  0  0
   -0.0216    0.6063   -2.1501 H   0  0  0  0  0  0  0  0  0  0  0  0
    0.9349   -1.4221   -1.1707 H   0  0  0  0  0  0  0  0  0  0  0  0
    2.6471    0.5182    0.4606 H   0  0  0  0  0  0  0  0  0  0  0  0
    3.0100    0.1116   -1.2286 H   0  0  0  0  0  0  0  0  0  0  0  0
    2.9846   -1.2233   -0.0414 H   0  0  0  0  0  0  0  0  0  0  0  0
    0.7125   -0.1162    1.5756 H   0  0  0  0  0  0  0  0  0  0  0  0
   -0.2377   -2.0859    1.6625 H   0  0  0  0  0  0  0  0  0  0  0  0
  1  2  1  0
  2  3  1  0
  3  4  1  0
  4  5  1  0
  5  6  1  0
  6  7  1  0
  6  8  1  0
  8  9  1  0
  5  3  1  0
  8  3  1  0
  1 10  1  0
  1 11  1  0
  1 12  1  0
  4 13  1  0
  4 14  1  0
  5 15  1  0
  6 16  1  0
  7 17  1  0
  7 18  1  0
  7 19  1  0
  8 20  1  0
  9 21  1  0
M  END
