
     RDKit          3D

 21 21  0  0  0  0  0  0  0  0999 V2000
    2.4873    0.8372   -0.2752 C   0  0  0  0  0  0  0  0  0  0  0  0
    1.2004    1.2656   -0.1092 O   0  0  0  0  0  0  0  0  0  0  0  0
    0.2349    0.2895   -0.0619 C   0  0  0  0  0  0  0  0  0  0  0  0
    0.4702   -0.6873    1.0985 C   0  0  0  0  0  0  0  0  0  0  0  0
    0.4614   -0.0741    2.3166 O   0  0  0  0  0  0  0  0  0  0  0  0
   -1.1238    0.6831   -0.4391 C   0  0  0  0  0  0  0  0  0  0  0  0
   -2.3761    0.1911    0.1985 C   0  0  0  0  0  0  0  0  0  0  0  0
   -0.3390   -0.3418   -1.2571 C   0  0  0  0  0  0  0  0  0  0  0  0
   -0.8116   -1.6636   -1.1731 O   0  0  0  0  0  0  0  0  0  0  0  0
    3.1407    1.7364   -0.2930 H   0  0  0  0  0  0  0  0  0  0  0  0
    2.8347    0.2181    0.5777 H   0  0  0  0  0  0  0  0  0  0  0  0
    2.6860    0.2948   -1.2127 H   0  0  0  0  0  0  0  0  0  0  0  0
    1.4410   -1.2131    0.9906 H   0  0  0  0  0  0  0  0  0  0  0  0
   -0.3051   -1.5034    1.0797 H   0  0  0  0  0  0  0  0  0  0  0  0
   -0.2965    0.5408    2.4139 H   0  0  0  0  0  0  0  0  0  0  0  0
   -1.2391    1.6547   -0.9682 H   0  0  0  0  0  0  0  0  0  0  0  0
   -2.7655   -0.6561   -0.4383 H   0  0  0  0  0  0  0  0  0  0  0  0
   -2.2788   -0.1583    1.2274 H   0  0  0  0  0  0  0  0  0  0  0  0
   -3.1884    0.9486    0.1894 H   0  0  0  0  0  0  0  0  0  0  0  0
   -0.0509   -0.0826   -2.2899 H   0  0  0  0  0  0  0  0  0  0  0  0
   -0.1820   -2.2796   -1.5746 H   0  0  0  0  0  0  0  0  0  0  0  0
  1  2  1  0
  2  3  1  0
  3  4  1  0
  4  5  1  0
  3  6  1  0
  6  7  1  0
  6  8  1  0
  8  9  1  0
  8  3  1  0
  1 10  1  0
  1 11  1  0
  1 12  1  0
  4 13  1  0
  4 14  1  0
  5 15  1  0
  6 16  1  0
  7 17  1  0
  7 18  1  0
  7 19  1  0
  8 20  1  0
  9 21  1  0
M  END
