
     RDKit          3D

 17 18  0  0  0  0  0  0  0  0999 V2000
    2.5039   -0.2193   -0.0372 C   0  0  0  0  0  0  0  0  0  0  0  0
    1.3282   -0.7425   -0.5720 O   0  0  0  0  0  0  0  0  0  0  0  0
    0.2101   -0.0113   -0.2311 C   0  0  0  0  0  0  0  0  0  0  0  0
    0.1790    1.4129   -0.6550 C   0  0  0  0  0  0  0  0  0  0  0  0
   -0.7771    2.1096   -0.3856 O   0  0  0  0  0  0  0  0  0  0  0  0
   -1.0878   -0.8094   -0.3547 C   0  0  0  0  0  0  0  0  0  0  0  0
   -2.3721   -0.1493    0.0466 C   0  0  0  0  0  0  0  0  0  0  0  0
   -1.7369    0.3469    1.1793 O   0  0  0  0  0  0  0  0  0  0  0  0
   -0.5372   -0.3252    1.0051 C   0  0  0  0  0  0  0  0  0  0  0  0
    3.3369   -0.8739   -0.3670 H   0  0  0  0  0  0  0  0  0  0  0  0
    2.6480    0.8400   -0.3347 H   0  0  0  0  0  0  0  0  0  0  0  0
    2.4635   -0.2082    1.0902 H   0  0  0  0  0  0  0  0  0  0  0  0
    0.9944    1.8412   -1.2004 H   0  0  0  0  0  0  0  0  0  0  0  0
   -1.0368   -1.8798   -0.5597 H   0  0  0  0  0  0  0  0  0  0  0  0
   -3.1651   -0.8707    0.3193 H   0  0  0  0  0  0  0  0  0  0  0  0
   -2.7514    0.6133   -0.6641 H   0  0  0  0  0  0  0  0  0  0  0  0
   -0.1995   -1.0743    1.7210 H   0  0  0  0  0  0  0  0  0  0  0  0
  1  2  1  0
  2  3  1  0
  3  4  1  0
  4  5  2  0
  3  6  1  0
  6  7  1  0
  7  8  1  0
  8  9  1  0
  9  3  1  0
  9  6  1  0
  1 10  1  0
  1 11  1  0
  1 12  1  0
  4 13  1  0
  6 14  1  0
  7 15  1  0
  7 16  1  0
  9 17  1  0
M  END
