
     RDKit          3D

 17 18  0  0  0  0  0  0  0  0999 V2000
    2.7381    0.1520    0.3466 C   0  0  0  0  0  0  0  0  0  0  0  0
    1.6281   -0.1196   -0.4482 O   0  0  0  0  0  0  0  0  0  0  0  0
    0.4316    0.2202    0.1829 C   0  0  0  0  0  0  0  0  0  0  0  0
   -0.6493    0.7606   -0.7379 C   0  0  0  0  0  0  0  0  0  0  0  0
   -1.9624    1.0917   -0.1828 C   0  0  0  0  0  0  0  0  0  0  0  0
   -2.6720    2.0857   -0.1284 O   0  0  0  0  0  0  0  0  0  0  0  0
   -2.1144   -0.2858    0.3081 C   0  0  0  0  0  0  0  0  0  0  0  0
   -0.7391   -0.6030   -0.2056 C   0  0  0  0  0  0  0  0  0  0  0  0
   -0.5468   -1.7284   -0.9737 O   0  0  0  0  0  0  0  0  0  0  0  0
    2.6515   -0.4410    1.2903 H   0  0  0  0  0  0  0  0  0  0  0  0
    2.9026    1.2102    0.5264 H   0  0  0  0  0  0  0  0  0  0  0  0
    3.6181   -0.2621   -0.1861 H   0  0  0  0  0  0  0  0  0  0  0  0
    0.4921    0.6547    1.2136 H   0  0  0  0  0  0  0  0  0  0  0  0
   -0.3874    0.9893   -1.7857 H   0  0  0  0  0  0  0  0  0  0  0  0
   -2.2021   -0.4144    1.3996 H   0  0  0  0  0  0  0  0  0  0  0  0
   -2.8752   -0.8350   -0.2844 H   0  0  0  0  0  0  0  0  0  0  0  0
   -0.3133   -2.4752   -0.3347 H   0  0  0  0  0  0  0  0  0  0  0  0
  1  2  1  0
  2  3  1  0
  3  4  1  0
  4  5  1  0
  5  6  2  0
  5  7  1  0
  7  8  1  0
  8  9  1  0
  8  3  1  0
  8  4  1  0
  1 10  1  0
  1 11  1  0
  1 12  1  0
  3 13  1  0
  4 14  1  0
  7 15  1  0
  7 16  1  0
  9 17  1  0
M  END
