
     RDKit          3D

 16 16  0  0  0  0  0  0  0  0999 V2000
    2.3534    0.6548   -0.4148 C   0  0  0  0  0  0  0  0  0  0  0  0
    0.9929    0.6479   -0.6506 O   0  0  0  0  0  0  0  0  0  0  0  0
    0.3500   -0.4636   -0.1502 C   0  0  0  0  0  0  0  0  0  0  0  0
   -0.8068   -0.1116    0.7957 C   0  0  0  0  0  0  0  0  0  0  0  0
   -1.7344   -0.2567   -0.4092 C   0  0  0  0  0  0  0  0  0  0  0  0
   -1.9501    1.0061   -0.9636 O   0  0  0  0  0  0  0  0  0  0  0  0
   -0.6712   -1.0443   -1.0621 C   0  0  0  0  0  0  0  0  0  0  0  0
   -0.6035   -1.8486   -1.9715 O   0  0  0  0  0  0  0  0  0  0  0  0
    2.6158    0.6312    0.6531 H   0  0  0  0  0  0  0  0  0  0  0  0
    2.8937   -0.1778   -0.9235 H   0  0  0  0  0  0  0  0  0  0  0  0
    2.7600    1.6001   -0.8379 H   0  0  0  0  0  0  0  0  0  0  0  0
    1.0025   -1.1897    0.3654 H   0  0  0  0  0  0  0  0  0  0  0  0
   -0.7280    0.8918    1.2099 H   0  0  0  0  0  0  0  0  0  0  0  0
   -1.0314   -0.9372    1.5070 H   0  0  0  0  0  0  0  0  0  0  0  0
   -2.6766   -0.7610   -0.1925 H   0  0  0  0  0  0  0  0  0  0  0  0
   -2.7663    1.3586   -0.5483 H   0  0  0  0  0  0  0  0  0  0  0  0
  1  2  1  0
  2  3  1  0
  3  4  1  0
  4  5  1  0
  5  6  1  0
  5  7  1  0
  7  8  2  0
  7  3  1  0
  1  9  1  0
  1 10  1  0
  1 11  1  0
  3 12  1  0
  4 13  1  0
  4 14  1  0
  5 15  1  0
  6 16  1  0
M  END
