
     RDKit          3D

 21 22  0  0  0  0  0  0  0  0999 V2000
    2.7043   -0.4061   -0.5601 C   0  0  0  0  0  0  0  0  0  0  0  0
    1.4243   -0.8812   -0.2135 O   0  0  0  0  0  0  0  0  0  0  0  0
    0.5860    0.2130   -0.1938 C   0  0  0  0  0  0  0  0  0  0  0  0
   -0.2289    0.3566    1.0965 C   0  0  0  0  0  0  0  0  0  0  0  0
   -0.8712   -0.9741    1.2588 C   0  0  0  0  0  0  0  0  0  0  0  0
   -1.3155   -1.2225   -0.1979 C   0  0  0  0  0  0  0  0  0  0  0  0
   -0.7663    0.0340   -0.8229 C   0  0  0  0  0  0  0  0  0  0  0  0
   -1.2384    1.0828    0.1960 C   0  0  0  0  0  0  0  0  0  0  0  0
   -0.8446    2.3481   -0.1872 O   0  0  0  0  0  0  0  0  0  0  0  0
    3.0628    0.3402    0.1850 H   0  0  0  0  0  0  0  0  0  0  0  0
    2.6951    0.1098   -1.5390 H   0  0  0  0  0  0  0  0  0  0  0  0
    3.4353   -1.2416   -0.5833 H   0  0  0  0  0  0  0  0  0  0  0  0
    1.0312    1.1861   -0.4334 H   0  0  0  0  0  0  0  0  0  0  0  0
    0.1940    0.8883    1.9017 H   0  0  0  0  0  0  0  0  0  0  0  0
   -0.1478   -1.7758    1.4945 H   0  0  0  0  0  0  0  0  0  0  0  0
   -1.7392   -0.9723    1.9410 H   0  0  0  0  0  0  0  0  0  0  0  0
   -0.8889   -2.1356   -0.6041 H   0  0  0  0  0  0  0  0  0  0  0  0
   -2.4288   -1.1802   -0.2235 H   0  0  0  0  0  0  0  0  0  0  0  0
   -0.9193    0.2367   -1.8471 H   0  0  0  0  0  0  0  0  0  0  0  0
   -2.2871    0.9462    0.4860 H   0  0  0  0  0  0  0  0  0  0  0  0
   -1.4568    3.0476    0.1752 H   0  0  0  0  0  0  0  0  0  0  0  0
  1  2  1  0
  2  3  1  0
  3  4  1  0
  4  5  1  0
  5  6  1  0
  6  7  1  0
  7  8  1  0
  8  9  1  0
  7  3  1  0
  8  4  1  0
  1 10  1  0
  1 11  1  0
  1 12  1  0
  3 13  1  0
  4 14  1  0
  5 15  1  0
  5 16  1  0
  6 17  1  0
  6 18  1  0
  7 19  1  0
  8 20  1  0
  9 21  1  0
M  END
