
     RDKit          3D

 21 22  0  0  0  0  0  0  0  0999 V2000
    2.6976    0.1425    0.1937 C   0  0  0  0  0  0  0  0  0  0  0  0
    1.7058   -0.6518    0.6954 O   0  0  0  0  0  0  0  0  0  0  0  0
    0.4376   -0.2378    0.4589 C   0  0  0  0  0  0  0  0  0  0  0  0
   -0.6267   -1.2407    0.8467 C   0  0  0  0  0  0  0  0  0  0  0  0
   -1.8503   -0.7365    0.0661 C   0  0  0  0  0  0  0  0  0  0  0  0
   -1.3178    0.3809   -0.7763 C   0  0  0  0  0  0  0  0  0  0  0  0
   -0.9417    1.5092    0.1631 C   0  0  0  0  0  0  0  0  0  0  0  0
    0.0848    0.9896    0.9503 O   0  0  0  0  0  0  0  0  0  0  0  0
    0.1118   -0.1256   -1.0438 C   0  0  0  0  0  0  0  0  0  0  0  0
    2.6975    1.1796    0.5784 H   0  0  0  0  0  0  0  0  0  0  0  0
    2.7080    0.0754   -0.9064 H   0  0  0  0  0  0  0  0  0  0  0  0
    3.6827   -0.2953    0.5320 H   0  0  0  0  0  0  0  0  0  0  0  0
   -0.8097   -1.2834    1.9194 H   0  0  0  0  0  0  0  0  0  0  0  0
   -0.3444   -2.2019    0.3903 H   0  0  0  0  0  0  0  0  0  0  0  0
   -2.3069   -1.5510   -0.5186 H   0  0  0  0  0  0  0  0  0  0  0  0
   -2.5540   -0.3540    0.8343 H   0  0  0  0  0  0  0  0  0  0  0  0
   -1.8595    0.6507   -1.6484 H   0  0  0  0  0  0  0  0  0  0  0  0
   -0.5078    2.3234   -0.4412 H   0  0  0  0  0  0  0  0  0  0  0  0
   -1.8027    1.8601    0.7649 H   0  0  0  0  0  0  0  0  0  0  0  0
    0.1070   -1.0937   -1.5330 H   0  0  0  0  0  0  0  0  0  0  0  0
    0.6887    0.6604   -1.5259 H   0  0  0  0  0  0  0  0  0  0  0  0
  1  2  1  0
  2  3  1  0
  3  4  1  0
  4  5  1  0
  5  6  1  0
  6  7  1  0
  7  8  1  0
  6  9  1  0
  8  3  1  0
  9  3  1  0
  1 10  1  0
  1 11  1  0
  1 12  1  0
  4 13  1  0
  4 14  1  0
  5 15  1  0
  5 16  1  0
  6 17  1  0
  7 18  1  0
  7 19  1  0
  9 20  1  0
  9 21  1  0
M  END
