
     RDKit          3D

 20 20  0  0  0  0  0  0  0  0999 V2000
    2.7762   -0.4049    0.0517 C   0  0  0  0  0  0  0  0  0  0  0  0
    1.4977   -0.7050    0.5139 O   0  0  0  0  0  0  0  0  0  0  0  0
    0.5712    0.0000   -0.2307 C   0  0  0  0  0  0  0  0  0  0  0  0
   -0.5670    0.5658    0.6084 C   0  0  0  0  0  0  0  0  0  0  0  0
   -0.9308    1.9914    0.3031 C   0  0  0  0  0  0  0  0  0  0  0  0
   -0.8179   -0.4950   -0.3993 C   0  0  0  0  0  0  0  0  0  0  0  0
   -1.2301   -1.8374    0.1890 C   0  0  0  0  0  0  0  0  0  0  0  0
   -1.4751   -0.0921   -1.5597 O   0  0  0  0  0  0  0  0  0  0  0  0
    2.9121    0.6937    0.1799 H   0  0  0  0  0  0  0  0  0  0  0  0
    2.7794   -0.5679   -1.0582 H   0  0  0  0  0  0  0  0  0  0  0  0
    3.5652   -0.9747    0.5586 H   0  0  0  0  0  0  0  0  0  0  0  0
    0.9784    0.6584   -1.0366 H   0  0  0  0  0  0  0  0  0  0  0  0
   -0.6041    0.3259    1.6937 H   0  0  0  0  0  0  0  0  0  0  0  0
   -0.6059    2.2549   -0.7323 H   0  0  0  0  0  0  0  0  0  0  0  0
   -0.3652    2.6672    0.9836 H   0  0  0  0  0  0  0  0  0  0  0  0
   -2.0264    2.1426    0.3650 H   0  0  0  0  0  0  0  0  0  0  0  0
   -2.1544   -2.1826   -0.3581 H   0  0  0  0  0  0  0  0  0  0  0  0
   -0.4740   -2.6171    0.0377 H   0  0  0  0  0  0  0  0  0  0  0  0
   -1.4821   -1.7437    1.2677 H   0  0  0  0  0  0  0  0  0  0  0  0
   -2.3472    0.3203   -1.3775 H   0  0  0  0  0  0  0  0  0  0  0  0
  1  2  1  0
  2  3  1  0
  3  4  1  0
  4  5  1  0
  4  6  1  0
  6  7  1  0
  6  8  1  0
  6  3  1  0
  1  9  1  0
  1 10  1  0
  1 11  1  0
  3 12  1  0
  4 13  1  0
  5 14  1  0
  5 15  1  0
  5 16  1  0
  7 17  1  0
  7 18  1  0
  7 19  1  0
  8 20  1  0
M  END
