
     RDKit          3D

 19 20  0  0  0  0  0  0  0  0999 V2000
   -1.6190    1.7087   -0.0608 C   0  0  0  0  0  0  0  0  0  0  0  0
   -1.0894    0.5566    0.5354 O   0  0  0  0  0  0  0  0  0  0  0  0
   -0.5422   -0.2260   -0.4481 C   0  0  0  0  0  0  0  0  0  0  0  0
   -1.2332   -1.6120   -0.3952 C   0  0  0  0  0  0  0  0  0  0  0  0
   -0.3627   -1.8476    0.6975 O   0  0  0  0  0  0  0  0  0  0  0  0
    0.5868   -1.1402   -0.0817 C   0  0  0  0  0  0  0  0  0  0  0  0
    1.7278   -0.5900    0.6943 C   0  0  0  0  0  0  0  0  0  0  0  0
    2.0004    0.8562    0.7192 C   0  0  0  0  0  0  0  0  0  0  0  0
    2.6486    0.1059   -0.2379 O   0  0  0  0  0  0  0  0  0  0  0  0
   -2.4110    1.3985   -0.8029 H   0  0  0  0  0  0  0  0  0  0  0  0
   -0.8328    2.2251   -0.6405 H   0  0  0  0  0  0  0  0  0  0  0  0
   -2.1203    2.3612    0.6830 H   0  0  0  0  0  0  0  0  0  0  0  0
   -0.5836    0.1638   -1.4820 H   0  0  0  0  0  0  0  0  0  0  0  0
   -2.2913   -1.5699   -0.1419 H   0  0  0  0  0  0  0  0  0  0  0  0
   -0.9476   -2.1588   -1.3175 H   0  0  0  0  0  0  0  0  0  0  0  0
    0.8442   -1.7930   -0.9444 H   0  0  0  0  0  0  0  0  0  0  0  0
    2.3511   -1.2685    1.3182 H   0  0  0  0  0  0  0  0  0  0  0  0
    2.6688    1.2999    1.4972 H   0  0  0  0  0  0  0  0  0  0  0  0
    1.2053    1.5302    0.4080 H   0  0  0  0  0  0  0  0  0  0  0  0
  1  2  1  0
  2  3  1  0
  3  4  1  0
  4  5  1  0
  5  6  1  0
  6  7  1  0
  7  8  1  0
  8  9  1  0
  6  3  1  0
  9  7  1  0
  1 10  1  0
  1 11  1  0
  1 12  1  0
  3 13  1  0
  4 14  1  0
  4 15  1  0
  6 16  1  0
  7 17  1  0
  8 18  1  0
  8 19  1  0
M  END
