
     RDKit          3D

 20 20  0  0  0  0  0  0  0  0999 V2000
    2.5985    0.3308    0.1956 C   0  0  0  0  0  0  0  0  0  0  0  0
    1.3660    0.8537    0.5198 O   0  0  0  0  0  0  0  0  0  0  0  0
    0.3219    0.0548    0.1373 C   0  0  0  0  0  0  0  0  0  0  0  0
    0.3248   -1.3257    0.7532 C   0  0  0  0  0  0  0  0  0  0  0  0
   -0.1678    0.2208   -1.2509 C   0  0  0  0  0  0  0  0  0  0  0  0
   -1.0304    0.6406   -0.0756 C   0  0  0  0  0  0  0  0  0  0  0  0
   -2.2696   -0.1775    0.1032 C   0  0  0  0  0  0  0  0  0  0  0  0
   -1.1332    1.9962    0.2212 O   0  0  0  0  0  0  0  0  0  0  0  0
    2.7416    0.1666   -0.8963 H   0  0  0  0  0  0  0  0  0  0  0  0
    2.8547   -0.6037    0.7001 H   0  0  0  0  0  0  0  0  0  0  0  0
    3.3845    1.0775    0.4811 H   0  0  0  0  0  0  0  0  0  0  0  0
    0.1884   -1.1983    1.8669 H   0  0  0  0  0  0  0  0  0  0  0  0
   -0.5427   -1.9322    0.4247 H   0  0  0  0  0  0  0  0  0  0  0  0
    1.2609   -1.8734    0.6066 H   0  0  0  0  0  0  0  0  0  0  0  0
   -0.4779   -0.6504   -1.8649 H   0  0  0  0  0  0  0  0  0  0  0  0
    0.2045    1.0652   -1.8552 H   0  0  0  0  0  0  0  0  0  0  0  0
   -2.2136   -1.1357   -0.4603 H   0  0  0  0  0  0  0  0  0  0  0  0
   -3.1333    0.3825   -0.3533 H   0  0  0  0  0  0  0  0  0  0  0  0
   -2.5379   -0.3497    1.1660 H   0  0  0  0  0  0  0  0  0  0  0  0
   -1.7394    2.4579   -0.4192 H   0  0  0  0  0  0  0  0  0  0  0  0
  1  2  1  0
  2  3  1  0
  3  4  1  0
  3  5  1  0
  5  6  1  0
  6  7  1  0
  6  8  1  0
  6  3  1  0
  1  9  1  0
  1 10  1  0
  1 11  1  0
  4 12  1  0
  4 13  1  0
  4 14  1  0
  5 15  1  0
  5 16  1  0
  7 17  1  0
  7 18  1  0
  7 19  1  0
  8 20  1  0
M  END
