
     RDKit          3D

 23 24  0  0  0  0  0  0  0  0999 V2000
    2.9789    0.5295   -0.3570 C   0  0  0  0  0  0  0  0  0  0  0  0
    1.6522    0.5564   -0.7910 O   0  0  0  0  0  0  0  0  0  0  0  0
    0.8176   -0.1727    0.0349 C   0  0  0  0  0  0  0  0  0  0  0  0
    0.1652   -1.3408   -0.6519 C   0  0  0  0  0  0  0  0  0  0  0  0
   -1.0357   -1.6011    0.2232 C   0  0  0  0  0  0  0  0  0  0  0  0
   -1.4658   -0.2681    0.7740 C   0  0  0  0  0  0  0  0  0  0  0  0
   -2.2162    0.6080   -0.1968 C   0  0  0  0  0  0  0  0  0  0  0  0
   -1.0308    1.5755   -0.1329 C   0  0  0  0  0  0  0  0  0  0  0  0
   -0.2500    0.6328    0.6972 C   0  0  0  0  0  0  0  0  0  0  0  0
    3.1003    0.9497    0.6621 H   0  0  0  0  0  0  0  0  0  0  0  0
    3.3858   -0.5066   -0.3167 H   0  0  0  0  0  0  0  0  0  0  0  0
    3.5612    1.1334   -1.0840 H   0  0  0  0  0  0  0  0  0  0  0  0
    1.4554   -0.6052    0.8618 H   0  0  0  0  0  0  0  0  0  0  0  0
    0.8096   -2.2604   -0.6168 H   0  0  0  0  0  0  0  0  0  0  0  0
   -0.1022   -1.1356   -1.7008 H   0  0  0  0  0  0  0  0  0  0  0  0
   -0.6958   -2.2151    1.0838 H   0  0  0  0  0  0  0  0  0  0  0  0
   -1.8311   -2.1152   -0.3533 H   0  0  0  0  0  0  0  0  0  0  0  0
   -1.8837   -0.3067    1.7791 H   0  0  0  0  0  0  0  0  0  0  0  0
   -2.3627    0.1410   -1.1827 H   0  0  0  0  0  0  0  0  0  0  0  0
   -3.1328    1.0460    0.2545 H   0  0  0  0  0  0  0  0  0  0  0  0
   -0.6792    1.8288   -1.1311 H   0  0  0  0  0  0  0  0  0  0  0  0
   -1.2964    2.4994    0.4557 H   0  0  0  0  0  0  0  0  0  0  0  0
    0.0562    1.0270    1.6885 H   0  0  0  0  0  0  0  0  0  0  0  0
  1  2  1  0
  2  3  1  0
  3  4  1  0
  4  5  1  0
  5  6  1  0
  6  7  1  0
  7  8  1  0
  8  9  1  0
  9  3  1  0
  9  6  1  0
  1 10  1  0
  1 11  1  0
  1 12  1  0
  3 13  1  0
  4 14  1  0
  4 15  1  0
  5 16  1  0
  5 17  1  0
  6 18  1  0
  7 19  1  0
  7 20  1  0
  8 21  1  0
  8 22  1  0
  9 23  1  0
M  END
