
     RDKit          3D

 21 21  0  0  0  0  0  0  0  0999 V2000
   -0.4030    1.8294    0.9546 C   0  0  0  0  0  0  0  0  0  0  0  0
   -0.0889    0.5064    1.1869 O   0  0  0  0  0  0  0  0  0  0  0  0
    0.3709   -0.1225    0.0636 C   0  0  0  0  0  0  0  0  0  0  0  0
    1.6018    0.4874   -0.5068 C   0  0  0  0  0  0  0  0  0  0  0  0
    2.6160    0.4329    0.4754 O   0  0  0  0  0  0  0  0  0  0  0  0
    0.4474   -1.6285    0.1442 C   0  0  0  0  0  0  0  0  0  0  0  0
   -0.1333   -1.7569   -1.1349 O   0  0  0  0  0  0  0  0  0  0  0  0
   -0.7059   -0.4932   -0.9302 C   0  0  0  0  0  0  0  0  0  0  0  0
   -2.0438   -0.6744   -0.2458 C   0  0  0  0  0  0  0  0  0  0  0  0
   -0.7847    2.3012    1.9080 H   0  0  0  0  0  0  0  0  0  0  0  0
    0.4854    2.4514    0.6590 H   0  0  0  0  0  0  0  0  0  0  0  0
   -1.1610    1.9934    0.1653 H   0  0  0  0  0  0  0  0  0  0  0  0
    1.9323   -0.0809   -1.4185 H   0  0  0  0  0  0  0  0  0  0  0  0
    1.5127    1.5256   -0.8117 H   0  0  0  0  0  0  0  0  0  0  0  0
    2.9276   -0.5248    0.4520 H   0  0  0  0  0  0  0  0  0  0  0  0
    1.4638   -2.0560    0.1487 H   0  0  0  0  0  0  0  0  0  0  0  0
   -0.1638   -2.0815    0.9541 H   0  0  0  0  0  0  0  0  0  0  0  0
   -0.7670    0.1223   -1.8278 H   0  0  0  0  0  0  0  0  0  0  0  0
   -2.5767   -1.5572   -0.7041 H   0  0  0  0  0  0  0  0  0  0  0  0
   -1.8419   -0.8956    0.8195 H   0  0  0  0  0  0  0  0  0  0  0  0
   -2.6878    0.2216   -0.3513 H   0  0  0  0  0  0  0  0  0  0  0  0
  1  2  1  0
  2  3  1  0
  3  4  1  0
  4  5  1  0
  3  6  1  0
  6  7  1  0
  7  8  1  0
  8  9  1  0
  8  3  1  0
  1 10  1  0
  1 11  1  0
  1 12  1  0
  4 13  1  0
  4 14  1  0
  5 15  1  0
  6 16  1  0
  6 17  1  0
  8 18  1  0
  9 19  1  0
  9 20  1  0
  9 21  1  0
M  END
