
     RDKit          3D

 19 20  0  0  0  0  0  0  0  0999 V2000
    2.4595    0.1352    0.6730 C   0  0  0  0  0  0  0  0  0  0  0  0
    1.6774   -0.2073   -0.3779 O   0  0  0  0  0  0  0  0  0  0  0  0
    0.3652   -0.1055   -0.2726 C   0  0  0  0  0  0  0  0  0  0  0  0
   -0.4249   -0.8541    0.7462 C   0  0  0  0  0  0  0  0  0  0  0  0
   -1.8385   -0.3600    0.3655 C   0  0  0  0  0  0  0  0  0  0  0  0
   -1.4597    0.5817   -0.7406 C   0  0  0  0  0  0  0  0  0  0  0  0
   -0.4765   -0.2658   -1.5219 C   0  0  0  0  0  0  0  0  0  0  0  0
   -0.2542    1.2682   -0.1700 C   0  0  0  0  0  0  0  0  0  0  0  0
    0.1344    2.3337    0.2076 O   0  0  0  0  0  0  0  0  0  0  0  0
    2.2728    1.2205    0.9204 H   0  0  0  0  0  0  0  0  0  0  0  0
    3.5335    0.1115    0.3275 H   0  0  0  0  0  0  0  0  0  0  0  0
    2.3719   -0.5027    1.5694 H   0  0  0  0  0  0  0  0  0  0  0  0
   -0.2464   -0.5122    1.7959 H   0  0  0  0  0  0  0  0  0  0  0  0
   -0.3626   -1.9509    0.6521 H   0  0  0  0  0  0  0  0  0  0  0  0
   -2.4515   -1.2002    0.0102 H   0  0  0  0  0  0  0  0  0  0  0  0
   -2.3001    0.2029    1.1751 H   0  0  0  0  0  0  0  0  0  0  0  0
   -2.1852    1.1535   -1.2501 H   0  0  0  0  0  0  0  0  0  0  0  0
    0.0029    0.2484   -2.3774 H   0  0  0  0  0  0  0  0  0  0  0  0
   -0.8180   -1.2969   -1.7324 H   0  0  0  0  0  0  0  0  0  0  0  0
  1  2  1  0
  2  3  1  0
  3  4  1  0
  4  5  1  0
  5  6  1  0
  6  7  1  0
  6  8  1  0
  8  9  2  0
  7  3  1  0
  8  3  1  0
  1 10  1  0
  1 11  1  0
  1 12  1  0
  4 13  1  0
  4 14  1  0
  5 15  1  0
  5 16  1  0
  6 17  1  0
  7 18  1  0
  7 19  1  0
M  END
