
     RDKit          3D

 22 22  0  0  0  0  0  0  0  0999 V2000
   -2.0684    1.3050    0.0378 C   0  0  0  0  0  0  0  0  0  0  0  0
   -1.9053    0.0063   -0.3052 O   0  0  0  0  0  0  0  0  0  0  0  0
   -0.6894   -0.5569   -0.2018 C   0  0  0  0  0  0  0  0  0  0  0  0
   -0.7112   -2.0298   -0.6323 C   0  0  0  0  0  0  0  0  0  0  0  0
    0.1068   -0.3890    1.0475 C   0  0  0  0  0  0  0  0  0  0  0  0
    1.3402   -0.1878    0.1503 C   0  0  0  0  0  0  0  0  0  0  0  0
    2.1934    0.9751    0.5714 C   0  0  0  0  0  0  0  0  0  0  0  0
    0.3785    0.1477   -0.9978 C   0  0  0  0  0  0  0  0  0  0  0  0
   -1.8107    1.5437    1.0985 H   0  0  0  0  0  0  0  0  0  0  0  0
   -3.1737    1.5320   -0.0547 H   0  0  0  0  0  0  0  0  0  0  0  0
   -1.5841    1.9947   -0.6611 H   0  0  0  0  0  0  0  0  0  0  0  0
   -0.7513   -2.0166   -1.7378 H   0  0  0  0  0  0  0  0  0  0  0  0
   -1.6000   -2.4829   -0.1829 H   0  0  0  0  0  0  0  0  0  0  0  0
    0.2076   -2.5392   -0.2704 H   0  0  0  0  0  0  0  0  0  0  0  0
    0.2801   -1.3061    1.6475 H   0  0  0  0  0  0  0  0  0  0  0  0
   -0.0773    0.5296    1.6319 H   0  0  0  0  0  0  0  0  0  0  0  0
    1.8585   -1.1273   -0.0797 H   0  0  0  0  0  0  0  0  0  0  0  0
    1.6767    1.8975    0.2425 H   0  0  0  0  0  0  0  0  0  0  0  0
    2.2528    0.9709    1.6769 H   0  0  0  0  0  0  0  0  0  0  0  0
    3.1920    0.8626    0.0984 H   0  0  0  0  0  0  0  0  0  0  0  0
    0.2361    1.2294   -1.1310 H   0  0  0  0  0  0  0  0  0  0  0  0
    0.6485   -0.3585   -1.9479 H   0  0  0  0  0  0  0  0  0  0  0  0
  1  2  1  0
  2  3  1  0
  3  4  1  0
  3  5  1  0
  5  6  1  0
  6  7  1  0
  6  8  1  0
  8  3  1  0
  1  9  1  0
  1 10  1  0
  1 11  1  0
  4 12  1  0
  4 13  1  0
  4 14  1  0
  5 15  1  0
  5 16  1  0
  6 17  1  0
  7 18  1  0
  7 19  1  0
  7 20  1  0
  8 21  1  0
  8 22  1  0
M  END
