
     RDKit          3D

 19 19  0  0  0  0  0  0  0  0999 V2000
    2.4000    0.2579    0.2624 C   0  0  0  0  0  0  0  0  0  0  0  0
    1.1023    0.0577    0.7230 O   0  0  0  0  0  0  0  0  0  0  0  0
    0.3236   -0.3176   -0.3609 C   0  0  0  0  0  0  0  0  0  0  0  0
   -0.2287   -1.7042   -0.0540 C   0  0  0  0  0  0  0  0  0  0  0  0
   -1.3861   -1.5172    0.6477 O   0  0  0  0  0  0  0  0  0  0  0  0
   -1.9046   -0.2871    0.3757 C   0  0  0  0  0  0  0  0  0  0  0  0
   -0.9479    0.4764   -0.4819 C   0  0  0  0  0  0  0  0  0  0  0  0
   -0.8209    1.8566    0.0145 C   0  0  0  0  0  0  0  0  0  0  0  0
   -0.7759    2.0705    1.1981 O   0  0  0  0  0  0  0  0  0  0  0  0
    3.0884    0.5644    1.0855 H   0  0  0  0  0  0  0  0  0  0  0  0
    2.3898    1.0582   -0.5270 H   0  0  0  0  0  0  0  0  0  0  0  0
    2.7777   -0.6711   -0.2065 H   0  0  0  0  0  0  0  0  0  0  0  0
    0.8774   -0.3735   -1.3099 H   0  0  0  0  0  0  0  0  0  0  0  0
   -0.4409   -2.2756   -0.9823 H   0  0  0  0  0  0  0  0  0  0  0  0
    0.4845   -2.2572    0.6103 H   0  0  0  0  0  0  0  0  0  0  0  0
   -2.0208    0.2556    1.3596 H   0  0  0  0  0  0  0  0  0  0  0  0
   -2.8833   -0.3051   -0.1461 H   0  0  0  0  0  0  0  0  0  0  0  0
   -1.2670    0.4341   -1.5419 H   0  0  0  0  0  0  0  0  0  0  0  0
   -0.7675    2.6771   -0.6662 H   0  0  0  0  0  0  0  0  0  0  0  0
  1  2  1  0
  2  3  1  0
  3  4  1  0
  4  5  1  0
  5  6  1  0
  6  7  1  0
  7  8  1  0
  8  9  2  0
  7  3  1  0
  1 10  1  0
  1 11  1  0
  1 12  1  0
  3 13  1  0
  4 14  1  0
  4 15  1  0
  6 16  1  0
  6 17  1  0
  7 18  1  0
  8 19  1  0
M  END
