
     RDKit          3D

 23 24  0  0  0  0  0  0  0  0999 V2000
    2.6980   -0.3023    0.9171 C   0  0  0  0  0  0  0  0  0  0  0  0
    1.6745   -1.2333    0.7607 O   0  0  0  0  0  0  0  0  0  0  0  0
    0.7020   -0.6085   -0.0644 C   0  0  0  0  0  0  0  0  0  0  0  0
    1.3329   -0.2522   -1.4015 C   0  0  0  0  0  0  0  0  0  0  0  0
   -0.1468    0.2892    0.6694 C   0  0  0  0  0  0  0  0  0  0  0  0
   -1.4442    0.0196    1.3923 C   0  0  0  0  0  0  0  0  0  0  0  0
   -1.9284   -0.1840   -0.0610 C   0  0  0  0  0  0  0  0  0  0  0  0
   -2.0435    1.0491   -0.8563 C   0  0  0  0  0  0  0  0  0  0  0  0
   -0.6667   -0.9917   -0.1076 C   0  0  0  0  0  0  0  0  0  0  0  0
    3.5165   -0.6998    1.5597 H   0  0  0  0  0  0  0  0  0  0  0  0
    3.1255    0.0229   -0.0769 H   0  0  0  0  0  0  0  0  0  0  0  0
    2.3614    0.6378    1.4024 H   0  0  0  0  0  0  0  0  0  0  0  0
    0.6135   -0.3453   -2.2379 H   0  0  0  0  0  0  0  0  0  0  0  0
    1.7033    0.7977   -1.2970 H   0  0  0  0  0  0  0  0  0  0  0  0
    2.1468   -0.9646   -1.6375 H   0  0  0  0  0  0  0  0  0  0  0  0
   -0.2677    1.2602    0.1010 H   0  0  0  0  0  0  0  0  0  0  0  0
   -1.8482    0.9021    1.8783 H   0  0  0  0  0  0  0  0  0  0  0  0
   -1.4487   -0.9213    1.9489 H   0  0  0  0  0  0  0  0  0  0  0  0
   -2.8332   -0.8102   -0.1391 H   0  0  0  0  0  0  0  0  0  0  0  0
   -3.0126    1.0638   -1.4456 H   0  0  0  0  0  0  0  0  0  0  0  0
   -1.2698    1.1773   -1.6606 H   0  0  0  0  0  0  0  0  0  0  0  0
   -2.1365    1.9808   -0.2242 H   0  0  0  0  0  0  0  0  0  0  0  0
   -0.8283   -1.8873    0.5800 H   0  0  0  0  0  0  0  0  0  0  0  0
  1  2  1  0
  2  3  1  0
  3  4  1  0
  3  5  1  0
  5  6  1  0
  6  7  1  0
  7  8  1  0
  7  9  1  0
  9  3  1  0
  9  5  1  0
  1 10  1  0
  1 11  1  0
  1 12  1  0
  4 13  1  0
  4 14  1  0
  4 15  1  0
  5 16  1  0
  6 17  1  0
  6 18  1  0
  7 19  1  0
  8 20  1  0
  8 21  1  0
  8 22  1  0
  9 23  1  0
M  END
