
     RDKit          3D

 19 20  0  0  0  0  0  0  0  0999 V2000
    2.6775    0.6559    0.6836 C   0  0  0  0  0  0  0  0  0  0  0  0
    1.2885    0.6030    0.6002 O   0  0  0  0  0  0  0  0  0  0  0  0
    0.8540   -0.1620   -0.4562 C   0  0  0  0  0  0  0  0  0  0  0  0
   -0.3414    0.2625   -1.1862 C   0  0  0  0  0  0  0  0  0  0  0  0
   -1.1919    1.2885   -0.4992 C   0  0  0  0  0  0  0  0  0  0  0  0
   -1.7898    0.7071    0.5235 C   0  0  0  0  0  0  0  0  0  0  0  0
   -1.4329   -0.7233    0.6496 C   0  0  0  0  0  0  0  0  0  0  0  0
   -2.5435   -1.5100    0.4377 O   0  0  0  0  0  0  0  0  0  0  0  0
   -0.3784   -0.9731   -0.3975 C   0  0  0  0  0  0  0  0  0  0  0  0
    3.0145   -0.4058    0.8158 H   0  0  0  0  0  0  0  0  0  0  0  0
    3.1438    0.9838   -0.2854 H   0  0  0  0  0  0  0  0  0  0  0  0
    2.9816    1.3127    1.5019 H   0  0  0  0  0  0  0  0  0  0  0  0
    1.6845   -0.6043   -1.0586 H   0  0  0  0  0  0  0  0  0  0  0  0
   -0.4667    0.1522   -2.2818 H   0  0  0  0  0  0  0  0  0  0  0  0
   -1.2555    2.3009   -0.8356 H   0  0  0  0  0  0  0  0  0  0  0  0
   -2.4654    1.2114    1.1979 H   0  0  0  0  0  0  0  0  0  0  0  0
   -1.0560   -0.9668    1.6775 H   0  0  0  0  0  0  0  0  0  0  0  0
   -2.3348   -2.1520   -0.2708 H   0  0  0  0  0  0  0  0  0  0  0  0
   -0.3884   -1.9807   -0.8163 H   0  0  0  0  0  0  0  0  0  0  0  0
  1  2  1  0
  2  3  1  0
  3  4  1  0
  4  5  1  0
  5  6  2  0
  6  7  1  0
  7  8  1  0
  7  9  1  0
  9  3  1  0
  9  4  1  0
  1 10  1  0
  1 11  1  0
  1 12  1  0
  3 13  1  0
  4 14  1  0
  5 15  1  0
  6 16  1  0
  7 17  1  0
  8 18  1  0
  9 19  1  0
M  END
