
     RDKit          3D

 21 22  0  0  0  0  0  0  0  0999 V2000
    2.6425    0.5688   -0.3876 C   0  0  0  0  0  0  0  0  0  0  0  0
    1.3134    1.0497   -0.4499 O   0  0  0  0  0  0  0  0  0  0  0  0
    0.5224    0.1532    0.1906 C   0  0  0  0  0  0  0  0  0  0  0  0
    0.4828   -1.2500   -0.3311 C   0  0  0  0  0  0  0  0  0  0  0  0
   -1.0011   -1.2772   -0.0189 C   0  0  0  0  0  0  0  0  0  0  0  0
   -1.8247   -1.4324   -1.1243 O   0  0  0  0  0  0  0  0  0  0  0  0
   -0.9110    0.2012    0.3485 C   0  0  0  0  0  0  0  0  0  0  0  0
   -1.8279    1.1744   -0.2953 C   0  0  0  0  0  0  0  0  0  0  0  0
   -0.0668    0.5070    1.5083 C   0  0  0  0  0  0  0  0  0  0  0  0
    2.7432   -0.4142   -0.8697 H   0  0  0  0  0  0  0  0  0  0  0  0
    2.9283    0.4116    0.6924 H   0  0  0  0  0  0  0  0  0  0  0  0
    3.3591    1.2872   -0.7954 H   0  0  0  0  0  0  0  0  0  0  0  0
    1.1087   -1.9133    0.2818 H   0  0  0  0  0  0  0  0  0  0  0  0
    0.6520   -1.3064   -1.4235 H   0  0  0  0  0  0  0  0  0  0  0  0
   -1.2295   -1.9447    0.8242 H   0  0  0  0  0  0  0  0  0  0  0  0
   -2.7579   -1.2637   -0.7948 H   0  0  0  0  0  0  0  0  0  0  0  0
   -2.7819    1.1869    0.2741 H   0  0  0  0  0  0  0  0  0  0  0  0
   -2.1061    0.7828   -1.3132 H   0  0  0  0  0  0  0  0  0  0  0  0
   -1.4077    2.1732   -0.4164 H   0  0  0  0  0  0  0  0  0  0  0  0
    0.1091   -0.2678    2.3094 H   0  0  0  0  0  0  0  0  0  0  0  0
    0.0532    1.5735    1.7908 H   0  0  0  0  0  0  0  0  0  0  0  0
  1  2  1  0
  2  3  1  0
  3  4  1  0
  4  5  1  0
  5  6  1  0
  5  7  1  0
  7  8  1  0
  7  9  1  0
  7  3  1  0
  9  3  1  0
  1 10  1  0
  1 11  1  0
  1 12  1  0
  4 13  1  0
  4 14  1  0
  5 15  1  0
  6 16  1  0
  8 17  1  0
  8 18  1  0
  8 19  1  0
  9 20  1  0
  9 21  1  0
M  END
