
     RDKit          3D

 19 20  0  0  0  0  0  0  0  0999 V2000
    2.9060    0.3593   -0.0818 C   0  0  0  0  0  0  0  0  0  0  0  0
    1.7629   -0.2047   -0.6355 O   0  0  0  0  0  0  0  0  0  0  0  0
    0.6782   -0.1846    0.2262 C   0  0  0  0  0  0  0  0  0  0  0  0
    0.2958   -1.5331    0.4061 O   0  0  0  0  0  0  0  0  0  0  0  0
   -1.0912   -1.6067    0.2173 C   0  0  0  0  0  0  0  0  0  0  0  0
   -1.4980   -0.2388    0.6340 C   0  0  0  0  0  0  0  0  0  0  0  0
   -1.7147    0.9800   -0.0045 C   0  0  0  0  0  0  0  0  0  0  0  0
   -2.8226    1.0723   -0.8811 O   0  0  0  0  0  0  0  0  0  0  0  0
   -0.5064    0.3988   -0.4290 C   0  0  0  0  0  0  0  0  0  0  0  0
    3.6995    0.2824   -0.8675 H   0  0  0  0  0  0  0  0  0  0  0  0
    3.2824   -0.3054    0.7513 H   0  0  0  0  0  0  0  0  0  0  0  0
    2.7808    1.3803    0.2709 H   0  0  0  0  0  0  0  0  0  0  0  0
    0.9253    0.2826    1.2086 H   0  0  0  0  0  0  0  0  0  0  0  0
   -1.2450   -1.7628   -0.8669 H   0  0  0  0  0  0  0  0  0  0  0  0
   -1.5225   -2.4142    0.8246 H   0  0  0  0  0  0  0  0  0  0  0  0
   -1.1626   -0.1365    1.7177 H   0  0  0  0  0  0  0  0  0  0  0  0
   -1.6399    1.9582    0.5576 H   0  0  0  0  0  0  0  0  0  0  0  0
   -2.5530    1.7238   -1.5769 H   0  0  0  0  0  0  0  0  0  0  0  0
   -0.5749   -0.0510   -1.4712 H   0  0  0  0  0  0  0  0  0  0  0  0
  1  2  1  0
  2  3  1  0
  3  4  1  0
  4  5  1  0
  5  6  1  0
  6  7  1  0
  7  8  1  0
  7  9  1  0
  9  3  1  0
  9  6  1  0
  1 10  1  0
  1 11  1  0
  1 12  1  0
  3 13  1  0
  5 14  1  0
  5 15  1  0
  6 16  1  0
  7 17  1  0
  8 18  1  0
  9 19  1  0
M  END
