
     RDKit          3D

 21 22  0  0  0  0  0  0  0  0999 V2000
    2.7715   -0.4222    0.6457 C   0  0  0  0  0  0  0  0  0  0  0  0
    1.4658   -0.6932    0.9082 O   0  0  0  0  0  0  0  0  0  0  0  0
    0.5358   -0.4043   -0.0094 C   0  0  0  0  0  0  0  0  0  0  0  0
   -0.4743   -1.4073   -0.4327 C   0  0  0  0  0  0  0  0  0  0  0  0
   -1.5181   -0.3096   -0.2959 C   0  0  0  0  0  0  0  0  0  0  0  0
   -1.7664    0.0997    1.0994 C   0  0  0  0  0  0  0  0  0  0  0  0
   -1.7418   -0.9448    2.0374 O   0  0  0  0  0  0  0  0  0  0  0  0
   -0.5099    0.5515    0.4962 C   0  0  0  0  0  0  0  0  0  0  0  0
   -0.4133    2.0082    0.1139 C   0  0  0  0  0  0  0  0  0  0  0  0
    3.3792   -0.7322    1.5230 H   0  0  0  0  0  0  0  0  0  0  0  0
    3.1647   -0.8003   -0.3050 H   0  0  0  0  0  0  0  0  0  0  0  0
    2.8845    0.6977    0.5997 H   0  0  0  0  0  0  0  0  0  0  0  0
    1.0062    0.0536   -0.9297 H   0  0  0  0  0  0  0  0  0  0  0  0
   -0.3679   -1.7942   -1.4834 H   0  0  0  0  0  0  0  0  0  0  0  0
   -0.7335   -2.2191    0.2389 H   0  0  0  0  0  0  0  0  0  0  0  0
   -1.9155    0.1863   -1.1682 H   0  0  0  0  0  0  0  0  0  0  0  0
   -2.5439    0.8351    1.2710 H   0  0  0  0  0  0  0  0  0  0  0  0
   -2.1202   -1.7773    1.6711 H   0  0  0  0  0  0  0  0  0  0  0  0
   -1.3998    2.5004    0.2659 H   0  0  0  0  0  0  0  0  0  0  0  0
    0.3822    2.4517    0.7385 H   0  0  0  0  0  0  0  0  0  0  0  0
   -0.0853    2.1204   -0.9499 H   0  0  0  0  0  0  0  0  0  0  0  0
  1  2  1  0
  2  3  1  0
  3  4  1  0
  4  5  1  0
  5  6  1  0
  6  7  1  0
  6  8  1  0
  8  9  1  0
  8  3  1  0
  8  5  1  0
  1 10  1  0
  1 11  1  0
  1 12  1  0
  3 13  1  0
  4 14  1  0
  4 15  1  0
  5 16  1  0
  6 17  1  0
  7 18  1  0
  9 19  1  0
  9 20  1  0
  9 21  1  0
M  END
