
     RDKit          3D

 23 24  0  0  0  0  0  0  0  0999 V2000
    2.7512    0.4715   -0.4520 C   0  0  0  0  0  0  0  0  0  0  0  0
    1.5212   -0.1020   -0.7828 O   0  0  0  0  0  0  0  0  0  0  0  0
    0.6288   -0.0815    0.2609 C   0  0  0  0  0  0  0  0  0  0  0  0
    0.3369   -1.5205    0.6657 C   0  0  0  0  0  0  0  0  0  0  0  0
   -1.0104   -1.8645    0.1225 C   0  0  0  0  0  0  0  0  0  0  0  0
   -1.5240   -0.6852   -0.6355 C   0  0  0  0  0  0  0  0  0  0  0  0
   -0.7120    0.4539   -0.0843 C   0  0  0  0  0  0  0  0  0  0  0  0
   -0.9529    1.7917   -0.6271 C   0  0  0  0  0  0  0  0  0  0  0  0
   -1.2877    1.4720    0.8082 C   0  0  0  0  0  0  0  0  0  0  0  0
    2.6765    1.5212   -0.1491 H   0  0  0  0  0  0  0  0  0  0  0  0
    3.2737   -0.1160    0.3575 H   0  0  0  0  0  0  0  0  0  0  0  0
    3.4025    0.4146   -1.3514 H   0  0  0  0  0  0  0  0  0  0  0  0
    1.0824    0.3997    1.1759 H   0  0  0  0  0  0  0  0  0  0  0  0
    1.0829   -2.2107    0.2368 H   0  0  0  0  0  0  0  0  0  0  0  0
    0.3594   -1.6534    1.7664 H   0  0  0  0  0  0  0  0  0  0  0  0
   -0.9819   -2.7500   -0.5689 H   0  0  0  0  0  0  0  0  0  0  0  0
   -1.7049   -2.0922    0.9650 H   0  0  0  0  0  0  0  0  0  0  0  0
   -1.2940   -0.7357   -1.7370 H   0  0  0  0  0  0  0  0  0  0  0  0
   -2.5799   -0.4686   -0.4975 H   0  0  0  0  0  0  0  0  0  0  0  0
   -0.1760    2.5196   -0.8702 H   0  0  0  0  0  0  0  0  0  0  0  0
   -1.8779    1.9275   -1.2554 H   0  0  0  0  0  0  0  0  0  0  0  0
   -2.3414    1.3134    1.1096 H   0  0  0  0  0  0  0  0  0  0  0  0
   -0.6726    1.9950    1.5426 H   0  0  0  0  0  0  0  0  0  0  0  0
  1  2  1  0
  2  3  1  0
  3  4  1  0
  4  5  1  0
  5  6  1  0
  6  7  1  0
  7  8  1  0
  8  9  1  0
  7  3  1  0
  9  7  1  0
  1 10  1  0
  1 11  1  0
  1 12  1  0
  3 13  1  0
  4 14  1  0
  4 15  1  0
  5 16  1  0
  5 17  1  0
  6 18  1  0
  6 19  1  0
  8 20  1  0
  8 21  1  0
  9 22  1  0
  9 23  1  0
M  END
