
     RDKit          3D

 21 22  0  0  0  0  0  0  0  0999 V2000
    2.6872    1.2500   -0.6286 C   0  0  0  0  0  0  0  0  0  0  0  0
    1.6566    0.3602   -0.9207 O   0  0  0  0  0  0  0  0  0  0  0  0
    1.0386   -0.1141    0.2359 C   0  0  0  0  0  0  0  0  0  0  0  0
    0.6509   -1.5785    0.1617 C   0  0  0  0  0  0  0  0  0  0  0  0
   -0.3574   -0.5309    0.1024 C   0  0  0  0  0  0  0  0  0  0  0  0
   -1.3744   -0.3817    1.1881 C   0  0  0  0  0  0  0  0  0  0  0  0
   -2.4086    0.5058    0.5687 C   0  0  0  0  0  0  0  0  0  0  0  0
   -2.0603    0.7549   -0.7306 O   0  0  0  0  0  0  0  0  0  0  0  0
   -1.1077   -0.1499   -1.1301 C   0  0  0  0  0  0  0  0  0  0  0  0
    2.2210    2.1029   -0.0676 H   0  0  0  0  0  0  0  0  0  0  0  0
    3.4597    0.7735   -0.0194 H   0  0  0  0  0  0  0  0  0  0  0  0
    3.0944    1.5907   -1.6031 H   0  0  0  0  0  0  0  0  0  0  0  0
    1.4655    0.2909    1.1718 H   0  0  0  0  0  0  0  0  0  0  0  0
    0.8393   -2.1338    1.0898 H   0  0  0  0  0  0  0  0  0  0  0  0
    0.8830   -2.1501   -0.7511 H   0  0  0  0  0  0  0  0  0  0  0  0
   -0.9862   -0.0442    2.1471 H   0  0  0  0  0  0  0  0  0  0  0  0
   -1.8476   -1.3858    1.3461 H   0  0  0  0  0  0  0  0  0  0  0  0
   -3.4287    0.1040    0.5941 H   0  0  0  0  0  0  0  0  0  0  0  0
   -2.4310    1.4728    1.1512 H   0  0  0  0  0  0  0  0  0  0  0  0
   -0.4447    0.3488   -1.8711 H   0  0  0  0  0  0  0  0  0  0  0  0
   -1.5496   -1.0855   -1.5627 H   0  0  0  0  0  0  0  0  0  0  0  0
  1  2  1  0
  2  3  1  0
  3  4  1  0
  4  5  1  0
  5  6  1  0
  6  7  1  0
  7  8  1  0
  8  9  1  0
  5  3  1  0
  9  5  1  0
  1 10  1  0
  1 11  1  0
  1 12  1  0
  3 13  1  0
  4 14  1  0
  4 15  1  0
  6 16  1  0
  6 17  1  0
  7 18  1  0
  7 19  1  0
  9 20  1  0
  9 21  1  0
M  END
