
     RDKit          3D

 21 23  0  0  0  0  0  0  0  0999 V2000
    2.4556    0.7297    0.0491 C   0  0  0  0  0  0  0  0  0  0  0  0
    1.4098    0.5786   -0.7922 O   0  0  0  0  0  0  0  0  0  0  0  0
    0.3513   -0.1128   -0.4789 C   0  0  0  0  0  0  0  0  0  0  0  0
   -0.7005   -0.1382   -1.5986 C   0  0  0  0  0  0  0  0  0  0  0  0
   -1.6792   -0.5766   -0.4972 C   0  0  0  0  0  0  0  0  0  0  0  0
   -0.9681   -1.3144    0.5566 C   0  0  0  0  0  0  0  0  0  0  0  0
    0.5062   -1.5110    0.1496 C   0  0  0  0  0  0  0  0  0  0  0  0
   -0.6739    0.1265    0.4664 C   0  0  0  0  0  0  0  0  0  0  0  0
   -1.2085    1.2086    1.2079 C   0  0  0  0  0  0  0  0  0  0  0  0
    2.9342   -0.2465    0.3370 H   0  0  0  0  0  0  0  0  0  0  0  0
    2.2599    1.3702    0.9369 H   0  0  0  0  0  0  0  0  0  0  0  0
    3.2704    1.2752   -0.5164 H   0  0  0  0  0  0  0  0  0  0  0  0
   -0.8807    0.8523   -2.0061 H   0  0  0  0  0  0  0  0  0  0  0  0
   -0.5394   -0.9658   -2.3115 H   0  0  0  0  0  0  0  0  0  0  0  0
   -2.6965   -0.2470   -0.4925 H   0  0  0  0  0  0  0  0  0  0  0  0
   -1.3727   -1.7769    1.4267 H   0  0  0  0  0  0  0  0  0  0  0  0
    0.6476   -2.2910   -0.6103 H   0  0  0  0  0  0  0  0  0  0  0  0
    1.2029   -1.5347    0.9763 H   0  0  0  0  0  0  0  0  0  0  0  0
   -1.8166    0.8256    2.0835 H   0  0  0  0  0  0  0  0  0  0  0  0
   -0.5359    1.9536    1.6421 H   0  0  0  0  0  0  0  0  0  0  0  0
   -1.9658    1.7947    0.6076 H   0  0  0  0  0  0  0  0  0  0  0  0
  1  2  1  0
  2  3  1  0
  3  4  1  0
  4  5  1  0
  5  6  1  0
  6  7  1  0
  6  8  1  0
  8  9  1  0
  7  3  1  0
  8  3  1  0
  8  5  1  0
  1 10  1  0
  1 11  1  0
  1 12  1  0
  4 13  1  0
  4 14  1  0
  5 15  1  0
  6 16  1  0
  7 17  1  0
  7 18  1  0
  9 19  1  0
  9 20  1  0
  9 21  1  0
M  END
