
     RDKit          3D

 19 20  0  0  0  0  0  0  0  0999 V2000
   -2.7659    0.2548   -0.1810 C   0  0  0  0  0  0  0  0  0  0  0  0
   -1.4666    0.4023   -0.6650 O   0  0  0  0  0  0  0  0  0  0  0  0
   -0.5102   -0.1524    0.1658 C   0  0  0  0  0  0  0  0  0  0  0  0
    0.2333   -1.2904   -0.4577 C   0  0  0  0  0  0  0  0  0  0  0  0
    1.3932   -1.0159   -1.0606 O   0  0  0  0  0  0  0  0  0  0  0  0
    2.2109   -0.0604   -0.6253 C   0  0  0  0  0  0  0  0  0  0  0  0
    1.7562    0.8024    0.4971 C   0  0  0  0  0  0  0  0  0  0  0  0
    1.3191    0.2705    1.6881 O   0  0  0  0  0  0  0  0  0  0  0  0
    0.3810    0.8997    0.7190 C   0  0  0  0  0  0  0  0  0  0  0  0
   -3.4471    0.7239   -0.9051 H   0  0  0  0  0  0  0  0  0  0  0  0
   -2.8787    0.7878    0.8053 H   0  0  0  0  0  0  0  0  0  0  0  0
   -3.0253   -0.8082    0.0237 H   0  0  0  0  0  0  0  0  0  0  0  0
   -1.0817   -0.5871    1.0404 H   0  0  0  0  0  0  0  0  0  0  0  0
    0.3639   -2.1418    0.2719 H   0  0  0  0  0  0  0  0  0  0  0  0
   -0.4678   -1.7207   -1.2350 H   0  0  0  0  0  0  0  0  0  0  0  0
    2.4719    0.6272   -1.4838 H   0  0  0  0  0  0  0  0  0  0  0  0
    3.2070   -0.5188   -0.3503 H   0  0  0  0  0  0  0  0  0  0  0  0
    2.4016    1.7203    0.6393 H   0  0  0  0  0  0  0  0  0  0  0  0
   -0.0948    1.8069    1.1134 H   0  0  0  0  0  0  0  0  0  0  0  0
  1  2  1  0
  2  3  1  0
  3  4  1  0
  4  5  1  0
  5  6  1  0
  6  7  1  0
  7  8  1  0
  8  9  1  0
  9  3  1  0
  9  7  1  0
  1 10  1  0
  1 11  1  0
  1 12  1  0
  3 13  1  0
  4 14  1  0
  4 15  1  0
  6 16  1  0
  6 17  1  0
  7 18  1  0
  9 19  1  0
M  END
