
     RDKit          3D

 23 23  0  0  0  0  0  0  0  0999 V2000
   -0.2191    2.4871   -0.0157 C   0  0  0  0  0  0  0  0  0  0  0  0
   -0.5887    1.4394   -0.8255 O   0  0  0  0  0  0  0  0  0  0  0  0
   -0.2992    0.1810   -0.3047 C   0  0  0  0  0  0  0  0  0  0  0  0
    1.1575    0.0454   -0.0785 C   0  0  0  0  0  0  0  0  0  0  0  0
    1.6373   -1.2485    0.4726 C   0  0  0  0  0  0  0  0  0  0  0  0
    3.0500   -1.1242    0.5775 O   0  0  0  0  0  0  0  0  0  0  0  0
   -1.1275   -0.2439    0.8601 C   0  0  0  0  0  0  0  0  0  0  0  0
   -2.1256   -0.8367   -0.1424 C   0  0  0  0  0  0  0  0  0  0  0  0
   -0.9627   -0.8743   -1.1420 C   0  0  0  0  0  0  0  0  0  0  0  0
   -0.7321    2.4477    0.9867 H   0  0  0  0  0  0  0  0  0  0  0  0
    0.8568    2.6715    0.0638 H   0  0  0  0  0  0  0  0  0  0  0  0
   -0.6580    3.4175   -0.4852 H   0  0  0  0  0  0  0  0  0  0  0  0
    1.7570    0.2427   -1.0167 H   0  0  0  0  0  0  0  0  0  0  0  0
    1.5330    0.8410    0.6323 H   0  0  0  0  0  0  0  0  0  0  0  0
    1.4363   -2.1142   -0.1644 H   0  0  0  0  0  0  0  0  0  0  0  0
    1.2495   -1.4289    1.5182 H   0  0  0  0  0  0  0  0  0  0  0  0
    3.4555   -1.1977   -0.3235 H   0  0  0  0  0  0  0  0  0  0  0  0
   -1.5507    0.6083    1.4386 H   0  0  0  0  0  0  0  0  0  0  0  0
   -0.6955   -1.0368    1.4818 H   0  0  0  0  0  0  0  0  0  0  0  0
   -2.4783   -1.8164    0.1734 H   0  0  0  0  0  0  0  0  0  0  0  0
   -2.8844   -0.0798   -0.3710 H   0  0  0  0  0  0  0  0  0  0  0  0
   -0.4576   -1.8413   -1.2105 H   0  0  0  0  0  0  0  0  0  0  0  0
   -1.3537   -0.5388   -2.1247 H   0  0  0  0  0  0  0  0  0  0  0  0
  1  2  1  0
  2  3  1  0
  3  4  1  0
  4  5  1  0
  5  6  1  0
  3  7  1  0
  7  8  1  0
  8  9  1  0
  9  3  1  0
  1 10  1  0
  1 11  1  0
  1 12  1  0
  4 13  1  0
  4 14  1  0
  5 15  1  0
  5 16  1  0
  6 17  1  0
  7 18  1  0
  7 19  1  0
  8 20  1  0
  8 21  1  0
  9 22  1  0
  9 23  1  0
M  END
