
     RDKit          3D

 19 20  0  0  0  0  0  0  0  0999 V2000
    2.6708    0.0023   -0.1528 C   0  0  0  0  0  0  0  0  0  0  0  0
    1.5794    0.1208    0.7146 O   0  0  0  0  0  0  0  0  0  0  0  0
    0.4390   -0.1284   -0.0283 C   0  0  0  0  0  0  0  0  0  0  0  0
   -0.5781    0.9640    0.0301 C   0  0  0  0  0  0  0  0  0  0  0  0
   -0.3462    1.8402   -1.0202 O   0  0  0  0  0  0  0  0  0  0  0  0
   -1.9055    0.2338   -0.1320 C   0  0  0  0  0  0  0  0  0  0  0  0
   -1.6884   -1.1583    0.4145 C   0  0  0  0  0  0  0  0  0  0  0  0
   -0.9696   -2.0836   -0.3076 O   0  0  0  0  0  0  0  0  0  0  0  0
   -0.2680   -1.3032    0.6088 C   0  0  0  0  0  0  0  0  0  0  0  0
    2.6977   -1.0348   -0.5820 H   0  0  0  0  0  0  0  0  0  0  0  0
    3.5962    0.2843    0.3515 H   0  0  0  0  0  0  0  0  0  0  0  0
    2.4943    0.6865   -1.0284 H   0  0  0  0  0  0  0  0  0  0  0  0
    0.6604   -0.3528   -1.0912 H   0  0  0  0  0  0  0  0  0  0  0  0
   -0.5329    1.5293    0.9846 H   0  0  0  0  0  0  0  0  0  0  0  0
   -0.6618    2.7649   -0.8109 H   0  0  0  0  0  0  0  0  0  0  0  0
   -2.6147    0.7369    0.5718 H   0  0  0  0  0  0  0  0  0  0  0  0
   -2.2657    0.2404   -1.1674 H   0  0  0  0  0  0  0  0  0  0  0  0
   -2.4307   -1.5932    1.1103 H   0  0  0  0  0  0  0  0  0  0  0  0
    0.1235   -1.7490    1.5346 H   0  0  0  0  0  0  0  0  0  0  0  0
  1  2  1  0
  2  3  1  0
  3  4  1  0
  4  5  1  0
  4  6  1  0
  6  7  1  0
  7  8  1  0
  8  9  1  0
  9  3  1  0
  9  7  1  0
  1 10  1  0
  1 11  1  0
  1 12  1  0
  3 13  1  0
  4 14  1  0
  5 15  1  0
  6 16  1  0
  6 17  1  0
  7 18  1  0
  9 19  1  0
M  END
