
     RDKit          3D

 23 24  0  0  0  0  0  0  0  0999 V2000
    3.0746   -0.5070   -0.2678 C   0  0  0  0  0  0  0  0  0  0  0  0
    2.0117   -0.0903    0.5567 O   0  0  0  0  0  0  0  0  0  0  0  0
    0.8422   -0.5004   -0.0528 C   0  0  0  0  0  0  0  0  0  0  0  0
   -0.2293   -1.0204    0.8500 C   0  0  0  0  0  0  0  0  0  0  0  0
   -0.3841    0.3877    1.3415 C   0  0  0  0  0  0  0  0  0  0  0  0
   -0.2469    0.5477   -0.1501 C   0  0  0  0  0  0  0  0  0  0  0  0
   -0.2374    1.6930   -0.8832 C   0  0  0  0  0  0  0  0  0  0  0  0
   -1.1941   -0.6231   -0.2590 C   0  0  0  0  0  0  0  0  0  0  0  0
   -2.6006   -0.3783    0.1694 C   0  0  0  0  0  0  0  0  0  0  0  0
    2.9771   -1.6275   -0.3163 H   0  0  0  0  0  0  0  0  0  0  0  0
    4.0454   -0.1905    0.1128 H   0  0  0  0  0  0  0  0  0  0  0  0
    2.8319   -0.1422   -1.2850 H   0  0  0  0  0  0  0  0  0  0  0  0
    0.9571   -1.0456   -1.0152 H   0  0  0  0  0  0  0  0  0  0  0  0
   -0.2565   -1.8686    1.3721 H   0  0  0  0  0  0  0  0  0  0  0  0
    0.4530    0.8203    1.8913 H   0  0  0  0  0  0  0  0  0  0  0  0
   -1.3775    0.5838    1.7637 H   0  0  0  0  0  0  0  0  0  0  0  0
   -1.2015    1.9312   -1.4260 H   0  0  0  0  0  0  0  0  0  0  0  0
    0.5329    1.7358   -1.7100 H   0  0  0  0  0  0  0  0  0  0  0  0
   -0.0358    2.6419   -0.3021 H   0  0  0  0  0  0  0  0  0  0  0  0
   -1.0454   -1.2366   -1.1674 H   0  0  0  0  0  0  0  0  0  0  0  0
   -3.2729   -0.8163   -0.6205 H   0  0  0  0  0  0  0  0  0  0  0  0
   -2.8498    0.6867    0.3044 H   0  0  0  0  0  0  0  0  0  0  0  0
   -2.7943   -0.9813    1.0934 H   0  0  0  0  0  0  0  0  0  0  0  0
  1  2  1  0
  2  3  1  0
  3  4  1  0
  4  5  1  0
  5  6  1  0
  6  7  1  0
  6  8  1  0
  8  9  1  0
  6  3  1  0
  8  4  1  0
  1 10  1  0
  1 11  1  0
  1 12  1  0
  3 13  1  0
  4 14  1  0
  5 15  1  0
  5 16  1  0
  7 17  1  0
  7 18  1  0
  7 19  1  0
  8 20  1  0
  9 21  1  0
  9 22  1  0
  9 23  1  0
M  END
