
     RDKit          3D

 21 23  0  0  0  0  0  0  0  0999 V2000
    2.2774    1.1072   -0.3711 C   0  0  0  0  0  0  0  0  0  0  0  0
    1.6180    0.0910   -1.0156 O   0  0  0  0  0  0  0  0  0  0  0  0
    0.4518   -0.1912   -0.4417 C   0  0  0  0  0  0  0  0  0  0  0  0
    0.4343   -0.6436    1.0119 C   0  0  0  0  0  0  0  0  0  0  0  0
   -0.9003   -1.2767    0.5959 C   0  0  0  0  0  0  0  0  0  0  0  0
   -0.1620   -1.5773   -0.7181 C   0  0  0  0  0  0  0  0  0  0  0  0
   -1.7836   -0.1556    0.1810 C   0  0  0  0  0  0  0  0  0  0  0  0
   -1.5095    1.2493    0.4844 C   0  0  0  0  0  0  0  0  0  0  0  0
   -0.7411    0.6866   -0.6390 C   0  0  0  0  0  0  0  0  0  0  0  0
    1.6487    2.0100   -0.3955 H   0  0  0  0  0  0  0  0  0  0  0  0
    2.4324    0.7971    0.7003 H   0  0  0  0  0  0  0  0  0  0  0  0
    3.2759    1.2394   -0.8285 H   0  0  0  0  0  0  0  0  0  0  0  0
    0.3706    0.1353    1.7625 H   0  0  0  0  0  0  0  0  0  0  0  0
    1.2027   -1.4032    1.1679 H   0  0  0  0  0  0  0  0  0  0  0  0
   -1.2562   -2.0989    1.1585 H   0  0  0  0  0  0  0  0  0  0  0  0
    0.5561   -2.3968   -0.6600 H   0  0  0  0  0  0  0  0  0  0  0  0
   -0.8896   -1.5853   -1.5414 H   0  0  0  0  0  0  0  0  0  0  0  0
   -2.6900   -0.4378   -0.3591 H   0  0  0  0  0  0  0  0  0  0  0  0
   -1.0062    1.5953    1.4105 H   0  0  0  0  0  0  0  0  0  0  0  0
   -2.3176    1.9668    0.1765 H   0  0  0  0  0  0  0  0  0  0  0  0
   -1.0118    0.8883   -1.6792 H   0  0  0  0  0  0  0  0  0  0  0  0
  1  2  1  0
  2  3  1  0
  3  4  1  0
  4  5  1  0
  5  6  1  0
  5  7  1  0
  7  8  1  0
  8  9  1  0
  6  3  1  0
  9  7  1  0
  9  3  1  0
  1 10  1  0
  1 11  1  0
  1 12  1  0
  4 13  1  0
  4 14  1  0
  5 15  1  0
  6 16  1  0
  6 17  1  0
  7 18  1  0
  8 19  1  0
  8 20  1  0
  9 21  1  0
M  END
