
     RDKit          3D

 18 18  0  0  0  0  0  0  0  0999 V2000
    2.6911   -0.1806    0.6752 C   0  0  0  0  0  0  0  0  0  0  0  0
    1.3543   -0.2743    1.0436 O   0  0  0  0  0  0  0  0  0  0  0  0
    0.4954   -0.0233   -0.0045 C   0  0  0  0  0  0  0  0  0  0  0  0
   -0.4048   -1.1543   -0.3089 C   0  0  0  0  0  0  0  0  0  0  0  0
   -1.7199   -1.0551   -0.2789 C   0  0  0  0  0  0  0  0  0  0  0  0
   -2.3776    0.2315    0.0713 C   0  0  0  0  0  0  0  0  0  0  0  0
   -1.5163    0.9414    0.8864 O   0  0  0  0  0  0  0  0  0  0  0  0
   -0.3042    1.2259    0.2867 C   0  0  0  0  0  0  0  0  0  0  0  0
    2.8630    0.8549    0.3068 H   0  0  0  0  0  0  0  0  0  0  0  0
    2.9641   -0.8727   -0.1255 H   0  0  0  0  0  0  0  0  0  0  0  0
    3.3723   -0.3095    1.5393 H   0  0  0  0  0  0  0  0  0  0  0  0
    1.1234    0.1978   -0.9086 H   0  0  0  0  0  0  0  0  0  0  0  0
    0.0265   -2.1081   -0.5683 H   0  0  0  0  0  0  0  0  0  0  0  0
   -2.3349   -1.9040   -0.5074 H   0  0  0  0  0  0  0  0  0  0  0  0
   -2.6387    0.7519   -0.8673 H   0  0  0  0  0  0  0  0  0  0  0  0
   -3.2998    0.0329    0.6329 H   0  0  0  0  0  0  0  0  0  0  0  0
   -0.5484    1.7291   -0.6904 H   0  0  0  0  0  0  0  0  0  0  0  0
    0.2546    1.9167    0.9403 H   0  0  0  0  0  0  0  0  0  0  0  0
  1  2  1  0
  2  3  1  0
  3  4  1  0
  4  5  2  0
  5  6  1  0
  6  7  1  0
  7  8  1  0
  8  3  1  0
  1  9  1  0
  1 10  1  0
  1 11  1  0
  3 12  1  0
  4 13  1  0
  5 14  1  0
  6 15  1  0
  6 16  1  0
  8 17  1  0
  8 18  1  0
M  END
