
     RDKit          3D

 23 24  0  0  0  0  0  0  0  0999 V2000
    2.4429   -0.4540   -0.5934 C   0  0  0  0  0  0  0  0  0  0  0  0
    1.4684    0.3623   -1.0942 O   0  0  0  0  0  0  0  0  0  0  0  0
    0.2798    0.4034   -0.5125 C   0  0  0  0  0  0  0  0  0  0  0  0
   -0.7656    1.3491   -1.1466 C   0  0  0  0  0  0  0  0  0  0  0  0
   -1.3293    1.3602    0.2633 C   0  0  0  0  0  0  0  0  0  0  0  0
   -1.7586   -0.0600    0.4571 C   0  0  0  0  0  0  0  0  0  0  0  0
   -0.5642   -0.7724   -0.2228 C   0  0  0  0  0  0  0  0  0  0  0  0
    0.0003   -1.7900    0.7289 C   0  0  0  0  0  0  0  0  0  0  0  0
    0.1219    1.3322    0.7090 C   0  0  0  0  0  0  0  0  0  0  0  0
    2.6737   -0.1952    0.4696 H   0  0  0  0  0  0  0  0  0  0  0  0
    2.1040   -1.5032   -0.6125 H   0  0  0  0  0  0  0  0  0  0  0  0
    3.3864   -0.3936   -1.1941 H   0  0  0  0  0  0  0  0  0  0  0  0
   -0.3479    2.2841   -1.5090 H   0  0  0  0  0  0  0  0  0  0  0  0
   -1.4760    0.8179   -1.8175 H   0  0  0  0  0  0  0  0  0  0  0  0
   -1.9418    2.1645    0.5636 H   0  0  0  0  0  0  0  0  0  0  0  0
   -2.6735   -0.3431   -0.0572 H   0  0  0  0  0  0  0  0  0  0  0  0
   -1.7549   -0.2861    1.5485 H   0  0  0  0  0  0  0  0  0  0  0  0
   -0.9077   -1.2856   -1.1431 H   0  0  0  0  0  0  0  0  0  0  0  0
    0.7907   -1.3919    1.3647 H   0  0  0  0  0  0  0  0  0  0  0  0
    0.2215   -2.7103    0.1767 H   0  0  0  0  0  0  0  0  0  0  0  0
   -0.8546   -2.0669    1.4231 H   0  0  0  0  0  0  0  0  0  0  0  0
    0.5705    2.3271    0.5315 H   0  0  0  0  0  0  0  0  0  0  0  0
    0.3140    0.8514    1.6670 H   0  0  0  0  0  0  0  0  0  0  0  0
  1  2  1  0
  2  3  1  0
  3  4  1  0
  4  5  1  0
  5  6  1  0
  6  7  1  0
  7  8  1  0
  5  9  1  0
  7  3  1  0
  9  3  1  0
  1 10  1  0
  1 11  1  0
  1 12  1  0
  4 13  1  0
  4 14  1  0
  5 15  1  0
  6 16  1  0
  6 17  1  0
  7 18  1  0
  8 19  1  0
  8 20  1  0
  8 21  1  0
  9 22  1  0
  9 23  1  0
M  END
