
     RDKit          3D

 21 22  0  0  0  0  0  0  0  0999 V2000
    2.9396    0.3462   -0.0486 C   0  0  0  0  0  0  0  0  0  0  0  0
    1.8582    0.1633   -0.8566 O   0  0  0  0  0  0  0  0  0  0  0  0
    0.6466   -0.0132   -0.2347 C   0  0  0  0  0  0  0  0  0  0  0  0
    0.1011    1.0403    0.6542 C   0  0  0  0  0  0  0  0  0  0  0  0
   -1.1612    1.1418    1.0435 C   0  0  0  0  0  0  0  0  0  0  0  0
   -2.1186    0.1256    0.5586 C   0  0  0  0  0  0  0  0  0  0  0  0
   -1.7905   -0.2155   -0.8564 C   0  0  0  0  0  0  0  0  0  0  0  0
   -0.3826   -0.6258   -1.1022 C   0  0  0  0  0  0  0  0  0  0  0  0
    0.2209   -1.4711    0.0024 C   0  0  0  0  0  0  0  0  0  0  0  0
    3.0660   -0.5432    0.6124 H   0  0  0  0  0  0  0  0  0  0  0  0
    3.8368    0.4421   -0.6940 H   0  0  0  0  0  0  0  0  0  0  0  0
    2.9098    1.2203    0.6029 H   0  0  0  0  0  0  0  0  0  0  0  0
    0.7748    1.8259    1.0458 H   0  0  0  0  0  0  0  0  0  0  0  0
   -1.4545    1.9678    1.7064 H   0  0  0  0  0  0  0  0  0  0  0  0
   -3.1280    0.5842    0.5729 H   0  0  0  0  0  0  0  0  0  0  0  0
   -2.1544   -0.7422    1.2432 H   0  0  0  0  0  0  0  0  0  0  0  0
   -2.4447   -1.0645   -1.1677 H   0  0  0  0  0  0  0  0  0  0  0  0
   -2.0741    0.6453   -1.4981 H   0  0  0  0  0  0  0  0  0  0  0  0
   -0.1736   -0.8728   -2.1627 H   0  0  0  0  0  0  0  0  0  0  0  0
    0.9118   -2.2615   -0.3162 H   0  0  0  0  0  0  0  0  0  0  0  0
   -0.3836   -1.6930    0.8948 H   0  0  0  0  0  0  0  0  0  0  0  0
  1  2  1  0
  2  3  1  0
  3  4  1  0
  4  5  2  0
  5  6  1  0
  6  7  1  0
  7  8  1  0
  8  9  1  0
  8  3  1  0
  9  3  1  0
  1 10  1  0
  1 11  1  0
  1 12  1  0
  4 13  1  0
  5 14  1  0
  6 15  1  0
  6 16  1  0
  7 17  1  0
  7 18  1  0
  8 19  1  0
  9 20  1  0
  9 21  1  0
M  END
