
     RDKit          3D

 23 23  0  0  0  0  0  0  0  0999 V2000
   -3.2668    0.1529    0.1690 C   0  0  0  0  0  0  0  0  0  0  0  0
   -2.0769   -0.2589    0.7605 O   0  0  0  0  0  0  0  0  0  0  0  0
   -1.1070   -0.3576   -0.1998 C   0  0  0  0  0  0  0  0  0  0  0  0
   -0.2234   -1.6089   -0.1270 C   0  0  0  0  0  0  0  0  0  0  0  0
    0.3490   -0.2943    0.1721 C   0  0  0  0  0  0  0  0  0  0  0  0
    0.6768   -0.0172    1.6299 C   0  0  0  0  0  0  0  0  0  0  0  0
    1.2032    0.4147   -0.8663 C   0  0  0  0  0  0  0  0  0  0  0  0
    2.6439    0.4691   -0.4828 C   0  0  0  0  0  0  0  0  0  0  0  0
    0.7243    1.7348   -0.9424 O   0  0  0  0  0  0  0  0  0  0  0  0
   -3.1750    1.1310   -0.3247 H   0  0  0  0  0  0  0  0  0  0  0  0
   -3.6527   -0.6047   -0.5613 H   0  0  0  0  0  0  0  0  0  0  0  0
   -4.0377    0.1707    0.9847 H   0  0  0  0  0  0  0  0  0  0  0  0
   -1.4155   -0.1064   -1.2332 H   0  0  0  0  0  0  0  0  0  0  0  0
   -0.4434   -2.3138    0.7176 H   0  0  0  0  0  0  0  0  0  0  0  0
   -0.0108   -2.1527   -1.0653 H   0  0  0  0  0  0  0  0  0  0  0  0
    1.4602    0.7507    1.7099 H   0  0  0  0  0  0  0  0  0  0  0  0
    1.0671   -0.9303    2.1318 H   0  0  0  0  0  0  0  0  0  0  0  0
   -0.2096    0.3125    2.2045 H   0  0  0  0  0  0  0  0  0  0  0  0
    1.0357   -0.0809   -1.8538 H   0  0  0  0  0  0  0  0  0  0  0  0
    3.0408    1.5046   -0.4062 H   0  0  0  0  0  0  0  0  0  0  0  0
    3.2277   -0.0073   -1.3155 H   0  0  0  0  0  0  0  0  0  0  0  0
    2.8492   -0.1051    0.4667 H   0  0  0  0  0  0  0  0  0  0  0  0
    1.3410    2.1971   -1.5685 H   0  0  0  0  0  0  0  0  0  0  0  0
  1  2  1  0
  2  3  1  0
  3  4  1  0
  4  5  1  0
  5  6  1  0
  5  7  1  0
  7  8  1  0
  7  9  1  0
  5  3  1  0
  1 10  1  0
  1 11  1  0
  1 12  1  0
  3 13  1  0
  4 14  1  0
  4 15  1  0
  6 16  1  0
  6 17  1  0
  6 18  1  0
  7 19  1  0
  8 20  1  0
  8 21  1  0
  8 22  1  0
  9 23  1  0
M  END
