
     RDKit          3D

 22 22  0  0  0  0  0  0  0  0999 V2000
    2.8708    0.9207   -0.0706 C   0  0  0  0  0  0  0  0  0  0  0  0
    1.4898    1.0078   -0.0387 O   0  0  0  0  0  0  0  0  0  0  0  0
    0.8616   -0.2184   -0.0292 C   0  0  0  0  0  0  0  0  0  0  0  0
    0.0863   -0.3317    1.2744 C   0  0  0  0  0  0  0  0  0  0  0  0
   -1.1441   -1.0916    0.8616 C   0  0  0  0  0  0  0  0  0  0  0  0
   -1.4980   -0.5084   -0.4607 C   0  0  0  0  0  0  0  0  0  0  0  0
   -2.1838    0.8200   -0.3904 C   0  0  0  0  0  0  0  0  0  0  0  0
   -0.1547   -0.3770   -1.1395 C   0  0  0  0  0  0  0  0  0  0  0  0
    3.3016    0.3881    0.7875 H   0  0  0  0  0  0  0  0  0  0  0  0
    3.1970    0.5336   -1.0557 H   0  0  0  0  0  0  0  0  0  0  0  0
    3.2487    1.9821   -0.0127 H   0  0  0  0  0  0  0  0  0  0  0  0
    1.5939   -1.0683   -0.0493 H   0  0  0  0  0  0  0  0  0  0  0  0
    0.6620   -0.8722    2.0418 H   0  0  0  0  0  0  0  0  0  0  0  0
   -0.1641    0.6763    1.6830 H   0  0  0  0  0  0  0  0  0  0  0  0
   -1.9527   -1.0632    1.6139 H   0  0  0  0  0  0  0  0  0  0  0  0
   -0.8522   -2.1476    0.7103 H   0  0  0  0  0  0  0  0  0  0  0  0
   -2.1614   -1.2162   -0.9891 H   0  0  0  0  0  0  0  0  0  0  0  0
   -1.5754    1.5316    0.1990 H   0  0  0  0  0  0  0  0  0  0  0  0
   -3.1793    0.7447    0.0465 H   0  0  0  0  0  0  0  0  0  0  0  0
   -2.3241    1.1699   -1.4463 H   0  0  0  0  0  0  0  0  0  0  0  0
   -0.1303    0.4625   -1.8464 H   0  0  0  0  0  0  0  0  0  0  0  0
    0.0082   -1.3427   -1.6895 H   0  0  0  0  0  0  0  0  0  0  0  0
  1  2  1  0
  2  3  1  0
  3  4  1  0
  4  5  1  0
  5  6  1  0
  6  7  1  0
  6  8  1  0
  8  3  1  0
  1  9  1  0
  1 10  1  0
  1 11  1  0
  3 12  1  0
  4 13  1  0
  4 14  1  0
  5 15  1  0
  5 16  1  0
  6 17  1  0
  7 18  1  0
  7 19  1  0
  7 20  1  0
  8 21  1  0
  8 22  1  0
M  END
