
     RDKit          3D

 15 15  0  0  0  0  0  0  0  0999 V2000
    2.2187    0.1609   -0.3033 C   0  0  0  0  0  0  0  0  0  0  0  0
    0.9837    0.5844    0.1758 O   0  0  0  0  0  0  0  0  0  0  0  0
   -0.0197   -0.3477   -0.1394 C   0  0  0  0  0  0  0  0  0  0  0  0
   -0.7990   -0.7395    1.1055 C   0  0  0  0  0  0  0  0  0  0  0  0
   -1.4908    0.4778    1.3937 O   0  0  0  0  0  0  0  0  0  0  0  0
   -1.9626    0.9076    0.1401 C   0  0  0  0  0  0  0  0  0  0  0  0
   -2.9879    1.6104   -0.0970 O   0  0  0  0  0  0  0  0  0  0  0  0
   -1.0598    0.4039   -0.8865 C   0  0  0  0  0  0  0  0  0  0  0  0
   -1.1088    0.5465   -2.1313 O   0  0  0  0  0  0  0  0  0  0  0  0
    2.2065    0.0356   -1.4170 H   0  0  0  0  0  0  0  0  0  0  0  0
    2.9578    0.9360    0.0078 H   0  0  0  0  0  0  0  0  0  0  0  0
    2.4239   -0.8255    0.1314 H   0  0  0  0  0  0  0  0  0  0  0  0
    0.3688   -1.2055   -0.6900 H   0  0  0  0  0  0  0  0  0  0  0  0
   -0.1674   -1.0761    1.9261 H   0  0  0  0  0  0  0  0  0  0  0  0
   -1.5634   -1.4688    0.7841 H   0  0  0  0  0  0  0  0  0  0  0  0
  1  2  1  0
  2  3  1  0
  3  4  1  0
  4  5  1  0
  5  6  1  0
  6  7  2  0
  6  8  1  0
  8  9  2  0
  8  3  1  0
  1 10  1  0
  1 11  1  0
  1 12  1  0
  3 13  1  0
  4 14  1  0
  4 15  1  0
M  END
