
     RDKit          3D

 19 20  0  0  0  0  0  0  0  0999 V2000
    2.4698    0.2167   -0.3240 C   0  0  0  0  0  0  0  0  0  0  0  0
    1.2628    0.8446   -0.5474 O   0  0  0  0  0  0  0  0  0  0  0  0
    0.2457    0.3067   -0.0584 C   0  0  0  0  0  0  0  0  0  0  0  0
   -0.0469    0.0213    1.3930 C   0  0  0  0  0  0  0  0  0  0  0  0
   -1.2587   -0.5012    0.6724 C   0  0  0  0  0  0  0  0  0  0  0  0
   -1.1819    0.7511   -0.1584 C   0  0  0  0  0  0  0  0  0  0  0  0
   -1.4828    1.9336    0.5049 O   0  0  0  0  0  0  0  0  0  0  0  0
   -0.2879   -1.0818   -0.3248 C   0  0  0  0  0  0  0  0  0  0  0  0
   -0.9263   -1.2315   -1.5611 O   0  0  0  0  0  0  0  0  0  0  0  0
    3.2788    0.8053   -0.8150 H   0  0  0  0  0  0  0  0  0  0  0  0
    2.7241    0.2403    0.7748 H   0  0  0  0  0  0  0  0  0  0  0  0
    2.4725   -0.8322   -0.7010 H   0  0  0  0  0  0  0  0  0  0  0  0
   -0.2365    0.8893    2.0287 H   0  0  0  0  0  0  0  0  0  0  0  0
    0.5969   -0.7314    1.8791 H   0  0  0  0  0  0  0  0  0  0  0  0
   -2.0685   -0.9349    1.0593 H   0  0  0  0  0  0  0  0  0  0  0  0
   -1.6653    0.6117   -1.1354 H   0  0  0  0  0  0  0  0  0  0  0  0
   -2.3881    2.2098    0.2293 H   0  0  0  0  0  0  0  0  0  0  0  0
    0.3233   -1.9157    0.0091 H   0  0  0  0  0  0  0  0  0  0  0  0
   -1.8310   -1.6016   -1.3618 H   0  0  0  0  0  0  0  0  0  0  0  0
  1  2  1  0
  2  3  1  0
  3  4  1  0
  4  5  1  0
  5  6  1  0
  6  7  1  0
  5  8  1  0
  8  9  1  0
  6  3  1  0
  8  3  1  0
  1 10  1  0
  1 11  1  0
  1 12  1  0
  4 13  1  0
  4 14  1  0
  5 15  1  0
  6 16  1  0
  7 17  1  0
  8 18  1  0
  9 19  1  0
M  END
