
     RDKit          3D

 19 20  0  0  0  0  0  0  0  0999 V2000
    2.4954    0.9797    0.7900 C   0  0  0  0  0  0  0  0  0  0  0  0
    1.2085    0.4441    0.7934 O   0  0  0  0  0  0  0  0  0  0  0  0
    0.8242    0.1965   -0.4997 C   0  0  0  0  0  0  0  0  0  0  0  0
    0.2122   -1.2042   -0.6777 C   0  0  0  0  0  0  0  0  0  0  0  0
   -0.6127   -1.6659    0.3212 O   0  0  0  0  0  0  0  0  0  0  0  0
   -1.5609   -0.6790    0.0298 C   0  0  0  0  0  0  0  0  0  0  0  0
   -1.9282    0.1628    1.2342 C   0  0  0  0  0  0  0  0  0  0  0  0
   -0.5962    0.0068   -0.8750 C   0  0  0  0  0  0  0  0  0  0  0  0
   -0.9559    0.2967   -2.1854 O   0  0  0  0  0  0  0  0  0  0  0  0
    2.5024    1.9387    0.2032 H   0  0  0  0  0  0  0  0  0  0  0  0
    3.2137    0.2948    0.2533 H   0  0  0  0  0  0  0  0  0  0  0  0
    2.9135    1.1143    1.8013 H   0  0  0  0  0  0  0  0  0  0  0  0
    1.5405    0.4414   -1.2879 H   0  0  0  0  0  0  0  0  0  0  0  0
    0.5721   -1.8401   -1.4841 H   0  0  0  0  0  0  0  0  0  0  0  0
   -2.4546   -1.0806   -0.5151 H   0  0  0  0  0  0  0  0  0  0  0  0
   -1.0182    0.2873    1.8580 H   0  0  0  0  0  0  0  0  0  0  0  0
   -2.6875   -0.3258    1.8690 H   0  0  0  0  0  0  0  0  0  0  0  0
   -2.2967    1.1733    0.9227 H   0  0  0  0  0  0  0  0  0  0  0  0
   -1.3715   -0.5408   -2.5513 H   0  0  0  0  0  0  0  0  0  0  0  0
  1  2  1  0
  2  3  1  0
  3  4  1  0
  4  5  1  0
  5  6  1  0
  6  7  1  0
  6  8  1  0
  8  9  1  0
  8  3  1  0
  8  4  1  0
  1 10  1  0
  1 11  1  0
  1 12  1  0
  3 13  1  0
  4 14  1  0
  6 15  1  0
  7 16  1  0
  7 17  1  0
  7 18  1  0
  9 19  1  0
M  END
