
     RDKit          3D

 17 18  0  0  0  0  0  0  0  0999 V2000
    2.6893   -0.4576   -0.2939 C   0  0  0  0  0  0  0  0  0  0  0  0
    1.5351    0.0710   -0.8616 O   0  0  0  0  0  0  0  0  0  0  0  0
    0.4501    0.0516   -0.0210 C   0  0  0  0  0  0  0  0  0  0  0  0
   -0.8729   -0.1960   -0.7180 C   0  0  0  0  0  0  0  0  0  0  0  0
   -1.9149   -0.8651    0.1403 C   0  0  0  0  0  0  0  0  0  0  0  0
   -2.4171    0.1762    0.9257 O   0  0  0  0  0  0  0  0  0  0  0  0
   -1.5552    1.2582    0.9536 C   0  0  0  0  0  0  0  0  0  0  0  0
   -1.6386    2.1918    1.7917 O   0  0  0  0  0  0  0  0  0  0  0  0
   -0.5703    1.1246   -0.1241 C   0  0  0  0  0  0  0  0  0  0  0  0
    2.5929   -1.5026    0.0156 H   0  0  0  0  0  0  0  0  0  0  0  0
    3.4905   -0.4114   -1.0606 H   0  0  0  0  0  0  0  0  0  0  0  0
    3.0240    0.1251    0.6033 H   0  0  0  0  0  0  0  0  0  0  0  0
    0.5954   -0.3704    0.9963 H   0  0  0  0  0  0  0  0  0  0  0  0
   -0.9190   -0.2485   -1.8035 H   0  0  0  0  0  0  0  0  0  0  0  0
   -1.4147   -1.6384    0.7350 H   0  0  0  0  0  0  0  0  0  0  0  0
   -2.6781   -1.3192   -0.5210 H   0  0  0  0  0  0  0  0  0  0  0  0
   -0.3964    2.0107   -0.7577 H   0  0  0  0  0  0  0  0  0  0  0  0
  1  2  1  0
  2  3  1  0
  3  4  1  0
  4  5  1  0
  5  6  1  0
  6  7  1  0
  7  8  2  0
  7  9  1  0
  9  3  1  0
  9  4  1  0
  1 10  1  0
  1 11  1  0
  1 12  1  0
  3 13  1  0
  4 14  1  0
  5 15  1  0
  5 16  1  0
  9 17  1  0
M  END
