
     RDKit          3D

 20 20  0  0  0  0  0  0  0  0999 V2000
    2.0178    1.1576   -0.1343 C   0  0  0  0  0  0  0  0  0  0  0  0
    1.2345    0.2857   -0.9125 O   0  0  0  0  0  0  0  0  0  0  0  0
    0.3184   -0.3830   -0.1166 C   0  0  0  0  0  0  0  0  0  0  0  0
   -0.6556    0.4931    0.6218 C   0  0  0  0  0  0  0  0  0  0  0  0
   -1.5213    1.1676   -0.4264 C   0  0  0  0  0  0  0  0  0  0  0  0
   -1.5439   -0.2880    1.4001 O   0  0  0  0  0  0  0  0  0  0  0  0
    0.7437   -1.6964    0.3981 C   0  0  0  0  0  0  0  0  0  0  0  0
   -0.2952   -1.6701   -0.6299 C   0  0  0  0  0  0  0  0  0  0  0  0
    2.7555    1.6956   -0.7628 H   0  0  0  0  0  0  0  0  0  0  0  0
    2.4774    0.6593    0.7250 H   0  0  0  0  0  0  0  0  0  0  0  0
    1.3660    1.9796    0.2860 H   0  0  0  0  0  0  0  0  0  0  0  0
   -0.1969    1.1948    1.3250 H   0  0  0  0  0  0  0  0  0  0  0  0
   -1.9911    0.3412   -1.0143 H   0  0  0  0  0  0  0  0  0  0  0  0
   -0.8310    1.7368   -1.0846 H   0  0  0  0  0  0  0  0  0  0  0  0
   -2.3018    1.8109    0.0162 H   0  0  0  0  0  0  0  0  0  0  0  0
   -2.3247   -0.5760    0.8604 H   0  0  0  0  0  0  0  0  0  0  0  0
    0.4508   -2.0588    1.4064 H   0  0  0  0  0  0  0  0  0  0  0  0
    1.7362   -2.0842    0.0893 H   0  0  0  0  0  0  0  0  0  0  0  0
   -1.3364   -1.9241   -0.3410 H   0  0  0  0  0  0  0  0  0  0  0  0
   -0.1025   -1.8414   -1.7056 H   0  0  0  0  0  0  0  0  0  0  0  0
  1  2  1  0
  2  3  1  0
  3  4  1  0
  4  5  1  0
  4  6  1  0
  3  7  1  0
  7  8  1  0
  8  3  1  0
  1  9  1  0
  1 10  1  0
  1 11  1  0
  4 12  1  0
  5 13  1  0
  5 14  1  0
  5 15  1  0
  6 16  1  0
  7 17  1  0
  7 18  1  0
  8 19  1  0
  8 20  1  0
M  END
