
     RDKit          3D

 19 20  0  0  0  0  0  0  0  0999 V2000
    2.3185   -0.9661   -0.5386 C   0  0  0  0  0  0  0  0  0  0  0  0
    0.9735   -0.8331   -0.9289 O   0  0  0  0  0  0  0  0  0  0  0  0
    0.4123    0.1281   -0.1249 C   0  0  0  0  0  0  0  0  0  0  0  0
   -0.1299    1.3033   -0.9366 C   0  0  0  0  0  0  0  0  0  0  0  0
   -1.0618    1.9043    0.0558 C   0  0  0  0  0  0  0  0  0  0  0  0
   -1.4660    0.9830    0.9229 C   0  0  0  0  0  0  0  0  0  0  0  0
   -0.8334   -0.2990    0.5721 C   0  0  0  0  0  0  0  0  0  0  0  0
   -1.2903   -1.5640    0.8549 C   0  0  0  0  0  0  0  0  0  0  0  0
   -1.6862   -1.0336   -0.4042 O   0  0  0  0  0  0  0  0  0  0  0  0
    2.2985   -1.2683    0.5200 H   0  0  0  0  0  0  0  0  0  0  0  0
    2.8483    0.0089   -0.5821 H   0  0  0  0  0  0  0  0  0  0  0  0
    2.8539   -1.7124   -1.1448 H   0  0  0  0  0  0  0  0  0  0  0  0
    1.1189    0.5594    0.6150 H   0  0  0  0  0  0  0  0  0  0  0  0
   -0.7520    0.9305   -1.7744 H   0  0  0  0  0  0  0  0  0  0  0  0
    0.6675    1.9907   -1.2522 H   0  0  0  0  0  0  0  0  0  0  0  0
   -1.3568    2.9435    0.0562 H   0  0  0  0  0  0  0  0  0  0  0  0
   -2.1437    1.1176    1.7562 H   0  0  0  0  0  0  0  0  0  0  0  0
   -2.1648   -1.7407    1.5019 H   0  0  0  0  0  0  0  0  0  0  0  0
   -0.6066   -2.4520    0.8316 H   0  0  0  0  0  0  0  0  0  0  0  0
  1  2  1  0
  2  3  1  0
  3  4  1  0
  4  5  1  0
  5  6  2  0
  6  7  1  0
  7  8  1  0
  8  9  1  0
  7  3  1  0
  9  7  1  0
  1 10  1  0
  1 11  1  0
  1 12  1  0
  3 13  1  0
  4 14  1  0
  4 15  1  0
  5 16  1  0
  6 17  1  0
  8 18  1  0
  8 19  1  0
M  END
