
     RDKit          3D

 21 22  0  0  0  0  0  0  0  0999 V2000
    2.4715    0.0903   -0.9130 C   0  0  0  0  0  0  0  0  0  0  0  0
    1.6243    0.6925   -0.0006 O   0  0  0  0  0  0  0  0  0  0  0  0
    0.4960   -0.0953    0.2819 C   0  0  0  0  0  0  0  0  0  0  0  0
    0.9319   -1.4453    0.8691 C   0  0  0  0  0  0  0  0  0  0  0  0
   -0.6324   -0.1228   -0.5563 C   0  0  0  0  0  0  0  0  0  0  0  0
   -2.0783   -0.3693   -0.3885 C   0  0  0  0  0  0  0  0  0  0  0  0
   -2.5686    0.9361   -0.1447 O   0  0  0  0  0  0  0  0  0  0  0  0
   -1.4849    1.6864    0.3639 C   0  0  0  0  0  0  0  0  0  0  0  0
   -0.5757    0.6316    0.8379 C   0  0  0  0  0  0  0  0  0  0  0  0
    2.8704   -0.8779   -0.5947 H   0  0  0  0  0  0  0  0  0  0  0  0
    3.3369    0.7766   -1.0316 H   0  0  0  0  0  0  0  0  0  0  0  0
    1.9903    0.0461   -1.9239 H   0  0  0  0  0  0  0  0  0  0  0  0
    1.5123   -1.3254    1.7891 H   0  0  0  0  0  0  0  0  0  0  0  0
   -0.0164   -1.9786    1.1748 H   0  0  0  0  0  0  0  0  0  0  0  0
    1.3900   -2.0928    0.1079 H   0  0  0  0  0  0  0  0  0  0  0  0
   -0.5082    0.5472   -1.4665 H   0  0  0  0  0  0  0  0  0  0  0  0
   -2.5759   -0.8518   -1.2261 H   0  0  0  0  0  0  0  0  0  0  0  0
   -2.2874   -0.9229    0.5728 H   0  0  0  0  0  0  0  0  0  0  0  0
   -1.7956    2.4272    1.1001 H   0  0  0  0  0  0  0  0  0  0  0  0
   -1.0263    2.1632   -0.5493 H   0  0  0  0  0  0  0  0  0  0  0  0
   -1.0740    0.0850    1.6977 H   0  0  0  0  0  0  0  0  0  0  0  0
  1  2  1  0
  2  3  1  0
  3  4  1  0
  3  5  1  0
  5  6  1  0
  6  7  1  0
  7  8  1  0
  8  9  1  0
  9  3  1  0
  9  5  1  0
  1 10  1  0
  1 11  1  0
  1 12  1  0
  4 13  1  0
  4 14  1  0
  4 15  1  0
  5 16  1  0
  6 17  1  0
  6 18  1  0
  8 19  1  0
  8 20  1  0
  9 21  1  0
M  END
