
     RDKit          3D

 19 21  0  0  0  0  0  0  0  0999 V2000
    1.9609    0.5221   -1.2654 C   0  0  0  0  0  0  0  0  0  0  0  0
    0.6862    0.8304   -0.8979 O   0  0  0  0  0  0  0  0  0  0  0  0
    0.1668    0.1285    0.0654 C   0  0  0  0  0  0  0  0  0  0  0  0
   -1.4231    0.6078    0.4308 C   0  0  0  0  0  0  0  0  0  0  0  0
   -2.0397   -0.4802    0.0364 C   0  0  0  0  0  0  0  0  0  0  0  0
   -1.0658   -1.5007   -0.4218 C   0  0  0  0  0  0  0  0  0  0  0  0
    0.0701   -1.1067    0.5962 C   0  0  0  0  0  0  0  0  0  0  0  0
    0.2313    0.1826    1.4222 C   0  0  0  0  0  0  0  0  0  0  0  0
   -0.4349    1.5749    0.8655 C   0  0  0  0  0  0  0  0  0  0  0  0
    2.7022    0.6390   -0.4235 H   0  0  0  0  0  0  0  0  0  0  0  0
    2.0832   -0.5336   -1.6347 H   0  0  0  0  0  0  0  0  0  0  0  0
    2.3065    1.1502   -2.1388 H   0  0  0  0  0  0  0  0  0  0  0  0
   -3.1187   -0.6364    0.0367 H   0  0  0  0  0  0  0  0  0  0  0  0
   -1.3587   -2.5293   -0.2406 H   0  0  0  0  0  0  0  0  0  0  0  0
   -0.6997   -1.2484   -1.4107 H   0  0  0  0  0  0  0  0  0  0  0  0
    0.8171   -1.8455    0.8335 H   0  0  0  0  0  0  0  0  0  0  0  0
   -0.4235   -0.0379    2.2725 H   0  0  0  0  0  0  0  0  0  0  0  0
    0.1968    2.0552    0.1626 H   0  0  0  0  0  0  0  0  0  0  0  0
   -0.6569    2.2278    1.7115 H   0  0  0  0  0  0  0  0  0  0  0  0
  1  2  1  0
  2  3  1  0
  3  4  1  0
  4  5  2  0
  5  6  1  0
  6  7  1  0
  7  8  1  0
  8  9  1  0
  7  3  1  0
  8  3  1  0
  9  4  1  0
  1 10  1  0
  1 11  1  0
  1 12  1  0
  5 13  1  0
  6 14  1  0
  6 15  1  0
  7 16  1  0
  8 17  1  0
  9 18  1  0
  9 19  1  0
M  END
