
     RDKit          3D

 19 19  0  0  0  0  0  0  0  0999 V2000
    1.6934   -1.7558   -0.0444 C   0  0  0  0  0  0  0  0  0  0  0  0
    1.1021   -0.6521    0.5540 O   0  0  0  0  0  0  0  0  0  0  0  0
    0.4177    0.1465   -0.3575 C   0  0  0  0  0  0  0  0  0  0  0  0
    0.8225    1.5918   -0.2707 C   0  0  0  0  0  0  0  0  0  0  0  0
    0.0495    1.9884    0.9615 C   0  0  0  0  0  0  0  0  0  0  0  0
    0.4267    2.7789    1.8447 O   0  0  0  0  0  0  0  0  0  0  0  0
   -1.1821    1.2265    0.8217 C   0  0  0  0  0  0  0  0  0  0  0  0
   -0.9905    0.1685    0.0685 C   0  0  0  0  0  0  0  0  0  0  0  0
   -1.9813   -0.8749   -0.3295 C   0  0  0  0  0  0  0  0  0  0  0  0
    2.2075   -2.3164    0.7722 H   0  0  0  0  0  0  0  0  0  0  0  0
    0.9316   -2.4554   -0.4725 H   0  0  0  0  0  0  0  0  0  0  0  0
    2.4683   -1.4954   -0.7841 H   0  0  0  0  0  0  0  0  0  0  0  0
    0.4779   -0.2558   -1.3899 H   0  0  0  0  0  0  0  0  0  0  0  0
    1.8985    1.7366   -0.1444 H   0  0  0  0  0  0  0  0  0  0  0  0
    0.4066    2.1037   -1.1677 H   0  0  0  0  0  0  0  0  0  0  0  0
   -2.1296    1.5173    1.2929 H   0  0  0  0  0  0  0  0  0  0  0  0
   -1.5166   -1.8890   -0.2840 H   0  0  0  0  0  0  0  0  0  0  0  0
   -2.2394   -0.6680   -1.3977 H   0  0  0  0  0  0  0  0  0  0  0  0
   -2.8628   -0.8955    0.3271 H   0  0  0  0  0  0  0  0  0  0  0  0
  1  2  1  0
  2  3  1  0
  3  4  1  0
  4  5  1  0
  5  6  2  0
  5  7  1  0
  7  8  2  0
  8  9  1  0
  8  3  1  0
  1 10  1  0
  1 11  1  0
  1 12  1  0
  3 13  1  0
  4 14  1  0
  4 15  1  0
  7 16  1  0
  9 17  1  0
  9 18  1  0
  9 19  1  0
M  END
