
     RDKit          3D

 17 18  0  0  0  0  0  0  0  0999 V2000
    2.3532   -0.8058    0.1707 C   0  0  0  0  0  0  0  0  0  0  0  0
    1.0717   -0.7000    0.6806 O   0  0  0  0  0  0  0  0  0  0  0  0
    0.1445   -0.2439   -0.2324 C   0  0  0  0  0  0  0  0  0  0  0  0
   -1.0218   -1.2161   -0.3120 C   0  0  0  0  0  0  0  0  0  0  0  0
   -1.9059   -0.0313    0.0569 C   0  0  0  0  0  0  0  0  0  0  0  0
   -1.6918    0.4229    1.3309 O   0  0  0  0  0  0  0  0  0  0  0  0
   -0.8357    0.7729    0.3178 C   0  0  0  0  0  0  0  0  0  0  0  0
   -0.6069    2.1999    0.1175 C   0  0  0  0  0  0  0  0  0  0  0  0
   -1.1724    3.0021    0.8413 O   0  0  0  0  0  0  0  0  0  0  0  0
    3.0001   -1.1785    0.9914 H   0  0  0  0  0  0  0  0  0  0  0  0
    2.7830    0.1786   -0.1279 H   0  0  0  0  0  0  0  0  0  0  0  0
    2.4248   -1.5458   -0.6625 H   0  0  0  0  0  0  0  0  0  0  0  0
    0.5023   -0.0175   -1.2388 H   0  0  0  0  0  0  0  0  0  0  0  0
   -1.2076   -1.6472   -1.2988 H   0  0  0  0  0  0  0  0  0  0  0  0
   -1.0500   -1.9575    0.5011 H   0  0  0  0  0  0  0  0  0  0  0  0
   -2.8330    0.1407   -0.4898 H   0  0  0  0  0  0  0  0  0  0  0  0
    0.0455    2.6266   -0.6461 H   0  0  0  0  0  0  0  0  0  0  0  0
  1  2  1  0
  2  3  1  0
  3  4  1  0
  4  5  1  0
  5  6  1  0
  6  7  1  0
  7  8  1  0
  8  9  2  0
  7  3  1  0
  7  5  1  0
  1 10  1  0
  1 11  1  0
  1 12  1  0
  3 13  1  0
  4 14  1  0
  4 15  1  0
  5 16  1  0
  8 17  1  0
M  END
