
     RDKit          3D

 19 19  0  0  0  0  0  0  0  0999 V2000
   -2.6515   -0.2662   -0.3335 C   0  0  0  0  0  0  0  0  0  0  0  0
   -1.4687   -0.6345    0.2971 O   0  0  0  0  0  0  0  0  0  0  0  0
   -0.4825    0.2649   -0.0237 C   0  0  0  0  0  0  0  0  0  0  0  0
    0.4492    0.6549    1.1380 C   0  0  0  0  0  0  0  0  0  0  0  0
    0.7926    2.0057    1.1983 O   0  0  0  0  0  0  0  0  0  0  0  0
    0.9446   -0.1457   -0.0242 C   0  0  0  0  0  0  0  0  0  0  0  0
    1.2515   -1.6212    0.1830 C   0  0  0  0  0  0  0  0  0  0  0  0
    1.9280    0.5585   -0.8934 C   0  0  0  0  0  0  0  0  0  0  0  0
    1.7048    1.7611   -1.0807 O   0  0  0  0  0  0  0  0  0  0  0  0
   -2.9834    0.7600   -0.0127 H   0  0  0  0  0  0  0  0  0  0  0  0
   -2.5209   -0.1973   -1.4516 H   0  0  0  0  0  0  0  0  0  0  0  0
   -3.4302   -1.0298   -0.1598 H   0  0  0  0  0  0  0  0  0  0  0  0
   -0.8037    1.0824   -0.6984 H   0  0  0  0  0  0  0  0  0  0  0  0
    0.2838    0.1388    2.1056 H   0  0  0  0  0  0  0  0  0  0  0  0
    0.1885    2.5096    0.5966 H   0  0  0  0  0  0  0  0  0  0  0  0
    2.3031   -1.7301    0.5061 H   0  0  0  0  0  0  0  0  0  0  0  0
    1.1951   -2.0918   -0.8379 H   0  0  0  0  0  0  0  0  0  0  0  0
    0.5233   -2.1171    0.8328 H   0  0  0  0  0  0  0  0  0  0  0  0
    2.7765    0.0977   -1.3417 H   0  0  0  0  0  0  0  0  0  0  0  0
  1  2  1  0
  2  3  1  0
  3  4  1  0
  4  5  1  0
  4  6  1  0
  6  7  1  0
  6  8  1  0
  8  9  2  0
  6  3  1  0
  1 10  1  0
  1 11  1  0
  1 12  1  0
  3 13  1  0
  4 14  1  0
  5 15  1  0
  7 16  1  0
  7 17  1  0
  7 18  1  0
  8 19  1  0
M  END
