
     RDKit          3D

 16 16  0  0  0  0  0  0  0  0999 V2000
    2.3705   -0.6445    0.6239 C   0  0  0  0  0  0  0  0  0  0  0  0
    1.0827   -0.4821    1.1263 O   0  0  0  0  0  0  0  0  0  0  0  0
    0.3180    0.0783    0.1066 C   0  0  0  0  0  0  0  0  0  0  0  0
   -0.3250    1.3317    0.5013 C   0  0  0  0  0  0  0  0  0  0  0  0
   -1.6374    1.1917    0.4441 C   0  0  0  0  0  0  0  0  0  0  0  0
   -2.0375   -0.1580    0.0089 C   0  0  0  0  0  0  0  0  0  0  0  0
   -0.7639   -0.8901   -0.1964 C   0  0  0  0  0  0  0  0  0  0  0  0
   -0.6770   -2.0403   -0.5408 O   0  0  0  0  0  0  0  0  0  0  0  0
    2.7499    0.3766    0.3314 H   0  0  0  0  0  0  0  0  0  0  0  0
    2.3420   -1.2199   -0.3427 H   0  0  0  0  0  0  0  0  0  0  0  0
    3.0458   -1.1485    1.3386 H   0  0  0  0  0  0  0  0  0  0  0  0
    0.9288    0.2432   -0.8192 H   0  0  0  0  0  0  0  0  0  0  0  0
    0.1829    2.2362    0.7952 H   0  0  0  0  0  0  0  0  0  0  0  0
   -2.3692    1.9721    0.6868 H   0  0  0  0  0  0  0  0  0  0  0  0
   -2.6444   -0.6966    0.7491 H   0  0  0  0  0  0  0  0  0  0  0  0
   -2.5662   -0.1499   -0.9817 H   0  0  0  0  0  0  0  0  0  0  0  0
  1  2  1  0
  2  3  1  0
  3  4  1  0
  4  5  2  0
  5  6  1  0
  6  7  1  0
  7  8  2  0
  7  3  1  0
  1  9  1  0
  1 10  1  0
  1 11  1  0
  3 12  1  0
  4 13  1  0
  5 14  1  0
  6 15  1  0
  6 16  1  0
M  END
