
     RDKit          3D

 19 19  0  0  0  0  0  0  0  0999 V2000
   -3.0207   -0.0163   -0.7920 C   0  0  0  0  0  0  0  0  0  0  0  0
   -1.7266   -0.4744   -0.4556 O   0  0  0  0  0  0  0  0  0  0  0  0
   -0.9599    0.5403    0.0499 C   0  0  0  0  0  0  0  0  0  0  0  0
    0.0319    0.3114    1.1430 C   0  0  0  0  0  0  0  0  0  0  0  0
    0.5008    0.5328   -0.2383 C   0  0  0  0  0  0  0  0  0  0  0  0
    1.0797   -0.6947   -0.9289 C   0  0  0  0  0  0  0  0  0  0  0  0
    2.4502   -0.5714   -1.1380 O   0  0  0  0  0  0  0  0  0  0  0  0
    3.2971   -0.4045   -0.0579 C   0  0  0  0  0  0  0  0  0  0  0  0
    2.7887   -0.3701    1.0869 O   0  0  0  0  0  0  0  0  0  0  0  0
   -3.5501    0.3924    0.0839 H   0  0  0  0  0  0  0  0  0  0  0  0
   -2.8700    0.8547   -1.4943 H   0  0  0  0  0  0  0  0  0  0  0  0
   -3.5889   -0.7628   -1.3417 H   0  0  0  0  0  0  0  0  0  0  0  0
   -1.4728    1.5302    0.1091 H   0  0  0  0  0  0  0  0  0  0  0  0
    0.0752   -0.6920    1.5802 H   0  0  0  0  0  0  0  0  0  0  0  0
    0.2039    1.1211    1.8993 H   0  0  0  0  0  0  0  0  0  0  0  0
    0.9128    1.4808   -0.5923 H   0  0  0  0  0  0  0  0  0  0  0  0
    0.9146   -1.6206   -0.3039 H   0  0  0  0  0  0  0  0  0  0  0  0
    0.5738   -0.8536   -1.9033 H   0  0  0  0  0  0  0  0  0  0  0  0
    4.3605   -0.3031   -0.1437 H   0  0  0  0  0  0  0  0  0  0  0  0
  1  2  1  0
  2  3  1  0
  3  4  1  0
  4  5  1  0
  5  6  1  0
  6  7  1  0
  7  8  1  0
  8  9  2  0
  5  3  1  0
  1 10  1  0
  1 11  1  0
  1 12  1  0
  3 13  1  0
  4 14  1  0
  4 15  1  0
  5 16  1  0
  6 17  1  0
  6 18  1  0
  8 19  1  0
M  END
