
     RDKit          3D

 19 19  0  0  0  0  0  0  0  0999 V2000
    2.7490   -0.3922   -0.4337 C   0  0  0  0  0  0  0  0  0  0  0  0
    1.8853    0.4112    0.2856 O   0  0  0  0  0  0  0  0  0  0  0  0
    0.5597    0.1588    0.0871 C   0  0  0  0  0  0  0  0  0  0  0  0
   -0.1807    1.2791   -0.5350 C   0  0  0  0  0  0  0  0  0  0  0  0
   -1.4758    1.1069   -0.7600 C   0  0  0  0  0  0  0  0  0  0  0  0
   -2.0928   -0.1896   -0.3755 C   0  0  0  0  0  0  0  0  0  0  0  0
   -1.5841   -0.6195    0.9326 C   0  0  0  0  0  0  0  0  0  0  0  0
   -2.3505   -1.2137    1.6974 O   0  0  0  0  0  0  0  0  0  0  0  0
   -0.1738   -0.3335    1.3036 C   0  0  0  0  0  0  0  0  0  0  0  0
    2.5032   -0.2081   -1.5216 H   0  0  0  0  0  0  0  0  0  0  0  0
    2.7092   -1.4523   -0.1836 H   0  0  0  0  0  0  0  0  0  0  0  0
    3.7833   -0.0345   -0.2533 H   0  0  0  0  0  0  0  0  0  0  0  0
    0.5072   -0.6920   -0.6579 H   0  0  0  0  0  0  0  0  0  0  0  0
    0.2918    2.2261   -0.8108 H   0  0  0  0  0  0  0  0  0  0  0  0
   -2.1127    1.8734   -1.2153 H   0  0  0  0  0  0  0  0  0  0  0  0
   -3.2137   -0.0865   -0.3339 H   0  0  0  0  0  0  0  0  0  0  0  0
   -1.9167   -0.9813   -1.1486 H   0  0  0  0  0  0  0  0  0  0  0  0
    0.3089   -1.2539    1.6875 H   0  0  0  0  0  0  0  0  0  0  0  0
   -0.1969    0.4016    2.1279 H   0  0  0  0  0  0  0  0  0  0  0  0
  1  2  1  0
  2  3  1  0
  3  4  1  0
  4  5  2  0
  5  6  1  0
  6  7  1  0
  7  8  2  0
  7  9  1  0
  9  3  1  0
  1 10  1  0
  1 11  1  0
  1 12  1  0
  3 13  1  0
  4 14  1  0
  5 15  1  0
  6 16  1  0
  6 17  1  0
  9 18  1  0
  9 19  1  0
M  END
