
     RDKit          3D

 23 23  0  0  0  0  0  0  0  0999 V2000
    3.1633    0.2281   -0.1583 C   0  0  0  0  0  0  0  0  0  0  0  0
    1.8170    0.5100   -0.4160 O   0  0  0  0  0  0  0  0  0  0  0  0
    0.9937   -0.3008    0.3218 C   0  0  0  0  0  0  0  0  0  0  0  0
   -0.1407    0.4187    1.0469 C   0  0  0  0  0  0  0  0  0  0  0  0
   -1.0712    0.1062   -0.1304 C   0  0  0  0  0  0  0  0  0  0  0  0
   -2.4383   -0.3128    0.2825 C   0  0  0  0  0  0  0  0  0  0  0  0
   -1.1077    1.2784   -1.0784 C   0  0  0  0  0  0  0  0  0  0  0  0
   -0.1061   -0.9868   -0.4982 C   0  0  0  0  0  0  0  0  0  0  0  0
   -0.4307   -2.1912    0.1483 O   0  0  0  0  0  0  0  0  0  0  0  0
    3.3066   -0.8406   -0.4427 H   0  0  0  0  0  0  0  0  0  0  0  0
    3.8130    0.8810   -0.7706 H   0  0  0  0  0  0  0  0  0  0  0  0
    3.4341    0.4113    0.9050 H   0  0  0  0  0  0  0  0  0  0  0  0
    1.5713   -0.9921    0.9518 H   0  0  0  0  0  0  0  0  0  0  0  0
    0.1105    1.4777    1.1585 H   0  0  0  0  0  0  0  0  0  0  0  0
   -0.4858   -0.1116    1.9649 H   0  0  0  0  0  0  0  0  0  0  0  0
   -2.8706    0.3503    1.0881 H   0  0  0  0  0  0  0  0  0  0  0  0
   -3.1404   -0.1877   -0.5791 H   0  0  0  0  0  0  0  0  0  0  0  0
   -2.5319   -1.3505    0.6175 H   0  0  0  0  0  0  0  0  0  0  0  0
   -1.0751    0.9065   -2.1353 H   0  0  0  0  0  0  0  0  0  0  0  0
   -0.2343    1.9513   -0.9039 H   0  0  0  0  0  0  0  0  0  0  0  0
   -2.0520    1.8253   -0.9088 H   0  0  0  0  0  0  0  0  0  0  0  0
    0.1201   -1.0954   -1.5589 H   0  0  0  0  0  0  0  0  0  0  0  0
   -0.6447   -1.9753    1.0953 H   0  0  0  0  0  0  0  0  0  0  0  0
  1  2  1  0
  2  3  1  0
  3  4  1  0
  4  5  1  0
  5  6  1  0
  5  7  1  0
  5  8  1  0
  8  9  1  0
  8  3  1  0
  1 10  1  0
  1 11  1  0
  1 12  1  0
  3 13  1  0
  4 14  1  0
  4 15  1  0
  6 16  1  0
  6 17  1  0
  6 18  1  0
  7 19  1  0
  7 20  1  0
  7 21  1  0
  8 22  1  0
  9 23  1  0
M  END
