
     RDKit          3D

 18 18  0  0  0  0  0  0  0  0999 V2000
   -2.1168    0.9138   -0.4456 C   0  0  0  0  0  0  0  0  0  0  0  0
   -1.5024    0.1114    0.4731 O   0  0  0  0  0  0  0  0  0  0  0  0
   -0.1931   -0.2407    0.1759 C   0  0  0  0  0  0  0  0  0  0  0  0
    0.7181    0.9570    0.0483 C   0  0  0  0  0  0  0  0  0  0  0  0
    2.1215    0.6060   -0.2594 C   0  0  0  0  0  0  0  0  0  0  0  0
    2.9605    1.4620   -0.4347 O   0  0  0  0  0  0  0  0  0  0  0  0
    0.2989   -1.4982    0.7759 C   0  0  0  0  0  0  0  0  0  0  0  0
    0.1026   -1.3863   -0.7167 C   0  0  0  0  0  0  0  0  0  0  0  0
   -3.1619    1.0996   -0.0574 H   0  0  0  0  0  0  0  0  0  0  0  0
   -2.1866    0.4164   -1.4438 H   0  0  0  0  0  0  0  0  0  0  0  0
   -1.6631    1.9277   -0.5106 H   0  0  0  0  0  0  0  0  0  0  0  0
    0.3190    1.5781   -0.8075 H   0  0  0  0  0  0  0  0  0  0  0  0
    0.6691    1.6069    0.9620 H   0  0  0  0  0  0  0  0  0  0  0  0
    2.4259   -0.4272   -0.3330 H   0  0  0  0  0  0  0  0  0  0  0  0
   -0.3997   -2.1510    1.3368 H   0  0  0  0  0  0  0  0  0  0  0  0
    1.3485   -1.5984    1.1327 H   0  0  0  0  0  0  0  0  0  0  0  0
   -0.7274   -2.0027   -1.1307 H   0  0  0  0  0  0  0  0  0  0  0  0
    0.9867   -1.3743   -1.3692 H   0  0  0  0  0  0  0  0  0  0  0  0
  1  2  1  0
  2  3  1  0
  3  4  1  0
  4  5  1  0
  5  6  2  0
  3  7  1  0
  7  8  1  0
  8  3  1  0
  1  9  1  0
  1 10  1  0
  1 11  1  0
  4 12  1  0
  4 13  1  0
  5 14  1  0
  7 15  1  0
  7 16  1  0
  8 17  1  0
  8 18  1  0
M  END
