
     RDKit          3D

 25 25  0  0  0  0  0  0  0  0999 V2000
   -2.9185    0.0030   -0.3616 C   0  0  0  0  0  0  0  0  0  0  0  0
   -1.7527    0.6563   -0.0085 O   0  0  0  0  0  0  0  0  0  0  0  0
   -0.6021   -0.0432   -0.3596 C   0  0  0  0  0  0  0  0  0  0  0  0
    0.1391    0.7546   -1.3801 C   0  0  0  0  0  0  0  0  0  0  0  0
    1.2771    1.5753   -0.8566 C   0  0  0  0  0  0  0  0  0  0  0  0
    2.1468    0.9189    0.1466 C   0  0  0  0  0  0  0  0  0  0  0  0
    1.6240   -0.3047    0.8067 C   0  0  0  0  0  0  0  0  0  0  0  0
    0.1267   -0.4086    0.8679 C   0  0  0  0  0  0  0  0  0  0  0  0
   -0.2546   -1.8234    1.2596 C   0  0  0  0  0  0  0  0  0  0  0  0
   -3.8157    0.5848   -0.0693 H   0  0  0  0  0  0  0  0  0  0  0  0
   -2.9473   -0.0642   -1.4710 H   0  0  0  0  0  0  0  0  0  0  0  0
   -3.0013   -1.0221    0.0181 H   0  0  0  0  0  0  0  0  0  0  0  0
   -0.9680   -0.9750   -0.8476 H   0  0  0  0  0  0  0  0  0  0  0  0
   -0.5839    1.3995   -1.9217 H   0  0  0  0  0  0  0  0  0  0  0  0
    0.5083    0.0401   -2.1484 H   0  0  0  0  0  0  0  0  0  0  0  0
    0.8339    2.5101   -0.4445 H   0  0  0  0  0  0  0  0  0  0  0  0
    1.8633    1.9186   -1.7385 H   0  0  0  0  0  0  0  0  0  0  0  0
    3.1130    0.6617   -0.3414 H   0  0  0  0  0  0  0  0  0  0  0  0
    2.4234    1.6534    0.9338 H   0  0  0  0  0  0  0  0  0  0  0  0
    1.9788   -0.3805    1.8589 H   0  0  0  0  0  0  0  0  0  0  0  0
    1.9960   -1.2273    0.3093 H   0  0  0  0  0  0  0  0  0  0  0  0
   -0.2376    0.2282    1.7318 H   0  0  0  0  0  0  0  0  0  0  0  0
   -0.5735   -1.9217    2.3040 H   0  0  0  0  0  0  0  0  0  0  0  0
   -1.0154   -2.2497    0.5673 H   0  0  0  0  0  0  0  0  0  0  0  0
    0.6402   -2.4843    1.1447 H   0  0  0  0  0  0  0  0  0  0  0  0
  1  2  1  0
  2  3  1  0
  3  4  1  0
  4  5  1  0
  5  6  1  0
  6  7  1  0
  7  8  1  0
  8  9  1  0
  8  3  1  0
  1 10  1  0
  1 11  1  0
  1 12  1  0
  3 13  1  0
  4 14  1  0
  4 15  1  0
  5 16  1  0
  5 17  1  0
  6 18  1  0
  6 19  1  0
  7 20  1  0
  7 21  1  0
  8 22  1  0
  9 23  1  0
  9 24  1  0
  9 25  1  0
M  END
