
     RDKit          3D

 18 18  0  0  0  0  0  0  0  0999 V2000
   -1.2056   -1.7797    0.5160 C   0  0  0  0  0  0  0  0  0  0  0  0
    0.0853   -1.3321    0.4685 O   0  0  0  0  0  0  0  0  0  0  0  0
    0.2804   -0.0549    0.0322 C   0  0  0  0  0  0  0  0  0  0  0  0
    1.7593    0.3477    0.0143 C   0  0  0  0  0  0  0  0  0  0  0  0
    2.4733   -0.4976   -0.8328 O   0  0  0  0  0  0  0  0  0  0  0  0
   -0.6220    1.0169    0.6727 C   0  0  0  0  0  0  0  0  0  0  0  0
   -0.6923    0.6939   -0.7890 C   0  0  0  0  0  0  0  0  0  0  0  0
   -0.2723    1.6960   -1.6530 O   0  0  0  0  0  0  0  0  0  0  0  0
   -1.6849   -1.7516   -0.5057 H   0  0  0  0  0  0  0  0  0  0  0  0
   -1.1567   -2.8569    0.8436 H   0  0  0  0  0  0  0  0  0  0  0  0
   -1.8624   -1.2850    1.2358 H   0  0  0  0  0  0  0  0  0  0  0  0
    2.1402    0.2686    1.0750 H   0  0  0  0  0  0  0  0  0  0  0  0
    1.8776    1.3835   -0.3215 H   0  0  0  0  0  0  0  0  0  0  0  0
    3.0615   -1.1045   -0.2873 H   0  0  0  0  0  0  0  0  0  0  0  0
   -0.1456    1.9902    0.9493 H   0  0  0  0  0  0  0  0  0  0  0  0
   -1.4061    0.6943    1.3685 H   0  0  0  0  0  0  0  0  0  0  0  0
   -1.6123    0.1943   -1.1038 H   0  0  0  0  0  0  0  0  0  0  0  0
   -1.0173    2.3770   -1.6826 H   0  0  0  0  0  0  0  0  0  0  0  0
  1  2  1  0
  2  3  1  0
  3  4  1  0
  4  5  1  0
  3  6  1  0
  6  7  1  0
  7  8  1  0
  7  3  1  0
  1  9  1  0
  1 10  1  0
  1 11  1  0
  4 12  1  0
  4 13  1  0
  5 14  1  0
  6 15  1  0
  6 16  1  0
  7 17  1  0
  8 18  1  0
M  END
