
     RDKit          3D

 23 24  0  0  0  0  0  0  0  0999 V2000
    3.1871   -0.3578   -0.2318 C   0  0  0  0  0  0  0  0  0  0  0  0
    1.9210   -0.9194   -0.1709 O   0  0  0  0  0  0  0  0  0  0  0  0
    0.9058   -0.0006   -0.1510 C   0  0  0  0  0  0  0  0  0  0  0  0
   -0.3374   -0.4355   -0.8975 C   0  0  0  0  0  0  0  0  0  0  0  0
   -1.1383    0.6455   -1.5447 C   0  0  0  0  0  0  0  0  0  0  0  0
   -2.0839    1.1096   -0.4592 C   0  0  0  0  0  0  0  0  0  0  0  0
   -1.2945    0.8842    0.8087 C   0  0  0  0  0  0  0  0  0  0  0  0
   -0.3702   -0.2620    0.5612 C   0  0  0  0  0  0  0  0  0  0  0  0
   -0.4744   -1.4009    1.5187 C   0  0  0  0  0  0  0  0  0  0  0  0
    3.9338   -1.1788   -0.2433 H   0  0  0  0  0  0  0  0  0  0  0  0
    3.3804    0.3481    0.6241 H   0  0  0  0  0  0  0  0  0  0  0  0
    3.3604    0.2358   -1.1529 H   0  0  0  0  0  0  0  0  0  0  0  0
    1.2254    1.0493   -0.1856 H   0  0  0  0  0  0  0  0  0  0  0  0
   -0.3892   -1.4558   -1.3127 H   0  0  0  0  0  0  0  0  0  0  0  0
   -1.6999    0.1902   -2.4080 H   0  0  0  0  0  0  0  0  0  0  0  0
   -0.5554    1.5000   -1.9073 H   0  0  0  0  0  0  0  0  0  0  0  0
   -2.3417    2.1825   -0.5466 H   0  0  0  0  0  0  0  0  0  0  0  0
   -2.9941    0.4536   -0.4562 H   0  0  0  0  0  0  0  0  0  0  0  0
   -2.0257    0.6803    1.6192 H   0  0  0  0  0  0  0  0  0  0  0  0
   -0.7222    1.8087    1.1088 H   0  0  0  0  0  0  0  0  0  0  0  0
   -1.2353   -2.1407    1.2245 H   0  0  0  0  0  0  0  0  0  0  0  0
    0.4826   -1.9431    1.6658 H   0  0  0  0  0  0  0  0  0  0  0  0
   -0.7341   -0.9935    2.5365 H   0  0  0  0  0  0  0  0  0  0  0  0
  1  2  1  0
  2  3  1  0
  3  4  1  0
  4  5  1  0
  5  6  1  0
  6  7  1  0
  7  8  1  0
  8  9  1  0
  8  3  1  0
  8  4  1  0
  1 10  1  0
  1 11  1  0
  1 12  1  0
  3 13  1  0
  4 14  1  0
  5 15  1  0
  5 16  1  0
  6 17  1  0
  6 18  1  0
  7 19  1  0
  7 20  1  0
  9 21  1  0
  9 22  1  0
  9 23  1  0
M  END
