
     RDKit          3D

 21 21  0  0  0  0  0  0  0  0999 V2000
   -2.3132    0.4345   -0.9555 C   0  0  0  0  0  0  0  0  0  0  0  0
   -1.2706   -0.4452   -0.8079 O   0  0  0  0  0  0  0  0  0  0  0  0
   -0.3707   -0.1333    0.1809 C   0  0  0  0  0  0  0  0  0  0  0  0
   -1.0557    0.0307    1.5487 C   0  0  0  0  0  0  0  0  0  0  0  0
    0.5659   -1.2969    0.3155 C   0  0  0  0  0  0  0  0  0  0  0  0
    1.7597   -1.1941   -0.5546 C   0  0  0  0  0  0  0  0  0  0  0  0
    2.2045    0.0193   -0.8188 C   0  0  0  0  0  0  0  0  0  0  0  0
    1.5177    1.1808   -0.2559 C   0  0  0  0  0  0  0  0  0  0  0  0
    0.1880    1.0720   -0.0669 O   0  0  0  0  0  0  0  0  0  0  0  0
   -2.9798    0.1008   -1.7706 H   0  0  0  0  0  0  0  0  0  0  0  0
   -2.9013    0.6211   -0.0597 H   0  0  0  0  0  0  0  0  0  0  0  0
   -1.8875    1.4260   -1.2701 H   0  0  0  0  0  0  0  0  0  0  0  0
   -1.6493   -0.8374    1.8172 H   0  0  0  0  0  0  0  0  0  0  0  0
   -1.6447    0.9806    1.5607 H   0  0  0  0  0  0  0  0  0  0  0  0
   -0.2359    0.1920    2.2865 H   0  0  0  0  0  0  0  0  0  0  0  0
    0.9218   -1.4549    1.3553 H   0  0  0  0  0  0  0  0  0  0  0  0
    0.0624   -2.2542    0.0277 H   0  0  0  0  0  0  0  0  0  0  0  0
    2.2665   -2.0609   -0.9705 H   0  0  0  0  0  0  0  0  0  0  0  0
    3.0651    0.1508   -1.4430 H   0  0  0  0  0  0  0  0  0  0  0  0
    1.7598    2.0810   -0.8661 H   0  0  0  0  0  0  0  0  0  0  0  0
    1.9973    1.3873    0.7471 H   0  0  0  0  0  0  0  0  0  0  0  0
  1  2  1  0
  2  3  1  0
  3  4  1  0
  3  5  1  0
  5  6  1  0
  6  7  2  0
  7  8  1  0
  8  9  1  0
  9  3  1  0
  1 10  1  0
  1 11  1  0
  1 12  1  0
  4 13  1  0
  4 14  1  0
  4 15  1  0
  5 16  1  0
  5 17  1  0
  6 18  1  0
  7 19  1  0
  8 20  1  0
  8 21  1  0
M  END
