
     RDKit          3D

 19 19  0  0  0  0  0  0  0  0999 V2000
    2.4523   -0.4681   -0.0162 C   0  0  0  0  0  0  0  0  0  0  0  0
    1.4215    0.2489    0.5442 O   0  0  0  0  0  0  0  0  0  0  0  0
    0.3089    0.4054   -0.1746 C   0  0  0  0  0  0  0  0  0  0  0  0
   -0.2237    1.7496   -0.3718 C   0  0  0  0  0  0  0  0  0  0  0  0
    0.2763    2.8554   -0.4758 O   0  0  0  0  0  0  0  0  0  0  0  0
   -1.7110    1.5569   -0.4404 C   0  0  0  0  0  0  0  0  0  0  0  0
   -1.8852    0.1526   -0.4610 O   0  0  0  0  0  0  0  0  0  0  0  0
   -0.9265   -0.2702    0.4403 C   0  0  0  0  0  0  0  0  0  0  0  0
   -0.7657   -1.7601    0.4876 C   0  0  0  0  0  0  0  0  0  0  0  0
    2.0619   -1.4924   -0.2271 H   0  0  0  0  0  0  0  0  0  0  0  0
    2.8244   -0.0684   -0.9680 H   0  0  0  0  0  0  0  0  0  0  0  0
    3.3166   -0.5889    0.6591 H   0  0  0  0  0  0  0  0  0  0  0  0
    0.4359   -0.1151   -1.1697 H   0  0  0  0  0  0  0  0  0  0  0  0
   -2.1550    2.0360   -1.3166 H   0  0  0  0  0  0  0  0  0  0  0  0
   -2.1221    1.8918    0.5214 H   0  0  0  0  0  0  0  0  0  0  0  0
   -1.1557    0.1615    1.4188 H   0  0  0  0  0  0  0  0  0  0  0  0
   -1.6581   -2.1803    0.9664 H   0  0  0  0  0  0  0  0  0  0  0  0
    0.1358   -1.9667    1.1236 H   0  0  0  0  0  0  0  0  0  0  0  0
   -0.6306   -2.1477   -0.5401 H   0  0  0  0  0  0  0  0  0  0  0  0
  1  2  1  0
  2  3  1  0
  3  4  1  0
  4  5  2  0
  4  6  1  0
  6  7  1  0
  7  8  1  0
  8  9  1  0
  8  3  1  0
  1 10  1  0
  1 11  1  0
  1 12  1  0
  3 13  1  0
  6 14  1  0
  6 15  1  0
  8 16  1  0
  9 17  1  0
  9 18  1  0
  9 19  1  0
M  END
