
     RDKit          3D

 21 22  0  0  0  0  0  0  0  0999 V2000
    2.7456    0.9515    0.2309 C   0  0  0  0  0  0  0  0  0  0  0  0
    1.4771    0.6226    0.7629 O   0  0  0  0  0  0  0  0  0  0  0  0
    0.6283    0.1659   -0.2376 C   0  0  0  0  0  0  0  0  0  0  0  0
   -0.5463    1.1017   -0.4384 C   0  0  0  0  0  0  0  0  0  0  0  0
   -1.7596    0.2345   -0.5274 C   0  0  0  0  0  0  0  0  0  0  0  0
   -2.2456   -0.2791    0.8248 C   0  0  0  0  0  0  0  0  0  0  0  0
   -1.4205   -1.1193   -0.0474 C   0  0  0  0  0  0  0  0  0  0  0  0
    0.0660   -1.1919    0.0645 C   0  0  0  0  0  0  0  0  0  0  0  0
    0.5160   -2.0624   -0.9448 O   0  0  0  0  0  0  0  0  0  0  0  0
    3.4119    1.3122    1.0281 H   0  0  0  0  0  0  0  0  0  0  0  0
    2.6242    1.7115   -0.5894 H   0  0  0  0  0  0  0  0  0  0  0  0
    3.1685    0.0056   -0.1614 H   0  0  0  0  0  0  0  0  0  0  0  0
    1.1983    0.1866   -1.2047 H   0  0  0  0  0  0  0  0  0  0  0  0
   -0.4264    1.7453   -1.3355 H   0  0  0  0  0  0  0  0  0  0  0  0
   -0.5820    1.7788    0.4329 H   0  0  0  0  0  0  0  0  0  0  0  0
   -2.4773    0.3450   -1.3508 H   0  0  0  0  0  0  0  0  0  0  0  0
   -1.8094    0.1572    1.7408 H   0  0  0  0  0  0  0  0  0  0  0  0
   -3.3189   -0.4500    0.8653 H   0  0  0  0  0  0  0  0  0  0  0  0
   -1.9236   -2.0220   -0.4698 H   0  0  0  0  0  0  0  0  0  0  0  0
    0.4139   -1.5709    1.0501 H   0  0  0  0  0  0  0  0  0  0  0  0
    0.2599   -1.6227   -1.7973 H   0  0  0  0  0  0  0  0  0  0  0  0
  1  2  1  0
  2  3  1  0
  3  4  1  0
  4  5  1  0
  5  6  1  0
  6  7  1  0
  7  8  1  0
  8  9  1  0
  8  3  1  0
  7  5  1  0
  1 10  1  0
  1 11  1  0
  1 12  1  0
  3 13  1  0
  4 14  1  0
  4 15  1  0
  5 16  1  0
  6 17  1  0
  6 18  1  0
  7 19  1  0
  8 20  1  0
  9 21  1  0
M  END
