
     RDKit          3D

 21 21  0  0  0  0  0  0  0  0999 V2000
   -0.1975    1.6542    1.4007 C   0  0  0  0  0  0  0  0  0  0  0  0
   -0.5697    0.4029    0.9970 O   0  0  0  0  0  0  0  0  0  0  0  0
    0.0070   -0.0634   -0.1630 C   0  0  0  0  0  0  0  0  0  0  0  0
    1.4838   -0.2362   -0.2697 C   0  0  0  0  0  0  0  0  0  0  0  0
    2.4655    0.0341    0.7748 C   0  0  0  0  0  0  0  0  0  0  0  0
    1.9109   -0.6522   -1.3584 O   0  0  0  0  0  0  0  0  0  0  0  0
   -0.6592    0.2813   -1.4848 C   0  0  0  0  0  0  0  0  0  0  0  0
   -0.8125   -1.0880   -0.9340 C   0  0  0  0  0  0  0  0  0  0  0  0
   -2.1920   -1.4348   -0.4335 C   0  0  0  0  0  0  0  0  0  0  0  0
   -0.4361    2.4302    0.6483 H   0  0  0  0  0  0  0  0  0  0  0  0
    0.8440    1.7850    1.7137 H   0  0  0  0  0  0  0  0  0  0  0  0
   -0.8231    1.8913    2.3120 H   0  0  0  0  0  0  0  0  0  0  0  0
    2.8852    1.0565    0.7081 H   0  0  0  0  0  0  0  0  0  0  0  0
    2.1340   -0.2145    1.8005 H   0  0  0  0  0  0  0  0  0  0  0  0
    3.3562   -0.6412    0.6016 H   0  0  0  0  0  0  0  0  0  0  0  0
   -0.0156    0.4055   -2.3898 H   0  0  0  0  0  0  0  0  0  0  0  0
   -1.5286    0.9574   -1.4928 H   0  0  0  0  0  0  0  0  0  0  0  0
   -0.2673   -1.9048   -1.4169 H   0  0  0  0  0  0  0  0  0  0  0  0
   -2.6656   -0.6014    0.1070 H   0  0  0  0  0  0  0  0  0  0  0  0
   -2.1138   -2.3368    0.1964 H   0  0  0  0  0  0  0  0  0  0  0  0
   -2.8056   -1.7251   -1.3171 H   0  0  0  0  0  0  0  0  0  0  0  0
  1  2  1  0
  2  3  1  0
  3  4  1  0
  4  5  1  0
  4  6  2  0
  3  7  1  0
  7  8  1  0
  8  9  1  0
  8  3  1  0
  1 10  1  0
  1 11  1  0
  1 12  1  0
  5 13  1  0
  5 14  1  0
  5 15  1  0
  7 16  1  0
  7 17  1  0
  8 18  1  0
  9 19  1  0
  9 20  1  0
  9 21  1  0
M  END
