
     RDKit          3D

 21 21  0  0  0  0  0  0  0  0999 V2000
    2.3921   -1.2324   -0.2918 C   0  0  0  0  0  0  0  0  0  0  0  0
    1.5754   -0.2182   -0.7805 O   0  0  0  0  0  0  0  0  0  0  0  0
    0.6587    0.2191    0.1354 C   0  0  0  0  0  0  0  0  0  0  0  0
    0.6539    1.6652    0.3681 C   0  0  0  0  0  0  0  0  0  0  0  0
   -0.5829    2.0375    0.6724 C   0  0  0  0  0  0  0  0  0  0  0  0
   -1.4995    0.8422    0.6619 C   0  0  0  0  0  0  0  0  0  0  0  0
   -0.7446   -0.0280   -0.3548 C   0  0  0  0  0  0  0  0  0  0  0  0
   -1.1552   -1.4612   -0.2706 C   0  0  0  0  0  0  0  0  0  0  0  0
   -0.9854    0.5384   -1.5976 O   0  0  0  0  0  0  0  0  0  0  0  0
    2.9228   -0.8016    0.5919 H   0  0  0  0  0  0  0  0  0  0  0  0
    1.8319   -2.1567   -0.0438 H   0  0  0  0  0  0  0  0  0  0  0  0
    3.1892   -1.4915   -1.0170 H   0  0  0  0  0  0  0  0  0  0  0  0
    0.7512   -0.3343    1.1062 H   0  0  0  0  0  0  0  0  0  0  0  0
    1.5208    2.3092    0.2998 H   0  0  0  0  0  0  0  0  0  0  0  0
   -0.9430    3.0375    0.9041 H   0  0  0  0  0  0  0  0  0  0  0  0
   -2.4821    1.0704    0.2491 H   0  0  0  0  0  0  0  0  0  0  0  0
   -1.4904    0.3119    1.6138 H   0  0  0  0  0  0  0  0  0  0  0  0
   -2.1902   -1.4858    0.1655 H   0  0  0  0  0  0  0  0  0  0  0  0
   -0.5171   -2.0148    0.4487 H   0  0  0  0  0  0  0  0  0  0  0  0
   -1.1514   -1.9705   -1.2708 H   0  0  0  0  0  0  0  0  0  0  0  0
   -1.7542    1.1639   -1.5900 H   0  0  0  0  0  0  0  0  0  0  0  0
  1  2  1  0
  2  3  1  0
  3  4  1  0
  4  5  2  0
  5  6  1  0
  6  7  1  0
  7  8  1  0
  7  9  1  0
  7  3  1  0
  1 10  1  0
  1 11  1  0
  1 12  1  0
  3 13  1  0
  4 14  1  0
  5 15  1  0
  6 16  1  0
  6 17  1  0
  8 18  1  0
  8 19  1  0
  8 20  1  0
  9 21  1  0
M  END
