
     RDKit          3D

 23 23  0  0  0  0  0  0  0  0999 V2000
    3.3400    0.0475    0.2306 C   0  0  0  0  0  0  0  0  0  0  0  0
    2.3014   -0.3814   -0.5139 O   0  0  0  0  0  0  0  0  0  0  0  0
    1.0637    0.0164   -0.2632 C   0  0  0  0  0  0  0  0  0  0  0  0
    0.4425    0.7846   -1.4076 C   0  0  0  0  0  0  0  0  0  0  0  0
   -0.8753    0.6892   -1.3462 C   0  0  0  0  0  0  0  0  0  0  0  0
   -1.2257   -0.1384   -0.1703 C   0  0  0  0  0  0  0  0  0  0  0  0
   -2.4640   -0.9610   -0.3772 C   0  0  0  0  0  0  0  0  0  0  0  0
   -1.4017    0.7758    1.0150 C   0  0  0  0  0  0  0  0  0  0  0  0
    0.0034   -1.0151   -0.0365 C   0  0  0  0  0  0  0  0  0  0  0  0
    3.3415   -0.1648    1.2870 H   0  0  0  0  0  0  0  0  0  0  0  0
    3.4338    1.1657    0.1060 H   0  0  0  0  0  0  0  0  0  0  0  0
    4.2876   -0.3594   -0.2018 H   0  0  0  0  0  0  0  0  0  0  0  0
    1.0265    0.7129    0.6011 H   0  0  0  0  0  0  0  0  0  0  0  0
    1.0510    1.3171   -2.1407 H   0  0  0  0  0  0  0  0  0  0  0  0
   -1.5158    1.1699   -2.0781 H   0  0  0  0  0  0  0  0  0  0  0  0
   -3.3263   -0.2860   -0.4525 H   0  0  0  0  0  0  0  0  0  0  0  0
   -2.6026   -1.5815    0.5330 H   0  0  0  0  0  0  0  0  0  0  0  0
   -2.3736   -1.5939   -1.2802 H   0  0  0  0  0  0  0  0  0  0  0  0
   -0.9432    1.7673    0.8186 H   0  0  0  0  0  0  0  0  0  0  0  0
   -1.0392    0.2998    1.9280 H   0  0  0  0  0  0  0  0  0  0  0  0
   -2.5036    0.9696    1.1053 H   0  0  0  0  0  0  0  0  0  0  0  0
   -0.0854   -1.7633   -0.8315 H   0  0  0  0  0  0  0  0  0  0  0  0
    0.0651   -1.4712    0.9783 H   0  0  0  0  0  0  0  0  0  0  0  0
  1  2  1  0
  2  3  1  0
  3  4  1  0
  4  5  2  0
  5  6  1  0
  6  7  1  0
  6  8  1  0
  6  9  1  0
  9  3  1  0
  1 10  1  0
  1 11  1  0
  1 12  1  0
  3 13  1  0
  4 14  1  0
  5 15  1  0
  7 16  1  0
  7 17  1  0
  7 18  1  0
  8 19  1  0
  8 20  1  0
  8 21  1  0
  9 22  1  0
  9 23  1  0
M  END
