
     RDKit          3D

 19 20  0  0  0  0  0  0  0  0999 V2000
    2.9070    0.0523    0.1026 C   0  0  0  0  0  0  0  0  0  0  0  0
    1.7072   -0.2495   -0.5593 O   0  0  0  0  0  0  0  0  0  0  0  0
    0.5956   -0.0254    0.2516 C   0  0  0  0  0  0  0  0  0  0  0  0
   -0.2562    1.0058   -0.4252 C   0  0  0  0  0  0  0  0  0  0  0  0
   -1.6924    0.9890    0.0165 C   0  0  0  0  0  0  0  0  0  0  0  0
   -2.0022    0.4607    1.2583 O   0  0  0  0  0  0  0  0  0  0  0  0
   -2.2184   -0.3472    0.0503 C   0  0  0  0  0  0  0  0  0  0  0  0
   -1.1988   -1.4412   -0.1405 C   0  0  0  0  0  0  0  0  0  0  0  0
   -0.0143   -1.2230    0.4813 O   0  0  0  0  0  0  0  0  0  0  0  0
    2.9341    1.1234    0.4170 H   0  0  0  0  0  0  0  0  0  0  0  0
    3.7333   -0.1204   -0.6058 H   0  0  0  0  0  0  0  0  0  0  0  0
    2.9411   -0.6081    0.9950 H   0  0  0  0  0  0  0  0  0  0  0  0
    0.9935    0.3443    1.2332 H   0  0  0  0  0  0  0  0  0  0  0  0
   -0.2314    0.8580   -1.5230 H   0  0  0  0  0  0  0  0  0  0  0  0
    0.1514    2.0234   -0.1816 H   0  0  0  0  0  0  0  0  0  0  0  0
   -2.3029    1.7972   -0.4115 H   0  0  0  0  0  0  0  0  0  0  0  0
   -3.2847   -0.6374    0.0183 H   0  0  0  0  0  0  0  0  0  0  0  0
   -1.1132   -1.6288   -1.2475 H   0  0  0  0  0  0  0  0  0  0  0  0
   -1.6486   -2.3730    0.2702 H   0  0  0  0  0  0  0  0  0  0  0  0
  1  2  1  0
  2  3  1  0
  3  4  1  0
  4  5  1  0
  5  6  1  0
  6  7  1  0
  7  8  1  0
  8  9  1  0
  9  3  1  0
  7  5  1  0
  1 10  1  0
  1 11  1  0
  1 12  1  0
  3 13  1  0
  4 14  1  0
  4 15  1  0
  5 16  1  0
  7 17  1  0
  8 18  1  0
  8 19  1  0
M  END
