
     RDKit          3D

 23 23  0  0  0  0  0  0  0  0999 V2000
    2.9165   -0.1584   -0.2447 C   0  0  0  0  0  0  0  0  0  0  0  0
    1.8871    0.0145    0.6739 O   0  0  0  0  0  0  0  0  0  0  0  0
    0.6730    0.2860    0.0528 C   0  0  0  0  0  0  0  0  0  0  0  0
    0.2000    1.6633    0.4341 C   0  0  0  0  0  0  0  0  0  0  0  0
   -1.0856    1.9693    0.5354 C   0  0  0  0  0  0  0  0  0  0  0  0
   -2.1935    1.0236    0.2937 C   0  0  0  0  0  0  0  0  0  0  0  0
   -1.6797   -0.2818   -0.2600 C   0  0  0  0  0  0  0  0  0  0  0  0
   -0.4100   -0.6675    0.4941 C   0  0  0  0  0  0  0  0  0  0  0  0
   -0.1113   -2.0997    0.1385 C   0  0  0  0  0  0  0  0  0  0  0  0
    2.7405   -0.9918   -0.9484 H   0  0  0  0  0  0  0  0  0  0  0  0
    3.8881   -0.3576    0.2470 H   0  0  0  0  0  0  0  0  0  0  0  0
    3.0642    0.7534   -0.8777 H   0  0  0  0  0  0  0  0  0  0  0  0
    0.7813    0.3082   -1.0637 H   0  0  0  0  0  0  0  0  0  0  0  0
    0.9105    2.4536    0.6391 H   0  0  0  0  0  0  0  0  0  0  0  0
   -1.3731    2.9917    0.8175 H   0  0  0  0  0  0  0  0  0  0  0  0
   -2.7567    0.8043    1.2280 H   0  0  0  0  0  0  0  0  0  0  0  0
   -2.8698    1.4796   -0.4566 H   0  0  0  0  0  0  0  0  0  0  0  0
   -2.4021   -1.0951   -0.0866 H   0  0  0  0  0  0  0  0  0  0  0  0
   -1.4122   -0.1414   -1.3178 H   0  0  0  0  0  0  0  0  0  0  0  0
   -0.5401   -0.5239    1.5850 H   0  0  0  0  0  0  0  0  0  0  0  0
   -0.6399   -2.7374    0.8913 H   0  0  0  0  0  0  0  0  0  0  0  0
   -0.5336   -2.3410   -0.8579 H   0  0  0  0  0  0  0  0  0  0  0  0
    0.9463   -2.3519    0.1210 H   0  0  0  0  0  0  0  0  0  0  0  0
  1  2  1  0
  2  3  1  0
  3  4  1  0
  4  5  2  0
  5  6  1  0
  6  7  1  0
  7  8  1  0
  8  9  1  0
  8  3  1  0
  1 10  1  0
  1 11  1  0
  1 12  1  0
  3 13  1  0
  4 14  1  0
  5 15  1  0
  6 16  1  0
  6 17  1  0
  7 18  1  0
  7 19  1  0
  8 20  1  0
  9 21  1  0
  9 22  1  0
  9 23  1  0
M  END
