
     RDKit          3D

 19 20  0  0  0  0  0  0  0  0999 V2000
    2.8189    0.5352   -0.1740 C   0  0  0  0  0  0  0  0  0  0  0  0
    1.5112    0.5687   -0.6678 O   0  0  0  0  0  0  0  0  0  0  0  0
    0.7224   -0.4413   -0.1703 C   0  0  0  0  0  0  0  0  0  0  0  0
   -0.1029   -1.1932   -1.1897 C   0  0  0  0  0  0  0  0  0  0  0  0
   -1.3969   -0.8391   -0.4726 C   0  0  0  0  0  0  0  0  0  0  0  0
   -2.2420   -0.0301   -1.2173 O   0  0  0  0  0  0  0  0  0  0  0  0
   -2.3050    1.1156   -0.4182 C   0  0  0  0  0  0  0  0  0  0  0  0
   -0.9517    1.3494   -0.0906 O   0  0  0  0  0  0  0  0  0  0  0  0
   -0.5707    0.1077    0.3911 C   0  0  0  0  0  0  0  0  0  0  0  0
    3.3496    1.3969   -0.6494 H   0  0  0  0  0  0  0  0  0  0  0  0
    2.7492    0.7568    0.9118 H   0  0  0  0  0  0  0  0  0  0  0  0
    3.3201   -0.4276   -0.3920 H   0  0  0  0  0  0  0  0  0  0  0  0
    1.2748   -1.1054    0.5397 H   0  0  0  0  0  0  0  0  0  0  0  0
   -0.0581   -0.7319   -2.1985 H   0  0  0  0  0  0  0  0  0  0  0  0
    0.0272   -2.2784   -1.1971 H   0  0  0  0  0  0  0  0  0  0  0  0
   -1.8475   -1.6240    0.1253 H   0  0  0  0  0  0  0  0  0  0  0  0
   -2.7407    1.9666   -0.9786 H   0  0  0  0  0  0  0  0  0  0  0  0
   -2.8631    0.9037    0.5198 H   0  0  0  0  0  0  0  0  0  0  0  0
   -0.6947   -0.0298    1.4796 H   0  0  0  0  0  0  0  0  0  0  0  0
  1  2  1  0
  2  3  1  0
  3  4  1  0
  4  5  1  0
  5  6  1  0
  6  7  1  0
  7  8  1  0
  8  9  1  0
  9  3  1  0
  9  5  1  0
  1 10  1  0
  1 11  1  0
  1 12  1  0
  3 13  1  0
  4 14  1  0
  4 15  1  0
  5 16  1  0
  7 17  1  0
  7 18  1  0
  9 19  1  0
M  END
