
     RDKit          3D

 19 20  0  0  0  0  0  0  0  0999 V2000
    1.8330    0.1147   -2.0143 C   0  0  0  0  0  0  0  0  0  0  0  0
    0.8124   -0.3720   -1.2443 O   0  0  0  0  0  0  0  0  0  0  0  0
    0.6480    0.1798   -0.0238 C   0  0  0  0  0  0  0  0  0  0  0  0
    0.8707   -0.8092    1.1351 C   0  0  0  0  0  0  0  0  0  0  0  0
   -0.5519   -1.2478    1.3716 C   0  0  0  0  0  0  0  0  0  0  0  0
   -1.4178   -0.3881    0.8920 C   0  0  0  0  0  0  0  0  0  0  0  0
   -2.5385    0.4513    0.4224 C   0  0  0  0  0  0  0  0  0  0  0  0
   -1.6766    0.7530   -0.6693 O   0  0  0  0  0  0  0  0  0  0  0  0
   -0.6829    0.7846    0.2672 C   0  0  0  0  0  0  0  0  0  0  0  0
    1.8142   -0.4604   -2.9853 H   0  0  0  0  0  0  0  0  0  0  0  0
    1.5648    1.1628   -2.3128 H   0  0  0  0  0  0  0  0  0  0  0  0
    2.8340    0.0118   -1.6139 H   0  0  0  0  0  0  0  0  0  0  0  0
    1.4131    0.9679    0.1358 H   0  0  0  0  0  0  0  0  0  0  0  0
    1.4099   -1.6534    0.7158 H   0  0  0  0  0  0  0  0  0  0  0  0
    1.3124   -0.3225    1.9969 H   0  0  0  0  0  0  0  0  0  0  0  0
   -0.8359   -2.1735    1.8828 H   0  0  0  0  0  0  0  0  0  0  0  0
   -2.6314    1.3647    1.0324 H   0  0  0  0  0  0  0  0  0  0  0  0
   -3.4620   -0.0565    0.1361 H   0  0  0  0  0  0  0  0  0  0  0  0
   -0.7158    1.6928    0.8756 H   0  0  0  0  0  0  0  0  0  0  0  0
  1  2  1  0
  2  3  1  0
  3  4  1  0
  4  5  1  0
  5  6  2  0
  6  7  1  0
  7  8  1  0
  8  9  1  0
  9  3  1  0
  9  6  1  0
  1 10  1  0
  1 11  1  0
  1 12  1  0
  3 13  1  0
  4 14  1  0
  4 15  1  0
  5 16  1  0
  7 17  1  0
  7 18  1  0
  9 19  1  0
M  END
