
     RDKit          3D

 21 22  0  0  0  0  0  0  0  0999 V2000
    2.7316   -0.1165    0.9742 C   0  0  0  0  0  0  0  0  0  0  0  0
    1.3963    0.1818    1.3358 O   0  0  0  0  0  0  0  0  0  0  0  0
    0.6257   -0.0155    0.2271 C   0  0  0  0  0  0  0  0  0  0  0  0
   -0.1253    1.2549   -0.2029 C   0  0  0  0  0  0  0  0  0  0  0  0
   -1.5206    0.8087   -0.5592 C   0  0  0  0  0  0  0  0  0  0  0  0
   -1.2589   -0.6693   -0.9052 C   0  0  0  0  0  0  0  0  0  0  0  0
   -0.5362   -0.9462    0.4261 C   0  0  0  0  0  0  0  0  0  0  0  0
   -1.5082   -0.2799    1.3679 C   0  0  0  0  0  0  0  0  0  0  0  0
   -2.2241    0.6614    0.6284 O   0  0  0  0  0  0  0  0  0  0  0  0
    2.8167   -1.1758    0.6305 H   0  0  0  0  0  0  0  0  0  0  0  0
    3.0331    0.5226    0.0957 H   0  0  0  0  0  0  0  0  0  0  0  0
    3.4244    0.0531    1.8266 H   0  0  0  0  0  0  0  0  0  0  0  0
    1.1801   -0.3480   -0.6669 H   0  0  0  0  0  0  0  0  0  0  0  0
    0.4128    1.7466   -1.0072 H   0  0  0  0  0  0  0  0  0  0  0  0
   -0.1806    1.8753    0.7384 H   0  0  0  0  0  0  0  0  0  0  0  0
   -2.0099    1.3518   -1.3343 H   0  0  0  0  0  0  0  0  0  0  0  0
   -0.5256   -0.7799   -1.7023 H   0  0  0  0  0  0  0  0  0  0  0  0
   -2.1768   -1.2384   -0.9999 H   0  0  0  0  0  0  0  0  0  0  0  0
   -0.3196   -1.9698    0.6024 H   0  0  0  0  0  0  0  0  0  0  0  0
   -2.2297   -1.0819    1.7030 H   0  0  0  0  0  0  0  0  0  0  0  0
   -1.0053    0.1649    2.2506 H   0  0  0  0  0  0  0  0  0  0  0  0
  1  2  1  0
  2  3  1  0
  3  4  1  0
  4  5  1  0
  5  6  1  0
  6  7  1  0
  7  8  1  0
  8  9  1  0
  7  3  1  0
  9  5  1  0
  1 10  1  0
  1 11  1  0
  1 12  1  0
  3 13  1  0
  4 14  1  0
  4 15  1  0
  5 16  1  0
  6 17  1  0
  6 18  1  0
  7 19  1  0
  8 20  1  0
  8 21  1  0
M  END
