
     RDKit          3D

 19 19  0  0  0  0  0  0  0  0999 V2000
   -2.7535   -0.1323    0.3763 C   0  0  0  0  0  0  0  0  0  0  0  0
   -1.6881    0.5339   -0.1891 O   0  0  0  0  0  0  0  0  0  0  0  0
   -0.4615    0.0038    0.1290 C   0  0  0  0  0  0  0  0  0  0  0  0
    0.3850    1.0994    0.7476 C   0  0  0  0  0  0  0  0  0  0  0  0
    1.3706    1.4156   -0.1756 O   0  0  0  0  0  0  0  0  0  0  0  0
    1.6791    0.2392   -0.8005 C   0  0  0  0  0  0  0  0  0  0  0  0
    2.3445   -0.6701    0.1632 C   0  0  0  0  0  0  0  0  0  0  0  0
    2.7048   -1.7932   -0.2104 O   0  0  0  0  0  0  0  0  0  0  0  0
    0.3270   -0.3602   -1.1238 C   0  0  0  0  0  0  0  0  0  0  0  0
   -2.7460   -1.1978    0.0222 H   0  0  0  0  0  0  0  0  0  0  0  0
   -2.7874   -0.0639    1.4844 H   0  0  0  0  0  0  0  0  0  0  0  0
   -3.6833    0.3118   -0.0530 H   0  0  0  0  0  0  0  0  0  0  0  0
   -0.4990   -0.8780    0.7902 H   0  0  0  0  0  0  0  0  0  0  0  0
   -0.1920    2.0234    0.9393 H   0  0  0  0  0  0  0  0  0  0  0  0
    0.8587    0.7843    1.6937 H   0  0  0  0  0  0  0  0  0  0  0  0
    2.2883    0.4056   -1.7110 H   0  0  0  0  0  0  0  0  0  0  0  0
    2.5123   -0.3616    1.1691 H   0  0  0  0  0  0  0  0  0  0  0  0
   -0.1249    0.0922   -2.0335 H   0  0  0  0  0  0  0  0  0  0  0  0
    0.4652   -1.4520   -1.2181 H   0  0  0  0  0  0  0  0  0  0  0  0
  1  2  1  0
  2  3  1  0
  3  4  1  0
  4  5  1  0
  5  6  1  0
  6  7  1  0
  7  8  2  0
  6  9  1  0
  9  3  1  0
  1 10  1  0
  1 11  1  0
  1 12  1  0
  3 13  1  0
  4 14  1  0
  4 15  1  0
  6 16  1  0
  7 17  1  0
  9 18  1  0
  9 19  1  0
M  END
