
     RDKit          3D

 21 22  0  0  0  0  0  0  0  0999 V2000
    2.6082    0.5494    0.8458 C   0  0  0  0  0  0  0  0  0  0  0  0
    2.1098   -0.5747    0.1921 O   0  0  0  0  0  0  0  0  0  0  0  0
    0.8017   -0.5021    0.0857 C   0  0  0  0  0  0  0  0  0  0  0  0
    0.1439    0.6158   -0.6455 C   0  0  0  0  0  0  0  0  0  0  0  0
   -1.1559    0.3661   -0.4517 C   0  0  0  0  0  0  0  0  0  0  0  0
   -2.2945    1.2082   -0.9138 C   0  0  0  0  0  0  0  0  0  0  0  0
   -1.1410   -0.9066    0.3060 C   0  0  0  0  0  0  0  0  0  0  0  0
   -0.0598   -0.6093    1.3546 C   0  0  0  0  0  0  0  0  0  0  0  0
   -0.0139   -1.6828   -0.3919 C   0  0  0  0  0  0  0  0  0  0  0  0
    3.6931    0.5471    0.9649 H   0  0  0  0  0  0  0  0  0  0  0  0
    2.3483    1.4538    0.2257 H   0  0  0  0  0  0  0  0  0  0  0  0
    2.0587    0.7097    1.8081 H   0  0  0  0  0  0  0  0  0  0  0  0
    0.6444    1.4076   -1.1839 H   0  0  0  0  0  0  0  0  0  0  0  0
   -3.2266    0.6519   -0.8011 H   0  0  0  0  0  0  0  0  0  0  0  0
   -2.3926    2.1449   -0.3191 H   0  0  0  0  0  0  0  0  0  0  0  0
   -2.1066    1.5475   -1.9647 H   0  0  0  0  0  0  0  0  0  0  0  0
   -2.0115   -1.4059    0.5898 H   0  0  0  0  0  0  0  0  0  0  0  0
    0.1504   -1.5239    1.9175 H   0  0  0  0  0  0  0  0  0  0  0  0
   -0.1901    0.3224    1.8929 H   0  0  0  0  0  0  0  0  0  0  0  0
   -0.1836   -1.6740   -1.4730 H   0  0  0  0  0  0  0  0  0  0  0  0
    0.2175   -2.6451    0.0600 H   0  0  0  0  0  0  0  0  0  0  0  0
  1  2  1  0
  2  3  1  0
  3  4  1  0
  4  5  2  0
  5  6  1  0
  5  7  1  0
  7  8  1  0
  7  9  1  0
  8  3  1  0
  9  3  1  0
  1 10  1  0
  1 11  1  0
  1 12  1  0
  4 13  1  0
  6 14  1  0
  6 15  1  0
  6 16  1  0
  7 17  1  0
  8 18  1  0
  8 19  1  0
  9 20  1  0
  9 21  1  0
M  END
