
     RDKit          3D

 25 25  0  0  0  0  0  0  0  0999 V2000
    2.8449   -0.8773   -0.3680 C   0  0  0  0  0  0  0  0  0  0  0  0
    1.6871   -0.5937    0.3479 O   0  0  0  0  0  0  0  0  0  0  0  0
    0.6404   -0.1894   -0.4667 C   0  0  0  0  0  0  0  0  0  0  0  0
   -0.7296   -0.5618    0.0616 C   0  0  0  0  0  0  0  0  0  0  0  0
   -0.8468   -1.2823    1.3709 C   0  0  0  0  0  0  0  0  0  0  0  0
   -1.7102   -1.0292   -0.9968 C   0  0  0  0  0  0  0  0  0  0  0  0
   -0.3136    0.8510    0.0564 C   0  0  0  0  0  0  0  0  0  0  0  0
   -1.0184    1.7645   -0.9114 C   0  0  0  0  0  0  0  0  0  0  0  0
    0.1691    1.5452    1.3094 C   0  0  0  0  0  0  0  0  0  0  0  0
    3.6067   -1.1887    0.3962 H   0  0  0  0  0  0  0  0  0  0  0  0
    2.7312   -1.7281   -1.0626 H   0  0  0  0  0  0  0  0  0  0  0  0
    3.2651    0.0270   -0.8721 H   0  0  0  0  0  0  0  0  0  0  0  0
    0.8150   -0.1333   -1.5527 H   0  0  0  0  0  0  0  0  0  0  0  0
    0.1096   -1.7926    1.6160 H   0  0  0  0  0  0  0  0  0  0  0  0
   -1.6523   -2.0477    1.3672 H   0  0  0  0  0  0  0  0  0  0  0  0
   -1.0887   -0.5464    2.1696 H   0  0  0  0  0  0  0  0  0  0  0  0
   -1.4825   -0.4747   -1.9243 H   0  0  0  0  0  0  0  0  0  0  0  0
   -1.5774   -2.1175   -1.1690 H   0  0  0  0  0  0  0  0  0  0  0  0
   -2.7581   -0.8768   -0.6865 H   0  0  0  0  0  0  0  0  0  0  0  0
   -0.6823    1.6340   -1.9603 H   0  0  0  0  0  0  0  0  0  0  0  0
   -2.1065    1.5282   -0.8430 H   0  0  0  0  0  0  0  0  0  0  0  0
   -0.9231    2.8452   -0.6245 H   0  0  0  0  0  0  0  0  0  0  0  0
    0.4293    0.8188    2.0943 H   0  0  0  0  0  0  0  0  0  0  0  0
   -0.5219    2.3390    1.6426 H   0  0  0  0  0  0  0  0  0  0  0  0
    1.1129    2.0868    1.0059 H   0  0  0  0  0  0  0  0  0  0  0  0
  1  2  1  0
  2  3  1  0
  3  4  1  0
  4  5  1  0
  4  6  1  0
  4  7  1  0
  7  8  1  0
  7  9  1  0
  7  3  1  0
  1 10  1  0
  1 11  1  0
  1 12  1  0
  3 13  1  0
  5 14  1  0
  5 15  1  0
  5 16  1  0
  6 17  1  0
  6 18  1  0
  6 19  1  0
  8 20  1  0
  8 21  1  0
  8 22  1  0
  9 23  1  0
  9 24  1  0
  9 25  1  0
M  END
