
     RDKit          3D

 21 23  0  0  0  0  0  0  0  0999 V2000
    2.6838   -0.6089    0.1453 C   0  0  0  0  0  0  0  0  0  0  0  0
    1.4648   -0.5525   -0.5597 O   0  0  0  0  0  0  0  0  0  0  0  0
    0.5683    0.2041    0.1552 C   0  0  0  0  0  0  0  0  0  0  0  0
    0.0016    1.3486   -0.6786 C   0  0  0  0  0  0  0  0  0  0  0  0
   -0.8174    2.3109    0.0701 C   0  0  0  0  0  0  0  0  0  0  0  0
   -1.4173    0.9732   -0.1477 C   0  0  0  0  0  0  0  0  0  0  0  0
   -0.8211   -0.2895    0.2490 C   0  0  0  0  0  0  0  0  0  0  0  0
   -1.1484   -1.5141   -0.6002 C   0  0  0  0  0  0  0  0  0  0  0  0
   -1.3287   -1.4476    0.8718 C   0  0  0  0  0  0  0  0  0  0  0  0
    3.1189    0.3838    0.3010 H   0  0  0  0  0  0  0  0  0  0  0  0
    3.3943   -1.2667   -0.4046 H   0  0  0  0  0  0  0  0  0  0  0  0
    2.4165   -1.0640    1.1420 H   0  0  0  0  0  0  0  0  0  0  0  0
    0.9600    0.6121    1.1164 H   0  0  0  0  0  0  0  0  0  0  0  0
    0.0838    1.3229   -1.7659 H   0  0  0  0  0  0  0  0  0  0  0  0
   -0.4272    2.5874    1.0832 H   0  0  0  0  0  0  0  0  0  0  0  0
   -1.2143    3.1679   -0.4926 H   0  0  0  0  0  0  0  0  0  0  0  0
   -2.2212    0.9330   -0.9193 H   0  0  0  0  0  0  0  0  0  0  0  0
   -0.2762   -2.0956   -0.9938 H   0  0  0  0  0  0  0  0  0  0  0  0
   -2.0188   -1.4113   -1.2865 H   0  0  0  0  0  0  0  0  0  0  0  0
   -2.3637   -1.5013    1.2322 H   0  0  0  0  0  0  0  0  0  0  0  0
   -0.6377   -2.0924    1.4828 H   0  0  0  0  0  0  0  0  0  0  0  0
  1  2  1  0
  2  3  1  0
  3  4  1  0
  4  5  1  0
  5  6  1  0
  6  7  1  0
  7  8  1  0
  8  9  1  0
  7  3  1  0
  6  4  1  0
  9  7  1  0
  1 10  1  0
  1 11  1  0
  1 12  1  0
  3 13  1  0
  4 14  1  0
  5 15  1  0
  5 16  1  0
  6 17  1  0
  8 18  1  0
  8 19  1  0
  9 20  1  0
  9 21  1  0
M  END
