
     RDKit          3D

 21 22  0  0  0  0  0  0  0  0999 V2000
    3.2268    0.1990    0.2357 C   0  0  0  0  0  0  0  0  0  0  0  0
    2.1627   -0.2448   -0.5284 O   0  0  0  0  0  0  0  0  0  0  0  0
    0.9324    0.1437   -0.0331 C   0  0  0  0  0  0  0  0  0  0  0  0
   -0.1343    0.3332   -1.0511 C   0  0  0  0  0  0  0  0  0  0  0  0
   -1.4028    1.0687   -0.7336 C   0  0  0  0  0  0  0  0  0  0  0  0
   -1.9002    0.5885    0.5918 C   0  0  0  0  0  0  0  0  0  0  0  0
   -1.3220   -0.8121    0.7109 C   0  0  0  0  0  0  0  0  0  0  0  0
   -2.2657   -1.7579    0.3231 O   0  0  0  0  0  0  0  0  0  0  0  0
   -0.1590   -0.8816   -0.2289 C   0  0  0  0  0  0  0  0  0  0  0  0
    3.2188   -0.1566    1.2722 H   0  0  0  0  0  0  0  0  0  0  0  0
    4.1516   -0.2200   -0.2426 H   0  0  0  0  0  0  0  0  0  0  0  0
    3.3486    1.2932    0.2360 H   0  0  0  0  0  0  0  0  0  0  0  0
    0.8957    0.7609    0.9080 H   0  0  0  0  0  0  0  0  0  0  0  0
    0.1258    0.2653   -2.1303 H   0  0  0  0  0  0  0  0  0  0  0  0
   -2.1540    0.8031   -1.5081 H   0  0  0  0  0  0  0  0  0  0  0  0
   -1.2920    2.1671   -0.7650 H   0  0  0  0  0  0  0  0  0  0  0  0
   -3.0193    0.5615    0.5853 H   0  0  0  0  0  0  0  0  0  0  0  0
   -1.6030    1.2339    1.4415 H   0  0  0  0  0  0  0  0  0  0  0  0
   -1.0380   -0.9645    1.7704 H   0  0  0  0  0  0  0  0  0  0  0  0
   -1.8576   -2.5432   -0.1157 H   0  0  0  0  0  0  0  0  0  0  0  0
    0.0854   -1.8376   -0.7382 H   0  0  0  0  0  0  0  0  0  0  0  0
  1  2  1  0
  2  3  1  0
  3  4  1  0
  4  5  1  0
  5  6  1  0
  6  7  1  0
  7  8  1  0
  7  9  1  0
  9  3  1  0
  9  4  1  0
  1 10  1  0
  1 11  1  0
  1 12  1  0
  3 13  1  0
  4 14  1  0
  5 15  1  0
  5 16  1  0
  6 17  1  0
  6 18  1  0
  7 19  1  0
  8 20  1  0
  9 21  1  0
M  END
