
     RDKit          3D

 17 17  0  0  0  0  0  0  0  0999 V2000
   -2.2848    0.2851    0.7496 C   0  0  0  0  0  0  0  0  0  0  0  0
   -0.9246    0.5146    0.6297 O   0  0  0  0  0  0  0  0  0  0  0  0
   -0.2558   -0.4558   -0.0741 C   0  0  0  0  0  0  0  0  0  0  0  0
    0.8653   -0.9498    0.8476 C   0  0  0  0  0  0  0  0  0  0  0  0
    1.7521    0.2727    0.8193 C   0  0  0  0  0  0  0  0  0  0  0  0
    1.5732    0.9205   -0.3259 C   0  0  0  0  0  0  0  0  0  0  0  0
    0.5703    0.2058   -1.1535 C   0  0  0  0  0  0  0  0  0  0  0  0
   -2.7507    1.1092    1.3280 H   0  0  0  0  0  0  0  0  0  0  0  0
   -2.4080   -0.6415    1.3486 H   0  0  0  0  0  0  0  0  0  0  0  0
   -2.7678    0.2276   -0.2353 H   0  0  0  0  0  0  0  0  0  0  0  0
   -0.8787   -1.2704   -0.4416 H   0  0  0  0  0  0  0  0  0  0  0  0
    1.4140   -1.7949    0.4135 H   0  0  0  0  0  0  0  0  0  0  0  0
    0.4894   -1.1475    1.8714 H   0  0  0  0  0  0  0  0  0  0  0  0
    2.4221    0.5853    1.5842 H   0  0  0  0  0  0  0  0  0  0  0  0
    2.0705    1.8309   -0.6309 H   0  0  0  0  0  0  0  0  0  0  0  0
   -0.0155    0.8630   -1.8021 H   0  0  0  0  0  0  0  0  0  0  0  0
    1.1289   -0.5548   -1.7449 H   0  0  0  0  0  0  0  0  0  0  0  0
  1  2  1  0
  2  3  1  0
  3  4  1  0
  4  5  1  0
  5  6  2  0
  6  7  1  0
  7  3  1  0
  1  8  1  0
  1  9  1  0
  1 10  1  0
  3 11  1  0
  4 12  1  0
  4 13  1  0
  5 14  1  0
  6 15  1  0
  7 16  1  0
  7 17  1  0
M  END
