
     RDKit          3D

 21 22  0  0  0  0  0  0  0  0999 V2000
    2.5391   -0.2841    0.8056 C   0  0  0  0  0  0  0  0  0  0  0  0
    1.1616   -0.3514    1.1176 O   0  0  0  0  0  0  0  0  0  0  0  0
    0.4803   -0.3018   -0.0613 C   0  0  0  0  0  0  0  0  0  0  0  0
   -0.6226   -1.3200   -0.2433 C   0  0  0  0  0  0  0  0  0  0  0  0
   -1.4718   -1.0876    0.9580 C   0  0  0  0  0  0  0  0  0  0  0  0
   -1.4617    0.3321    1.0142 O   0  0  0  0  0  0  0  0  0  0  0  0
   -0.7168    0.6629   -0.0891 C   0  0  0  0  0  0  0  0  0  0  0  0
   -0.4560    2.0457   -0.4352 C   0  0  0  0  0  0  0  0  0  0  0  0
   -1.2209   -0.2739   -1.2007 C   0  0  0  0  0  0  0  0  0  0  0  0
    2.7569   -1.1591    0.1626 H   0  0  0  0  0  0  0  0  0  0  0  0
    3.1627   -0.2211    1.7073 H   0  0  0  0  0  0  0  0  0  0  0  0
    2.7330    0.6419    0.2094 H   0  0  0  0  0  0  0  0  0  0  0  0
    1.0801   -0.2231   -0.9908 H   0  0  0  0  0  0  0  0  0  0  0  0
   -0.4128   -2.2768   -0.6193 H   0  0  0  0  0  0  0  0  0  0  0  0
   -2.4998   -1.3895    0.7295 H   0  0  0  0  0  0  0  0  0  0  0  0
   -1.0755   -1.5147    1.8886 H   0  0  0  0  0  0  0  0  0  0  0  0
   -1.2275    2.7145   -0.0531 H   0  0  0  0  0  0  0  0  0  0  0  0
    0.5095    2.3805    0.0492 H   0  0  0  0  0  0  0  0  0  0  0  0
   -0.2941    2.1388   -1.5431 H   0  0  0  0  0  0  0  0  0  0  0  0
   -0.6516   -0.1890   -2.1275 H   0  0  0  0  0  0  0  0  0  0  0  0
   -2.3121   -0.3244   -1.2786 H   0  0  0  0  0  0  0  0  0  0  0  0
  1  2  1  0
  2  3  1  0
  3  4  1  0
  4  5  1  0
  5  6  1  0
  6  7  1  0
  7  8  1  0
  7  9  1  0
  7  3  1  0
  9  4  1  0
  1 10  1  0
  1 11  1  0
  1 12  1  0
  3 13  1  0
  4 14  1  0
  5 15  1  0
  5 16  1  0
  8 17  1  0
  8 18  1  0
  8 19  1  0
  9 20  1  0
  9 21  1  0
M  END
