
     RDKit          3D

 21 21  0  0  0  0  0  0  0  0999 V2000
    2.6059   -0.1133   -0.4660 C   0  0  0  0  0  0  0  0  0  0  0  0
    1.3893   -0.8278   -0.4071 O   0  0  0  0  0  0  0  0  0  0  0  0
    0.5645   -0.1383    0.4419 C   0  0  0  0  0  0  0  0  0  0  0  0
   -0.1362   -0.9301    1.5097 C   0  0  0  0  0  0  0  0  0  0  0  0
   -1.3210   -0.0188    1.3010 C   0  0  0  0  0  0  0  0  0  0  0  0
   -2.2263    0.3291    2.0164 O   0  0  0  0  0  0  0  0  0  0  0  0
   -0.8149    0.1825   -0.0930 C   0  0  0  0  0  0  0  0  0  0  0  0
   -0.8842    1.5861   -0.5984 C   0  0  0  0  0  0  0  0  0  0  0  0
   -1.4053   -0.8452   -1.0060 C   0  0  0  0  0  0  0  0  0  0  0  0
    3.3387   -0.5781   -1.1184 H   0  0  0  0  0  0  0  0  0  0  0  0
    2.9458   -0.0227    0.5868 H   0  0  0  0  0  0  0  0  0  0  0  0
    2.3162    0.9125   -0.8085 H   0  0  0  0  0  0  0  0  0  0  0  0
    0.9951    0.7977    0.8920 H   0  0  0  0  0  0  0  0  0  0  0  0
   -0.4046   -1.9704    1.1806 H   0  0  0  0  0  0  0  0  0  0  0  0
    0.3215   -0.8678    2.4952 H   0  0  0  0  0  0  0  0  0  0  0  0
   -0.3345    2.2420    0.1368 H   0  0  0  0  0  0  0  0  0  0  0  0
   -1.8852    1.9488   -0.8307 H   0  0  0  0  0  0  0  0  0  0  0  0
   -0.2599    1.6343   -1.5265 H   0  0  0  0  0  0  0  0  0  0  0  0
   -1.0996   -1.8640   -0.7663 H   0  0  0  0  0  0  0  0  0  0  0  0
   -2.5257   -0.8098   -0.8759 H   0  0  0  0  0  0  0  0  0  0  0  0
   -1.1795   -0.6466   -2.0638 H   0  0  0  0  0  0  0  0  0  0  0  0
  1  2  1  0
  2  3  1  0
  3  4  1  0
  4  5  1  0
  5  6  2  0
  5  7  1  0
  7  8  1  0
  7  9  1  0
  7  3  1  0
  1 10  1  0
  1 11  1  0
  1 12  1  0
  3 13  1  0
  4 14  1  0
  4 15  1  0
  8 16  1  0
  8 17  1  0
  8 18  1  0
  9 19  1  0
  9 20  1  0
  9 21  1  0
M  END
