
     RDKit          3D

 19 19  0  0  0  0  0  0  0  0999 V2000
    2.2887    1.2900   -0.2779 C   0  0  0  0  0  0  0  0  0  0  0  0
    1.2466    0.5709    0.2725 O   0  0  0  0  0  0  0  0  0  0  0  0
    0.7376   -0.3589   -0.6051 C   0  0  0  0  0  0  0  0  0  0  0  0
    0.4600   -1.7290    0.0506 C   0  0  0  0  0  0  0  0  0  0  0  0
   -0.6438   -0.8598   -0.5197 C   0  0  0  0  0  0  0  0  0  0  0  0
   -1.6192   -0.3590    0.5007 C   0  0  0  0  0  0  0  0  0  0  0  0
   -1.1948   -0.5736    1.7984 O   0  0  0  0  0  0  0  0  0  0  0  0
   -1.9935    1.0722    0.2722 C   0  0  0  0  0  0  0  0  0  0  0  0
   -1.9197    1.9165    1.1489 O   0  0  0  0  0  0  0  0  0  0  0  0
    3.1446    0.6604   -0.5840 H   0  0  0  0  0  0  0  0  0  0  0  0
    2.6709    2.0321    0.4368 H   0  0  0  0  0  0  0  0  0  0  0  0
    1.9038    1.8315   -1.1510 H   0  0  0  0  0  0  0  0  0  0  0  0
    1.2403   -0.3759   -1.5919 H   0  0  0  0  0  0  0  0  0  0  0  0
    0.8196   -2.5907   -0.5317 H   0  0  0  0  0  0  0  0  0  0  0  0
    0.5749   -1.8142    1.1352 H   0  0  0  0  0  0  0  0  0  0  0  0
   -1.0971   -1.2030   -1.4719 H   0  0  0  0  0  0  0  0  0  0  0  0
   -2.5543   -0.9497    0.3708 H   0  0  0  0  0  0  0  0  0  0  0  0
   -1.7167    0.0278    2.3801 H   0  0  0  0  0  0  0  0  0  0  0  0
   -2.3480    1.4125   -0.6939 H   0  0  0  0  0  0  0  0  0  0  0  0
  1  2  1  0
  2  3  1  0
  3  4  1  0
  4  5  1  0
  5  6  1  0
  6  7  1  0
  6  8  1  0
  8  9  2  0
  5  3  1  0
  1 10  1  0
  1 11  1  0
  1 12  1  0
  3 13  1  0
  4 14  1  0
  4 15  1  0
  5 16  1  0
  6 17  1  0
  7 18  1  0
  8 19  1  0
M  END
