
     RDKit          3D

 23 24  0  0  0  0  0  0  0  0999 V2000
    2.6850    0.5877   -0.0686 C   0  0  0  0  0  0  0  0  0  0  0  0
    1.4513    0.3344   -0.7076 O   0  0  0  0  0  0  0  0  0  0  0  0
    0.5205    0.1439    0.2770 C   0  0  0  0  0  0  0  0  0  0  0  0
   -0.8256    0.7765    0.0883 C   0  0  0  0  0  0  0  0  0  0  0  0
   -1.1344    2.1131    0.0597 C   0  0  0  0  0  0  0  0  0  0  0  0
   -1.0701   -0.2498   -0.9773 C   0  0  0  0  0  0  0  0  0  0  0  0
   -0.4007   -1.0327    0.1321 C   0  0  0  0  0  0  0  0  0  0  0  0
   -0.1231   -2.3597    0.1761 C   0  0  0  0  0  0  0  0  0  0  0  0
   -1.3397   -0.2582    1.0560 C   0  0  0  0  0  0  0  0  0  0  0  0
    2.9744   -0.2672    0.5686 H   0  0  0  0  0  0  0  0  0  0  0  0
    2.6457    1.4746    0.5722 H   0  0  0  0  0  0  0  0  0  0  0  0
    3.4603    0.7459   -0.8258 H   0  0  0  0  0  0  0  0  0  0  0  0
    0.8834    0.2188    1.3313 H   0  0  0  0  0  0  0  0  0  0  0  0
   -1.3915    2.5259    1.0698 H   0  0  0  0  0  0  0  0  0  0  0  0
   -1.9924    2.3614   -0.6048 H   0  0  0  0  0  0  0  0  0  0  0  0
   -0.2961    2.7545   -0.2992 H   0  0  0  0  0  0  0  0  0  0  0  0
   -2.1365   -0.5053   -1.0596 H   0  0  0  0  0  0  0  0  0  0  0  0
   -0.4960   -0.1617   -1.9002 H   0  0  0  0  0  0  0  0  0  0  0  0
   -0.7045   -2.9568    0.9424 H   0  0  0  0  0  0  0  0  0  0  0  0
    0.9500   -2.6287    0.4134 H   0  0  0  0  0  0  0  0  0  0  0  0
   -0.3163   -2.9320   -0.7821 H   0  0  0  0  0  0  0  0  0  0  0  0
   -0.9535   -0.1744    2.0739 H   0  0  0  0  0  0  0  0  0  0  0  0
   -2.3902   -0.5102    0.9133 H   0  0  0  0  0  0  0  0  0  0  0  0
  1  2  1  0
  2  3  1  0
  3  4  1  0
  4  5  1  0
  4  6  1  0
  6  7  1  0
  7  8  1  0
  7  9  1  0
  7  3  1  0
  9  4  1  0
  1 10  1  0
  1 11  1  0
  1 12  1  0
  3 13  1  0
  5 14  1  0
  5 15  1  0
  5 16  1  0
  6 17  1  0
  6 18  1  0
  8 19  1  0
  8 20  1  0
  8 21  1  0
  9 22  1  0
  9 23  1  0
M  END
