
     RDKit          3D

 21 22  0  0  0  0  0  0  0  0999 V2000
    3.1621   -0.7142    0.0495 C   0  0  0  0  0  0  0  0  0  0  0  0
    2.1829   -0.0724    0.7695 O   0  0  0  0  0  0  0  0  0  0  0  0
    0.9995   -0.0879    0.0771 C   0  0  0  0  0  0  0  0  0  0  0  0
    0.0205    1.0245    0.2410 C   0  0  0  0  0  0  0  0  0  0  0  0
   -0.9074    1.4120   -0.8430 C   0  0  0  0  0  0  0  0  0  0  0  0
   -2.2625    0.8648   -0.6859 C   0  0  0  0  0  0  0  0  0  0  0  0
   -2.4521   -0.3007   -0.1284 C   0  0  0  0  0  0  0  0  0  0  0  0
   -1.3014   -1.1019    0.3613 C   0  0  0  0  0  0  0  0  0  0  0  0
   -0.2271   -0.2330    0.9552 C   0  0  0  0  0  0  0  0  0  0  0  0
    4.1403   -0.7227    0.5798 H   0  0  0  0  0  0  0  0  0  0  0  0
    3.2708   -0.1632   -0.9244 H   0  0  0  0  0  0  0  0  0  0  0  0
    2.8264   -1.7642   -0.1297 H   0  0  0  0  0  0  0  0  0  0  0  0
    1.0192   -0.5906   -0.9049 H   0  0  0  0  0  0  0  0  0  0  0  0
    0.4044    1.8809    0.8551 H   0  0  0  0  0  0  0  0  0  0  0  0
   -1.0340    2.5337   -0.9230 H   0  0  0  0  0  0  0  0  0  0  0  0
   -0.5261    1.1308   -1.8656 H   0  0  0  0  0  0  0  0  0  0  0  0
   -3.1666    1.4030   -1.0252 H   0  0  0  0  0  0  0  0  0  0  0  0
   -3.4508   -0.7362    0.0015 H   0  0  0  0  0  0  0  0  0  0  0  0
   -0.9005   -1.7117   -0.4663 H   0  0  0  0  0  0  0  0  0  0  0  0
   -1.6615   -1.8108    1.1321 H   0  0  0  0  0  0  0  0  0  0  0  0
   -0.1361   -0.2401    2.0405 H   0  0  0  0  0  0  0  0  0  0  0  0
  1  2  1  0
  2  3  1  0
  3  4  1  0
  4  5  1  0
  5  6  1  0
  6  7  2  0
  7  8  1  0
  8  9  1  0
  9  3  1  0
  9  4  1  0
  1 10  1  0
  1 11  1  0
  1 12  1  0
  3 13  1  0
  4 14  1  0
  5 15  1  0
  5 16  1  0
  6 17  1  0
  7 18  1  0
  8 19  1  0
  8 20  1  0
  9 21  1  0
M  END
