
     RDKit          3D

 19 21  0  0  0  0  0  0  0  0999 V2000
    2.8893    0.0464   -0.1032 C   0  0  0  0  0  0  0  0  0  0  0  0
    1.8263   -0.5434   -0.8248 O   0  0  0  0  0  0  0  0  0  0  0  0
    0.6369   -0.1831   -0.2616 C   0  0  0  0  0  0  0  0  0  0  0  0
    0.3121    1.2560   -0.2035 C   0  0  0  0  0  0  0  0  0  0  0  0
   -0.4868    0.3829   -1.0858 C   0  0  0  0  0  0  0  0  0  0  0  0
   -1.4009   -0.6421   -0.4077 C   0  0  0  0  0  0  0  0  0  0  0  0
   -2.7329   -0.2030    0.0924 C   0  0  0  0  0  0  0  0  0  0  0  0
   -1.0886   -1.9702   -0.5521 O   0  0  0  0  0  0  0  0  0  0  0  0
   -0.3250   -1.1832    0.2926 C   0  0  0  0  0  0  0  0  0  0  0  0
    2.8815   -0.2860    0.9556 H   0  0  0  0  0  0  0  0  0  0  0  0
    2.7749    1.1660   -0.1069 H   0  0  0  0  0  0  0  0  0  0  0  0
    3.8659   -0.1554   -0.5884 H   0  0  0  0  0  0  0  0  0  0  0  0
   -0.1214    1.6212    0.7659 H   0  0  0  0  0  0  0  0  0  0  0  0
    0.9530    1.9899   -0.6858 H   0  0  0  0  0  0  0  0  0  0  0  0
   -0.4412    0.4252   -2.1705 H   0  0  0  0  0  0  0  0  0  0  0  0
   -3.0385    0.6938   -0.5191 H   0  0  0  0  0  0  0  0  0  0  0  0
   -2.7345    0.1027    1.1603 H   0  0  0  0  0  0  0  0  0  0  0  0
   -3.5373   -0.9594   -0.0331 H   0  0  0  0  0  0  0  0  0  0  0  0
   -0.2329   -1.5581    1.3152 H   0  0  0  0  0  0  0  0  0  0  0  0
  1  2  1  0
  2  3  1  0
  3  4  1  0
  4  5  1  0
  5  6  1  0
  6  7  1  0
  6  8  1  0
  8  9  1  0
  5  3  1  0
  9  6  1  0
  9  3  1  0
  1 10  1  0
  1 11  1  0
  1 12  1  0
  4 13  1  0
  4 14  1  0
  5 15  1  0
  7 16  1  0
  7 17  1  0
  7 18  1  0
  9 19  1  0
M  END
