
     RDKit          3D

 19 19  0  0  0  0  0  0  0  0999 V2000
    2.9378    0.0194    0.0474 C   0  0  0  0  0  0  0  0  0  0  0  0
    1.8894    0.0934   -0.8615 O   0  0  0  0  0  0  0  0  0  0  0  0
    0.7084    0.1232   -0.1661 C   0  0  0  0  0  0  0  0  0  0  0  0
    0.0080    1.2820   -0.4899 O   0  0  0  0  0  0  0  0  0  0  0  0
   -1.2148    1.3395    0.1739 C   0  0  0  0  0  0  0  0  0  0  0  0
   -2.1296    0.2095   -0.2181 C   0  0  0  0  0  0  0  0  0  0  0  0
   -1.4732   -1.1310    0.0891 C   0  0  0  0  0  0  0  0  0  0  0  0
   -0.1095   -1.0749   -0.5095 C   0  0  0  0  0  0  0  0  0  0  0  0
    0.3143   -1.9646   -1.2427 O   0  0  0  0  0  0  0  0  0  0  0  0
    2.8964   -0.8807    0.6902 H   0  0  0  0  0  0  0  0  0  0  0  0
    2.9388    0.9053    0.7097 H   0  0  0  0  0  0  0  0  0  0  0  0
    3.8831    0.0257   -0.5601 H   0  0  0  0  0  0  0  0  0  0  0  0
    0.8568    0.0821    0.9454 H   0  0  0  0  0  0  0  0  0  0  0  0
   -1.7098    2.2882   -0.1085 H   0  0  0  0  0  0  0  0  0  0  0  0
   -1.0860    1.3427    1.2717 H   0  0  0  0  0  0  0  0  0  0  0  0
   -3.0826    0.3344    0.3098 H   0  0  0  0  0  0  0  0  0  0  0  0
   -2.2427    0.2409   -1.3269 H   0  0  0  0  0  0  0  0  0  0  0  0
   -2.0343   -1.9510   -0.3989 H   0  0  0  0  0  0  0  0  0  0  0  0
   -1.3507   -1.2838    1.1738 H   0  0  0  0  0  0  0  0  0  0  0  0
  1  2  1  0
  2  3  1  0
  3  4  1  0
  4  5  1  0
  5  6  1  0
  6  7  1  0
  7  8  1  0
  8  9  2  0
  8  3  1  0
  1 10  1  0
  1 11  1  0
  1 12  1  0
  3 13  1  0
  5 14  1  0
  5 15  1  0
  6 16  1  0
  6 17  1  0
  7 18  1  0
  7 19  1  0
M  END
