
     RDKit          3D

 19 21  0  0  0  0  0  0  0  0999 V2000
    2.3119    0.3708    0.6159 C   0  0  0  0  0  0  0  0  0  0  0  0
    1.2138    0.8887    0.0031 O   0  0  0  0  0  0  0  0  0  0  0  0
    0.1745    0.1004   -0.2289 C   0  0  0  0  0  0  0  0  0  0  0  0
    0.2520   -1.1157   -1.0702 C   0  0  0  0  0  0  0  0  0  0  0  0
   -1.1018   -1.5397   -1.0576 O   0  0  0  0  0  0  0  0  0  0  0  0
   -1.6954   -0.6544   -0.1892 C   0  0  0  0  0  0  0  0  0  0  0  0
   -1.1563    0.6848   -0.5743 C   0  0  0  0  0  0  0  0  0  0  0  0
   -1.2663    1.0480    0.8843 C   0  0  0  0  0  0  0  0  0  0  0  0
   -0.7118   -0.3389    0.9078 C   0  0  0  0  0  0  0  0  0  0  0  0
    2.8018   -0.4647    0.0840 H   0  0  0  0  0  0  0  0  0  0  0  0
    2.0414    0.1201    1.6666 H   0  0  0  0  0  0  0  0  0  0  0  0
    3.0705    1.2022    0.7098 H   0  0  0  0  0  0  0  0  0  0  0  0
    0.5969   -0.9483   -2.1093 H   0  0  0  0  0  0  0  0  0  0  0  0
    0.8120   -1.9294   -0.5734 H   0  0  0  0  0  0  0  0  0  0  0  0
   -2.7323   -0.7604    0.0612 H   0  0  0  0  0  0  0  0  0  0  0  0
   -1.4000    1.2544   -1.3570 H   0  0  0  0  0  0  0  0  0  0  0  0
   -2.2660    1.2103    1.2792 H   0  0  0  0  0  0  0  0  0  0  0  0
   -0.4802    1.7807    1.1596 H   0  0  0  0  0  0  0  0  0  0  0  0
   -0.4648   -0.9086    1.6875 H   0  0  0  0  0  0  0  0  0  0  0  0
  1  2  1  0
  2  3  1  0
  3  4  1  0
  4  5  1  0
  5  6  1  0
  6  7  1  0
  7  8  1  0
  8  9  1  0
  7  3  1  0
  9  3  1  0
  9  6  1  0
  1 10  1  0
  1 11  1  0
  1 12  1  0
  4 13  1  0
  4 14  1  0
  6 15  1  0
  7 16  1  0
  8 17  1  0
  8 18  1  0
  9 19  1  0
M  END
