
     RDKit          3D

 23 24  0  0  0  0  0  0  0  0999 V2000
    2.8742   -0.1952   -0.8954 C   0  0  0  0  0  0  0  0  0  0  0  0
    1.8845   -0.3322    0.0790 O   0  0  0  0  0  0  0  0  0  0  0  0
    0.6967    0.3094   -0.3131 C   0  0  0  0  0  0  0  0  0  0  0  0
    0.2926    1.2814    0.7766 C   0  0  0  0  0  0  0  0  0  0  0  0
   -0.6742    0.2150    1.2620 C   0  0  0  0  0  0  0  0  0  0  0  0
   -1.8058   -0.0430    0.3487 C   0  0  0  0  0  0  0  0  0  0  0  0
   -2.4537    1.1814   -0.2399 C   0  0  0  0  0  0  0  0  0  0  0  0
   -0.4974   -0.5363   -0.0897 C   0  0  0  0  0  0  0  0  0  0  0  0
   -0.2166   -2.0292    0.0379 C   0  0  0  0  0  0  0  0  0  0  0  0
    2.5444   -0.6431   -1.8601 H   0  0  0  0  0  0  0  0  0  0  0  0
    3.7647   -0.7344   -0.5089 H   0  0  0  0  0  0  0  0  0  0  0  0
    3.1922    0.8671   -1.0250 H   0  0  0  0  0  0  0  0  0  0  0  0
    0.8227    0.7768   -1.3089 H   0  0  0  0  0  0  0  0  0  0  0  0
    1.0909    1.5478    1.4923 H   0  0  0  0  0  0  0  0  0  0  0  0
   -0.1598    2.1708    0.3318 H   0  0  0  0  0  0  0  0  0  0  0  0
   -0.4515   -0.3728    2.1429 H   0  0  0  0  0  0  0  0  0  0  0  0
   -2.5301   -0.8128    0.6856 H   0  0  0  0  0  0  0  0  0  0  0  0
   -2.2148    1.3174   -1.3216 H   0  0  0  0  0  0  0  0  0  0  0  0
   -2.2026    2.1143    0.3279 H   0  0  0  0  0  0  0  0  0  0  0  0
   -3.5770    1.1264   -0.2027 H   0  0  0  0  0  0  0  0  0  0  0  0
   -1.1639   -2.6073    0.1642 H   0  0  0  0  0  0  0  0  0  0  0  0
    0.4535   -2.1798    0.9337 H   0  0  0  0  0  0  0  0  0  0  0  0
    0.3308   -2.4218   -0.8172 H   0  0  0  0  0  0  0  0  0  0  0  0
  1  2  1  0
  2  3  1  0
  3  4  1  0
  4  5  1  0
  5  6  1  0
  6  7  1  0
  6  8  1  0
  8  9  1  0
  8  3  1  0
  8  5  1  0
  1 10  1  0
  1 11  1  0
  1 12  1  0
  3 13  1  0
  4 14  1  0
  4 15  1  0
  5 16  1  0
  6 17  1  0
  7 18  1  0
  7 19  1  0
  7 20  1  0
  9 21  1  0
  9 22  1  0
  9 23  1  0
M  END
