
     RDKit          3D

 20 21  0  0  0  0  0  0  0  0999 V2000
    2.4372   -0.6020    0.1804 C   0  0  0  0  0  0  0  0  0  0  0  0
    1.4946    0.1898    0.7862 O   0  0  0  0  0  0  0  0  0  0  0  0
    0.2015   -0.0860    0.4364 C   0  0  0  0  0  0  0  0  0  0  0  0
   -0.3861   -1.4164    0.6854 C   0  0  0  0  0  0  0  0  0  0  0  0
   -0.1478   -0.9919   -0.6929 C   0  0  0  0  0  0  0  0  0  0  0  0
   -1.1343    0.0541   -1.2295 C   0  0  0  0  0  0  0  0  0  0  0  0
   -0.5381    1.0095   -0.2562 C   0  0  0  0  0  0  0  0  0  0  0  0
   -1.4660    1.7294    0.6636 C   0  0  0  0  0  0  0  0  0  0  0  0
    2.3486   -1.6730    0.3768 H   0  0  0  0  0  0  0  0  0  0  0  0
    3.4426   -0.2447    0.5457 H   0  0  0  0  0  0  0  0  0  0  0  0
    2.3935   -0.4803   -0.9383 H   0  0  0  0  0  0  0  0  0  0  0  0
   -1.4705   -1.5287    0.9685 H   0  0  0  0  0  0  0  0  0  0  0  0
    0.2771   -2.1741    1.1072 H   0  0  0  0  0  0  0  0  0  0  0  0
    0.6126   -1.3844   -1.3556 H   0  0  0  0  0  0  0  0  0  0  0  0
   -1.0211    0.2521   -2.2936 H   0  0  0  0  0  0  0  0  0  0  0  0
   -2.1648   -0.2481   -0.8924 H   0  0  0  0  0  0  0  0  0  0  0  0
    0.1328    1.7365   -0.7943 H   0  0  0  0  0  0  0  0  0  0  0  0
   -1.6227    2.7614    0.2817 H   0  0  0  0  0  0  0  0  0  0  0  0
   -0.9320    1.8214    1.6534 H   0  0  0  0  0  0  0  0  0  0  0  0
   -2.4571    1.2755    0.7676 H   0  0  0  0  0  0  0  0  0  0  0  0
  1  2  1  0
  2  3  1  0
  3  4  1  0
  4  5  1  0
  5  6  1  0
  6  7  1  0
  7  8  1  0
  5  3  1  0
  7  3  1  0
  1  9  1  0
  1 10  1  0
  1 11  1  0
  4 12  1  0
  4 13  1  0
  5 14  1  0
  6 15  1  0
  6 16  1  0
  7 17  1  0
  8 18  1  0
  8 19  1  0
  8 20  1  0
M  END
