
     RDKit          3D

 21 21  0  0  0  0  0  0  0  0999 V2000
   -0.7450    2.4620   -0.4848 C   0  0  0  0  0  0  0  0  0  0  0  0
   -0.3366    1.2298   -0.9824 O   0  0  0  0  0  0  0  0  0  0  0  0
    0.0874    0.4364    0.0788 C   0  0  0  0  0  0  0  0  0  0  0  0
   -0.6617   -0.8205    0.1948 C   0  0  0  0  0  0  0  0  0  0  0  0
   -2.1201   -0.9405   -0.1083 C   0  0  0  0  0  0  0  0  0  0  0  0
    0.1115   -1.8003    0.5929 C   0  0  0  0  0  0  0  0  0  0  0  0
    1.4885   -1.2798    0.7857 C   0  0  0  0  0  0  0  0  0  0  0  0
    1.5154   -0.0059   -0.0714 C   0  0  0  0  0  0  0  0  0  0  0  0
    1.8240   -0.3879   -1.3622 O   0  0  0  0  0  0  0  0  0  0  0  0
    0.1121    2.9696    0.0460 H   0  0  0  0  0  0  0  0  0  0  0  0
   -1.0570    3.1400   -1.3074 H   0  0  0  0  0  0  0  0  0  0  0  0
   -1.6178    2.3669    0.1950 H   0  0  0  0  0  0  0  0  0  0  0  0
   -0.0207    1.0137    1.0250 H   0  0  0  0  0  0  0  0  0  0  0  0
   -2.3403   -0.2585   -0.9744 H   0  0  0  0  0  0  0  0  0  0  0  0
   -2.3414   -1.9924   -0.3514 H   0  0  0  0  0  0  0  0  0  0  0  0
   -2.6823   -0.6120    0.7732 H   0  0  0  0  0  0  0  0  0  0  0  0
   -0.1522   -2.8576    0.7743 H   0  0  0  0  0  0  0  0  0  0  0  0
    1.6975   -0.9596    1.8134 H   0  0  0  0  0  0  0  0  0  0  0  0
    2.2210   -2.0173    0.4426 H   0  0  0  0  0  0  0  0  0  0  0  0
    2.2022    0.7458    0.3399 H   0  0  0  0  0  0  0  0  0  0  0  0
    2.8158   -0.4318   -1.4193 H   0  0  0  0  0  0  0  0  0  0  0  0
  1  2  1  0
  2  3  1  0
  3  4  1  0
  4  5  1  0
  4  6  2  0
  6  7  1  0
  7  8  1  0
  8  9  1  0
  8  3  1  0
  1 10  1  0
  1 11  1  0
  1 12  1  0
  3 13  1  0
  5 14  1  0
  5 15  1  0
  5 16  1  0
  6 17  1  0
  7 18  1  0
  7 19  1  0
  8 20  1  0
  9 21  1  0
M  END
