
     RDKit          3D

 17 18  0  0  0  0  0  0  0  0999 V2000
    2.2688   -0.6026    0.7542 C   0  0  0  0  0  0  0  0  0  0  0  0
    1.0848    0.0918    1.0184 O   0  0  0  0  0  0  0  0  0  0  0  0
    0.4264    0.2615   -0.1682 C   0  0  0  0  0  0  0  0  0  0  0  0
   -0.1626    1.5990   -0.4545 C   0  0  0  0  0  0  0  0  0  0  0  0
   -1.0243    1.3634    0.5994 O   0  0  0  0  0  0  0  0  0  0  0  0
   -1.0590    0.1462   -0.0827 C   0  0  0  0  0  0  0  0  0  0  0  0
   -1.7838   -0.9667    0.3120 C   0  0  0  0  0  0  0  0  0  0  0  0
   -1.1503    0.9094   -1.2994 C   0  0  0  0  0  0  0  0  0  0  0  0
   -1.6129    1.0937   -2.3936 O   0  0  0  0  0  0  0  0  0  0  0  0
    2.9194   -0.0267    0.0393 H   0  0  0  0  0  0  0  0  0  0  0  0
    2.8257   -0.6334    1.7191 H   0  0  0  0  0  0  0  0  0  0  0  0
    2.0980   -1.6020    0.3284 H   0  0  0  0  0  0  0  0  0  0  0  0
    0.9158   -0.1537   -1.0669 H   0  0  0  0  0  0  0  0  0  0  0  0
    0.3229    2.4557   -0.6637 H   0  0  0  0  0  0  0  0  0  0  0  0
   -1.2126   -1.6510    0.9762 H   0  0  0  0  0  0  0  0  0  0  0  0
   -2.7041   -0.6952    0.9078 H   0  0  0  0  0  0  0  0  0  0  0  0
   -2.1521   -1.5894   -0.5257 H   0  0  0  0  0  0  0  0  0  0  0  0
  1  2  1  0
  2  3  1  0
  3  4  1  0
  4  5  1  0
  5  6  1  0
  6  7  1  0
  6  8  1  0
  8  9  2  0
  6  3  1  0
  8  4  1  0
  1 10  1  0
  1 11  1  0
  1 12  1  0
  3 13  1  0
  4 14  1  0
  7 15  1  0
  7 16  1  0
  7 17  1  0
M  END
