
     RDKit          3D

 19 20  0  0  0  0  0  0  0  0999 V2000
   -2.8341   -0.6848    0.1393 C   0  0  0  0  0  0  0  0  0  0  0  0
   -1.6676   -0.5533   -0.6047 O   0  0  0  0  0  0  0  0  0  0  0  0
   -0.6007   -0.0847    0.1504 C   0  0  0  0  0  0  0  0  0  0  0  0
    0.5388   -1.0388   -0.0063 C   0  0  0  0  0  0  0  0  0  0  0  0
    1.7114   -0.2658   -0.5616 C   0  0  0  0  0  0  0  0  0  0  0  0
    2.3068    0.7242    0.3882 C   0  0  0  0  0  0  0  0  0  0  0  0
    1.3309    1.1672   -0.6330 C   0  0  0  0  0  0  0  0  0  0  0  0
   -0.1124    1.2389   -0.3686 C   0  0  0  0  0  0  0  0  0  0  0  0
   -0.8619    2.1891   -0.5223 O   0  0  0  0  0  0  0  0  0  0  0  0
   -3.0798    0.3377    0.5369 H   0  0  0  0  0  0  0  0  0  0  0  0
   -3.6434   -0.9555   -0.5726 H   0  0  0  0  0  0  0  0  0  0  0  0
   -2.7379   -1.4326    0.9600 H   0  0  0  0  0  0  0  0  0  0  0  0
   -0.9130    0.0824    1.1836 H   0  0  0  0  0  0  0  0  0  0  0  0
    0.2744   -1.9199   -0.6327 H   0  0  0  0  0  0  0  0  0  0  0  0
    0.8364   -1.3926    1.0013 H   0  0  0  0  0  0  0  0  0  0  0  0
    2.3024   -0.7426   -1.3472 H   0  0  0  0  0  0  0  0  0  0  0  0
    3.3636    0.9804    0.1981 H   0  0  0  0  0  0  0  0  0  0  0  0
    2.0553    0.6380    1.4537 H   0  0  0  0  0  0  0  0  0  0  0  0
    1.7308    1.7128   -1.5286 H   0  0  0  0  0  0  0  0  0  0  0  0
  1  2  1  0
  2  3  1  0
  3  4  1  0
  4  5  1  0
  5  6  1  0
  6  7  1  0
  7  8  1  0
  8  9  2  0
  8  3  1  0
  7  5  1  0
  1 10  1  0
  1 11  1  0
  1 12  1  0
  3 13  1  0
  4 14  1  0
  4 15  1  0
  5 16  1  0
  6 17  1  0
  6 18  1  0
  7 19  1  0
M  END
