
     RDKit          3D

 21 22  0  0  0  0  0  0  0  0999 V2000
    3.2488    0.7191    0.3309 C   0  0  0  0  0  0  0  0  0  0  0  0
    1.9265    0.9745    0.6503 O   0  0  0  0  0  0  0  0  0  0  0  0
    1.0129    0.2567   -0.0471 C   0  0  0  0  0  0  0  0  0  0  0  0
   -0.0911    1.0284   -0.7489 C   0  0  0  0  0  0  0  0  0  0  0  0
   -0.9565   -0.1058   -0.4239 C   0  0  0  0  0  0  0  0  0  0  0  0
   -2.4045    0.0330   -0.2354 C   0  0  0  0  0  0  0  0  0  0  0  0
   -2.3102   -1.4268   -0.6367 C   0  0  0  0  0  0  0  0  0  0  0  0
   -1.1584   -1.0914   -1.3553 O   0  0  0  0  0  0  0  0  0  0  0  0
   -0.0915   -0.4186    0.7429 C   0  0  0  0  0  0  0  0  0  0  0  0
    3.4131   -0.3729    0.5461 H   0  0  0  0  0  0  0  0  0  0  0  0
    3.9103    1.2596    1.0210 H   0  0  0  0  0  0  0  0  0  0  0  0
    3.4779    0.8636   -0.7327 H   0  0  0  0  0  0  0  0  0  0  0  0
    1.4880   -0.4300   -0.7725 H   0  0  0  0  0  0  0  0  0  0  0  0
   -0.3851    1.9758   -0.2410 H   0  0  0  0  0  0  0  0  0  0  0  0
    0.0886    1.2222   -1.8118 H   0  0  0  0  0  0  0  0  0  0  0  0
   -2.8910    0.6549   -1.0134 H   0  0  0  0  0  0  0  0  0  0  0  0
   -2.8030    0.1591    0.7759 H   0  0  0  0  0  0  0  0  0  0  0  0
   -3.1377   -1.8017   -1.2618 H   0  0  0  0  0  0  0  0  0  0  0  0
   -2.0226   -2.0666    0.2194 H   0  0  0  0  0  0  0  0  0  0  0  0
    0.0521   -1.5105    0.8813 H   0  0  0  0  0  0  0  0  0  0  0  0
   -0.3665    0.0773    1.6797 H   0  0  0  0  0  0  0  0  0  0  0  0
  1  2  1  0
  2  3  1  0
  3  4  1  0
  4  5  1  0
  5  6  1  0
  6  7  1  0
  7  8  1  0
  5  9  1  0
  9  3  1  0
  8  5  1  0
  1 10  1  0
  1 11  1  0
  1 12  1  0
  3 13  1  0
  4 14  1  0
  4 15  1  0
  6 16  1  0
  6 17  1  0
  7 18  1  0
  7 19  1  0
  9 20  1  0
  9 21  1  0
M  END
