
     RDKit          3D

 17 18  0  0  0  0  0  0  0  0999 V2000
    2.4806    0.4422    0.1870 C   0  0  0  0  0  0  0  0  0  0  0  0
    1.2004    0.5728    0.7415 O   0  0  0  0  0  0  0  0  0  0  0  0
    0.2975   -0.0554   -0.1362 C   0  0  0  0  0  0  0  0  0  0  0  0
   -0.7234    0.9295   -0.6360 C   0  0  0  0  0  0  0  0  0  0  0  0
   -2.0361    0.4571   -0.1511 C   0  0  0  0  0  0  0  0  0  0  0  0
   -3.0769    1.0631   -0.2132 O   0  0  0  0  0  0  0  0  0  0  0  0
   -1.8336   -0.8912    0.4214 C   0  0  0  0  0  0  0  0  0  0  0  0
   -1.2142   -0.9044    1.6637 O   0  0  0  0  0  0  0  0  0  0  0  0
   -0.4285   -1.1728    0.5447 C   0  0  0  0  0  0  0  0  0  0  0  0
    3.2468    0.9079    0.8128 H   0  0  0  0  0  0  0  0  0  0  0  0
    2.6557   -0.6628    0.0418 H   0  0  0  0  0  0  0  0  0  0  0  0
    2.4349    0.8540   -0.8480 H   0  0  0  0  0  0  0  0  0  0  0  0
    0.8152   -0.4836   -1.0217 H   0  0  0  0  0  0  0  0  0  0  0  0
   -0.7826    0.9238   -1.7632 H   0  0  0  0  0  0  0  0  0  0  0  0
   -0.4503    1.9348   -0.2648 H   0  0  0  0  0  0  0  0  0  0  0  0
   -2.5202   -1.7155    0.1363 H   0  0  0  0  0  0  0  0  0  0  0  0
   -0.0653   -2.1995    0.4851 H   0  0  0  0  0  0  0  0  0  0  0  0
  1  2  1  0
  2  3  1  0
  3  4  1  0
  4  5  1  0
  5  6  2  0
  5  7  1  0
  7  8  1  0
  8  9  1  0
  9  3  1  0
  9  7  1  0
  1 10  1  0
  1 11  1  0
  1 12  1  0
  3 13  1  0
  4 14  1  0
  4 15  1  0
  7 16  1  0
  9 17  1  0
M  END
