
     RDKit          3D

 19 22  0  0  0  0  0  0  0  0999 V2000
    2.8717    0.0569    1.0373 C   0  0  0  0  0  0  0  0  0  0  0  0
    2.1042   -0.1902   -0.0676 O   0  0  0  0  0  0  0  0  0  0  0  0
    0.8253    0.0060   -0.0362 C   0  0  0  0  0  0  0  0  0  0  0  0
    0.0887   -0.3216   -1.3753 C   0  0  0  0  0  0  0  0  0  0  0  0
   -0.8628   -1.0730   -0.6007 C   0  0  0  0  0  0  0  0  0  0  0  0
   -0.2620   -0.7284    0.6486 C   0  0  0  0  0  0  0  0  0  0  0  0
   -1.1793    0.2546    0.1698 C   0  0  0  0  0  0  0  0  0  0  0  0
   -2.5524    0.5366    0.3289 C   0  0  0  0  0  0  0  0  0  0  0  0
   -0.1217    0.8842   -0.6414 C   0  0  0  0  0  0  0  0  0  0  0  0
    2.8196    1.1236    1.3790 H   0  0  0  0  0  0  0  0  0  0  0  0
    3.9342   -0.1338    0.7603 H   0  0  0  0  0  0  0  0  0  0  0  0
    2.6272   -0.5999    1.9115 H   0  0  0  0  0  0  0  0  0  0  0  0
    0.6514   -0.5653   -2.2321 H   0  0  0  0  0  0  0  0  0  0  0  0
   -1.6535   -1.7130   -0.8705 H   0  0  0  0  0  0  0  0  0  0  0  0
   -0.2002   -1.2495    1.5708 H   0  0  0  0  0  0  0  0  0  0  0  0
   -3.0940    0.9455   -0.5615 H   0  0  0  0  0  0  0  0  0  0  0  0
   -3.1364   -0.3930    0.5989 H   0  0  0  0  0  0  0  0  0  0  0  0
   -2.8011    1.2538    1.1627 H   0  0  0  0  0  0  0  0  0  0  0  0
   -0.0585    1.9065   -0.9273 H   0  0  0  0  0  0  0  0  0  0  0  0
  1  2  1  0
  2  3  1  0
  3  4  1  0
  4  5  1  0
  5  6  1  0
  6  7  1  0
  7  8  1  0
  7  9  1  0
  6  3  1  0
  9  3  1  0
  9  4  1  0
  7  5  1  0
  1 10  1  0
  1 11  1  0
  1 12  1  0
  4 13  1  0
  5 14  1  0
  6 15  1  0
  8 16  1  0
  8 17  1  0
  8 18  1  0
  9 19  1  0
M  END
