
     RDKit          3D

 19 19  0  0  0  0  0  0  0  0999 V2000
   -1.6228    1.5841   -0.0637 C   0  0  0  0  0  0  0  0  0  0  0  0
   -1.2053    0.6419    0.8510 O   0  0  0  0  0  0  0  0  0  0  0  0
   -0.5525   -0.4339    0.3022 C   0  0  0  0  0  0  0  0  0  0  0  0
   -1.2771   -1.3067   -0.7105 C   0  0  0  0  0  0  0  0  0  0  0  0
    0.3337   -1.1793    1.3157 C   0  0  0  0  0  0  0  0  0  0  0  0
    0.9359   -0.3997    0.1375 C   0  0  0  0  0  0  0  0  0  0  0  0
    1.5787    0.8191    0.4303 O   0  0  0  0  0  0  0  0  0  0  0  0
    2.7493    1.1234   -0.2379 C   0  0  0  0  0  0  0  0  0  0  0  0
    3.1919    0.3044   -1.0764 O   0  0  0  0  0  0  0  0  0  0  0  0
   -0.8283    2.0413   -0.6561 H   0  0  0  0  0  0  0  0  0  0  0  0
   -2.3615    1.1062   -0.7323 H   0  0  0  0  0  0  0  0  0  0  0  0
   -2.1061    2.4088    0.5206 H   0  0  0  0  0  0  0  0  0  0  0  0
   -1.3589   -2.3594   -0.3421 H   0  0  0  0  0  0  0  0  0  0  0  0
   -2.2790   -0.9370   -0.9383 H   0  0  0  0  0  0  0  0  0  0  0  0
   -0.6839   -1.3819   -1.6613 H   0  0  0  0  0  0  0  0  0  0  0  0
    0.5061   -0.7253    2.2953 H   0  0  0  0  0  0  0  0  0  0  0  0
    0.2907   -2.2748    1.2492 H   0  0  0  0  0  0  0  0  0  0  0  0
    1.3993   -1.0691   -0.6225 H   0  0  0  0  0  0  0  0  0  0  0  0
    3.2897    2.0380   -0.0607 H   0  0  0  0  0  0  0  0  0  0  0  0
  1  2  1  0
  2  3  1  0
  3  4  1  0
  3  5  1  0
  5  6  1  0
  6  7  1  0
  7  8  1  0
  8  9  2  0
  6  3  1  0
  1 10  1  0
  1 11  1  0
  1 12  1  0
  4 13  1  0
  4 14  1  0
  4 15  1  0
  5 16  1  0
  5 17  1  0
  6 18  1  0
  8 19  1  0
M  END
