
     RDKit          3D

 23 23  0  0  0  0  0  0  0  0999 V2000
    2.3517    0.9096   -0.3605 C   0  0  0  0  0  0  0  0  0  0  0  0
    1.1845    0.2286   -0.6319 O   0  0  0  0  0  0  0  0  0  0  0  0
    0.4841   -0.1740    0.4725 C   0  0  0  0  0  0  0  0  0  0  0  0
    0.2399   -1.6549    0.5449 C   0  0  0  0  0  0  0  0  0  0  0  0
   -0.8362   -2.1623   -0.3220 C   0  0  0  0  0  0  0  0  0  0  0  0
   -1.8614   -1.3199   -0.6193 O   0  0  0  0  0  0  0  0  0  0  0  0
   -1.4969   -0.0094   -0.8743 C   0  0  0  0  0  0  0  0  0  0  0  0
   -0.8672    0.5103    0.4075 C   0  0  0  0  0  0  0  0  0  0  0  0
   -0.7445    2.0112    0.3995 C   0  0  0  0  0  0  0  0  0  0  0  0
    2.2188    1.8362    0.2161 H   0  0  0  0  0  0  0  0  0  0  0  0
    3.1291    0.2402    0.0853 H   0  0  0  0  0  0  0  0  0  0  0  0
    2.7797    1.2167   -1.3542 H   0  0  0  0  0  0  0  0  0  0  0  0
    0.9901    0.1253    1.4195 H   0  0  0  0  0  0  0  0  0  0  0  0
    1.1704   -2.2446    0.3755 H   0  0  0  0  0  0  0  0  0  0  0  0
   -0.0427   -1.8733    1.6157 H   0  0  0  0  0  0  0  0  0  0  0  0
   -1.2954   -3.0845    0.1455 H   0  0  0  0  0  0  0  0  0  0  0  0
   -0.3849   -2.5466   -1.2762 H   0  0  0  0  0  0  0  0  0  0  0  0
   -2.4309    0.5521   -1.0847 H   0  0  0  0  0  0  0  0  0  0  0  0
   -0.8343    0.0936   -1.7398 H   0  0  0  0  0  0  0  0  0  0  0  0
   -1.4784    0.2084    1.2644 H   0  0  0  0  0  0  0  0  0  0  0  0
   -1.7671    2.4141    0.2175 H   0  0  0  0  0  0  0  0  0  0  0  0
   -0.0465    2.4043   -0.3363 H   0  0  0  0  0  0  0  0  0  0  0  0
   -0.4621    2.3189    1.4355 H   0  0  0  0  0  0  0  0  0  0  0  0
  1  2  1  0
  2  3  1  0
  3  4  1  0
  4  5  1  0
  5  6  1  0
  6  7  1  0
  7  8  1  0
  8  9  1  0
  8  3  1  0
  1 10  1  0
  1 11  1  0
  1 12  1  0
  3 13  1  0
  4 14  1  0
  4 15  1  0
  5 16  1  0
  5 17  1  0
  7 18  1  0
  7 19  1  0
  8 20  1  0
  9 21  1  0
  9 22  1  0
  9 23  1  0
M  END
