
     RDKit          3D

 21 22  0  0  0  0  0  0  0  0999 V2000
    2.9717    0.0041    0.0277 C   0  0  0  0  0  0  0  0  0  0  0  0
    1.7520    0.5532    0.2985 O   0  0  0  0  0  0  0  0  0  0  0  0
    0.6803   -0.3012    0.0154 C   0  0  0  0  0  0  0  0  0  0  0  0
   -0.5036    0.1989   -0.4270 C   0  0  0  0  0  0  0  0  0  0  0  0
   -0.6987    1.6971   -0.6574 C   0  0  0  0  0  0  0  0  0  0  0  0
   -1.6881   -0.6338   -0.8401 C   0  0  0  0  0  0  0  0  0  0  0  0
   -1.9630   -0.3502    0.6233 C   0  0  0  0  0  0  0  0  0  0  0  0
   -0.5234   -0.2716    0.8976 C   0  0  0  0  0  0  0  0  0  0  0  0
   -0.1728   -1.0259    1.9131 O   0  0  0  0  0  0  0  0  0  0  0  0
    2.9895   -0.2449   -1.0727 H   0  0  0  0  0  0  0  0  0  0  0  0
    3.7447    0.7705    0.2462 H   0  0  0  0  0  0  0  0  0  0  0  0
    3.1345   -0.9181    0.6286 H   0  0  0  0  0  0  0  0  0  0  0  0
    1.0583   -1.2877   -0.3905 H   0  0  0  0  0  0  0  0  0  0  0  0
   -1.5382    1.9201   -1.3121 H   0  0  0  0  0  0  0  0  0  0  0  0
    0.2372    2.0245   -1.1983 H   0  0  0  0  0  0  0  0  0  0  0  0
   -0.6980    2.2398    0.2983 H   0  0  0  0  0  0  0  0  0  0  0  0
   -1.3779   -1.6738   -1.0303 H   0  0  0  0  0  0  0  0  0  0  0  0
   -2.3808   -0.1745   -1.5554 H   0  0  0  0  0  0  0  0  0  0  0  0
   -2.5629   -1.1645    1.0388 H   0  0  0  0  0  0  0  0  0  0  0  0
   -2.5236    0.6082    0.7348 H   0  0  0  0  0  0  0  0  0  0  0  0
    0.0628   -1.9703    1.7615 H   0  0  0  0  0  0  0  0  0  0  0  0
  1  2  1  0
  2  3  1  0
  3  4  1  0
  4  5  1  0
  4  6  1  0
  6  7  1  0
  7  8  1  0
  8  9  1  0
  8  3  1  0
  8  4  1  0
  1 10  1  0
  1 11  1  0
  1 12  1  0
  3 13  1  0
  5 14  1  0
  5 15  1  0
  5 16  1  0
  6 17  1  0
  6 18  1  0
  7 19  1  0
  7 20  1  0
  9 21  1  0
M  END
