
     RDKit          3D

 19 19  0  0  0  0  0  0  0  0999 V2000
    2.2902   -0.1407    0.6364 C   0  0  0  0  0  0  0  0  0  0  0  0
    1.0548   -0.6218    0.2745 O   0  0  0  0  0  0  0  0  0  0  0  0
    0.4125    0.1206   -0.6891 C   0  0  0  0  0  0  0  0  0  0  0  0
    0.0710   -0.7886   -1.8114 C   0  0  0  0  0  0  0  0  0  0  0  0
    0.6702   -0.8492   -2.9128 O   0  0  0  0  0  0  0  0  0  0  0  0
   -1.0188   -1.5296   -1.3864 O   0  0  0  0  0  0  0  0  0  0  0  0
   -1.6205   -0.9382   -0.2451 C   0  0  0  0  0  0  0  0  0  0  0  0
   -0.9808    0.4576   -0.1983 C   0  0  0  0  0  0  0  0  0  0  0  0
   -1.0101    1.0311    1.1713 C   0  0  0  0  0  0  0  0  0  0  0  0
    2.7005   -0.8209    1.4128 H   0  0  0  0  0  0  0  0  0  0  0  0
    2.2318    0.8779    1.0504 H   0  0  0  0  0  0  0  0  0  0  0  0
    3.0040   -0.0852   -0.2207 H   0  0  0  0  0  0  0  0  0  0  0  0
    0.9733    0.9982   -1.0396 H   0  0  0  0  0  0  0  0  0  0  0  0
   -2.7031   -0.8907   -0.3850 H   0  0  0  0  0  0  0  0  0  0  0  0
   -1.3269   -1.5257    0.6742 H   0  0  0  0  0  0  0  0  0  0  0  0
   -1.4866    1.0696   -0.9588 H   0  0  0  0  0  0  0  0  0  0  0  0
   -0.0579    1.3762    1.5688 H   0  0  0  0  0  0  0  0  0  0  0  0
   -1.6908    1.9317    1.1629 H   0  0  0  0  0  0  0  0  0  0  0  0
   -1.5130    0.3277    1.8960 H   0  0  0  0  0  0  0  0  0  0  0  0
  1  2  1  0
  2  3  1  0
  3  4  1  0
  4  5  2  0
  4  6  1  0
  6  7  1  0
  7  8  1  0
  8  9  1  0
  8  3  1  0
  1 10  1  0
  1 11  1  0
  1 12  1  0
  3 13  1  0
  7 14  1  0
  7 15  1  0
  8 16  1  0
  9 17  1  0
  9 18  1  0
  9 19  1  0
M  END
