
     RDKit          3D

 23 24  0  0  0  0  0  0  0  0999 V2000
    3.2064   -0.2512    0.0683 C   0  0  0  0  0  0  0  0  0  0  0  0
    1.9025   -0.1078   -0.3762 O   0  0  0  0  0  0  0  0  0  0  0  0
    0.9686   -0.1516    0.6458 C   0  0  0  0  0  0  0  0  0  0  0  0
    0.1626    1.1313    0.5414 C   0  0  0  0  0  0  0  0  0  0  0  0
   -0.7917    0.8152   -0.5883 C   0  0  0  0  0  0  0  0  0  0  0  0
   -2.2091    1.0389   -0.1727 C   0  0  0  0  0  0  0  0  0  0  0  0
   -2.3931   -0.4830   -0.1828 C   0  0  0  0  0  0  0  0  0  0  0  0
   -0.9658   -0.6708   -0.6272 C   0  0  0  0  0  0  0  0  0  0  0  0
   -0.0459   -1.2702    0.3998 C   0  0  0  0  0  0  0  0  0  0  0  0
    3.2667   -1.2418    0.5728 H   0  0  0  0  0  0  0  0  0  0  0  0
    3.8601   -0.2245   -0.8284 H   0  0  0  0  0  0  0  0  0  0  0  0
    3.4988    0.5186    0.8207 H   0  0  0  0  0  0  0  0  0  0  0  0
    1.3868   -0.2908    1.6417 H   0  0  0  0  0  0  0  0  0  0  0  0
   -0.3418    1.3931    1.4760 H   0  0  0  0  0  0  0  0  0  0  0  0
    0.8044    1.9770    0.1762 H   0  0  0  0  0  0  0  0  0  0  0  0
   -0.4954    1.2443   -1.5796 H   0  0  0  0  0  0  0  0  0  0  0  0
   -2.3543    1.4933    0.8080 H   0  0  0  0  0  0  0  0  0  0  0  0
   -2.7728    1.5405   -0.9881 H   0  0  0  0  0  0  0  0  0  0  0  0
   -2.6391   -0.8615    0.8295 H   0  0  0  0  0  0  0  0  0  0  0  0
   -3.1638   -0.7770   -0.9277 H   0  0  0  0  0  0  0  0  0  0  0  0
   -0.8757   -1.1180   -1.6310 H   0  0  0  0  0  0  0  0  0  0  0  0
    0.5439   -2.1274    0.0138 H   0  0  0  0  0  0  0  0  0  0  0  0
   -0.5525   -1.5767    1.3252 H   0  0  0  0  0  0  0  0  0  0  0  0
  1  2  1  0
  2  3  1  0
  3  4  1  0
  4  5  1  0
  5  6  1  0
  6  7  1  0
  7  8  1  0
  8  9  1  0
  9  3  1  0
  8  5  1  0
  1 10  1  0
  1 11  1  0
  1 12  1  0
  3 13  1  0
  4 14  1  0
  4 15  1  0
  5 16  1  0
  6 17  1  0
  6 18  1  0
  7 19  1  0
  7 20  1  0
  8 21  1  0
  9 22  1  0
  9 23  1  0
M  END
