
     RDKit          3D

 16 16  0  0  0  0  0  0  0  0999 V2000
   -2.2859   -0.3374    0.3467 C   0  0  0  0  0  0  0  0  0  0  0  0
   -1.0191   -0.0599    0.8914 O   0  0  0  0  0  0  0  0  0  0  0  0
   -0.0923    0.1129   -0.1044 C   0  0  0  0  0  0  0  0  0  0  0  0
    0.6132    1.4261   -0.0719 C   0  0  0  0  0  0  0  0  0  0  0  0
    1.9194    1.1007   -0.5142 O   0  0  0  0  0  0  0  0  0  0  0  0
    2.1970   -0.2339   -0.2716 C   0  0  0  0  0  0  0  0  0  0  0  0
    3.3601   -0.7112   -0.3145 O   0  0  0  0  0  0  0  0  0  0  0  0
    0.9542   -0.9744    0.0331 C   0  0  0  0  0  0  0  0  0  0  0  0
   -2.2037   -1.2666   -0.2522 H   0  0  0  0  0  0  0  0  0  0  0  0
   -3.0259   -0.4721    1.1574 H   0  0  0  0  0  0  0  0  0  0  0  0
   -2.5589    0.5501   -0.2739 H   0  0  0  0  0  0  0  0  0  0  0  0
   -0.5271   -0.0008   -1.1384 H   0  0  0  0  0  0  0  0  0  0  0  0
    0.6993    1.8824    0.9160 H   0  0  0  0  0  0  0  0  0  0  0  0
    0.2003    2.1394   -0.8175 H   0  0  0  0  0  0  0  0  0  0  0  0
    0.7502   -1.7985   -0.6590 H   0  0  0  0  0  0  0  0  0  0  0  0
    1.0191   -1.3567    1.0729 H   0  0  0  0  0  0  0  0  0  0  0  0
  1  2  1  0
  2  3  1  0
  3  4  1  0
  4  5  1  0
  5  6  1  0
  6  7  2  0
  6  8  1  0
  8  3  1  0
  1  9  1  0
  1 10  1  0
  1 11  1  0
  3 12  1  0
  4 13  1  0
  4 14  1  0
  8 15  1  0
  8 16  1  0
M  END
