
     RDKit          3D

 19 19  0  0  0  0  0  0  0  0999 V2000
    2.9762    0.3065   -0.2765 C   0  0  0  0  0  0  0  0  0  0  0  0
    1.6223    0.1924   -0.5149 O   0  0  0  0  0  0  0  0  0  0  0  0
    0.8983   -0.3391    0.5189 C   0  0  0  0  0  0  0  0  0  0  0  0
    0.0654   -1.5092    0.1064 C   0  0  0  0  0  0  0  0  0  0  0  0
   -1.1546   -1.1587   -0.2332 C   0  0  0  0  0  0  0  0  0  0  0  0
   -1.2836    0.3042   -0.0873 C   0  0  0  0  0  0  0  0  0  0  0  0
   -2.6409    0.7172    0.4328 C   0  0  0  0  0  0  0  0  0  0  0  0
   -0.1926    0.6584    0.8500 C   0  0  0  0  0  0  0  0  0  0  0  0
   -0.1704    1.5382    1.6878 O   0  0  0  0  0  0  0  0  0  0  0  0
    3.3752   -0.7224   -0.0741 H   0  0  0  0  0  0  0  0  0  0  0  0
    3.1906    0.9645    0.5769 H   0  0  0  0  0  0  0  0  0  0  0  0
    3.4748    0.7103   -1.1550 H   0  0  0  0  0  0  0  0  0  0  0  0
    1.4654   -0.6115    1.4089 H   0  0  0  0  0  0  0  0  0  0  0  0
    0.4158   -2.5436    0.0842 H   0  0  0  0  0  0  0  0  0  0  0  0
   -1.9817   -1.8047   -0.5760 H   0  0  0  0  0  0  0  0  0  0  0  0
   -1.0623    0.8291   -1.0415 H   0  0  0  0  0  0  0  0  0  0  0  0
   -2.6055    1.5501    1.1353 H   0  0  0  0  0  0  0  0  0  0  0  0
   -3.2415    1.0671   -0.4549 H   0  0  0  0  0  0  0  0  0  0  0  0
   -3.1509   -0.1489    0.8486 H   0  0  0  0  0  0  0  0  0  0  0  0
  1  2  1  0
  2  3  1  0
  3  4  1  0
  4  5  2  0
  5  6  1  0
  6  7  1  0
  6  8  1  0
  8  9  2  0
  8  3  1  0
  1 10  1  0
  1 11  1  0
  1 12  1  0
  3 13  1  0
  4 14  1  0
  5 15  1  0
  6 16  1  0
  7 17  1  0
  7 18  1  0
  7 19  1  0
M  END
