
     RDKit          3D

 16 17  0  0  0  0  0  0  0  0999 V2000
   -2.0837    0.0421    0.5588 C   0  0  0  0  0  0  0  0  0  0  0  0
   -0.7570    0.2351    0.8283 O   0  0  0  0  0  0  0  0  0  0  0  0
    0.0292    0.4036   -0.3427 C   0  0  0  0  0  0  0  0  0  0  0  0
   -0.0352   -0.7357   -1.1947 C   0  0  0  0  0  0  0  0  0  0  0  0
    1.2169   -0.6362   -0.5061 C   0  0  0  0  0  0  0  0  0  0  0  0
    1.5433    0.0031    0.8216 C   0  0  0  0  0  0  0  0  0  0  0  0
    1.1763    1.2297    0.0536 C   0  0  0  0  0  0  0  0  0  0  0  0
    1.5763    2.3439   -0.1634 O   0  0  0  0  0  0  0  0  0  0  0  0
   -2.5709    0.8721    0.0056 H   0  0  0  0  0  0  0  0  0  0  0  0
   -2.2145   -0.9419    0.0763 H   0  0  0  0  0  0  0  0  0  0  0  0
   -2.6022   -0.0085    1.5619 H   0  0  0  0  0  0  0  0  0  0  0  0
   -0.1595   -0.5178   -2.2993 H   0  0  0  0  0  0  0  0  0  0  0  0
   -0.6314   -1.6640   -0.9580 H   0  0  0  0  0  0  0  0  0  0  0  0
    2.0351   -0.2783   -1.2174 H   0  0  0  0  0  0  0  0  0  0  0  0
    2.5855   -0.0920    1.1083 H   0  0  0  0  0  0  0  0  0  0  0  0
    0.8919   -0.2552    1.6671 H   0  0  0  0  0  0  0  0  0  0  0  0
  1  2  1  0
  2  3  1  0
  3  4  1  0
  4  5  1  0
  5  6  1  0
  6  7  1  0
  7  8  2  0
  5  3  1  0
  7  3  1  0
  1  9  1  0
  1 10  1  0
  1 11  1  0
  4 12  1  0
  4 13  1  0
  5 14  1  0
  6 15  1  0
  6 16  1  0
M  END
