
     RDKit          3D

 17 17  0  0  0  0  0  0  0  0999 V2000
    2.6207   -0.1705   -0.1175 C   0  0  0  0  0  0  0  0  0  0  0  0
    1.5067    0.4782   -0.6725 O   0  0  0  0  0  0  0  0  0  0  0  0
    0.3817   -0.1158   -0.1661 C   0  0  0  0  0  0  0  0  0  0  0  0
   -0.4354   -0.6618   -1.1561 O   0  0  0  0  0  0  0  0  0  0  0  0
   -1.6042   -1.0177   -0.4627 C   0  0  0  0  0  0  0  0  0  0  0  0
   -1.8086    0.0573    0.5459 C   0  0  0  0  0  0  0  0  0  0  0  0
   -2.8024    0.1485    1.2271 O   0  0  0  0  0  0  0  0  0  0  0  0
   -0.5759    0.8821    0.4723 C   0  0  0  0  0  0  0  0  0  0  0  0
   -0.7931    1.9153   -0.4120 O   0  0  0  0  0  0  0  0  0  0  0  0
    2.5498   -0.0401    0.9924 H   0  0  0  0  0  0  0  0  0  0  0  0
    2.4576   -1.2630   -0.3283 H   0  0  0  0  0  0  0  0  0  0  0  0
    3.5697    0.1711   -0.5347 H   0  0  0  0  0  0  0  0  0  0  0  0
    0.6156   -0.9399    0.5380 H   0  0  0  0  0  0  0  0  0  0  0  0
   -1.3828   -1.9814    0.0288 H   0  0  0  0  0  0  0  0  0  0  0  0
   -2.4240   -1.0470   -1.1846 H   0  0  0  0  0  0  0  0  0  0  0  0
   -0.2233    1.2094    1.4656 H   0  0  0  0  0  0  0  0  0  0  0  0
   -1.6521    2.3752   -0.2357 H   0  0  0  0  0  0  0  0  0  0  0  0
  1  2  1  0
  2  3  1  0
  3  4  1  0
  4  5  1  0
  5  6  1  0
  6  7  2  0
  6  8  1  0
  8  9  1  0
  8  3  1  0
  1 10  1  0
  1 11  1  0
  1 12  1  0
  3 13  1  0
  5 14  1  0
  5 15  1  0
  8 16  1  0
  9 17  1  0
M  END
