
     RDKit          3D

 19 20  0  0  0  0  0  0  0  0999 V2000
    2.5136    0.3271    0.1971 C   0  0  0  0  0  0  0  0  0  0  0  0
    1.3968    0.0401    0.9950 O   0  0  0  0  0  0  0  0  0  0  0  0
    0.2672   -0.1544    0.2452 C   0  0  0  0  0  0  0  0  0  0  0  0
    0.1474   -1.2025   -0.7681 C   0  0  0  0  0  0  0  0  0  0  0  0
   -0.5147   -1.3942    0.5431 C   0  0  0  0  0  0  0  0  0  0  0  0
   -1.6392   -0.5632    0.9809 C   0  0  0  0  0  0  0  0  0  0  0  0
   -2.7092   -0.7749    1.5162 O   0  0  0  0  0  0  0  0  0  0  0  0
   -0.9731    0.6859    0.5151 C   0  0  0  0  0  0  0  0  0  0  0  0
   -1.5682    1.2571   -0.7529 C   0  0  0  0  0  0  0  0  0  0  0  0
    2.7266   -0.5040   -0.5114 H   0  0  0  0  0  0  0  0  0  0  0  0
    3.4215    0.4702    0.8167 H   0  0  0  0  0  0  0  0  0  0  0  0
    2.3821    1.2450   -0.4001 H   0  0  0  0  0  0  0  0  0  0  0  0
    1.0243   -1.8160   -0.9742 H   0  0  0  0  0  0  0  0  0  0  0  0
   -0.5373   -1.0743   -1.6291 H   0  0  0  0  0  0  0  0  0  0  0  0
   -0.1114   -2.1782    1.2100 H   0  0  0  0  0  0  0  0  0  0  0  0
   -0.7536    1.4166    1.3128 H   0  0  0  0  0  0  0  0  0  0  0  0
   -1.4943    2.3729   -0.7503 H   0  0  0  0  0  0  0  0  0  0  0  0
   -2.6072    0.9223   -0.9184 H   0  0  0  0  0  0  0  0  0  0  0  0
   -0.9713    0.9244   -1.6274 H   0  0  0  0  0  0  0  0  0  0  0  0
  1  2  1  0
  2  3  1  0
  3  4  1  0
  4  5  1  0
  5  6  1  0
  6  7  2  0
  6  8  1  0
  8  9  1  0
  5  3  1  0
  8  3  1  0
  1 10  1  0
  1 11  1  0
  1 12  1  0
  4 13  1  0
  4 14  1  0
  5 15  1  0
  8 16  1  0
  9 17  1  0
  9 18  1  0
  9 19  1  0
M  END
