
     RDKit          3D

 19 19  0  0  0  0  0  0  0  0999 V2000
   -1.1688   -1.1180   -1.5358 C   0  0  0  0  0  0  0  0  0  0  0  0
   -0.5497    0.1150   -1.4226 O   0  0  0  0  0  0  0  0  0  0  0  0
   -0.2174    0.3509   -0.1041 C   0  0  0  0  0  0  0  0  0  0  0  0
    0.7333   -0.6187    0.5475 C   0  0  0  0  0  0  0  0  0  0  0  0
    0.9289   -0.1698    1.8599 O   0  0  0  0  0  0  0  0  0  0  0  0
    2.0159   -0.5639   -0.2211 C   0  0  0  0  0  0  0  0  0  0  0  0
    3.0008   -0.1615    0.3565 O   0  0  0  0  0  0  0  0  0  0  0  0
   -1.1780    1.1316    0.7149 C   0  0  0  0  0  0  0  0  0  0  0  0
    0.0734    1.7981    0.2310 C   0  0  0  0  0  0  0  0  0  0  0  0
   -2.0742   -1.0808   -0.8865 H   0  0  0  0  0  0  0  0  0  0  0  0
   -1.4899   -1.2912   -2.6099 H   0  0  0  0  0  0  0  0  0  0  0  0
   -0.5449   -1.9467   -1.1951 H   0  0  0  0  0  0  0  0  0  0  0  0
    0.3989   -1.6699    0.5288 H   0  0  0  0  0  0  0  0  0  0  0  0
    0.5413   -0.7722    2.5274 H   0  0  0  0  0  0  0  0  0  0  0  0
    2.0761   -0.8705   -1.2592 H   0  0  0  0  0  0  0  0  0  0  0  0
   -2.0984    1.4492    0.2223 H   0  0  0  0  0  0  0  0  0  0  0  0
   -1.2713    0.8263    1.7747 H   0  0  0  0  0  0  0  0  0  0  0  0
    0.0191    2.5643   -0.5654 H   0  0  0  0  0  0  0  0  0  0  0  0
    0.8050    2.0278    1.0368 H   0  0  0  0  0  0  0  0  0  0  0  0
  1  2  1  0
  2  3  1  0
  3  4  1  0
  4  5  1  0
  4  6  1  0
  6  7  2  0
  3  8  1  0
  8  9  1  0
  9  3  1  0
  1 10  1  0
  1 11  1  0
  1 12  1  0
  4 13  1  0
  5 14  1  0
  6 15  1  0
  8 16  1  0
  8 17  1  0
  9 18  1  0
  9 19  1  0
M  END
