
     RDKit          3D

 21 22  0  0  0  0  0  0  0  0999 V2000
    2.6654   -0.2139    0.3631 C   0  0  0  0  0  0  0  0  0  0  0  0
    1.7695    0.7186   -0.0556 O   0  0  0  0  0  0  0  0  0  0  0  0
    0.5127    0.3414   -0.1610 C   0  0  0  0  0  0  0  0  0  0  0  0
    0.0715   -0.7629   -1.0679 C   0  0  0  0  0  0  0  0  0  0  0  0
   -1.4483   -0.7199   -0.7895 C   0  0  0  0  0  0  0  0  0  0  0  0
   -1.4809    0.3922    0.2074 C   0  0  0  0  0  0  0  0  0  0  0  0
   -2.6029    0.8012    0.7753 O   0  0  0  0  0  0  0  0  0  0  0  0
   -0.5338    1.4060   -0.4197 C   0  0  0  0  0  0  0  0  0  0  0  0
   -0.2882    0.0243    1.1060 C   0  0  0  0  0  0  0  0  0  0  0  0
    2.7273   -1.1045   -0.3030 H   0  0  0  0  0  0  0  0  0  0  0  0
    2.4186   -0.4954    1.4099 H   0  0  0  0  0  0  0  0  0  0  0  0
    3.6829    0.2742    0.4112 H   0  0  0  0  0  0  0  0  0  0  0  0
    0.1981   -0.5138   -2.1300 H   0  0  0  0  0  0  0  0  0  0  0  0
    0.4385   -1.7567   -0.8018 H   0  0  0  0  0  0  0  0  0  0  0  0
   -1.7678   -1.6836   -0.3219 H   0  0  0  0  0  0  0  0  0  0  0  0
   -2.0119   -0.4568   -1.6819 H   0  0  0  0  0  0  0  0  0  0  0  0
   -2.8894    0.1843    1.4968 H   0  0  0  0  0  0  0  0  0  0  0  0
   -0.3597    2.3157    0.1845 H   0  0  0  0  0  0  0  0  0  0  0  0
   -0.7855    1.5830   -1.4772 H   0  0  0  0  0  0  0  0  0  0  0  0
   -0.1183    0.7148    1.9370 H   0  0  0  0  0  0  0  0  0  0  0  0
   -0.1977   -1.0481    1.3184 H   0  0  0  0  0  0  0  0  0  0  0  0
  1  2  1  0
  2  3  1  0
  3  4  1  0
  4  5  1  0
  5  6  1  0
  6  7  1  0
  6  8  1  0
  6  9  1  0
  8  3  1  0
  9  3  1  0
  1 10  1  0
  1 11  1  0
  1 12  1  0
  4 13  1  0
  4 14  1  0
  5 15  1  0
  5 16  1  0
  7 17  1  0
  8 18  1  0
  8 19  1  0
  9 20  1  0
  9 21  1  0
M  END
