
     RDKit          3D

 21 22  0  0  0  0  0  0  0  0999 V2000
    2.6883    0.2879    0.6901 C   0  0  0  0  0  0  0  0  0  0  0  0
    1.3577    0.2273    1.0640 O   0  0  0  0  0  0  0  0  0  0  0  0
    0.5386    0.1804   -0.0912 C   0  0  0  0  0  0  0  0  0  0  0  0
    0.8284   -0.9733   -0.8654 C   0  0  0  0  0  0  0  0  0  0  0  0
   -0.4253   -1.0783   -0.1624 C   0  0  0  0  0  0  0  0  0  0  0  0
   -0.8832   -0.4442    1.1191 C   0  0  0  0  0  0  0  0  0  0  0  0
   -2.1640   -0.7807    1.4670 O   0  0  0  0  0  0  0  0  0  0  0  0
   -0.7670    0.8246    0.2464 C   0  0  0  0  0  0  0  0  0  0  0  0
   -1.7889    0.9963   -0.8021 C   0  0  0  0  0  0  0  0  0  0  0  0
    2.9988   -0.5905    0.0918 H   0  0  0  0  0  0  0  0  0  0  0  0
    2.8448    1.1921    0.0373 H   0  0  0  0  0  0  0  0  0  0  0  0
    3.3591    0.4365    1.5629 H   0  0  0  0  0  0  0  0  0  0  0  0
    0.9110   -0.8096   -1.9828 H   0  0  0  0  0  0  0  0  0  0  0  0
    1.5446   -1.8061   -0.5879 H   0  0  0  0  0  0  0  0  0  0  0  0
   -1.2856   -0.9654   -0.8959 H   0  0  0  0  0  0  0  0  0  0  0  0
   -0.2034   -0.4287    1.9605 H   0  0  0  0  0  0  0  0  0  0  0  0
   -2.5790   -1.3063    0.7270 H   0  0  0  0  0  0  0  0  0  0  0  0
   -0.6700    1.7221    0.8688 H   0  0  0  0  0  0  0  0  0  0  0  0
   -2.1485    2.0699   -0.8495 H   0  0  0  0  0  0  0  0  0  0  0  0
   -1.4183    0.8201   -1.8548 H   0  0  0  0  0  0  0  0  0  0  0  0
   -2.7379    0.4258   -0.6074 H   0  0  0  0  0  0  0  0  0  0  0  0
  1  2  1  0
  2  3  1  0
  3  4  1  0
  4  5  1  0
  5  6  1  0
  6  7  1  0
  6  8  1  0
  8  9  1  0
  5  3  1  0
  8  3  1  0
  1 10  1  0
  1 11  1  0
  1 12  1  0
  4 13  1  0
  4 14  1  0
  5 15  1  0
  6 16  1  0
  7 17  1  0
  8 18  1  0
  9 19  1  0
  9 20  1  0
  9 21  1  0
M  END
