
     RDKit          3D

 19 19  0  0  0  0  0  0  0  0999 V2000
   -2.8985   -0.3740    0.2241 C   0  0  0  0  0  0  0  0  0  0  0  0
   -1.8016   -0.2820   -0.6504 O   0  0  0  0  0  0  0  0  0  0  0  0
   -0.5990   -0.2550    0.0512 C   0  0  0  0  0  0  0  0  0  0  0  0
    0.0141    1.1088   -0.1570 C   0  0  0  0  0  0  0  0  0  0  0  0
    1.3174    1.1002    0.5648 C   0  0  0  0  0  0  0  0  0  0  0  0
    1.6081    1.9323    1.4013 O   0  0  0  0  0  0  0  0  0  0  0  0
    2.2269   -0.0117    0.1728 C   0  0  0  0  0  0  0  0  0  0  0  0
    1.4788   -1.0218   -0.6676 C   0  0  0  0  0  0  0  0  0  0  0  0
    0.2261   -1.3031   -0.2355 O   0  0  0  0  0  0  0  0  0  0  0  0
   -2.8681   -1.2841    0.8447 H   0  0  0  0  0  0  0  0  0  0  0  0
   -2.8090    0.5332    0.8899 H   0  0  0  0  0  0  0  0  0  0  0  0
   -3.8495   -0.2294   -0.3238 H   0  0  0  0  0  0  0  0  0  0  0  0
   -0.8583   -0.3157    1.1326 H   0  0  0  0  0  0  0  0  0  0  0  0
   -0.6712    1.8665    0.2360 H   0  0  0  0  0  0  0  0  0  0  0  0
    0.1388    1.2804   -1.2347 H   0  0  0  0  0  0  0  0  0  0  0  0
    2.7390   -0.4678    1.0340 H   0  0  0  0  0  0  0  0  0  0  0  0
    3.0059    0.4389   -0.4956 H   0  0  0  0  0  0  0  0  0  0  0  0
    2.0819   -1.9674   -0.5974 H   0  0  0  0  0  0  0  0  0  0  0  0
    1.5182   -0.7485   -1.7606 H   0  0  0  0  0  0  0  0  0  0  0  0
  1  2  1  0
  2  3  1  0
  3  4  1  0
  4  5  1  0
  5  6  2  0
  5  7  1  0
  7  8  1  0
  8  9  1  0
  9  3  1  0
  1 10  1  0
  1 11  1  0
  1 12  1  0
  3 13  1  0
  4 14  1  0
  4 15  1  0
  7 16  1  0
  7 17  1  0
  8 18  1  0
  8 19  1  0
M  END
