
     RDKit          3D

 21 21  0  0  0  0  0  0  0  0999 V2000
    2.7066    0.8146   -0.0172 C   0  0  0  0  0  0  0  0  0  0  0  0
    1.3218    0.7520   -0.2640 O   0  0  0  0  0  0  0  0  0  0  0  0
    0.7906   -0.4443    0.2203 C   0  0  0  0  0  0  0  0  0  0  0  0
    0.0737   -1.2086   -0.8138 C   0  0  0  0  0  0  0  0  0  0  0  0
   -1.2272   -1.0230   -0.6853 C   0  0  0  0  0  0  0  0  0  0  0  0
   -1.5573   -0.1179    0.4423 C   0  0  0  0  0  0  0  0  0  0  0  0
   -1.9745    1.2485    0.0175 C   0  0  0  0  0  0  0  0  0  0  0  0
   -0.2712   -0.1303    1.2479 C   0  0  0  0  0  0  0  0  0  0  0  0
   -0.2971   -1.1820    2.1544 O   0  0  0  0  0  0  0  0  0  0  0  0
    3.2414   -0.0226   -0.5113 H   0  0  0  0  0  0  0  0  0  0  0  0
    3.0451    1.7897   -0.4478 H   0  0  0  0  0  0  0  0  0  0  0  0
    2.9234    0.8568    1.0714 H   0  0  0  0  0  0  0  0  0  0  0  0
    1.6183   -1.0544    0.6876 H   0  0  0  0  0  0  0  0  0  0  0  0
    0.6016   -1.8289   -1.5609 H   0  0  0  0  0  0  0  0  0  0  0  0
   -1.9647   -1.4806   -1.3307 H   0  0  0  0  0  0  0  0  0  0  0  0
   -2.3721   -0.5731    1.0639 H   0  0  0  0  0  0  0  0  0  0  0  0
   -1.8569    1.9456    0.8845 H   0  0  0  0  0  0  0  0  0  0  0  0
   -1.4534    1.6493   -0.8518 H   0  0  0  0  0  0  0  0  0  0  0  0
   -3.0850    1.2289   -0.1824 H   0  0  0  0  0  0  0  0  0  0  0  0
   -0.0571    0.8278    1.7268 H   0  0  0  0  0  0  0  0  0  0  0  0
   -0.2061   -2.0475    1.6787 H   0  0  0  0  0  0  0  0  0  0  0  0
  1  2  1  0
  2  3  1  0
  3  4  1  0
  4  5  2  0
  5  6  1  0
  6  7  1  0
  6  8  1  0
  8  9  1  0
  8  3  1  0
  1 10  1  0
  1 11  1  0
  1 12  1  0
  3 13  1  0
  4 14  1  0
  5 15  1  0
  6 16  1  0
  7 17  1  0
  7 18  1  0
  7 19  1  0
  8 20  1  0
  9 21  1  0
M  END
