
     RDKit          3D

 16 17  0  0  0  0  0  0  0  0999 V2000
    2.4392    0.0599    0.2625 C   0  0  0  0  0  0  0  0  0  0  0  0
    1.0809    0.3989    0.4005 O   0  0  0  0  0  0  0  0  0  0  0  0
    0.3609   -0.2302   -0.5822 C   0  0  0  0  0  0  0  0  0  0  0  0
   -0.7352    0.5625   -1.2237 C   0  0  0  0  0  0  0  0  0  0  0  0
   -1.3312   -0.6505   -1.5264 O   0  0  0  0  0  0  0  0  0  0  0  0
   -0.9387   -0.8541   -0.1986 C   0  0  0  0  0  0  0  0  0  0  0  0
   -1.4753    0.5021    0.0753 C   0  0  0  0  0  0  0  0  0  0  0  0
   -2.8490    0.5662   -0.1325 O   0  0  0  0  0  0  0  0  0  0  0  0
    3.0062    0.5808    1.0699 H   0  0  0  0  0  0  0  0  0  0  0  0
    2.8551    0.4719   -0.6981 H   0  0  0  0  0  0  0  0  0  0  0  0
    2.6012   -1.0345    0.3374 H   0  0  0  0  0  0  0  0  0  0  0  0
    0.9600   -0.8663   -1.2783 H   0  0  0  0  0  0  0  0  0  0  0  0
   -0.6350    1.3584   -1.8327 H   0  0  0  0  0  0  0  0  0  0  0  0
   -1.0826   -1.7026    0.3264 H   0  0  0  0  0  0  0  0  0  0  0  0
   -1.0836    1.0667    0.9170 H   0  0  0  0  0  0  0  0  0  0  0  0
   -3.1731   -0.2293   -0.6273 H   0  0  0  0  0  0  0  0  0  0  0  0
  1  2  1  0
  2  3  1  0
  3  4  1  0
  4  5  1  0
  5  6  1  0
  6  7  1  0
  7  8  1  0
  6  3  1  0
  7  4  1  0
  1  9  1  0
  1 10  1  0
  1 11  1  0
  3 12  1  0
  4 13  1  0
  6 14  1  0
  7 15  1  0
  8 16  1  0
M  END
