
     RDKit          3D

 21 21  0  0  0  0  0  0  0  0999 V2000
    1.9972    1.3857    0.9957 C   0  0  0  0  0  0  0  0  0  0  0  0
    1.0878    0.3602    0.9212 O   0  0  0  0  0  0  0  0  0  0  0  0
    0.6640    0.1087   -0.3674 C   0  0  0  0  0  0  0  0  0  0  0  0
    1.1024   -1.3160   -0.7476 C   0  0  0  0  0  0  0  0  0  0  0  0
   -0.0591   -2.1318   -0.2764 C   0  0  0  0  0  0  0  0  0  0  0  0
   -1.1394   -1.3785   -0.1553 C   0  0  0  0  0  0  0  0  0  0  0  0
   -0.7945    0.0083   -0.5366 C   0  0  0  0  0  0  0  0  0  0  0  0
   -1.6018    1.0396    0.1850 C   0  0  0  0  0  0  0  0  0  0  0  0
   -2.9607    0.7786   -0.0980 O   0  0  0  0  0  0  0  0  0  0  0  0
    2.2808    1.5155    2.0706 H   0  0  0  0  0  0  0  0  0  0  0  0
    1.6092    2.3614    0.6506 H   0  0  0  0  0  0  0  0  0  0  0  0
    2.9494    1.1886    0.4625 H   0  0  0  0  0  0  0  0  0  0  0  0
    1.1244    0.7721   -1.1271 H   0  0  0  0  0  0  0  0  0  0  0  0
    1.1513   -1.4329   -1.8368 H   0  0  0  0  0  0  0  0  0  0  0  0
    1.9797   -1.6398   -0.1936 H   0  0  0  0  0  0  0  0  0  0  0  0
   -0.0388   -3.2058   -0.0563 H   0  0  0  0  0  0  0  0  0  0  0  0
   -2.1242   -1.7300    0.1737 H   0  0  0  0  0  0  0  0  0  0  0  0
   -1.0270    0.0961   -1.6286 H   0  0  0  0  0  0  0  0  0  0  0  0
   -1.4630    1.0520    1.2646 H   0  0  0  0  0  0  0  0  0  0  0  0
   -1.3997    2.0341   -0.2633 H   0  0  0  0  0  0  0  0  0  0  0  0
   -3.3380    0.1340    0.5631 H   0  0  0  0  0  0  0  0  0  0  0  0
  1  2  1  0
  2  3  1  0
  3  4  1  0
  4  5  1  0
  5  6  2  0
  6  7  1  0
  7  8  1  0
  8  9  1  0
  7  3  1  0
  1 10  1  0
  1 11  1  0
  1 12  1  0
  3 13  1  0
  4 14  1  0
  4 15  1  0
  5 16  1  0
  6 17  1  0
  7 18  1  0
  8 19  1  0
  8 20  1  0
  9 21  1  0
M  END
