
     RDKit          3D

 16 16  0  0  0  0  0  0  0  0999 V2000
   -1.9061   -0.4072   -0.4966 C   0  0  0  0  0  0  0  0  0  0  0  0
   -0.6754   -0.3008   -1.0948 O   0  0  0  0  0  0  0  0  0  0  0  0
    0.2359    0.1764   -0.1832 C   0  0  0  0  0  0  0  0  0  0  0  0
   -0.0399    1.4946    0.3989 C   0  0  0  0  0  0  0  0  0  0  0  0
    0.7120    1.9867    1.2174 O   0  0  0  0  0  0  0  0  0  0  0  0
    0.6992   -0.8993    0.7499 C   0  0  0  0  0  0  0  0  0  0  0  0
    1.6206   -1.2998   -0.2473 O   0  0  0  0  0  0  0  0  0  0  0  0
    1.6889    0.0461   -0.5953 C   0  0  0  0  0  0  0  0  0  0  0  0
   -2.2842    0.5534   -0.1178 H   0  0  0  0  0  0  0  0  0  0  0  0
   -1.8408   -1.1067    0.3601 H   0  0  0  0  0  0  0  0  0  0  0  0
   -2.6596   -0.8638   -1.1960 H   0  0  0  0  0  0  0  0  0  0  0  0
   -0.9216    2.0379    0.0983 H   0  0  0  0  0  0  0  0  0  0  0  0
   -0.0009   -1.7237    0.9460 H   0  0  0  0  0  0  0  0  0  0  0  0
    1.1917   -0.5409    1.6765 H   0  0  0  0  0  0  0  0  0  0  0  0
    1.8548    0.2698   -1.6524 H   0  0  0  0  0  0  0  0  0  0  0  0
    2.3254    0.5772    0.1363 H   0  0  0  0  0  0  0  0  0  0  0  0
  1  2  1  0
  2  3  1  0
  3  4  1  0
  4  5  2  0
  3  6  1  0
  6  7  1  0
  7  8  1  0
  8  3  1  0
  1  9  1  0
  1 10  1  0
  1 11  1  0
  4 12  1  0
  6 13  1  0
  6 14  1  0
  8 15  1  0
  8 16  1  0
M  END
