
     RDKit          3D

 21 23  0  0  0  0  0  0  0  0999 V2000
    2.7643    0.1813    0.5124 C   0  0  0  0  0  0  0  0  0  0  0  0
    1.9511    0.5869   -0.5518 O   0  0  0  0  0  0  0  0  0  0  0  0
    0.6624    0.2106   -0.2833 C   0  0  0  0  0  0  0  0  0  0  0  0
    0.3912   -1.2464   -0.0960 C   0  0  0  0  0  0  0  0  0  0  0  0
   -1.0119   -0.9769   -0.6544 C   0  0  0  0  0  0  0  0  0  0  0  0
   -1.9643   -0.4475    0.3862 C   0  0  0  0  0  0  0  0  0  0  0  0
   -1.6709    1.0095    0.5711 C   0  0  0  0  0  0  0  0  0  0  0  0
   -0.3887    1.2367   -0.1785 C   0  0  0  0  0  0  0  0  0  0  0  0
   -0.4308    0.2728   -1.2592 C   0  0  0  0  0  0  0  0  0  0  0  0
    3.8178    0.4844    0.3015 H   0  0  0  0  0  0  0  0  0  0  0  0
    2.7285   -0.8938    0.6922 H   0  0  0  0  0  0  0  0  0  0  0  0
    2.4832    0.7322    1.4421 H   0  0  0  0  0  0  0  0  0  0  0  0
    0.9437   -1.8544   -0.8548 H   0  0  0  0  0  0  0  0  0  0  0  0
    0.4164   -1.6276    0.9250 H   0  0  0  0  0  0  0  0  0  0  0  0
   -1.3916   -1.7337   -1.3377 H   0  0  0  0  0  0  0  0  0  0  0  0
   -1.8621   -0.9589    1.3635 H   0  0  0  0  0  0  0  0  0  0  0  0
   -2.9922   -0.6139    0.0175 H   0  0  0  0  0  0  0  0  0  0  0  0
   -1.5699    1.3247    1.6122 H   0  0  0  0  0  0  0  0  0  0  0  0
   -2.4613    1.6052    0.0279 H   0  0  0  0  0  0  0  0  0  0  0  0
   -0.0775    2.2727   -0.3264 H   0  0  0  0  0  0  0  0  0  0  0  0
   -0.3374    0.4363   -2.3097 H   0  0  0  0  0  0  0  0  0  0  0  0
  1  2  1  0
  2  3  1  0
  3  4  1  0
  4  5  1  0
  5  6  1  0
  6  7  1  0
  7  8  1  0
  8  9  1  0
  8  3  1  0
  9  3  1  0
  9  5  1  0
  1 10  1  0
  1 11  1  0
  1 12  1  0
  4 13  1  0
  4 14  1  0
  5 15  1  0
  6 16  1  0
  6 17  1  0
  7 18  1  0
  7 19  1  0
  8 20  1  0
  9 21  1  0
M  END
