
     RDKit          3D

 23 24  0  0  0  0  0  0  0  0999 V2000
    2.4715   -0.1354   -0.8819 C   0  0  0  0  0  0  0  0  0  0  0  0
    1.2695   -0.8097   -0.7630 O   0  0  0  0  0  0  0  0  0  0  0  0
    0.4585   -0.3349    0.2252 C   0  0  0  0  0  0  0  0  0  0  0  0
    1.0563   -0.3980    1.6018 C   0  0  0  0  0  0  0  0  0  0  0  0
   -0.8133   -1.2107    0.2264 C   0  0  0  0  0  0  0  0  0  0  0  0
   -1.7542   -0.3040   -0.4607 C   0  0  0  0  0  0  0  0  0  0  0  0
   -2.6834    0.6590   -0.0480 C   0  0  0  0  0  0  0  0  0  0  0  0
   -1.4119    0.9220    0.4839 C   0  0  0  0  0  0  0  0  0  0  0  0
   -0.0596    1.0876   -0.0781 C   0  0  0  0  0  0  0  0  0  0  0  0
    2.3029    0.9368   -1.1068 H   0  0  0  0  0  0  0  0  0  0  0  0
    3.0667   -0.5574   -1.7150 H   0  0  0  0  0  0  0  0  0  0  0  0
    3.0862   -0.1771    0.0341 H   0  0  0  0  0  0  0  0  0  0  0  0
    1.6687   -1.3182    1.6545 H   0  0  0  0  0  0  0  0  0  0  0  0
    0.2762   -0.4899    2.3924 H   0  0  0  0  0  0  0  0  0  0  0  0
    1.7316    0.4545    1.8041 H   0  0  0  0  0  0  0  0  0  0  0  0
   -1.1452   -1.3979    1.2599 H   0  0  0  0  0  0  0  0  0  0  0  0
   -0.6556   -2.1218   -0.3558 H   0  0  0  0  0  0  0  0  0  0  0  0
   -1.4043   -0.1934   -1.5364 H   0  0  0  0  0  0  0  0  0  0  0  0
   -3.1000    1.4015   -0.7902 H   0  0  0  0  0  0  0  0  0  0  0  0
   -3.5249    0.3418    0.6195 H   0  0  0  0  0  0  0  0  0  0  0  0
   -1.3010    0.6602    1.5845 H   0  0  0  0  0  0  0  0  0  0  0  0
    0.5708    1.8532    0.3578 H   0  0  0  0  0  0  0  0  0  0  0  0
   -0.1054    1.1318   -1.2060 H   0  0  0  0  0  0  0  0  0  0  0  0
  1  2  1  0
  2  3  1  0
  3  4  1  0
  3  5  1  0
  5  6  1  0
  6  7  1  0
  7  8  1  0
  8  9  1  0
  9  3  1  0
  8  6  1  0
  1 10  1  0
  1 11  1  0
  1 12  1  0
  4 13  1  0
  4 14  1  0
  4 15  1  0
  5 16  1  0
  5 17  1  0
  6 18  1  0
  7 19  1  0
  7 20  1  0
  8 21  1  0
  9 22  1  0
  9 23  1  0
M  END
