
     RDKit          3D

 21 22  0  0  0  0  0  0  0  0999 V2000
    2.3970   -0.0018    0.4359 C   0  0  0  0  0  0  0  0  0  0  0  0
    1.4984   -0.7729   -0.2380 O   0  0  0  0  0  0  0  0  0  0  0  0
    0.2552   -0.2770   -0.4020 C   0  0  0  0  0  0  0  0  0  0  0  0
    0.0711    1.0083   -1.1398 C   0  0  0  0  0  0  0  0  0  0  0  0
   -0.9753    1.3902   -0.0893 C   0  0  0  0  0  0  0  0  0  0  0  0
   -0.4752    0.2679    0.7791 C   0  0  0  0  0  0  0  0  0  0  0  0
   -1.5567   -0.7604    1.0074 C   0  0  0  0  0  0  0  0  0  0  0  0
   -1.9196   -1.0820   -0.3179 O   0  0  0  0  0  0  0  0  0  0  0  0
   -0.7032   -1.3744   -0.8826 C   0  0  0  0  0  0  0  0  0  0  0  0
    3.3682   -0.5750    0.4727 H   0  0  0  0  0  0  0  0  0  0  0  0
    2.6488    0.9615   -0.0397 H   0  0  0  0  0  0  0  0  0  0  0  0
    2.0914    0.1186    1.5049 H   0  0  0  0  0  0  0  0  0  0  0  0
    0.9200    1.6903   -1.0582 H   0  0  0  0  0  0  0  0  0  0  0  0
   -0.3447    0.9279   -2.1698 H   0  0  0  0  0  0  0  0  0  0  0  0
   -2.0211    1.2637   -0.4284 H   0  0  0  0  0  0  0  0  0  0  0  0
   -0.7928    2.3700    0.3954 H   0  0  0  0  0  0  0  0  0  0  0  0
    0.1044    0.5531    1.6586 H   0  0  0  0  0  0  0  0  0  0  0  0
   -2.4227   -0.3558    1.5647 H   0  0  0  0  0  0  0  0  0  0  0  0
   -1.1056   -1.6404    1.4803 H   0  0  0  0  0  0  0  0  0  0  0  0
   -0.3251   -2.3511   -0.5363 H   0  0  0  0  0  0  0  0  0  0  0  0
   -0.7125   -1.3605   -1.9970 H   0  0  0  0  0  0  0  0  0  0  0  0
  1  2  1  0
  2  3  1  0
  3  4  1  0
  4  5  1  0
  5  6  1  0
  6  7  1  0
  7  8  1  0
  8  9  1  0
  6  3  1  0
  9  3  1  0
  1 10  1  0
  1 11  1  0
  1 12  1  0
  4 13  1  0
  4 14  1  0
  5 15  1  0
  5 16  1  0
  6 17  1  0
  7 18  1  0
  7 19  1  0
  9 20  1  0
  9 21  1  0
M  END
