
     RDKit          3D

 19 19  0  0  0  0  0  0  0  0999 V2000
    2.5551   -0.1333    0.3235 C   0  0  0  0  0  0  0  0  0  0  0  0
    1.4211   -0.8580    0.0342 O   0  0  0  0  0  0  0  0  0  0  0  0
    0.2679   -0.0793    0.0284 C   0  0  0  0  0  0  0  0  0  0  0  0
    0.1867    1.0770   -0.9504 C   0  0  0  0  0  0  0  0  0  0  0  0
   -0.5313    0.0963    1.2675 C   0  0  0  0  0  0  0  0  0  0  0  0
   -0.9996   -0.8768    0.2703 C   0  0  0  0  0  0  0  0  0  0  0  0
   -2.2071   -0.6111   -0.5906 C   0  0  0  0  0  0  0  0  0  0  0  0
    2.4942    0.3525    1.3362 H   0  0  0  0  0  0  0  0  0  0  0  0
    2.7554    0.6911   -0.3927 H   0  0  0  0  0  0  0  0  0  0  0  0
    3.4018   -0.8500    0.3801 H   0  0  0  0  0  0  0  0  0  0  0  0
    1.1248    1.2686   -1.4750 H   0  0  0  0  0  0  0  0  0  0  0  0
   -0.6207    0.8691   -1.7043 H   0  0  0  0  0  0  0  0  0  0  0  0
   -0.1024    2.0313   -0.4302 H   0  0  0  0  0  0  0  0  0  0  0  0
   -1.0625    1.0605    1.4324 H   0  0  0  0  0  0  0  0  0  0  0  0
   -0.1047   -0.2927    2.2359 H   0  0  0  0  0  0  0  0  0  0  0  0
   -0.9045   -1.9510    0.5621 H   0  0  0  0  0  0  0  0  0  0  0  0
   -3.0619   -1.1653   -0.1026 H   0  0  0  0  0  0  0  0  0  0  0  0
   -2.5003    0.4496   -0.6280 H   0  0  0  0  0  0  0  0  0  0  0  0
   -2.1120   -1.0786   -1.5969 H   0  0  0  0  0  0  0  0  0  0  0  0
  1  2  1  0
  2  3  1  0
  3  4  1  0
  3  5  1  0
  5  6  1  0
  6  7  1  0
  6  3  1  0
  1  8  1  0
  1  9  1  0
  1 10  1  0
  4 11  1  0
  4 12  1  0
  4 13  1  0
  5 14  1  0
  5 15  1  0
  6 16  1  0
  7 17  1  0
  7 18  1  0
  7 19  1  0
M  END
