
     RDKit          3D

 21 22  0  0  0  0  0  0  0  0999 V2000
    2.9809    0.1616    0.5751 C   0  0  0  0  0  0  0  0  0  0  0  0
    2.0566   -0.7904    0.1510 O   0  0  0  0  0  0  0  0  0  0  0  0
    0.8103   -0.1617    0.1089 C   0  0  0  0  0  0  0  0  0  0  0  0
    0.2776    0.4003    1.3518 C   0  0  0  0  0  0  0  0  0  0  0  0
   -0.9916    0.1269    1.5268 C   0  0  0  0  0  0  0  0  0  0  0  0
   -1.4930   -0.6742    0.3978 C   0  0  0  0  0  0  0  0  0  0  0  0
   -2.6150    0.1456   -0.2432 C   0  0  0  0  0  0  0  0  0  0  0  0
   -0.3484   -0.8749   -0.5117 C   0  0  0  0  0  0  0  0  0  0  0  0
    0.2869    0.2587   -1.2183 C   0  0  0  0  0  0  0  0  0  0  0  0
    2.9996    1.0297   -0.1437 H   0  0  0  0  0  0  0  0  0  0  0  0
    4.0136   -0.2646    0.4946 H   0  0  0  0  0  0  0  0  0  0  0  0
    2.7513    0.5456    1.5645 H   0  0  0  0  0  0  0  0  0  0  0  0
    0.8496    0.9995    2.0939 H   0  0  0  0  0  0  0  0  0  0  0  0
   -1.6117    0.4567    2.4131 H   0  0  0  0  0  0  0  0  0  0  0  0
   -1.8856   -1.6675    0.7219 H   0  0  0  0  0  0  0  0  0  0  0  0
   -3.5588   -0.2997    0.0767 H   0  0  0  0  0  0  0  0  0  0  0  0
   -2.5562    1.2159    0.0557 H   0  0  0  0  0  0  0  0  0  0  0  0
   -2.5666    0.0875   -1.3587 H   0  0  0  0  0  0  0  0  0  0  0  0
   -0.0826   -1.9139   -0.8688 H   0  0  0  0  0  0  0  0  0  0  0  0
    0.9318    0.0016   -2.0815 H   0  0  0  0  0  0  0  0  0  0  0  0
   -0.2487    1.2175   -1.3428 H   0  0  0  0  0  0  0  0  0  0  0  0
  1  2  1  0
  2  3  1  0
  3  4  1  0
  4  5  2  0
  5  6  1  0
  6  7  1  0
  6  8  1  0
  8  9  1  0
  8  3  1  0
  9  3  1  0
  1 10  1  0
  1 11  1  0
  1 12  1  0
  4 13  1  0
  5 14  1  0
  6 15  1  0
  7 16  1  0
  7 17  1  0
  7 18  1  0
  8 19  1  0
  9 20  1  0
  9 21  1  0
M  END
