
     RDKit          3D

 17 18  0  0  0  0  0  0  0  0999 V2000
   -1.5918   -0.2329    1.3674 C   0  0  0  0  0  0  0  0  0  0  0  0
   -0.3015    0.2933    1.2765 O   0  0  0  0  0  0  0  0  0  0  0  0
    0.0584    0.2973   -0.0714 C   0  0  0  0  0  0  0  0  0  0  0  0
   -0.8255    1.1127   -0.9804 C   0  0  0  0  0  0  0  0  0  0  0  0
    0.6076   -1.0130   -0.5470 C   0  0  0  0  0  0  0  0  0  0  0  0
    1.5023   -1.6496    0.3287 O   0  0  0  0  0  0  0  0  0  0  0  0
    2.3791   -0.5595    0.4215 C   0  0  0  0  0  0  0  0  0  0  0  0
    3.4733   -0.3252    1.0261 O   0  0  0  0  0  0  0  0  0  0  0  0
    1.4795    0.1734   -0.4777 C   0  0  0  0  0  0  0  0  0  0  0  0
   -2.3394    0.3428    0.8111 H   0  0  0  0  0  0  0  0  0  0  0  0
   -1.6056   -1.2885    0.9648 H   0  0  0  0  0  0  0  0  0  0  0  0
   -1.8853   -0.3511    2.4467 H   0  0  0  0  0  0  0  0  0  0  0  0
   -0.1692    1.7902   -1.6006 H   0  0  0  0  0  0  0  0  0  0  0  0
   -1.5144    1.7634   -0.3982 H   0  0  0  0  0  0  0  0  0  0  0  0
   -1.3803    0.4756   -1.6987 H   0  0  0  0  0  0  0  0  0  0  0  0
    0.2758   -1.4797   -1.4736 H   0  0  0  0  0  0  0  0  0  0  0  0
    1.8370    0.6510   -1.3953 H   0  0  0  0  0  0  0  0  0  0  0  0
  1  2  1  0
  2  3  1  0
  3  4  1  0
  3  5  1  0
  5  6  1  0
  6  7  1  0
  7  8  2  0
  7  9  1  0
  9  3  1  0
  9  5  1  0
  1 10  1  0
  1 11  1  0
  1 12  1  0
  4 13  1  0
  4 14  1  0
  4 15  1  0
  5 16  1  0
  9 17  1  0
M  END
