
     RDKit          3D

 18 18  0  0  0  0  0  0  0  0999 V2000
    2.3744    0.4918    0.4315 C   0  0  0  0  0  0  0  0  0  0  0  0
    1.0552    0.5400    0.9401 O   0  0  0  0  0  0  0  0  0  0  0  0
    0.2596   -0.1288    0.0514 C   0  0  0  0  0  0  0  0  0  0  0  0
   -0.5437   -1.2476    0.6517 C   0  0  0  0  0  0  0  0  0  0  0  0
   -1.8033   -1.2110    0.1153 O   0  0  0  0  0  0  0  0  0  0  0  0
   -1.8135   -0.3714   -0.9680 C   0  0  0  0  0  0  0  0  0  0  0  0
   -0.8410    0.7381   -0.5436 C   0  0  0  0  0  0  0  0  0  0  0  0
   -1.4269    1.5622    0.4142 O   0  0  0  0  0  0  0  0  0  0  0  0
    2.6486   -0.5823    0.3552 H   0  0  0  0  0  0  0  0  0  0  0  0
    3.0872    1.0142    1.0725 H   0  0  0  0  0  0  0  0  0  0  0  0
    2.3954    0.8843   -0.6155 H   0  0  0  0  0  0  0  0  0  0  0  0
    0.8237   -0.5383   -0.8321 H   0  0  0  0  0  0  0  0  0  0  0  0
   -0.6351   -1.1829    1.7553 H   0  0  0  0  0  0  0  0  0  0  0  0
   -0.0655   -2.2411    0.4468 H   0  0  0  0  0  0  0  0  0  0  0  0
   -1.3668   -0.8610   -1.8551 H   0  0  0  0  0  0  0  0  0  0  0  0
   -2.7754    0.0947   -1.1856 H   0  0  0  0  0  0  0  0  0  0  0  0
   -0.5196    1.3039   -1.4157 H   0  0  0  0  0  0  0  0  0  0  0  0
   -0.8532    1.7352    1.1815 H   0  0  0  0  0  0  0  0  0  0  0  0
  1  2  1  0
  2  3  1  0
  3  4  1  0
  4  5  1  0
  5  6  1  0
  6  7  1  0
  7  8  1  0
  7  3  1  0
  1  9  1  0
  1 10  1  0
  1 11  1  0
  3 12  1  0
  4 13  1  0
  4 14  1  0
  6 15  1  0
  6 16  1  0
  7 17  1  0
  8 18  1  0
M  END
