
     RDKit          3D

 19 20  0  0  0  0  0  0  0  0999 V2000
    2.4481   -0.7900    0.4705 C   0  0  0  0  0  0  0  0  0  0  0  0
    1.1353   -1.0384    0.1625 O   0  0  0  0  0  0  0  0  0  0  0  0
    0.3968    0.0927    0.2823 C   0  0  0  0  0  0  0  0  0  0  0  0
   -0.4750    0.3737   -0.9546 C   0  0  0  0  0  0  0  0  0  0  0  0
   -1.3753   -0.8257   -0.9064 C   0  0  0  0  0  0  0  0  0  0  0  0
   -1.5530   -1.1030    0.4532 O   0  0  0  0  0  0  0  0  0  0  0  0
   -0.8526   -0.1138    1.1625 C   0  0  0  0  0  0  0  0  0  0  0  0
   -1.5143    1.0761    0.9557 O   0  0  0  0  0  0  0  0  0  0  0  0
   -1.2557    1.5234   -0.3243 C   0  0  0  0  0  0  0  0  0  0  0  0
    3.0798   -1.7033    0.3805 H   0  0  0  0  0  0  0  0  0  0  0  0
    2.6096   -0.4085    1.4954 H   0  0  0  0  0  0  0  0  0  0  0  0
    2.8918   -0.0360   -0.2142 H   0  0  0  0  0  0  0  0  0  0  0  0
    0.9350    0.9950    0.5932 H   0  0  0  0  0  0  0  0  0  0  0  0
    0.0489    0.5850   -1.8432 H   0  0  0  0  0  0  0  0  0  0  0  0
   -0.8578   -1.7262   -1.3279 H   0  0  0  0  0  0  0  0  0  0  0  0
   -2.3482   -0.6726   -1.4137 H   0  0  0  0  0  0  0  0  0  0  0  0
   -0.6221   -0.3752    2.1700 H   0  0  0  0  0  0  0  0  0  0  0  0
   -2.1546    1.7814   -0.9037 H   0  0  0  0  0  0  0  0  0  0  0  0
   -0.5367    2.3654   -0.2378 H   0  0  0  0  0  0  0  0  0  0  0  0
  1  2  1  0
  2  3  1  0
  3  4  1  0
  4  5  1  0
  5  6  1  0
  6  7  1  0
  7  8  1  0
  8  9  1  0
  7  3  1  0
  9  4  1  0
  1 10  1  0
  1 11  1  0
  1 12  1  0
  3 13  1  0
  4 14  1  0
  5 15  1  0
  5 16  1  0
  7 17  1  0
  9 18  1  0
  9 19  1  0
M  END
