
     RDKit          3D

 17 18  0  0  0  0  0  0  0  0999 V2000
    2.2907   -0.5908   -0.6807 C   0  0  0  0  0  0  0  0  0  0  0  0
    1.1201    0.0950   -1.0144 O   0  0  0  0  0  0  0  0  0  0  0  0
    0.3366    0.2022    0.1165 C   0  0  0  0  0  0  0  0  0  0  0  0
   -0.1980    1.6194    0.3345 C   0  0  0  0  0  0  0  0  0  0  0  0
   -1.4427    1.1876   -0.3489 C   0  0  0  0  0  0  0  0  0  0  0  0
   -2.3437    1.7714   -0.9134 O   0  0  0  0  0  0  0  0  0  0  0  0
   -1.1063   -0.1855   -0.0483 C   0  0  0  0  0  0  0  0  0  0  0  0
   -1.7221   -1.1579    0.6941 C   0  0  0  0  0  0  0  0  0  0  0  0
   -1.4915   -1.2610   -0.7732 O   0  0  0  0  0  0  0  0  0  0  0  0
    2.8715   -0.0669    0.1041 H   0  0  0  0  0  0  0  0  0  0  0  0
    2.0026   -1.6020   -0.2737 H   0  0  0  0  0  0  0  0  0  0  0  0
    2.8970   -0.7997   -1.5893 H   0  0  0  0  0  0  0  0  0  0  0  0
    0.7739   -0.2560    1.0184 H   0  0  0  0  0  0  0  0  0  0  0  0
   -0.4401    1.8201    1.4184 H   0  0  0  0  0  0  0  0  0  0  0  0
    0.3955    2.3841   -0.1643 H   0  0  0  0  0  0  0  0  0  0  0  0
   -1.1454   -1.9889    1.1737 H   0  0  0  0  0  0  0  0  0  0  0  0
   -2.7982   -1.1709    0.9466 H   0  0  0  0  0  0  0  0  0  0  0  0
  1  2  1  0
  2  3  1  0
  3  4  1  0
  4  5  1  0
  5  6  2  0
  5  7  1  0
  7  8  1  0
  8  9  1  0
  7  3  1  0
  9  7  1  0
  1 10  1  0
  1 11  1  0
  1 12  1  0
  3 13  1  0
  4 14  1  0
  4 15  1  0
  8 16  1  0
  8 17  1  0
M  END
