
     RDKit          3D

 19 19  0  0  0  0  0  0  0  0999 V2000
   -2.0470   -1.5736    0.1455 C   0  0  0  0  0  0  0  0  0  0  0  0
   -1.4641   -0.4048   -0.3178 O   0  0  0  0  0  0  0  0  0  0  0  0
   -0.6333    0.1895    0.6220 C   0  0  0  0  0  0  0  0  0  0  0  0
   -1.0158    1.4892    0.9283 O   0  0  0  0  0  0  0  0  0  0  0  0
   -0.2887    2.3260    0.0918 C   0  0  0  0  0  0  0  0  0  0  0  0
    0.9122    1.5467   -0.3047 C   0  0  0  0  0  0  0  0  0  0  0  0
    0.7208    0.2920    0.0017 C   0  0  0  0  0  0  0  0  0  0  0  0
    1.5995   -0.9018   -0.1783 C   0  0  0  0  0  0  0  0  0  0  0  0
    2.8105   -0.5262   -0.7831 O   0  0  0  0  0  0  0  0  0  0  0  0
   -2.6695   -1.3989    1.0493 H   0  0  0  0  0  0  0  0  0  0  0  0
   -2.7801   -1.8878   -0.6501 H   0  0  0  0  0  0  0  0  0  0  0  0
   -1.3060   -2.3774    0.3576 H   0  0  0  0  0  0  0  0  0  0  0  0
   -0.5933   -0.3818    1.5628 H   0  0  0  0  0  0  0  0  0  0  0  0
   -0.9471    2.5698   -0.7736 H   0  0  0  0  0  0  0  0  0  0  0  0
    0.0511    3.2535    0.5814 H   0  0  0  0  0  0  0  0  0  0  0  0
    1.7932    1.9449   -0.7668 H   0  0  0  0  0  0  0  0  0  0  0  0
    1.7930   -1.3844    0.8075 H   0  0  0  0  0  0  0  0  0  0  0  0
    1.0743   -1.6665   -0.7969 H   0  0  0  0  0  0  0  0  0  0  0  0
    2.9904   -1.1083   -1.5765 H   0  0  0  0  0  0  0  0  0  0  0  0
  1  2  1  0
  2  3  1  0
  3  4  1  0
  4  5  1  0
  5  6  1  0
  6  7  2  0
  7  8  1  0
  8  9  1  0
  7  3  1  0
  1 10  1  0
  1 11  1  0
  1 12  1  0
  3 13  1  0
  5 14  1  0
  5 15  1  0
  6 16  1  0
  8 17  1  0
  8 18  1  0
  9 19  1  0
M  END
