
     RDKit          3D

 21 22  0  0  0  0  0  0  0  0999 V2000
    2.9292    0.2379   -0.9150 C   0  0  0  0  0  0  0  0  0  0  0  0
    2.2201   -0.1125    0.2194 O   0  0  0  0  0  0  0  0  0  0  0  0
    0.8534    0.0361    0.0917 C   0  0  0  0  0  0  0  0  0  0  0  0
    0.3452    0.8103    1.3348 C   0  0  0  0  0  0  0  0  0  0  0  0
   -0.9545    0.1832    0.8443 C   0  0  0  0  0  0  0  0  0  0  0  0
   -1.2851    0.8139   -0.3292 O   0  0  0  0  0  0  0  0  0  0  0  0
   -2.4576    0.3521   -0.8762 C   0  0  0  0  0  0  0  0  0  0  0  0
   -1.3721   -1.1586    0.9727 C   0  0  0  0  0  0  0  0  0  0  0  0
    0.0514   -1.0417    0.7812 C   0  0  0  0  0  0  0  0  0  0  0  0
    4.0046    0.0758   -0.6878 H   0  0  0  0  0  0  0  0  0  0  0  0
    2.8212    1.3260   -1.1071 H   0  0  0  0  0  0  0  0  0  0  0  0
    2.6853   -0.3488   -1.8039 H   0  0  0  0  0  0  0  0  0  0  0  0
    0.4920    0.4042   -0.8654 H   0  0  0  0  0  0  0  0  0  0  0  0
    0.3718    1.8887    1.2375 H   0  0  0  0  0  0  0  0  0  0  0  0
    0.7895    0.3576    2.2244 H   0  0  0  0  0  0  0  0  0  0  0  0
   -2.7153    0.9259   -1.8120 H   0  0  0  0  0  0  0  0  0  0  0  0
   -2.4313   -0.7038   -1.2252 H   0  0  0  0  0  0  0  0  0  0  0  0
   -3.2555    0.4187   -0.1201 H   0  0  0  0  0  0  0  0  0  0  0  0
   -1.8817   -1.8112    0.2398 H   0  0  0  0  0  0  0  0  0  0  0  0
   -1.8092   -1.4167    1.9968 H   0  0  0  0  0  0  0  0  0  0  0  0
    0.5986   -1.2370    1.7630 H   0  0  0  0  0  0  0  0  0  0  0  0
  1  2  1  0
  2  3  1  0
  3  4  1  0
  4  5  1  0
  5  6  1  0
  6  7  1  0
  5  8  1  0
  8  9  1  0
  9  3  1  0
  9  5  1  0
  1 10  1  0
  1 11  1  0
  1 12  1  0
  3 13  1  0
  4 14  1  0
  4 15  1  0
  7 16  1  0
  7 17  1  0
  7 18  1  0
  8 19  1  0
  8 20  1  0
  9 21  1  0
M  END
