
     RDKit          3D

 21 22  0  0  0  0  0  0  0  0999 V2000
   -1.3896    1.7549   -0.5857 C   0  0  0  0  0  0  0  0  0  0  0  0
   -0.2961    0.9882   -0.3676 O   0  0  0  0  0  0  0  0  0  0  0  0
   -0.5005   -0.3019    0.0167 C   0  0  0  0  0  0  0  0  0  0  0  0
    0.7256   -1.1231    0.2501 C   0  0  0  0  0  0  0  0  0  0  0  0
    1.5157   -1.1829   -1.0107 O   0  0  0  0  0  0  0  0  0  0  0  0
    2.0666   -0.7006    0.2180 C   0  0  0  0  0  0  0  0  0  0  0  0
    2.5698    0.7157    0.1751 C   0  0  0  0  0  0  0  0  0  0  0  0
   -1.6605   -1.0945   -0.5829 C   0  0  0  0  0  0  0  0  0  0  0  0
   -1.7336   -0.6561    0.8431 C   0  0  0  0  0  0  0  0  0  0  0  0
   -2.0839    1.4089   -1.3683 H   0  0  0  0  0  0  0  0  0  0  0  0
   -1.0353    2.7658   -0.9265 H   0  0  0  0  0  0  0  0  0  0  0  0
   -1.9807    1.9451    0.3348 H   0  0  0  0  0  0  0  0  0  0  0  0
    0.4949   -2.1504    0.6374 H   0  0  0  0  0  0  0  0  0  0  0  0
    2.8563   -1.3996    0.5792 H   0  0  0  0  0  0  0  0  0  0  0  0
    2.7213    1.0592    1.2278 H   0  0  0  0  0  0  0  0  0  0  0  0
    3.6112    0.6805   -0.2615 H   0  0  0  0  0  0  0  0  0  0  0  0
    2.0021    1.3933   -0.4437 H   0  0  0  0  0  0  0  0  0  0  0  0
   -1.5254   -2.1793   -0.7670 H   0  0  0  0  0  0  0  0  0  0  0  0
   -2.3372   -0.6127   -1.2907 H   0  0  0  0  0  0  0  0  0  0  0  0
   -2.4540    0.1175    1.1062 H   0  0  0  0  0  0  0  0  0  0  0  0
   -1.5668   -1.4279    1.6180 H   0  0  0  0  0  0  0  0  0  0  0  0
  1  2  1  0
  2  3  1  0
  3  4  1  0
  4  5  1  0
  5  6  1  0
  6  7  1  0
  3  8  1  0
  8  9  1  0
  9  3  1  0
  6  4  1  0
  1 10  1  0
  1 11  1  0
  1 12  1  0
  4 13  1  0
  6 14  1  0
  7 15  1  0
  7 16  1  0
  7 17  1  0
  8 18  1  0
  8 19  1  0
  9 20  1  0
  9 21  1  0
M  END
