
     RDKit          3D

 19 20  0  0  0  0  0  0  0  0999 V2000
    2.4865   -0.4308    0.1341 C   0  0  0  0  0  0  0  0  0  0  0  0
    1.6336   -0.0064   -0.8339 O   0  0  0  0  0  0  0  0  0  0  0  0
    0.3148    0.0572   -0.5414 C   0  0  0  0  0  0  0  0  0  0  0  0
   -0.3640   -1.1997   -0.1436 C   0  0  0  0  0  0  0  0  0  0  0  0
   -1.3180   -0.4261    0.7563 C   0  0  0  0  0  0  0  0  0  0  0  0
   -2.5013   -0.1552    0.0554 O   0  0  0  0  0  0  0  0  0  0  0  0
   -0.2789    0.6950    0.6382 C   0  0  0  0  0  0  0  0  0  0  0  0
   -0.3411    1.3684   -0.6605 C   0  0  0  0  0  0  0  0  0  0  0  0
   -1.5947    1.4884   -1.2987 O   0  0  0  0  0  0  0  0  0  0  0  0
    2.2683   -1.4461    0.4808 H   0  0  0  0  0  0  0  0  0  0  0  0
    2.4289    0.3132    0.9815 H   0  0  0  0  0  0  0  0  0  0  0  0
    3.5435   -0.3402   -0.2264 H   0  0  0  0  0  0  0  0  0  0  0  0
   -0.8498   -1.7652   -0.9556 H   0  0  0  0  0  0  0  0  0  0  0  0
    0.2757   -1.8356    0.5019 H   0  0  0  0  0  0  0  0  0  0  0  0
   -1.4642   -0.8247    1.7533 H   0  0  0  0  0  0  0  0  0  0  0  0
   -2.6786   -0.9175   -0.5781 H   0  0  0  0  0  0  0  0  0  0  0  0
    0.2591    1.0327    1.5097 H   0  0  0  0  0  0  0  0  0  0  0  0
    0.2881    2.2425   -0.8022 H   0  0  0  0  0  0  0  0  0  0  0  0
   -2.1081    2.1501   -0.7710 H   0  0  0  0  0  0  0  0  0  0  0  0
  1  2  1  0
  2  3  1  0
  3  4  1  0
  4  5  1  0
  5  6  1  0
  5  7  1  0
  7  8  1  0
  8  9  1  0
  7  3  1  0
  8  3  1  0
  1 10  1  0
  1 11  1  0
  1 12  1  0
  4 13  1  0
  4 14  1  0
  5 15  1  0
  6 16  1  0
  7 17  1  0
  8 18  1  0
  9 19  1  0
M  END
