
     RDKit          3D

 23 23  0  0  0  0  0  0  0  0999 V2000
    2.5742   -0.4857   -0.1614 C   0  0  0  0  0  0  0  0  0  0  0  0
    1.3013   -1.0399   -0.0894 O   0  0  0  0  0  0  0  0  0  0  0  0
    0.3051   -0.0788   -0.0366 C   0  0  0  0  0  0  0  0  0  0  0  0
    0.4040    0.8382    1.1378 C   0  0  0  0  0  0  0  0  0  0  0  0
    0.2462    0.7645   -1.2927 C   0  0  0  0  0  0  0  0  0  0  0  0
   -1.2025    1.0114   -1.4935 C   0  0  0  0  0  0  0  0  0  0  0  0
   -1.9069    0.1463   -0.8089 C   0  0  0  0  0  0  0  0  0  0  0  0
   -1.0225   -0.7704   -0.0785 C   0  0  0  0  0  0  0  0  0  0  0  0
   -1.5432   -1.1306    1.2893 C   0  0  0  0  0  0  0  0  0  0  0  0
    3.2921   -1.3313   -0.1991 H   0  0  0  0  0  0  0  0  0  0  0  0
    2.8221    0.1103    0.7242 H   0  0  0  0  0  0  0  0  0  0  0  0
    2.7276    0.0813   -1.1177 H   0  0  0  0  0  0  0  0  0  0  0  0
    0.7753    0.3465    2.0554 H   0  0  0  0  0  0  0  0  0  0  0  0
    1.1283    1.6412    0.8983 H   0  0  0  0  0  0  0  0  0  0  0  0
   -0.5957    1.3114    1.2782 H   0  0  0  0  0  0  0  0  0  0  0  0
    0.7438    1.7578   -1.1516 H   0  0  0  0  0  0  0  0  0  0  0  0
    0.6938    0.2731   -2.1681 H   0  0  0  0  0  0  0  0  0  0  0  0
   -1.5950    1.8311   -2.1457 H   0  0  0  0  0  0  0  0  0  0  0  0
   -3.0134    0.1132   -0.7861 H   0  0  0  0  0  0  0  0  0  0  0  0
   -0.9701   -1.7134   -0.6986 H   0  0  0  0  0  0  0  0  0  0  0  0
   -2.0570   -2.1135    1.2390 H   0  0  0  0  0  0  0  0  0  0  0  0
   -2.3324   -0.3764    1.5430 H   0  0  0  0  0  0  0  0  0  0  0  0
   -0.7751   -1.1861    2.0627 H   0  0  0  0  0  0  0  0  0  0  0  0
  1  2  1  0
  2  3  1  0
  3  4  1  0
  3  5  1  0
  5  6  1  0
  6  7  2  0
  7  8  1  0
  8  9  1  0
  8  3  1  0
  1 10  1  0
  1 11  1  0
  1 12  1  0
  4 13  1  0
  4 14  1  0
  4 15  1  0
  5 16  1  0
  5 17  1  0
  6 18  1  0
  7 19  1  0
  8 20  1  0
  9 21  1  0
  9 22  1  0
  9 23  1  0
M  END
