
     RDKit          3D

 18 19  0  0  0  0  0  0  0  0999 V2000
    2.5897   -0.0040   -0.5479 C   0  0  0  0  0  0  0  0  0  0  0  0
    1.4330    0.7441   -0.2797 O   0  0  0  0  0  0  0  0  0  0  0  0
    0.3316   -0.0203   -0.6263 C   0  0  0  0  0  0  0  0  0  0  0  0
   -0.6890    0.7425   -1.4096 C   0  0  0  0  0  0  0  0  0  0  0  0
   -1.6143    0.6576   -0.2099 C   0  0  0  0  0  0  0  0  0  0  0  0
   -2.0101   -0.7069    0.2281 C   0  0  0  0  0  0  0  0  0  0  0  0
   -0.6516   -0.1844    0.5052 C   0  0  0  0  0  0  0  0  0  0  0  0
   -0.2647    0.0346    1.8050 O   0  0  0  0  0  0  0  0  0  0  0  0
    3.4883    0.5863   -0.2789 H   0  0  0  0  0  0  0  0  0  0  0  0
    2.6018   -0.9321    0.0803 H   0  0  0  0  0  0  0  0  0  0  0  0
    2.5770   -0.3181   -1.5931 H   0  0  0  0  0  0  0  0  0  0  0  0
    0.5883   -1.0286   -1.0294 H   0  0  0  0  0  0  0  0  0  0  0  0
   -1.1154    0.1521   -2.2362 H   0  0  0  0  0  0  0  0  0  0  0  0
   -0.4384    1.7846   -1.6772 H   0  0  0  0  0  0  0  0  0  0  0  0
   -2.0707    1.5592    0.2007 H   0  0  0  0  0  0  0  0  0  0  0  0
   -2.6916   -0.7286    1.1095 H   0  0  0  0  0  0  0  0  0  0  0  0
   -2.0903   -1.5510   -0.4716 H   0  0  0  0  0  0  0  0  0  0  0  0
    0.0263   -0.7869    2.2748 H   0  0  0  0  0  0  0  0  0  0  0  0
  1  2  1  0
  2  3  1  0
  3  4  1  0
  4  5  1  0
  5  6  1  0
  6  7  1  0
  7  8  1  0
  7  3  1  0
  7  5  1  0
  1  9  1  0
  1 10  1  0
  1 11  1  0
  3 12  1  0
  4 13  1  0
  4 14  1  0
  5 15  1  0
  6 16  1  0
  6 17  1  0
  8 18  1  0
M  END
