
     RDKit          3D

 21 21  0  0  0  0  0  0  0  0999 V2000
    2.8176   -0.7437    0.4274 C   0  0  0  0  0  0  0  0  0  0  0  0
    1.5058   -0.5089    0.8248 O   0  0  0  0  0  0  0  0  0  0  0  0
    0.8788    0.2229   -0.1717 C   0  0  0  0  0  0  0  0  0  0  0  0
    0.3068    1.5196    0.3349 C   0  0  0  0  0  0  0  0  0  0  0  0
   -1.1516    1.3585    0.3228 C   0  0  0  0  0  0  0  0  0  0  0  0
   -1.9471    2.0950    0.8515 O   0  0  0  0  0  0  0  0  0  0  0  0
   -1.5114    0.1460   -0.4417 C   0  0  0  0  0  0  0  0  0  0  0  0
   -2.4697   -0.7302    0.3374 C   0  0  0  0  0  0  0  0  0  0  0  0
   -0.2603   -0.6242   -0.6817 C   0  0  0  0  0  0  0  0  0  0  0  0
    3.3887   -1.3291    1.1797 H   0  0  0  0  0  0  0  0  0  0  0  0
    2.8493   -1.3364   -0.5187 H   0  0  0  0  0  0  0  0  0  0  0  0
    3.3093    0.2327    0.1914 H   0  0  0  0  0  0  0  0  0  0  0  0
    1.6037    0.4028   -0.9843 H   0  0  0  0  0  0  0  0  0  0  0  0
    0.5614    2.3221   -0.4182 H   0  0  0  0  0  0  0  0  0  0  0  0
    0.7270    1.8563    1.2840 H   0  0  0  0  0  0  0  0  0  0  0  0
   -2.0089    0.4624   -1.4037 H   0  0  0  0  0  0  0  0  0  0  0  0
   -3.4205   -0.8496   -0.2339 H   0  0  0  0  0  0  0  0  0  0  0  0
   -2.6830   -0.3041    1.3348 H   0  0  0  0  0  0  0  0  0  0  0  0
   -2.0714   -1.7641    0.4729 H   0  0  0  0  0  0  0  0  0  0  0  0
   -0.1301   -0.7983   -1.7768 H   0  0  0  0  0  0  0  0  0  0  0  0
   -0.2943   -1.6299   -0.2213 H   0  0  0  0  0  0  0  0  0  0  0  0
  1  2  1  0
  2  3  1  0
  3  4  1  0
  4  5  1  0
  5  6  2  0
  5  7  1  0
  7  8  1  0
  7  9  1  0
  9  3  1  0
  1 10  1  0
  1 11  1  0
  1 12  1  0
  3 13  1  0
  4 14  1  0
  4 15  1  0
  7 16  1  0
  8 17  1  0
  8 18  1  0
  8 19  1  0
  9 20  1  0
  9 21  1  0
M  END
