
     RDKit          3D

 20 20  0  0  0  0  0  0  0  0999 V2000
    2.1882   -0.4458   -0.0112 C   0  0  0  0  0  0  0  0  0  0  0  0
    1.0556   -0.3393    0.8167 O   0  0  0  0  0  0  0  0  0  0  0  0
    0.1207    0.3737    0.0771 C   0  0  0  0  0  0  0  0  0  0  0  0
    0.6100    1.7518   -0.1723 C   0  0  0  0  0  0  0  0  0  0  0  0
   -1.2313    0.4354    0.7319 C   0  0  0  0  0  0  0  0  0  0  0  0
   -1.9601   -0.7730    0.1645 C   0  0  0  0  0  0  0  0  0  0  0  0
   -0.8002   -1.4896   -0.5372 C   0  0  0  0  0  0  0  0  0  0  0  0
   -0.1183   -0.3717   -1.0680 O   0  0  0  0  0  0  0  0  0  0  0  0
    3.0075   -0.9995    0.4751 H   0  0  0  0  0  0  0  0  0  0  0  0
    1.9129   -0.9104   -0.9995 H   0  0  0  0  0  0  0  0  0  0  0  0
    2.5137    0.5774   -0.2479 H   0  0  0  0  0  0  0  0  0  0  0  0
    1.1623    2.0891    0.7455 H   0  0  0  0  0  0  0  0  0  0  0  0
    1.1850    1.8954   -1.0899 H   0  0  0  0  0  0  0  0  0  0  0  0
   -0.2678    2.4520   -0.2376 H   0  0  0  0  0  0  0  0  0  0  0  0
   -1.2035    0.4499    1.8230 H   0  0  0  0  0  0  0  0  0  0  0  0
   -1.7406    1.3478    0.3283 H   0  0  0  0  0  0  0  0  0  0  0  0
   -2.4275   -1.3945    0.9323 H   0  0  0  0  0  0  0  0  0  0  0  0
   -2.6662   -0.4789   -0.6547 H   0  0  0  0  0  0  0  0  0  0  0  0
   -0.2022   -1.9976    0.2374 H   0  0  0  0  0  0  0  0  0  0  0  0
   -1.1382   -2.1725   -1.3135 H   0  0  0  0  0  0  0  0  0  0  0  0
  1  2  1  0
  2  3  1  0
  3  4  1  0
  3  5  1  0
  5  6  1  0
  6  7  1  0
  7  8  1  0
  8  3  1  0
  1  9  1  0
  1 10  1  0
  1 11  1  0
  4 12  1  0
  4 13  1  0
  4 14  1  0
  5 15  1  0
  5 16  1  0
  6 17  1  0
  6 18  1  0
  7 19  1  0
  7 20  1  0
M  END
