
     RDKit          3D

 17 18  0  0  0  0  0  0  0  0999 V2000
   -1.9820    0.8134   -0.4170 C   0  0  0  0  0  0  0  0  0  0  0  0
   -0.6435    1.0155   -0.1086 O   0  0  0  0  0  0  0  0  0  0  0  0
   -0.1649   -0.2003    0.4159 C   0  0  0  0  0  0  0  0  0  0  0  0
   -0.2198   -1.2907   -0.4459 C   0  0  0  0  0  0  0  0  0  0  0  0
    1.1106   -0.8133   -0.3051 C   0  0  0  0  0  0  0  0  0  0  0  0
    1.7646    0.5117   -0.3527 C   0  0  0  0  0  0  0  0  0  0  0  0
    1.6923    0.8673    1.0471 O   0  0  0  0  0  0  0  0  0  0  0  0
    0.6162    0.1339    1.6103 C   0  0  0  0  0  0  0  0  0  0  0  0
    0.4403   -0.1250    2.8276 O   0  0  0  0  0  0  0  0  0  0  0  0
   -2.3728    1.7676   -0.8282 H   0  0  0  0  0  0  0  0  0  0  0  0
   -2.5810    0.5789    0.5113 H   0  0  0  0  0  0  0  0  0  0  0  0
   -2.1896    0.0290   -1.1371 H   0  0  0  0  0  0  0  0  0  0  0  0
   -0.6534   -1.2026   -1.4840 H   0  0  0  0  0  0  0  0  0  0  0  0
   -0.5039   -2.2926   -0.0409 H   0  0  0  0  0  0  0  0  0  0  0  0
    1.7571   -1.4815    0.3489 H   0  0  0  0  0  0  0  0  0  0  0  0
    2.8033    0.4771   -0.7050 H   0  0  0  0  0  0  0  0  0  0  0  0
    1.1263    1.2117   -0.9363 H   0  0  0  0  0  0  0  0  0  0  0  0
  1  2  1  0
  2  3  1  0
  3  4  1  0
  4  5  1  0
  5  6  1  0
  6  7  1  0
  7  8  1  0
  8  9  2  0
  5  3  1  0
  8  3  1  0
  1 10  1  0
  1 11  1  0
  1 12  1  0
  4 13  1  0
  4 14  1  0
  5 15  1  0
  6 16  1  0
  6 17  1  0
M  END
