
     RDKit          3D

 21 22  0  0  0  0  0  0  0  0999 V2000
    2.6966    0.7239    0.2053 C   0  0  0  0  0  0  0  0  0  0  0  0
    1.6314    0.6058   -0.6889 O   0  0  0  0  0  0  0  0  0  0  0  0
    0.5707   -0.0872   -0.1883 C   0  0  0  0  0  0  0  0  0  0  0  0
    0.1160   -1.2391   -1.0577 C   0  0  0  0  0  0  0  0  0  0  0  0
   -1.2322   -1.5433   -0.3909 C   0  0  0  0  0  0  0  0  0  0  0  0
   -1.8373   -0.1395   -0.3660 C   0  0  0  0  0  0  0  0  0  0  0  0
   -2.2672    0.2790    0.8823 O   0  0  0  0  0  0  0  0  0  0  0  0
   -1.2113    1.1729    1.1316 C   0  0  0  0  0  0  0  0  0  0  0  0
   -0.6608    0.8077   -0.2174 C   0  0  0  0  0  0  0  0  0  0  0  0
    3.4824    1.3024   -0.3231 H   0  0  0  0  0  0  0  0  0  0  0  0
    3.0639   -0.3050    0.3994 H   0  0  0  0  0  0  0  0  0  0  0  0
    2.4192    1.2610    1.1222 H   0  0  0  0  0  0  0  0  0  0  0  0
    0.6874   -0.4600    0.8423 H   0  0  0  0  0  0  0  0  0  0  0  0
   -0.1121   -0.9084   -2.0791 H   0  0  0  0  0  0  0  0  0  0  0  0
    0.7869   -2.0929   -1.0543 H   0  0  0  0  0  0  0  0  0  0  0  0
   -1.0478   -1.8158    0.6551 H   0  0  0  0  0  0  0  0  0  0  0  0
   -1.8288   -2.2497   -0.9667 H   0  0  0  0  0  0  0  0  0  0  0  0
   -2.5101    0.0742   -1.2156 H   0  0  0  0  0  0  0  0  0  0  0  0
   -0.6166    0.7725    1.9778 H   0  0  0  0  0  0  0  0  0  0  0  0
   -1.5141    2.2288    1.2037 H   0  0  0  0  0  0  0  0  0  0  0  0
   -0.6160    1.6126   -0.9688 H   0  0  0  0  0  0  0  0  0  0  0  0
  1  2  1  0
  2  3  1  0
  3  4  1  0
  4  5  1  0
  5  6  1  0
  6  7  1  0
  7  8  1  0
  8  9  1  0
  9  3  1  0
  9  6  1  0
  1 10  1  0
  1 11  1  0
  1 12  1  0
  3 13  1  0
  4 14  1  0
  4 15  1  0
  5 16  1  0
  5 17  1  0
  6 18  1  0
  8 19  1  0
  8 20  1  0
  9 21  1  0
M  END
