
     RDKit          3D

 17 18  0  0  0  0  0  0  0  0999 V2000
    2.4506   -0.6948    0.2278 C   0  0  0  0  0  0  0  0  0  0  0  0
    1.1477   -1.0508    0.6357 O   0  0  0  0  0  0  0  0  0  0  0  0
    0.2867   -0.2465   -0.0726 C   0  0  0  0  0  0  0  0  0  0  0  0
   -0.7655    0.4043    0.7664 C   0  0  0  0  0  0  0  0  0  0  0  0
   -1.4461    1.3166   -0.2729 C   0  0  0  0  0  0  0  0  0  0  0  0
   -1.6524    0.2271   -1.2627 C   0  0  0  0  0  0  0  0  0  0  0  0
   -2.2141    0.2267   -2.3052 O   0  0  0  0  0  0  0  0  0  0  0  0
   -0.9602   -0.9028   -0.6082 C   0  0  0  0  0  0  0  0  0  0  0  0
   -1.4632   -0.8131    0.6905 O   0  0  0  0  0  0  0  0  0  0  0  0
    2.5523   -0.8641   -0.8588 H   0  0  0  0  0  0  0  0  0  0  0  0
    3.2240   -1.2639    0.7589 H   0  0  0  0  0  0  0  0  0  0  0  0
    2.6111    0.4106    0.3830 H   0  0  0  0  0  0  0  0  0  0  0  0
    0.7372    0.4688   -0.7706 H   0  0  0  0  0  0  0  0  0  0  0  0
   -0.5423    0.8157    1.7135 H   0  0  0  0  0  0  0  0  0  0  0  0
   -0.6958    2.0617   -0.6170 H   0  0  0  0  0  0  0  0  0  0  0  0
   -2.3697    1.7507    0.1085 H   0  0  0  0  0  0  0  0  0  0  0  0
   -0.9001   -1.8463   -1.0824 H   0  0  0  0  0  0  0  0  0  0  0  0
  1  2  1  0
  2  3  1  0
  3  4  1  0
  4  5  1  0
  5  6  1  0
  6  7  2  0
  6  8  1  0
  8  9  1  0
  8  3  1  0
  9  4  1  0
  1 10  1  0
  1 11  1  0
  1 12  1  0
  3 13  1  0
  4 14  1  0
  5 15  1  0
  5 16  1  0
  8 17  1  0
M  END
