
     RDKit          3D

 19 20  0  0  0  0  0  0  0  0999 V2000
    2.3527   -0.6365   -0.1206 C   0  0  0  0  0  0  0  0  0  0  0  0
    1.2472   -0.8030    0.7148 O   0  0  0  0  0  0  0  0  0  0  0  0
    0.2375    0.1002    0.4334 C   0  0  0  0  0  0  0  0  0  0  0  0
    0.6514    1.5570    0.5866 C   0  0  0  0  0  0  0  0  0  0  0  0
   -1.1168   -0.2122    0.9187 C   0  0  0  0  0  0  0  0  0  0  0  0
   -1.4611   -1.5642    0.9004 O   0  0  0  0  0  0  0  0  0  0  0  0
   -1.7158   -1.3949   -0.4563 C   0  0  0  0  0  0  0  0  0  0  0  0
   -0.7651   -0.2597   -0.5870 C   0  0  0  0  0  0  0  0  0  0  0  0
   -1.2237    0.7961   -1.3719 O   0  0  0  0  0  0  0  0  0  0  0  0
    2.8146    0.3502   -0.0537 H   0  0  0  0  0  0  0  0  0  0  0  0
    1.9519   -0.7296   -1.1691 H   0  0  0  0  0  0  0  0  0  0  0  0
    3.1076   -1.4083    0.0443 H   0  0  0  0  0  0  0  0  0  0  0  0
    1.6615    1.6810    0.9760 H   0  0  0  0  0  0  0  0  0  0  0  0
   -0.0314    2.0816    1.3161 H   0  0  0  0  0  0  0  0  0  0  0  0
    0.4746    2.0640   -0.3899 H   0  0  0  0  0  0  0  0  0  0  0  0
   -1.8701    0.5434    1.1587 H   0  0  0  0  0  0  0  0  0  0  0  0
   -2.7878   -1.0734   -0.5681 H   0  0  0  0  0  0  0  0  0  0  0  0
   -1.5268   -2.2805   -1.0894 H   0  0  0  0  0  0  0  0  0  0  0  0
   -2.0003    1.1888   -0.8734 H   0  0  0  0  0  0  0  0  0  0  0  0
  1  2  1  0
  2  3  1  0
  3  4  1  0
  3  5  1  0
  5  6  1  0
  6  7  1  0
  7  8  1  0
  8  9  1  0
  8  3  1  0
  8  5  1  0
  1 10  1  0
  1 11  1  0
  1 12  1  0
  4 13  1  0
  4 14  1  0
  4 15  1  0
  5 16  1  0
  7 17  1  0
  7 18  1  0
  9 19  1  0
M  END
