
     RDKit          3D

 21 21  0  0  0  0  0  0  0  0999 V2000
    2.2228   -0.4576    0.4700 C   0  0  0  0  0  0  0  0  0  0  0  0
    0.9417   -0.2041    0.9314 O   0  0  0  0  0  0  0  0  0  0  0  0
    0.1397    0.2072   -0.1246 C   0  0  0  0  0  0  0  0  0  0  0  0
    0.6050    1.4371   -0.7998 C   0  0  0  0  0  0  0  0  0  0  0  0
   -0.1809   -0.9165   -1.0461 C   0  0  0  0  0  0  0  0  0  0  0  0
   -1.2329   -1.5856   -0.5789 C   0  0  0  0  0  0  0  0  0  0  0  0
   -1.6777   -0.9351    0.6984 C   0  0  0  0  0  0  0  0  0  0  0  0
   -1.2628    0.4790    0.4451 C   0  0  0  0  0  0  0  0  0  0  0  0
   -1.2006    1.2710    1.5514 O   0  0  0  0  0  0  0  0  0  0  0  0
    2.2210   -1.2581   -0.3066 H   0  0  0  0  0  0  0  0  0  0  0  0
    2.8836   -0.8005    1.2889 H   0  0  0  0  0  0  0  0  0  0  0  0
    2.6759    0.4552    0.0562 H   0  0  0  0  0  0  0  0  0  0  0  0
    1.3351    1.2389   -1.6078 H   0  0  0  0  0  0  0  0  0  0  0  0
   -0.2779    1.9494   -1.2554 H   0  0  0  0  0  0  0  0  0  0  0  0
    1.1199    2.0822   -0.0587 H   0  0  0  0  0  0  0  0  0  0  0  0
    0.3451   -1.1692   -1.9592 H   0  0  0  0  0  0  0  0  0  0  0  0
   -1.7359   -2.4468   -0.9815 H   0  0  0  0  0  0  0  0  0  0  0  0
   -1.0051   -1.3780    1.4884 H   0  0  0  0  0  0  0  0  0  0  0  0
   -2.7289   -1.0821    0.9111 H   0  0  0  0  0  0  0  0  0  0  0  0
   -1.8866    0.8880   -0.3787 H   0  0  0  0  0  0  0  0  0  0  0  0
   -1.3004    2.2253    1.2565 H   0  0  0  0  0  0  0  0  0  0  0  0
  1  2  1  0
  2  3  1  0
  3  4  1  0
  3  5  1  0
  5  6  2  0
  6  7  1  0
  7  8  1  0
  8  9  1  0
  8  3  1  0
  1 10  1  0
  1 11  1  0
  1 12  1  0
  4 13  1  0
  4 14  1  0
  4 15  1  0
  5 16  1  0
  6 17  1  0
  7 18  1  0
  7 19  1  0
  8 20  1  0
  9 21  1  0
M  END
