
     RDKit          3D

 21 22  0  0  0  0  0  0  0  0999 V2000
    2.3221    0.5120    0.3504 C   0  0  0  0  0  0  0  0  0  0  0  0
    1.4872   -0.5104    0.6553 O   0  0  0  0  0  0  0  0  0  0  0  0
    0.4540   -0.8038   -0.1572 C   0  0  0  0  0  0  0  0  0  0  0  0
   -0.4108   -1.9891    0.2655 C   0  0  0  0  0  0  0  0  0  0  0  0
   -1.5902   -1.0354    0.2467 C   0  0  0  0  0  0  0  0  0  0  0  0
   -0.7397    0.0177   -0.3931 C   0  0  0  0  0  0  0  0  0  0  0  0
   -0.9167    1.4451   -0.0310 C   0  0  0  0  0  0  0  0  0  0  0  0
   -0.7859    1.7072    1.3344 O   0  0  0  0  0  0  0  0  0  0  0  0
    0.1953   -0.3121   -1.4990 C   0  0  0  0  0  0  0  0  0  0  0  0
    1.8774    1.5154    0.2800 H   0  0  0  0  0  0  0  0  0  0  0  0
    3.1678    0.5215    1.1003 H   0  0  0  0  0  0  0  0  0  0  0  0
    2.8277    0.3581   -0.6491 H   0  0  0  0  0  0  0  0  0  0  0  0
   -0.4650   -2.8111   -0.4456 H   0  0  0  0  0  0  0  0  0  0  0  0
   -0.1567   -2.3610    1.2743 H   0  0  0  0  0  0  0  0  0  0  0  0
   -2.4449   -1.3827   -0.3733 H   0  0  0  0  0  0  0  0  0  0  0  0
   -1.8608   -0.7338    1.2840 H   0  0  0  0  0  0  0  0  0  0  0  0
   -0.2242    2.0677   -0.6041 H   0  0  0  0  0  0  0  0  0  0  0  0
   -1.9961    1.7298   -0.2549 H   0  0  0  0  0  0  0  0  0  0  0  0
   -1.2226    2.5801    1.4997 H   0  0  0  0  0  0  0  0  0  0  0  0
    0.7149    0.5287   -1.9558 H   0  0  0  0  0  0  0  0  0  0  0  0
   -0.2329   -1.0440   -2.2462 H   0  0  0  0  0  0  0  0  0  0  0  0
  1  2  1  0
  2  3  1  0
  3  4  1  0
  4  5  1  0
  5  6  1  0
  6  7  1  0
  7  8  1  0
  6  9  1  0
  6  3  1  0
  9  3  1  0
  1 10  1  0
  1 11  1  0
  1 12  1  0
  4 13  1  0
  4 14  1  0
  5 15  1  0
  5 16  1  0
  7 17  1  0
  7 18  1  0
  8 19  1  0
  9 20  1  0
  9 21  1  0
M  END
