
     RDKit          3D

 23 23  0  0  0  0  0  0  0  0999 V2000
    3.0455    0.3567   -0.0986 C   0  0  0  0  0  0  0  0  0  0  0  0
    1.7551    0.4855    0.4294 O   0  0  0  0  0  0  0  0  0  0  0  0
    0.8205   -0.2483   -0.3018 C   0  0  0  0  0  0  0  0  0  0  0  0
   -0.0910    0.7458   -0.9594 C   0  0  0  0  0  0  0  0  0  0  0  0
   -1.0324    1.2812    0.0873 C   0  0  0  0  0  0  0  0  0  0  0  0
   -1.9353    0.1896    0.5933 C   0  0  0  0  0  0  0  0  0  0  0  0
   -3.0771    0.2077   -0.2441 O   0  0  0  0  0  0  0  0  0  0  0  0
   -1.3458   -1.1532    0.6346 C   0  0  0  0  0  0  0  0  0  0  0  0
    0.1346   -1.2598    0.5477 C   0  0  0  0  0  0  0  0  0  0  0  0
    3.2778   -0.7376   -0.0461 H   0  0  0  0  0  0  0  0  0  0  0  0
    3.7675    0.8423    0.5848 H   0  0  0  0  0  0  0  0  0  0  0  0
    3.1133    0.7417   -1.1343 H   0  0  0  0  0  0  0  0  0  0  0  0
    1.3936   -0.7432   -1.1254 H   0  0  0  0  0  0  0  0  0  0  0  0
   -0.6075    0.3649   -1.8519 H   0  0  0  0  0  0  0  0  0  0  0  0
    0.5331    1.6117   -1.2976 H   0  0  0  0  0  0  0  0  0  0  0  0
   -1.6511    2.0926   -0.3229 H   0  0  0  0  0  0  0  0  0  0  0  0
   -0.4462    1.6837    0.9175 H   0  0  0  0  0  0  0  0  0  0  0  0
   -2.3203    0.5310    1.5896 H   0  0  0  0  0  0  0  0  0  0  0  0
   -2.8128   -0.0393   -1.1810 H   0  0  0  0  0  0  0  0  0  0  0  0
   -1.8227   -1.7962   -0.1529 H   0  0  0  0  0  0  0  0  0  0  0  0
   -1.6605   -1.6599    1.5947 H   0  0  0  0  0  0  0  0  0  0  0  0
    0.3819   -2.2792    0.1709 H   0  0  0  0  0  0  0  0  0  0  0  0
    0.5797   -1.2177    1.5661 H   0  0  0  0  0  0  0  0  0  0  0  0
  1  2  1  0
  2  3  1  0
  3  4  1  0
  4  5  1  0
  5  6  1  0
  6  7  1  0
  6  8  1  0
  8  9  1  0
  9  3  1  0
  1 10  1  0
  1 11  1  0
  1 12  1  0
  3 13  1  0
  4 14  1  0
  4 15  1  0
  5 16  1  0
  5 17  1  0
  6 18  1  0
  7 19  1  0
  8 20  1  0
  8 21  1  0
  9 22  1  0
  9 23  1  0
M  END
