
     RDKit          3D

 21 21  0  0  0  0  0  0  0  0999 V2000
   -2.2185    1.2637    0.0204 C   0  0  0  0  0  0  0  0  0  0  0  0
   -1.1915    0.9214    0.8785 O   0  0  0  0  0  0  0  0  0  0  0  0
   -0.4050   -0.1293    0.3883 C   0  0  0  0  0  0  0  0  0  0  0  0
   -1.3455   -1.3453    0.3432 C   0  0  0  0  0  0  0  0  0  0  0  0
    0.0356    0.0967   -0.9991 C   0  0  0  0  0  0  0  0  0  0  0  0
    1.3050    0.2998   -1.2911 C   0  0  0  0  0  0  0  0  0  0  0  0
    2.3223    0.3035   -0.2109 C   0  0  0  0  0  0  0  0  0  0  0  0
    1.8381   -0.3688    1.0268 C   0  0  0  0  0  0  0  0  0  0  0  0
    0.5446   -0.3654    1.2987 O   0  0  0  0  0  0  0  0  0  0  0  0
   -1.9079    1.5923   -0.9682 H   0  0  0  0  0  0  0  0  0  0  0  0
   -2.8875    1.9722    0.5495 H   0  0  0  0  0  0  0  0  0  0  0  0
   -2.8332    0.3282   -0.1333 H   0  0  0  0  0  0  0  0  0  0  0  0
   -1.7187   -1.5223   -0.6852 H   0  0  0  0  0  0  0  0  0  0  0  0
   -0.7745   -2.2712    0.6263 H   0  0  0  0  0  0  0  0  0  0  0  0
   -2.1970   -1.2184    1.0365 H   0  0  0  0  0  0  0  0  0  0  0  0
   -0.6679    0.1032   -1.8238 H   0  0  0  0  0  0  0  0  0  0  0  0
    1.6413    0.4671   -2.3075 H   0  0  0  0  0  0  0  0  0  0  0  0
    3.2440   -0.1714   -0.6079 H   0  0  0  0  0  0  0  0  0  0  0  0
    2.5902    1.3733   -0.0340 H   0  0  0  0  0  0  0  0  0  0  0  0
    2.4010    0.1003    1.8859 H   0  0  0  0  0  0  0  0  0  0  0  0
    2.2251   -1.4296    1.0069 H   0  0  0  0  0  0  0  0  0  0  0  0
  1  2  1  0
  2  3  1  0
  3  4  1  0
  3  5  1  0
  5  6  2  0
  6  7  1  0
  7  8  1  0
  8  9  1  0
  9  3  1  0
  1 10  1  0
  1 11  1  0
  1 12  1  0
  4 13  1  0
  4 14  1  0
  4 15  1  0
  5 16  1  0
  6 17  1  0
  7 18  1  0
  7 19  1  0
  8 20  1  0
  8 21  1  0
M  END
