
     RDKit          3D

 17 19  0  0  0  0  0  0  0  0999 V2000
    1.8901    0.4702    1.0571 C   0  0  0  0  0  0  0  0  0  0  0  0
    0.5974    0.9341    0.8421 O   0  0  0  0  0  0  0  0  0  0  0  0
    0.0900    0.2745   -0.2628 C   0  0  0  0  0  0  0  0  0  0  0  0
    0.0293   -1.1515   -0.0866 C   0  0  0  0  0  0  0  0  0  0  0  0
    0.5187   -1.9148   -1.1690 O   0  0  0  0  0  0  0  0  0  0  0  0
   -1.2705   -0.5139   -0.0986 C   0  0  0  0  0  0  0  0  0  0  0  0
   -1.6714    0.8648    0.3272 C   0  0  0  0  0  0  0  0  0  0  0  0
   -1.8325    1.9409   -0.4695 O   0  0  0  0  0  0  0  0  0  0  0  0
   -0.8843    1.1587   -0.9804 C   0  0  0  0  0  0  0  0  0  0  0  0
    1.9241   -0.6073    1.2447 H   0  0  0  0  0  0  0  0  0  0  0  0
    2.4456    0.6644    0.0937 H   0  0  0  0  0  0  0  0  0  0  0  0
    2.3804    0.9991    1.8982 H   0  0  0  0  0  0  0  0  0  0  0  0
    0.2526   -1.6881    0.8844 H   0  0  0  0  0  0  0  0  0  0  0  0
   -0.1685   -2.4431   -1.6021 H   0  0  0  0  0  0  0  0  0  0  0  0
   -1.8045   -0.7285   -1.0776 H   0  0  0  0  0  0  0  0  0  0  0  0
   -1.2382    1.1341    1.2946 H   0  0  0  0  0  0  0  0  0  0  0  0
   -1.2583    0.6062   -1.8953 H   0  0  0  0  0  0  0  0  0  0  0  0
  1  2  1  0
  2  3  1  0
  3  4  1  0
  4  5  1  0
  4  6  1  0
  6  7  1  0
  7  8  1  0
  8  9  1  0
  6  3  1  0
  9  7  1  0
  9  3  1  0
  1 10  1  0
  1 11  1  0
  1 12  1  0
  4 13  1  0
  5 14  1  0
  6 15  1  0
  7 16  1  0
  9 17  1  0
M  END
