
     RDKit          3D

 20 21  0  0  0  0  0  0  0  0999 V2000
    2.5047   -0.2507   -0.5979 C   0  0  0  0  0  0  0  0  0  0  0  0
    1.8170   -0.2244    0.5984 O   0  0  0  0  0  0  0  0  0  0  0  0
    0.4611   -0.1190    0.4805 C   0  0  0  0  0  0  0  0  0  0  0  0
   -0.3520   -1.1487   -0.2462 C   0  0  0  0  0  0  0  0  0  0  0  0
   -1.6279   -0.4877   -0.6924 C   0  0  0  0  0  0  0  0  0  0  0  0
   -1.5220    0.9643   -0.3430 C   0  0  0  0  0  0  0  0  0  0  0  0
   -0.2648    1.1557    0.4387 C   0  0  0  0  0  0  0  0  0  0  0  0
   -0.2274    0.4473    1.7476 C   0  0  0  0  0  0  0  0  0  0  0  0
    3.5971   -0.3395   -0.3296 H   0  0  0  0  0  0  0  0  0  0  0  0
    2.2645   -1.2106   -1.1079 H   0  0  0  0  0  0  0  0  0  0  0  0
    2.3811    0.6334   -1.2179 H   0  0  0  0  0  0  0  0  0  0  0  0
    0.2498   -1.5304   -1.0981 H   0  0  0  0  0  0  0  0  0  0  0  0
   -0.6017   -1.9826    0.4659 H   0  0  0  0  0  0  0  0  0  0  0  0
   -2.5044   -0.9650   -0.1947 H   0  0  0  0  0  0  0  0  0  0  0  0
   -1.8114   -0.6476   -1.7943 H   0  0  0  0  0  0  0  0  0  0  0  0
   -1.4831    1.5365   -1.3127 H   0  0  0  0  0  0  0  0  0  0  0  0
   -2.4348    1.2543    0.2315 H   0  0  0  0  0  0  0  0  0  0  0  0
    0.2346    2.1353    0.3288 H   0  0  0  0  0  0  0  0  0  0  0  0
   -1.0971   -0.1134    2.1274 H   0  0  0  0  0  0  0  0  0  0  0  0
    0.4168    0.8928    2.5157 H   0  0  0  0  0  0  0  0  0  0  0  0
  1  2  1  0
  2  3  1  0
  3  4  1  0
  4  5  1  0
  5  6  1  0
  6  7  1  0
  7  8  1  0
  7  3  1  0
  8  3  1  0
  1  9  1  0
  1 10  1  0
  1 11  1  0
  4 12  1  0
  4 13  1  0
  5 14  1  0
  5 15  1  0
  6 16  1  0
  6 17  1  0
  7 18  1  0
  8 19  1  0
  8 20  1  0
M  END
