
     RDKit          3D

 17 17  0  0  0  0  0  0  0  0999 V2000
    2.2709    0.4729    0.5592 C   0  0  0  0  0  0  0  0  0  0  0  0
    1.0721   -0.1936    0.6646 O   0  0  0  0  0  0  0  0  0  0  0  0
    0.2644   -0.1161   -0.4359 C   0  0  0  0  0  0  0  0  0  0  0  0
   -0.2975   -1.4739   -0.8534 C   0  0  0  0  0  0  0  0  0  0  0  0
   -1.0018   -1.8178    0.3479 O   0  0  0  0  0  0  0  0  0  0  0  0
   -1.4726   -0.6667    0.9494 C   0  0  0  0  0  0  0  0  0  0  0  0
   -2.1315   -0.6080    2.0023 O   0  0  0  0  0  0  0  0  0  0  0  0
   -1.0485    0.4774    0.1111 C   0  0  0  0  0  0  0  0  0  0  0  0
   -1.9727    0.6391   -0.9164 O   0  0  0  0  0  0  0  0  0  0  0  0
    2.9239    0.1417   -0.2468 H   0  0  0  0  0  0  0  0  0  0  0  0
    2.1264    1.5716    0.4396 H   0  0  0  0  0  0  0  0  0  0  0  0
    2.8233    0.3037    1.5162 H   0  0  0  0  0  0  0  0  0  0  0  0
    0.6452    0.4575   -1.2747 H   0  0  0  0  0  0  0  0  0  0  0  0
    0.4667   -2.1907   -1.1163 H   0  0  0  0  0  0  0  0  0  0  0  0
   -1.0600   -1.2798   -1.6231 H   0  0  0  0  0  0  0  0  0  0  0  0
   -0.8604    1.3970    0.6762 H   0  0  0  0  0  0  0  0  0  0  0  0
   -2.7479    0.0456   -0.8000 H   0  0  0  0  0  0  0  0  0  0  0  0
  1  2  1  0
  2  3  1  0
  3  4  1  0
  4  5  1  0
  5  6  1  0
  6  7  2  0
  6  8  1  0
  8  9  1  0
  8  3  1  0
  1 10  1  0
  1 11  1  0
  1 12  1  0
  3 13  1  0
  4 14  1  0
  4 15  1  0
  8 16  1  0
  9 17  1  0
M  END
