
     RDKit          3D

 21 22  0  0  0  0  0  0  0  0999 V2000
    3.1478   -0.2001   -0.0363 C   0  0  0  0  0  0  0  0  0  0  0  0
    1.9955    0.0828   -0.7428 O   0  0  0  0  0  0  0  0  0  0  0  0
    0.9156    0.3783    0.0677 C   0  0  0  0  0  0  0  0  0  0  0  0
    0.1975    1.6857   -0.3482 C   0  0  0  0  0  0  0  0  0  0  0  0
   -1.1164    0.9826   -0.1067 C   0  0  0  0  0  0  0  0  0  0  0  0
   -2.3605    0.6139    0.1431 C   0  0  0  0  0  0  0  0  0  0  0  0
   -2.4907   -0.8882    0.0672 C   0  0  0  0  0  0  0  0  0  0  0  0
   -1.0422   -1.2460    0.4716 C   0  0  0  0  0  0  0  0  0  0  0  0
   -0.3244   -0.2811   -0.4102 C   0  0  0  0  0  0  0  0  0  0  0  0
    3.0567   -1.0625    0.6423 H   0  0  0  0  0  0  0  0  0  0  0  0
    3.5591    0.6932    0.5013 H   0  0  0  0  0  0  0  0  0  0  0  0
    3.9259   -0.4771   -0.7965 H   0  0  0  0  0  0  0  0  0  0  0  0
    1.1001    0.3527    1.1400 H   0  0  0  0  0  0  0  0  0  0  0  0
    0.3025    1.9270   -1.4044 H   0  0  0  0  0  0  0  0  0  0  0  0
    0.3659    2.5094    0.3540 H   0  0  0  0  0  0  0  0  0  0  0  0
   -3.1896    1.2636    0.3721 H   0  0  0  0  0  0  0  0  0  0  0  0
   -2.6492   -1.1385   -0.9868 H   0  0  0  0  0  0  0  0  0  0  0  0
   -3.2170   -1.2829    0.7705 H   0  0  0  0  0  0  0  0  0  0  0  0
   -0.9501   -1.0227    1.5468 H   0  0  0  0  0  0  0  0  0  0  0  0
   -0.8578   -2.3030    0.2179 H   0  0  0  0  0  0  0  0  0  0  0  0
   -0.3686   -0.5872   -1.4628 H   0  0  0  0  0  0  0  0  0  0  0  0
  1  2  1  0
  2  3  1  0
  3  4  1  0
  4  5  1  0
  5  6  2  0
  6  7  1  0
  7  8  1  0
  8  9  1  0
  9  3  1  0
  9  5  1  0
  1 10  1  0
  1 11  1  0
  1 12  1  0
  3 13  1  0
  4 14  1  0
  4 15  1  0
  6 16  1  0
  7 17  1  0
  7 18  1  0
  8 19  1  0
  8 20  1  0
  9 21  1  0
M  END
