
     RDKit          3D

 19 19  0  0  0  0  0  0  0  0999 V2000
    2.1690   -0.6700    0.2209 C   0  0  0  0  0  0  0  0  0  0  0  0
    1.0112   -0.3424    0.8675 O   0  0  0  0  0  0  0  0  0  0  0  0
    0.0903    0.3746    0.1637 C   0  0  0  0  0  0  0  0  0  0  0  0
    0.4951    1.6933   -0.3193 C   0  0  0  0  0  0  0  0  0  0  0  0
    1.5897    2.1458   -0.0909 O   0  0  0  0  0  0  0  0  0  0  0  0
   -0.5819   -0.4546   -0.9107 C   0  0  0  0  0  0  0  0  0  0  0  0
   -1.7675   -1.0460   -0.2333 C   0  0  0  0  0  0  0  0  0  0  0  0
   -1.9118   -0.4650    1.0059 O   0  0  0  0  0  0  0  0  0  0  0  0
   -1.0885    0.6164    1.0955 C   0  0  0  0  0  0  0  0  0  0  0  0
    2.0040   -1.2934   -0.7090 H   0  0  0  0  0  0  0  0  0  0  0  0
    2.8054    0.2063   -0.0042 H   0  0  0  0  0  0  0  0  0  0  0  0
    2.8007   -1.3172    0.8940 H   0  0  0  0  0  0  0  0  0  0  0  0
   -0.2034    2.2779   -0.8955 H   0  0  0  0  0  0  0  0  0  0  0  0
   -0.8597    0.2431   -1.7465 H   0  0  0  0  0  0  0  0  0  0  0  0
    0.0829   -1.2184   -1.3604 H   0  0  0  0  0  0  0  0  0  0  0  0
   -1.6273   -2.1424   -0.1606 H   0  0  0  0  0  0  0  0  0  0  0  0
   -2.6968   -0.8692   -0.8506 H   0  0  0  0  0  0  0  0  0  0  0  0
   -1.5958    1.5778    0.8753 H   0  0  0  0  0  0  0  0  0  0  0  0
   -0.7156    0.6836    2.1583 H   0  0  0  0  0  0  0  0  0  0  0  0
  1  2  1  0
  2  3  1  0
  3  4  1  0
  4  5  2  0
  3  6  1  0
  6  7  1  0
  7  8  1  0
  8  9  1  0
  9  3  1  0
  1 10  1  0
  1 11  1  0
  1 12  1  0
  4 13  1  0
  6 14  1  0
  6 15  1  0
  7 16  1  0
  7 17  1  0
  9 18  1  0
  9 19  1  0
M  END
