
     RDKit          3D

 25 25  0  0  0  0  0  0  0  0999 V2000
    2.7741    0.3656    1.1092 C   0  0  0  0  0  0  0  0  0  0  0  0
    1.5421    0.6755    0.5528 O   0  0  0  0  0  0  0  0  0  0  0  0
    1.1384   -0.2308   -0.4081 C   0  0  0  0  0  0  0  0  0  0  0  0
    0.5032    0.2507   -1.6686 C   0  0  0  0  0  0  0  0  0  0  0  0
   -0.2781   -0.5367   -0.6583 C   0  0  0  0  0  0  0  0  0  0  0  0
   -0.6027   -1.9894   -0.9621 C   0  0  0  0  0  0  0  0  0  0  0  0
   -1.4037    0.1998    0.0021 C   0  0  0  0  0  0  0  0  0  0  0  0
   -1.4163    1.6763   -0.2894 C   0  0  0  0  0  0  0  0  0  0  0  0
   -1.4097    0.0158    1.5019 C   0  0  0  0  0  0  0  0  0  0  0  0
    3.5655    0.3426    0.3598 H   0  0  0  0  0  0  0  0  0  0  0  0
    2.9669    0.9873    1.9901 H   0  0  0  0  0  0  0  0  0  0  0  0
    2.6827   -0.6903    1.4964 H   0  0  0  0  0  0  0  0  0  0  0  0
    1.8809   -1.0488   -0.5603 H   0  0  0  0  0  0  0  0  0  0  0  0
    0.2750    1.3444   -1.7908 H   0  0  0  0  0  0  0  0  0  0  0  0
    0.7893   -0.2116   -2.6306 H   0  0  0  0  0  0  0  0  0  0  0  0
   -0.1206   -2.5865   -0.1511 H   0  0  0  0  0  0  0  0  0  0  0  0
   -1.6777   -2.1950   -0.9379 H   0  0  0  0  0  0  0  0  0  0  0  0
   -0.1562   -2.2288   -1.9563 H   0  0  0  0  0  0  0  0  0  0  0  0
   -2.3604   -0.2116   -0.3829 H   0  0  0  0  0  0  0  0  0  0  0  0
   -0.5219    2.2091    0.0592 H   0  0  0  0  0  0  0  0  0  0  0  0
   -2.2750    2.1036    0.2712 H   0  0  0  0  0  0  0  0  0  0  0  0
   -1.6460    1.8886   -1.3725 H   0  0  0  0  0  0  0  0  0  0  0  0
   -0.5045   -0.5452    1.7793 H   0  0  0  0  0  0  0  0  0  0  0  0
   -2.2777   -0.5852    1.8488 H   0  0  0  0  0  0  0  0  0  0  0  0
   -1.4677    1.0006    2.0393 H   0  0  0  0  0  0  0  0  0  0  0  0
  1  2  1  0
  2  3  1  0
  3  4  1  0
  4  5  1  0
  5  6  1  0
  5  7  1  0
  7  8  1  0
  7  9  1  0
  5  3  1  0
  1 10  1  0
  1 11  1  0
  1 12  1  0
  3 13  1  0
  4 14  1  0
  4 15  1  0
  6 16  1  0
  6 17  1  0
  6 18  1  0
  7 19  1  0
  8 20  1  0
  8 21  1  0
  8 22  1  0
  9 23  1  0
  9 24  1  0
  9 25  1  0
M  END
