
     RDKit          3D

 21 22  0  0  0  0  0  0  0  0999 V2000
    2.4414   -1.1309   -0.2498 C   0  0  0  0  0  0  0  0  0  0  0  0
    1.4941   -0.2176   -0.6964 O   0  0  0  0  0  0  0  0  0  0  0  0
    0.6465    0.1515    0.2984 C   0  0  0  0  0  0  0  0  0  0  0  0
    0.2539    1.6048    0.4111 C   0  0  0  0  0  0  0  0  0  0  0  0
   -0.0838    2.5279   -0.6068 C   0  0  0  0  0  0  0  0  0  0  0  0
   -0.4792    1.1997   -0.9394 C   0  0  0  0  0  0  0  0  0  0  0  0
   -0.8619    0.0581   -0.0210 C   0  0  0  0  0  0  0  0  0  0  0  0
   -1.1282   -1.1232   -0.6552 O   0  0  0  0  0  0  0  0  0  0  0  0
   -2.1566   -1.8160   -0.0088 C   0  0  0  0  0  0  0  0  0  0  0  0
    3.0086   -0.6150    0.5698 H   0  0  0  0  0  0  0  0  0  0  0  0
    1.9739   -2.0201    0.2430 H   0  0  0  0  0  0  0  0  0  0  0  0
    3.1186   -1.4431   -1.0744 H   0  0  0  0  0  0  0  0  0  0  0  0
    0.8663   -0.3339    1.2533 H   0  0  0  0  0  0  0  0  0  0  0  0
   -0.4580    1.6672    1.3012 H   0  0  0  0  0  0  0  0  0  0  0  0
    0.7810    3.0613   -1.1097 H   0  0  0  0  0  0  0  0  0  0  0  0
   -0.9250    3.2802   -0.5018 H   0  0  0  0  0  0  0  0  0  0  0  0
    0.2075    0.7451   -1.7220 H   0  0  0  0  0  0  0  0  0  0  0  0
   -1.4399    0.3203    0.8635 H   0  0  0  0  0  0  0  0  0  0  0  0
   -1.8098   -2.0064    1.0225 H   0  0  0  0  0  0  0  0  0  0  0  0
   -2.3892   -2.7454   -0.5548 H   0  0  0  0  0  0  0  0  0  0  0  0
   -3.0604   -1.1643   -0.0287 H   0  0  0  0  0  0  0  0  0  0  0  0
  1  2  1  0
  2  3  1  0
  3  4  1  0
  4  5  1  0
  5  6  1  0
  6  7  1  0
  7  8  1  0
  8  9  1  0
  7  3  1  0
  6  4  1  0
  1 10  1  0
  1 11  1  0
  1 12  1  0
  3 13  1  0
  4 14  1  0
  5 15  1  0
  5 16  1  0
  6 17  1  0
  7 18  1  0
  9 19  1  0
  9 20  1  0
  9 21  1  0
M  END
