
     RDKit          3D

 21 21  0  0  0  0  0  0  0  0999 V2000
   -2.7664   -0.1831   -0.3718 C   0  0  0  0  0  0  0  0  0  0  0  0
   -1.6316    0.4964   -0.8723 O   0  0  0  0  0  0  0  0  0  0  0  0
   -0.5048    0.1190   -0.1911 C   0  0  0  0  0  0  0  0  0  0  0  0
    0.5492   -0.5167   -1.0599 C   0  0  0  0  0  0  0  0  0  0  0  0
    1.5296   -1.2306   -0.1766 C   0  0  0  0  0  0  0  0  0  0  0  0
    1.7951   -0.4814    1.0799 C   0  0  0  0  0  0  0  0  0  0  0  0
    1.1849    0.6385    1.4218 C   0  0  0  0  0  0  0  0  0  0  0  0
    0.1531    1.2599    0.5538 C   0  0  0  0  0  0  0  0  0  0  0  0
    0.7766    2.1596   -0.2825 O   0  0  0  0  0  0  0  0  0  0  0  0
   -2.6619   -1.2721   -0.4722 H   0  0  0  0  0  0  0  0  0  0  0  0
   -3.6839    0.1478   -0.8566 H   0  0  0  0  0  0  0  0  0  0  0  0
   -2.7698    0.0566    0.7274 H   0  0  0  0  0  0  0  0  0  0  0  0
   -0.7802   -0.6284    0.5825 H   0  0  0  0  0  0  0  0  0  0  0  0
    0.1050   -1.2840   -1.7419 H   0  0  0  0  0  0  0  0  0  0  0  0
    1.0655    0.2071   -1.7119 H   0  0  0  0  0  0  0  0  0  0  0  0
    1.2261   -2.2858    0.0418 H   0  0  0  0  0  0  0  0  0  0  0  0
    2.5169   -1.3003   -0.7115 H   0  0  0  0  0  0  0  0  0  0  0  0
    2.5604   -0.9292    1.7385 H   0  0  0  0  0  0  0  0  0  0  0  0
    1.4491    1.1055    2.3555 H   0  0  0  0  0  0  0  0  0  0  0  0
   -0.6216    1.8159    1.1575 H   0  0  0  0  0  0  0  0  0  0  0  0
    0.5088    2.1054   -1.2106 H   0  0  0  0  0  0  0  0  0  0  0  0
  1  2  1  0
  2  3  1  0
  3  4  1  0
  4  5  1  0
  5  6  1  0
  6  7  2  0
  7  8  1  0
  8  9  1  0
  8  3  1  0
  1 10  1  0
  1 11  1  0
  1 12  1  0
  3 13  1  0
  4 14  1  0
  4 15  1  0
  5 16  1  0
  5 17  1  0
  6 18  1  0
  7 19  1  0
  8 20  1  0
  9 21  1  0
M  END
