
     RDKit          3D

 23 24  0  0  0  0  0  0  0  0999 V2000
    3.4879   -0.5090    0.5003 C   0  0  0  0  0  0  0  0  0  0  0  0
    2.2710   -1.1037    0.0891 O   0  0  0  0  0  0  0  0  0  0  0  0
    1.3400   -0.1047    0.0343 C   0  0  0  0  0  0  0  0  0  0  0  0
    0.5032   -0.0507   -1.2436 C   0  0  0  0  0  0  0  0  0  0  0  0
   -0.6342    0.3182   -0.3750 C   0  0  0  0  0  0  0  0  0  0  0  0
    0.0196   -0.4030    0.7589 C   0  0  0  0  0  0  0  0  0  0  0  0
   -1.2382    1.6299   -0.2834 C   0  0  0  0  0  0  0  0  0  0  0  0
   -2.0222    0.3482   -0.6904 C   0  0  0  0  0  0  0  0  0  0  0  0
   -3.0272   -0.1278    0.3645 C   0  0  0  0  0  0  0  0  0  0  0  0
    4.2996   -1.2429    0.5725 H   0  0  0  0  0  0  0  0  0  0  0  0
    3.6856    0.3535   -0.1376 H   0  0  0  0  0  0  0  0  0  0  0  0
    3.3474   -0.1044    1.5403 H   0  0  0  0  0  0  0  0  0  0  0  0
    1.6918    0.9252    0.3065 H   0  0  0  0  0  0  0  0  0  0  0  0
    0.8453    0.6793   -1.9897 H   0  0  0  0  0  0  0  0  0  0  0  0
    0.3662   -1.0720   -1.6707 H   0  0  0  0  0  0  0  0  0  0  0  0
   -0.0335    0.0822    1.7400 H   0  0  0  0  0  0  0  0  0  0  0  0
   -0.1934   -1.4827    0.7221 H   0  0  0  0  0  0  0  0  0  0  0  0
   -1.4549    2.0196    0.7455 H   0  0  0  0  0  0  0  0  0  0  0  0
   -1.1344    2.3970   -1.0904 H   0  0  0  0  0  0  0  0  0  0  0  0
   -2.4187    0.3575   -1.7146 H   0  0  0  0  0  0  0  0  0  0  0  0
   -3.6253    0.7171    0.7179 H   0  0  0  0  0  0  0  0  0  0  0  0
   -2.4650   -0.6082    1.2090 H   0  0  0  0  0  0  0  0  0  0  0  0
   -3.6107   -0.9402   -0.1057 H   0  0  0  0  0  0  0  0  0  0  0  0
  1  2  1  0
  2  3  1  0
  3  4  1  0
  4  5  1  0
  5  6  1  0
  5  7  1  0
  7  8  1  0
  8  9  1  0
  6  3  1  0
  8  5  1  0
  1 10  1  0
  1 11  1  0
  1 12  1  0
  3 13  1  0
  4 14  1  0
  4 15  1  0
  6 16  1  0
  6 17  1  0
  7 18  1  0
  7 19  1  0
  8 20  1  0
  9 21  1  0
  9 22  1  0
  9 23  1  0
M  END
