
     RDKit          3D

 23 23  0  0  0  0  0  0  0  0999 V2000
    2.2926   -0.6074    0.6810 C   0  0  0  0  0  0  0  0  0  0  0  0
    0.9476   -0.8661    0.9128 O   0  0  0  0  0  0  0  0  0  0  0  0
    0.1862   -0.3752   -0.1256 C   0  0  0  0  0  0  0  0  0  0  0  0
    0.5066   -0.9620   -1.4705 C   0  0  0  0  0  0  0  0  0  0  0  0
   -1.3153   -0.1686    0.0972 C   0  0  0  0  0  0  0  0  0  0  0  0
   -1.8064   -0.8083    1.3554 C   0  0  0  0  0  0  0  0  0  0  0  0
   -0.3866    0.9677    0.0514 C   0  0  0  0  0  0  0  0  0  0  0  0
   -0.5084    1.9286   -1.1283 C   0  0  0  0  0  0  0  0  0  0  0  0
   -0.0819    1.6664    1.2334 O   0  0  0  0  0  0  0  0  0  0  0  0
    2.6114   -1.0918   -0.2580 H   0  0  0  0  0  0  0  0  0  0  0  0
    2.9414   -0.9891    1.4866 H   0  0  0  0  0  0  0  0  0  0  0  0
    2.3847    0.5052    0.5634 H   0  0  0  0  0  0  0  0  0  0  0  0
   -0.3217   -0.8621   -2.1990 H   0  0  0  0  0  0  0  0  0  0  0  0
    1.4659   -0.5469   -1.8558 H   0  0  0  0  0  0  0  0  0  0  0  0
    0.6647   -2.0513   -1.3250 H   0  0  0  0  0  0  0  0  0  0  0  0
   -1.9963   -0.2815   -0.7637 H   0  0  0  0  0  0  0  0  0  0  0  0
   -2.9025   -0.8298    1.3695 H   0  0  0  0  0  0  0  0  0  0  0  0
   -1.4538   -1.8812    1.3269 H   0  0  0  0  0  0  0  0  0  0  0  0
   -1.4234   -0.3867    2.2784 H   0  0  0  0  0  0  0  0  0  0  0  0
   -1.5998    2.2015   -1.2110 H   0  0  0  0  0  0  0  0  0  0  0  0
   -0.1837    1.4716   -2.0716 H   0  0  0  0  0  0  0  0  0  0  0  0
    0.0283    2.8659   -0.9661 H   0  0  0  0  0  0  0  0  0  0  0  0
   -0.0497    1.1013    2.0186 H   0  0  0  0  0  0  0  0  0  0  0  0
  1  2  1  0
  2  3  1  0
  3  4  1  0
  3  5  1  0
  5  6  1  0
  5  7  1  0
  7  8  1  0
  7  9  1  0
  7  3  1  0
  1 10  1  0
  1 11  1  0
  1 12  1  0
  4 13  1  0
  4 14  1  0
  4 15  1  0
  5 16  1  0
  6 17  1  0
  6 18  1  0
  6 19  1  0
  8 20  1  0
  8 21  1  0
  8 22  1  0
  9 23  1  0
M  END
