
     RDKit          3D

 23 24  0  0  0  0  0  0  0  0999 V2000
    2.6648    0.7568   -0.3105 C   0  0  0  0  0  0  0  0  0  0  0  0
    1.3409    0.7281    0.0168 O   0  0  0  0  0  0  0  0  0  0  0  0
    0.8622   -0.5639    0.2975 C   0  0  0  0  0  0  0  0  0  0  0  0
    1.0349   -1.3909   -0.8527 C   0  0  0  0  0  0  0  0  0  0  0  0
   -0.3227   -1.1057   -0.5993 C   0  0  0  0  0  0  0  0  0  0  0  0
   -1.0351    0.0627   -0.0184 C   0  0  0  0  0  0  0  0  0  0  0  0
   -0.8281    1.4163   -0.5236 C   0  0  0  0  0  0  0  0  0  0  0  0
   -2.5340   -0.1792    0.2345 C   0  0  0  0  0  0  0  0  0  0  0  0
   -0.2974   -0.4109    1.2331 C   0  0  0  0  0  0  0  0  0  0  0  0
    3.2363    0.3443    0.5642 H   0  0  0  0  0  0  0  0  0  0  0  0
    2.9828    1.8272   -0.3651 H   0  0  0  0  0  0  0  0  0  0  0  0
    2.8712    0.2136   -1.2276 H   0  0  0  0  0  0  0  0  0  0  0  0
    1.4143   -1.0523   -1.8669 H   0  0  0  0  0  0  0  0  0  0  0  0
    1.5300   -2.3907   -0.6453 H   0  0  0  0  0  0  0  0  0  0  0  0
   -0.8335   -2.0262   -0.1487 H   0  0  0  0  0  0  0  0  0  0  0  0
   -0.4582    2.1729    0.2323 H   0  0  0  0  0  0  0  0  0  0  0  0
   -0.2400    1.4943   -1.4893 H   0  0  0  0  0  0  0  0  0  0  0  0
   -1.8069    1.9019   -0.8457 H   0  0  0  0  0  0  0  0  0  0  0  0
   -3.1312    0.5103   -0.4107 H   0  0  0  0  0  0  0  0  0  0  0  0
   -2.7782   -1.2120   -0.1187 H   0  0  0  0  0  0  0  0  0  0  0  0
   -2.7581   -0.0623    1.3056 H   0  0  0  0  0  0  0  0  0  0  0  0
   -0.7548   -1.3454    1.5991 H   0  0  0  0  0  0  0  0  0  0  0  0
   -0.1594    0.3111    2.0214 H   0  0  0  0  0  0  0  0  0  0  0  0
  1  2  1  0
  2  3  1  0
  3  4  1  0
  4  5  1  0
  5  6  1  0
  6  7  1  0
  6  8  1  0
  6  9  1  0
  5  3  1  0
  9  3  1  0
  1 10  1  0
  1 11  1  0
  1 12  1  0
  4 13  1  0
  4 14  1  0
  5 15  1  0
  7 16  1  0
  7 17  1  0
  7 18  1  0
  8 19  1  0
  8 20  1  0
  8 21  1  0
  9 22  1  0
  9 23  1  0
M  END
