
     RDKit          3D

 19 19  0  0  0  0  0  0  0  0999 V2000
    2.4392    1.1364    0.0224 C   0  0  0  0  0  0  0  0  0  0  0  0
    1.1688    0.7505   -0.4093 O   0  0  0  0  0  0  0  0  0  0  0  0
    0.7728   -0.3498    0.3040 C   0  0  0  0  0  0  0  0  0  0  0  0
    0.3825   -1.4966   -0.6079 C   0  0  0  0  0  0  0  0  0  0  0  0
   -0.8260   -1.6540    0.0965 O   0  0  0  0  0  0  0  0  0  0  0  0
   -0.6781   -0.4158    0.6998 C   0  0  0  0  0  0  0  0  0  0  0  0
   -1.5479    0.6162    0.1057 C   0  0  0  0  0  0  0  0  0  0  0  0
   -2.4475    0.2657   -1.0119 C   0  0  0  0  0  0  0  0  0  0  0  0
   -1.5137    1.7419    0.5431 O   0  0  0  0  0  0  0  0  0  0  0  0
    3.1938    0.3352   -0.1229 H   0  0  0  0  0  0  0  0  0  0  0  0
    2.7254    2.0758   -0.4937 H   0  0  0  0  0  0  0  0  0  0  0  0
    2.4394    1.3326    1.1359 H   0  0  0  0  0  0  0  0  0  0  0  0
    1.4892   -0.7299    1.0644 H   0  0  0  0  0  0  0  0  0  0  0  0
    0.2190   -1.1765   -1.6552 H   0  0  0  0  0  0  0  0  0  0  0  0
    0.9732   -2.4252   -0.4772 H   0  0  0  0  0  0  0  0  0  0  0  0
   -0.7676   -0.4809    1.8030 H   0  0  0  0  0  0  0  0  0  0  0  0
   -3.2843    0.9556   -1.1557 H   0  0  0  0  0  0  0  0  0  0  0  0
   -1.8479    0.2790   -1.9491 H   0  0  0  0  0  0  0  0  0  0  0  0
   -2.8904   -0.7602   -0.8784 H   0  0  0  0  0  0  0  0  0  0  0  0
  1  2  1  0
  2  3  1  0
  3  4  1  0
  4  5  1  0
  5  6  1  0
  6  7  1  0
  7  8  1  0
  7  9  2  0
  6  3  1  0
  1 10  1  0
  1 11  1  0
  1 12  1  0
  3 13  1  0
  4 14  1  0
  4 15  1  0
  6 16  1  0
  8 17  1  0
  8 18  1  0
  8 19  1  0
M  END
