
     RDKit          3D

 21 22  0  0  0  0  0  0  0  0999 V2000
    2.9491    0.7586   -0.2276 C   0  0  0  0  0  0  0  0  0  0  0  0
    1.6114    0.5867   -0.5782 O   0  0  0  0  0  0  0  0  0  0  0  0
    0.9648   -0.2550    0.3094 C   0  0  0  0  0  0  0  0  0  0  0  0
    0.4231   -1.4220   -0.4701 C   0  0  0  0  0  0  0  0  0  0  0  0
   -0.9199   -1.5185   -0.2327 O   0  0  0  0  0  0  0  0  0  0  0  0
   -1.3786   -0.3069    0.2202 C   0  0  0  0  0  0  0  0  0  0  0  0
   -2.2157    0.5790   -0.6824 C   0  0  0  0  0  0  0  0  0  0  0  0
   -2.7923   -0.1002    0.4989 C   0  0  0  0  0  0  0  0  0  0  0  0
   -0.2667    0.3892    0.9285 C   0  0  0  0  0  0  0  0  0  0  0  0
    3.4796   -0.2322   -0.2319 H   0  0  0  0  0  0  0  0  0  0  0  0
    3.4089    1.4093   -0.9918 H   0  0  0  0  0  0  0  0  0  0  0  0
    2.9660    1.1941    0.7884 H   0  0  0  0  0  0  0  0  0  0  0  0
    1.6923   -0.5739    1.0748 H   0  0  0  0  0  0  0  0  0  0  0  0
    0.9507   -2.3389   -0.1219 H   0  0  0  0  0  0  0  0  0  0  0  0
    0.6716   -1.3488   -1.5651 H   0  0  0  0  0  0  0  0  0  0  0  0
   -2.3116    0.1786   -1.7070 H   0  0  0  0  0  0  0  0  0  0  0  0
   -2.0578    1.6850   -0.6438 H   0  0  0  0  0  0  0  0  0  0  0  0
   -3.1895    0.4970    1.3356 H   0  0  0  0  0  0  0  0  0  0  0  0
   -3.4715   -0.9683    0.2515 H   0  0  0  0  0  0  0  0  0  0  0  0
   -0.2238    1.4914    0.6963 H   0  0  0  0  0  0  0  0  0  0  0  0
   -0.2902    0.2958    2.0167 H   0  0  0  0  0  0  0  0  0  0  0  0
  1  2  1  0
  2  3  1  0
  3  4  1  0
  4  5  1  0
  5  6  1  0
  6  7  1  0
  7  8  1  0
  6  9  1  0
  9  3  1  0
  8  6  1  0
  1 10  1  0
  1 11  1  0
  1 12  1  0
  3 13  1  0
  4 14  1  0
  4 15  1  0
  7 16  1  0
  7 17  1  0
  8 18  1  0
  8 19  1  0
  9 20  1  0
  9 21  1  0
M  END
