
     RDKit          3D

 22 22  0  0  0  0  0  0  0  0999 V2000
    2.6097    0.5527   -0.0228 C   0  0  0  0  0  0  0  0  0  0  0  0
    1.6150    0.0409   -0.8545 O   0  0  0  0  0  0  0  0  0  0  0  0
    0.5126   -0.2391   -0.1108 C   0  0  0  0  0  0  0  0  0  0  0  0
    0.0875   -1.7020   -0.1926 C   0  0  0  0  0  0  0  0  0  0  0  0
   -1.2486   -1.6311    0.5613 C   0  0  0  0  0  0  0  0  0  0  0  0
   -1.7745   -0.2340    0.3017 C   0  0  0  0  0  0  0  0  0  0  0  0
   -0.7458    0.4564   -0.5696 C   0  0  0  0  0  0  0  0  0  0  0  0
   -0.6860    1.9458   -0.3054 C   0  0  0  0  0  0  0  0  0  0  0  0
    2.8902   -0.1902    0.7788 H   0  0  0  0  0  0  0  0  0  0  0  0
    2.2341    1.4383    0.5156 H   0  0  0  0  0  0  0  0  0  0  0  0
    3.5434    0.7340   -0.5882 H   0  0  0  0  0  0  0  0  0  0  0  0
    0.6655   -0.0017    0.9374 H   0  0  0  0  0  0  0  0  0  0  0  0
   -0.1181   -2.0136   -1.2371 H   0  0  0  0  0  0  0  0  0  0  0  0
    0.7975   -2.3683    0.3072 H   0  0  0  0  0  0  0  0  0  0  0  0
   -1.9190   -2.4231    0.2311 H   0  0  0  0  0  0  0  0  0  0  0  0
   -0.9600   -1.7253    1.6463 H   0  0  0  0  0  0  0  0  0  0  0  0
   -1.8845    0.3329    1.2592 H   0  0  0  0  0  0  0  0  0  0  0  0
   -2.7637   -0.2996   -0.1884 H   0  0  0  0  0  0  0  0  0  0  0  0
   -0.9385    0.3281   -1.6473 H   0  0  0  0  0  0  0  0  0  0  0  0
   -1.6715    2.4112   -0.1996 H   0  0  0  0  0  0  0  0  0  0  0  0
   -0.1724    2.4018   -1.1971 H   0  0  0  0  0  0  0  0  0  0  0  0
   -0.0728    2.1859    0.5747 H   0  0  0  0  0  0  0  0  0  0  0  0
  1  2  1  0
  2  3  1  0
  3  4  1  0
  4  5  1  0
  5  6  1  0
  6  7  1  0
  7  8  1  0
  7  3  1  0
  1  9  1  0
  1 10  1  0
  1 11  1  0
  3 12  1  0
  4 13  1  0
  4 14  1  0
  5 15  1  0
  5 16  1  0
  6 17  1  0
  6 18  1  0
  7 19  1  0
  8 20  1  0
  8 21  1  0
  8 22  1  0
M  END
