
     RDKit          3D

 23 23  0  0  0  0  0  0  0  0999 V2000
    2.7025    0.7622    0.1411 C   0  0  0  0  0  0  0  0  0  0  0  0
    1.6011    0.3135    0.8534 O   0  0  0  0  0  0  0  0  0  0  0  0
    0.5761   -0.0781    0.0211 C   0  0  0  0  0  0  0  0  0  0  0  0
    0.2477   -1.5215    0.2834 C   0  0  0  0  0  0  0  0  0  0  0  0
   -1.1115   -1.9467   -0.0857 C   0  0  0  0  0  0  0  0  0  0  0  0
   -2.0866   -0.8811   -0.4146 C   0  0  0  0  0  0  0  0  0  0  0  0
   -1.5468    0.3047   -0.8359 O   0  0  0  0  0  0  0  0  0  0  0  0
   -0.6849    0.7248    0.2047 C   0  0  0  0  0  0  0  0  0  0  0  0
   -0.4855    2.2014    0.0021 C   0  0  0  0  0  0  0  0  0  0  0  0
    3.5284    1.0782    0.7830 H   0  0  0  0  0  0  0  0  0  0  0  0
    3.1205   -0.0438   -0.5258 H   0  0  0  0  0  0  0  0  0  0  0  0
    2.4533    1.6239   -0.5150 H   0  0  0  0  0  0  0  0  0  0  0  0
    0.9186    0.0763   -1.0229 H   0  0  0  0  0  0  0  0  0  0  0  0
    0.4809   -1.7380    1.3604 H   0  0  0  0  0  0  0  0  0  0  0  0
    1.0022   -2.1346   -0.2869 H   0  0  0  0  0  0  0  0  0  0  0  0
   -1.0896   -2.6753   -0.9417 H   0  0  0  0  0  0  0  0  0  0  0  0
   -1.5417   -2.5478    0.7683 H   0  0  0  0  0  0  0  0  0  0  0  0
   -2.8076   -1.2169   -1.2139 H   0  0  0  0  0  0  0  0  0  0  0  0
   -2.7422   -0.6494    0.4755 H   0  0  0  0  0  0  0  0  0  0  0  0
   -1.1449    0.5604    1.1980 H   0  0  0  0  0  0  0  0  0  0  0  0
    0.2068    2.3908   -0.8652 H   0  0  0  0  0  0  0  0  0  0  0  0
   -0.1482    2.7127    0.9239 H   0  0  0  0  0  0  0  0  0  0  0  0
   -1.4486    2.6845   -0.3072 H   0  0  0  0  0  0  0  0  0  0  0  0
  1  2  1  0
  2  3  1  0
  3  4  1  0
  4  5  1  0
  5  6  1  0
  6  7  1  0
  7  8  1  0
  8  9  1  0
  8  3  1  0
  1 10  1  0
  1 11  1  0
  1 12  1  0
  3 13  1  0
  4 14  1  0
  4 15  1  0
  5 16  1  0
  5 17  1  0
  6 18  1  0
  6 19  1  0
  8 20  1  0
  9 21  1  0
  9 22  1  0
  9 23  1  0
M  END
