
     RDKit          3D

 19 20  0  0  0  0  0  0  0  0999 V2000
    2.4267    0.5127    0.3145 C   0  0  0  0  0  0  0  0  0  0  0  0
    1.2310   -0.0347    0.7489 O   0  0  0  0  0  0  0  0  0  0  0  0
    0.3281   -0.2551   -0.2683 C   0  0  0  0  0  0  0  0  0  0  0  0
   -0.0805   -1.7330   -0.2138 C   0  0  0  0  0  0  0  0  0  0  0  0
   -0.7465   -1.7472    1.0328 O   0  0  0  0  0  0  0  0  0  0  0  0
   -1.6701   -0.7222    0.8805 C   0  0  0  0  0  0  0  0  0  0  0  0
   -0.9825    0.3858    0.1182 C   0  0  0  0  0  0  0  0  0  0  0  0
   -1.1041    1.7398    0.3781 C   0  0  0  0  0  0  0  0  0  0  0  0
   -1.6860    1.1427   -0.7893 O   0  0  0  0  0  0  0  0  0  0  0  0
    2.2934    1.4768   -0.1752 H   0  0  0  0  0  0  0  0  0  0  0  0
    2.9405   -0.2265   -0.3652 H   0  0  0  0  0  0  0  0  0  0  0  0
    3.0731    0.6132    1.2318 H   0  0  0  0  0  0  0  0  0  0  0  0
    0.6860    0.0323   -1.2604 H   0  0  0  0  0  0  0  0  0  0  0  0
   -0.8384   -1.9360   -0.9691 H   0  0  0  0  0  0  0  0  0  0  0  0
    0.7711   -2.4006   -0.1818 H   0  0  0  0  0  0  0  0  0  0  0  0
   -1.9573   -0.3348    1.8573 H   0  0  0  0  0  0  0  0  0  0  0  0
   -2.5068   -1.1256    0.2761 H   0  0  0  0  0  0  0  0  0  0  0  0
   -1.8506    2.1174    1.1346 H   0  0  0  0  0  0  0  0  0  0  0  0
   -0.3272    2.4951    0.1705 H   0  0  0  0  0  0  0  0  0  0  0  0
  1  2  1  0
  2  3  1  0
  3  4  1  0
  4  5  1  0
  5  6  1  0
  6  7  1  0
  7  8  1  0
  8  9  1  0
  7  3  1  0
  9  7  1  0
  1 10  1  0
  1 11  1  0
  1 12  1  0
  3 13  1  0
  4 14  1  0
  4 15  1  0
  6 16  1  0
  6 17  1  0
  8 18  1  0
  8 19  1  0
M  END
