
     RDKit          3D

 21 21  0  0  0  0  0  0  0  0999 V2000
    2.6005    0.8845   -0.3087 C   0  0  0  0  0  0  0  0  0  0  0  0
    1.3496    1.1607    0.2940 O   0  0  0  0  0  0  0  0  0  0  0  0
    0.5133    0.1498   -0.0798 C   0  0  0  0  0  0  0  0  0  0  0  0
   -0.0632   -0.6172    1.1187 C   0  0  0  0  0  0  0  0  0  0  0  0
   -0.9288    0.1883    1.8375 O   0  0  0  0  0  0  0  0  0  0  0  0
   -0.9433   -1.5923    0.3264 C   0  0  0  0  0  0  0  0  0  0  0  0
   -1.5658   -0.7057   -0.7223 C   0  0  0  0  0  0  0  0  0  0  0  0
   -0.7622    0.5850   -0.7299 C   0  0  0  0  0  0  0  0  0  0  0  0
   -1.4571    1.5078    0.0555 O   0  0  0  0  0  0  0  0  0  0  0  0
    3.3526    1.6308   -0.0784 H   0  0  0  0  0  0  0  0  0  0  0  0
    2.4674    0.6761   -1.3933 H   0  0  0  0  0  0  0  0  0  0  0  0
    2.9430   -0.0825    0.1381 H   0  0  0  0  0  0  0  0  0  0  0  0
    0.9800   -0.6148   -0.7344 H   0  0  0  0  0  0  0  0  0  0  0  0
    0.6975   -1.1171    1.7016 H   0  0  0  0  0  0  0  0  0  0  0  0
   -0.5284    1.0095    2.1690 H   0  0  0  0  0  0  0  0  0  0  0  0
   -0.2276   -2.3245   -0.1219 H   0  0  0  0  0  0  0  0  0  0  0  0
   -1.6745   -2.0854    0.9802 H   0  0  0  0  0  0  0  0  0  0  0  0
   -1.5132   -1.2332   -1.6820 H   0  0  0  0  0  0  0  0  0  0  0  0
   -2.6433   -0.5083   -0.5116 H   0  0  0  0  0  0  0  0  0  0  0  0
   -0.6533    0.9068   -1.7692 H   0  0  0  0  0  0  0  0  0  0  0  0
   -1.9433    2.1819   -0.4895 H   0  0  0  0  0  0  0  0  0  0  0  0
  1  2  1  0
  2  3  1  0
  3  4  1  0
  4  5  1  0
  4  6  1  0
  6  7  1  0
  7  8  1  0
  8  9  1  0
  8  3  1  0
  1 10  1  0
  1 11  1  0
  1 12  1  0
  3 13  1  0
  4 14  1  0
  5 15  1  0
  6 16  1  0
  6 17  1  0
  7 18  1  0
  7 19  1  0
  8 20  1  0
  9 21  1  0
M  END
