
     RDKit          3D

 19 20  0  0  0  0  0  0  0  0999 V2000
    2.6600    0.8525   -0.1660 C   0  0  0  0  0  0  0  0  0  0  0  0
    1.7295    0.0160    0.3878 O   0  0  0  0  0  0  0  0  0  0  0  0
    0.4896    0.0259   -0.0938 C   0  0  0  0  0  0  0  0  0  0  0  0
   -0.1379   -1.3178   -0.4944 C   0  0  0  0  0  0  0  0  0  0  0  0
   -1.3773   -0.4494   -0.4650 C   0  0  0  0  0  0  0  0  0  0  0  0
   -2.0475    0.1570    0.6299 C   0  0  0  0  0  0  0  0  0  0  0  0
   -2.4751    1.5113    0.6423 O   0  0  0  0  0  0  0  0  0  0  0  0
   -0.6649   -0.0260    0.8893 C   0  0  0  0  0  0  0  0  0  0  0  0
   -0.3981   -1.0998    1.7788 O   0  0  0  0  0  0  0  0  0  0  0  0
    2.4217    1.9229   -0.1070 H   0  0  0  0  0  0  0  0  0  0  0  0
    2.8216    0.5560   -1.2126 H   0  0  0  0  0  0  0  0  0  0  0  0
    3.6290    0.6684    0.3786 H   0  0  0  0  0  0  0  0  0  0  0  0
    0.3445    0.7410   -0.9245 H   0  0  0  0  0  0  0  0  0  0  0  0
    0.1239   -1.6616   -1.5040 H   0  0  0  0  0  0  0  0  0  0  0  0
   -0.0565   -2.1279    0.2111 H   0  0  0  0  0  0  0  0  0  0  0  0
   -1.2295    0.3068   -1.3071 H   0  0  0  0  0  0  0  0  0  0  0  0
   -2.8426   -0.4671    1.1395 H   0  0  0  0  0  0  0  0  0  0  0  0
   -1.8444    2.0988    0.1959 H   0  0  0  0  0  0  0  0  0  0  0  0
   -1.1459   -1.7068    1.8822 H   0  0  0  0  0  0  0  0  0  0  0  0
  1  2  1  0
  2  3  1  0
  3  4  1  0
  4  5  1  0
  5  6  1  0
  6  7  1  0
  6  8  1  0
  8  9  1  0
  8  3  1  0
  8  5  1  0
  1 10  1  0
  1 11  1  0
  1 12  1  0
  3 13  1  0
  4 14  1  0
  4 15  1  0
  5 16  1  0
  6 17  1  0
  7 18  1  0
  9 19  1  0
M  END
