
     RDKit          3D

 21 21  0  0  0  0  0  0  0  0999 V2000
    2.6577    0.0653   -0.0562 C   0  0  0  0  0  0  0  0  0  0  0  0
    1.4343    0.0900   -0.6749 O   0  0  0  0  0  0  0  0  0  0  0  0
    0.5148   -0.5847    0.0947 C   0  0  0  0  0  0  0  0  0  0  0  0
   -0.1161   -1.6829   -0.6645 C   0  0  0  0  0  0  0  0  0  0  0  0
   -1.3020   -1.2745   -1.0646 C   0  0  0  0  0  0  0  0  0  0  0  0
   -1.5875    0.1317   -0.6165 C   0  0  0  0  0  0  0  0  0  0  0  0
   -2.9117    0.1622   -0.1906 O   0  0  0  0  0  0  0  0  0  0  0  0
   -0.6302    0.2703    0.5500 C   0  0  0  0  0  0  0  0  0  0  0  0
   -0.2592    1.7109    0.7519 C   0  0  0  0  0  0  0  0  0  0  0  0
    3.0539   -0.9640    0.1082 H   0  0  0  0  0  0  0  0  0  0  0  0
    3.4360    0.6337   -0.5853 H   0  0  0  0  0  0  0  0  0  0  0  0
    2.5893    0.5205    0.9747 H   0  0  0  0  0  0  0  0  0  0  0  0
    1.0247   -0.9660    1.0132 H   0  0  0  0  0  0  0  0  0  0  0  0
    0.2949   -2.6887   -0.8849 H   0  0  0  0  0  0  0  0  0  0  0  0
   -2.0171   -1.8409   -1.6441 H   0  0  0  0  0  0  0  0  0  0  0  0
   -1.4097    0.8592   -1.4145 H   0  0  0  0  0  0  0  0  0  0  0  0
   -3.0531   -0.5804    0.4459 H   0  0  0  0  0  0  0  0  0  0  0  0
   -1.0846   -0.1309    1.4713 H   0  0  0  0  0  0  0  0  0  0  0  0
   -0.0958    2.2234   -0.2414 H   0  0  0  0  0  0  0  0  0  0  0  0
    0.6076    1.8374    1.4083 H   0  0  0  0  0  0  0  0  0  0  0  0
   -1.1463    2.2087    1.2194 H   0  0  0  0  0  0  0  0  0  0  0  0
  1  2  1  0
  2  3  1  0
  3  4  1  0
  4  5  2  0
  5  6  1  0
  6  7  1  0
  6  8  1  0
  8  9  1  0
  8  3  1  0
  1 10  1  0
  1 11  1  0
  1 12  1  0
  3 13  1  0
  4 14  1  0
  5 15  1  0
  6 16  1  0
  7 17  1  0
  8 18  1  0
  9 19  1  0
  9 20  1  0
  9 21  1  0
M  END
