
     RDKit          3D

 16 16  0  0  0  0  0  0  0  0999 V2000
    2.5741    0.1091   -0.4264 C   0  0  0  0  0  0  0  0  0  0  0  0
    1.5372   -0.8071   -0.2526 O   0  0  0  0  0  0  0  0  0  0  0  0
    0.3770   -0.1068    0.0455 C   0  0  0  0  0  0  0  0  0  0  0  0
   -0.1947   -0.5423    1.2451 O   0  0  0  0  0  0  0  0  0  0  0  0
   -1.5185   -0.2023    1.2307 C   0  0  0  0  0  0  0  0  0  0  0  0
   -1.9189    0.0977   -0.1966 C   0  0  0  0  0  0  0  0  0  0  0  0
   -0.7136   -0.3350   -0.9136 C   0  0  0  0  0  0  0  0  0  0  0  0
   -0.6159   -0.7725   -2.0157 O   0  0  0  0  0  0  0  0  0  0  0  0
    2.3418    0.8082   -1.2558 H   0  0  0  0  0  0  0  0  0  0  0  0
    2.7093    0.7395    0.4911 H   0  0  0  0  0  0  0  0  0  0  0  0
    3.5225   -0.3907   -0.6975 H   0  0  0  0  0  0  0  0  0  0  0  0
    0.5532    1.0074    0.0735 H   0  0  0  0  0  0  0  0  0  0  0  0
   -2.1242   -1.0770    1.6096 H   0  0  0  0  0  0  0  0  0  0  0  0
   -1.6947    0.6738    1.8894 H   0  0  0  0  0  0  0  0  0  0  0  0
   -2.8422   -0.4140   -0.5016 H   0  0  0  0  0  0  0  0  0  0  0  0
   -1.9924    1.2120   -0.3252 H   0  0  0  0  0  0  0  0  0  0  0  0
  1  2  1  0
  2  3  1  0
  3  4  1  0
  4  5  1  0
  5  6  1  0
  6  7  1  0
  7  8  2  0
  7  3  1  0
  1  9  1  0
  1 10  1  0
  1 11  1  0
  3 12  1  0
  5 13  1  0
  5 14  1  0
  6 15  1  0
  6 16  1  0
M  END
