
     RDKit          3D

 19 19  0  0  0  0  0  0  0  0999 V2000
   -2.2654   -1.2350    0.4635 C   0  0  0  0  0  0  0  0  0  0  0  0
   -1.4118   -0.5523   -0.3885 O   0  0  0  0  0  0  0  0  0  0  0  0
   -0.3704    0.0772    0.2693 C   0  0  0  0  0  0  0  0  0  0  0  0
   -0.1087    1.4964   -0.1197 C   0  0  0  0  0  0  0  0  0  0  0  0
   -0.5988    1.7981   -1.3767 O   0  0  0  0  0  0  0  0  0  0  0  0
    1.3692    1.1485   -0.1986 C   0  0  0  0  0  0  0  0  0  0  0  0
    0.9446   -0.2904   -0.4240 C   0  0  0  0  0  0  0  0  0  0  0  0
    1.7446   -1.2495    0.3407 C   0  0  0  0  0  0  0  0  0  0  0  0
    1.7459   -1.1770    1.5542 O   0  0  0  0  0  0  0  0  0  0  0  0
   -3.0538   -1.6941   -0.1808 H   0  0  0  0  0  0  0  0  0  0  0  0
   -2.6952   -0.5982    1.2541 H   0  0  0  0  0  0  0  0  0  0  0  0
   -1.6960   -2.0878    0.8877 H   0  0  0  0  0  0  0  0  0  0  0  0
   -0.3510   -0.0412    1.3679 H   0  0  0  0  0  0  0  0  0  0  0  0
   -0.3160    2.2656    0.6464 H   0  0  0  0  0  0  0  0  0  0  0  0
    0.1152    1.7916   -2.0658 H   0  0  0  0  0  0  0  0  0  0  0  0
    1.8911    1.5442   -1.0889 H   0  0  0  0  0  0  0  0  0  0  0  0
    1.9415    1.3091    0.7251 H   0  0  0  0  0  0  0  0  0  0  0  0
    0.7947   -0.5008   -1.4968 H   0  0  0  0  0  0  0  0  0  0  0  0
    2.3204   -2.0046   -0.1690 H   0  0  0  0  0  0  0  0  0  0  0  0
  1  2  1  0
  2  3  1  0
  3  4  1  0
  4  5  1  0
  4  6  1  0
  6  7  1  0
  7  8  1  0
  8  9  2  0
  7  3  1  0
  1 10  1  0
  1 11  1  0
  1 12  1  0
  3 13  1  0
  4 14  1  0
  5 15  1  0
  6 16  1  0
  6 17  1  0
  7 18  1  0
  8 19  1  0
M  END
