
     RDKit          3D

 21 21  0  0  0  0  0  0  0  0999 V2000
    2.1040   -0.6052   -1.0518 C   0  0  0  0  0  0  0  0  0  0  0  0
    1.0359   -1.1252   -0.3771 O   0  0  0  0  0  0  0  0  0  0  0  0
    0.3327   -0.2268    0.3919 C   0  0  0  0  0  0  0  0  0  0  0  0
    1.2847    0.3602    1.4220 C   0  0  0  0  0  0  0  0  0  0  0  0
   -0.7811   -0.9062    1.0958 C   0  0  0  0  0  0  0  0  0  0  0  0
   -1.9521   -0.6448    0.5254 C   0  0  0  0  0  0  0  0  0  0  0  0
   -1.7747    0.2459   -0.6375 C   0  0  0  0  0  0  0  0  0  0  0  0
   -2.6377    1.3098   -0.6794 O   0  0  0  0  0  0  0  0  0  0  0  0
   -0.3542    0.7851   -0.4493 C   0  0  0  0  0  0  0  0  0  0  0  0
    1.9037    0.1906   -1.7657 H   0  0  0  0  0  0  0  0  0  0  0  0
    2.5631   -1.4525   -1.6342 H   0  0  0  0  0  0  0  0  0  0  0  0
    2.9051   -0.2241   -0.3654 H   0  0  0  0  0  0  0  0  0  0  0  0
    2.0564   -0.4183    1.6767 H   0  0  0  0  0  0  0  0  0  0  0  0
    1.7903    1.2645    1.0554 H   0  0  0  0  0  0  0  0  0  0  0  0
    0.7057    0.5176    2.3576 H   0  0  0  0  0  0  0  0  0  0  0  0
   -0.6759   -1.5385    1.9646 H   0  0  0  0  0  0  0  0  0  0  0  0
   -2.9422   -1.0072    0.8266 H   0  0  0  0  0  0  0  0  0  0  0  0
   -1.8129   -0.4010   -1.5512 H   0  0  0  0  0  0  0  0  0  0  0  0
   -3.3598    1.1576   -1.3494 H   0  0  0  0  0  0  0  0  0  0  0  0
   -0.4301    1.7902    0.0068 H   0  0  0  0  0  0  0  0  0  0  0  0
    0.0390    0.9284   -1.4618 H   0  0  0  0  0  0  0  0  0  0  0  0
  1  2  1  0
  2  3  1  0
  3  4  1  0
  3  5  1  0
  5  6  2  0
  6  7  1  0
  7  8  1  0
  7  9  1  0
  9  3  1  0
  1 10  1  0
  1 11  1  0
  1 12  1  0
  4 13  1  0
  4 14  1  0
  4 15  1  0
  5 16  1  0
  6 17  1  0
  7 18  1  0
  8 19  1  0
  9 20  1  0
  9 21  1  0
M  END
