
     RDKit          3D

 18 19  0  0  0  0  0  0  0  0999 V2000
    2.5496    0.4825   -0.3693 C   0  0  0  0  0  0  0  0  0  0  0  0
    1.2810    0.5480   -0.9610 O   0  0  0  0  0  0  0  0  0  0  0  0
    0.3686    0.1001   -0.0666 C   0  0  0  0  0  0  0  0  0  0  0  0
   -0.7626    1.1137    0.1965 C   0  0  0  0  0  0  0  0  0  0  0  0
   -1.9134    0.1421   -0.0163 C   0  0  0  0  0  0  0  0  0  0  0  0
   -1.4735   -1.1200    0.6451 C   0  0  0  0  0  0  0  0  0  0  0  0
   -0.5018   -1.0295   -0.5426 C   0  0  0  0  0  0  0  0  0  0  0  0
   -1.5468   -0.4592   -1.2435 O   0  0  0  0  0  0  0  0  0  0  0  0
    2.5980    1.1157    0.5550 H   0  0  0  0  0  0  0  0  0  0  0  0
    2.8131   -0.5468   -0.0538 H   0  0  0  0  0  0  0  0  0  0  0  0
    3.3385    0.8744   -1.0456 H   0  0  0  0  0  0  0  0  0  0  0  0
    0.7994   -0.2170    0.9209 H   0  0  0  0  0  0  0  0  0  0  0  0
   -0.7691    1.9003   -0.5922 H   0  0  0  0  0  0  0  0  0  0  0  0
   -0.7192    1.5096    1.2175 H   0  0  0  0  0  0  0  0  0  0  0  0
   -2.9079    0.4978    0.0826 H   0  0  0  0  0  0  0  0  0  0  0  0
   -0.9204   -1.0244    1.5963 H   0  0  0  0  0  0  0  0  0  0  0  0
   -2.1736   -1.9489    0.5535 H   0  0  0  0  0  0  0  0  0  0  0  0
   -0.0600   -1.9384   -0.8765 H   0  0  0  0  0  0  0  0  0  0  0  0
  1  2  1  0
  2  3  1  0
  3  4  1  0
  4  5  1  0
  5  6  1  0
  6  7  1  0
  7  8  1  0
  7  3  1  0
  8  5  1  0
  1  9  1  0
  1 10  1  0
  1 11  1  0
  3 12  1  0
  4 13  1  0
  4 14  1  0
  5 15  1  0
  6 16  1  0
  6 17  1  0
  7 18  1  0
M  END
