
     RDKit          3D

 19 20  0  0  0  0  0  0  0  0999 V2000
   -2.5597   -1.1542    0.7783 C   0  0  0  0  0  0  0  0  0  0  0  0
   -1.2587   -0.7550    0.5325 O   0  0  0  0  0  0  0  0  0  0  0  0
   -1.2490    0.4090   -0.2407 C   0  0  0  0  0  0  0  0  0  0  0  0
   -0.1686    0.4512   -1.2929 C   0  0  0  0  0  0  0  0  0  0  0  0
   -0.1323    1.8180   -1.0774 O   0  0  0  0  0  0  0  0  0  0  0  0
   -0.1909    1.3406    0.2241 C   0  0  0  0  0  0  0  0  0  0  0  0
    0.8111    0.2981   -0.1897 C   0  0  0  0  0  0  0  0  0  0  0  0
    2.0868    0.7347   -0.3803 O   0  0  0  0  0  0  0  0  0  0  0  0
    3.0653   -0.1398    0.0680 C   0  0  0  0  0  0  0  0  0  0  0  0
   -3.1502   -0.4007    1.3194 H   0  0  0  0  0  0  0  0  0  0  0  0
   -2.9993   -1.4508   -0.1965 H   0  0  0  0  0  0  0  0  0  0  0  0
   -2.4864   -2.0662    1.4375 H   0  0  0  0  0  0  0  0  0  0  0  0
   -2.2183    0.8133   -0.5237 H   0  0  0  0  0  0  0  0  0  0  0  0
   -0.1938   -0.0230   -2.1813 H   0  0  0  0  0  0  0  0  0  0  0  0
   -0.1664    1.8890    1.0694 H   0  0  0  0  0  0  0  0  0  0  0  0
    0.7056   -0.6955    0.2968 H   0  0  0  0  0  0  0  0  0  0  0  0
    2.9803   -0.3369    1.1510 H   0  0  0  0  0  0  0  0  0  0  0  0
    3.0714   -1.0853   -0.5107 H   0  0  0  0  0  0  0  0  0  0  0  0
    4.0528    0.3533   -0.1394 H   0  0  0  0  0  0  0  0  0  0  0  0
  1  2  1  0
  2  3  1  0
  3  4  1  0
  4  5  1  0
  5  6  1  0
  6  7  1  0
  7  8  1  0
  8  9  1  0
  6  3  1  0
  7  4  1  0
  1 10  1  0
  1 11  1  0
  1 12  1  0
  3 13  1  0
  4 14  1  0
  6 15  1  0
  7 16  1  0
  9 17  1  0
  9 18  1  0
  9 19  1  0
M  END
