
     RDKit          3D

 21 21  0  0  0  0  0  0  0  0999 V2000
   -2.3624    1.2250    0.2837 C   0  0  0  0  0  0  0  0  0  0  0  0
   -1.0019    1.1567    0.1339 O   0  0  0  0  0  0  0  0  0  0  0  0
   -0.5045   -0.0726   -0.2524 C   0  0  0  0  0  0  0  0  0  0  0  0
    0.9968   -0.0920   -0.3998 C   0  0  0  0  0  0  0  0  0  0  0  0
    1.7157    0.2399    0.8363 C   0  0  0  0  0  0  0  0  0  0  0  0
    3.1852    0.2519    0.8107 C   0  0  0  0  0  0  0  0  0  0  0  0
    1.1111    0.4940    1.8383 O   0  0  0  0  0  0  0  0  0  0  0  0
   -1.2540   -1.3330   -0.0329 C   0  0  0  0  0  0  0  0  0  0  0  0
   -1.2133   -0.7925   -1.4101 C   0  0  0  0  0  0  0  0  0  0  0  0
   -2.6054    2.2765    0.5951 H   0  0  0  0  0  0  0  0  0  0  0  0
   -2.9518    1.0202   -0.6178 H   0  0  0  0  0  0  0  0  0  0  0  0
   -2.7395    0.5949    1.1347 H   0  0  0  0  0  0  0  0  0  0  0  0
    1.3200   -1.1300   -0.7010 H   0  0  0  0  0  0  0  0  0  0  0  0
    1.2438    0.6084   -1.2436 H   0  0  0  0  0  0  0  0  0  0  0  0
    3.5060   -0.6161    0.1638 H   0  0  0  0  0  0  0  0  0  0  0  0
    3.4946    1.2174    0.3157 H   0  0  0  0  0  0  0  0  0  0  0  0
    3.6526    0.1894    1.8102 H   0  0  0  0  0  0  0  0  0  0  0  0
   -0.6848   -2.2745    0.2161 H   0  0  0  0  0  0  0  0  0  0  0  0
   -2.2301   -1.2633    0.4821 H   0  0  0  0  0  0  0  0  0  0  0  0
   -2.0793   -0.3207   -1.8768 H   0  0  0  0  0  0  0  0  0  0  0  0
   -0.5987   -1.3798   -2.1261 H   0  0  0  0  0  0  0  0  0  0  0  0
  1  2  1  0
  2  3  1  0
  3  4  1  0
  4  5  1  0
  5  6  1  0
  5  7  2  0
  3  8  1  0
  8  9  1  0
  9  3  1  0
  1 10  1  0
  1 11  1  0
  1 12  1  0
  4 13  1  0
  4 14  1  0
  6 15  1  0
  6 16  1  0
  6 17  1  0
  8 18  1  0
  8 19  1  0
  9 20  1  0
  9 21  1  0
M  END
