
     RDKit          3D

 25 25  0  0  0  0  0  0  0  0999 V2000
   -1.6752   -1.7261   -0.3502 C   0  0  0  0  0  0  0  0  0  0  0  0
   -0.3103   -1.5750   -0.3660 O   0  0  0  0  0  0  0  0  0  0  0  0
    0.0038   -0.3584    0.2362 C   0  0  0  0  0  0  0  0  0  0  0  0
   -0.4969   -0.3509    1.6567 C   0  0  0  0  0  0  0  0  0  0  0  0
   -0.3918    0.7894   -0.6200 C   0  0  0  0  0  0  0  0  0  0  0  0
   -1.2012    1.8718    0.0654 C   0  0  0  0  0  0  0  0  0  0  0  0
    1.0462    1.2416   -0.7446 C   0  0  0  0  0  0  0  0  0  0  0  0
    1.4471    0.0569    0.0865 C   0  0  0  0  0  0  0  0  0  0  0  0
    2.3197   -0.9280   -0.6565 C   0  0  0  0  0  0  0  0  0  0  0  0
   -2.1007   -1.7256    0.6744 H   0  0  0  0  0  0  0  0  0  0  0  0
   -2.0159   -2.6617   -0.8328 H   0  0  0  0  0  0  0  0  0  0  0  0
   -2.1271   -0.8665   -0.8777 H   0  0  0  0  0  0  0  0  0  0  0  0
    0.2072    0.2162    2.3006 H   0  0  0  0  0  0  0  0  0  0  0  0
   -0.5673   -1.3734    2.0832 H   0  0  0  0  0  0  0  0  0  0  0  0
   -1.5042    0.0956    1.7571 H   0  0  0  0  0  0  0  0  0  0  0  0
   -0.8238    0.5179   -1.6158 H   0  0  0  0  0  0  0  0  0  0  0  0
   -1.2313    2.7336   -0.6373 H   0  0  0  0  0  0  0  0  0  0  0  0
   -2.2100    1.5315    0.3508 H   0  0  0  0  0  0  0  0  0  0  0  0
   -0.6090    2.2228    0.9496 H   0  0  0  0  0  0  0  0  0  0  0  0
    1.2761    2.2234   -0.2678 H   0  0  0  0  0  0  0  0  0  0  0  0
    1.4474    1.2577   -1.7761 H   0  0  0  0  0  0  0  0  0  0  0  0
    1.8714    0.3059    1.0796 H   0  0  0  0  0  0  0  0  0  0  0  0
    3.3748   -0.6864   -0.3953 H   0  0  0  0  0  0  0  0  0  0  0  0
    2.0620   -1.9523   -0.3444 H   0  0  0  0  0  0  0  0  0  0  0  0
    2.2090   -0.8601   -1.7557 H   0  0  0  0  0  0  0  0  0  0  0  0
  1  2  1  0
  2  3  1  0
  3  4  1  0
  3  5  1  0
  5  6  1  0
  5  7  1  0
  7  8  1  0
  8  9  1  0
  8  3  1  0
  1 10  1  0
  1 11  1  0
  1 12  1  0
  4 13  1  0
  4 14  1  0
  4 15  1  0
  5 16  1  0
  6 17  1  0
  6 18  1  0
  6 19  1  0
  7 20  1  0
  7 21  1  0
  8 22  1  0
  9 23  1  0
  9 24  1  0
  9 25  1  0
M  END
