
     RDKit          3D

 21 22  0  0  0  0  0  0  0  0999 V2000
    2.8005   -0.0320    0.4863 C   0  0  0  0  0  0  0  0  0  0  0  0
    1.5536   -0.6399    0.6867 O   0  0  0  0  0  0  0  0  0  0  0  0
    0.6333   -0.0295   -0.1579 C   0  0  0  0  0  0  0  0  0  0  0  0
    0.0595   -1.0848   -1.0566 C   0  0  0  0  0  0  0  0  0  0  0  0
   -1.1867   -0.7040   -1.4815 O   0  0  0  0  0  0  0  0  0  0  0  0
   -1.9603   -0.0727   -0.5419 C   0  0  0  0  0  0  0  0  0  0  0  0
   -1.5268   -0.4343    0.8851 C   0  0  0  0  0  0  0  0  0  0  0  0
   -0.4369    0.6012    0.6979 C   0  0  0  0  0  0  0  0  0  0  0  0
   -1.4083    1.3228   -0.2328 C   0  0  0  0  0  0  0  0  0  0  0  0
    3.0775   -0.1795   -0.5772 H   0  0  0  0  0  0  0  0  0  0  0  0
    2.7055    1.0755    0.6848 H   0  0  0  0  0  0  0  0  0  0  0  0
    3.5413   -0.4955    1.1875 H   0  0  0  0  0  0  0  0  0  0  0  0
    1.1145    0.7763   -0.7705 H   0  0  0  0  0  0  0  0  0  0  0  0
    0.7238   -1.2162   -1.9439 H   0  0  0  0  0  0  0  0  0  0  0  0
    0.0091   -2.0840   -0.5640 H   0  0  0  0  0  0  0  0  0  0  0  0
   -3.0307   -0.1208   -0.7202 H   0  0  0  0  0  0  0  0  0  0  0  0
   -2.2558   -0.0809    1.6132 H   0  0  0  0  0  0  0  0  0  0  0  0
   -1.1790   -1.4759    1.0001 H   0  0  0  0  0  0  0  0  0  0  0  0
   -0.1219    1.1453    1.5765 H   0  0  0  0  0  0  0  0  0  0  0  0
   -2.1787    1.9023    0.3085 H   0  0  0  0  0  0  0  0  0  0  0  0
   -0.9335    1.8265   -1.0802 H   0  0  0  0  0  0  0  0  0  0  0  0
  1  2  1  0
  2  3  1  0
  3  4  1  0
  4  5  1  0
  5  6  1  0
  6  7  1  0
  7  8  1  0
  8  9  1  0
  8  3  1  0
  9  6  1  0
  1 10  1  0
  1 11  1  0
  1 12  1  0
  3 13  1  0
  4 14  1  0
  4 15  1  0
  6 16  1  0
  7 17  1  0
  7 18  1  0
  8 19  1  0
  9 20  1  0
  9 21  1  0
M  END
