
     RDKit          3D

 21 21  0  0  0  0  0  0  0  0999 V2000
    2.5207    1.1890   -0.0863 C   0  0  0  0  0  0  0  0  0  0  0  0
    1.2597    1.0266   -0.6476 O   0  0  0  0  0  0  0  0  0  0  0  0
    0.6786   -0.0869   -0.1148 C   0  0  0  0  0  0  0  0  0  0  0  0
    0.1345   -1.0448   -1.1779 C   0  0  0  0  0  0  0  0  0  0  0  0
   -0.7498   -0.3721   -0.1062 C   0  0  0  0  0  0  0  0  0  0  0  0
   -1.2594   -1.3453    0.9388 C   0  0  0  0  0  0  0  0  0  0  0  0
   -0.1856   -2.1177    1.4426 O   0  0  0  0  0  0  0  0  0  0  0  0
   -1.7188    0.4223   -0.6545 O   0  0  0  0  0  0  0  0  0  0  0  0
   -1.8138    1.6939   -0.1502 C   0  0  0  0  0  0  0  0  0  0  0  0
    2.4527    1.3083    1.0132 H   0  0  0  0  0  0  0  0  0  0  0  0
    3.0831    2.0262   -0.5463 H   0  0  0  0  0  0  0  0  0  0  0  0
    3.1667    0.2775   -0.2484 H   0  0  0  0  0  0  0  0  0  0  0  0
    1.2936   -0.6309    0.6340 H   0  0  0  0  0  0  0  0  0  0  0  0
    0.0579   -0.6934   -2.2184 H   0  0  0  0  0  0  0  0  0  0  0  0
    0.3206   -2.1207   -1.0920 H   0  0  0  0  0  0  0  0  0  0  0  0
   -1.7196   -0.8510    1.7930 H   0  0  0  0  0  0  0  0  0  0  0  0
   -1.9389   -2.0954    0.4571 H   0  0  0  0  0  0  0  0  0  0  0  0
    0.0729   -2.8320    0.8037 H   0  0  0  0  0  0  0  0  0  0  0  0
   -0.9137    2.3084   -0.2565 H   0  0  0  0  0  0  0  0  0  0  0  0
   -2.1177    1.7285    0.9260 H   0  0  0  0  0  0  0  0  0  0  0  0
   -2.6236    2.2097   -0.7095 H   0  0  0  0  0  0  0  0  0  0  0  0
  1  2  1  0
  2  3  1  0
  3  4  1  0
  4  5  1  0
  5  6  1  0
  6  7  1  0
  5  8  1  0
  8  9  1  0
  5  3  1  0
  1 10  1  0
  1 11  1  0
  1 12  1  0
  3 13  1  0
  4 14  1  0
  4 15  1  0
  6 16  1  0
  6 17  1  0
  7 18  1  0
  9 19  1  0
  9 20  1  0
  9 21  1  0
M  END
