
     RDKit          3D

 23 24  0  0  0  0  0  0  0  0999 V2000
    3.2150    0.1451    0.3336 C   0  0  0  0  0  0  0  0  0  0  0  0
    1.9251    0.4023    0.8529 O   0  0  0  0  0  0  0  0  0  0  0  0
    1.0253    0.0381   -0.1107 C   0  0  0  0  0  0  0  0  0  0  0  0
    0.0230   -1.0174    0.4039 C   0  0  0  0  0  0  0  0  0  0  0  0
   -1.2519   -0.3206    0.0550 C   0  0  0  0  0  0  0  0  0  0  0  0
   -2.5365   -0.9131    0.2965 C   0  0  0  0  0  0  0  0  0  0  0  0
   -0.9754    1.0956    0.5804 C   0  0  0  0  0  0  0  0  0  0  0  0
    0.0629    1.1137   -0.5118 C   0  0  0  0  0  0  0  0  0  0  0  0
   -0.9600    0.2980   -1.3177 C   0  0  0  0  0  0  0  0  0  0  0  0
    3.2795    0.7869   -0.5939 H   0  0  0  0  0  0  0  0  0  0  0  0
    4.0063    0.4793    1.0128 H   0  0  0  0  0  0  0  0  0  0  0  0
    3.3416   -0.9308    0.0944 H   0  0  0  0  0  0  0  0  0  0  0  0
    1.4866   -0.3595   -1.0417 H   0  0  0  0  0  0  0  0  0  0  0  0
    0.1797   -1.9779   -0.0955 H   0  0  0  0  0  0  0  0  0  0  0  0
    0.1919   -1.0705    1.5128 H   0  0  0  0  0  0  0  0  0  0  0  0
   -2.9646   -0.5439    1.2754 H   0  0  0  0  0  0  0  0  0  0  0  0
   -3.2875   -0.5605   -0.4668 H   0  0  0  0  0  0  0  0  0  0  0  0
   -2.4815   -2.0168    0.3435 H   0  0  0  0  0  0  0  0  0  0  0  0
   -1.8755    1.7105    0.3885 H   0  0  0  0  0  0  0  0  0  0  0  0
   -0.5883    1.1039    1.6147 H   0  0  0  0  0  0  0  0  0  0  0  0
    0.3966    2.0287   -0.9192 H   0  0  0  0  0  0  0  0  0  0  0  0
   -0.4121   -0.3608   -2.0017 H   0  0  0  0  0  0  0  0  0  0  0  0
   -1.8002    0.8697   -1.7054 H   0  0  0  0  0  0  0  0  0  0  0  0
  1  2  1  0
  2  3  1  0
  3  4  1  0
  4  5  1  0
  5  6  1  0
  5  7  1  0
  7  8  1  0
  8  9  1  0
  8  3  1  0
  9  5  1  0
  1 10  1  0
  1 11  1  0
  1 12  1  0
  3 13  1  0
  4 14  1  0
  4 15  1  0
  6 16  1  0
  6 17  1  0
  6 18  1  0
  7 19  1  0
  7 20  1  0
  8 21  1  0
  9 22  1  0
  9 23  1  0
M  END
