
     RDKit          3D

 18 19  0  0  0  0  0  0  0  0999 V2000
   -2.6948    0.3562    0.4689 C   0  0  0  0  0  0  0  0  0  0  0  0
   -1.5456   -0.3698    0.7815 O   0  0  0  0  0  0  0  0  0  0  0  0
   -0.5103    0.1175    0.0373 C   0  0  0  0  0  0  0  0  0  0  0  0
    0.2979   -0.9707   -0.6778 C   0  0  0  0  0  0  0  0  0  0  0  0
    1.5827   -0.3473   -0.2980 C   0  0  0  0  0  0  0  0  0  0  0  0
    2.5613   -1.1940    0.1704 O   0  0  0  0  0  0  0  0  0  0  0  0
    1.7881    1.0964   -0.1068 C   0  0  0  0  0  0  0  0  0  0  0  0
    0.7660    0.4497    0.7607 C   0  0  0  0  0  0  0  0  0  0  0  0
   -2.5322    1.4286    0.7038 H   0  0  0  0  0  0  0  0  0  0  0  0
   -2.9252    0.2017   -0.6142 H   0  0  0  0  0  0  0  0  0  0  0  0
   -3.5660    0.0295    1.0726 H   0  0  0  0  0  0  0  0  0  0  0  0
   -0.7810    0.9591   -0.6390 H   0  0  0  0  0  0  0  0  0  0  0  0
    0.0643   -1.0562   -1.7548 H   0  0  0  0  0  0  0  0  0  0  0  0
    0.0993   -1.9387   -0.1738 H   0  0  0  0  0  0  0  0  0  0  0  0
    2.3475   -2.1527    0.0958 H   0  0  0  0  0  0  0  0  0  0  0  0
    2.7270    1.4191    0.3449 H   0  0  0  0  0  0  0  0  0  0  0  0
    1.3632    1.8458   -0.8255 H   0  0  0  0  0  0  0  0  0  0  0  0
    0.9576    0.1258    1.7754 H   0  0  0  0  0  0  0  0  0  0  0  0
  1  2  1  0
  2  3  1  0
  3  4  1  0
  4  5  1  0
  5  6  1  0
  5  7  1  0
  7  8  1  0
  8  3  1  0
  8  5  1  0
  1  9  1  0
  1 10  1  0
  1 11  1  0
  3 12  1  0
  4 13  1  0
  4 14  1  0
  6 15  1  0
  7 16  1  0
  7 17  1  0
  8 18  1  0
M  END
