
     RDKit          3D

 21 22  0  0  0  0  0  0  0  0999 V2000
    2.6136    1.1903   -0.4661 C   0  0  0  0  0  0  0  0  0  0  0  0
    1.9069    0.3760    0.3871 O   0  0  0  0  0  0  0  0  0  0  0  0
    0.7309   -0.1001   -0.0985 C   0  0  0  0  0  0  0  0  0  0  0  0
    0.4247   -1.5762    0.2425 C   0  0  0  0  0  0  0  0  0  0  0  0
    0.8366   -2.4701   -0.7222 O   0  0  0  0  0  0  0  0  0  0  0  0
   -0.9952   -1.0537   -0.0289 C   0  0  0  0  0  0  0  0  0  0  0  0
   -1.7710   -0.1498    0.7475 C   0  0  0  0  0  0  0  0  0  0  0  0
   -2.5286    1.0415    0.1297 C   0  0  0  0  0  0  0  0  0  0  0  0
   -0.3873    0.0461    0.9454 C   0  0  0  0  0  0  0  0  0  0  0  0
    2.0473    2.0898   -0.7546 H   0  0  0  0  0  0  0  0  0  0  0  0
    3.5689    1.4711    0.0465 H   0  0  0  0  0  0  0  0  0  0  0  0
    2.9253    0.5852   -1.3524 H   0  0  0  0  0  0  0  0  0  0  0  0
    0.4172    0.1756   -1.1011 H   0  0  0  0  0  0  0  0  0  0  0  0
    0.6306   -1.8302    1.2801 H   0  0  0  0  0  0  0  0  0  0  0  0
    1.0281   -1.9939   -1.5918 H   0  0  0  0  0  0  0  0  0  0  0  0
   -0.9811   -0.7487   -1.1250 H   0  0  0  0  0  0  0  0  0  0  0  0
   -2.4068   -0.5996    1.5672 H   0  0  0  0  0  0  0  0  0  0  0  0
   -1.8803    1.4997   -0.6390 H   0  0  0  0  0  0  0  0  0  0  0  0
   -2.7547    1.7114    0.9731 H   0  0  0  0  0  0  0  0  0  0  0  0
   -3.4550    0.7301   -0.3468 H   0  0  0  0  0  0  0  0  0  0  0  0
    0.0298   -0.3944    1.9073 H   0  0  0  0  0  0  0  0  0  0  0  0
  1  2  1  0
  2  3  1  0
  3  4  1  0
  4  5  1  0
  4  6  1  0
  6  7  1  0
  7  8  1  0
  7  9  1  0
  9  3  1  0
  9  6  1  0
  1 10  1  0
  1 11  1  0
  1 12  1  0
  3 13  1  0
  4 14  1  0
  5 15  1  0
  6 16  1  0
  7 17  1  0
  8 18  1  0
  8 19  1  0
  8 20  1  0
  9 21  1  0
M  END
