
     RDKit          3D

 18 18  0  0  0  0  0  0  0  0999 V2000
   -2.2790   -0.9678   -0.0356 C   0  0  0  0  0  0  0  0  0  0  0  0
   -1.5465   -0.0221    0.6642 O   0  0  0  0  0  0  0  0  0  0  0  0
   -0.5140    0.4087   -0.1562 C   0  0  0  0  0  0  0  0  0  0  0  0
   -0.2811    1.8770   -0.2127 C   0  0  0  0  0  0  0  0  0  0  0  0
    1.0802    1.6731   -0.0879 O   0  0  0  0  0  0  0  0  0  0  0  0
    0.8256    0.4723    0.5266 C   0  0  0  0  0  0  0  0  0  0  0  0
    1.6768   -0.6923    0.0662 C   0  0  0  0  0  0  0  0  0  0  0  0
    3.0249   -0.4765    0.2731 O   0  0  0  0  0  0  0  0  0  0  0  0
   -2.7183   -0.5626   -0.9809 H   0  0  0  0  0  0  0  0  0  0  0  0
   -1.6303   -1.8231   -0.3750 H   0  0  0  0  0  0  0  0  0  0  0  0
   -3.0701   -1.3362    0.6647 H   0  0  0  0  0  0  0  0  0  0  0  0
   -0.4652   -0.0522   -1.1587 H   0  0  0  0  0  0  0  0  0  0  0  0
   -0.7876    2.3927    0.6160 H   0  0  0  0  0  0  0  0  0  0  0  0
   -0.4920    2.3760   -1.1844 H   0  0  0  0  0  0  0  0  0  0  0  0
    0.8008    0.5281    1.6281 H   0  0  0  0  0  0  0  0  0  0  0  0
    1.5076   -0.8206   -1.0282 H   0  0  0  0  0  0  0  0  0  0  0  0
    1.3921   -1.6098    0.6208 H   0  0  0  0  0  0  0  0  0  0  0  0
    3.4762   -1.3650    0.1599 H   0  0  0  0  0  0  0  0  0  0  0  0
  1  2  1  0
  2  3  1  0
  3  4  1  0
  4  5  1  0
  5  6  1  0
  6  7  1  0
  7  8  1  0
  6  3  1  0
  1  9  1  0
  1 10  1  0
  1 11  1  0
  3 12  1  0
  4 13  1  0
  4 14  1  0
  6 15  1  0
  7 16  1  0
  7 17  1  0
  8 18  1  0
M  END
