
     RDKit          3D

 21 21  0  0  0  0  0  0  0  0999 V2000
    1.3420   -1.4434    0.7481 C   0  0  0  0  0  0  0  0  0  0  0  0
    0.9572   -0.2361    1.2961 O   0  0  0  0  0  0  0  0  0  0  0  0
    0.7633    0.7062    0.2994 C   0  0  0  0  0  0  0  0  0  0  0  0
    1.9644    0.9962   -0.5386 C   0  0  0  0  0  0  0  0  0  0  0  0
   -0.2222    1.8001    0.4452 C   0  0  0  0  0  0  0  0  0  0  0  0
   -0.6042    0.5983   -0.3537 C   0  0  0  0  0  0  0  0  0  0  0  0
   -1.6238   -0.2782    0.2673 C   0  0  0  0  0  0  0  0  0  0  0  0
   -2.5219   -1.1120   -0.5534 C   0  0  0  0  0  0  0  0  0  0  0  0
   -1.7159   -0.3054    1.4730 O   0  0  0  0  0  0  0  0  0  0  0  0
    1.4925   -2.1890    1.5754 H   0  0  0  0  0  0  0  0  0  0  0  0
    2.3238   -1.3987    0.2221 H   0  0  0  0  0  0  0  0  0  0  0  0
    0.6205   -1.8310   -0.0067 H   0  0  0  0  0  0  0  0  0  0  0  0
    2.1478    2.0945   -0.4972 H   0  0  0  0  0  0  0  0  0  0  0  0
    1.8360    0.7450   -1.6104 H   0  0  0  0  0  0  0  0  0  0  0  0
    2.8933    0.5250   -0.1475 H   0  0  0  0  0  0  0  0  0  0  0  0
   -0.0614    2.7215   -0.1492 H   0  0  0  0  0  0  0  0  0  0  0  0
   -0.7312    1.9812    1.4019 H   0  0  0  0  0  0  0  0  0  0  0  0
   -0.5297    0.6140   -1.4673 H   0  0  0  0  0  0  0  0  0  0  0  0
   -3.4401   -1.4228   -0.0254 H   0  0  0  0  0  0  0  0  0  0  0  0
   -2.8574   -0.5244   -1.4492 H   0  0  0  0  0  0  0  0  0  0  0  0
   -2.0329   -2.0410   -0.9298 H   0  0  0  0  0  0  0  0  0  0  0  0
  1  2  1  0
  2  3  1  0
  3  4  1  0
  3  5  1  0
  5  6  1  0
  6  7  1  0
  7  8  1  0
  7  9  2  0
  6  3  1  0
  1 10  1  0
  1 11  1  0
  1 12  1  0
  4 13  1  0
  4 14  1  0
  4 15  1  0
  5 16  1  0
  5 17  1  0
  6 18  1  0
  8 19  1  0
  8 20  1  0
  8 21  1  0
M  END
