
     RDKit          3D

 20 21  0  0  0  0  0  0  0  0999 V2000
   -1.4428   -1.5002   -0.3334 C   0  0  0  0  0  0  0  0  0  0  0  0
   -0.8405   -0.9041    0.7609 O   0  0  0  0  0  0  0  0  0  0  0  0
   -0.2900    0.3344    0.4600 C   0  0  0  0  0  0  0  0  0  0  0  0
    0.9069    0.4113   -0.4302 C   0  0  0  0  0  0  0  0  0  0  0  0
    2.2631   -0.0091   -0.0886 C   0  0  0  0  0  0  0  0  0  0  0  0
    1.4465   -1.0180   -0.7939 C   0  0  0  0  0  0  0  0  0  0  0  0
   -1.3214    1.4781    0.1849 C   0  0  0  0  0  0  0  0  0  0  0  0
   -0.5833    1.4019    1.4450 C   0  0  0  0  0  0  0  0  0  0  0  0
   -1.8377   -2.5131   -0.0219 H   0  0  0  0  0  0  0  0  0  0  0  0
   -2.3521   -0.8582   -0.5544 H   0  0  0  0  0  0  0  0  0  0  0  0
   -0.8461   -1.6423   -1.2296 H   0  0  0  0  0  0  0  0  0  0  0  0
    0.8197    1.0697   -1.3477 H   0  0  0  0  0  0  0  0  0  0  0  0
    3.1068    0.4382   -0.6632 H   0  0  0  0  0  0  0  0  0  0  0  0
    2.5735   -0.1952    0.9761 H   0  0  0  0  0  0  0  0  0  0  0  0
    1.1172   -1.8621   -0.1159 H   0  0  0  0  0  0  0  0  0  0  0  0
    1.5480   -1.2510   -1.8518 H   0  0  0  0  0  0  0  0  0  0  0  0
   -2.3514    1.1207    0.0973 H   0  0  0  0  0  0  0  0  0  0  0  0
   -1.0103    2.2752   -0.5166 H   0  0  0  0  0  0  0  0  0  0  0  0
   -1.1513    1.1216    2.3541 H   0  0  0  0  0  0  0  0  0  0  0  0
    0.2453    2.1020    1.6690 H   0  0  0  0  0  0  0  0  0  0  0  0
  1  2  1  0
  2  3  1  0
  3  4  1  0
  4  5  1  0
  5  6  1  0
  3  7  1  0
  7  8  1  0
  8  3  1  0
  6  4  1  0
  1  9  1  0
  1 10  1  0
  1 11  1  0
  4 12  1  0
  5 13  1  0
  5 14  1  0
  6 15  1  0
  6 16  1  0
  7 17  1  0
  7 18  1  0
  8 19  1  0
  8 20  1  0
M  END
