
     RDKit          3D

 19 20  0  0  0  0  0  0  0  0999 V2000
    2.7420    0.2304    0.2643 C   0  0  0  0  0  0  0  0  0  0  0  0
    1.6838    0.2107   -0.6512 O   0  0  0  0  0  0  0  0  0  0  0  0
    0.5157    0.1114    0.0510 C   0  0  0  0  0  0  0  0  0  0  0  0
   -0.5245    1.1345   -0.4668 C   0  0  0  0  0  0  0  0  0  0  0  0
   -0.4518    2.3520    0.1584 O   0  0  0  0  0  0  0  0  0  0  0  0
   -1.4265    0.1419    0.2823 C   0  0  0  0  0  0  0  0  0  0  0  0
   -1.8007   -1.1656   -0.1101 C   0  0  0  0  0  0  0  0  0  0  0  0
   -1.8563   -2.2267    0.8292 O   0  0  0  0  0  0  0  0  0  0  0  0
   -0.5094   -0.8229   -0.5875 C   0  0  0  0  0  0  0  0  0  0  0  0
    2.6751   -0.7298    0.8251 H   0  0  0  0  0  0  0  0  0  0  0  0
    2.5735    1.1123    0.9195 H   0  0  0  0  0  0  0  0  0  0  0  0
    3.7210    0.3039   -0.2459 H   0  0  0  0  0  0  0  0  0  0  0  0
    0.5689    0.0652    1.1375 H   0  0  0  0  0  0  0  0  0  0  0  0
   -0.6229    1.1052   -1.5469 H   0  0  0  0  0  0  0  0  0  0  0  0
   -1.2305    2.8777   -0.0794 H   0  0  0  0  0  0  0  0  0  0  0  0
   -1.0980    0.2122    1.3697 H   0  0  0  0  0  0  0  0  0  0  0  0
   -2.6914   -1.2543   -0.8031 H   0  0  0  0  0  0  0  0  0  0  0  0
   -1.7691   -3.0971    0.3488 H   0  0  0  0  0  0  0  0  0  0  0  0
   -0.4990   -0.5610   -1.6950 H   0  0  0  0  0  0  0  0  0  0  0  0
  1  2  1  0
  2  3  1  0
  3  4  1  0
  4  5  1  0
  4  6  1  0
  6  7  1  0
  7  8  1  0
  7  9  1  0
  9  3  1  0
  9  6  1  0
  1 10  1  0
  1 11  1  0
  1 12  1  0
  3 13  1  0
  4 14  1  0
  5 15  1  0
  6 16  1  0
  7 17  1  0
  8 18  1  0
  9 19  1  0
M  END
