
     RDKit          3D

 17 17  0  0  0  0  0  0  0  0999 V2000
    2.4859   -1.0214   -0.1116 C   0  0  0  0  0  0  0  0  0  0  0  0
    1.3200   -0.6147    0.5162 O   0  0  0  0  0  0  0  0  0  0  0  0
    0.6056    0.2820   -0.2539 C   0  0  0  0  0  0  0  0  0  0  0  0
   -0.1286    1.3384    0.5556 C   0  0  0  0  0  0  0  0  0  0  0  0
   -0.0539    2.6074    0.0260 O   0  0  0  0  0  0  0  0  0  0  0  0
   -0.8822    0.2949   -0.1759 C   0  0  0  0  0  0  0  0  0  0  0  0
   -1.4438   -0.8054    0.4863 O   0  0  0  0  0  0  0  0  0  0  0  0
   -2.6408   -1.3370    0.0330 C   0  0  0  0  0  0  0  0  0  0  0  0
   -3.2346   -0.8469   -0.9668 O   0  0  0  0  0  0  0  0  0  0  0  0
    2.2298   -1.5034   -1.0569 H   0  0  0  0  0  0  0  0  0  0  0  0
    3.0098   -1.7323    0.5821 H   0  0  0  0  0  0  0  0  0  0  0  0
    3.1945   -0.1704   -0.2708 H   0  0  0  0  0  0  0  0  0  0  0  0
    1.0238    0.5605   -1.2358 H   0  0  0  0  0  0  0  0  0  0  0  0
   -0.0840    1.2868    1.6629 H   0  0  0  0  0  0  0  0  0  0  0  0
   -0.8093    3.1787    0.3005 H   0  0  0  0  0  0  0  0  0  0  0  0
   -1.4598    0.6731   -1.0472 H   0  0  0  0  0  0  0  0  0  0  0  0
   -3.1325   -2.1902    0.4995 H   0  0  0  0  0  0  0  0  0  0  0  0
  1  2  1  0
  2  3  1  0
  3  4  1  0
  4  5  1  0
  4  6  1  0
  6  7  1  0
  7  8  1  0
  8  9  2  0
  6  3  1  0
  1 10  1  0
  1 11  1  0
  1 12  1  0
  3 13  1  0
  4 14  1  0
  5 15  1  0
  6 16  1  0
  8 17  1  0
M  END
