
     RDKit          3D

 21 21  0  0  0  0  0  0  0  0999 V2000
    3.0606    0.0916   -0.3013 C   0  0  0  0  0  0  0  0  0  0  0  0
    2.0208    0.6049    0.4140 O   0  0  0  0  0  0  0  0  0  0  0  0
    0.7656    0.2686    0.0262 C   0  0  0  0  0  0  0  0  0  0  0  0
   -0.0550   -0.4354    1.0648 C   0  0  0  0  0  0  0  0  0  0  0  0
   -1.3830   -0.8382    0.4477 C   0  0  0  0  0  0  0  0  0  0  0  0
   -1.2680   -1.9587   -0.3649 O   0  0  0  0  0  0  0  0  0  0  0  0
   -1.9781    0.2772   -0.3616 C   0  0  0  0  0  0  0  0  0  0  0  0
   -1.1811    1.5242   -0.0855 C   0  0  0  0  0  0  0  0  0  0  0  0
    0.1432    1.4313   -0.4247 O   0  0  0  0  0  0  0  0  0  0  0  0
    4.0065    0.4621    0.1442 H   0  0  0  0  0  0  0  0  0  0  0  0
    3.0664    0.4447   -1.3639 H   0  0  0  0  0  0  0  0  0  0  0  0
    3.1278   -1.0040   -0.3322 H   0  0  0  0  0  0  0  0  0  0  0  0
    0.8087   -0.4135   -0.8686 H   0  0  0  0  0  0  0  0  0  0  0  0
    0.4584   -1.3734    1.3351 H   0  0  0  0  0  0  0  0  0  0  0  0
   -0.2774    0.1948    1.9399 H   0  0  0  0  0  0  0  0  0  0  0  0
   -2.1111   -1.0709    1.2734 H   0  0  0  0  0  0  0  0  0  0  0  0
   -1.3510   -1.7039   -1.3246 H   0  0  0  0  0  0  0  0  0  0  0  0
   -1.9329    0.0488   -1.4235 H   0  0  0  0  0  0  0  0  0  0  0  0
   -3.0318    0.4961   -0.0767 H   0  0  0  0  0  0  0  0  0  0  0  0
   -1.6313    2.3385   -0.6896 H   0  0  0  0  0  0  0  0  0  0  0  0
   -1.2572    1.8142    0.9719 H   0  0  0  0  0  0  0  0  0  0  0  0
  1  2  1  0
  2  3  1  0
  3  4  1  0
  4  5  1  0
  5  6  1  0
  5  7  1  0
  7  8  1  0
  8  9  1  0
  9  3  1  0
  1 10  1  0
  1 11  1  0
  1 12  1  0
  3 13  1  0
  4 14  1  0
  4 15  1  0
  5 16  1  0
  6 17  1  0
  7 18  1  0
  7 19  1  0
  8 20  1  0
  8 21  1  0
M  END
