
     RDKit          3D

 21 22  0  0  0  0  0  0  0  0999 V2000
   -2.2346    1.3377   -0.3815 C   0  0  0  0  0  0  0  0  0  0  0  0
   -1.4449    0.3140   -0.8982 O   0  0  0  0  0  0  0  0  0  0  0  0
   -0.8778   -0.3543    0.1562 C   0  0  0  0  0  0  0  0  0  0  0  0
   -0.9593   -1.8573    0.0028 C   0  0  0  0  0  0  0  0  0  0  0  0
    0.4092   -1.9955   -0.0877 O   0  0  0  0  0  0  0  0  0  0  0  0
    0.5802   -0.6541    0.0720 C   0  0  0  0  0  0  0  0  0  0  0  0
    1.4371   -0.1785    1.1916 C   0  0  0  0  0  0  0  0  0  0  0  0
    2.0970    0.7856    0.2260 C   0  0  0  0  0  0  0  0  0  0  0  0
    1.3873    0.0901   -0.9170 C   0  0  0  0  0  0  0  0  0  0  0  0
   -3.0065    0.8689    0.2577 H   0  0  0  0  0  0  0  0  0  0  0  0
   -1.5759    1.9217    0.3021 H   0  0  0  0  0  0  0  0  0  0  0  0
   -2.6656    1.9877   -1.1669 H   0  0  0  0  0  0  0  0  0  0  0  0
   -1.1538    0.0408    1.1336 H   0  0  0  0  0  0  0  0  0  0  0  0
   -1.4333   -2.1476   -0.9533 H   0  0  0  0  0  0  0  0  0  0  0  0
   -1.4299   -2.2853    0.9136 H   0  0  0  0  0  0  0  0  0  0  0  0
    0.8247    0.3026    1.9785 H   0  0  0  0  0  0  0  0  0  0  0  0
    2.1075   -0.9537    1.6163 H   0  0  0  0  0  0  0  0  0  0  0  0
    3.2008    0.6706    0.2336 H   0  0  0  0  0  0  0  0  0  0  0  0
    1.7786    1.8276    0.3856 H   0  0  0  0  0  0  0  0  0  0  0  0
    0.8551    0.7923   -1.5957 H   0  0  0  0  0  0  0  0  0  0  0  0
    2.1042   -0.5134   -1.5174 H   0  0  0  0  0  0  0  0  0  0  0  0
  1  2  1  0
  2  3  1  0
  3  4  1  0
  4  5  1  0
  5  6  1  0
  6  7  1  0
  7  8  1  0
  8  9  1  0
  6  3  1  0
  9  6  1  0
  1 10  1  0
  1 11  1  0
  1 12  1  0
  3 13  1  0
  4 14  1  0
  4 15  1  0
  7 16  1  0
  7 17  1  0
  8 18  1  0
  8 19  1  0
  9 20  1  0
  9 21  1  0
M  END
