
     RDKit          3D

 23 24  0  0  0  0  0  0  0  0999 V2000
    2.1466   -0.2076    1.2487 C   0  0  0  0  0  0  0  0  0  0  0  0
    1.5359    0.7000    0.4535 O   0  0  0  0  0  0  0  0  0  0  0  0
    0.5414    0.3423   -0.3392 C   0  0  0  0  0  0  0  0  0  0  0  0
   -0.0102    1.4991   -1.1497 C   0  0  0  0  0  0  0  0  0  0  0  0
   -1.3602    1.2625   -0.4885 C   0  0  0  0  0  0  0  0  0  0  0  0
   -0.7958   -0.0217    0.0644 C   0  0  0  0  0  0  0  0  0  0  0  0
   -1.1802   -0.3111    1.4480 C   0  0  0  0  0  0  0  0  0  0  0  0
   -0.8004   -1.1957   -0.8515 C   0  0  0  0  0  0  0  0  0  0  0  0
    0.6541   -0.8929   -1.1888 C   0  0  0  0  0  0  0  0  0  0  0  0
    2.6232   -1.0561    0.7182 H   0  0  0  0  0  0  0  0  0  0  0  0
    1.4030   -0.5690    2.0136 H   0  0  0  0  0  0  0  0  0  0  0  0
    2.9546    0.2691    1.8426 H   0  0  0  0  0  0  0  0  0  0  0  0
    0.4419    2.4909   -0.8965 H   0  0  0  0  0  0  0  0  0  0  0  0
   -0.0111    1.3226   -2.2482 H   0  0  0  0  0  0  0  0  0  0  0  0
   -2.2098    1.1695   -1.1757 H   0  0  0  0  0  0  0  0  0  0  0  0
   -1.5039    1.9841    0.3513 H   0  0  0  0  0  0  0  0  0  0  0  0
   -0.9027    0.4622    2.1871 H   0  0  0  0  0  0  0  0  0  0  0  0
   -2.3103   -0.3570    1.4873 H   0  0  0  0  0  0  0  0  0  0  0  0
   -0.8556   -1.3356    1.7461 H   0  0  0  0  0  0  0  0  0  0  0  0
   -1.5033   -1.0213   -1.6986 H   0  0  0  0  0  0  0  0  0  0  0  0
   -0.9603   -2.1910   -0.4012 H   0  0  0  0  0  0  0  0  0  0  0  0
    1.3500   -1.6597   -0.8539 H   0  0  0  0  0  0  0  0  0  0  0  0
    0.7533   -0.6836   -2.2689 H   0  0  0  0  0  0  0  0  0  0  0  0
  1  2  1  0
  2  3  1  0
  3  4  1  0
  4  5  1  0
  5  6  1  0
  6  7  1  0
  6  8  1  0
  8  9  1  0
  6  3  1  0
  9  3  1  0
  1 10  1  0
  1 11  1  0
  1 12  1  0
  4 13  1  0
  4 14  1  0
  5 15  1  0
  5 16  1  0
  7 17  1  0
  7 18  1  0
  7 19  1  0
  8 20  1  0
  8 21  1  0
  9 22  1  0
  9 23  1  0
M  END
