
     RDKit          3D

 16 16  0  0  0  0  0  0  0  0999 V2000
    2.1916    0.1094   -0.5778 C   0  0  0  0  0  0  0  0  0  0  0  0
    1.0476   -0.3993    0.0064 O   0  0  0  0  0  0  0  0  0  0  0  0
   -0.1189    0.1707   -0.4603 C   0  0  0  0  0  0  0  0  0  0  0  0
   -1.0818   -0.9036   -0.8101 C   0  0  0  0  0  0  0  0  0  0  0  0
   -1.4251   -1.4889   -1.8070 O   0  0  0  0  0  0  0  0  0  0  0  0
   -1.4411   -0.9411    0.6266 C   0  0  0  0  0  0  0  0  0  0  0  0
   -1.1056    0.5554    0.6475 C   0  0  0  0  0  0  0  0  0  0  0  0
   -0.5252    0.9981    1.8055 O   0  0  0  0  0  0  0  0  0  0  0  0
    2.1812   -0.0494   -1.6572 H   0  0  0  0  0  0  0  0  0  0  0  0
    3.0486   -0.4802   -0.1742 H   0  0  0  0  0  0  0  0  0  0  0  0
    2.3958    1.1674   -0.2876 H   0  0  0  0  0  0  0  0  0  0  0  0
   -0.0027    0.9592   -1.2386 H   0  0  0  0  0  0  0  0  0  0  0  0
   -2.4764   -1.1744    0.8670 H   0  0  0  0  0  0  0  0  0  0  0  0
   -0.6589   -1.4939    1.2071 H   0  0  0  0  0  0  0  0  0  0  0  0
   -1.9475    1.1090    0.2382 H   0  0  0  0  0  0  0  0  0  0  0  0
   -0.0817    1.8615    1.6144 H   0  0  0  0  0  0  0  0  0  0  0  0
  1  2  1  0
  2  3  1  0
  3  4  1  0
  4  5  2  0
  4  6  1  0
  6  7  1  0
  7  8  1  0
  7  3  1  0
  1  9  1  0
  1 10  1  0
  1 11  1  0
  3 12  1  0
  6 13  1  0
  6 14  1  0
  7 15  1  0
  8 16  1  0
M  END
