
     RDKit          3D

 19 20  0  0  0  0  0  0  0  0999 V2000
    2.5916    0.6179    0.5394 C   0  0  0  0  0  0  0  0  0  0  0  0
    1.2669    0.2539    0.8535 O   0  0  0  0  0  0  0  0  0  0  0  0
    0.6130   -0.2034   -0.2735 C   0  0  0  0  0  0  0  0  0  0  0  0
   -0.1659   -1.4661   -0.0828 C   0  0  0  0  0  0  0  0  0  0  0  0
   -0.9454   -1.0630   -1.1561 O   0  0  0  0  0  0  0  0  0  0  0  0
   -0.8248    0.1377   -0.4176 C   0  0  0  0  0  0  0  0  0  0  0  0
   -1.4060    1.3343   -0.7482 C   0  0  0  0  0  0  0  0  0  0  0  0
   -1.1035   -0.7045    0.7977 C   0  0  0  0  0  0  0  0  0  0  0  0
   -2.3595   -1.2812    0.8504 O   0  0  0  0  0  0  0  0  0  0  0  0
    2.6275    1.4133   -0.2146 H   0  0  0  0  0  0  0  0  0  0  0  0
    3.1212    0.8772    1.4781 H   0  0  0  0  0  0  0  0  0  0  0  0
    3.1028   -0.2898    0.1365 H   0  0  0  0  0  0  0  0  0  0  0  0
    1.2483   -0.1885   -1.1617 H   0  0  0  0  0  0  0  0  0  0  0  0
    0.2058   -2.3918    0.0779 H   0  0  0  0  0  0  0  0  0  0  0  0
   -2.1837    1.2797   -1.5672 H   0  0  0  0  0  0  0  0  0  0  0  0
   -0.6927    2.1300   -1.1175 H   0  0  0  0  0  0  0  0  0  0  0  0
   -1.9546    1.8506    0.0949 H   0  0  0  0  0  0  0  0  0  0  0  0
   -0.7015   -0.3248    1.7471 H   0  0  0  0  0  0  0  0  0  0  0  0
   -2.4393   -1.9815    0.1639 H   0  0  0  0  0  0  0  0  0  0  0  0
  1  2  1  0
  2  3  1  0
  3  4  1  0
  4  5  1  0
  5  6  1  0
  6  7  1  0
  6  8  1  0
  8  9  1  0
  6  3  1  0
  8  4  1  0
  1 10  1  0
  1 11  1  0
  1 12  1  0
  3 13  1  0
  4 14  1  0
  7 15  1  0
  7 16  1  0
  7 17  1  0
  8 18  1  0
  9 19  1  0
M  END
