
     RDKit          3D

 21 22  0  0  0  0  0  0  0  0999 V2000
    1.9581    0.7715    0.8786 C   0  0  0  0  0  0  0  0  0  0  0  0
    1.1842   -0.3730    0.9207 O   0  0  0  0  0  0  0  0  0  0  0  0
   -0.0085   -0.2638    0.2585 C   0  0  0  0  0  0  0  0  0  0  0  0
   -0.9490    0.8048    0.7466 C   0  0  0  0  0  0  0  0  0  0  0  0
   -1.3364    1.9421   -0.0186 C   0  0  0  0  0  0  0  0  0  0  0  0
   -2.1651    0.7953   -0.0530 O   0  0  0  0  0  0  0  0  0  0  0  0
   -0.6967   -1.6350    0.2181 C   0  0  0  0  0  0  0  0  0  0  0  0
    0.2262   -1.9016   -0.9819 C   0  0  0  0  0  0  0  0  0  0  0  0
    0.0972   -0.3954   -1.2462 C   0  0  0  0  0  0  0  0  0  0  0  0
    2.8988    0.5431    1.4560 H   0  0  0  0  0  0  0  0  0  0  0  0
    1.4226    1.6383    1.3493 H   0  0  0  0  0  0  0  0  0  0  0  0
    2.2997    1.0065   -0.1528 H   0  0  0  0  0  0  0  0  0  0  0  0
   -1.2273    0.7202    1.8139 H   0  0  0  0  0  0  0  0  0  0  0  0
   -1.7261    2.8428    0.5099 H   0  0  0  0  0  0  0  0  0  0  0  0
   -0.8827    2.1920   -0.9928 H   0  0  0  0  0  0  0  0  0  0  0  0
   -0.4552   -2.2400    1.1080 H   0  0  0  0  0  0  0  0  0  0  0  0
   -1.7654   -1.5703   -0.0594 H   0  0  0  0  0  0  0  0  0  0  0  0
   -0.1960   -2.5446   -1.7483 H   0  0  0  0  0  0  0  0  0  0  0  0
    1.2282   -2.1848   -0.5820 H   0  0  0  0  0  0  0  0  0  0  0  0
   -0.8796   -0.2065   -1.7150 H   0  0  0  0  0  0  0  0  0  0  0  0
    0.9729    0.0585   -1.7095 H   0  0  0  0  0  0  0  0  0  0  0  0
  1  2  1  0
  2  3  1  0
  3  4  1  0
  4  5  1  0
  5  6  1  0
  3  7  1  0
  7  8  1  0
  8  9  1  0
  9  3  1  0
  6  4  1  0
  1 10  1  0
  1 11  1  0
  1 12  1  0
  4 13  1  0
  5 14  1  0
  5 15  1  0
  7 16  1  0
  7 17  1  0
  8 18  1  0
  8 19  1  0
  9 20  1  0
  9 21  1  0
M  END
