
     RDKit          3D

 18 19  0  0  0  0  0  0  0  0999 V2000
    2.4591   -0.7071    0.7221 C   0  0  0  0  0  0  0  0  0  0  0  0
    1.1212   -1.0890    0.5637 O   0  0  0  0  0  0  0  0  0  0  0  0
    0.3953    0.0239    0.2655 C   0  0  0  0  0  0  0  0  0  0  0  0
   -0.9573    0.1611    0.9232 C   0  0  0  0  0  0  0  0  0  0  0  0
   -1.4748    1.3925    0.2560 C   0  0  0  0  0  0  0  0  0  0  0  0
   -1.1344    1.1906   -1.0177 C   0  0  0  0  0  0  0  0  0  0  0  0
   -0.4818   -0.1263   -0.9910 C   0  0  0  0  0  0  0  0  0  0  0  0
   -1.4135   -0.9003   -0.0720 C   0  0  0  0  0  0  0  0  0  0  0  0
    3.1166   -1.5641    0.9679 H   0  0  0  0  0  0  0  0  0  0  0  0
    2.5727    0.1000    1.4805 H   0  0  0  0  0  0  0  0  0  0  0  0
    2.8719   -0.2710   -0.2324 H   0  0  0  0  0  0  0  0  0  0  0  0
    0.9350    0.9900    0.1988 H   0  0  0  0  0  0  0  0  0  0  0  0
   -1.0836    0.0083    1.9475 H   0  0  0  0  0  0  0  0  0  0  0  0
   -1.9883    2.2049    0.7473 H   0  0  0  0  0  0  0  0  0  0  0  0
   -1.2710    1.7967   -1.9004 H   0  0  0  0  0  0  0  0  0  0  0  0
   -0.0733   -0.5811   -1.8388 H   0  0  0  0  0  0  0  0  0  0  0  0
   -1.1339   -1.9211    0.1543 H   0  0  0  0  0  0  0  0  0  0  0  0
   -2.4598   -0.7080   -0.3866 H   0  0  0  0  0  0  0  0  0  0  0  0
  1  2  1  0
  2  3  1  0
  3  4  1  0
  4  5  1  0
  5  6  2  0
  6  7  1  0
  7  8  1  0
  7  3  1  0
  8  4  1  0
  1  9  1  0
  1 10  1  0
  1 11  1  0
  3 12  1  0
  4 13  1  0
  5 14  1  0
  6 15  1  0
  7 16  1  0
  8 17  1  0
  8 18  1  0
M  END
