
     RDKit          3D

 19 20  0  0  0  0  0  0  0  0999 V2000
    2.9284   -0.0086   -0.1288 C   0  0  0  0  0  0  0  0  0  0  0  0
    1.7169   -0.2839   -0.7414 O   0  0  0  0  0  0  0  0  0  0  0  0
    0.6219    0.1112   -0.0057 C   0  0  0  0  0  0  0  0  0  0  0  0
   -0.4377    0.8162   -0.8415 C   0  0  0  0  0  0  0  0  0  0  0  0
   -1.5850    1.0442    0.1148 C   0  0  0  0  0  0  0  0  0  0  0  0
   -1.6125   -0.3699    0.7326 C   0  0  0  0  0  0  0  0  0  0  0  0
   -2.7661   -1.0232    0.3476 O   0  0  0  0  0  0  0  0  0  0  0  0
   -0.4649   -0.9331   -0.0785 C   0  0  0  0  0  0  0  0  0  0  0  0
   -0.7110   -0.4376   -1.3811 O   0  0  0  0  0  0  0  0  0  0  0  0
    3.7238   -0.3781   -0.8285 H   0  0  0  0  0  0  0  0  0  0  0  0
    3.0075   -0.5474    0.8181 H   0  0  0  0  0  0  0  0  0  0  0  0
    3.0839    1.0681    0.0788 H   0  0  0  0  0  0  0  0  0  0  0  0
    0.7904    0.5872    0.9562 H   0  0  0  0  0  0  0  0  0  0  0  0
   -0.1285    1.6072   -1.4849 H   0  0  0  0  0  0  0  0  0  0  0  0
   -2.5297    1.2474   -0.3977 H   0  0  0  0  0  0  0  0  0  0  0  0
   -1.3246    1.7948    0.8934 H   0  0  0  0  0  0  0  0  0  0  0  0
   -1.4304   -0.3480    1.8038 H   0  0  0  0  0  0  0  0  0  0  0  0
   -2.6692   -1.9867    0.5275 H   0  0  0  0  0  0  0  0  0  0  0  0
   -0.2134   -1.9599    0.0196 H   0  0  0  0  0  0  0  0  0  0  0  0
  1  2  1  0
  2  3  1  0
  3  4  1  0
  4  5  1  0
  5  6  1  0
  6  7  1  0
  6  8  1  0
  8  9  1  0
  8  3  1  0
  9  4  1  0
  1 10  1  0
  1 11  1  0
  1 12  1  0
  3 13  1  0
  4 14  1  0
  5 15  1  0
  5 16  1  0
  6 17  1  0
  7 18  1  0
  8 19  1  0
M  END
