
     RDKit          3D

 21 21  0  0  0  0  0  0  0  0999 V2000
    2.1654   -1.4105    0.4496 C   0  0  0  0  0  0  0  0  0  0  0  0
    0.9796   -0.7512    0.7539 O   0  0  0  0  0  0  0  0  0  0  0  0
    0.3009   -0.3439   -0.3700 C   0  0  0  0  0  0  0  0  0  0  0  0
    0.0320    1.1571   -0.3390 C   0  0  0  0  0  0  0  0  0  0  0  0
    0.3429    1.7928    1.0066 C   0  0  0  0  0  0  0  0  0  0  0  0
   -1.4251    0.8888   -0.5166 C   0  0  0  0  0  0  0  0  0  0  0  0
   -1.1522   -0.6099   -0.4501 C   0  0  0  0  0  0  0  0  0  0  0  0
   -1.8109   -1.2357    0.6976 C   0  0  0  0  0  0  0  0  0  0  0  0
   -2.9869   -1.0148    0.8989 O   0  0  0  0  0  0  0  0  0  0  0  0
    2.8600   -0.7392   -0.1345 H   0  0  0  0  0  0  0  0  0  0  0  0
    1.9722   -2.3333   -0.1258 H   0  0  0  0  0  0  0  0  0  0  0  0
    2.6519   -1.7039    1.4077 H   0  0  0  0  0  0  0  0  0  0  0  0
    0.8496   -0.6307   -1.3000 H   0  0  0  0  0  0  0  0  0  0  0  0
    0.5538    1.6904   -1.1289 H   0  0  0  0  0  0  0  0  0  0  0  0
    0.8221    1.0680    1.6985 H   0  0  0  0  0  0  0  0  0  0  0  0
   -0.5896    2.1353    1.4838 H   0  0  0  0  0  0  0  0  0  0  0  0
    1.0349    2.6438    0.9088 H   0  0  0  0  0  0  0  0  0  0  0  0
   -1.7578    1.1900   -1.5332 H   0  0  0  0  0  0  0  0  0  0  0  0
   -2.0760    1.2319    0.3086 H   0  0  0  0  0  0  0  0  0  0  0  0
   -1.4720   -1.1340   -1.3974 H   0  0  0  0  0  0  0  0  0  0  0  0
   -1.2947   -1.8908    1.3798 H   0  0  0  0  0  0  0  0  0  0  0  0
  1  2  1  0
  2  3  1  0
  3  4  1  0
  4  5  1  0
  4  6  1  0
  6  7  1  0
  7  8  1  0
  8  9  2  0
  7  3  1  0
  1 10  1  0
  1 11  1  0
  1 12  1  0
  3 13  1  0
  4 14  1  0
  5 15  1  0
  5 16  1  0
  5 17  1  0
  6 18  1  0
  6 19  1  0
  7 20  1  0
  8 21  1  0
M  END
