
     RDKit          3D

 23 24  0  0  0  0  0  0  0  0999 V2000
    2.7491    0.3302    0.1060 C   0  0  0  0  0  0  0  0  0  0  0  0
    1.5729    0.3132    0.8298 O   0  0  0  0  0  0  0  0  0  0  0  0
    0.5518   -0.0721   -0.0265 C   0  0  0  0  0  0  0  0  0  0  0  0
   -0.3898   -1.1170    0.5341 C   0  0  0  0  0  0  0  0  0  0  0  0
   -0.4029   -2.4161   -0.2295 C   0  0  0  0  0  0  0  0  0  0  0  0
   -1.5739   -0.2618    0.2298 C   0  0  0  0  0  0  0  0  0  0  0  0
   -1.6886    0.5368   -1.0080 C   0  0  0  0  0  0  0  0  0  0  0  0
   -0.6291    0.8826   -0.0592 C   0  0  0  0  0  0  0  0  0  0  0  0
   -0.6406    2.0873    0.8081 C   0  0  0  0  0  0  0  0  0  0  0  0
    3.5987    0.6341    0.7518 H   0  0  0  0  0  0  0  0  0  0  0  0
    2.6009    1.0372   -0.7480 H   0  0  0  0  0  0  0  0  0  0  0  0
    3.0197   -0.6437   -0.3380 H   0  0  0  0  0  0  0  0  0  0  0  0
    0.8641   -0.2805   -1.0714 H   0  0  0  0  0  0  0  0  0  0  0  0
   -0.2535   -1.2154    1.6303 H   0  0  0  0  0  0  0  0  0  0  0  0
    0.3810   -3.0579    0.1851 H   0  0  0  0  0  0  0  0  0  0  0  0
   -0.2485   -2.1593   -1.3025 H   0  0  0  0  0  0  0  0  0  0  0  0
   -1.4209   -2.8725   -0.0815 H   0  0  0  0  0  0  0  0  0  0  0  0
   -2.3509   -0.1727    0.9884 H   0  0  0  0  0  0  0  0  0  0  0  0
   -1.3603    0.0886   -1.9780 H   0  0  0  0  0  0  0  0  0  0  0  0
   -2.5738    1.1641   -1.1053 H   0  0  0  0  0  0  0  0  0  0  0  0
   -0.0263    1.8789    1.7287 H   0  0  0  0  0  0  0  0  0  0  0  0
   -1.6362    2.3805    1.1797 H   0  0  0  0  0  0  0  0  0  0  0  0
   -0.1431    2.9355    0.2807 H   0  0  0  0  0  0  0  0  0  0  0  0
  1  2  1  0
  2  3  1  0
  3  4  1  0
  4  5  1  0
  4  6  1  0
  6  7  1  0
  7  8  1  0
  8  9  1  0
  8  3  1  0
  8  6  1  0
  1 10  1  0
  1 11  1  0
  1 12  1  0
  3 13  1  0
  4 14  1  0
  5 15  1  0
  5 16  1  0
  5 17  1  0
  6 18  1  0
  7 19  1  0
  7 20  1  0
  9 21  1  0
  9 22  1  0
  9 23  1  0
M  END
