
     RDKit          3D

 21 22  0  0  0  0  0  0  0  0999 V2000
    2.0230    1.6157    0.4772 C   0  0  0  0  0  0  0  0  0  0  0  0
    1.2904    0.7067   -0.2644 O   0  0  0  0  0  0  0  0  0  0  0  0
    0.7076   -0.2891    0.5059 C   0  0  0  0  0  0  0  0  0  0  0  0
    0.9803   -1.7057   -0.0146 C   0  0  0  0  0  0  0  0  0  0  0  0
   -0.2865   -1.5525   -0.8695 C   0  0  0  0  0  0  0  0  0  0  0  0
   -0.7026   -0.4860    0.0708 C   0  0  0  0  0  0  0  0  0  0  0  0
   -1.8814   -0.4197    0.8637 C   0  0  0  0  0  0  0  0  0  0  0  0
   -1.5736    0.6291   -0.2482 C   0  0  0  0  0  0  0  0  0  0  0  0
   -1.1726    1.8772    0.2853 O   0  0  0  0  0  0  0  0  0  0  0  0
    2.4363    2.3561   -0.2396 H   0  0  0  0  0  0  0  0  0  0  0  0
    2.8954    1.1435    0.9792 H   0  0  0  0  0  0  0  0  0  0  0  0
    1.3998    2.1635    1.2211 H   0  0  0  0  0  0  0  0  0  0  0  0
    0.9093   -0.2132    1.5805 H   0  0  0  0  0  0  0  0  0  0  0  0
    1.9061   -1.8089   -0.5820 H   0  0  0  0  0  0  0  0  0  0  0  0
    0.8594   -2.4226    0.7945 H   0  0  0  0  0  0  0  0  0  0  0  0
   -0.0688   -1.2216   -1.9060 H   0  0  0  0  0  0  0  0  0  0  0  0
   -0.9532   -2.4295   -0.8381 H   0  0  0  0  0  0  0  0  0  0  0  0
   -1.9086   -0.0646    1.8918 H   0  0  0  0  0  0  0  0  0  0  0  0
   -2.7372   -1.1098    0.6133 H   0  0  0  0  0  0  0  0  0  0  0  0
   -2.2843    0.6504   -1.0866 H   0  0  0  0  0  0  0  0  0  0  0  0
   -1.8391    2.5809    0.0466 H   0  0  0  0  0  0  0  0  0  0  0  0
  1  2  1  0
  2  3  1  0
  3  4  1  0
  4  5  1  0
  5  6  1  0
  6  7  1  0
  7  8  1  0
  8  9  1  0
  6  3  1  0
  8  6  1  0
  1 10  1  0
  1 11  1  0
  1 12  1  0
  3 13  1  0
  4 14  1  0
  4 15  1  0
  5 16  1  0
  5 17  1  0
  7 18  1  0
  7 19  1  0
  8 20  1  0
  9 21  1  0
M  END
