
     RDKit          3D

 19 20  0  0  0  0  0  0  0  0999 V2000
   -2.9023    0.4415   -0.0366 C   0  0  0  0  0  0  0  0  0  0  0  0
   -1.6029    0.2519   -0.4664 O   0  0  0  0  0  0  0  0  0  0  0  0
   -0.7522   -0.2489    0.5146 C   0  0  0  0  0  0  0  0  0  0  0  0
    0.2030   -1.2057    0.1216 C   0  0  0  0  0  0  0  0  0  0  0  0
    1.3018   -1.1943   -0.7008 O   0  0  0  0  0  0  0  0  0  0  0  0
    2.3130   -0.9357    0.2629 C   0  0  0  0  0  0  0  0  0  0  0  0
    1.6756   -0.2065    1.3016 O   0  0  0  0  0  0  0  0  0  0  0  0
    0.5770    0.2403    0.6611 C   0  0  0  0  0  0  0  0  0  0  0  0
    0.9615    1.2572   -0.4303 C   0  0  0  0  0  0  0  0  0  0  0  0
   -2.8586    1.1786    0.8162 H   0  0  0  0  0  0  0  0  0  0  0  0
   -3.5032    0.9388   -0.8202 H   0  0  0  0  0  0  0  0  0  0  0  0
   -3.3680   -0.4984    0.2971 H   0  0  0  0  0  0  0  0  0  0  0  0
   -1.3201   -0.3982    1.4805 H   0  0  0  0  0  0  0  0  0  0  0  0
    0.3604   -2.0521    0.8617 H   0  0  0  0  0  0  0  0  0  0  0  0
    2.7386   -1.8705    0.6465 H   0  0  0  0  0  0  0  0  0  0  0  0
    3.1127   -0.3634   -0.2111 H   0  0  0  0  0  0  0  0  0  0  0  0
    0.6743    2.2621    0.0004 H   0  0  0  0  0  0  0  0  0  0  0  0
    2.0225    1.3060   -0.6378 H   0  0  0  0  0  0  0  0  0  0  0  0
    0.3669    1.0974   -1.3547 H   0  0  0  0  0  0  0  0  0  0  0  0
  1  2  1  0
  2  3  1  0
  3  4  1  0
  4  5  1  0
  5  6  1  0
  6  7  1  0
  7  8  1  0
  8  9  1  0
  8  3  1  0
  8  4  1  0
  1 10  1  0
  1 11  1  0
  1 12  1  0
  3 13  1  0
  4 14  1  0
  6 15  1  0
  6 16  1  0
  9 17  1  0
  9 18  1  0
  9 19  1  0
M  END
