
     RDKit          3D

 19 20  0  0  0  0  0  0  0  0999 V2000
    2.4049    0.7693    0.1811 C   0  0  0  0  0  0  0  0  0  0  0  0
    1.0282    0.6101    0.3341 O   0  0  0  0  0  0  0  0  0  0  0  0
    0.5599   -0.1770   -0.6828 C   0  0  0  0  0  0  0  0  0  0  0  0
   -0.3325   -1.3193   -0.2770 C   0  0  0  0  0  0  0  0  0  0  0  0
   -1.2426   -0.9508    0.8862 C   0  0  0  0  0  0  0  0  0  0  0  0
   -1.5747    0.3720    0.8864 O   0  0  0  0  0  0  0  0  0  0  0  0
   -1.5710    0.9974   -0.3233 C   0  0  0  0  0  0  0  0  0  0  0  0
   -0.7321    0.2526   -1.3265 C   0  0  0  0  0  0  0  0  0  0  0  0
   -1.1018   -1.0982   -1.4173 O   0  0  0  0  0  0  0  0  0  0  0  0
    2.6912    1.2416   -0.7639 H   0  0  0  0  0  0  0  0  0  0  0  0
    2.9341   -0.2270    0.1997 H   0  0  0  0  0  0  0  0  0  0  0  0
    2.8085    1.3098    1.0731 H   0  0  0  0  0  0  0  0  0  0  0  0
    1.3205   -0.5097   -1.3808 H   0  0  0  0  0  0  0  0  0  0  0  0
    0.1471   -2.2927   -0.1870 H   0  0  0  0  0  0  0  0  0  0  0  0
   -0.8129   -1.2592    1.8611 H   0  0  0  0  0  0  0  0  0  0  0  0
   -2.1596   -1.5825    0.7455 H   0  0  0  0  0  0  0  0  0  0  0  0
   -2.5862    1.1832   -0.7439 H   0  0  0  0  0  0  0  0  0  0  0  0
   -1.1100    2.0007   -0.1978 H   0  0  0  0  0  0  0  0  0  0  0  0
   -0.6710    0.6798   -2.3248 H   0  0  0  0  0  0  0  0  0  0  0  0
  1  2  1  0
  2  3  1  0
  3  4  1  0
  4  5  1  0
  5  6  1  0
  6  7  1  0
  7  8  1  0
  8  9  1  0
  8  3  1  0
  9  4  1  0
  1 10  1  0
  1 11  1  0
  1 12  1  0
  3 13  1  0
  4 14  1  0
  5 15  1  0
  5 16  1  0
  7 17  1  0
  7 18  1  0
  8 19  1  0
M  END
