
     RDKit          3D

 21 21  0  0  0  0  0  0  0  0999 V2000
    3.3546   -0.3035   -0.0743 C   0  0  0  0  0  0  0  0  0  0  0  0
    2.1787   -0.6838    0.6069 O   0  0  0  0  0  0  0  0  0  0  0  0
    1.0658   -0.1376   -0.0336 C   0  0  0  0  0  0  0  0  0  0  0  0
    0.1290   -1.1718   -0.5341 C   0  0  0  0  0  0  0  0  0  0  0  0
   -1.1206   -1.1855   -0.0211 O   0  0  0  0  0  0  0  0  0  0  0  0
   -1.6634   -0.0091    0.3678 C   0  0  0  0  0  0  0  0  0  0  0  0
   -2.9908    0.3239   -0.2679 C   0  0  0  0  0  0  0  0  0  0  0  0
   -0.7270    1.1798    0.1945 C   0  0  0  0  0  0  0  0  0  0  0  0
    0.4674    0.8062    0.8116 O   0  0  0  0  0  0  0  0  0  0  0  0
    4.2264   -0.7245    0.4178 H   0  0  0  0  0  0  0  0  0  0  0  0
    3.3299    0.8072   -0.1103 H   0  0  0  0  0  0  0  0  0  0  0  0
    3.2384   -0.6629   -1.1274 H   0  0  0  0  0  0  0  0  0  0  0  0
    1.4217    0.4599   -0.9240 H   0  0  0  0  0  0  0  0  0  0  0  0
    0.0430   -1.1646   -1.6607 H   0  0  0  0  0  0  0  0  0  0  0  0
    0.5953   -2.1793   -0.3176 H   0  0  0  0  0  0  0  0  0  0  0  0
   -1.8636   -0.0706    1.4781 H   0  0  0  0  0  0  0  0  0  0  0  0
   -2.7609    0.9252   -1.1827 H   0  0  0  0  0  0  0  0  0  0  0  0
   -3.5950   -0.5749   -0.4962 H   0  0  0  0  0  0  0  0  0  0  0  0
   -3.5543    0.9995    0.4392 H   0  0  0  0  0  0  0  0  0  0  0  0
   -0.5708    1.3217   -0.8871 H   0  0  0  0  0  0  0  0  0  0  0  0
   -1.2038    2.0448    0.6816 H   0  0  0  0  0  0  0  0  0  0  0  0
  1  2  1  0
  2  3  1  0
  3  4  1  0
  4  5  1  0
  5  6  1  0
  6  7  1  0
  6  8  1  0
  8  9  1  0
  9  3  1  0
  1 10  1  0
  1 11  1  0
  1 12  1  0
  3 13  1  0
  4 14  1  0
  4 15  1  0
  6 16  1  0
  7 17  1  0
  7 18  1  0
  7 19  1  0
  8 20  1  0
  8 21  1  0
M  END
