
     RDKit          3D

 21 22  0  0  0  0  0  0  0  0999 V2000
    2.1948    1.0634    0.3127 C   0  0  0  0  0  0  0  0  0  0  0  0
    1.2319    0.3587    0.9943 O   0  0  0  0  0  0  0  0  0  0  0  0
    0.3716   -0.3560    0.2035 C   0  0  0  0  0  0  0  0  0  0  0  0
    0.9986   -1.4133   -0.6787 C   0  0  0  0  0  0  0  0  0  0  0  0
   -0.8385   -0.8285    0.9834 C   0  0  0  0  0  0  0  0  0  0  0  0
   -1.7125    0.0502    0.1245 C   0  0  0  0  0  0  0  0  0  0  0  0
   -2.8290   -0.4776   -0.4708 O   0  0  0  0  0  0  0  0  0  0  0  0
   -1.4276    1.5057    0.0923 C   0  0  0  0  0  0  0  0  0  0  0  0
   -0.5348    0.5223   -0.6037 C   0  0  0  0  0  0  0  0  0  0  0  0
    1.7688    1.8027   -0.3787 H   0  0  0  0  0  0  0  0  0  0  0  0
    2.9313    0.3926   -0.2000 H   0  0  0  0  0  0  0  0  0  0  0  0
    2.7980    1.6169    1.0750 H   0  0  0  0  0  0  0  0  0  0  0  0
    1.4454   -0.9215   -1.5634 H   0  0  0  0  0  0  0  0  0  0  0  0
    1.6895   -2.0713   -0.1334 H   0  0  0  0  0  0  0  0  0  0  0  0
    0.1560   -2.0792   -1.0234 H   0  0  0  0  0  0  0  0  0  0  0  0
   -1.0607   -1.9006    0.9196 H   0  0  0  0  0  0  0  0  0  0  0  0
   -0.8519   -0.4591    2.0276 H   0  0  0  0  0  0  0  0  0  0  0  0
   -2.8190   -1.4593   -0.3433 H   0  0  0  0  0  0  0  0  0  0  0  0
   -2.0611    2.1075   -0.5956 H   0  0  0  0  0  0  0  0  0  0  0  0
   -0.9903    2.0169    0.9672 H   0  0  0  0  0  0  0  0  0  0  0  0
   -0.4606    0.5293   -1.7092 H   0  0  0  0  0  0  0  0  0  0  0  0
  1  2  1  0
  2  3  1  0
  3  4  1  0
  3  5  1  0
  5  6  1  0
  6  7  1  0
  6  8  1  0
  8  9  1  0
  9  3  1  0
  9  6  1  0
  1 10  1  0
  1 11  1  0
  1 12  1  0
  4 13  1  0
  4 14  1  0
  4 15  1  0
  5 16  1  0
  5 17  1  0
  7 18  1  0
  8 19  1  0
  8 20  1  0
  9 21  1  0
M  END
