
     RDKit          3D

 21 22  0  0  0  0  0  0  0  0999 V2000
    2.0339   -1.1688    1.0435 C   0  0  0  0  0  0  0  0  0  0  0  0
    0.9993   -0.2951    1.3721 O   0  0  0  0  0  0  0  0  0  0  0  0
    0.4105    0.2132    0.2251 C   0  0  0  0  0  0  0  0  0  0  0  0
    1.2249    0.9840   -0.7182 C   0  0  0  0  0  0  0  0  0  0  0  0
    0.2618    1.7460    0.1054 C   0  0  0  0  0  0  0  0  0  0  0  0
   -1.1903    1.5744   -0.3180 C   0  0  0  0  0  0  0  0  0  0  0  0
   -1.0854    0.1546    0.1513 C   0  0  0  0  0  0  0  0  0  0  0  0
   -1.6460   -0.8907   -0.7835 C   0  0  0  0  0  0  0  0  0  0  0  0
   -1.1819   -2.1428   -0.3209 O   0  0  0  0  0  0  0  0  0  0  0  0
    2.4666   -1.5454    1.9956 H   0  0  0  0  0  0  0  0  0  0  0  0
    2.8374   -0.5658    0.5732 H   0  0  0  0  0  0  0  0  0  0  0  0
    1.6864   -1.9924    0.3918 H   0  0  0  0  0  0  0  0  0  0  0  0
    2.2989    1.0449   -0.5445 H   0  0  0  0  0  0  0  0  0  0  0  0
    0.9698    0.9533   -1.8173 H   0  0  0  0  0  0  0  0  0  0  0  0
    0.5144    2.2666    1.0202 H   0  0  0  0  0  0  0  0  0  0  0  0
   -1.2461    1.7019   -1.4305 H   0  0  0  0  0  0  0  0  0  0  0  0
   -1.8975    2.2199    0.2338 H   0  0  0  0  0  0  0  0  0  0  0  0
   -1.5191    0.0600    1.1685 H   0  0  0  0  0  0  0  0  0  0  0  0
   -2.7491   -0.9455   -0.7253 H   0  0  0  0  0  0  0  0  0  0  0  0
   -1.3050   -0.7503   -1.8135 H   0  0  0  0  0  0  0  0  0  0  0  0
   -1.8836   -2.6221    0.1912 H   0  0  0  0  0  0  0  0  0  0  0  0
  1  2  1  0
  2  3  1  0
  3  4  1  0
  4  5  1  0
  5  6  1  0
  6  7  1  0
  7  8  1  0
  8  9  1  0
  5  3  1  0
  7  3  1  0
  1 10  1  0
  1 11  1  0
  1 12  1  0
  4 13  1  0
  4 14  1  0
  5 15  1  0
  6 16  1  0
  6 17  1  0
  7 18  1  0
  8 19  1  0
  8 20  1  0
  9 21  1  0
M  END
