
     RDKit          3D

 25 25  0  0  0  0  0  0  0  0999 V2000
    3.3113    0.3042   -0.0634 C   0  0  0  0  0  0  0  0  0  0  0  0
    2.1397   -0.2022    0.4981 O   0  0  0  0  0  0  0  0  0  0  0  0
    1.0839   -0.1003   -0.3911 C   0  0  0  0  0  0  0  0  0  0  0  0
    0.4487   -1.4285   -0.6560 C   0  0  0  0  0  0  0  0  0  0  0  0
   -0.7566   -1.6905    0.2371 C   0  0  0  0  0  0  0  0  0  0  0  0
   -1.8880   -0.7073   -0.0796 C   0  0  0  0  0  0  0  0  0  0  0  0
   -1.2532    0.5208   -0.6499 C   0  0  0  0  0  0  0  0  0  0  0  0
   -2.1368    1.7211   -0.6756 C   0  0  0  0  0  0  0  0  0  0  0  0
   -0.0063    0.8092    0.1830 C   0  0  0  0  0  0  0  0  0  0  0  0
    4.1082    0.1899    0.7008 H   0  0  0  0  0  0  0  0  0  0  0  0
    3.5461   -0.2662   -0.9896 H   0  0  0  0  0  0  0  0  0  0  0  0
    3.2389    1.3914   -0.2768 H   0  0  0  0  0  0  0  0  0  0  0  0
    1.4102    0.3644   -1.3562 H   0  0  0  0  0  0  0  0  0  0  0  0
    0.0827   -1.4750   -1.7008 H   0  0  0  0  0  0  0  0  0  0  0  0
    1.1631   -2.2506   -0.4512 H   0  0  0  0  0  0  0  0  0  0  0  0
   -1.1163   -2.7169   -0.0197 H   0  0  0  0  0  0  0  0  0  0  0  0
   -0.4744   -1.6284    1.3193 H   0  0  0  0  0  0  0  0  0  0  0  0
   -2.5821   -1.1606   -0.8123 H   0  0  0  0  0  0  0  0  0  0  0  0
   -2.4413   -0.4986    0.8754 H   0  0  0  0  0  0  0  0  0  0  0  0
   -0.9578    0.2892   -1.6977 H   0  0  0  0  0  0  0  0  0  0  0  0
   -3.0951    1.4446   -1.1412 H   0  0  0  0  0  0  0  0  0  0  0  0
   -1.6642    2.4617   -1.3846 H   0  0  0  0  0  0  0  0  0  0  0  0
   -2.2418    2.2414    0.2800 H   0  0  0  0  0  0  0  0  0  0  0  0
   -0.1534    0.5216    1.2467 H   0  0  0  0  0  0  0  0  0  0  0  0
    0.2345    1.8653    0.0766 H   0  0  0  0  0  0  0  0  0  0  0  0
  1  2  1  0
  2  3  1  0
  3  4  1  0
  4  5  1  0
  5  6  1  0
  6  7  1  0
  7  8  1  0
  7  9  1  0
  9  3  1  0
  1 10  1  0
  1 11  1  0
  1 12  1  0
  3 13  1  0
  4 14  1  0
  4 15  1  0
  5 16  1  0
  5 17  1  0
  6 18  1  0
  6 19  1  0
  7 20  1  0
  8 21  1  0
  8 22  1  0
  8 23  1  0
  9 24  1  0
  9 25  1  0
M  END
