
     RDKit          3D

 19 21  0  0  0  0  0  0  0  0999 V2000
   -3.0347    0.2944    0.6968 C   0  0  0  0  0  0  0  0  0  0  0  0
   -1.9953    0.1004   -0.1918 O   0  0  0  0  0  0  0  0  0  0  0  0
   -0.9311   -0.5993    0.3234 C   0  0  0  0  0  0  0  0  0  0  0  0
   -0.0078   -1.4049   -0.5071 C   0  0  0  0  0  0  0  0  0  0  0  0
    0.3827   -0.1439   -0.1103 C   0  0  0  0  0  0  0  0  0  0  0  0
    0.6433    1.0282   -0.7811 O   0  0  0  0  0  0  0  0  0  0  0  0
    1.9676    0.6614   -0.5719 C   0  0  0  0  0  0  0  0  0  0  0  0
    2.7707    0.7409    0.5872 C   0  0  0  0  0  0  0  0  0  0  0  0
    1.3974    0.3501    0.8683 C   0  0  0  0  0  0  0  0  0  0  0  0
   -3.4865   -0.6243    1.0823 H   0  0  0  0  0  0  0  0  0  0  0  0
   -3.8395    0.8311    0.1352 H   0  0  0  0  0  0  0  0  0  0  0  0
   -2.6871    0.9984    1.4777 H   0  0  0  0  0  0  0  0  0  0  0  0
   -1.0733   -0.9054    1.3914 H   0  0  0  0  0  0  0  0  0  0  0  0
    0.4004   -2.3302   -0.0156 H   0  0  0  0  0  0  0  0  0  0  0  0
   -0.2708   -1.6292   -1.5798 H   0  0  0  0  0  0  0  0  0  0  0  0
    2.1328   -0.2752   -1.1943 H   0  0  0  0  0  0  0  0  0  0  0  0
    3.2245    1.7422    0.8529 H   0  0  0  0  0  0  0  0  0  0  0  0
    3.5350   -0.0594    0.8220 H   0  0  0  0  0  0  0  0  0  0  0  0
    0.8716    1.2247    1.3724 H   0  0  0  0  0  0  0  0  0  0  0  0
  1  2  1  0
  2  3  1  0
  3  4  1  0
  4  5  1  0
  5  6  1  0
  6  7  1  0
  7  8  1  0
  8  9  1  0
  5  3  1  0
  9  7  1  0
  9  5  1  0
  1 10  1  0
  1 11  1  0
  1 12  1  0
  3 13  1  0
  4 14  1  0
  4 15  1  0
  7 16  1  0
  8 17  1  0
  8 18  1  0
  9 19  1  0
M  END
