
     RDKit          3D

 17 17  0  0  0  0  0  0  0  0999 V2000
   -2.5131   -1.3003   -0.1856 C   0  0  0  0  0  0  0  0  0  0  0  0
   -2.1257    0.0553   -0.2551 O   0  0  0  0  0  0  0  0  0  0  0  0
   -0.7753    0.3992   -0.2259 C   0  0  0  0  0  0  0  0  0  0  0  0
    0.2742   -0.4900   -0.1316 C   0  0  0  0  0  0  0  0  0  0  0  0
    1.4326    0.2594   -0.1347 C   0  0  0  0  0  0  0  0  0  0  0  0
    2.8164   -0.3272   -0.0466 C   0  0  0  0  0  0  0  0  0  0  0  0
    1.0997    1.5179   -0.2252 O   0  0  0  0  0  0  0  0  0  0  0  0
   -0.2055    1.6477   -0.2820 C   0  0  0  0  0  0  0  0  0  0  0  0
   -0.9355    2.8243   -0.3823 O   0  0  0  0  0  0  0  0  0  0  0  0
   -1.7198   -1.9357   -0.5874 H   0  0  0  0  0  0  0  0  0  0  0  0
   -3.4607   -1.4320   -0.7474 H   0  0  0  0  0  0  0  0  0  0  0  0
   -2.6288   -1.5568    0.8995 H   0  0  0  0  0  0  0  0  0  0  0  0
    0.2238   -1.5878   -0.0654 H   0  0  0  0  0  0  0  0  0  0  0  0
    2.8578   -1.2589   -0.6687 H   0  0  0  0  0  0  0  0  0  0  0  0
    3.4989    0.4269   -0.4473 H   0  0  0  0  0  0  0  0  0  0  0  0
    3.0210   -0.5891    1.0143 H   0  0  0  0  0  0  0  0  0  0  0  0
   -0.8600    3.3471   -1.2569 H   0  0  0  0  0  0  0  0  0  0  0  0
  1  2  1  0
  2  3  1  0
  3  4  1  0
  4  5  2  0
  5  6  1  0
  5  7  1  0
  7  8  1  0
  8  9  1  0
  8  3  2  0
  1 10  1  0
  1 11  1  0
  1 12  1  0
  4 13  1  0
  6 14  1  0
  6 15  1  0
  6 16  1  0
  9 17  1  0
M  END
