
     RDKit          3D

 21 22  0  0  0  0  0  0  0  0999 V2000
    3.3154   -0.4929   -0.3431 C   0  0  0  0  0  0  0  0  0  0  0  0
    2.3773    0.4221    0.1765 O   0  0  0  0  0  0  0  0  0  0  0  0
    1.1309   -0.1809    0.3260 C   0  0  0  0  0  0  0  0  0  0  0  0
    0.2235    0.2372    1.4232 C   0  0  0  0  0  0  0  0  0  0  0  0
   -0.7220   -0.6335    1.8687 O   0  0  0  0  0  0  0  0  0  0  0  0
   -1.5456   -1.0000    0.8349 C   0  0  0  0  0  0  0  0  0  0  0  0
   -1.3939    0.0188   -0.2630 C   0  0  0  0  0  0  0  0  0  0  0  0
   -2.4345    1.1045   -0.0656 C   0  0  0  0  0  0  0  0  0  0  0  0
   -0.0513    0.6415    0.0335 C   0  0  0  0  0  0  0  0  0  0  0  0
    3.3473   -1.3233    0.4209 H   0  0  0  0  0  0  0  0  0  0  0  0
    3.0282   -0.8535   -1.3395 H   0  0  0  0  0  0  0  0  0  0  0  0
    4.3189   -0.0315   -0.3077 H   0  0  0  0  0  0  0  0  0  0  0  0
    1.0792   -1.2565    0.0199 H   0  0  0  0  0  0  0  0  0  0  0  0
    0.5106    1.0801    2.1115 H   0  0  0  0  0  0  0  0  0  0  0  0
   -2.6130   -1.0746    1.1314 H   0  0  0  0  0  0  0  0  0  0  0  0
   -1.2307   -2.0185    0.4628 H   0  0  0  0  0  0  0  0  0  0  0  0
   -1.4454   -0.4662   -1.2375 H   0  0  0  0  0  0  0  0  0  0  0  0
   -3.3976    0.8712   -0.5219 H   0  0  0  0  0  0  0  0  0  0  0  0
   -2.0371    2.1060   -0.3847 H   0  0  0  0  0  0  0  0  0  0  0  0
   -2.5726    1.1937    1.0515 H   0  0  0  0  0  0  0  0  0  0  0  0
    0.1125    1.6561   -0.3514 H   0  0  0  0  0  0  0  0  0  0  0  0
  1  2  1  0
  2  3  1  0
  3  4  1  0
  4  5  1  0
  5  6  1  0
  6  7  1  0
  7  8  1  0
  7  9  1  0
  9  3  1  0
  9  4  1  0
  1 10  1  0
  1 11  1  0
  1 12  1  0
  3 13  1  0
  4 14  1  0
  6 15  1  0
  6 16  1  0
  7 17  1  0
  8 18  1  0
  8 19  1  0
  8 20  1  0
  9 21  1  0
M  END
