
     RDKit          3D

 25 25  0  0  0  0  0  0  0  0999 V2000
    3.2776    0.4841    1.0072 C   0  0  0  0  0  0  0  0  0  0  0  0
    2.4578    0.4917   -0.1165 O   0  0  0  0  0  0  0  0  0  0  0  0
    1.1408    0.2054    0.1742 C   0  0  0  0  0  0  0  0  0  0  0  0
    0.6817   -1.1134   -0.4415 C   0  0  0  0  0  0  0  0  0  0  0  0
   -0.6849   -1.3836    0.1572 C   0  0  0  0  0  0  0  0  0  0  0  0
   -1.6498   -0.4190   -0.4996 C   0  0  0  0  0  0  0  0  0  0  0  0
   -2.8676   -0.1903    0.3596 C   0  0  0  0  0  0  0  0  0  0  0  0
   -1.0068    0.8395   -0.9662 C   0  0  0  0  0  0  0  0  0  0  0  0
    0.1753    1.2778   -0.1655 C   0  0  0  0  0  0  0  0  0  0  0  0
    4.3046    0.7230    0.6705 H   0  0  0  0  0  0  0  0  0  0  0  0
    2.9448    1.2948    1.6852 H   0  0  0  0  0  0  0  0  0  0  0  0
    3.3232   -0.5049    1.5011 H   0  0  0  0  0  0  0  0  0  0  0  0
    1.0900    0.0377    1.2868 H   0  0  0  0  0  0  0  0  0  0  0  0
    1.3428   -1.9560   -0.0984 H   0  0  0  0  0  0  0  0  0  0  0  0
    0.6572   -1.0381   -1.5374 H   0  0  0  0  0  0  0  0  0  0  0  0
   -0.5976   -1.1772    1.2485 H   0  0  0  0  0  0  0  0  0  0  0  0
   -0.9889   -2.4344    0.0574 H   0  0  0  0  0  0  0  0  0  0  0  0
   -2.0239   -0.9552   -1.4225 H   0  0  0  0  0  0  0  0  0  0  0  0
   -3.5349   -1.0743    0.2470 H   0  0  0  0  0  0  0  0  0  0  0  0
   -3.4311    0.6795   -0.0083 H   0  0  0  0  0  0  0  0  0  0  0  0
   -2.6235   -0.1293    1.4368 H   0  0  0  0  0  0  0  0  0  0  0  0
   -0.6764    0.7562   -2.0366 H   0  0  0  0  0  0  0  0  0  0  0  0
   -1.7429    1.6786   -0.9616 H   0  0  0  0  0  0  0  0  0  0  0  0
    0.6605    2.1189   -0.7405 H   0  0  0  0  0  0  0  0  0  0  0  0
   -0.2279    1.7885    0.7566 H   0  0  0  0  0  0  0  0  0  0  0  0
  1  2  1  0
  2  3  1  0
  3  4  1  0
  4  5  1  0
  5  6  1  0
  6  7  1  0
  6  8  1  0
  8  9  1  0
  9  3  1  0
  1 10  1  0
  1 11  1  0
  1 12  1  0
  3 13  1  0
  4 14  1  0
  4 15  1  0
  5 16  1  0
  5 17  1  0
  6 18  1  0
  7 19  1  0
  7 20  1  0
  7 21  1  0
  8 22  1  0
  8 23  1  0
  9 24  1  0
  9 25  1  0
M  END
