
     RDKit          3D

 21 23  0  0  0  0  0  0  0  0999 V2000
    2.7207   -0.1840   -0.8730 C   0  0  0  0  0  0  0  0  0  0  0  0
    1.3777    0.2553   -0.8493 O   0  0  0  0  0  0  0  0  0  0  0  0
    0.7381   -0.4729    0.1111 C   0  0  0  0  0  0  0  0  0  0  0  0
   -0.0931    0.3801    1.0861 C   0  0  0  0  0  0  0  0  0  0  0  0
   -0.9218   -0.8729    1.2290 C   0  0  0  0  0  0  0  0  0  0  0  0
   -0.6455   -1.0021   -0.2763 C   0  0  0  0  0  0  0  0  0  0  0  0
   -1.2673    0.1883   -0.9032 C   0  0  0  0  0  0  0  0  0  0  0  0
   -2.2212    1.0763   -0.2108 C   0  0  0  0  0  0  0  0  0  0  0  0
   -0.8060    1.2833    0.1247 C   0  0  0  0  0  0  0  0  0  0  0  0
    3.3105    0.3649   -1.6344 H   0  0  0  0  0  0  0  0  0  0  0  0
    2.7558   -1.2840   -1.0144 H   0  0  0  0  0  0  0  0  0  0  0  0
    3.1541    0.0135    0.1306 H   0  0  0  0  0  0  0  0  0  0  0  0
    1.2880   -1.2183    0.6737 H   0  0  0  0  0  0  0  0  0  0  0  0
    0.4112    0.7781    1.9318 H   0  0  0  0  0  0  0  0  0  0  0  0
   -0.3480   -1.6258    1.8091 H   0  0  0  0  0  0  0  0  0  0  0  0
   -1.9603   -0.7649    1.5089 H   0  0  0  0  0  0  0  0  0  0  0  0
   -0.7056   -1.9680   -0.7062 H   0  0  0  0  0  0  0  0  0  0  0  0
   -0.9871    0.3731   -1.9527 H   0  0  0  0  0  0  0  0  0  0  0  0
   -2.6694    1.8689   -0.8796 H   0  0  0  0  0  0  0  0  0  0  0  0
   -2.9429    0.7320    0.5383 H   0  0  0  0  0  0  0  0  0  0  0  0
   -0.1877    2.0791   -0.3292 H   0  0  0  0  0  0  0  0  0  0  0  0
  1  2  1  0
  2  3  1  0
  3  4  1  0
  4  5  1  0
  5  6  1  0
  6  7  1  0
  7  8  1  0
  8  9  1  0
  6  3  1  0
  9  7  1  0
  9  4  1  0
  1 10  1  0
  1 11  1  0
  1 12  1  0
  3 13  1  0
  4 14  1  0
  5 15  1  0
  5 16  1  0
  6 17  1  0
  7 18  1  0
  8 19  1  0
  8 20  1  0
  9 21  1  0
M  END
