
     RDKit          3D

 21 22  0  0  0  0  0  0  0  0999 V2000
    3.1494    0.7854   -0.3356 C   0  0  0  0  0  0  0  0  0  0  0  0
    1.8784    0.7111    0.2109 O   0  0  0  0  0  0  0  0  0  0  0  0
    0.9598    0.0775   -0.5387 C   0  0  0  0  0  0  0  0  0  0  0  0
   -0.2279    0.8693   -0.9155 C   0  0  0  0  0  0  0  0  0  0  0  0
   -1.2788    0.5825   -0.1831 C   0  0  0  0  0  0  0  0  0  0  0  0
   -2.6175    0.4360    0.5132 C   0  0  0  0  0  0  0  0  0  0  0  0
   -2.2017   -1.0551    0.5868 C   0  0  0  0  0  0  0  0  0  0  0  0
   -0.8311   -0.4773    0.8121 C   0  0  0  0  0  0  0  0  0  0  0  0
    0.3312   -1.1442    0.0961 C   0  0  0  0  0  0  0  0  0  0  0  0
    3.8632    1.3054    0.3014 H   0  0  0  0  0  0  0  0  0  0  0  0
    3.5053   -0.2672   -0.4611 H   0  0  0  0  0  0  0  0  0  0  0  0
    3.0412    1.2505   -1.3508 H   0  0  0  0  0  0  0  0  0  0  0  0
    1.4308   -0.2708   -1.4830 H   0  0  0  0  0  0  0  0  0  0  0  0
   -0.2901    1.6327   -1.7145 H   0  0  0  0  0  0  0  0  0  0  0  0
   -3.4775    0.6222   -0.1321 H   0  0  0  0  0  0  0  0  0  0  0  0
   -2.5975    0.8772    1.5088 H   0  0  0  0  0  0  0  0  0  0  0  0
   -2.3231   -1.4947   -0.4005 H   0  0  0  0  0  0  0  0  0  0  0  0
   -2.6463   -1.5844    1.4366 H   0  0  0  0  0  0  0  0  0  0  0  0
   -0.6204   -0.0879    1.8065 H   0  0  0  0  0  0  0  0  0  0  0  0
   -0.0181   -1.8836   -0.6485 H   0  0  0  0  0  0  0  0  0  0  0  0
    0.9706   -1.5792    0.8913 H   0  0  0  0  0  0  0  0  0  0  0  0
  1  2  1  0
  2  3  1  0
  3  4  1  0
  4  5  2  0
  5  6  1  0
  6  7  1  0
  7  8  1  0
  8  9  1  0
  9  3  1  0
  8  5  1  0
  1 10  1  0
  1 11  1  0
  1 12  1  0
  3 13  1  0
  4 14  1  0
  6 15  1  0
  6 16  1  0
  7 17  1  0
  7 18  1  0
  8 19  1  0
  9 20  1  0
  9 21  1  0
M  END
