
     RDKit          3D

 23 23  0  0  0  0  0  0  0  0999 V2000
    3.0346    0.4476   -0.0531 C   0  0  0  0  0  0  0  0  0  0  0  0
    1.7547    0.2135    0.4521 O   0  0  0  0  0  0  0  0  0  0  0  0
    0.8578   -0.1384   -0.5394 C   0  0  0  0  0  0  0  0  0  0  0  0
    0.2959   -1.5069   -0.1535 C   0  0  0  0  0  0  0  0  0  0  0  0
   -0.8651   -1.1976    0.7706 C   0  0  0  0  0  0  0  0  0  0  0  0
   -1.4667    0.0136    0.1381 C   0  0  0  0  0  0  0  0  0  0  0  0
   -2.1422    0.9394    1.1109 C   0  0  0  0  0  0  0  0  0  0  0  0
   -0.3593    0.7465   -0.5732 C   0  0  0  0  0  0  0  0  0  0  0  0
   -0.7281    0.9389   -1.9150 O   0  0  0  0  0  0  0  0  0  0  0  0
    3.4758   -0.4086   -0.5548 H   0  0  0  0  0  0  0  0  0  0  0  0
    3.7107    0.8439    0.7016 H   0  0  0  0  0  0  0  0  0  0  0  0
    2.9065    1.2636   -0.8197 H   0  0  0  0  0  0  0  0  0  0  0  0
    1.3312   -0.1655   -1.5410 H   0  0  0  0  0  0  0  0  0  0  0  0
   -0.0357   -1.9912   -1.0717 H   0  0  0  0  0  0  0  0  0  0  0  0
    1.0418   -2.0951    0.4096 H   0  0  0  0  0  0  0  0  0  0  0  0
   -0.5505   -1.0515    1.8059 H   0  0  0  0  0  0  0  0  0  0  0  0
   -1.5750   -2.0431    0.7308 H   0  0  0  0  0  0  0  0  0  0  0  0
   -2.2387   -0.3207   -0.5859 H   0  0  0  0  0  0  0  0  0  0  0  0
   -2.8338    0.4379    1.7871 H   0  0  0  0  0  0  0  0  0  0  0  0
   -1.4414    1.5383    1.7039 H   0  0  0  0  0  0  0  0  0  0  0  0
   -2.7280    1.6740    0.4927 H   0  0  0  0  0  0  0  0  0  0  0  0
   -0.1938    1.7317   -0.1235 H   0  0  0  0  0  0  0  0  0  0  0  0
   -1.2508    0.1295   -2.1727 H   0  0  0  0  0  0  0  0  0  0  0  0
  1  2  1  0
  2  3  1  0
  3  4  1  0
  4  5  1  0
  5  6  1  0
  6  7  1  0
  6  8  1  0
  8  9  1  0
  8  3  1  0
  1 10  1  0
  1 11  1  0
  1 12  1  0
  3 13  1  0
  4 14  1  0
  4 15  1  0
  5 16  1  0
  5 17  1  0
  6 18  1  0
  7 19  1  0
  7 20  1  0
  7 21  1  0
  8 22  1  0
  9 23  1  0
M  END
