
     RDKit          3D

 16 17  0  0  0  0  0  0  0  0999 V2000
    2.3102    1.3642   -0.4171 C   0  0  0  0  0  0  0  0  0  0  0  0
    1.7076    0.1429   -0.2522 O   0  0  0  0  0  0  0  0  0  0  0  0
    0.3769    0.1688    0.0268 C   0  0  0  0  0  0  0  0  0  0  0  0
   -0.3482   -0.8505    0.7769 C   0  0  0  0  0  0  0  0  0  0  0  0
   -1.8422   -0.6057    0.9346 C   0  0  0  0  0  0  0  0  0  0  0  0
   -1.9722   -0.7603   -0.5177 C   0  0  0  0  0  0  0  0  0  0  0  0
   -2.9408   -0.8612   -1.2501 O   0  0  0  0  0  0  0  0  0  0  0  0
   -0.5304   -0.7499   -0.7699 C   0  0  0  0  0  0  0  0  0  0  0  0
    2.2517    2.0297    0.4652 H   0  0  0  0  0  0  0  0  0  0  0  0
    3.4114    1.1639   -0.5612 H   0  0  0  0  0  0  0  0  0  0  0  0
    1.9643    1.9203   -1.2997 H   0  0  0  0  0  0  0  0  0  0  0  0
   -0.0532    1.2125    0.0845 H   0  0  0  0  0  0  0  0  0  0  0  0
    0.0402   -1.8129    1.0846 H   0  0  0  0  0  0  0  0  0  0  0  0
   -1.9765    0.4365    1.3277 H   0  0  0  0  0  0  0  0  0  0  0  0
   -2.3715   -1.3071    1.5798 H   0  0  0  0  0  0  0  0  0  0  0  0
   -0.0271   -1.4913   -1.3825 H   0  0  0  0  0  0  0  0  0  0  0  0
  1  2  1  0
  2  3  1  0
  3  4  1  0
  4  5  1  0
  5  6  1  0
  6  7  2  0
  6  8  1  0
  8  3  1  0
  8  4  1  0
  1  9  1  0
  1 10  1  0
  1 11  1  0
  3 12  1  0
  4 13  1  0
  5 14  1  0
  5 15  1  0
  8 16  1  0
M  END
