
     RDKit          3D

 21 22  0  0  0  0  0  0  0  0999 V2000
    2.7198    0.6449    0.5279 C   0  0  0  0  0  0  0  0  0  0  0  0
    1.3574    0.3435    0.5414 O   0  0  0  0  0  0  0  0  0  0  0  0
    0.9507   -0.0893   -0.7156 C   0  0  0  0  0  0  0  0  0  0  0  0
    0.3368   -1.4804   -0.5107 C   0  0  0  0  0  0  0  0  0  0  0  0
   -0.9115   -1.0655    0.2793 C   0  0  0  0  0  0  0  0  0  0  0  0
   -2.1310   -0.8112   -0.5224 C   0  0  0  0  0  0  0  0  0  0  0  0
   -1.1123    0.3198   -0.1815 C   0  0  0  0  0  0  0  0  0  0  0  0
   -1.6006    1.4129    0.6977 C   0  0  0  0  0  0  0  0  0  0  0  0
   -0.1754    0.6149   -1.1613 O   0  0  0  0  0  0  0  0  0  0  0  0
    2.8378    1.4613   -0.2430 H   0  0  0  0  0  0  0  0  0  0  0  0
    3.3102   -0.2376    0.2251 H   0  0  0  0  0  0  0  0  0  0  0  0
    3.0500    1.1013    1.4782 H   0  0  0  0  0  0  0  0  0  0  0  0
    1.7667   -0.1053   -1.4463 H   0  0  0  0  0  0  0  0  0  0  0  0
    0.0436   -1.8833   -1.4859 H   0  0  0  0  0  0  0  0  0  0  0  0
    0.9892   -2.1303    0.0715 H   0  0  0  0  0  0  0  0  0  0  0  0
   -0.9741   -1.3727    1.3224 H   0  0  0  0  0  0  0  0  0  0  0  0
   -2.1392   -1.1562   -1.5695 H   0  0  0  0  0  0  0  0  0  0  0  0
   -3.0785   -0.7829    0.0565 H   0  0  0  0  0  0  0  0  0  0  0  0
   -1.2688    1.3613    1.7360 H   0  0  0  0  0  0  0  0  0  0  0  0
   -1.2494    2.4062    0.2935 H   0  0  0  0  0  0  0  0  0  0  0  0
   -2.7213    1.4486    0.6068 H   0  0  0  0  0  0  0  0  0  0  0  0
  1  2  1  0
  2  3  1  0
  3  4  1  0
  4  5  1  0
  5  6  1  0
  6  7  1  0
  7  8  1  0
  7  9  1  0
  9  3  1  0
  7  5  1  0
  1 10  1  0
  1 11  1  0
  1 12  1  0
  3 13  1  0
  4 14  1  0
  4 15  1  0
  5 16  1  0
  6 17  1  0
  6 18  1  0
  8 19  1  0
  8 20  1  0
  8 21  1  0
M  END
