
     RDKit          3D

 20 21  0  0  0  0  0  0  0  0999 V2000
    2.7485    0.3609   -0.0604 C   0  0  0  0  0  0  0  0  0  0  0  0
    1.8932   -0.6186   -0.4966 O   0  0  0  0  0  0  0  0  0  0  0  0
    0.6816   -0.4052   -0.2785 C   0  0  0  0  0  0  0  0  0  0  0  0
   -0.1602    0.7485   -0.7701 C   0  0  0  0  0  0  0  0  0  0  0  0
   -1.1189   -0.0616    0.0728 C   0  0  0  0  0  0  0  0  0  0  0  0
   -2.4377    0.1738    0.3078 C   0  0  0  0  0  0  0  0  0  0  0  0
   -0.4962   -1.2664   -0.6039 C   0  0  0  0  0  0  0  0  0  0  0  0
    0.0110   -0.1784    1.0591 C   0  0  0  0  0  0  0  0  0  0  0  0
    3.8145    0.1244   -0.2778 H   0  0  0  0  0  0  0  0  0  0  0  0
    2.5844    0.4728    1.0460 H   0  0  0  0  0  0  0  0  0  0  0  0
    2.5021    1.3661   -0.4851 H   0  0  0  0  0  0  0  0  0  0  0  0
    0.0923    1.7397   -0.3596 H   0  0  0  0  0  0  0  0  0  0  0  0
   -0.3093    0.6708   -1.8510 H   0  0  0  0  0  0  0  0  0  0  0  0
   -3.1086   -0.7350    0.2631 H   0  0  0  0  0  0  0  0  0  0  0  0
   -2.9381    0.8902   -0.4101 H   0  0  0  0  0  0  0  0  0  0  0  0
   -2.6806    0.6176    1.3170 H   0  0  0  0  0  0  0  0  0  0  0  0
   -0.6193   -2.1929   -0.0373 H   0  0  0  0  0  0  0  0  0  0  0  0
   -0.6934   -1.3043   -1.6882 H   0  0  0  0  0  0  0  0  0  0  0  0
    0.3017    0.7164    1.6001 H   0  0  0  0  0  0  0  0  0  0  0  0
   -0.0671   -1.1187    1.6529 H   0  0  0  0  0  0  0  0  0  0  0  0
  1  2  1  0
  2  3  1  0
  3  4  1  0
  4  5  1  0
  5  6  1  0
  5  7  1  0
  5  8  1  0
  7  3  1  0
  8  3  1  0
  1  9  1  0
  1 10  1  0
  1 11  1  0
  4 12  1  0
  4 13  1  0
  6 14  1  0
  6 15  1  0
  6 16  1  0
  7 17  1  0
  7 18  1  0
  8 19  1  0
  8 20  1  0
M  END
