
     RDKit          3D

 19 20  0  0  0  0  0  0  0  0999 V2000
    2.7002   -0.1571    0.0938 C   0  0  0  0  0  0  0  0  0  0  0  0
    1.4852    0.3409    0.5514 O   0  0  0  0  0  0  0  0  0  0  0  0
    0.4429    0.0482   -0.3440 C   0  0  0  0  0  0  0  0  0  0  0  0
   -0.1443    1.3494   -0.7341 C   0  0  0  0  0  0  0  0  0  0  0  0
   -1.1973    1.6116    0.0152 C   0  0  0  0  0  0  0  0  0  0  0  0
   -1.4181    0.4858    0.9978 C   0  0  0  0  0  0  0  0  0  0  0  0
   -0.6983   -0.6315    0.3079 C   0  0  0  0  0  0  0  0  0  0  0  0
   -1.5331   -1.6397   -0.3590 C   0  0  0  0  0  0  0  0  0  0  0  0
   -0.6951   -1.9053    0.7469 O   0  0  0  0  0  0  0  0  0  0  0  0
    3.4598    0.1165    0.8542 H   0  0  0  0  0  0  0  0  0  0  0  0
    2.6588   -1.2694   -0.0586 H   0  0  0  0  0  0  0  0  0  0  0  0
    2.9844    0.2666   -0.8982 H   0  0  0  0  0  0  0  0  0  0  0  0
    0.8285   -0.5202   -1.2231 H   0  0  0  0  0  0  0  0  0  0  0  0
    0.2296    1.9881   -1.5120 H   0  0  0  0  0  0  0  0  0  0  0  0
   -1.8139    2.5034   -0.0623 H   0  0  0  0  0  0  0  0  0  0  0  0
   -2.5114    0.3206    1.0907 H   0  0  0  0  0  0  0  0  0  0  0  0
   -0.9453    0.7748    1.9626 H   0  0  0  0  0  0  0  0  0  0  0  0
   -1.2140   -1.9666   -1.3573 H   0  0  0  0  0  0  0  0  0  0  0  0
   -2.6187   -1.7162   -0.0717 H   0  0  0  0  0  0  0  0  0  0  0  0
  1  2  1  0
  2  3  1  0
  3  4  1  0
  4  5  2  0
  5  6  1  0
  6  7  1  0
  7  8  1  0
  8  9  1  0
  7  3  1  0
  9  7  1  0
  1 10  1  0
  1 11  1  0
  1 12  1  0
  3 13  1  0
  4 14  1  0
  5 15  1  0
  6 16  1  0
  6 17  1  0
  8 18  1  0
  8 19  1  0
M  END
