
     RDKit          3D

 19 20  0  0  0  0  0  0  0  0999 V2000
    2.4624   -0.0042    0.0871 C   0  0  0  0  0  0  0  0  0  0  0  0
    1.2651    0.4172    0.7168 O   0  0  0  0  0  0  0  0  0  0  0  0
    0.2542    0.1280   -0.1660 C   0  0  0  0  0  0  0  0  0  0  0  0
    0.0936   -1.2932   -0.5450 C   0  0  0  0  0  0  0  0  0  0  0  0
   -1.4076   -1.0962   -0.6211 C   0  0  0  0  0  0  0  0  0  0  0  0
   -1.1657    0.2024    0.1387 C   0  0  0  0  0  0  0  0  0  0  0  0
   -1.6754    0.3826    1.3845 O   0  0  0  0  0  0  0  0  0  0  0  0
   -0.5426    1.2487   -0.6782 C   0  0  0  0  0  0  0  0  0  0  0  0
   -0.3494    2.4763   -0.0839 O   0  0  0  0  0  0  0  0  0  0  0  0
    3.3411    0.1830    0.7137 H   0  0  0  0  0  0  0  0  0  0  0  0
    2.3095   -1.0926   -0.1050 H   0  0  0  0  0  0  0  0  0  0  0  0
    2.5495    0.4726   -0.9256 H   0  0  0  0  0  0  0  0  0  0  0  0
    0.5856   -1.6148   -1.4665 H   0  0  0  0  0  0  0  0  0  0  0  0
    0.3115   -1.9580    0.3403 H   0  0  0  0  0  0  0  0  0  0  0  0
   -2.0117   -1.8214   -0.0629 H   0  0  0  0  0  0  0  0  0  0  0  0
   -1.6876   -0.9387   -1.6871 H   0  0  0  0  0  0  0  0  0  0  0  0
   -2.6707    0.4680    1.3125 H   0  0  0  0  0  0  0  0  0  0  0  0
   -0.8505    1.3211   -1.7531 H   0  0  0  0  0  0  0  0  0  0  0  0
   -0.8114    2.5193    0.7928 H   0  0  0  0  0  0  0  0  0  0  0  0
  1  2  1  0
  2  3  1  0
  3  4  1  0
  4  5  1  0
  5  6  1  0
  6  7  1  0
  6  8  1  0
  8  9  1  0
  6  3  1  0
  8  3  1  0
  1 10  1  0
  1 11  1  0
  1 12  1  0
  4 13  1  0
  4 14  1  0
  5 15  1  0
  5 16  1  0
  7 17  1  0
  8 18  1  0
  9 19  1  0
M  END
