
     RDKit          3D

 17 18  0  0  0  0  0  0  0  0999 V2000
    2.6194    0.1098   -0.0272 C   0  0  0  0  0  0  0  0  0  0  0  0
    1.3577    0.5476    0.3917 O   0  0  0  0  0  0  0  0  0  0  0  0
    0.4413   -0.4712    0.4469 C   0  0  0  0  0  0  0  0  0  0  0  0
   -0.6644   -0.4270    1.4199 C   0  0  0  0  0  0  0  0  0  0  0  0
   -1.7368   -1.3417    1.2789 O   0  0  0  0  0  0  0  0  0  0  0  0
   -1.8690   -1.2696   -0.0894 C   0  0  0  0  0  0  0  0  0  0  0  0
   -2.5306   -1.8746   -0.9409 O   0  0  0  0  0  0  0  0  0  0  0  0
   -0.8979   -0.1779   -0.1063 C   0  0  0  0  0  0  0  0  0  0  0  0
   -1.3289    1.2281   -0.4221 C   0  0  0  0  0  0  0  0  0  0  0  0
    2.9554   -0.6521    0.7136 H   0  0  0  0  0  0  0  0  0  0  0  0
    3.2965    0.9654    0.0088 H   0  0  0  0  0  0  0  0  0  0  0  0
    2.6031   -0.2786   -1.0593 H   0  0  0  0  0  0  0  0  0  0  0  0
    0.8625   -1.4740    0.1475 H   0  0  0  0  0  0  0  0  0  0  0  0
   -0.7386    0.4387    2.0783 H   0  0  0  0  0  0  0  0  0  0  0  0
   -1.1326    1.4739   -1.4874 H   0  0  0  0  0  0  0  0  0  0  0  0
   -0.8121    1.9231    0.2784 H   0  0  0  0  0  0  0  0  0  0  0  0
   -2.4251    1.2802   -0.2343 H   0  0  0  0  0  0  0  0  0  0  0  0
  1  2  1  0
  2  3  1  0
  3  4  1  0
  4  5  1  0
  5  6  1  0
  6  7  2  0
  6  8  1  0
  8  9  1  0
  8  3  1  0
  8  4  1  0
  1 10  1  0
  1 11  1  0
  1 12  1  0
  3 13  1  0
  4 14  1  0
  9 15  1  0
  9 16  1  0
  9 17  1  0
M  END
