
     RDKit          3D

 17 17  0  0  0  0  0  0  0  0999 V2000
    2.0153   -0.0189    0.9088 C   0  0  0  0  0  0  0  0  0  0  0  0
    0.7406    0.5029    0.7765 O   0  0  0  0  0  0  0  0  0  0  0  0
   -0.0940   -0.3044    0.0071 C   0  0  0  0  0  0  0  0  0  0  0  0
   -0.3249   -1.6526    0.5288 C   0  0  0  0  0  0  0  0  0  0  0  0
   -0.1205   -1.8762    1.6990 O   0  0  0  0  0  0  0  0  0  0  0  0
   -0.1593    0.0351   -1.4223 C   0  0  0  0  0  0  0  0  0  0  0  0
   -1.3423    0.3523   -0.5919 C   0  0  0  0  0  0  0  0  0  0  0  0
   -1.6246    1.6973   -0.1001 C   0  0  0  0  0  0  0  0  0  0  0  0
   -2.7492    2.1057    0.1124 O   0  0  0  0  0  0  0  0  0  0  0  0
    2.5128   -0.1380   -0.0943 H   0  0  0  0  0  0  0  0  0  0  0  0
    2.0142   -1.0352    1.3396 H   0  0  0  0  0  0  0  0  0  0  0  0
    2.5959    0.6680    1.5589 H   0  0  0  0  0  0  0  0  0  0  0  0
   -0.6715   -2.4480   -0.1057 H   0  0  0  0  0  0  0  0  0  0  0  0
    0.5093    0.8232   -1.8045 H   0  0  0  0  0  0  0  0  0  0  0  0
   -0.2585   -0.8166   -2.1458 H   0  0  0  0  0  0  0  0  0  0  0  0
   -2.2381   -0.2735   -0.7573 H   0  0  0  0  0  0  0  0  0  0  0  0
   -0.8053    2.3788    0.0908 H   0  0  0  0  0  0  0  0  0  0  0  0
  1  2  1  0
  2  3  1  0
  3  4  1  0
  4  5  2  0
  3  6  1  0
  6  7  1  0
  7  8  1  0
  8  9  2  0
  7  3  1  0
  1 10  1  0
  1 11  1  0
  1 12  1  0
  4 13  1  0
  6 14  1  0
  6 15  1  0
  7 16  1  0
  8 17  1  0
M  END
