
     RDKit          3D

 23 23  0  0  0  0  0  0  0  0999 V2000
    2.1193   -1.4743    0.4142 C   0  0  0  0  0  0  0  0  0  0  0  0
    1.1579   -1.1682   -0.5131 O   0  0  0  0  0  0  0  0  0  0  0  0
    0.5149    0.0377   -0.2999 C   0  0  0  0  0  0  0  0  0  0  0  0
    1.4319    1.2479   -0.2853 C   0  0  0  0  0  0  0  0  0  0  0  0
   -0.7900    0.1757   -0.9962 C   0  0  0  0  0  0  0  0  0  0  0  0
   -1.2761    1.5180   -1.4711 C   0  0  0  0  0  0  0  0  0  0  0  0
   -0.7152    0.0253    0.5047 C   0  0  0  0  0  0  0  0  0  0  0  0
   -1.2881   -1.2652    1.0451 C   0  0  0  0  0  0  0  0  0  0  0  0
   -2.4517   -0.9748    1.7631 O   0  0  0  0  0  0  0  0  0  0  0  0
    1.7687   -1.5508    1.4402 H   0  0  0  0  0  0  0  0  0  0  0  0
    3.0009   -0.7717    0.3234 H   0  0  0  0  0  0  0  0  0  0  0  0
    2.5567   -2.4753    0.1559 H   0  0  0  0  0  0  0  0  0  0  0  0
    1.7166    1.5548    0.7307 H   0  0  0  0  0  0  0  0  0  0  0  0
    2.3069    1.0222   -0.9351 H   0  0  0  0  0  0  0  0  0  0  0  0
    0.8837    2.1071   -0.7404 H   0  0  0  0  0  0  0  0  0  0  0  0
   -1.1661   -0.6668   -1.6060 H   0  0  0  0  0  0  0  0  0  0  0  0
   -0.8357    1.8265   -2.4399 H   0  0  0  0  0  0  0  0  0  0  0  0
   -2.3787    1.4167   -1.6609 H   0  0  0  0  0  0  0  0  0  0  0  0
   -1.1817    2.3012   -0.6984 H   0  0  0  0  0  0  0  0  0  0  0  0
   -0.9963    0.9282    1.1293 H   0  0  0  0  0  0  0  0  0  0  0  0
   -0.5804   -1.7839    1.7439 H   0  0  0  0  0  0  0  0  0  0  0  0
   -1.5036   -1.9233    0.1877 H   0  0  0  0  0  0  0  0  0  0  0  0
   -2.2939   -0.1070    2.2079 H   0  0  0  0  0  0  0  0  0  0  0  0
  1  2  1  0
  2  3  1  0
  3  4  1  0
  3  5  1  0
  5  6  1  0
  5  7  1  0
  7  8  1  0
  8  9  1  0
  7  3  1  0
  1 10  1  0
  1 11  1  0
  1 12  1  0
  4 13  1  0
  4 14  1  0
  4 15  1  0
  5 16  1  0
  6 17  1  0
  6 18  1  0
  6 19  1  0
  7 20  1  0
  8 21  1  0
  8 22  1  0
  9 23  1  0
M  END
