
     RDKit          3D

 21 22  0  0  0  0  0  0  0  0999 V2000
    2.3317   -0.3681   -0.5476 C   0  0  0  0  0  0  0  0  0  0  0  0
    0.9769   -0.2691   -0.8424 O   0  0  0  0  0  0  0  0  0  0  0  0
    0.3224    0.0341    0.3632 C   0  0  0  0  0  0  0  0  0  0  0  0
    0.5308   -1.0092    1.3049 C   0  0  0  0  0  0  0  0  0  0  0  0
   -0.8062   -0.9654    0.8504 C   0  0  0  0  0  0  0  0  0  0  0  0
   -1.7080   -0.3961    1.7938 O   0  0  0  0  0  0  0  0  0  0  0  0
   -1.3499   -0.6320   -0.5172 C   0  0  0  0  0  0  0  0  0  0  0  0
   -0.9295    0.7751   -0.0271 C   0  0  0  0  0  0  0  0  0  0  0  0
   -0.8323    1.6593   -1.2288 C   0  0  0  0  0  0  0  0  0  0  0  0
    2.6347    0.6340   -0.1341 H   0  0  0  0  0  0  0  0  0  0  0  0
    2.6088   -1.1170    0.1864 H   0  0  0  0  0  0  0  0  0  0  0  0
    2.9341   -0.5004   -1.4946 H   0  0  0  0  0  0  0  0  0  0  0  0
    0.7989   -0.6896    2.3551 H   0  0  0  0  0  0  0  0  0  0  0  0
    1.0572   -1.9966    1.1143 H   0  0  0  0  0  0  0  0  0  0  0  0
   -1.3762   -0.4665    2.7026 H   0  0  0  0  0  0  0  0  0  0  0  0
   -2.4276   -0.6764   -0.6211 H   0  0  0  0  0  0  0  0  0  0  0  0
   -0.7374   -0.9578   -1.3565 H   0  0  0  0  0  0  0  0  0  0  0  0
   -1.5267    1.1943    0.7678 H   0  0  0  0  0  0  0  0  0  0  0  0
   -0.8880    1.1271   -2.1965 H   0  0  0  0  0  0  0  0  0  0  0  0
    0.0931    2.2671   -1.2598 H   0  0  0  0  0  0  0  0  0  0  0  0
   -1.7067    2.3532   -1.2130 H   0  0  0  0  0  0  0  0  0  0  0  0
  1  2  1  0
  2  3  1  0
  3  4  1  0
  4  5  1  0
  5  6  1  0
  5  7  1  0
  7  8  1  0
  8  9  1  0
  5  3  1  0
  8  3  1  0
  1 10  1  0
  1 11  1  0
  1 12  1  0
  4 13  1  0
  4 14  1  0
  6 15  1  0
  7 16  1  0
  7 17  1  0
  8 18  1  0
  9 19  1  0
  9 20  1  0
  9 21  1  0
M  END
