
     RDKit          3D

 23 23  0  0  0  0  0  0  0  0999 V2000
    2.8794    1.4275    0.6049 C   0  0  0  0  0  0  0  0  0  0  0  0
    2.1611    0.2938    0.9656 O   0  0  0  0  0  0  0  0  0  0  0  0
    1.2389    0.0195   -0.0122 C   0  0  0  0  0  0  0  0  0  0  0  0
    1.1320   -1.4605   -0.3384 C   0  0  0  0  0  0  0  0  0  0  0  0
   -0.0222   -0.6894    0.3161 C   0  0  0  0  0  0  0  0  0  0  0  0
   -1.2414   -0.5543   -0.5067 C   0  0  0  0  0  0  0  0  0  0  0  0
   -2.3358   -1.4261    0.1204 C   0  0  0  0  0  0  0  0  0  0  0  0
   -1.7433    0.8485   -0.7193 C   0  0  0  0  0  0  0  0  0  0  0  0
   -0.8174    1.6599   -1.3560 O   0  0  0  0  0  0  0  0  0  0  0  0
    3.4167    1.2919   -0.3552 H   0  0  0  0  0  0  0  0  0  0  0  0
    2.2049    2.3205    0.5062 H   0  0  0  0  0  0  0  0  0  0  0  0
    3.6037    1.7058    1.4116 H   0  0  0  0  0  0  0  0  0  0  0  0
    1.2408    0.7264   -0.8717 H   0  0  0  0  0  0  0  0  0  0  0  0
    1.0730   -1.6848   -1.4006 H   0  0  0  0  0  0  0  0  0  0  0  0
    1.6922   -2.1881    0.2829 H   0  0  0  0  0  0  0  0  0  0  0  0
   -0.1986   -1.0130    1.3818 H   0  0  0  0  0  0  0  0  0  0  0  0
   -1.0590   -0.9747   -1.5166 H   0  0  0  0  0  0  0  0  0  0  0  0
   -2.3748   -2.4099   -0.3792 H   0  0  0  0  0  0  0  0  0  0  0  0
   -2.0799   -1.6522    1.1956 H   0  0  0  0  0  0  0  0  0  0  0  0
   -3.3091   -0.9178    0.0943 H   0  0  0  0  0  0  0  0  0  0  0  0
   -2.6271    0.7852   -1.3871 H   0  0  0  0  0  0  0  0  0  0  0  0
   -2.0707    1.3353    0.2191 H   0  0  0  0  0  0  0  0  0  0  0  0
   -0.7634    2.5563   -0.9252 H   0  0  0  0  0  0  0  0  0  0  0  0
  1  2  1  0
  2  3  1  0
  3  4  1  0
  4  5  1  0
  5  6  1  0
  6  7  1  0
  6  8  1  0
  8  9  1  0
  5  3  1  0
  1 10  1  0
  1 11  1  0
  1 12  1  0
  3 13  1  0
  4 14  1  0
  4 15  1  0
  5 16  1  0
  6 17  1  0
  7 18  1  0
  7 19  1  0
  7 20  1  0
  8 21  1  0
  8 22  1  0
  9 23  1  0
M  END
