
     RDKit          3D

 25 25  0  0  0  0  0  0  0  0999 V2000
    2.3772    0.4950   -0.3163 C   0  0  0  0  0  0  0  0  0  0  0  0
    1.0294    0.3023   -0.5417 O   0  0  0  0  0  0  0  0  0  0  0  0
    0.3149   -0.0467    0.5716 C   0  0  0  0  0  0  0  0  0  0  0  0
   -0.4789   -1.3068    0.2398 C   0  0  0  0  0  0  0  0  0  0  0  0
    0.3771   -2.4802   -0.0538 C   0  0  0  0  0  0  0  0  0  0  0  0
   -1.2258   -0.7793   -0.9775 C   0  0  0  0  0  0  0  0  0  0  0  0
   -1.7305    0.5481   -0.4709 C   0  0  0  0  0  0  0  0  0  0  0  0
   -0.8474    0.9383    0.6940 C   0  0  0  0  0  0  0  0  0  0  0  0
   -0.3550    2.3558    0.5984 C   0  0  0  0  0  0  0  0  0  0  0  0
    2.8551    0.7720   -1.2786 H   0  0  0  0  0  0  0  0  0  0  0  0
    2.8158   -0.4342    0.0447 H   0  0  0  0  0  0  0  0  0  0  0  0
    2.5085    1.3567    0.3599 H   0  0  0  0  0  0  0  0  0  0  0  0
    0.8847   -0.1315    1.4965 H   0  0  0  0  0  0  0  0  0  0  0  0
   -1.2580   -1.4899    1.0193 H   0  0  0  0  0  0  0  0  0  0  0  0
    1.4135   -2.3627    0.3170 H   0  0  0  0  0  0  0  0  0  0  0  0
   -0.0398   -3.3580    0.5104 H   0  0  0  0  0  0  0  0  0  0  0  0
    0.3411   -2.7961   -1.1263 H   0  0  0  0  0  0  0  0  0  0  0  0
   -0.4732   -0.5504   -1.7662 H   0  0  0  0  0  0  0  0  0  0  0  0
   -2.0135   -1.4528   -1.3219 H   0  0  0  0  0  0  0  0  0  0  0  0
   -1.7037    1.3266   -1.2524 H   0  0  0  0  0  0  0  0  0  0  0  0
   -2.7846    0.3735   -0.1234 H   0  0  0  0  0  0  0  0  0  0  0  0
   -1.3907    0.7501    1.6525 H   0  0  0  0  0  0  0  0  0  0  0  0
    0.1675    2.4571   -0.3737 H   0  0  0  0  0  0  0  0  0  0  0  0
   -1.2095    3.0271    0.7194 H   0  0  0  0  0  0  0  0  0  0  0  0
    0.4257    2.4861    1.3794 H   0  0  0  0  0  0  0  0  0  0  0  0
  1  2  1  0
  2  3  1  0
  3  4  1  0
  4  5  1  0
  4  6  1  0
  6  7  1  0
  7  8  1  0
  8  9  1  0
  8  3  1  0
  1 10  1  0
  1 11  1  0
  1 12  1  0
  3 13  1  0
  4 14  1  0
  5 15  1  0
  5 16  1  0
  5 17  1  0
  6 18  1  0
  6 19  1  0
  7 20  1  0
  7 21  1  0
  8 22  1  0
  9 23  1  0
  9 24  1  0
  9 25  1  0
M  END
