
     RDKit          3D

 19 20  0  0  0  0  0  0  0  0999 V2000
    2.6371   -1.0690    0.0480 C   0  0  0  0  0  0  0  0  0  0  0  0
    1.2488   -1.0717    0.1481 O   0  0  0  0  0  0  0  0  0  0  0  0
    0.7410    0.2048   -0.0879 C   0  0  0  0  0  0  0  0  0  0  0  0
   -0.4203    0.6630    0.7050 C   0  0  0  0  0  0  0  0  0  0  0  0
   -0.5017    1.9945    1.0579 O   0  0  0  0  0  0  0  0  0  0  0  0
   -1.6425   -0.1505    0.9179 C   0  0  0  0  0  0  0  0  0  0  0  0
   -1.5492   -0.7892   -0.4635 C   0  0  0  0  0  0  0  0  0  0  0  0
   -0.5419    0.3063   -0.7933 C   0  0  0  0  0  0  0  0  0  0  0  0
   -0.9363    1.3443   -1.5694 O   0  0  0  0  0  0  0  0  0  0  0  0
    2.9692   -0.7437   -0.9776 H   0  0  0  0  0  0  0  0  0  0  0  0
    3.0117   -2.0851    0.2695 H   0  0  0  0  0  0  0  0  0  0  0  0
    3.1064   -0.3829    0.7891 H   0  0  0  0  0  0  0  0  0  0  0  0
    1.5000    0.9547   -0.3026 H   0  0  0  0  0  0  0  0  0  0  0  0
   -1.1991    2.4075    0.4912 H   0  0  0  0  0  0  0  0  0  0  0  0
   -2.5705    0.4846    0.9409 H   0  0  0  0  0  0  0  0  0  0  0  0
   -1.6475   -0.8820    1.7364 H   0  0  0  0  0  0  0  0  0  0  0  0
   -1.0459   -1.7807   -0.4293 H   0  0  0  0  0  0  0  0  0  0  0  0
   -2.4777   -0.7407   -1.0591 H   0  0  0  0  0  0  0  0  0  0  0  0
   -0.6818    1.3358   -2.5009 H   0  0  0  0  0  0  0  0  0  0  0  0
  1  2  1  0
  2  3  1  0
  3  4  1  0
  4  5  1  0
  4  6  1  0
  6  7  1  0
  7  8  1  0
  8  9  1  0
  8  3  1  0
  8  4  1  0
  1 10  1  0
  1 11  1  0
  1 12  1  0
  3 13  1  0
  5 14  1  0
  6 15  1  0
  6 16  1  0
  7 17  1  0
  7 18  1  0
  9 19  1  0
M  END
