
     RDKit          3D

 18 18  0  0  0  0  0  0  0  0999 V2000
   -2.5545    0.0712   -0.3635 C   0  0  0  0  0  0  0  0  0  0  0  0
   -1.4866    0.2115    0.5085 O   0  0  0  0  0  0  0  0  0  0  0  0
   -0.2579    0.0288   -0.1126 C   0  0  0  0  0  0  0  0  0  0  0  0
    0.4000   -1.1572    0.5467 C   0  0  0  0  0  0  0  0  0  0  0  0
    1.7481   -0.9228    0.8269 O   0  0  0  0  0  0  0  0  0  0  0  0
    2.3396   -0.1355   -0.1364 C   0  0  0  0  0  0  0  0  0  0  0  0
    1.8798    1.1524   -0.0915 O   0  0  0  0  0  0  0  0  0  0  0  0
    0.5354    1.2991    0.0860 C   0  0  0  0  0  0  0  0  0  0  0  0
   -2.5254    0.7988   -1.2015 H   0  0  0  0  0  0  0  0  0  0  0  0
   -2.6500   -0.9749   -0.6861 H   0  0  0  0  0  0  0  0  0  0  0  0
   -3.4746    0.3102    0.2239 H   0  0  0  0  0  0  0  0  0  0  0  0
   -0.3709   -0.1988   -1.2091 H   0  0  0  0  0  0  0  0  0  0  0  0
    0.3673   -2.0718   -0.0803 H   0  0  0  0  0  0  0  0  0  0  0  0
   -0.0866   -1.4320    1.5145 H   0  0  0  0  0  0  0  0  0  0  0  0
    3.4372   -0.1234    0.0783 H   0  0  0  0  0  0  0  0  0  0  0  0
    2.2126   -0.5454   -1.1737 H   0  0  0  0  0  0  0  0  0  0  0  0
    0.3144    1.6679    1.1070 H   0  0  0  0  0  0  0  0  0  0  0  0
    0.1721    2.0219   -0.7008 H   0  0  0  0  0  0  0  0  0  0  0  0
  1  2  1  0
  2  3  1  0
  3  4  1  0
  4  5  1  0
  5  6  1  0
  6  7  1  0
  7  8  1  0
  8  3  1  0
  1  9  1  0
  1 10  1  0
  1 11  1  0
  3 12  1  0
  4 13  1  0
  4 14  1  0
  6 15  1  0
  6 16  1  0
  8 17  1  0
  8 18  1  0
M  END
