
     RDKit          3D

 16 17  0  0  0  0  0  0  0  0999 V2000
    2.4632    0.1842    0.0308 C   0  0  0  0  0  0  0  0  0  0  0  0
    1.2498   -0.4905   -0.0057 O   0  0  0  0  0  0  0  0  0  0  0  0
    0.1553    0.3291    0.1210 C   0  0  0  0  0  0  0  0  0  0  0  0
   -0.9113   -0.2237    1.0138 C   0  0  0  0  0  0  0  0  0  0  0  0
   -1.9010    0.5199    0.1538 C   0  0  0  0  0  0  0  0  0  0  0  0
   -0.9467   -0.1022   -0.8125 C   0  0  0  0  0  0  0  0  0  0  0  0
   -1.0366   -1.3153    0.0295 C   0  0  0  0  0  0  0  0  0  0  0  0
   -1.1482   -2.5156   -0.0251 O   0  0  0  0  0  0  0  0  0  0  0  0
    2.5683    0.9361   -0.7777 H   0  0  0  0  0  0  0  0  0  0  0  0
    2.5708    0.6177    1.0465 H   0  0  0  0  0  0  0  0  0  0  0  0
    3.2597   -0.5937   -0.0827 H   0  0  0  0  0  0  0  0  0  0  0  0
    0.3186    1.4003    0.2355 H   0  0  0  0  0  0  0  0  0  0  0  0
   -0.9111   -0.2914    2.0109 H   0  0  0  0  0  0  0  0  0  0  0  0
   -2.8717   -0.0090    0.1650 H   0  0  0  0  0  0  0  0  0  0  0  0
   -1.9129    1.6058    0.2368 H   0  0  0  0  0  0  0  0  0  0  0  0
   -0.9463   -0.0516   -1.8103 H   0  0  0  0  0  0  0  0  0  0  0  0
  1  2  1  0
  2  3  1  0
  3  4  1  0
  4  5  1  0
  5  6  1  0
  6  7  1  0
  7  8  2  0
  6  3  1  0
  7  4  1  0
  1  9  1  0
  1 10  1  0
  1 11  1  0
  3 12  1  0
  4 13  1  0
  5 14  1  0
  5 15  1  0
  6 16  1  0
M  END
