
     RDKit          3D

 19 19  0  0  0  0  0  0  0  0999 V2000
    2.5168    0.6913    0.0641 C   0  0  0  0  0  0  0  0  0  0  0  0
    1.2857    0.7326   -0.6284 O   0  0  0  0  0  0  0  0  0  0  0  0
    0.5526   -0.4128   -0.4421 C   0  0  0  0  0  0  0  0  0  0  0  0
    0.1035   -0.9850   -1.7339 C   0  0  0  0  0  0  0  0  0  0  0  0
    0.6981   -1.2002   -2.7671 O   0  0  0  0  0  0  0  0  0  0  0  0
   -1.2661   -1.1385   -1.1852 C   0  0  0  0  0  0  0  0  0  0  0  0
   -0.8919   -0.2231   -0.0522 C   0  0  0  0  0  0  0  0  0  0  0  0
   -1.3078    1.2078   -0.1969 C   0  0  0  0  0  0  0  0  0  0  0  0
   -1.2511   -0.7859    1.1685 O   0  0  0  0  0  0  0  0  0  0  0  0
    3.0189    1.6624   -0.1590 H   0  0  0  0  0  0  0  0  0  0  0  0
    3.1660   -0.1229   -0.3073 H   0  0  0  0  0  0  0  0  0  0  0  0
    2.3809    0.6300    1.1426 H   0  0  0  0  0  0  0  0  0  0  0  0
    1.0633   -1.1461    0.2118 H   0  0  0  0  0  0  0  0  0  0  0  0
   -2.0846   -0.7364   -1.8288 H   0  0  0  0  0  0  0  0  0  0  0  0
   -1.4510   -2.1970   -0.8478 H   0  0  0  0  0  0  0  0  0  0  0  0
   -0.5754    1.8838    0.2834 H   0  0  0  0  0  0  0  0  0  0  0  0
   -2.2832    1.4113    0.3167 H   0  0  0  0  0  0  0  0  0  0  0  0
   -1.4497    1.5244   -1.2457 H   0  0  0  0  0  0  0  0  0  0  0  0
   -2.2250   -0.7958    1.2419 H   0  0  0  0  0  0  0  0  0  0  0  0
  1  2  1  0
  2  3  1  0
  3  4  1  0
  4  5  2  0
  4  6  1  0
  6  7  1  0
  7  8  1  0
  7  9  1  0
  7  3  1  0
  1 10  1  0
  1 11  1  0
  1 12  1  0
  3 13  1  0
  6 14  1  0
  6 15  1  0
  8 16  1  0
  8 17  1  0
  8 18  1  0
  9 19  1  0
M  END
