
     RDKit          3D

 19 19  0  0  0  0  0  0  0  0999 V2000
   -2.8031    0.0604   -0.0817 C   0  0  0  0  0  0  0  0  0  0  0  0
   -1.6111    0.0052   -0.8037 O   0  0  0  0  0  0  0  0  0  0  0  0
   -0.4939   -0.0159   -0.0099 C   0  0  0  0  0  0  0  0  0  0  0  0
    0.2838   -1.2873   -0.3604 C   0  0  0  0  0  0  0  0  0  0  0  0
    1.5615   -0.9822    0.3874 C   0  0  0  0  0  0  0  0  0  0  0  0
    2.1615   -1.6780    1.1720 O   0  0  0  0  0  0  0  0  0  0  0  0
    1.8937    0.4070   -0.0948 C   0  0  0  0  0  0  0  0  0  0  0  0
    2.6080    1.1258    0.8321 O   0  0  0  0  0  0  0  0  0  0  0  0
    0.5337    1.0312   -0.3951 C   0  0  0  0  0  0  0  0  0  0  0  0
   -2.8004    0.9829    0.5299 H   0  0  0  0  0  0  0  0  0  0  0  0
   -2.9292   -0.8288    0.5839 H   0  0  0  0  0  0  0  0  0  0  0  0
   -3.6260    0.0342   -0.8223 H   0  0  0  0  0  0  0  0  0  0  0  0
   -0.7311    0.0147    1.0727 H   0  0  0  0  0  0  0  0  0  0  0  0
   -0.2000   -2.1911   -0.0078 H   0  0  0  0  0  0  0  0  0  0  0  0
    0.5079   -1.2373   -1.4224 H   0  0  0  0  0  0  0  0  0  0  0  0
    2.4752    0.3475   -1.0377 H   0  0  0  0  0  0  0  0  0  0  0  0
    2.3276    1.0127    1.7614 H   0  0  0  0  0  0  0  0  0  0  0  0
    0.4110    1.9640    0.1878 H   0  0  0  0  0  0  0  0  0  0  0  0
    0.4307    1.2348   -1.4916 H   0  0  0  0  0  0  0  0  0  0  0  0
  1  2  1  0
  2  3  1  0
  3  4  1  0
  4  5  1  0
  5  6  2  0
  5  7  1  0
  7  8  1  0
  7  9  1  0
  9  3  1  0
  1 10  1  0
  1 11  1  0
  1 12  1  0
  3 13  1  0
  4 14  1  0
  4 15  1  0
  7 16  1  0
  8 17  1  0
  9 18  1  0
  9 19  1  0
M  END
