
     RDKit          3D

 21 21  0  0  0  0  0  0  0  0999 V2000
    2.7330   -0.4304   -0.0740 C   0  0  0  0  0  0  0  0  0  0  0  0
    1.5836   -0.2448    0.6930 O   0  0  0  0  0  0  0  0  0  0  0  0
    0.6369    0.3695   -0.1130 C   0  0  0  0  0  0  0  0  0  0  0  0
    0.3522    1.6054    0.4430 O   0  0  0  0  0  0  0  0  0  0  0  0
   -0.9335    1.9483    0.0826 C   0  0  0  0  0  0  0  0  0  0  0  0
   -1.6745    0.7082   -0.2900 C   0  0  0  0  0  0  0  0  0  0  0  0
   -0.6507   -0.3974   -0.2010 C   0  0  0  0  0  0  0  0  0  0  0  0
   -0.8715   -1.2847    0.9890 C   0  0  0  0  0  0  0  0  0  0  0  0
   -0.6436   -1.1358   -1.3778 O   0  0  0  0  0  0  0  0  0  0  0  0
    2.4242   -1.0795   -0.9314 H   0  0  0  0  0  0  0  0  0  0  0  0
    3.0727    0.5326   -0.5337 H   0  0  0  0  0  0  0  0  0  0  0  0
    3.5497   -0.9256    0.4867 H   0  0  0  0  0  0  0  0  0  0  0  0
    1.0290    0.5469   -1.1250 H   0  0  0  0  0  0  0  0  0  0  0  0
   -0.8706    2.6840   -0.7428 H   0  0  0  0  0  0  0  0  0  0  0  0
   -1.4269    2.4029    0.9736 H   0  0  0  0  0  0  0  0  0  0  0  0
   -2.5191    0.4785    0.3865 H   0  0  0  0  0  0  0  0  0  0  0  0
   -2.0281    0.7942   -1.3419 H   0  0  0  0  0  0  0  0  0  0  0  0
    0.1076   -1.4689    1.4638 H   0  0  0  0  0  0  0  0  0  0  0  0
   -1.3934   -2.2219    0.6881 H   0  0  0  0  0  0  0  0  0  0  0  0
   -1.5136   -0.8006    1.7476 H   0  0  0  0  0  0  0  0  0  0  0  0
   -0.9635   -2.0811   -1.2235 H   0  0  0  0  0  0  0  0  0  0  0  0
  1  2  1  0
  2  3  1  0
  3  4  1  0
  4  5  1  0
  5  6  1  0
  6  7  1  0
  7  8  1  0
  7  9  1  0
  7  3  1  0
  1 10  1  0
  1 11  1  0
  1 12  1  0
  3 13  1  0
  5 14  1  0
  5 15  1  0
  6 16  1  0
  6 17  1  0
  8 18  1  0
  8 19  1  0
  8 20  1  0
  9 21  1  0
M  END
