
     RDKit          3D

 19 19  0  0  0  0  0  0  0  0999 V2000
    2.1248   -1.2661   -0.1555 C   0  0  0  0  0  0  0  0  0  0  0  0
    1.2669   -0.3100    0.3560 O   0  0  0  0  0  0  0  0  0  0  0  0
    0.2582   -0.1002   -0.5578 C   0  0  0  0  0  0  0  0  0  0  0  0
   -1.1297    0.0383   -0.0017 C   0  0  0  0  0  0  0  0  0  0  0  0
   -2.0521   -1.1366   -0.2580 C   0  0  0  0  0  0  0  0  0  0  0  0
   -1.3822    1.0601   -0.9268 O   0  0  0  0  0  0  0  0  0  0  0  0
   -0.0244    1.3501   -0.8887 C   0  0  0  0  0  0  0  0  0  0  0  0
    0.3076    2.3174    0.1603 C   0  0  0  0  0  0  0  0  0  0  0  0
    1.4339    2.7234    0.3839 O   0  0  0  0  0  0  0  0  0  0  0  0
    2.9730   -1.4891    0.5357 H   0  0  0  0  0  0  0  0  0  0  0  0
    1.6093   -2.2331   -0.3494 H   0  0  0  0  0  0  0  0  0  0  0  0
    2.5323   -0.8387   -1.1146 H   0  0  0  0  0  0  0  0  0  0  0  0
    0.3261   -0.6996   -1.4663 H   0  0  0  0  0  0  0  0  0  0  0  0
   -1.1711    0.4395    1.0166 H   0  0  0  0  0  0  0  0  0  0  0  0
   -2.9465   -0.9829    0.3810 H   0  0  0  0  0  0  0  0  0  0  0  0
   -1.5525   -2.1034   -0.0794 H   0  0  0  0  0  0  0  0  0  0  0  0
   -2.4089   -1.1477   -1.3104 H   0  0  0  0  0  0  0  0  0  0  0  0
    0.3138    1.6674   -1.8959 H   0  0  0  0  0  0  0  0  0  0  0  0
   -0.4786    2.7111    0.7895 H   0  0  0  0  0  0  0  0  0  0  0  0
  1  2  1  0
  2  3  1  0
  3  4  1  0
  4  5  1  0
  4  6  1  0
  6  7  1  0
  7  8  1  0
  8  9  2  0
  7  3  1  0
  1 10  1  0
  1 11  1  0
  1 12  1  0
  3 13  1  0
  4 14  1  0
  5 15  1  0
  5 16  1  0
  5 17  1  0
  7 18  1  0
  8 19  1  0
M  END
