
     RDKit          3D

 17 18  0  0  0  0  0  0  0  0999 V2000
    2.2150   -0.0996   -0.4176 C   0  0  0  0  0  0  0  0  0  0  0  0
    1.0603    0.2748   -1.0692 O   0  0  0  0  0  0  0  0  0  0  0  0
    0.0147    0.1418   -0.4006 C   0  0  0  0  0  0  0  0  0  0  0  0
   -1.3925    0.4573   -0.8193 C   0  0  0  0  0  0  0  0  0  0  0  0
   -1.5445   -0.0458    0.5927 C   0  0  0  0  0  0  0  0  0  0  0  0
   -0.5649   -1.1199    0.1930 C   0  0  0  0  0  0  0  0  0  0  0  0
   -0.3463    0.7980    0.9112 C   0  0  0  0  0  0  0  0  0  0  0  0
    3.1243    0.0247   -1.0222 H   0  0  0  0  0  0  0  0  0  0  0  0
    2.1228   -1.1516   -0.0152 H   0  0  0  0  0  0  0  0  0  0  0  0
    2.3628    0.5302    0.4956 H   0  0  0  0  0  0  0  0  0  0  0  0
   -1.7346   -0.2324   -1.6124 H   0  0  0  0  0  0  0  0  0  0  0  0
   -1.6293    1.5216   -0.9461 H   0  0  0  0  0  0  0  0  0  0  0  0
   -2.3875   -0.1533    1.1151 H   0  0  0  0  0  0  0  0  0  0  0  0
   -0.9229   -1.7987   -0.5931 H   0  0  0  0  0  0  0  0  0  0  0  0
   -0.0331   -1.5542    1.0400 H   0  0  0  0  0  0  0  0  0  0  0  0
   -0.5945    1.8741    0.7716 H   0  0  0  0  0  0  0  0  0  0  0  0
    0.2503    0.5330    1.7766 H   0  0  0  0  0  0  0  0  0  0  0  0
  1  2  1  0
  2  3  1  0
  3  4  1  0
  4  5  1  0
  5  6  1  0
  5  7  1  0
  6  3  1  0
  7  3  1  0
  1  8  1  0
  1  9  1  0
  1 10  1  0
  4 11  1  0
  4 12  1  0
  5 13  1  0
  6 14  1  0
  6 15  1  0
  7 16  1  0
  7 17  1  0
M  END
