
     RDKit          3D

 23 24  0  0  0  0  0  0  0  0999 V2000
    3.0917    0.9636   -0.5310 C   0  0  0  0  0  0  0  0  0  0  0  0
    2.1522   -0.0295   -0.7925 O   0  0  0  0  0  0  0  0  0  0  0  0
    1.3509   -0.2591    0.2986 C   0  0  0  0  0  0  0  0  0  0  0  0
    0.9125   -1.6532    0.6605 C   0  0  0  0  0  0  0  0  0  0  0  0
   -0.0470   -0.6848    0.1910 C   0  0  0  0  0  0  0  0  0  0  0  0
   -0.8192   -0.7452   -1.0651 C   0  0  0  0  0  0  0  0  0  0  0  0
   -2.0341   -0.2206   -0.2855 C   0  0  0  0  0  0  0  0  0  0  0  0
   -2.4901    1.1478   -0.7169 C   0  0  0  0  0  0  0  0  0  0  0  0
   -1.1636   -0.1044    0.9643 C   0  0  0  0  0  0  0  0  0  0  0  0
    3.7635    0.7086    0.3089 H   0  0  0  0  0  0  0  0  0  0  0  0
    2.5718    1.9069   -0.2236 H   0  0  0  0  0  0  0  0  0  0  0  0
    3.6570    1.1883   -1.4578 H   0  0  0  0  0  0  0  0  0  0  0  0
    1.5855    0.3811    1.1985 H   0  0  0  0  0  0  0  0  0  0  0  0
    1.1812   -2.5025   -0.0145 H   0  0  0  0  0  0  0  0  0  0  0  0
    0.8673   -1.9579    1.7329 H   0  0  0  0  0  0  0  0  0  0  0  0
   -0.5016   -0.0866   -1.8941 H   0  0  0  0  0  0  0  0  0  0  0  0
   -0.9919   -1.7803   -1.4077 H   0  0  0  0  0  0  0  0  0  0  0  0
   -2.8356   -0.9875   -0.1892 H   0  0  0  0  0  0  0  0  0  0  0  0
   -2.9735    1.6533    0.1661 H   0  0  0  0  0  0  0  0  0  0  0  0
   -1.5655    1.7126   -1.0171 H   0  0  0  0  0  0  0  0  0  0  0  0
   -3.2183    1.1068   -1.5506 H   0  0  0  0  0  0  0  0  0  0  0  0
   -1.5523   -0.7010    1.8252 H   0  0  0  0  0  0  0  0  0  0  0  0
   -0.9409    0.9437    1.2661 H   0  0  0  0  0  0  0  0  0  0  0  0
  1  2  1  0
  2  3  1  0
  3  4  1  0
  4  5  1  0
  5  6  1  0
  6  7  1  0
  7  8  1  0
  7  9  1  0
  5  3  1  0
  9  5  1  0
  1 10  1  0
  1 11  1  0
  1 12  1  0
  3 13  1  0
  4 14  1  0
  4 15  1  0
  6 16  1  0
  6 17  1  0
  7 18  1  0
  8 19  1  0
  8 20  1  0
  8 21  1  0
  9 22  1  0
  9 23  1  0
M  END
