
     RDKit          3D

 23 24  0  0  0  0  0  0  0  0999 V2000
    2.6308   -1.6650    0.4186 C   0  0  0  0  0  0  0  0  0  0  0  0
    1.4241   -1.1728    0.9453 O   0  0  0  0  0  0  0  0  0  0  0  0
    0.7590   -0.3998    0.0287 C   0  0  0  0  0  0  0  0  0  0  0  0
    0.3981    0.9939    0.4540 C   0  0  0  0  0  0  0  0  0  0  0  0
    1.2165    2.0978   -0.1596 C   0  0  0  0  0  0  0  0  0  0  0  0
   -0.9425    0.7580   -0.2490 C   0  0  0  0  0  0  0  0  0  0  0  0
   -1.8151   -0.1978    0.4338 C   0  0  0  0  0  0  0  0  0  0  0  0
   -3.1738   -0.4240   -0.1668 C   0  0  0  0  0  0  0  0  0  0  0  0
   -0.6577   -0.7614   -0.2678 C   0  0  0  0  0  0  0  0  0  0  0  0
    3.3201   -0.8674    0.1182 H   0  0  0  0  0  0  0  0  0  0  0  0
    3.0735   -2.4244    1.0663 H   0  0  0  0  0  0  0  0  0  0  0  0
    2.3291   -2.1943   -0.5323 H   0  0  0  0  0  0  0  0  0  0  0  0
    1.3416   -0.3412   -0.9378 H   0  0  0  0  0  0  0  0  0  0  0  0
    0.2034    1.1413    1.5342 H   0  0  0  0  0  0  0  0  0  0  0  0
    1.8670    2.5007    0.6662 H   0  0  0  0  0  0  0  0  0  0  0  0
    0.5181    2.9248   -0.4358 H   0  0  0  0  0  0  0  0  0  0  0  0
    1.8404    1.7801   -0.9982 H   0  0  0  0  0  0  0  0  0  0  0  0
   -1.1064    1.1732   -1.2371 H   0  0  0  0  0  0  0  0  0  0  0  0
   -1.8482   -0.1159    1.5564 H   0  0  0  0  0  0  0  0  0  0  0  0
   -3.6237   -1.3239    0.2874 H   0  0  0  0  0  0  0  0  0  0  0  0
   -3.8640    0.4170   -0.0444 H   0  0  0  0  0  0  0  0  0  0  0  0
   -3.0313   -0.5981   -1.2675 H   0  0  0  0  0  0  0  0  0  0  0  0
   -0.8591   -1.3009   -1.2130 H   0  0  0  0  0  0  0  0  0  0  0  0
  1  2  1  0
  2  3  1  0
  3  4  1  0
  4  5  1  0
  4  6  1  0
  6  7  1  0
  7  8  1  0
  7  9  1  0
  9  3  1  0
  9  6  1  0
  1 10  1  0
  1 11  1  0
  1 12  1  0
  3 13  1  0
  4 14  1  0
  5 15  1  0
  5 16  1  0
  5 17  1  0
  6 18  1  0
  7 19  1  0
  8 20  1  0
  8 21  1  0
  8 22  1  0
  9 23  1  0
M  END
