
     RDKit          3D

 19 20  0  0  0  0  0  0  0  0999 V2000
    2.8829    0.0808    0.0360 C   0  0  0  0  0  0  0  0  0  0  0  0
    1.7071    0.1453   -0.6947 O   0  0  0  0  0  0  0  0  0  0  0  0
    0.5879    0.1479    0.0895 C   0  0  0  0  0  0  0  0  0  0  0  0
   -0.3950    1.2776   -0.1767 C   0  0  0  0  0  0  0  0  0  0  0  0
   -1.4887    0.2689   -0.3607 C   0  0  0  0  0  0  0  0  0  0  0  0
   -2.3398    0.3799   -1.4388 O   0  0  0  0  0  0  0  0  0  0  0  0
   -1.6720   -0.8509    0.6227 C   0  0  0  0  0  0  0  0  0  0  0  0
   -0.4955   -0.8198   -0.2385 C   0  0  0  0  0  0  0  0  0  0  0  0
   -0.2674   -1.7168   -1.2637 O   0  0  0  0  0  0  0  0  0  0  0  0
    3.7380    0.0839   -0.6933 H   0  0  0  0  0  0  0  0  0  0  0  0
    2.8865   -0.8001    0.6756 H   0  0  0  0  0  0  0  0  0  0  0  0
    3.0157    1.0361    0.6177 H   0  0  0  0  0  0  0  0  0  0  0  0
    0.8176    0.0972    1.1917 H   0  0  0  0  0  0  0  0  0  0  0  0
   -0.1935    1.8543   -1.0884 H   0  0  0  0  0  0  0  0  0  0  0  0
   -0.6075    1.9286    0.6850 H   0  0  0  0  0  0  0  0  0  0  0  0
   -2.9765    1.1279   -1.2461 H   0  0  0  0  0  0  0  0  0  0  0  0
   -1.5720   -0.6283    1.7069 H   0  0  0  0  0  0  0  0  0  0  0  0
   -2.5549   -1.4886    0.4085 H   0  0  0  0  0  0  0  0  0  0  0  0
   -1.0727   -2.1239   -1.6377 H   0  0  0  0  0  0  0  0  0  0  0  0
  1  2  1  0
  2  3  1  0
  3  4  1  0
  4  5  1  0
  5  6  1  0
  5  7  1  0
  7  8  1  0
  8  9  1  0
  8  3  1  0
  8  5  1  0
  1 10  1  0
  1 11  1  0
  1 12  1  0
  3 13  1  0
  4 14  1  0
  4 15  1  0
  6 16  1  0
  7 17  1  0
  7 18  1  0
  9 19  1  0
M  END
