
     RDKit          3D

 19 20  0  0  0  0  0  0  0  0999 V2000
    3.0108    0.5965    0.5383 C   0  0  0  0  0  0  0  0  0  0  0  0
    1.6383    0.6338    0.3118 O   0  0  0  0  0  0  0  0  0  0  0  0
    1.0042   -0.5431    0.6152 C   0  0  0  0  0  0  0  0  0  0  0  0
    0.2395   -0.9754   -0.5839 C   0  0  0  0  0  0  0  0  0  0  0  0
   -0.9580   -0.4346   -0.5175 C   0  0  0  0  0  0  0  0  0  0  0  0
   -2.3432    0.0623   -0.6462 C   0  0  0  0  0  0  0  0  0  0  0  0
   -2.3714    0.0369    0.8975 C   0  0  0  0  0  0  0  0  0  0  0  0
   -0.9219    0.3526    0.7823 C   0  0  0  0  0  0  0  0  0  0  0  0
   -0.0233   -0.3699    1.5631 O   0  0  0  0  0  0  0  0  0  0  0  0
    3.5065   -0.1977   -0.0781 H   0  0  0  0  0  0  0  0  0  0  0  0
    3.4831    1.5505    0.2285 H   0  0  0  0  0  0  0  0  0  0  0  0
    3.1932    0.4810    1.6138 H   0  0  0  0  0  0  0  0  0  0  0  0
    1.6795   -1.3335    0.9906 H   0  0  0  0  0  0  0  0  0  0  0  0
    0.5953   -1.6353   -1.4004 H   0  0  0  0  0  0  0  0  0  0  0  0
   -3.0693   -0.5970   -1.1179 H   0  0  0  0  0  0  0  0  0  0  0  0
   -2.3157    1.1209   -1.0338 H   0  0  0  0  0  0  0  0  0  0  0  0
   -2.5954   -0.9970    1.2339 H   0  0  0  0  0  0  0  0  0  0  0  0
   -3.0148    0.8317    1.3302 H   0  0  0  0  0  0  0  0  0  0  0  0
   -0.7373    1.4172    0.6621 H   0  0  0  0  0  0  0  0  0  0  0  0
  1  2  1  0
  2  3  1  0
  3  4  1  0
  4  5  2  0
  5  6  1  0
  6  7  1  0
  7  8  1  0
  8  9  1  0
  9  3  1  0
  8  5  1  0
  1 10  1  0
  1 11  1  0
  1 12  1  0
  3 13  1  0
  4 14  1  0
  6 15  1  0
  6 16  1  0
  7 17  1  0
  7 18  1  0
  8 19  1  0
M  END
