
     RDKit          3D

 21 22  0  0  0  0  0  0  0  0999 V2000
    2.8882   -0.1966   -0.0696 C   0  0  0  0  0  0  0  0  0  0  0  0
    1.6178   -0.2041    0.4576 O   0  0  0  0  0  0  0  0  0  0  0  0
    0.6475    0.0436   -0.5042 C   0  0  0  0  0  0  0  0  0  0  0  0
   -0.0958    1.2819   -0.1002 C   0  0  0  0  0  0  0  0  0  0  0  0
   -1.5744    1.0792   -0.0613 C   0  0  0  0  0  0  0  0  0  0  0  0
   -2.0104   -0.1258    0.7098 C   0  0  0  0  0  0  0  0  0  0  0  0
   -1.7043   -0.7797   -0.6387 C   0  0  0  0  0  0  0  0  0  0  0  0
   -0.2501   -1.1735   -0.6023 C   0  0  0  0  0  0  0  0  0  0  0  0
   -1.9457    0.4241   -1.2387 O   0  0  0  0  0  0  0  0  0  0  0  0
    3.0378   -0.9664   -0.8646 H   0  0  0  0  0  0  0  0  0  0  0  0
    3.1734    0.7898   -0.5209 H   0  0  0  0  0  0  0  0  0  0  0  0
    3.6223   -0.4084    0.7123 H   0  0  0  0  0  0  0  0  0  0  0  0
    1.1871    0.1874   -1.4847 H   0  0  0  0  0  0  0  0  0  0  0  0
    0.1041    2.0706   -0.8819 H   0  0  0  0  0  0  0  0  0  0  0  0
    0.3030    1.7234    0.8445 H   0  0  0  0  0  0  0  0  0  0  0  0
   -2.1273    1.9921    0.1685 H   0  0  0  0  0  0  0  0  0  0  0  0
   -3.0942   -0.0661    0.9477 H   0  0  0  0  0  0  0  0  0  0  0  0
   -1.3592   -0.4782    1.5141 H   0  0  0  0  0  0  0  0  0  0  0  0
   -2.3590   -1.6215   -0.8797 H   0  0  0  0  0  0  0  0  0  0  0  0
    0.0580   -1.7685   -1.4826 H   0  0  0  0  0  0  0  0  0  0  0  0
   -0.1188   -1.8033    0.3159 H   0  0  0  0  0  0  0  0  0  0  0  0
  1  2  1  0
  2  3  1  0
  3  4  1  0
  4  5  1  0
  5  6  1  0
  6  7  1  0
  7  8  1  0
  7  9  1  0
  8  3  1  0
  9  5  1  0
  1 10  1  0
  1 11  1  0
  1 12  1  0
  3 13  1  0
  4 14  1  0
  4 15  1  0
  5 16  1  0
  6 17  1  0
  6 18  1  0
  7 19  1  0
  8 20  1  0
  8 21  1  0
M  END
