
     RDKit          3D

 19 19  0  0  0  0  0  0  0  0999 V2000
    2.5850   -0.7613    0.1317 C   0  0  0  0  0  0  0  0  0  0  0  0
    1.3596   -0.2982   -0.3797 O   0  0  0  0  0  0  0  0  0  0  0  0
    0.6087    0.3522    0.5648 C   0  0  0  0  0  0  0  0  0  0  0  0
    0.2750    1.7709    0.1752 C   0  0  0  0  0  0  0  0  0  0  0  0
    0.9145    2.7617   -0.1430 O   0  0  0  0  0  0  0  0  0  0  0  0
   -1.1609    1.4882    0.3323 C   0  0  0  0  0  0  0  0  0  0  0  0
   -0.8596    0.0330    0.5924 C   0  0  0  0  0  0  0  0  0  0  0  0
   -1.3392   -0.8923   -0.4991 C   0  0  0  0  0  0  0  0  0  0  0  0
   -2.7107   -1.0667   -0.3075 O   0  0  0  0  0  0  0  0  0  0  0  0
    2.4033   -1.4768    0.9713 H   0  0  0  0  0  0  0  0  0  0  0  0
    3.2444    0.0799    0.4296 H   0  0  0  0  0  0  0  0  0  0  0  0
    3.1088   -1.2814   -0.7085 H   0  0  0  0  0  0  0  0  0  0  0  0
    1.1074    0.3943    1.5639 H   0  0  0  0  0  0  0  0  0  0  0  0
   -1.6600    1.9707    1.1952 H   0  0  0  0  0  0  0  0  0  0  0  0
   -1.6882    1.6220   -0.6427 H   0  0  0  0  0  0  0  0  0  0  0  0
   -1.1695   -0.3458    1.5815 H   0  0  0  0  0  0  0  0  0  0  0  0
   -1.1735   -0.4526   -1.4992 H   0  0  0  0  0  0  0  0  0  0  0  0
   -0.8582   -1.8862   -0.3956 H   0  0  0  0  0  0  0  0  0  0  0  0
   -2.9870   -2.0118   -0.4548 H   0  0  0  0  0  0  0  0  0  0  0  0
  1  2  1  0
  2  3  1  0
  3  4  1  0
  4  5  2  0
  4  6  1  0
  6  7  1  0
  7  8  1  0
  8  9  1  0
  7  3  1  0
  1 10  1  0
  1 11  1  0
  1 12  1  0
  3 13  1  0
  6 14  1  0
  6 15  1  0
  7 16  1  0
  8 17  1  0
  8 18  1  0
  9 19  1  0
M  END
