
     RDKit          3D

 21 21  0  0  0  0  0  0  0  0999 V2000
    3.1964    0.0662    0.8905 C   0  0  0  0  0  0  0  0  0  0  0  0
    2.3806   -0.1516   -0.2131 O   0  0  0  0  0  0  0  0  0  0  0  0
    1.0823    0.2628    0.1293 C   0  0  0  0  0  0  0  0  0  0  0  0
    0.6891    1.2751   -0.8931 C   0  0  0  0  0  0  0  0  0  0  0  0
   -0.5452    1.0325   -1.2752 C   0  0  0  0  0  0  0  0  0  0  0  0
   -1.1026   -0.1346   -0.5725 C   0  0  0  0  0  0  0  0  0  0  0  0
   -1.9002    0.3503    0.4632 O   0  0  0  0  0  0  0  0  0  0  0  0
   -3.2245   -0.0567    0.3293 C   0  0  0  0  0  0  0  0  0  0  0  0
    0.0948   -0.8687   -0.0739 C   0  0  0  0  0  0  0  0  0  0  0  0
    3.1855    1.1448    1.1413 H   0  0  0  0  0  0  0  0  0  0  0  0
    4.2086   -0.3094    0.6368 H   0  0  0  0  0  0  0  0  0  0  0  0
    2.7923   -0.4771    1.7705 H   0  0  0  0  0  0  0  0  0  0  0  0
    1.0213    0.6472    1.1519 H   0  0  0  0  0  0  0  0  0  0  0  0
    1.3607    2.0883   -1.2482 H   0  0  0  0  0  0  0  0  0  0  0  0
   -1.0541    1.6485   -2.0254 H   0  0  0  0  0  0  0  0  0  0  0  0
   -1.7194   -0.7491   -1.2846 H   0  0  0  0  0  0  0  0  0  0  0  0
   -3.6907    0.2866   -0.6063 H   0  0  0  0  0  0  0  0  0  0  0  0
   -3.7807    0.4197    1.1757 H   0  0  0  0  0  0  0  0  0  0  0  0
   -3.3631   -1.1413    0.4362 H   0  0  0  0  0  0  0  0  0  0  0  0
    0.4322   -1.6060   -0.8216 H   0  0  0  0  0  0  0  0  0  0  0  0
   -0.0632   -1.3896    0.8891 H   0  0  0  0  0  0  0  0  0  0  0  0
  1  2  1  0
  2  3  1  0
  3  4  1  0
  4  5  2  0
  5  6  1  0
  6  7  1  0
  7  8  1  0
  6  9  1  0
  9  3  1  0
  1 10  1  0
  1 11  1  0
  1 12  1  0
  3 13  1  0
  4 14  1  0
  5 15  1  0
  6 16  1  0
  8 17  1  0
  8 18  1  0
  8 19  1  0
  9 20  1  0
  9 21  1  0
M  END
