
     RDKit          3D

 21 21  0  0  0  0  0  0  0  0999 V2000
    3.2012   -0.4989    0.3914 C   0  0  0  0  0  0  0  0  0  0  0  0
    1.9742   -0.3475    1.0214 O   0  0  0  0  0  0  0  0  0  0  0  0
    1.1327    0.3463    0.1621 C   0  0  0  0  0  0  0  0  0  0  0  0
    0.2001    1.2787    0.8643 C   0  0  0  0  0  0  0  0  0  0  0  0
   -0.3184    0.0574    0.1775 C   0  0  0  0  0  0  0  0  0  0  0  0
   -0.7322   -1.0197    0.9696 O   0  0  0  0  0  0  0  0  0  0  0  0
   -1.1419    0.2842   -1.0369 C   0  0  0  0  0  0  0  0  0  0  0  0
   -2.6034   -0.0683   -0.8283 C   0  0  0  0  0  0  0  0  0  0  0  0
   -3.1260    0.7186    0.1969 O   0  0  0  0  0  0  0  0  0  0  0  0
    3.0167   -1.0710   -0.5454 H   0  0  0  0  0  0  0  0  0  0  0  0
    3.6264    0.4860    0.0605 H   0  0  0  0  0  0  0  0  0  0  0  0
    3.9483   -0.9994    1.0390 H   0  0  0  0  0  0  0  0  0  0  0  0
    1.5860    0.6229   -0.7981 H   0  0  0  0  0  0  0  0  0  0  0  0
    0.0871    2.2783    0.3920 H   0  0  0  0  0  0  0  0  0  0  0  0
    0.1292    1.2664    1.9511 H   0  0  0  0  0  0  0  0  0  0  0  0
   -0.4530   -1.8628    0.5234 H   0  0  0  0  0  0  0  0  0  0  0  0
   -1.1130    1.3539   -1.3236 H   0  0  0  0  0  0  0  0  0  0  0  0
   -0.7248   -0.3113   -1.8810 H   0  0  0  0  0  0  0  0  0  0  0  0
   -3.1297    0.2424   -1.7611 H   0  0  0  0  0  0  0  0  0  0  0  0
   -2.7474   -1.1439   -0.6504 H   0  0  0  0  0  0  0  0  0  0  0  0
   -2.8123    0.3492    1.0757 H   0  0  0  0  0  0  0  0  0  0  0  0
  1  2  1  0
  2  3  1  0
  3  4  1  0
  4  5  1  0
  5  6  1  0
  5  7  1  0
  7  8  1  0
  8  9  1  0
  5  3  1  0
  1 10  1  0
  1 11  1  0
  1 12  1  0
  3 13  1  0
  4 14  1  0
  4 15  1  0
  6 16  1  0
  7 17  1  0
  7 18  1  0
  8 19  1  0
  8 20  1  0
  9 21  1  0
M  END
