
     RDKit          3D

 19 20  0  0  0  0  0  0  0  0999 V2000
    2.9820   -0.3434    0.1179 C   0  0  0  0  0  0  0  0  0  0  0  0
    1.8298   -0.0885   -0.6345 O   0  0  0  0  0  0  0  0  0  0  0  0
    0.7010   -0.0031    0.1676 C   0  0  0  0  0  0  0  0  0  0  0  0
   -0.5100   -0.6687   -0.3556 C   0  0  0  0  0  0  0  0  0  0  0  0
   -1.7161   -0.6070    0.5690 C   0  0  0  0  0  0  0  0  0  0  0  0
   -2.8052   -1.3158    0.1240 O   0  0  0  0  0  0  0  0  0  0  0  0
   -1.7442    0.8834    0.3087 C   0  0  0  0  0  0  0  0  0  0  0  0
   -0.3801    0.8678   -0.2846 C   0  0  0  0  0  0  0  0  0  0  0  0
   -0.2081    1.5463   -1.4824 O   0  0  0  0  0  0  0  0  0  0  0  0
    2.8988   -1.3007    0.6741 H   0  0  0  0  0  0  0  0  0  0  0  0
    3.8384   -0.4423   -0.5644 H   0  0  0  0  0  0  0  0  0  0  0  0
    3.1084    0.5279    0.7935 H   0  0  0  0  0  0  0  0  0  0  0  0
    0.9091   -0.1501    1.2505 H   0  0  0  0  0  0  0  0  0  0  0  0
   -0.6158   -1.0429   -1.3693 H   0  0  0  0  0  0  0  0  0  0  0  0
   -1.3834   -0.7910    1.6051 H   0  0  0  0  0  0  0  0  0  0  0  0
   -2.5249   -2.1438   -0.3468 H   0  0  0  0  0  0  0  0  0  0  0  0
   -1.9340    1.5243    1.1688 H   0  0  0  0  0  0  0  0  0  0  0  0
   -2.5122    1.0796   -0.4934 H   0  0  0  0  0  0  0  0  0  0  0  0
    0.0665    2.4681   -1.2482 H   0  0  0  0  0  0  0  0  0  0  0  0
  1  2  1  0
  2  3  1  0
  3  4  1  0
  4  5  1  0
  5  6  1  0
  5  7  1  0
  7  8  1  0
  8  9  1  0
  8  3  1  0
  8  4  1  0
  1 10  1  0
  1 11  1  0
  1 12  1  0
  3 13  1  0
  4 14  1  0
  5 15  1  0
  6 16  1  0
  7 17  1  0
  7 18  1  0
  9 19  1  0
M  END
