
     RDKit          3D

 19 20  0  0  0  0  0  0  0  0999 V2000
    2.3460    1.4145    0.2508 C   0  0  0  0  0  0  0  0  0  0  0  0
    0.9447    1.2869    0.1092 O   0  0  0  0  0  0  0  0  0  0  0  0
    0.6692   -0.0486    0.0324 C   0  0  0  0  0  0  0  0  0  0  0  0
   -0.2886   -0.4667   -1.0785 C   0  0  0  0  0  0  0  0  0  0  0  0
   -0.7129   -1.5825   -0.1141 C   0  0  0  0  0  0  0  0  0  0  0  0
   -0.4286   -0.5457    0.9837 C   0  0  0  0  0  0  0  0  0  0  0  0
   -1.4753    0.3492    1.0588 O   0  0  0  0  0  0  0  0  0  0  0  0
   -2.1756    0.4629   -0.1209 C   0  0  0  0  0  0  0  0  0  0  0  0
   -1.3137    0.4627   -1.2136 O   0  0  0  0  0  0  0  0  0  0  0  0
    2.7026    0.9075    1.1591 H   0  0  0  0  0  0  0  0  0  0  0  0
    2.8595    0.8972   -0.6073 H   0  0  0  0  0  0  0  0  0  0  0  0
    2.6388    2.4721    0.2013 H   0  0  0  0  0  0  0  0  0  0  0  0
    1.5184   -0.7446    0.0892 H   0  0  0  0  0  0  0  0  0  0  0  0
    0.1725   -0.8053   -2.0020 H   0  0  0  0  0  0  0  0  0  0  0  0
    0.0647   -2.3691   -0.1385 H   0  0  0  0  0  0  0  0  0  0  0  0
   -1.7447   -1.9004   -0.1955 H   0  0  0  0  0  0  0  0  0  0  0  0
   -0.0710   -0.9605    1.9241 H   0  0  0  0  0  0  0  0  0  0  0  0
   -2.9964   -0.2875   -0.2265 H   0  0  0  0  0  0  0  0  0  0  0  0
   -2.7095    1.4579   -0.1115 H   0  0  0  0  0  0  0  0  0  0  0  0
  1  2  1  0
  2  3  1  0
  3  4  1  0
  4  5  1  0
  5  6  1  0
  6  7  1  0
  7  8  1  0
  8  9  1  0
  6  3  1  0
  9  4  1  0
  1 10  1  0
  1 11  1  0
  1 12  1  0
  3 13  1  0
  4 14  1  0
  5 15  1  0
  5 16  1  0
  6 17  1  0
  8 18  1  0
  8 19  1  0
M  END
