
     RDKit          3D

 19 20  0  0  0  0  0  0  0  0999 V2000
   -3.1197   -0.3716   -0.2228 C   0  0  0  0  0  0  0  0  0  0  0  0
   -1.9522   -0.7747    0.3859 O   0  0  0  0  0  0  0  0  0  0  0  0
   -0.8379   -0.0706   -0.0244 C   0  0  0  0  0  0  0  0  0  0  0  0
    0.1284    0.2572    1.0901 C   0  0  0  0  0  0  0  0  0  0  0  0
    1.3255    1.0063    0.7191 C   0  0  0  0  0  0  0  0  0  0  0  0
    1.7752    2.1040    0.9926 O   0  0  0  0  0  0  0  0  0  0  0  0
    1.7687   -0.1114   -0.1239 C   0  0  0  0  0  0  0  0  0  0  0  0
    2.1624    0.2985   -1.5266 C   0  0  0  0  0  0  0  0  0  0  0  0
    0.4420   -0.8033   -0.0125 C   0  0  0  0  0  0  0  0  0  0  0  0
   -3.0770   -0.4900   -1.3341 H   0  0  0  0  0  0  0  0  0  0  0  0
   -3.9286   -1.0464    0.1264 H   0  0  0  0  0  0  0  0  0  0  0  0
   -3.4251    0.6589    0.0340 H   0  0  0  0  0  0  0  0  0  0  0  0
   -1.0098    0.7299   -0.7886 H   0  0  0  0  0  0  0  0  0  0  0  0
   -0.0461   -0.1276    2.1001 H   0  0  0  0  0  0  0  0  0  0  0  0
    2.5776   -0.7310    0.3127 H   0  0  0  0  0  0  0  0  0  0  0  0
    2.3995   -0.5736   -2.1379 H   0  0  0  0  0  0  0  0  0  0  0  0
    3.0223    1.0039   -1.4166 H   0  0  0  0  0  0  0  0  0  0  0  0
    1.3535    0.9011   -2.0120 H   0  0  0  0  0  0  0  0  0  0  0  0
    0.4413   -1.8597    0.3455 H   0  0  0  0  0  0  0  0  0  0  0  0
  1  2  1  0
  2  3  1  0
  3  4  1  0
  4  5  1  0
  5  6  2  0
  5  7  1  0
  7  8  1  0
  7  9  1  0
  9  3  1  0
  9  4  1  0
  1 10  1  0
  1 11  1  0
  1 12  1  0
  3 13  1  0
  4 14  1  0
  7 15  1  0
  8 16  1  0
  8 17  1  0
  8 18  1  0
  9 19  1  0
M  END
