
     RDKit          3D

 20 21  0  0  0  0  0  0  0  0999 V2000
    3.0549   -0.1284    0.3357 C   0  0  0  0  0  0  0  0  0  0  0  0
    1.9720   -0.1341   -0.5377 O   0  0  0  0  0  0  0  0  0  0  0  0
    0.8426   -0.0896    0.2197 C   0  0  0  0  0  0  0  0  0  0  0  0
   -0.0447    1.1226   -0.1010 C   0  0  0  0  0  0  0  0  0  0  0  0
   -1.2208    0.1841   -0.1747 C   0  0  0  0  0  0  0  0  0  0  0  0
   -2.3284    0.4272   -1.1311 C   0  0  0  0  0  0  0  0  0  0  0  0
   -1.4405   -0.8670    0.8468 C   0  0  0  0  0  0  0  0  0  0  0  0
   -0.3197   -0.9464   -0.1775 C   0  0  0  0  0  0  0  0  0  0  0  0
    3.0248    0.8108    0.9509 H   0  0  0  0  0  0  0  0  0  0  0  0
    2.9411   -1.0039    1.0404 H   0  0  0  0  0  0  0  0  0  0  0  0
    4.0282   -0.1585   -0.1585 H   0  0  0  0  0  0  0  0  0  0  0  0
    1.0645   -0.0611    1.3029 H   0  0  0  0  0  0  0  0  0  0  0  0
    0.2525    1.5346   -1.0813 H   0  0  0  0  0  0  0  0  0  0  0  0
   -0.1557    1.8402    0.7113 H   0  0  0  0  0  0  0  0  0  0  0  0
   -2.0584    0.9717   -2.0379 H   0  0  0  0  0  0  0  0  0  0  0  0
   -3.1083    1.0481   -0.6088 H   0  0  0  0  0  0  0  0  0  0  0  0
   -2.8320   -0.5499   -1.3301 H   0  0  0  0  0  0  0  0  0  0  0  0
   -1.1686   -0.6788    1.9162 H   0  0  0  0  0  0  0  0  0  0  0  0
   -2.2477   -1.5704    0.6640 H   0  0  0  0  0  0  0  0  0  0  0  0
   -0.2558   -1.7511   -0.8853 H   0  0  0  0  0  0  0  0  0  0  0  0
  1  2  1  0
  2  3  1  0
  3  4  1  0
  4  5  1  0
  5  6  1  0
  5  7  1  0
  7  8  1  0
  8  3  1  0
  8  5  1  0
  1  9  1  0
  1 10  1  0
  1 11  1  0
  3 12  1  0
  4 13  1  0
  4 14  1  0
  6 15  1  0
  6 16  1  0
  6 17  1  0
  7 18  1  0
  7 19  1  0
  8 20  1  0
M  END
