
     RDKit          3D

 17 17  0  0  0  0  0  0  0  0999 V2000
   -2.7294    0.0343   -0.1792 C   0  0  0  0  0  0  0  0  0  0  0  0
   -1.5555    0.0423    0.5454 O   0  0  0  0  0  0  0  0  0  0  0  0
   -0.4143    0.0207   -0.2285 C   0  0  0  0  0  0  0  0  0  0  0  0
    0.4351   -1.1494   -0.0353 C   0  0  0  0  0  0  0  0  0  0  0  0
    1.7398   -1.0400    0.1709 C   0  0  0  0  0  0  0  0  0  0  0  0
    2.4427    0.2682    0.2227 C   0  0  0  0  0  0  0  0  0  0  0  0
    1.6612    1.3324   -0.2814 O   0  0  0  0  0  0  0  0  0  0  0  0
    0.3002    1.3073   -0.0697 C   0  0  0  0  0  0  0  0  0  0  0  0
   -0.3480    2.3242    0.2488 O   0  0  0  0  0  0  0  0  0  0  0  0
   -2.8749   -0.8273   -0.8251 H   0  0  0  0  0  0  0  0  0  0  0  0
   -2.7423    0.9472   -0.8422 H   0  0  0  0  0  0  0  0  0  0  0  0
   -3.5872    0.1597    0.5061 H   0  0  0  0  0  0  0  0  0  0  0  0
   -0.7670    0.0012   -1.3020 H   0  0  0  0  0  0  0  0  0  0  0  0
    0.0100   -2.1388   -0.0572 H   0  0  0  0  0  0  0  0  0  0  0  0
    2.3537   -1.9252    0.3123 H   0  0  0  0  0  0  0  0  0  0  0  0
    2.6665    0.4603    1.2997 H   0  0  0  0  0  0  0  0  0  0  0  0
    3.4093    0.1829   -0.3042 H   0  0  0  0  0  0  0  0  0  0  0  0
  1  2  1  0
  2  3  1  0
  3  4  1  0
  4  5  2  0
  5  6  1  0
  6  7  1  0
  7  8  1  0
  8  9  2  0
  8  3  1  0
  1 10  1  0
  1 11  1  0
  1 12  1  0
  3 13  1  0
  4 14  1  0
  5 15  1  0
  6 16  1  0
  6 17  1  0
M  END
