
     RDKit          3D

 17 17  0  0  0  0  0  0  0  0999 V2000
    2.6571   -0.0219   -0.0083 C   0  0  0  0  0  0  0  0  0  0  0  0
    1.5692    0.8129   -0.2282 O   0  0  0  0  0  0  0  0  0  0  0  0
    0.3534    0.1942    0.0104 C   0  0  0  0  0  0  0  0  0  0  0  0
   -0.4687    0.0590   -1.2673 C   0  0  0  0  0  0  0  0  0  0  0  0
   -1.4250   -0.9745   -0.9650 O   0  0  0  0  0  0  0  0  0  0  0  0
   -2.0138   -0.8134    0.3073 C   0  0  0  0  0  0  0  0  0  0  0  0
   -2.7313   -1.7025    0.8253 O   0  0  0  0  0  0  0  0  0  0  0  0
   -1.7121    0.4863    0.9699 C   0  0  0  0  0  0  0  0  0  0  0  0
   -0.3707    0.7707    1.0242 O   0  0  0  0  0  0  0  0  0  0  0  0
    3.5674    0.5778   -0.2296 H   0  0  0  0  0  0  0  0  0  0  0  0
    2.6923   -0.1937    1.1071 H   0  0  0  0  0  0  0  0  0  0  0  0
    2.6207   -0.9568   -0.5785 H   0  0  0  0  0  0  0  0  0  0  0  0
    0.5951   -0.8609    0.3305 H   0  0  0  0  0  0  0  0  0  0  0  0
    0.1683   -0.1993   -2.1105 H   0  0  0  0  0  0  0  0  0  0  0  0
   -1.0946    0.9704   -1.4387 H   0  0  0  0  0  0  0  0  0  0  0  0
   -2.2249    0.5818    1.9449 H   0  0  0  0  0  0  0  0  0  0  0  0
   -2.1826    1.2699    0.3064 H   0  0  0  0  0  0  0  0  0  0  0  0
  1  2  1  0
  2  3  1  0
  3  4  1  0
  4  5  1  0
  5  6  1  0
  6  7  2  0
  6  8  1  0
  8  9  1  0
  9  3  1  0
  1 10  1  0
  1 11  1  0
  1 12  1  0
  3 13  1  0
  4 14  1  0
  4 15  1  0
  8 16  1  0
  8 17  1  0
M  END
