
     RDKit          3D

 21 22  0  0  0  0  0  0  0  0999 V2000
    2.2816   -1.0257    0.6250 C   0  0  0  0  0  0  0  0  0  0  0  0
    1.0412   -1.1076    0.0189 O   0  0  0  0  0  0  0  0  0  0  0  0
    0.3920    0.1045   -0.0877 C   0  0  0  0  0  0  0  0  0  0  0  0
    1.1138    1.1451   -0.8808 C   0  0  0  0  0  0  0  0  0  0  0  0
   -0.3816    0.6703    1.0754 C   0  0  0  0  0  0  0  0  0  0  0  0
   -1.0561    0.0498   -0.0058 C   0  0  0  0  0  0  0  0  0  0  0  0
   -2.0296    0.5009   -0.9714 C   0  0  0  0  0  0  0  0  0  0  0  0
   -2.8825   -0.5429   -0.5340 O   0  0  0  0  0  0  0  0  0  0  0  0
   -1.8641   -1.1830    0.1952 C   0  0  0  0  0  0  0  0  0  0  0  0
    2.9637   -0.3703    0.0779 H   0  0  0  0  0  0  0  0  0  0  0  0
    2.1390   -0.7644    1.6857 H   0  0  0  0  0  0  0  0  0  0  0  0
    2.7209   -2.0558    0.5839 H   0  0  0  0  0  0  0  0  0  0  0  0
    0.4332    1.8415   -1.3969 H   0  0  0  0  0  0  0  0  0  0  0  0
    1.6963    1.7710   -0.1415 H   0  0  0  0  0  0  0  0  0  0  0  0
    1.8622    0.7362   -1.5821 H   0  0  0  0  0  0  0  0  0  0  0  0
   -0.2022    0.0749    2.0171 H   0  0  0  0  0  0  0  0  0  0  0  0
   -0.3811    1.7550    1.2692 H   0  0  0  0  0  0  0  0  0  0  0  0
   -1.7787    0.2818   -2.0424 H   0  0  0  0  0  0  0  0  0  0  0  0
   -2.4850    1.4958   -0.9145 H   0  0  0  0  0  0  0  0  0  0  0  0
   -2.1452   -1.3048    1.2763 H   0  0  0  0  0  0  0  0  0  0  0  0
   -1.4377   -2.0722   -0.2673 H   0  0  0  0  0  0  0  0  0  0  0  0
  1  2  1  0
  2  3  1  0
  3  4  1  0
  3  5  1  0
  5  6  1  0
  6  7  1  0
  7  8  1  0
  8  9  1  0
  6  3  1  0
  9  6  1  0
  1 10  1  0
  1 11  1  0
  1 12  1  0
  4 13  1  0
  4 14  1  0
  4 15  1  0
  5 16  1  0
  5 17  1  0
  7 18  1  0
  7 19  1  0
  9 20  1  0
  9 21  1  0
M  END
