
     RDKit          3D

 20 20  0  0  0  0  0  0  0  0999 V2000
   -2.1758   -0.9743    0.4426 C   0  0  0  0  0  0  0  0  0  0  0  0
   -0.8812   -0.7373    0.8751 O   0  0  0  0  0  0  0  0  0  0  0  0
   -0.3296    0.2717    0.0917 C   0  0  0  0  0  0  0  0  0  0  0  0
   -1.1029    1.5825    0.1719 C   0  0  0  0  0  0  0  0  0  0  0  0
    0.2602   -0.0921   -1.1989 C   0  0  0  0  0  0  0  0  0  0  0  0
    1.1494    0.3354   -0.0145 C   0  0  0  0  0  0  0  0  0  0  0  0
    2.0333   -0.7535    0.4996 C   0  0  0  0  0  0  0  0  0  0  0  0
    3.3570   -0.3956    0.2504 O   0  0  0  0  0  0  0  0  0  0  0  0
   -2.8245   -0.0644    0.5254 H   0  0  0  0  0  0  0  0  0  0  0  0
   -2.6596   -1.7651    1.0709 H   0  0  0  0  0  0  0  0  0  0  0  0
   -2.1907   -1.3664   -0.5910 H   0  0  0  0  0  0  0  0  0  0  0  0
   -1.9671    1.4670   -0.5146 H   0  0  0  0  0  0  0  0  0  0  0  0
   -1.4557    1.7953    1.1899 H   0  0  0  0  0  0  0  0  0  0  0  0
   -0.4832    2.4041   -0.2379 H   0  0  0  0  0  0  0  0  0  0  0  0
    0.2522   -1.1637   -1.4722 H   0  0  0  0  0  0  0  0  0  0  0  0
    0.3003    0.5970   -2.0605 H   0  0  0  0  0  0  0  0  0  0  0  0
    1.6122    1.3500   -0.0854 H   0  0  0  0  0  0  0  0  0  0  0  0
    1.7969   -1.7360    0.0366 H   0  0  0  0  0  0  0  0  0  0  0  0
    1.9526   -0.9077    1.5952 H   0  0  0  0  0  0  0  0  0  0  0  0
    3.3560    0.1532   -0.5741 H   0  0  0  0  0  0  0  0  0  0  0  0
  1  2  1  0
  2  3  1  0
  3  4  1  0
  3  5  1  0
  5  6  1  0
  6  7  1  0
  7  8  1  0
  6  3  1  0
  1  9  1  0
  1 10  1  0
  1 11  1  0
  4 12  1  0
  4 13  1  0
  4 14  1  0
  5 15  1  0
  5 16  1  0
  6 17  1  0
  7 18  1  0
  7 19  1  0
  8 20  1  0
M  END
