
     RDKit          3D

 20 20  0  0  0  0  0  0  0  0999 V2000
    3.0503   -0.0280   -0.3980 C   0  0  0  0  0  0  0  0  0  0  0  0
    1.7650    0.3424   -0.7586 O   0  0  0  0  0  0  0  0  0  0  0  0
    0.8650    0.2340    0.3022 C   0  0  0  0  0  0  0  0  0  0  0  0
   -0.1463   -0.8223   -0.0955 C   0  0  0  0  0  0  0  0  0  0  0  0
   -1.4893   -0.3055    0.3688 C   0  0  0  0  0  0  0  0  0  0  0  0
   -2.3192   -0.0257   -0.8825 C   0  0  0  0  0  0  0  0  0  0  0  0
   -1.1005    0.9839    1.0581 C   0  0  0  0  0  0  0  0  0  0  0  0
    0.1152    1.3665    0.4938 O   0  0  0  0  0  0  0  0  0  0  0  0
    3.4664    0.5761    0.4080 H   0  0  0  0  0  0  0  0  0  0  0  0
    3.0830   -1.1152   -0.0965 H   0  0  0  0  0  0  0  0  0  0  0  0
    3.6818    0.0758   -1.3045 H   0  0  0  0  0  0  0  0  0  0  0  0
    1.3629   -0.1295    1.2277 H   0  0  0  0  0  0  0  0  0  0  0  0
    0.0807   -1.7986    0.4185 H   0  0  0  0  0  0  0  0  0  0  0  0
   -0.1255   -1.0113   -1.1930 H   0  0  0  0  0  0  0  0  0  0  0  0
   -2.0085   -1.0110    1.0427 H   0  0  0  0  0  0  0  0  0  0  0  0
   -3.2483    0.5115   -0.6562 H   0  0  0  0  0  0  0  0  0  0  0  0
   -2.4726   -0.9959   -1.3966 H   0  0  0  0  0  0  0  0  0  0  0  0
   -1.6469    0.5662   -1.5673 H   0  0  0  0  0  0  0  0  0  0  0  0
   -1.0433    0.8247    2.1473 H   0  0  0  0  0  0  0  0  0  0  0  0
   -1.8699    1.7619    0.8818 H   0  0  0  0  0  0  0  0  0  0  0  0
  1  2  1  0
  2  3  1  0
  3  4  1  0
  4  5  1  0
  5  6  1  0
  5  7  1  0
  7  8  1  0
  8  3  1  0
  1  9  1  0
  1 10  1  0
  1 11  1  0
  3 12  1  0
  4 13  1  0
  4 14  1  0
  5 15  1  0
  6 16  1  0
  6 17  1  0
  6 18  1  0
  7 19  1  0
  7 20  1  0
M  END
