
     RDKit          3D

 21 23  0  0  0  0  0  0  0  0999 V2000
   -2.6562    0.0529   -0.7668 C   0  0  0  0  0  0  0  0  0  0  0  0
   -1.5786    0.8654   -0.5757 O   0  0  0  0  0  0  0  0  0  0  0  0
   -0.5790    0.3883    0.1946 C   0  0  0  0  0  0  0  0  0  0  0  0
    0.6138    1.3423    0.3800 C   0  0  0  0  0  0  0  0  0  0  0  0
    1.7378    0.3985    0.4489 C   0  0  0  0  0  0  0  0  0  0  0  0
    2.6158   -0.1868   -0.4881 C   0  0  0  0  0  0  0  0  0  0  0  0
    1.2685   -0.3781   -0.8437 C   0  0  0  0  0  0  0  0  0  0  0  0
    0.0875   -0.9762   -0.2317 C   0  0  0  0  0  0  0  0  0  0  0  0
   -0.5771   -0.7901    1.0220 C   0  0  0  0  0  0  0  0  0  0  0  0
   -3.1878   -0.2359    0.1585 H   0  0  0  0  0  0  0  0  0  0  0  0
   -3.4112    0.6102   -1.3818 H   0  0  0  0  0  0  0  0  0  0  0  0
   -2.3870   -0.8470   -1.3600 H   0  0  0  0  0  0  0  0  0  0  0  0
    0.6881    1.9274   -0.5672 H   0  0  0  0  0  0  0  0  0  0  0  0
    0.4870    1.9809    1.2559 H   0  0  0  0  0  0  0  0  0  0  0  0
    1.6639   -0.1802    1.4142 H   0  0  0  0  0  0  0  0  0  0  0  0
    3.2174   -1.1016   -0.2274 H   0  0  0  0  0  0  0  0  0  0  0  0
    3.2866    0.5027   -1.0695 H   0  0  0  0  0  0  0  0  0  0  0  0
    0.9389    0.2910   -1.7072 H   0  0  0  0  0  0  0  0  0  0  0  0
   -0.5108   -1.5651   -1.0064 H   0  0  0  0  0  0  0  0  0  0  0  0
   -1.6019   -1.2675    1.1480 H   0  0  0  0  0  0  0  0  0  0  0  0
   -0.1155   -0.8310    2.0518 H   0  0  0  0  0  0  0  0  0  0  0  0
  1  2  1  0
  2  3  1  0
  3  4  1  0
  4  5  1  0
  5  6  1  0
  6  7  1  0
  7  8  1  0
  8  9  1  0
  8  3  1  0
  9  3  1  0
  7  5  1  0
  1 10  1  0
  1 11  1  0
  1 12  1  0
  4 13  1  0
  4 14  1  0
  5 15  1  0
  6 16  1  0
  6 17  1  0
  7 18  1  0
  8 19  1  0
  9 20  1  0
  9 21  1  0
M  END
