
     RDKit          3D

 23 24  0  0  0  0  0  0  0  0999 V2000
    2.6676    0.0727    0.5172 C   0  0  0  0  0  0  0  0  0  0  0  0
    1.5257    0.8556    0.6260 O   0  0  0  0  0  0  0  0  0  0  0  0
    0.5276    0.2638   -0.1479 C   0  0  0  0  0  0  0  0  0  0  0  0
    0.8921    0.1518   -1.6071 C   0  0  0  0  0  0  0  0  0  0  0  0
   -0.2314   -0.8153    0.5348 C   0  0  0  0  0  0  0  0  0  0  0  0
   -1.2944   -1.5834   -0.2044 C   0  0  0  0  0  0  0  0  0  0  0  0
   -1.9423   -0.2464   -0.5440 C   0  0  0  0  0  0  0  0  0  0  0  0
   -0.8833    0.4707    0.2193 C   0  0  0  0  0  0  0  0  0  0  0  0
   -1.3127    1.4358    1.2763 C   0  0  0  0  0  0  0  0  0  0  0  0
    3.0204   -0.0046   -0.5321 H   0  0  0  0  0  0  0  0  0  0  0  0
    3.4915    0.4677    1.1611 H   0  0  0  0  0  0  0  0  0  0  0  0
    2.4573   -0.9813    0.8529 H   0  0  0  0  0  0  0  0  0  0  0  0
    0.0324    0.0147   -2.2708 H   0  0  0  0  0  0  0  0  0  0  0  0
    1.4785    1.0798   -1.8673 H   0  0  0  0  0  0  0  0  0  0  0  0
    1.5857   -0.6987   -1.8055 H   0  0  0  0  0  0  0  0  0  0  0  0
    0.0290   -1.1145    1.5707 H   0  0  0  0  0  0  0  0  0  0  0  0
   -1.9016   -2.2053    0.4597 H   0  0  0  0  0  0  0  0  0  0  0  0
   -0.9484   -2.1371   -1.1064 H   0  0  0  0  0  0  0  0  0  0  0  0
   -1.8982   -0.0057   -1.6125 H   0  0  0  0  0  0  0  0  0  0  0  0
   -2.9600   -0.1864   -0.0910 H   0  0  0  0  0  0  0  0  0  0  0  0
   -2.2837    1.1406    1.7093 H   0  0  0  0  0  0  0  0  0  0  0  0
   -0.5941    1.5911    2.0838 H   0  0  0  0  0  0  0  0  0  0  0  0
   -1.4575    2.4344    0.7780 H   0  0  0  0  0  0  0  0  0  0  0  0
  1  2  1  0
  2  3  1  0
  3  4  1  0
  3  5  1  0
  5  6  1  0
  6  7  1  0
  7  8  1  0
  8  9  1  0
  8  3  1  0
  8  5  1  0
  1 10  1  0
  1 11  1  0
  1 12  1  0
  4 13  1  0
  4 14  1  0
  4 15  1  0
  5 16  1  0
  6 17  1  0
  6 18  1  0
  7 19  1  0
  7 20  1  0
  9 21  1  0
  9 22  1  0
  9 23  1  0
M  END
