
     RDKit          3D

 21 22  0  0  0  0  0  0  0  0999 V2000
   -2.4978   -0.9845    0.2550 C   0  0  0  0  0  0  0  0  0  0  0  0
   -2.1563    0.3150    0.3357 O   0  0  0  0  0  0  0  0  0  0  0  0
   -0.8624    0.6636    0.1760 C   0  0  0  0  0  0  0  0  0  0  0  0
   -0.6086    2.1740    0.2913 C   0  0  0  0  0  0  0  0  0  0  0  0
    0.1424   -0.1411    0.9710 C   0  0  0  0  0  0  0  0  0  0  0  0
    1.4148    0.3944    1.1202 O   0  0  0  0  0  0  0  0  0  0  0  0
    1.6137    0.1964   -0.2404 C   0  0  0  0  0  0  0  0  0  0  0  0
    2.5109   -1.0231   -0.4348 C   0  0  0  0  0  0  0  0  0  0  0  0
    0.1782   -0.1215   -0.4867 C   0  0  0  0  0  0  0  0  0  0  0  0
   -3.5915   -1.0867    0.4097 H   0  0  0  0  0  0  0  0  0  0  0  0
   -2.0097   -1.6800    0.9437 H   0  0  0  0  0  0  0  0  0  0  0  0
   -2.3042   -1.3406   -0.7964 H   0  0  0  0  0  0  0  0  0  0  0  0
    0.2427    2.4866   -0.3363 H   0  0  0  0  0  0  0  0  0  0  0  0
   -0.4652    2.4158    1.3586 H   0  0  0  0  0  0  0  0  0  0  0  0
   -1.5322    2.7134   -0.0627 H   0  0  0  0  0  0  0  0  0  0  0  0
   -0.1428   -1.0565    1.4796 H   0  0  0  0  0  0  0  0  0  0  0  0
    2.0266    1.0800   -0.7441 H   0  0  0  0  0  0  0  0  0  0  0  0
    3.5226   -0.8644   -0.0708 H   0  0  0  0  0  0  0  0  0  0  0  0
    2.0171   -1.8649    0.1183 H   0  0  0  0  0  0  0  0  0  0  0  0
    2.5129   -1.2758   -1.5206 H   0  0  0  0  0  0  0  0  0  0  0  0
   -0.0112   -1.0002   -1.1218 H   0  0  0  0  0  0  0  0  0  0  0  0
  1  2  1  0
  2  3  1  0
  3  4  1  0
  3  5  1  0
  5  6  1  0
  6  7  1  0
  7  8  1  0
  7  9  1  0
  9  3  1  0
  9  5  1  0
  1 10  1  0
  1 11  1  0
  1 12  1  0
  4 13  1  0
  4 14  1  0
  4 15  1  0
  5 16  1  0
  7 17  1  0
  8 18  1  0
  8 19  1  0
  8 20  1  0
  9 21  1  0
M  END
