
     RDKit          3D

 21 21  0  0  0  0  0  0  0  0999 V2000
   -3.0168    0.0312    0.9160 C   0  0  0  0  0  0  0  0  0  0  0  0
   -2.0975    0.0100   -0.1361 O   0  0  0  0  0  0  0  0  0  0  0  0
   -0.7975    0.0411    0.2881 C   0  0  0  0  0  0  0  0  0  0  0  0
   -0.0297   -1.2256   -0.0546 C   0  0  0  0  0  0  0  0  0  0  0  0
    1.1941   -1.1370    0.5470 O   0  0  0  0  0  0  0  0  0  0  0  0
    2.2264   -0.7444   -0.2687 C   0  0  0  0  0  0  0  0  0  0  0  0
    2.0787    0.6249   -0.8563 C   0  0  0  0  0  0  0  0  0  0  0  0
    0.7807    0.9172   -1.2567 O   0  0  0  0  0  0  0  0  0  0  0  0
   -0.0242    1.2362   -0.1651 C   0  0  0  0  0  0  0  0  0  0  0  0
   -4.0585    0.0050    0.5371 H   0  0  0  0  0  0  0  0  0  0  0  0
   -2.8647   -0.9095    1.4867 H   0  0  0  0  0  0  0  0  0  0  0  0
   -2.8292    0.9409    1.5539 H   0  0  0  0  0  0  0  0  0  0  0  0
   -0.8196    0.0769    1.4151 H   0  0  0  0  0  0  0  0  0  0  0  0
    0.1178   -1.2477   -1.1531 H   0  0  0  0  0  0  0  0  0  0  0  0
   -0.5829   -2.1194    0.2887 H   0  0  0  0  0  0  0  0  0  0  0  0
    3.1585   -0.7643    0.3350 H   0  0  0  0  0  0  0  0  0  0  0  0
    2.3657   -1.4968   -1.0842 H   0  0  0  0  0  0  0  0  0  0  0  0
    2.7070    0.6613   -1.7788 H   0  0  0  0  0  0  0  0  0  0  0  0
    2.4861    1.4010   -0.1754 H   0  0  0  0  0  0  0  0  0  0  0  0
    0.6821    1.5994    0.6328 H   0  0  0  0  0  0  0  0  0  0  0  0
   -0.6765    2.0994   -0.4016 H   0  0  0  0  0  0  0  0  0  0  0  0
  1  2  1  0
  2  3  1  0
  3  4  1  0
  4  5  1  0
  5  6  1  0
  6  7  1  0
  7  8  1  0
  8  9  1  0
  9  3  1  0
  1 10  1  0
  1 11  1  0
  1 12  1  0
  3 13  1  0
  4 14  1  0
  4 15  1  0
  6 16  1  0
  6 17  1  0
  7 18  1  0
  7 19  1  0
  9 20  1  0
  9 21  1  0
M  END
