
     RDKit          3D

 21 22  0  0  0  0  0  0  0  0999 V2000
    2.6391    0.1988   -0.3558 C   0  0  0  0  0  0  0  0  0  0  0  0
    1.5624   -0.2555    0.3992 O   0  0  0  0  0  0  0  0  0  0  0  0
    0.4082    0.4400    0.1973 C   0  0  0  0  0  0  0  0  0  0  0  0
   -0.1282    1.1247    1.4312 C   0  0  0  0  0  0  0  0  0  0  0  0
   -1.5715    1.3284    1.0436 C   0  0  0  0  0  0  0  0  0  0  0  0
   -1.9151    0.4918    0.0909 C   0  0  0  0  0  0  0  0  0  0  0  0
   -0.7529   -0.3656   -0.2710 C   0  0  0  0  0  0  0  0  0  0  0  0
   -0.8350   -1.8290   -0.0978 C   0  0  0  0  0  0  0  0  0  0  0  0
   -0.7367   -1.1738   -1.4986 C   0  0  0  0  0  0  0  0  0  0  0  0
    2.4425    0.1383   -1.4477 H   0  0  0  0  0  0  0  0  0  0  0  0
    2.9640    1.2218   -0.0394 H   0  0  0  0  0  0  0  0  0  0  0  0
    3.4899   -0.4883   -0.1587 H   0  0  0  0  0  0  0  0  0  0  0  0
    0.5882    1.2479   -0.5550 H   0  0  0  0  0  0  0  0  0  0  0  0
    0.3641    2.1059    1.6128 H   0  0  0  0  0  0  0  0  0  0  0  0
   -0.1410    0.4733    2.3163 H   0  0  0  0  0  0  0  0  0  0  0  0
   -2.1782    2.0911    1.5388 H   0  0  0  0  0  0  0  0  0  0  0  0
   -2.8968    0.4074   -0.3895 H   0  0  0  0  0  0  0  0  0  0  0  0
   -1.8437   -2.2193    0.1761 H   0  0  0  0  0  0  0  0  0  0  0  0
    0.0123   -2.4646    0.1496 H   0  0  0  0  0  0  0  0  0  0  0  0
   -1.6889   -1.1584   -2.0942 H   0  0  0  0  0  0  0  0  0  0  0  0
    0.2171   -1.3148   -2.0481 H   0  0  0  0  0  0  0  0  0  0  0  0
  1  2  1  0
  2  3  1  0
  3  4  1  0
  4  5  1  0
  5  6  2  0
  6  7  1  0
  7  8  1  0
  8  9  1  0
  7  3  1  0
  9  7  1  0
  1 10  1  0
  1 11  1  0
  1 12  1  0
  3 13  1  0
  4 14  1  0
  4 15  1  0
  5 16  1  0
  6 17  1  0
  8 18  1  0
  8 19  1  0
  9 20  1  0
  9 21  1  0
M  END
