
     RDKit          3D

 21 21  0  0  0  0  0  0  0  0999 V2000
    3.0743    0.4689   -0.4337 C   0  0  0  0  0  0  0  0  0  0  0  0
    1.8838    0.7026    0.2477 O   0  0  0  0  0  0  0  0  0  0  0  0
    1.0359   -0.3576    0.0267 C   0  0  0  0  0  0  0  0  0  0  0  0
    0.2936   -0.7964    1.2880 C   0  0  0  0  0  0  0  0  0  0  0  0
   -0.4323   -0.2107    0.0687 C   0  0  0  0  0  0  0  0  0  0  0  0
   -1.2524   -1.2465   -0.6554 C   0  0  0  0  0  0  0  0  0  0  0  0
   -1.0816    1.0753    0.3559 C   0  0  0  0  0  0  0  0  0  0  0  0
   -2.4901    1.2641   -0.0838 C   0  0  0  0  0  0  0  0  0  0  0  0
   -0.5385    2.0035    0.9345 O   0  0  0  0  0  0  0  0  0  0  0  0
    3.8050    1.2996   -0.2911 H   0  0  0  0  0  0  0  0  0  0  0  0
    3.6011   -0.4473   -0.0479 H   0  0  0  0  0  0  0  0  0  0  0  0
    2.8493    0.2854   -1.4981 H   0  0  0  0  0  0  0  0  0  0  0  0
    1.4220   -1.1787   -0.6235 H   0  0  0  0  0  0  0  0  0  0  0  0
    0.3785   -0.1889    2.1999 H   0  0  0  0  0  0  0  0  0  0  0  0
    0.2734   -1.8742    1.4614 H   0  0  0  0  0  0  0  0  0  0  0  0
   -2.0929   -1.5455    0.0084 H   0  0  0  0  0  0  0  0  0  0  0  0
   -0.6105   -2.1674   -0.7513 H   0  0  0  0  0  0  0  0  0  0  0  0
   -1.5673   -0.9462   -1.6541 H   0  0  0  0  0  0  0  0  0  0  0  0
   -2.6602    2.3126   -0.3980 H   0  0  0  0  0  0  0  0  0  0  0  0
   -2.7271    0.5689   -0.9153 H   0  0  0  0  0  0  0  0  0  0  0  0
   -3.1641    0.9783    0.7610 H   0  0  0  0  0  0  0  0  0  0  0  0
  1  2  1  0
  2  3  1  0
  3  4  1  0
  4  5  1  0
  5  6  1  0
  5  7  1  0
  7  8  1  0
  7  9  2  0
  5  3  1  0
  1 10  1  0
  1 11  1  0
  1 12  1  0
  3 13  1  0
  4 14  1  0
  4 15  1  0
  6 16  1  0
  6 17  1  0
  6 18  1  0
  8 19  1  0
  8 20  1  0
  8 21  1  0
M  END
