
     RDKit          3D

 23 23  0  0  0  0  0  0  0  0999 V2000
    2.4691    0.9000    0.5156 C   0  0  0  0  0  0  0  0  0  0  0  0
    1.3501    0.2689    1.0700 O   0  0  0  0  0  0  0  0  0  0  0  0
    0.5471   -0.2591    0.1155 C   0  0  0  0  0  0  0  0  0  0  0  0
    0.3206   -1.7473    0.2217 C   0  0  0  0  0  0  0  0  0  0  0  0
   -1.0104   -1.9767   -0.4665 C   0  0  0  0  0  0  0  0  0  0  0  0
   -1.4403   -0.5977   -0.9920 C   0  0  0  0  0  0  0  0  0  0  0  0
   -0.8785    0.2565    0.1249 C   0  0  0  0  0  0  0  0  0  0  0  0
   -0.9755    1.7216   -0.1439 C   0  0  0  0  0  0  0  0  0  0  0  0
   -0.2591    2.3879    0.8500 O   0  0  0  0  0  0  0  0  0  0  0  0
    3.0861    0.1907   -0.0769 H   0  0  0  0  0  0  0  0  0  0  0  0
    3.1181    1.2918    1.3214 H   0  0  0  0  0  0  0  0  0  0  0  0
    2.2061    1.7243   -0.1668 H   0  0  0  0  0  0  0  0  0  0  0  0
    0.9413   -0.0810   -0.9175 H   0  0  0  0  0  0  0  0  0  0  0  0
    1.1374   -2.3185   -0.2559 H   0  0  0  0  0  0  0  0  0  0  0  0
    0.1954   -2.0521    1.2992 H   0  0  0  0  0  0  0  0  0  0  0  0
   -0.9508   -2.7169   -1.2599 H   0  0  0  0  0  0  0  0  0  0  0  0
   -1.8083   -2.2524    0.2740 H   0  0  0  0  0  0  0  0  0  0  0  0
   -0.8657   -0.3785   -1.9309 H   0  0  0  0  0  0  0  0  0  0  0  0
   -2.5125   -0.5198   -1.1181 H   0  0  0  0  0  0  0  0  0  0  0  0
   -1.4172   -0.0509    1.0507 H   0  0  0  0  0  0  0  0  0  0  0  0
   -0.4991    1.9089   -1.1370 H   0  0  0  0  0  0  0  0  0  0  0  0
   -2.0122    2.0401   -0.0901 H   0  0  0  0  0  0  0  0  0  0  0  0
   -0.7417    2.2603    1.7126 H   0  0  0  0  0  0  0  0  0  0  0  0
  1  2  1  0
  2  3  1  0
  3  4  1  0
  4  5  1  0
  5  6  1  0
  6  7  1  0
  7  8  1  0
  8  9  1  0
  7  3  1  0
  1 10  1  0
  1 11  1  0
  1 12  1  0
  3 13  1  0
  4 14  1  0
  4 15  1  0
  5 16  1  0
  5 17  1  0
  6 18  1  0
  6 19  1  0
  7 20  1  0
  8 21  1  0
  8 22  1  0
  9 23  1  0
M  END
