
     RDKit          3D

 21 22  0  0  0  0  0  0  0  0999 V2000
    2.8217    0.8216   -0.0666 C   0  0  0  0  0  0  0  0  0  0  0  0
    1.5565    0.6456   -0.5726 O   0  0  0  0  0  0  0  0  0  0  0  0
    0.7566   -0.1861    0.1711 C   0  0  0  0  0  0  0  0  0  0  0  0
    0.2932   -1.3798   -0.6048 C   0  0  0  0  0  0  0  0  0  0  0  0
   -0.9585   -1.3416   -1.0495 C   0  0  0  0  0  0  0  0  0  0  0  0
   -1.9106   -0.4592   -0.3430 C   0  0  0  0  0  0  0  0  0  0  0  0
   -1.3794    0.9651   -0.4840 C   0  0  0  0  0  0  0  0  0  0  0  0
   -0.4277    0.6074    0.6623 C   0  0  0  0  0  0  0  0  0  0  0  0
   -1.5211   -0.3400    1.1374 C   0  0  0  0  0  0  0  0  0  0  0  0
    3.3695    1.5069   -0.7466 H   0  0  0  0  0  0  0  0  0  0  0  0
    3.3873   -0.1024    0.0859 H   0  0  0  0  0  0  0  0  0  0  0  0
    2.7247    1.3132    0.9345 H   0  0  0  0  0  0  0  0  0  0  0  0
    1.2867   -0.5675    1.0551 H   0  0  0  0  0  0  0  0  0  0  0  0
    0.9566   -2.2186   -0.7834 H   0  0  0  0  0  0  0  0  0  0  0  0
   -1.3204   -1.9153   -1.8941 H   0  0  0  0  0  0  0  0  0  0  0  0
   -2.9681   -0.5943   -0.5361 H   0  0  0  0  0  0  0  0  0  0  0  0
   -0.8892    1.1746   -1.4381 H   0  0  0  0  0  0  0  0  0  0  0  0
   -2.1262    1.6970   -0.1334 H   0  0  0  0  0  0  0  0  0  0  0  0
   -0.1728    1.4207    1.3302 H   0  0  0  0  0  0  0  0  0  0  0  0
   -2.3057    0.2208    1.6836 H   0  0  0  0  0  0  0  0  0  0  0  0
   -1.1733   -1.2681    1.5921 H   0  0  0  0  0  0  0  0  0  0  0  0
  1  2  1  0
  2  3  1  0
  3  4  1  0
  4  5  2  0
  5  6  1  0
  6  7  1  0
  7  8  1  0
  8  9  1  0
  8  3  1  0
  9  6  1  0
  1 10  1  0
  1 11  1  0
  1 12  1  0
  3 13  1  0
  4 14  1  0
  5 15  1  0
  6 16  1  0
  7 17  1  0
  7 18  1  0
  8 19  1  0
  9 20  1  0
  9 21  1  0
M  END
