
     RDKit          3D

 23 23  0  0  0  0  0  0  0  0999 V2000
    2.7461    0.4924   -0.2852 C   0  0  0  0  0  0  0  0  0  0  0  0
    1.5900   -0.1997   -0.6687 O   0  0  0  0  0  0  0  0  0  0  0  0
    0.6415   -0.0173    0.2988 C   0  0  0  0  0  0  0  0  0  0  0  0
    0.1338   -1.3321    0.8773 C   0  0  0  0  0  0  0  0  0  0  0  0
   -1.3621   -1.1812    0.9851 C   0  0  0  0  0  0  0  0  0  0  0  0
   -1.6151    0.3042    0.8077 C   0  0  0  0  0  0  0  0  0  0  0  0
   -0.5971    0.6593   -0.2431 C   0  0  0  0  0  0  0  0  0  0  0  0
   -1.0486    0.1322   -1.5566 C   0  0  0  0  0  0  0  0  0  0  0  0
   -0.3311    2.0105   -0.3212 O   0  0  0  0  0  0  0  0  0  0  0  0
    3.5621    0.3878   -1.0282 H   0  0  0  0  0  0  0  0  0  0  0  0
    3.0353    0.0707    0.7030 H   0  0  0  0  0  0  0  0  0  0  0  0
    2.5588    1.5723   -0.1614 H   0  0  0  0  0  0  0  0  0  0  0  0
    1.0077    0.6176    1.1305 H   0  0  0  0  0  0  0  0  0  0  0  0
    0.5743   -1.5708    1.8472 H   0  0  0  0  0  0  0  0  0  0  0  0
    0.3917   -2.1132    0.1290 H   0  0  0  0  0  0  0  0  0  0  0  0
   -1.6845   -1.5402    1.9823 H   0  0  0  0  0  0  0  0  0  0  0  0
   -1.8589   -1.7808    0.2136 H   0  0  0  0  0  0  0  0  0  0  0  0
   -2.6517    0.4622    0.4893 H   0  0  0  0  0  0  0  0  0  0  0  0
   -1.4095    0.7758    1.7869 H   0  0  0  0  0  0  0  0  0  0  0  0
   -1.5173    0.9688   -2.1451 H   0  0  0  0  0  0  0  0  0  0  0  0
   -1.8665   -0.6353   -1.4739 H   0  0  0  0  0  0  0  0  0  0  0  0
   -0.1710   -0.2920   -2.0952 H   0  0  0  0  0  0  0  0  0  0  0  0
   -0.1279    2.2090   -1.2723 H   0  0  0  0  0  0  0  0  0  0  0  0
  1  2  1  0
  2  3  1  0
  3  4  1  0
  4  5  1  0
  5  6  1  0
  6  7  1  0
  7  8  1  0
  7  9  1  0
  7  3  1  0
  1 10  1  0
  1 11  1  0
  1 12  1  0
  3 13  1  0
  4 14  1  0
  4 15  1  0
  5 16  1  0
  5 17  1  0
  6 18  1  0
  6 19  1  0
  8 20  1  0
  8 21  1  0
  8 22  1  0
  9 23  1  0
M  END
