
     RDKit          3D

 19 21  0  0  0  0  0  0  0  0999 V2000
    3.1550    0.5554    0.1355 C   0  0  0  0  0  0  0  0  0  0  0  0
    1.8962    1.0732   -0.0618 O   0  0  0  0  0  0  0  0  0  0  0  0
    0.8808    0.1572    0.0728 C   0  0  0  0  0  0  0  0  0  0  0  0
   -0.2944    0.3273   -0.8154 C   0  0  0  0  0  0  0  0  0  0  0  0
   -1.4756   -0.5835   -0.7289 C   0  0  0  0  0  0  0  0  0  0  0  0
   -2.7425   -0.0640   -0.0353 C   0  0  0  0  0  0  0  0  0  0  0  0
   -1.5217   -0.3909    0.7324 C   0  0  0  0  0  0  0  0  0  0  0  0
   -1.4804   -1.4654    1.6163 O   0  0  0  0  0  0  0  0  0  0  0  0
   -0.3894    0.5798    0.7100 C   0  0  0  0  0  0  0  0  0  0  0  0
    3.2218    0.1405    1.1631 H   0  0  0  0  0  0  0  0  0  0  0  0
    3.8784    1.4027    0.1058 H   0  0  0  0  0  0  0  0  0  0  0  0
    3.4557   -0.2119   -0.5888 H   0  0  0  0  0  0  0  0  0  0  0  0
    1.2121   -0.8738    0.3218 H   0  0  0  0  0  0  0  0  0  0  0  0
   -0.3222    1.2218   -1.4680 H   0  0  0  0  0  0  0  0  0  0  0  0
   -1.5022   -1.5541   -1.2217 H   0  0  0  0  0  0  0  0  0  0  0  0
   -3.5741   -0.7649    0.0116 H   0  0  0  0  0  0  0  0  0  0  0  0
   -2.9497    0.9888   -0.3031 H   0  0  0  0  0  0  0  0  0  0  0  0
   -0.8468   -2.1641    1.3522 H   0  0  0  0  0  0  0  0  0  0  0  0
   -0.6008    1.6260    0.9727 H   0  0  0  0  0  0  0  0  0  0  0  0
  1  2  1  0
  2  3  1  0
  3  4  1  0
  4  5  1  0
  5  6  1  0
  6  7  1  0
  7  8  1  0
  7  9  1  0
  9  3  1  0
  9  4  1  0
  7  5  1  0
  1 10  1  0
  1 11  1  0
  1 12  1  0
  3 13  1  0
  4 14  1  0
  5 15  1  0
  6 16  1  0
  6 17  1  0
  8 18  1  0
  9 19  1  0
M  END
