
     RDKit          3D

 21 22  0  0  0  0  0  0  0  0999 V2000
    3.0806    0.3702   -0.9148 C   0  0  0  0  0  0  0  0  0  0  0  0
    1.7235    0.6474   -0.8476 O   0  0  0  0  0  0  0  0  0  0  0  0
    1.1862    0.0322    0.2470 C   0  0  0  0  0  0  0  0  0  0  0  0
    0.2982    0.9565    1.1180 C   0  0  0  0  0  0  0  0  0  0  0  0
   -0.2379   -0.2199    0.4389 C   0  0  0  0  0  0  0  0  0  0  0  0
   -0.6402   -1.3672    1.0346 O   0  0  0  0  0  0  0  0  0  0  0  0
   -1.4435   -1.6523   -0.0696 C   0  0  0  0  0  0  0  0  0  0  0  0
   -1.2808   -0.2359   -0.5811 C   0  0  0  0  0  0  0  0  0  0  0  0
   -2.5357    0.5719   -0.2405 C   0  0  0  0  0  0  0  0  0  0  0  0
    3.5797    0.8453   -1.7895 H   0  0  0  0  0  0  0  0  0  0  0  0
    3.2974   -0.7230   -0.9650 H   0  0  0  0  0  0  0  0  0  0  0  0
    3.5972    0.7662   -0.0099 H   0  0  0  0  0  0  0  0  0  0  0  0
    1.9063   -0.5551    0.8599 H   0  0  0  0  0  0  0  0  0  0  0  0
    0.0974    1.9676    0.7230 H   0  0  0  0  0  0  0  0  0  0  0  0
    0.4125    0.8863    2.2177 H   0  0  0  0  0  0  0  0  0  0  0  0
   -2.4764   -1.8928    0.3036 H   0  0  0  0  0  0  0  0  0  0  0  0
   -1.0514   -2.4044   -0.7642 H   0  0  0  0  0  0  0  0  0  0  0  0
   -1.0157   -0.2114   -1.6461 H   0  0  0  0  0  0  0  0  0  0  0  0
   -3.4398    0.1071   -0.6579 H   0  0  0  0  0  0  0  0  0  0  0  0
   -2.6392    0.4796    0.8790 H   0  0  0  0  0  0  0  0  0  0  0  0
   -2.4186    1.6318   -0.4548 H   0  0  0  0  0  0  0  0  0  0  0  0
  1  2  1  0
  2  3  1  0
  3  4  1  0
  4  5  1  0
  5  6  1  0
  6  7  1  0
  7  8  1  0
  8  9  1  0
  5  3  1  0
  8  5  1  0
  1 10  1  0
  1 11  1  0
  1 12  1  0
  3 13  1  0
  4 14  1  0
  4 15  1  0
  7 16  1  0
  7 17  1  0
  8 18  1  0
  9 19  1  0
  9 20  1  0
  9 21  1  0
M  END
