
     RDKit          3D

 21 22  0  0  0  0  0  0  0  0999 V2000
    3.1115   -0.0709    0.3696 C   0  0  0  0  0  0  0  0  0  0  0  0
    1.8279   -0.1687    0.8918 O   0  0  0  0  0  0  0  0  0  0  0  0
    0.9003   -0.0693   -0.1409 C   0  0  0  0  0  0  0  0  0  0  0  0
   -0.0226   -1.2760   -0.1700 C   0  0  0  0  0  0  0  0  0  0  0  0
   -1.2602   -0.9127    0.6285 C   0  0  0  0  0  0  0  0  0  0  0  0
   -2.0329    0.0507   -0.2117 C   0  0  0  0  0  0  0  0  0  0  0  0
   -2.2546    1.4464    0.1295 C   0  0  0  0  0  0  0  0  0  0  0  0
   -1.0165    1.1378   -0.6494 C   0  0  0  0  0  0  0  0  0  0  0  0
    0.1389    1.0675    0.1006 O   0  0  0  0  0  0  0  0  0  0  0  0
    3.2763    0.8880   -0.1500 H   0  0  0  0  0  0  0  0  0  0  0  0
    3.8436   -0.0801    1.2237 H   0  0  0  0  0  0  0  0  0  0  0  0
    3.3328   -0.8992   -0.3441 H   0  0  0  0  0  0  0  0  0  0  0  0
    1.4358    0.0599   -1.0911 H   0  0  0  0  0  0  0  0  0  0  0  0
   -0.3009   -1.4760   -1.2473 H   0  0  0  0  0  0  0  0  0  0  0  0
    0.5026   -2.1536    0.2152 H   0  0  0  0  0  0  0  0  0  0  0  0
   -0.8869   -0.3789    1.5507 H   0  0  0  0  0  0  0  0  0  0  0  0
   -1.8333   -1.8186    0.9073 H   0  0  0  0  0  0  0  0  0  0  0  0
   -2.6218   -0.4158   -1.0251 H   0  0  0  0  0  0  0  0  0  0  0  0
   -2.1471    1.7965    1.1764 H   0  0  0  0  0  0  0  0  0  0  0  0
   -3.0396    1.9846   -0.4339 H   0  0  0  0  0  0  0  0  0  0  0  0
   -0.9535    1.2886   -1.7299 H   0  0  0  0  0  0  0  0  0  0  0  0
  1  2  1  0
  2  3  1  0
  3  4  1  0
  4  5  1  0
  5  6  1  0
  6  7  1  0
  7  8  1  0
  8  9  1  0
  9  3  1  0
  8  6  1  0
  1 10  1  0
  1 11  1  0
  1 12  1  0
  3 13  1  0
  4 14  1  0
  4 15  1  0
  5 16  1  0
  5 17  1  0
  6 18  1  0
  7 19  1  0
  7 20  1  0
  8 21  1  0
M  END
