
     RDKit          3D

 18 19  0  0  0  0  0  0  0  0999 V2000
    2.8807    0.0193   -0.5525 C   0  0  0  0  0  0  0  0  0  0  0  0
    1.7635   -0.7701   -0.6317 O   0  0  0  0  0  0  0  0  0  0  0  0
    0.5898   -0.1926   -0.2893 C   0  0  0  0  0  0  0  0  0  0  0  0
   -0.4690   -0.1762   -1.3638 C   0  0  0  0  0  0  0  0  0  0  0  0
   -1.5944    0.4562   -0.5680 C   0  0  0  0  0  0  0  0  0  0  0  0
   -2.4993   -0.3630    0.2493 C   0  0  0  0  0  0  0  0  0  0  0  0
   -1.1939    0.0655    0.8714 C   0  0  0  0  0  0  0  0  0  0  0  0
   -0.1125   -0.7969    0.7274 O   0  0  0  0  0  0  0  0  0  0  0  0
    2.8073    0.9006   -1.2090 H   0  0  0  0  0  0  0  0  0  0  0  0
    3.7330   -0.5963   -0.9643 H   0  0  0  0  0  0  0  0  0  0  0  0
    3.1813    0.2720    0.4832 H   0  0  0  0  0  0  0  0  0  0  0  0
    0.7717    0.8610    0.0035 H   0  0  0  0  0  0  0  0  0  0  0  0
   -0.8199   -1.1919   -1.6422 H   0  0  0  0  0  0  0  0  0  0  0  0
   -0.1769    0.4415   -2.2342 H   0  0  0  0  0  0  0  0  0  0  0  0
   -1.7293    1.5297   -0.7435 H   0  0  0  0  0  0  0  0  0  0  0  0
   -2.5644   -1.4521    0.0121 H   0  0  0  0  0  0  0  0  0  0  0  0
   -3.3802    0.1382    0.6588 H   0  0  0  0  0  0  0  0  0  0  0  0
   -1.1874    0.8549    1.6279 H   0  0  0  0  0  0  0  0  0  0  0  0
  1  2  1  0
  2  3  1  0
  3  4  1  0
  4  5  1  0
  5  6  1  0
  6  7  1  0
  7  8  1  0
  8  3  1  0
  7  5  1  0
  1  9  1  0
  1 10  1  0
  1 11  1  0
  3 12  1  0
  4 13  1  0
  4 14  1  0
  5 15  1  0
  6 16  1  0
  6 17  1  0
  7 18  1  0
M  END
