
     RDKit          3D

 23 23  0  0  0  0  0  0  0  0999 V2000
    1.6949    2.0190    0.6258 C   0  0  0  0  0  0  0  0  0  0  0  0
    1.1744    0.7513    0.9408 O   0  0  0  0  0  0  0  0  0  0  0  0
    0.6044    0.2379   -0.2158 C   0  0  0  0  0  0  0  0  0  0  0  0
    0.9870   -1.1759   -0.5633 C   0  0  0  0  0  0  0  0  0  0  0  0
    1.7243   -1.8495    0.4030 O   0  0  0  0  0  0  0  0  0  0  0  0
   -0.4737   -1.5814   -0.5907 C   0  0  0  0  0  0  0  0  0  0  0  0
   -0.8197   -0.2350   -0.0494 C   0  0  0  0  0  0  0  0  0  0  0  0
   -1.8056    0.4851   -0.9577 C   0  0  0  0  0  0  0  0  0  0  0  0
   -1.3285   -0.2182    1.3665 C   0  0  0  0  0  0  0  0  0  0  0  0
    2.1684    2.4997    1.4938 H   0  0  0  0  0  0  0  0  0  0  0  0
    0.9349    2.6568    0.1327 H   0  0  0  0  0  0  0  0  0  0  0  0
    2.5013    1.8347   -0.1167 H   0  0  0  0  0  0  0  0  0  0  0  0
    0.6784    0.9108   -1.1062 H   0  0  0  0  0  0  0  0  0  0  0  0
    1.4542   -1.2695   -1.5850 H   0  0  0  0  0  0  0  0  0  0  0  0
    2.5872   -2.1737   -0.0049 H   0  0  0  0  0  0  0  0  0  0  0  0
   -0.8691   -1.7967   -1.6069 H   0  0  0  0  0  0  0  0  0  0  0  0
   -0.7327   -2.4036    0.0954 H   0  0  0  0  0  0  0  0  0  0  0  0
   -1.6954    0.1350   -2.0122 H   0  0  0  0  0  0  0  0  0  0  0  0
   -2.8100    0.2585   -0.5882 H   0  0  0  0  0  0  0  0  0  0  0  0
   -1.5507    1.5787   -0.8797 H   0  0  0  0  0  0  0  0  0  0  0  0
   -1.0858   -1.1605    1.8983 H   0  0  0  0  0  0  0  0  0  0  0  0
   -2.4313   -0.1215    1.3618 H   0  0  0  0  0  0  0  0  0  0  0  0
   -0.9070    0.6180    1.9586 H   0  0  0  0  0  0  0  0  0  0  0  0
  1  2  1  0
  2  3  1  0
  3  4  1  0
  4  5  1  0
  4  6  1  0
  6  7  1  0
  7  8  1  0
  7  9  1  0
  7  3  1  0
  1 10  1  0
  1 11  1  0
  1 12  1  0
  3 13  1  0
  4 14  1  0
  5 15  1  0
  6 16  1  0
  6 17  1  0
  8 18  1  0
  8 19  1  0
  8 20  1  0
  9 21  1  0
  9 22  1  0
  9 23  1  0
M  END
