
     RDKit          3D

 21 22  0  0  0  0  0  0  0  0999 V2000
    2.8822   -0.2585    0.7130 C   0  0  0  0  0  0  0  0  0  0  0  0
    1.4988   -0.0847    0.9193 O   0  0  0  0  0  0  0  0  0  0  0  0
    0.8368    0.1239   -0.2740 C   0  0  0  0  0  0  0  0  0  0  0  0
    0.0047    1.3869   -0.2890 C   0  0  0  0  0  0  0  0  0  0  0  0
   -1.2289    0.5599   -0.5553 C   0  0  0  0  0  0  0  0  0  0  0  0
   -2.1570    0.4533    0.6088 C   0  0  0  0  0  0  0  0  0  0  0  0
   -1.8703   -0.8560    1.2392 C   0  0  0  0  0  0  0  0  0  0  0  0
   -0.8894   -1.4928    0.6176 C   0  0  0  0  0  0  0  0  0  0  0  0
   -0.3896   -0.6980   -0.5087 C   0  0  0  0  0  0  0  0  0  0  0  0
    3.3241   -0.4183    1.7214 H   0  0  0  0  0  0  0  0  0  0  0  0
    3.0747   -1.1105    0.0330 H   0  0  0  0  0  0  0  0  0  0  0  0
    3.3245    0.6706    0.3038 H   0  0  0  0  0  0  0  0  0  0  0  0
    1.5693    0.1047   -1.1332 H   0  0  0  0  0  0  0  0  0  0  0  0
    0.2557    2.0491   -1.1278 H   0  0  0  0  0  0  0  0  0  0  0  0
    0.0113    1.9162    0.6910 H   0  0  0  0  0  0  0  0  0  0  0  0
   -1.7070    0.7335   -1.5456 H   0  0  0  0  0  0  0  0  0  0  0  0
   -2.0351    1.2962    1.3364 H   0  0  0  0  0  0  0  0  0  0  0  0
   -3.2090    0.5281    0.2337 H   0  0  0  0  0  0  0  0  0  0  0  0
   -2.4371   -1.2058    2.1176 H   0  0  0  0  0  0  0  0  0  0  0  0
   -0.5242   -2.4622    0.9156 H   0  0  0  0  0  0  0  0  0  0  0  0
   -0.3345   -1.2356   -1.4946 H   0  0  0  0  0  0  0  0  0  0  0  0
  1  2  1  0
  2  3  1  0
  3  4  1  0
  4  5  1  0
  5  6  1  0
  6  7  1  0
  7  8  2  0
  8  9  1  0
  9  3  1  0
  9  5  1  0
  1 10  1  0
  1 11  1  0
  1 12  1  0
  3 13  1  0
  4 14  1  0
  4 15  1  0
  5 16  1  0
  6 17  1  0
  6 18  1  0
  7 19  1  0
  8 20  1  0
  9 21  1  0
M  END
