
     RDKit          3D

 18 18  0  0  0  0  0  0  0  0999 V2000
    1.9250    1.0104    0.3014 C   0  0  0  0  0  0  0  0  0  0  0  0
    0.6827    1.0987   -0.3273 O   0  0  0  0  0  0  0  0  0  0  0  0
    0.0115   -0.0928   -0.2860 C   0  0  0  0  0  0  0  0  0  0  0  0
    0.7546   -1.2377   -0.9713 C   0  0  0  0  0  0  0  0  0  0  0  0
   -0.6207   -0.4085    1.0560 C   0  0  0  0  0  0  0  0  0  0  0  0
   -1.4439   -0.2167   -0.1704 C   0  0  0  0  0  0  0  0  0  0  0  0
   -2.3660    0.9227   -0.1458 C   0  0  0  0  0  0  0  0  0  0  0  0
   -3.5217    0.8299   -0.5234 O   0  0  0  0  0  0  0  0  0  0  0  0
    2.4753    1.9710    0.2726 H   0  0  0  0  0  0  0  0  0  0  0  0
    2.5862    0.2667   -0.2088 H   0  0  0  0  0  0  0  0  0  0  0  0
    1.8473    0.6762    1.3555 H   0  0  0  0  0  0  0  0  0  0  0  0
    1.3556   -0.8448   -1.7961 H   0  0  0  0  0  0  0  0  0  0  0  0
    1.3884   -1.7489   -0.2390 H   0  0  0  0  0  0  0  0  0  0  0  0
    0.0133   -1.9485   -1.4233 H   0  0  0  0  0  0  0  0  0  0  0  0
   -0.6502    0.3796    1.8324 H   0  0  0  0  0  0  0  0  0  0  0  0
   -0.4595   -1.4266    1.4708 H   0  0  0  0  0  0  0  0  0  0  0  0
   -1.8953   -1.1550   -0.5601 H   0  0  0  0  0  0  0  0  0  0  0  0
   -2.0824    1.9243    0.2097 H   0  0  0  0  0  0  0  0  0  0  0  0
  1  2  1  0
  2  3  1  0
  3  4  1  0
  3  5  1  0
  5  6  1  0
  6  7  1  0
  7  8  2  0
  6  3  1  0
  1  9  1  0
  1 10  1  0
  1 11  1  0
  4 12  1  0
  4 13  1  0
  4 14  1  0
  5 15  1  0
  5 16  1  0
  6 17  1  0
  7 18  1  0
M  END
