
     RDKit          3D

 21 21  0  0  0  0  0  0  0  0999 V2000
    2.9296   -0.9392    0.4900 C   0  0  0  0  0  0  0  0  0  0  0  0
    1.8893   -0.7485   -0.4131 O   0  0  0  0  0  0  0  0  0  0  0  0
    0.9553    0.0777    0.1558 C   0  0  0  0  0  0  0  0  0  0  0  0
   -0.3224   -0.6813    0.2167 C   0  0  0  0  0  0  0  0  0  0  0  0
   -1.4911   -0.1268   -0.0603 C   0  0  0  0  0  0  0  0  0  0  0  0
   -2.7574   -0.9507    0.0194 C   0  0  0  0  0  0  0  0  0  0  0  0
   -1.5217    1.2968   -0.4440 C   0  0  0  0  0  0  0  0  0  0  0  0
   -0.3810    1.9884   -0.1118 O   0  0  0  0  0  0  0  0  0  0  0  0
    0.7778    1.3805   -0.5856 C   0  0  0  0  0  0  0  0  0  0  0  0
    2.5833   -1.4036    1.4425 H   0  0  0  0  0  0  0  0  0  0  0  0
    3.7156   -1.6058    0.0781 H   0  0  0  0  0  0  0  0  0  0  0  0
    3.4060    0.0263    0.7899 H   0  0  0  0  0  0  0  0  0  0  0  0
    1.3040    0.3569    1.1810 H   0  0  0  0  0  0  0  0  0  0  0  0
   -0.3159   -1.7483    0.5013 H   0  0  0  0  0  0  0  0  0  0  0  0
   -3.5216   -0.5249   -0.6330 H   0  0  0  0  0  0  0  0  0  0  0  0
   -2.4571   -1.9887   -0.2433 H   0  0  0  0  0  0  0  0  0  0  0  0
   -3.1262   -0.9938    1.0776 H   0  0  0  0  0  0  0  0  0  0  0  0
   -2.3761    1.8294    0.0545 H   0  0  0  0  0  0  0  0  0  0  0  0
   -1.7156    1.4364   -1.5416 H   0  0  0  0  0  0  0  0  0  0  0  0
    1.6216    2.0418   -0.2976 H   0  0  0  0  0  0  0  0  0  0  0  0
    0.8035    1.2773   -1.6766 H   0  0  0  0  0  0  0  0  0  0  0  0
  1  2  1  0
  2  3  1  0
  3  4  1  0
  4  5  2  0
  5  6  1  0
  5  7  1  0
  7  8  1  0
  8  9  1  0
  9  3  1  0
  1 10  1  0
  1 11  1  0
  1 12  1  0
  3 13  1  0
  4 14  1  0
  6 15  1  0
  6 16  1  0
  6 17  1  0
  7 18  1  0
  7 19  1  0
  9 20  1  0
  9 21  1  0
M  END
