
     RDKit          3D

 21 22  0  0  0  0  0  0  0  0999 V2000
    2.4622   -0.0973   -0.3895 C   0  0  0  0  0  0  0  0  0  0  0  0
    1.1298   -0.3046   -0.6913 O   0  0  0  0  0  0  0  0  0  0  0  0
    0.3179   -0.4105    0.4231 C   0  0  0  0  0  0  0  0  0  0  0  0
   -0.3618   -1.7779    0.3432 C   0  0  0  0  0  0  0  0  0  0  0  0
   -1.6287   -1.4189   -0.4079 C   0  0  0  0  0  0  0  0  0  0  0  0
   -1.9808   -0.1896    0.0826 O   0  0  0  0  0  0  0  0  0  0  0  0
   -0.8319    0.5390    0.2546 C   0  0  0  0  0  0  0  0  0  0  0  0
   -0.8367    1.8833    0.8475 C   0  0  0  0  0  0  0  0  0  0  0  0
   -0.6001    1.7842   -0.6124 C   0  0  0  0  0  0  0  0  0  0  0  0
    3.0083   -0.0295   -1.3530 H   0  0  0  0  0  0  0  0  0  0  0  0
    2.9052   -0.8343    0.2752 H   0  0  0  0  0  0  0  0  0  0  0  0
    2.5248    0.9386    0.0550 H   0  0  0  0  0  0  0  0  0  0  0  0
    0.8371   -0.3167    1.3789 H   0  0  0  0  0  0  0  0  0  0  0  0
   -0.5659   -2.1856    1.3409 H   0  0  0  0  0  0  0  0  0  0  0  0
    0.2265   -2.4914   -0.2551 H   0  0  0  0  0  0  0  0  0  0  0  0
   -2.4225   -2.1746   -0.2699 H   0  0  0  0  0  0  0  0  0  0  0  0
   -1.4102   -1.4008   -1.5015 H   0  0  0  0  0  0  0  0  0  0  0  0
   -0.0001    2.2130    1.5122 H   0  0  0  0  0  0  0  0  0  0  0  0
   -1.8185    2.2480    1.2160 H   0  0  0  0  0  0  0  0  0  0  0  0
   -1.4130    2.0699   -1.3254 H   0  0  0  0  0  0  0  0  0  0  0  0
    0.4584    1.9558   -0.9232 H   0  0  0  0  0  0  0  0  0  0  0  0
  1  2  1  0
  2  3  1  0
  3  4  1  0
  4  5  1  0
  5  6  1  0
  6  7  1  0
  7  8  1  0
  8  9  1  0
  7  3  1  0
  9  7  1  0
  1 10  1  0
  1 11  1  0
  1 12  1  0
  3 13  1  0
  4 14  1  0
  4 15  1  0
  5 16  1  0
  5 17  1  0
  8 18  1  0
  8 19  1  0
  9 20  1  0
  9 21  1  0
M  END
