
     RDKit          3D

 17 18  0  0  0  0  0  0  0  0999 V2000
    2.0184    0.0967   -0.6760 C   0  0  0  0  0  0  0  0  0  0  0  0
    0.7279   -0.3315   -1.0519 O   0  0  0  0  0  0  0  0  0  0  0  0
    0.0718   -0.4805    0.2419 C   0  0  0  0  0  0  0  0  0  0  0  0
    0.1283    0.8132    0.8203 C   0  0  0  0  0  0  0  0  0  0  0  0
   -0.8598    1.5478    0.3144 C   0  0  0  0  0  0  0  0  0  0  0  0
   -1.5516    0.6353   -0.6034 C   0  0  0  0  0  0  0  0  0  0  0  0
   -2.0431    0.9020   -1.6823 O   0  0  0  0  0  0  0  0  0  0  0  0
   -1.4739   -0.6108    0.1313 C   0  0  0  0  0  0  0  0  0  0  0  0
   -0.6003   -1.6990    0.2951 C   0  0  0  0  0  0  0  0  0  0  0  0
    1.9971    1.0340   -0.1184 H   0  0  0  0  0  0  0  0  0  0  0  0
    2.6284    0.0984   -1.5873 H   0  0  0  0  0  0  0  0  0  0  0  0
    2.4392   -0.6815    0.0014 H   0  0  0  0  0  0  0  0  0  0  0  0
    0.8249    1.2202    1.5590 H   0  0  0  0  0  0  0  0  0  0  0  0
   -1.0912    2.6178    0.5231 H   0  0  0  0  0  0  0  0  0  0  0  0
   -2.1006   -0.4514    1.0711 H   0  0  0  0  0  0  0  0  0  0  0  0
   -0.5549   -2.4537   -0.5167 H   0  0  0  0  0  0  0  0  0  0  0  0
   -0.5606   -2.2570    1.2783 H   0  0  0  0  0  0  0  0  0  0  0  0
  1  2  1  0
  2  3  1  0
  3  4  1  0
  4  5  2  0
  5  6  1  0
  6  7  2  0
  6  8  1  0
  8  9  1  0
  8  3  1  0
  9  3  1  0
  1 10  1  0
  1 11  1  0
  1 12  1  0
  4 13  1  0
  5 14  1  0
  8 15  1  0
  9 16  1  0
  9 17  1  0
M  END
