
     RDKit          3D

 19 20  0  0  0  0  0  0  0  0999 V2000
    2.8357    0.1564    0.0503 C   0  0  0  0  0  0  0  0  0  0  0  0
    1.5697    0.3106    0.5715 O   0  0  0  0  0  0  0  0  0  0  0  0
    0.5605   -0.0759   -0.2921 C   0  0  0  0  0  0  0  0  0  0  0  0
   -0.2767    1.1516   -0.5364 C   0  0  0  0  0  0  0  0  0  0  0  0
   -1.3753    1.3275    0.1928 C   0  0  0  0  0  0  0  0  0  0  0  0
   -1.9540    0.0547    0.7642 C   0  0  0  0  0  0  0  0  0  0  0  0
   -1.7592   -0.9985   -0.2874 C   0  0  0  0  0  0  0  0  0  0  0  0
   -0.3792   -1.0866    0.3580 C   0  0  0  0  0  0  0  0  0  0  0  0
   -0.9476   -0.5353    1.5020 O   0  0  0  0  0  0  0  0  0  0  0  0
    3.0983   -0.8692   -0.2275 H   0  0  0  0  0  0  0  0  0  0  0  0
    2.9465    0.8056   -0.8623 H   0  0  0  0  0  0  0  0  0  0  0  0
    3.5543    0.5276    0.8096 H   0  0  0  0  0  0  0  0  0  0  0  0
    0.9091   -0.4470   -1.2610 H   0  0  0  0  0  0  0  0  0  0  0  0
    0.0633    1.8223   -1.2927 H   0  0  0  0  0  0  0  0  0  0  0  0
   -1.8280    2.2951    0.3704 H   0  0  0  0  0  0  0  0  0  0  0  0
   -2.9339    0.1503    1.2151 H   0  0  0  0  0  0  0  0  0  0  0  0
   -2.3743   -1.8996   -0.2052 H   0  0  0  0  0  0  0  0  0  0  0  0
   -1.7106   -0.5863   -1.3083 H   0  0  0  0  0  0  0  0  0  0  0  0
    0.0013   -2.1033    0.4390 H   0  0  0  0  0  0  0  0  0  0  0  0
  1  2  1  0
  2  3  1  0
  3  4  1  0
  4  5  2  0
  5  6  1  0
  6  7  1  0
  7  8  1  0
  8  9  1  0
  8  3  1  0
  9  6  1  0
  1 10  1  0
  1 11  1  0
  1 12  1  0
  3 13  1  0
  4 14  1  0
  5 15  1  0
  6 16  1  0
  7 17  1  0
  7 18  1  0
  8 19  1  0
M  END
