
     RDKit          3D

 19 21  0  0  0  0  0  0  0  0999 V2000
    2.7920    0.1191    0.2077 C   0  0  0  0  0  0  0  0  0  0  0  0
    1.5772    0.7409    0.4505 O   0  0  0  0  0  0  0  0  0  0  0  0
    0.4958    0.0729   -0.0777 C   0  0  0  0  0  0  0  0  0  0  0  0
   -0.3162    0.8603   -1.0417 C   0  0  0  0  0  0  0  0  0  0  0  0
   -1.7324    0.3535   -0.7938 C   0  0  0  0  0  0  0  0  0  0  0  0
   -1.8599   -1.0238   -0.9348 O   0  0  0  0  0  0  0  0  0  0  0  0
   -1.5623   -1.2746    0.3782 C   0  0  0  0  0  0  0  0  0  0  0  0
   -0.4510   -0.4470    0.9991 C   0  0  0  0  0  0  0  0  0  0  0  0
   -1.7193    0.1668    0.6876 C   0  0  0  0  0  0  0  0  0  0  0  0
    2.8070   -0.9148    0.6507 H   0  0  0  0  0  0  0  0  0  0  0  0
    3.5708    0.6807    0.7658 H   0  0  0  0  0  0  0  0  0  0  0  0
    3.0729    0.1150   -0.8492 H   0  0  0  0  0  0  0  0  0  0  0  0
    0.8847   -0.8432   -0.5923 H   0  0  0  0  0  0  0  0  0  0  0  0
   -0.0373    0.7235   -2.1041 H   0  0  0  0  0  0  0  0  0  0  0  0
   -0.3401    1.9445   -0.8477 H   0  0  0  0  0  0  0  0  0  0  0  0
   -2.5350    0.9704   -1.1964 H   0  0  0  0  0  0  0  0  0  0  0  0
   -2.0808   -2.0335    0.9712 H   0  0  0  0  0  0  0  0  0  0  0  0
   -0.0663   -0.7006    1.9822 H   0  0  0  0  0  0  0  0  0  0  0  0
   -2.4997    0.4901    1.3444 H   0  0  0  0  0  0  0  0  0  0  0  0
  1  2  1  0
  2  3  1  0
  3  4  1  0
  4  5  1  0
  5  6  1  0
  6  7  1  0
  7  8  1  0
  8  9  1  0
  8  3  1  0
  9  5  1  0
  9  7  1  0
  1 10  1  0
  1 11  1  0
  1 12  1  0
  3 13  1  0
  4 14  1  0
  4 15  1  0
  5 16  1  0
  7 17  1  0
  8 18  1  0
  9 19  1  0
M  END
