
     RDKit          3D

 20 20  0  0  0  0  0  0  0  0999 V2000
    2.8610   -0.6890    0.5248 C   0  0  0  0  0  0  0  0  0  0  0  0
    1.7261   -0.9118   -0.2401 O   0  0  0  0  0  0  0  0  0  0  0  0
    0.7960    0.0909   -0.1780 C   0  0  0  0  0  0  0  0  0  0  0  0
   -0.1678    0.3545   -1.2707 C   0  0  0  0  0  0  0  0  0  0  0  0
   -0.7099    1.7630   -1.4628 C   0  0  0  0  0  0  0  0  0  0  0  0
   -0.6503   -0.4188   -0.1005 C   0  0  0  0  0  0  0  0  0  0  0  0
   -1.3716    0.1508    0.9137 O   0  0  0  0  0  0  0  0  0  0  0  0
   -2.1859   -0.8180    1.4968 C   0  0  0  0  0  0  0  0  0  0  0  0
    3.5203   -1.5767    0.3779 H   0  0  0  0  0  0  0  0  0  0  0  0
    2.5450   -0.5826    1.5714 H   0  0  0  0  0  0  0  0  0  0  0  0
    3.3838    0.2099    0.1239 H   0  0  0  0  0  0  0  0  0  0  0  0
    1.0868    0.9382    0.4775 H   0  0  0  0  0  0  0  0  0  0  0  0
   -0.0464   -0.1828   -2.2332 H   0  0  0  0  0  0  0  0  0  0  0  0
   -1.3987    1.7638   -2.3359 H   0  0  0  0  0  0  0  0  0  0  0  0
    0.0935    2.4855   -1.6956 H   0  0  0  0  0  0  0  0  0  0  0  0
   -1.3107    2.0895   -0.5885 H   0  0  0  0  0  0  0  0  0  0  0  0
   -0.8208   -1.5048   -0.2864 H   0  0  0  0  0  0  0  0  0  0  0  0
   -2.8921   -1.2398    0.7262 H   0  0  0  0  0  0  0  0  0  0  0  0
   -2.8429   -0.2879    2.2222 H   0  0  0  0  0  0  0  0  0  0  0  0
   -1.6156   -1.6339    1.9574 H   0  0  0  0  0  0  0  0  0  0  0  0
  1  2  1  0
  2  3  1  0
  3  4  1  0
  4  5  1  0
  4  6  1  0
  6  7  1  0
  7  8  1  0
  6  3  1  0
  1  9  1  0
  1 10  1  0
  1 11  1  0
  3 12  1  0
  4 13  1  0
  5 14  1  0
  5 15  1  0
  5 16  1  0
  6 17  1  0
  8 18  1  0
  8 19  1  0
  8 20  1  0
M  END
