
     RDKit          3D

 17 18  0  0  0  0  0  0  0  0999 V2000
    2.2432   -0.5089    0.8123 C   0  0  0  0  0  0  0  0  0  0  0  0
    1.0302   -0.8090    0.1999 O   0  0  0  0  0  0  0  0  0  0  0  0
    0.5143    0.2743   -0.5003 C   0  0  0  0  0  0  0  0  0  0  0  0
    0.1716   -0.0464   -1.9316 C   0  0  0  0  0  0  0  0  0  0  0  0
    0.7795   -0.6402   -2.8666 O   0  0  0  0  0  0  0  0  0  0  0  0
   -1.0700    0.5805   -1.7724 O   0  0  0  0  0  0  0  0  0  0  0  0
   -0.9544    0.3448   -0.4114 C   0  0  0  0  0  0  0  0  0  0  0  0
   -1.8001   -0.5791    0.3459 C   0  0  0  0  0  0  0  0  0  0  0  0
   -1.7320    0.9556    0.6365 C   0  0  0  0  0  0  0  0  0  0  0  0
    2.5857   -1.4127    1.3441 H   0  0  0  0  0  0  0  0  0  0  0  0
    2.1903    0.3540    1.4890 H   0  0  0  0  0  0  0  0  0  0  0  0
    2.9634   -0.2480    0.0105 H   0  0  0  0  0  0  0  0  0  0  0  0
    1.1047    1.1893   -0.4814 H   0  0  0  0  0  0  0  0  0  0  0  0
   -1.2827   -1.2135    1.1014 H   0  0  0  0  0  0  0  0  0  0  0  0
   -2.7567   -0.9619   -0.0247 H   0  0  0  0  0  0  0  0  0  0  0  0
   -1.2962    1.2377    1.6156 H   0  0  0  0  0  0  0  0  0  0  0  0
   -2.6908    1.4835    0.4333 H   0  0  0  0  0  0  0  0  0  0  0  0
  1  2  1  0
  2  3  1  0
  3  4  1  0
  4  5  2  0
  4  6  1  0
  6  7  1  0
  7  8  1  0
  8  9  1  0
  7  3  1  0
  9  7  1  0
  1 10  1  0
  1 11  1  0
  1 12  1  0
  3 13  1  0
  8 14  1  0
  8 15  1  0
  9 16  1  0
  9 17  1  0
M  END
