
     RDKit          3D

 23 24  0  0  0  0  0  0  0  0999 V2000
    2.6148    0.0235    0.6315 C   0  0  0  0  0  0  0  0  0  0  0  0
    1.2473    0.2738    0.7156 O   0  0  0  0  0  0  0  0  0  0  0  0
    0.6044    0.1104   -0.4968 C   0  0  0  0  0  0  0  0  0  0  0  0
   -0.1099    1.3660   -0.9410 C   0  0  0  0  0  0  0  0  0  0  0  0
   -1.5332    1.2336   -0.5078 C   0  0  0  0  0  0  0  0  0  0  0  0
   -1.7444    1.0181    0.9489 C   0  0  0  0  0  0  0  0  0  0  0  0
   -1.7493   -0.1359    0.0253 C   0  0  0  0  0  0  0  0  0  0  0  0
   -0.4963   -0.8818   -0.3269 C   0  0  0  0  0  0  0  0  0  0  0  0
   -0.1319   -1.9457    0.6581 C   0  0  0  0  0  0  0  0  0  0  0  0
    3.0182    0.7633   -0.1197 H   0  0  0  0  0  0  0  0  0  0  0  0
    2.8419   -0.9938    0.2632 H   0  0  0  0  0  0  0  0  0  0  0  0
    3.1109    0.2719    1.5792 H   0  0  0  0  0  0  0  0  0  0  0  0
    1.3030   -0.1928   -1.3200 H   0  0  0  0  0  0  0  0  0  0  0  0
    0.3403    2.2102   -0.3728 H   0  0  0  0  0  0  0  0  0  0  0  0
    0.0272    1.5796   -2.0053 H   0  0  0  0  0  0  0  0  0  0  0  0
   -2.3529    1.6315   -1.1356 H   0  0  0  0  0  0  0  0  0  0  0  0
   -2.7340    1.2595    1.4197 H   0  0  0  0  0  0  0  0  0  0  0  0
   -0.8928    1.1697    1.6487 H   0  0  0  0  0  0  0  0  0  0  0  0
   -2.6929   -0.6744   -0.1433 H   0  0  0  0  0  0  0  0  0  0  0  0
   -0.6769   -1.3763   -1.3187 H   0  0  0  0  0  0  0  0  0  0  0  0
    0.5691   -1.5338    1.4246 H   0  0  0  0  0  0  0  0  0  0  0  0
    0.4334   -2.7476    0.1397 H   0  0  0  0  0  0  0  0  0  0  0  0
   -0.9959   -2.4290    1.1474 H   0  0  0  0  0  0  0  0  0  0  0  0
  1  2  1  0
  2  3  1  0
  3  4  1  0
  4  5  1  0
  5  6  1  0
  6  7  1  0
  7  8  1  0
  8  9  1  0
  8  3  1  0
  7  5  1  0
  1 10  1  0
  1 11  1  0
  1 12  1  0
  3 13  1  0
  4 14  1  0
  4 15  1  0
  5 16  1  0
  6 17  1  0
  6 18  1  0
  7 19  1  0
  8 20  1  0
  9 21  1  0
  9 22  1  0
  9 23  1  0
M  END
