
     RDKit          3D

 18 19  0  0  0  0  0  0  0  0999 V2000
    2.4092    0.2466   -0.2615 C   0  0  0  0  0  0  0  0  0  0  0  0
    1.3682   -0.5498   -0.6177 O   0  0  0  0  0  0  0  0  0  0  0  0
    0.2197   -0.4762    0.0716 C   0  0  0  0  0  0  0  0  0  0  0  0
   -0.8588   -1.4178   -0.4299 C   0  0  0  0  0  0  0  0  0  0  0  0
   -1.9100   -0.3462   -0.2450 C   0  0  0  0  0  0  0  0  0  0  0  0
   -0.7663    0.6093    0.0274 C   0  0  0  0  0  0  0  0  0  0  0  0
   -0.6150    1.7523   -0.6974 O   0  0  0  0  0  0  0  0  0  0  0  0
   -0.0244    0.3252    1.2773 C   0  0  0  0  0  0  0  0  0  0  0  0
    3.2610    0.0422   -0.9430 H   0  0  0  0  0  0  0  0  0  0  0  0
    2.2161    1.3096   -0.1912 H   0  0  0  0  0  0  0  0  0  0  0  0
    2.7633   -0.0832    0.7578 H   0  0  0  0  0  0  0  0  0  0  0  0
   -0.7686   -1.6278   -1.5343 H   0  0  0  0  0  0  0  0  0  0  0  0
   -0.9540   -2.3032    0.1927 H   0  0  0  0  0  0  0  0  0  0  0  0
   -2.5232   -0.5705    0.6345 H   0  0  0  0  0  0  0  0  0  0  0  0
   -2.5271   -0.1193   -1.1158 H   0  0  0  0  0  0  0  0  0  0  0  0
   -1.3970    2.3239   -0.6417 H   0  0  0  0  0  0  0  0  0  0  0  0
   -0.5804   -0.1809    2.1113 H   0  0  0  0  0  0  0  0  0  0  0  0
    0.6873    1.0657    1.6050 H   0  0  0  0  0  0  0  0  0  0  0  0
  1  2  1  0
  2  3  1  0
  3  4  1  0
  4  5  1  0
  5  6  1  0
  6  7  1  0
  6  8  1  0
  6  3  1  0
  8  3  1  0
  1  9  1  0
  1 10  1  0
  1 11  1  0
  4 12  1  0
  4 13  1  0
  5 14  1  0
  5 15  1  0
  7 16  1  0
  8 17  1  0
  8 18  1  0
M  END
