
     RDKit          3D

 23 23  0  0  0  0  0  0  0  0999 V2000
    3.2333    0.6512   -0.3764 C   0  0  0  0  0  0  0  0  0  0  0  0
    2.1062    0.9043    0.3912 O   0  0  0  0  0  0  0  0  0  0  0  0
    1.0843    0.0728   -0.0429 C   0  0  0  0  0  0  0  0  0  0  0  0
    0.5803   -0.7685    1.1082 C   0  0  0  0  0  0  0  0  0  0  0  0
   -0.8537   -0.3050    1.2479 C   0  0  0  0  0  0  0  0  0  0  0  0
   -1.1525    0.1720   -0.1530 C   0  0  0  0  0  0  0  0  0  0  0  0
   -2.2654    1.1798   -0.2062 C   0  0  0  0  0  0  0  0  0  0  0  0
   -1.5457   -1.0267   -0.9458 C   0  0  0  0  0  0  0  0  0  0  0  0
    0.0074    0.7779   -0.5492 O   0  0  0  0  0  0  0  0  0  0  0  0
    4.0956    1.2820   -0.0855 H   0  0  0  0  0  0  0  0  0  0  0  0
    3.4690   -0.4323   -0.2951 H   0  0  0  0  0  0  0  0  0  0  0  0
    3.0452    0.8654   -1.4683 H   0  0  0  0  0  0  0  0  0  0  0  0
    1.4744   -0.5440   -0.8723 H   0  0  0  0  0  0  0  0  0  0  0  0
    1.1036   -0.5458    2.0447 H   0  0  0  0  0  0  0  0  0  0  0  0
    0.6463   -1.8247    0.7860 H   0  0  0  0  0  0  0  0  0  0  0  0
   -1.4450   -1.2141    1.5080 H   0  0  0  0  0  0  0  0  0  0  0  0
   -0.9333    0.4862    2.0029 H   0  0  0  0  0  0  0  0  0  0  0  0
   -1.8767    2.2169   -0.4306 H   0  0  0  0  0  0  0  0  0  0  0  0
   -2.9417    0.9521   -1.0677 H   0  0  0  0  0  0  0  0  0  0  0  0
   -2.7937    1.2561    0.7506 H   0  0  0  0  0  0  0  0  0  0  0  0
   -2.1427   -0.8092   -1.8471 H   0  0  0  0  0  0  0  0  0  0  0  0
   -0.6973   -1.6839   -1.2213 H   0  0  0  0  0  0  0  0  0  0  0  0
   -2.1978   -1.6624   -0.2782 H   0  0  0  0  0  0  0  0  0  0  0  0
  1  2  1  0
  2  3  1  0
  3  4  1  0
  4  5  1  0
  5  6  1  0
  6  7  1  0
  6  8  1  0
  6  9  1  0
  9  3  1  0
  1 10  1  0
  1 11  1  0
  1 12  1  0
  3 13  1  0
  4 14  1  0
  4 15  1  0
  5 16  1  0
  5 17  1  0
  7 18  1  0
  7 19  1  0
  7 20  1  0
  8 21  1  0
  8 22  1  0
  8 23  1  0
M  END
