
     RDKit          3D

 18 18  0  0  0  0  0  0  0  0999 V2000
   -1.8628    1.0796    0.3189 C   0  0  0  0  0  0  0  0  0  0  0  0
   -0.5289    0.9067    0.3688 O   0  0  0  0  0  0  0  0  0  0  0  0
    0.0378   -0.1505   -0.2462 C   0  0  0  0  0  0  0  0  0  0  0  0
    1.5423   -0.1998   -0.0979 C   0  0  0  0  0  0  0  0  0  0  0  0
    2.2958    0.8365    0.6616 C   0  0  0  0  0  0  0  0  0  0  0  0
    2.1681   -1.1016   -0.6055 O   0  0  0  0  0  0  0  0  0  0  0  0
   -0.6812   -1.4907   -0.0166 C   0  0  0  0  0  0  0  0  0  0  0  0
   -0.5237   -0.8926   -1.3815 C   0  0  0  0  0  0  0  0  0  0  0  0
   -2.3176    1.1912   -0.6770 H   0  0  0  0  0  0  0  0  0  0  0  0
   -2.3716    0.3140    0.9356 H   0  0  0  0  0  0  0  0  0  0  0  0
   -2.0940    2.0537    0.8458 H   0  0  0  0  0  0  0  0  0  0  0  0
    3.0443    1.3156    0.0069 H   0  0  0  0  0  0  0  0  0  0  0  0
    2.7065    0.3685    1.5613 H   0  0  0  0  0  0  0  0  0  0  0  0
    1.5561    1.6123    0.9541 H   0  0  0  0  0  0  0  0  0  0  0  0
   -1.6979   -1.5127    0.3632 H   0  0  0  0  0  0  0  0  0  0  0  0
   -0.0294   -2.3264    0.3035 H   0  0  0  0  0  0  0  0  0  0  0  0
   -1.4289   -0.5571   -1.9375 H   0  0  0  0  0  0  0  0  0  0  0  0
    0.1848   -1.4465   -2.0314 H   0  0  0  0  0  0  0  0  0  0  0  0
  1  2  1  0
  2  3  1  0
  3  4  1  0
  4  5  1  0
  4  6  2  0
  3  7  1  0
  7  8  1  0
  8  3  1  0
  1  9  1  0
  1 10  1  0
  1 11  1  0
  5 12  1  0
  5 13  1  0
  5 14  1  0
  7 15  1  0
  7 16  1  0
  8 17  1  0
  8 18  1  0
M  END
