
     RDKit          3D

 19 21  0  0  0  0  0  0  0  0999 V2000
    2.6038    0.1061   -1.0340 C   0  0  0  0  0  0  0  0  0  0  0  0
    1.2818   -0.3176   -0.9435 O   0  0  0  0  0  0  0  0  0  0  0  0
    0.6988    0.2365    0.1646 C   0  0  0  0  0  0  0  0  0  0  0  0
   -0.5662    1.0559   -0.1186 C   0  0  0  0  0  0  0  0  0  0  0  0
   -1.2399    0.4880   -1.1805 O   0  0  0  0  0  0  0  0  0  0  0  0
   -1.9287   -0.6139   -0.7721 C   0  0  0  0  0  0  0  0  0  0  0  0
   -1.5689   -0.8641    0.6998 C   0  0  0  0  0  0  0  0  0  0  0  0
   -0.1384   -0.6946    1.0048 C   0  0  0  0  0  0  0  0  0  0  0  0
   -1.1432    0.4738    1.1104 C   0  0  0  0  0  0  0  0  0  0  0  0
    3.1685   -0.2176   -0.1117 H   0  0  0  0  0  0  0  0  0  0  0  0
    3.0820   -0.3268   -1.9349 H   0  0  0  0  0  0  0  0  0  0  0  0
    2.6865    1.2173   -1.0345 H   0  0  0  0  0  0  0  0  0  0  0  0
    1.3921    0.8830    0.7289 H   0  0  0  0  0  0  0  0  0  0  0  0
   -0.3841    2.1286   -0.1629 H   0  0  0  0  0  0  0  0  0  0  0  0
   -1.7420   -1.5305   -1.3836 H   0  0  0  0  0  0  0  0  0  0  0  0
   -3.0308   -0.3923   -0.7539 H   0  0  0  0  0  0  0  0  0  0  0  0
   -2.2403   -1.4164    1.3389 H   0  0  0  0  0  0  0  0  0  0  0  0
    0.2430   -1.1319    1.9242 H   0  0  0  0  0  0  0  0  0  0  0  0
   -1.1741    0.9163    2.0763 H   0  0  0  0  0  0  0  0  0  0  0  0
  1  2  1  0
  2  3  1  0
  3  4  1  0
  4  5  1  0
  5  6  1  0
  6  7  1  0
  7  8  1  0
  8  9  1  0
  8  3  1  0
  9  4  1  0
  9  7  1  0
  1 10  1  0
  1 11  1  0
  1 12  1  0
  3 13  1  0
  4 14  1  0
  6 15  1  0
  6 16  1  0
  7 17  1  0
  8 18  1  0
  9 19  1  0
M  END
