
     RDKit          3D

 23 23  0  0  0  0  0  0  0  0999 V2000
    3.0511   -0.3597   -0.0781 C   0  0  0  0  0  0  0  0  0  0  0  0
    1.8051    0.0653   -0.5279 O   0  0  0  0  0  0  0  0  0  0  0  0
    0.8049   -0.2648    0.3891 C   0  0  0  0  0  0  0  0  0  0  0  0
    0.0943    0.9728    0.7109 C   0  0  0  0  0  0  0  0  0  0  0  0
   -0.9074    1.1671   -0.0951 C   0  0  0  0  0  0  0  0  0  0  0  0
   -1.8632    2.3080   -0.0899 C   0  0  0  0  0  0  0  0  0  0  0  0
   -0.9715    0.0353   -1.0553 C   0  0  0  0  0  0  0  0  0  0  0  0
   -0.2028   -1.0841   -0.3661 C   0  0  0  0  0  0  0  0  0  0  0  0
   -1.0814   -1.9208    0.5080 C   0  0  0  0  0  0  0  0  0  0  0  0
    2.9930   -1.4567    0.0407 H   0  0  0  0  0  0  0  0  0  0  0  0
    3.2307    0.1188    0.9252 H   0  0  0  0  0  0  0  0  0  0  0  0
    3.8289   -0.0612   -0.7941 H   0  0  0  0  0  0  0  0  0  0  0  0
    1.2088   -0.7918    1.2759 H   0  0  0  0  0  0  0  0  0  0  0  0
    0.3744    1.6485    1.5294 H   0  0  0  0  0  0  0  0  0  0  0  0
   -1.6340    2.9772    0.7737 H   0  0  0  0  0  0  0  0  0  0  0  0
   -1.7612    2.8475   -1.0348 H   0  0  0  0  0  0  0  0  0  0  0  0
   -2.8737    1.8745    0.0576 H   0  0  0  0  0  0  0  0  0  0  0  0
   -2.0289   -0.2063   -1.2083 H   0  0  0  0  0  0  0  0  0  0  0  0
   -0.5060    0.2865   -2.0179 H   0  0  0  0  0  0  0  0  0  0  0  0
    0.3041   -1.7031   -1.1347 H   0  0  0  0  0  0  0  0  0  0  0  0
   -1.0774   -2.9816    0.1449 H   0  0  0  0  0  0  0  0  0  0  0  0
   -2.1269   -1.5614    0.5140 H   0  0  0  0  0  0  0  0  0  0  0  0
   -0.6608   -1.9103    1.5328 H   0  0  0  0  0  0  0  0  0  0  0  0
  1  2  1  0
  2  3  1  0
  3  4  1  0
  4  5  2  0
  5  6  1  0
  5  7  1  0
  7  8  1  0
  8  9  1  0
  8  3  1  0
  1 10  1  0
  1 11  1  0
  1 12  1  0
  3 13  1  0
  4 14  1  0
  6 15  1  0
  6 16  1  0
  6 17  1  0
  7 18  1  0
  7 19  1  0
  8 20  1  0
  9 21  1  0
  9 22  1  0
  9 23  1  0
M  END
