
     RDKit          3D

 17 18  0  0  0  0  0  0  0  0999 V2000
    2.2947    0.0302    0.0993 C   0  0  0  0  0  0  0  0  0  0  0  0
    1.1897   -0.0391    0.8952 O   0  0  0  0  0  0  0  0  0  0  0  0
    0.0229    0.0202    0.2899 C   0  0  0  0  0  0  0  0  0  0  0  0
   -0.4037    1.1954   -0.5402 C   0  0  0  0  0  0  0  0  0  0  0  0
   -1.7429    0.8137   -0.8104 O   0  0  0  0  0  0  0  0  0  0  0  0
   -1.7922   -0.4740   -0.3139 C   0  0  0  0  0  0  0  0  0  0  0  0
   -1.2389   -0.2541    1.1077 C   0  0  0  0  0  0  0  0  0  0  0  0
   -0.4677   -1.0899   -0.5613 C   0  0  0  0  0  0  0  0  0  0  0  0
   -0.0306   -2.0151   -1.1516 O   0  0  0  0  0  0  0  0  0  0  0  0
    2.3151    0.9779   -0.4650 H   0  0  0  0  0  0  0  0  0  0  0  0
    2.3406   -0.8569   -0.5886 H   0  0  0  0  0  0  0  0  0  0  0  0
    3.2070   -0.0097    0.7364 H   0  0  0  0  0  0  0  0  0  0  0  0
   -0.3480    2.1588   -0.0271 H   0  0  0  0  0  0  0  0  0  0  0  0
    0.0954    1.1961   -1.5319 H   0  0  0  0  0  0  0  0  0  0  0  0
   -2.6726   -1.0578   -0.4017 H   0  0  0  0  0  0  0  0  0  0  0  0
   -1.6508    0.6032    1.6293 H   0  0  0  0  0  0  0  0  0  0  0  0
   -1.1180   -1.1989    1.6339 H   0  0  0  0  0  0  0  0  0  0  0  0
  1  2  1  0
  2  3  1  0
  3  4  1  0
  4  5  1  0
  5  6  1  0
  6  7  1  0
  6  8  1  0
  8  9  2  0
  7  3  1  0
  8  3  1  0
  1 10  1  0
  1 11  1  0
  1 12  1  0
  4 13  1  0
  4 14  1  0
  6 15  1  0
  7 16  1  0
  7 17  1  0
M  END
