
     RDKit          3D

 19 21  0  0  0  0  0  0  0  0999 V2000
   -2.3524   -0.0219   -0.6218 C   0  0  0  0  0  0  0  0  0  0  0  0
   -1.3983    0.7601   -0.0281 O   0  0  0  0  0  0  0  0  0  0  0  0
   -0.3249    0.1843    0.2625 C   0  0  0  0  0  0  0  0  0  0  0  0
   -0.1269   -0.9929    1.1864 C   0  0  0  0  0  0  0  0  0  0  0  0
    1.2562   -0.6726    0.7058 C   0  0  0  0  0  0  0  0  0  0  0  0
    0.6522   -0.4858   -0.6588 C   0  0  0  0  0  0  0  0  0  0  0  0
    1.4369    0.6028   -1.2328 C   0  0  0  0  0  0  0  0  0  0  0  0
    1.5971    1.4618   -0.2004 C   0  0  0  0  0  0  0  0  0  0  0  0
    0.8900    0.7667    0.9024 C   0  0  0  0  0  0  0  0  0  0  0  0
   -3.2688    0.5975   -0.8368 H   0  0  0  0  0  0  0  0  0  0  0  0
   -2.6948   -0.8704   -0.0057 H   0  0  0  0  0  0  0  0  0  0  0  0
   -2.0198   -0.4230   -1.6107 H   0  0  0  0  0  0  0  0  0  0  0  0
   -0.5550   -1.9129    0.7544 H   0  0  0  0  0  0  0  0  0  0  0  0
   -0.3233   -0.8095    2.2531 H   0  0  0  0  0  0  0  0  0  0  0  0
    2.1147   -1.1304    0.9361 H   0  0  0  0  0  0  0  0  0  0  0  0
    0.3584   -1.3289   -1.2292 H   0  0  0  0  0  0  0  0  0  0  0  0
    1.7900    0.6705   -2.2529 H   0  0  0  0  0  0  0  0  0  0  0  0
    2.1126    2.4124   -0.1936 H   0  0  0  0  0  0  0  0  0  0  0  0
    0.8561    1.1922    1.8699 H   0  0  0  0  0  0  0  0  0  0  0  0
  1  2  1  0
  2  3  1  0
  3  4  1  0
  4  5  1  0
  5  6  1  0
  6  7  1  0
  7  8  2  0
  8  9  1  0
  6  3  1  0
  9  3  1  0
  9  5  1  0
  1 10  1  0
  1 11  1  0
  1 12  1  0
  4 13  1  0
  4 14  1  0
  5 15  1  0
  6 16  1  0
  7 17  1  0
  8 18  1  0
  9 19  1  0
M  END
