
     RDKit          3D

 17 18  0  0  0  0  0  0  0  0999 V2000
    2.7350   -0.0965   -0.5957 C   0  0  0  0  0  0  0  0  0  0  0  0
    1.4071   -0.2832   -0.9602 O   0  0  0  0  0  0  0  0  0  0  0  0
    0.5483   -0.0276    0.1110 C   0  0  0  0  0  0  0  0  0  0  0  0
   -0.5730   -0.8636    0.4337 C   0  0  0  0  0  0  0  0  0  0  0  0
   -1.9903   -0.4845    0.7899 C   0  0  0  0  0  0  0  0  0  0  0  0
   -1.9793   -0.0477   -0.6439 C   0  0  0  0  0  0  0  0  0  0  0  0
   -2.6798   -0.1669   -1.5942 O   0  0  0  0  0  0  0  0  0  0  0  0
   -0.7131    0.5648   -0.2481 C   0  0  0  0  0  0  0  0  0  0  0  0
   -1.0323    1.6175    0.6569 O   0  0  0  0  0  0  0  0  0  0  0  0
    3.4350   -0.2888   -1.4124 H   0  0  0  0  0  0  0  0  0  0  0  0
    2.9464   -0.8198    0.2192 H   0  0  0  0  0  0  0  0  0  0  0  0
    2.8500    0.9349   -0.1871 H   0  0  0  0  0  0  0  0  0  0  0  0
    1.1443    0.2742    1.0266 H   0  0  0  0  0  0  0  0  0  0  0  0
   -0.6528   -1.7239   -0.3078 H   0  0  0  0  0  0  0  0  0  0  0  0
   -2.6319   -1.3352    0.9869 H   0  0  0  0  0  0  0  0  0  0  0  0
   -2.1182    0.3093    1.5347 H   0  0  0  0  0  0  0  0  0  0  0  0
   -0.6956    2.4370    0.1906 H   0  0  0  0  0  0  0  0  0  0  0  0
  1  2  1  0
  2  3  1  0
  3  4  1  0
  4  5  1  0
  5  6  1  0
  6  7  2  0
  6  8  1  0
  8  9  1  0
  8  3  1  0
  8  4  1  0
  1 10  1  0
  1 11  1  0
  1 12  1  0
  3 13  1  0
  4 14  1  0
  5 15  1  0
  5 16  1  0
  9 17  1  0
M  END
