
     RDKit          3D

 21 22  0  0  0  0  0  0  0  0999 V2000
    2.6855   -0.6753   -0.0902 C   0  0  0  0  0  0  0  0  0  0  0  0
    1.7282    0.1465    0.5456 O   0  0  0  0  0  0  0  0  0  0  0  0
    0.5137   -0.1513   -0.0265 C   0  0  0  0  0  0  0  0  0  0  0  0
   -0.6668   -0.1832    0.9499 C   0  0  0  0  0  0  0  0  0  0  0  0
   -0.4426    1.0881    1.6898 C   0  0  0  0  0  0  0  0  0  0  0  0
   -0.2100    1.9758    0.6042 O   0  0  0  0  0  0  0  0  0  0  0  0
   -0.1904    1.1399   -0.4761 C   0  0  0  0  0  0  0  0  0  0  0  0
   -1.4708    0.3162   -0.2583 C   0  0  0  0  0  0  0  0  0  0  0  0
   -1.6983   -0.7459   -1.2838 C   0  0  0  0  0  0  0  0  0  0  0  0
    3.6747   -0.4763    0.3310 H   0  0  0  0  0  0  0  0  0  0  0  0
    2.6152   -0.4074   -1.1723 H   0  0  0  0  0  0  0  0  0  0  0  0
    2.3432   -1.7190    0.1026 H   0  0  0  0  0  0  0  0  0  0  0  0
    0.4791   -0.9046   -0.8090 H   0  0  0  0  0  0  0  0  0  0  0  0
   -0.9339   -1.0837    1.4058 H   0  0  0  0  0  0  0  0  0  0  0  0
   -1.2952    1.4182    2.2972 H   0  0  0  0  0  0  0  0  0  0  0  0
    0.5190    1.0571    2.2408 H   0  0  0  0  0  0  0  0  0  0  0  0
    0.0046    1.4853   -1.4571 H   0  0  0  0  0  0  0  0  0  0  0  0
   -2.3324    0.9357    0.0148 H   0  0  0  0  0  0  0  0  0  0  0  0
   -1.5183   -1.7582   -0.8218 H   0  0  0  0  0  0  0  0  0  0  0  0
   -1.0352   -0.6898   -2.1594 H   0  0  0  0  0  0  0  0  0  0  0  0
   -2.7692   -0.7682   -1.6271 H   0  0  0  0  0  0  0  0  0  0  0  0
  1  2  1  0
  2  3  1  0
  3  4  1  0
  4  5  1  0
  5  6  1  0
  6  7  1  0
  7  8  1  0
  8  9  1  0
  7  3  1  0
  8  4  1  0
  1 10  1  0
  1 11  1  0
  1 12  1  0
  3 13  1  0
  4 14  1  0
  5 15  1  0
  5 16  1  0
  7 17  1  0
  8 18  1  0
  9 19  1  0
  9 20  1  0
  9 21  1  0
M  END
