
     RDKit          3D

 23 24  0  0  0  0  0  0  0  0999 V2000
    2.4256   -1.2166    0.1185 C   0  0  0  0  0  0  0  0  0  0  0  0
    1.4123   -0.5025    0.7340 O   0  0  0  0  0  0  0  0  0  0  0  0
    0.5615    0.1208   -0.1614 C   0  0  0  0  0  0  0  0  0  0  0  0
    1.1025    1.1146   -1.1041 C   0  0  0  0  0  0  0  0  0  0  0  0
    0.3419    1.6547    0.0373 C   0  0  0  0  0  0  0  0  0  0  0  0
   -1.1615    1.4359   -0.0047 C   0  0  0  0  0  0  0  0  0  0  0  0
   -0.9007   -0.0408    0.0939 C   0  0  0  0  0  0  0  0  0  0  0  0
   -1.6839   -0.8327   -0.9019 C   0  0  0  0  0  0  0  0  0  0  0  0
   -1.1742   -0.5675    1.5027 C   0  0  0  0  0  0  0  0  0  0  0  0
    3.0362   -0.5201   -0.5030 H   0  0  0  0  0  0  0  0  0  0  0  0
    2.0647   -2.0844   -0.4672 H   0  0  0  0  0  0  0  0  0  0  0  0
    3.0939   -1.6022    0.9116 H   0  0  0  0  0  0  0  0  0  0  0  0
    0.6115    1.1971   -2.1066 H   0  0  0  0  0  0  0  0  0  0  0  0
    2.1955    1.2684   -1.0728 H   0  0  0  0  0  0  0  0  0  0  0  0
    0.7941    2.0971    0.9240 H   0  0  0  0  0  0  0  0  0  0  0  0
   -1.6844    1.8229    0.8660 H   0  0  0  0  0  0  0  0  0  0  0  0
   -1.6461    1.7274   -0.9576 H   0  0  0  0  0  0  0  0  0  0  0  0
   -1.5088   -1.9195   -0.6809 H   0  0  0  0  0  0  0  0  0  0  0  0
   -1.4296   -0.6360   -1.9496 H   0  0  0  0  0  0  0  0  0  0  0  0
   -2.7754   -0.6081   -0.7297 H   0  0  0  0  0  0  0  0  0  0  0  0
   -2.2170   -0.8736    1.5508 H   0  0  0  0  0  0  0  0  0  0  0  0
   -1.0258    0.3057    2.2004 H   0  0  0  0  0  0  0  0  0  0  0  0
   -0.4323   -1.3406    1.7005 H   0  0  0  0  0  0  0  0  0  0  0  0
  1  2  1  0
  2  3  1  0
  3  4  1  0
  4  5  1  0
  5  6  1  0
  6  7  1  0
  7  8  1  0
  7  9  1  0
  5  3  1  0
  7  3  1  0
  1 10  1  0
  1 11  1  0
  1 12  1  0
  4 13  1  0
  4 14  1  0
  5 15  1  0
  6 16  1  0
  6 17  1  0
  8 18  1  0
  8 19  1  0
  8 20  1  0
  9 21  1  0
  9 22  1  0
  9 23  1  0
M  END
