
     RDKit          3D

 20 20  0  0  0  0  0  0  0  0999 V2000
    2.2732    1.0673    0.3077 C   0  0  0  0  0  0  0  0  0  0  0  0
    1.3274    0.2787    0.9662 O   0  0  0  0  0  0  0  0  0  0  0  0
    0.5252   -0.2787   -0.0275 C   0  0  0  0  0  0  0  0  0  0  0  0
    0.3669   -1.8007    0.0945 C   0  0  0  0  0  0  0  0  0  0  0  0
   -1.0765   -1.5881   -0.3824 C   0  0  0  0  0  0  0  0  0  0  0  0
   -0.9655   -0.1939    0.2502 C   0  0  0  0  0  0  0  0  0  0  0  0
   -1.6427    0.8956   -0.5091 C   0  0  0  0  0  0  0  0  0  0  0  0
   -1.0566    2.1072   -0.1403 O   0  0  0  0  0  0  0  0  0  0  0  0
    2.9728    1.5675    0.9785 H   0  0  0  0  0  0  0  0  0  0  0  0
    2.8355    0.3510   -0.3607 H   0  0  0  0  0  0  0  0  0  0  0  0
    1.7068    1.7669   -0.3573 H   0  0  0  0  0  0  0  0  0  0  0  0
    0.7821   -0.0030   -1.0646 H   0  0  0  0  0  0  0  0  0  0  0  0
    0.3689   -2.0854    1.1733 H   0  0  0  0  0  0  0  0  0  0  0  0
    0.9937   -2.3853   -0.5735 H   0  0  0  0  0  0  0  0  0  0  0  0
   -1.7466   -2.2746    0.1380 H   0  0  0  0  0  0  0  0  0  0  0  0
   -1.1489   -1.5361   -1.4765 H   0  0  0  0  0  0  0  0  0  0  0  0
   -1.1738   -0.2599    1.3184 H   0  0  0  0  0  0  0  0  0  0  0  0
   -2.7239    0.9047   -0.1909 H   0  0  0  0  0  0  0  0  0  0  0  0
   -1.5568    0.6984   -1.5920 H   0  0  0  0  0  0  0  0  0  0  0  0
   -1.0610    2.7684   -0.8737 H   0  0  0  0  0  0  0  0  0  0  0  0
  1  2  1  0
  2  3  1  0
  3  4  1  0
  4  5  1  0
  5  6  1  0
  6  7  1  0
  7  8  1  0
  6  3  1  0
  1  9  1  0
  1 10  1  0
  1 11  1  0
  3 12  1  0
  4 13  1  0
  4 14  1  0
  5 15  1  0
  5 16  1  0
  6 17  1  0
  7 18  1  0
  7 19  1  0
  8 20  1  0
M  END
