
     RDKit          3D

 21 21  0  0  0  0  0  0  0  0999 V2000
    2.3481   -0.9413    0.3810 C   0  0  0  0  0  0  0  0  0  0  0  0
    1.0894   -0.5078    0.7616 O   0  0  0  0  0  0  0  0  0  0  0  0
    0.4961    0.3475   -0.1281 C   0  0  0  0  0  0  0  0  0  0  0  0
    0.1848    1.6599    0.5839 C   0  0  0  0  0  0  0  0  0  0  0  0
   -1.1123    2.0430   -0.1404 C   0  0  0  0  0  0  0  0  0  0  0  0
   -1.7887    0.8096   -0.0409 O   0  0  0  0  0  0  0  0  0  0  0  0
   -0.8716   -0.1053   -0.5591 C   0  0  0  0  0  0  0  0  0  0  0  0
   -1.0855   -1.4917    0.0532 C   0  0  0  0  0  0  0  0  0  0  0  0
   -2.3517   -1.9746   -0.2063 O   0  0  0  0  0  0  0  0  0  0  0  0
    2.7178   -1.6210    1.1764 H   0  0  0  0  0  0  0  0  0  0  0  0
    3.0497   -0.0788    0.3522 H   0  0  0  0  0  0  0  0  0  0  0  0
    2.3462   -1.4520   -0.5805 H   0  0  0  0  0  0  0  0  0  0  0  0
    1.1588    0.5390   -1.0179 H   0  0  0  0  0  0  0  0  0  0  0  0
   -0.0665    1.4019    1.6198 H   0  0  0  0  0  0  0  0  0  0  0  0
    0.9668    2.4065    0.4631 H   0  0  0  0  0  0  0  0  0  0  0  0
   -1.6317    2.8467    0.3695 H   0  0  0  0  0  0  0  0  0  0  0  0
   -0.9243    2.1988   -1.2132 H   0  0  0  0  0  0  0  0  0  0  0  0
   -1.0027   -0.1305   -1.6495 H   0  0  0  0  0  0  0  0  0  0  0  0
   -0.2693   -2.1223   -0.3235 H   0  0  0  0  0  0  0  0  0  0  0  0
   -0.9111   -1.3456    1.1452 H   0  0  0  0  0  0  0  0  0  0  0  0
   -2.3421   -2.4820   -1.0466 H   0  0  0  0  0  0  0  0  0  0  0  0
  1  2  1  0
  2  3  1  0
  3  4  1  0
  4  5  1  0
  5  6  1  0
  6  7  1  0
  7  8  1  0
  8  9  1  0
  7  3  1  0
  1 10  1  0
  1 11  1  0
  1 12  1  0
  3 13  1  0
  4 14  1  0
  4 15  1  0
  5 16  1  0
  5 17  1  0
  7 18  1  0
  8 19  1  0
  8 20  1  0
  9 21  1  0
M  END
