
     RDKit          3D

 21 22  0  0  0  0  0  0  0  0999 V2000
    2.0661    1.2948    0.1855 C   0  0  0  0  0  0  0  0  0  0  0  0
    1.4683    0.5416   -0.7837 O   0  0  0  0  0  0  0  0  0  0  0  0
    0.5606   -0.2252   -0.3964 C   0  0  0  0  0  0  0  0  0  0  0  0
    0.6708   -1.3542    0.6055 C   0  0  0  0  0  0  0  0  0  0  0  0
   -0.7812   -1.3730    0.1745 C   0  0  0  0  0  0  0  0  0  0  0  0
   -0.2335   -1.1963   -1.2157 C   0  0  0  0  0  0  0  0  0  0  0  0
   -0.7327    0.1199    0.2930 C   0  0  0  0  0  0  0  0  0  0  0  0
   -1.7314    0.8873   -0.4996 C   0  0  0  0  0  0  0  0  0  0  0  0
   -0.6229    0.5973    1.5868 O   0  0  0  0  0  0  0  0  0  0  0  0
    1.3787    1.9756    0.7353 H   0  0  0  0  0  0  0  0  0  0  0  0
    2.4576    0.5824    0.9664 H   0  0  0  0  0  0  0  0  0  0  0  0
    2.9183    1.8603   -0.2496 H   0  0  0  0  0  0  0  0  0  0  0  0
    1.1987   -2.2105    0.1747 H   0  0  0  0  0  0  0  0  0  0  0  0
    0.8745   -1.0673    1.6308 H   0  0  0  0  0  0  0  0  0  0  0  0
   -1.4884   -2.0031    0.4817 H   0  0  0  0  0  0  0  0  0  0  0  0
   -0.9026   -0.8011   -1.9729 H   0  0  0  0  0  0  0  0  0  0  0  0
    0.4113   -2.0423   -1.5332 H   0  0  0  0  0  0  0  0  0  0  0  0
   -1.1999    1.6612   -1.0910 H   0  0  0  0  0  0  0  0  0  0  0  0
   -2.4025    1.4680    0.1987 H   0  0  0  0  0  0  0  0  0  0  0  0
   -2.4069    0.2791   -1.1172 H   0  0  0  0  0  0  0  0  0  0  0  0
   -1.5028    1.0054    1.8263 H   0  0  0  0  0  0  0  0  0  0  0  0
  1  2  1  0
  2  3  1  0
  3  4  1  0
  4  5  1  0
  5  6  1  0
  5  7  1  0
  7  8  1  0
  7  9  1  0
  6  3  1  0
  7  3  1  0
  1 10  1  0
  1 11  1  0
  1 12  1  0
  4 13  1  0
  4 14  1  0
  5 15  1  0
  6 16  1  0
  6 17  1  0
  8 18  1  0
  8 19  1  0
  8 20  1  0
  9 21  1  0
M  END
