
     RDKit          3D

 21 21  0  0  0  0  0  0  0  0999 V2000
   -2.6836    1.0884   -0.0164 C   0  0  0  0  0  0  0  0  0  0  0  0
   -1.6961    0.5050    0.7678 O   0  0  0  0  0  0  0  0  0  0  0  0
   -0.4719    0.4986    0.1334 C   0  0  0  0  0  0  0  0  0  0  0  0
    0.7088    0.9296    0.9847 C   0  0  0  0  0  0  0  0  0  0  0  0
    1.4381   -0.3774    0.6490 C   0  0  0  0  0  0  0  0  0  0  0  0
    2.5158   -0.1805   -0.3187 C   0  0  0  0  0  0  0  0  0  0  0  0
    2.3805   -0.0704   -1.5266 O   0  0  0  0  0  0  0  0  0  0  0  0
    0.1370   -0.9108    0.1487 C   0  0  0  0  0  0  0  0  0  0  0  0
    0.1089   -1.4861   -1.2277 C   0  0  0  0  0  0  0  0  0  0  0  0
   -2.3564    2.1427   -0.2167 H   0  0  0  0  0  0  0  0  0  0  0  0
   -3.6174    1.0873    0.5912 H   0  0  0  0  0  0  0  0  0  0  0  0
   -2.7799    0.5056   -0.9434 H   0  0  0  0  0  0  0  0  0  0  0  0
   -0.4753    0.9567   -0.8915 H   0  0  0  0  0  0  0  0  0  0  0  0
    1.1980    1.8184    0.5517 H   0  0  0  0  0  0  0  0  0  0  0  0
    0.3997    0.9959    2.0410 H   0  0  0  0  0  0  0  0  0  0  0  0
    1.7767   -0.9446    1.5345 H   0  0  0  0  0  0  0  0  0  0  0  0
    3.5375   -0.1238    0.0441 H   0  0  0  0  0  0  0  0  0  0  0  0
   -0.3827   -1.5828    0.8713 H   0  0  0  0  0  0  0  0  0  0  0  0
   -0.8671   -2.0084   -1.3595 H   0  0  0  0  0  0  0  0  0  0  0  0
    0.9774   -2.1597   -1.4224 H   0  0  0  0  0  0  0  0  0  0  0  0
    0.1521   -0.6838   -1.9802 H   0  0  0  0  0  0  0  0  0  0  0  0
  1  2  1  0
  2  3  1  0
  3  4  1  0
  4  5  1  0
  5  6  1  0
  6  7  2  0
  5  8  1  0
  8  9  1  0
  8  3  1  0
  1 10  1  0
  1 11  1  0
  1 12  1  0
  3 13  1  0
  4 14  1  0
  4 15  1  0
  5 16  1  0
  6 17  1  0
  8 18  1  0
  9 19  1  0
  9 20  1  0
  9 21  1  0
M  END
