
     RDKit          3D

 21 21  0  0  0  0  0  0  0  0999 V2000
    2.1357    0.3383   -1.1064 C   0  0  0  0  0  0  0  0  0  0  0  0
    1.1970    1.1142   -0.4708 O   0  0  0  0  0  0  0  0  0  0  0  0
    0.4634    0.3537    0.4079 C   0  0  0  0  0  0  0  0  0  0  0  0
    1.2714   -0.3107    1.4992 C   0  0  0  0  0  0  0  0  0  0  0  0
   -0.8585    0.9412    0.9112 C   0  0  0  0  0  0  0  0  0  0  0  0
   -0.8316   -0.2627    0.0245 C   0  0  0  0  0  0  0  0  0  0  0  0
   -1.1664   -1.4956    0.6036 O   0  0  0  0  0  0  0  0  0  0  0  0
   -1.4249   -0.0666   -1.3417 C   0  0  0  0  0  0  0  0  0  0  0  0
   -2.8361   -0.1220   -1.2927 O   0  0  0  0  0  0  0  0  0  0  0  0
    1.5874   -0.4755   -1.6667 H   0  0  0  0  0  0  0  0  0  0  0  0
    2.6955    0.8891   -1.8888 H   0  0  0  0  0  0  0  0  0  0  0  0
    2.8463   -0.1709   -0.4549 H   0  0  0  0  0  0  0  0  0  0  0  0
    1.9035    0.4744    1.9995 H   0  0  0  0  0  0  0  0  0  0  0  0
    1.9480   -1.0951    1.1262 H   0  0  0  0  0  0  0  0  0  0  0  0
    0.5723   -0.6855    2.2917 H   0  0  0  0  0  0  0  0  0  0  0  0
   -1.1534    0.7567    1.9564 H   0  0  0  0  0  0  0  0  0  0  0  0
   -1.1521    1.9249    0.4980 H   0  0  0  0  0  0  0  0  0  0  0  0
   -1.8250   -1.3793    1.3274 H   0  0  0  0  0  0  0  0  0  0  0  0
   -1.2008    0.9608   -1.7355 H   0  0  0  0  0  0  0  0  0  0  0  0
   -1.0754   -0.8611   -2.0362 H   0  0  0  0  0  0  0  0  0  0  0  0
   -3.0964   -0.8286   -0.6519 H   0  0  0  0  0  0  0  0  0  0  0  0
  1  2  1  0
  2  3  1  0
  3  4  1  0
  3  5  1  0
  5  6  1  0
  6  7  1  0
  6  8  1  0
  8  9  1  0
  6  3  1  0
  1 10  1  0
  1 11  1  0
  1 12  1  0
  4 13  1  0
  4 14  1  0
  4 15  1  0
  5 16  1  0
  5 17  1  0
  7 18  1  0
  8 19  1  0
  8 20  1  0
  9 21  1  0
M  END
