
     RDKit          3D

 19 19  0  0  0  0  0  0  0  0999 V2000
    2.0508   -0.4033    0.4362 C   0  0  0  0  0  0  0  0  0  0  0  0
    1.3428    0.7262    0.1243 O   0  0  0  0  0  0  0  0  0  0  0  0
    0.0271    0.5276   -0.2012 C   0  0  0  0  0  0  0  0  0  0  0  0
   -0.5664    1.9074   -0.5126 C   0  0  0  0  0  0  0  0  0  0  0  0
   -0.7060    0.0142    1.0116 C   0  0  0  0  0  0  0  0  0  0  0  0
   -1.2776   -1.2859    0.5604 C   0  0  0  0  0  0  0  0  0  0  0  0
   -0.9898   -1.5172   -0.7181 C   0  0  0  0  0  0  0  0  0  0  0  0
   -0.2106   -0.4315   -1.2698 C   0  0  0  0  0  0  0  0  0  0  0  0
    0.1808   -0.3429   -2.4468 O   0  0  0  0  0  0  0  0  0  0  0  0
    2.0854   -1.1455   -0.3944 H   0  0  0  0  0  0  0  0  0  0  0  0
    1.7363   -0.9277    1.3472 H   0  0  0  0  0  0  0  0  0  0  0  0
    3.1160   -0.0951    0.5964 H   0  0  0  0  0  0  0  0  0  0  0  0
    0.1837    2.5082   -1.0984 H   0  0  0  0  0  0  0  0  0  0  0  0
   -1.4562    1.8304   -1.1479 H   0  0  0  0  0  0  0  0  0  0  0  0
   -0.7564    2.3942    0.4694 H   0  0  0  0  0  0  0  0  0  0  0  0
   -1.5378    0.6873    1.3344 H   0  0  0  0  0  0  0  0  0  0  0  0
   -0.0426   -0.0959    1.8918 H   0  0  0  0  0  0  0  0  0  0  0  0
   -1.8473   -1.9223    1.2311 H   0  0  0  0  0  0  0  0  0  0  0  0
   -1.3322   -2.4283   -1.2134 H   0  0  0  0  0  0  0  0  0  0  0  0
  1  2  1  0
  2  3  1  0
  3  4  1  0
  3  5  1  0
  5  6  1  0
  6  7  2  0
  7  8  1  0
  8  9  2  0
  8  3  1  0
  1 10  1  0
  1 11  1  0
  1 12  1  0
  4 13  1  0
  4 14  1  0
  4 15  1  0
  5 16  1  0
  5 17  1  0
  6 18  1  0
  7 19  1  0
M  END
