
     RDKit          3D

 19 19  0  0  0  0  0  0  0  0999 V2000
    1.9085    1.7569   -0.4973 C   0  0  0  0  0  0  0  0  0  0  0  0
    1.1068    0.7443   -0.9871 O   0  0  0  0  0  0  0  0  0  0  0  0
    0.8506   -0.2611   -0.0956 C   0  0  0  0  0  0  0  0  0  0  0  0
    1.0755   -1.6726   -0.5764 C   0  0  0  0  0  0  0  0  0  0  0  0
   -0.3902   -1.8991   -0.7305 C   0  0  0  0  0  0  0  0  0  0  0  0
   -1.1001   -2.7459   -1.1913 O   0  0  0  0  0  0  0  0  0  0  0  0
   -0.6288   -0.5870   -0.0488 C   0  0  0  0  0  0  0  0  0  0  0  0
   -1.4164    0.2069   -0.8768 O   0  0  0  0  0  0  0  0  0  0  0  0
   -2.5400    0.6997   -0.2314 C   0  0  0  0  0  0  0  0  0  0  0  0
    2.9110    1.4023   -0.1749 H   0  0  0  0  0  0  0  0  0  0  0  0
    1.3624    2.2254    0.3724 H   0  0  0  0  0  0  0  0  0  0  0  0
    1.9580    2.5582   -1.2636 H   0  0  0  0  0  0  0  0  0  0  0  0
    1.3296   -0.1116    0.8976 H   0  0  0  0  0  0  0  0  0  0  0  0
    1.4466   -2.3605    0.2325 H   0  0  0  0  0  0  0  0  0  0  0  0
    1.6180   -1.7772   -1.5341 H   0  0  0  0  0  0  0  0  0  0  0  0
   -1.0243   -0.6991    0.9934 H   0  0  0  0  0  0  0  0  0  0  0  0
   -3.0910    1.3141   -0.9794 H   0  0  0  0  0  0  0  0  0  0  0  0
   -3.1529   -0.1346    0.1713 H   0  0  0  0  0  0  0  0  0  0  0  0
   -2.2236    1.3408    0.6238 H   0  0  0  0  0  0  0  0  0  0  0  0
  1  2  1  0
  2  3  1  0
  3  4  1  0
  4  5  1  0
  5  6  2  0
  5  7  1  0
  7  8  1  0
  8  9  1  0
  7  3  1  0
  1 10  1  0
  1 11  1  0
  1 12  1  0
  3 13  1  0
  4 14  1  0
  4 15  1  0
  7 16  1  0
  9 17  1  0
  9 18  1  0
  9 19  1  0
M  END
