
     RDKit          3D

 18 18  0  0  0  0  0  0  0  0999 V2000
    2.5339    0.0850    0.2957 C   0  0  0  0  0  0  0  0  0  0  0  0
    1.2664   -0.3546    0.5404 O   0  0  0  0  0  0  0  0  0  0  0  0
    0.2454    0.1719   -0.1380 C   0  0  0  0  0  0  0  0  0  0  0  0
   -0.3539   -0.9161   -1.0469 C   0  0  0  0  0  0  0  0  0  0  0  0
   -1.5516   -1.3216   -0.2615 C   0  0  0  0  0  0  0  0  0  0  0  0
   -1.8633   -0.4021    0.6397 C   0  0  0  0  0  0  0  0  0  0  0  0
   -0.9095    0.7319    0.5645 C   0  0  0  0  0  0  0  0  0  0  0  0
   -1.5072    1.7788   -0.1781 O   0  0  0  0  0  0  0  0  0  0  0  0
    2.8828   -0.0563   -0.7496 H   0  0  0  0  0  0  0  0  0  0  0  0
    3.2286   -0.5077    0.9312 H   0  0  0  0  0  0  0  0  0  0  0  0
    2.7271    1.1399    0.5637 H   0  0  0  0  0  0  0  0  0  0  0  0
    0.6341    0.9525   -0.8552 H   0  0  0  0  0  0  0  0  0  0  0  0
   -0.6790   -0.4895   -2.0049 H   0  0  0  0  0  0  0  0  0  0  0  0
    0.3688   -1.7395   -1.1881 H   0  0  0  0  0  0  0  0  0  0  0  0
   -2.1257   -2.2669   -0.3954 H   0  0  0  0  0  0  0  0  0  0  0  0
   -2.7146   -0.4993    1.3286 H   0  0  0  0  0  0  0  0  0  0  0  0
   -0.7428    1.0619    1.6048 H   0  0  0  0  0  0  0  0  0  0  0  0
   -1.4396    2.6317    0.3491 H   0  0  0  0  0  0  0  0  0  0  0  0
  1  2  1  0
  2  3  1  0
  3  4  1  0
  4  5  1  0
  5  6  2  0
  6  7  1  0
  7  8  1  0
  7  3  1  0
  1  9  1  0
  1 10  1  0
  1 11  1  0
  3 12  1  0
  4 13  1  0
  4 14  1  0
  5 15  1  0
  6 16  1  0
  7 17  1  0
  8 18  1  0
M  END
