
     RDKit          3D

 19 19  0  0  0  0  0  0  0  0999 V2000
    2.5167   -0.1643    0.2935 C   0  0  0  0  0  0  0  0  0  0  0  0
    1.4718    0.1576   -0.5644 O   0  0  0  0  0  0  0  0  0  0  0  0
    0.2774   -0.0657    0.1121 C   0  0  0  0  0  0  0  0  0  0  0  0
   -0.5594    1.1803    0.1225 C   0  0  0  0  0  0  0  0  0  0  0  0
   -0.3120    1.9135   -1.0322 O   0  0  0  0  0  0  0  0  0  0  0  0
   -1.9276    0.6926    0.2353 C   0  0  0  0  0  0  0  0  0  0  0  0
   -1.9781   -0.5421   -0.2163 C   0  0  0  0  0  0  0  0  0  0  0  0
   -0.6281   -1.0089   -0.6815 C   0  0  0  0  0  0  0  0  0  0  0  0
   -0.3619   -2.3054   -0.2902 O   0  0  0  0  0  0  0  0  0  0  0  0
    2.5133    0.4499    1.2242 H   0  0  0  0  0  0  0  0  0  0  0  0
    2.3846   -1.2492    0.5503 H   0  0  0  0  0  0  0  0  0  0  0  0
    3.4573   -0.0046   -0.2812 H   0  0  0  0  0  0  0  0  0  0  0  0
    0.4045   -0.4307    1.1299 H   0  0  0  0  0  0  0  0  0  0  0  0
   -0.2187    1.7992    0.9764 H   0  0  0  0  0  0  0  0  0  0  0  0
   -0.2425    2.8957   -0.8167 H   0  0  0  0  0  0  0  0  0  0  0  0
   -2.7632    1.2945    0.6411 H   0  0  0  0  0  0  0  0  0  0  0  0
   -2.8485   -1.1720   -0.2649 H   0  0  0  0  0  0  0  0  0  0  0  0
   -0.4930   -0.9193   -1.7584 H   0  0  0  0  0  0  0  0  0  0  0  0
   -0.6925   -2.5211    0.6207 H   0  0  0  0  0  0  0  0  0  0  0  0
  1  2  1  0
  2  3  1  0
  3  4  1  0
  4  5  1  0
  4  6  1  0
  6  7  2  0
  7  8  1  0
  8  9  1  0
  8  3  1  0
  1 10  1  0
  1 11  1  0
  1 12  1  0
  3 13  1  0
  4 14  1  0
  5 15  1  0
  6 16  1  0
  7 17  1  0
  8 18  1  0
  9 19  1  0
M  END
