
     RDKit          3D

 21 21  0  0  0  0  0  0  0  0999 V2000
    2.1245    0.8728    0.3638 C   0  0  0  0  0  0  0  0  0  0  0  0
    0.9758    0.5657    1.0514 O   0  0  0  0  0  0  0  0  0  0  0  0
    0.1570   -0.2651    0.3101 C   0  0  0  0  0  0  0  0  0  0  0  0
    0.8272   -1.5674   -0.0357 C   0  0  0  0  0  0  0  0  0  0  0  0
   -1.1993   -0.5326    0.9290 C   0  0  0  0  0  0  0  0  0  0  0  0
   -1.7489   -0.5496   -0.5046 C   0  0  0  0  0  0  0  0  0  0  0  0
   -0.5870    0.4048   -0.8174 C   0  0  0  0  0  0  0  0  0  0  0  0
   -1.0160    1.7752   -0.4213 C   0  0  0  0  0  0  0  0  0  0  0  0
   -2.1965    2.0981   -0.3656 O   0  0  0  0  0  0  0  0  0  0  0  0
    1.9497    1.3902   -0.5964 H   0  0  0  0  0  0  0  0  0  0  0  0
    2.7304   -0.0407    0.1042 H   0  0  0  0  0  0  0  0  0  0  0  0
    2.8087    1.5068    0.9646 H   0  0  0  0  0  0  0  0  0  0  0  0
    0.1146   -2.3712   -0.3067 H   0  0  0  0  0  0  0  0  0  0  0  0
    1.3481   -1.9160    0.8815 H   0  0  0  0  0  0  0  0  0  0  0  0
    1.5375   -1.4825   -0.8787 H   0  0  0  0  0  0  0  0  0  0  0  0
   -1.3057   -1.4908    1.4561 H   0  0  0  0  0  0  0  0  0  0  0  0
   -1.6515    0.3432    1.4506 H   0  0  0  0  0  0  0  0  0  0  0  0
   -1.6618   -1.5147   -1.0151 H   0  0  0  0  0  0  0  0  0  0  0  0
   -2.7461   -0.0864   -0.6044 H   0  0  0  0  0  0  0  0  0  0  0  0
   -0.1527    0.2955   -1.8057 H   0  0  0  0  0  0  0  0  0  0  0  0
   -0.3080    2.5647   -0.1599 H   0  0  0  0  0  0  0  0  0  0  0  0
  1  2  1  0
  2  3  1  0
  3  4  1  0
  3  5  1  0
  5  6  1  0
  6  7  1  0
  7  8  1  0
  8  9  2  0
  7  3  1  0
  1 10  1  0
  1 11  1  0
  1 12  1  0
  4 13  1  0
  4 14  1  0
  4 15  1  0
  5 16  1  0
  5 17  1  0
  6 18  1  0
  6 19  1  0
  7 20  1  0
  8 21  1  0
M  END
