
     RDKit          3D

 21 21  0  0  0  0  0  0  0  0999 V2000
   -0.6543    1.3762    1.4974 C   0  0  0  0  0  0  0  0  0  0  0  0
   -0.1229    0.1260    1.3372 O   0  0  0  0  0  0  0  0  0  0  0  0
    0.0257   -0.2430    0.0455 C   0  0  0  0  0  0  0  0  0  0  0  0
    0.9840    0.4540   -0.7942 C   0  0  0  0  0  0  0  0  0  0  0  0
    1.9517    1.4311   -0.2370 C   0  0  0  0  0  0  0  0  0  0  0  0
    1.0742    0.2908   -2.0119 O   0  0  0  0  0  0  0  0  0  0  0  0
    0.2639   -1.7758   -0.0515 C   0  0  0  0  0  0  0  0  0  0  0  0
   -1.2335   -1.9037    0.1192 C   0  0  0  0  0  0  0  0  0  0  0  0
   -1.3136   -0.5572   -0.6156 C   0  0  0  0  0  0  0  0  0  0  0  0
   -0.0352    2.1463    1.0267 H   0  0  0  0  0  0  0  0  0  0  0  0
   -1.7107    1.4290    1.0842 H   0  0  0  0  0  0  0  0  0  0  0  0
   -0.8273    1.6099    2.5949 H   0  0  0  0  0  0  0  0  0  0  0  0
    2.1097    1.2857    0.8503 H   0  0  0  0  0  0  0  0  0  0  0  0
    2.9570    1.2590   -0.7205 H   0  0  0  0  0  0  0  0  0  0  0  0
    1.7208    2.4813   -0.4427 H   0  0  0  0  0  0  0  0  0  0  0  0
    0.6399   -2.0784   -1.0327 H   0  0  0  0  0  0  0  0  0  0  0  0
    0.8786   -2.1204    0.7803 H   0  0  0  0  0  0  0  0  0  0  0  0
   -1.5292   -1.8216    1.1846 H   0  0  0  0  0  0  0  0  0  0  0  0
   -1.7267   -2.6830   -0.4613 H   0  0  0  0  0  0  0  0  0  0  0  0
   -1.2687   -0.6887   -1.7106 H   0  0  0  0  0  0  0  0  0  0  0  0
   -2.1835   -0.0176   -0.2521 H   0  0  0  0  0  0  0  0  0  0  0  0
  1  2  1  0
  2  3  1  0
  3  4  1  0
  4  5  1  0
  4  6  2  0
  3  7  1  0
  7  8  1  0
  8  9  1  0
  9  3  1  0
  1 10  1  0
  1 11  1  0
  1 12  1  0
  5 13  1  0
  5 14  1  0
  5 15  1  0
  7 16  1  0
  7 17  1  0
  8 18  1  0
  8 19  1  0
  9 20  1  0
  9 21  1  0
M  END
