
     RDKit          3D

 21 22  0  0  0  0  0  0  0  0999 V2000
    2.5873    0.2836    0.5477 C   0  0  0  0  0  0  0  0  0  0  0  0
    1.6895    0.0256   -0.4867 O   0  0  0  0  0  0  0  0  0  0  0  0
    0.4898   -0.3195    0.0504 C   0  0  0  0  0  0  0  0  0  0  0  0
   -0.6650    0.5495   -0.3773 C   0  0  0  0  0  0  0  0  0  0  0  0
   -0.6103    1.9299    0.2193 C   0  0  0  0  0  0  0  0  0  0  0  0
   -1.8100   -0.2758    0.2192 C   0  0  0  0  0  0  0  0  0  0  0  0
   -1.4200   -1.6609   -0.2389 C   0  0  0  0  0  0  0  0  0  0  0  0
   -0.8168   -1.6750   -1.6040 O   0  0  0  0  0  0  0  0  0  0  0  0
   -0.0028   -1.6866   -0.3672 C   0  0  0  0  0  0  0  0  0  0  0  0
    2.2216    1.1151    1.1887 H   0  0  0  0  0  0  0  0  0  0  0  0
    2.6987   -0.5972    1.2358 H   0  0  0  0  0  0  0  0  0  0  0  0
    3.6220    0.4821    0.1663 H   0  0  0  0  0  0  0  0  0  0  0  0
    0.5105   -0.3136    1.1573 H   0  0  0  0  0  0  0  0  0  0  0  0
   -0.7978    0.5715   -1.4632 H   0  0  0  0  0  0  0  0  0  0  0  0
    0.3863    2.3536   -0.0565 H   0  0  0  0  0  0  0  0  0  0  0  0
   -0.7956    1.9171    1.2983 H   0  0  0  0  0  0  0  0  0  0  0  0
   -1.3983    2.5340   -0.2934 H   0  0  0  0  0  0  0  0  0  0  0  0
   -2.7871    0.0515   -0.1265 H   0  0  0  0  0  0  0  0  0  0  0  0
   -1.6757   -0.2397    1.3239 H   0  0  0  0  0  0  0  0  0  0  0  0
   -2.0985   -2.5127   -0.0764 H   0  0  0  0  0  0  0  0  0  0  0  0
    0.6722   -2.5325   -0.4113 H   0  0  0  0  0  0  0  0  0  0  0  0
  1  2  1  0
  2  3  1  0
  3  4  1  0
  4  5  1  0
  4  6  1  0
  6  7  1  0
  7  8  1  0
  8  9  1  0
  9  3  1  0
  9  7  1  0
  1 10  1  0
  1 11  1  0
  1 12  1  0
  3 13  1  0
  4 14  1  0
  5 15  1  0
  5 16  1  0
  5 17  1  0
  6 18  1  0
  6 19  1  0
  7 20  1  0
  9 21  1  0
M  END
