
     RDKit          3D

 20 20  0  0  0  0  0  0  0  0999 V2000
    2.4367    0.2852   -0.8371 C   0  0  0  0  0  0  0  0  0  0  0  0
    1.0588    0.1854   -0.8664 O   0  0  0  0  0  0  0  0  0  0  0  0
    0.5124   -0.1523    0.3647 C   0  0  0  0  0  0  0  0  0  0  0  0
   -0.3025   -1.4153    0.1378 C   0  0  0  0  0  0  0  0  0  0  0  0
   -1.5351   -0.9063   -0.5315 C   0  0  0  0  0  0  0  0  0  0  0  0
   -1.6259    0.5762   -0.2705 C   0  0  0  0  0  0  0  0  0  0  0  0
   -0.5137    0.9039    0.7011 C   0  0  0  0  0  0  0  0  0  0  0  0
   -0.9068    0.8835    2.0136 O   0  0  0  0  0  0  0  0  0  0  0  0
    2.7886    1.0649   -0.1155 H   0  0  0  0  0  0  0  0  0  0  0  0
    2.7671    0.5515   -1.8624 H   0  0  0  0  0  0  0  0  0  0  0  0
    2.8354   -0.6914   -0.4929 H   0  0  0  0  0  0  0  0  0  0  0  0
    1.2646   -0.2843    1.1586 H   0  0  0  0  0  0  0  0  0  0  0  0
    0.2687   -2.0713   -0.5586 H   0  0  0  0  0  0  0  0  0  0  0  0
   -0.4937   -1.9554    1.0822 H   0  0  0  0  0  0  0  0  0  0  0  0
   -1.4959   -1.1324   -1.6138 H   0  0  0  0  0  0  0  0  0  0  0  0
   -2.4146   -1.4399   -0.1281 H   0  0  0  0  0  0  0  0  0  0  0  0
   -1.3490    1.0901   -1.2335 H   0  0  0  0  0  0  0  0  0  0  0  0
   -2.6098    0.8982    0.0828 H   0  0  0  0  0  0  0  0  0  0  0  0
   -0.0485    1.8910    0.4692 H   0  0  0  0  0  0  0  0  0  0  0  0
   -0.6366    1.7189    2.5004 H   0  0  0  0  0  0  0  0  0  0  0  0
  1  2  1  0
  2  3  1  0
  3  4  1  0
  4  5  1  0
  5  6  1  0
  6  7  1  0
  7  8  1  0
  7  3  1  0
  1  9  1  0
  1 10  1  0
  1 11  1  0
  3 12  1  0
  4 13  1  0
  4 14  1  0
  5 15  1  0
  5 16  1  0
  6 17  1  0
  6 18  1  0
  7 19  1  0
  8 20  1  0
M  END
