
     RDKit          3D

 21 21  0  0  0  0  0  0  0  0999 V2000
    2.7336    0.0965    0.8087 C   0  0  0  0  0  0  0  0  0  0  0  0
    1.3927   -0.1067    0.6146 O   0  0  0  0  0  0  0  0  0  0  0  0
    1.0146   -0.3007   -0.6903 C   0  0  0  0  0  0  0  0  0  0  0  0
    0.3444   -1.6540   -0.7510 C   0  0  0  0  0  0  0  0  0  0  0  0
   -0.9182   -1.7449   -0.3437 C   0  0  0  0  0  0  0  0  0  0  0  0
   -1.6898   -0.5852    0.1632 C   0  0  0  0  0  0  0  0  0  0  0  0
   -0.8868    0.6815   -0.0093 C   0  0  0  0  0  0  0  0  0  0  0  0
   -1.7891    1.8946   -0.0804 C   0  0  0  0  0  0  0  0  0  0  0  0
    0.0148    0.6175   -1.0550 O   0  0  0  0  0  0  0  0  0  0  0  0
    3.2983   -0.8030    0.4362 H   0  0  0  0  0  0  0  0  0  0  0  0
    3.1304    1.0285    0.3640 H   0  0  0  0  0  0  0  0  0  0  0  0
    2.9144    0.1446    1.9043 H   0  0  0  0  0  0  0  0  0  0  0  0
    1.8500   -0.2671   -1.4193 H   0  0  0  0  0  0  0  0  0  0  0  0
    0.9023   -2.5056   -1.1203 H   0  0  0  0  0  0  0  0  0  0  0  0
   -1.3962   -2.7214   -0.3893 H   0  0  0  0  0  0  0  0  0  0  0  0
   -1.8881   -0.7525    1.2440 H   0  0  0  0  0  0  0  0  0  0  0  0
   -2.6866   -0.5215   -0.3473 H   0  0  0  0  0  0  0  0  0  0  0  0
   -0.2748    0.8139    0.9260 H   0  0  0  0  0  0  0  0  0  0  0  0
   -2.8375    1.6186   -0.3548 H   0  0  0  0  0  0  0  0  0  0  0  0
   -1.8440    2.4335    0.9030 H   0  0  0  0  0  0  0  0  0  0  0  0
   -1.3845    2.6334   -0.8033 H   0  0  0  0  0  0  0  0  0  0  0  0
  1  2  1  0
  2  3  1  0
  3  4  1  0
  4  5  2  0
  5  6  1  0
  6  7  1  0
  7  8  1  0
  7  9  1  0
  9  3  1  0
  1 10  1  0
  1 11  1  0
  1 12  1  0
  3 13  1  0
  4 14  1  0
  5 15  1  0
  6 16  1  0
  6 17  1  0
  7 18  1  0
  8 19  1  0
  8 20  1  0
  8 21  1  0
M  END
