
     RDKit          3D

 19 21  0  0  0  0  0  0  0  0999 V2000
    2.2699   -0.7237   -0.0013 C   0  0  0  0  0  0  0  0  0  0  0  0
    1.2766   -0.3157   -0.7837 O   0  0  0  0  0  0  0  0  0  0  0  0
    0.1125    0.1432   -0.4592 C   0  0  0  0  0  0  0  0  0  0  0  0
   -0.6953   -0.7060    0.4064 C   0  0  0  0  0  0  0  0  0  0  0  0
   -1.9700   -1.2458   -0.2148 C   0  0  0  0  0  0  0  0  0  0  0  0
   -0.5076    0.6554    0.8403 C   0  0  0  0  0  0  0  0  0  0  0  0
    0.3782    1.7819    0.4812 C   0  0  0  0  0  0  0  0  0  0  0  0
    0.1840    2.7157   -0.4937 O   0  0  0  0  0  0  0  0  0  0  0  0
   -0.2384    1.5165   -0.8911 C   0  0  0  0  0  0  0  0  0  0  0  0
    3.1084   -1.0697   -0.7067 H   0  0  0  0  0  0  0  0  0  0  0  0
    2.7963   -0.0319    0.6715 H   0  0  0  0  0  0  0  0  0  0  0  0
    1.9313   -1.6426    0.5565 H   0  0  0  0  0  0  0  0  0  0  0  0
   -0.2124   -1.4963    1.0468 H   0  0  0  0  0  0  0  0  0  0  0  0
   -1.8003   -2.1976   -0.7351 H   0  0  0  0  0  0  0  0  0  0  0  0
   -2.3852   -0.4555   -0.8809 H   0  0  0  0  0  0  0  0  0  0  0  0
   -2.7243   -1.3406    0.6176 H   0  0  0  0  0  0  0  0  0  0  0  0
   -1.5532    1.1521    0.7893 H   0  0  0  0  0  0  0  0  0  0  0  0
    1.4099    1.7064    0.7182 H   0  0  0  0  0  0  0  0  0  0  0  0
   -1.3804    1.5542   -0.9612 H   0  0  0  0  0  0  0  0  0  0  0  0
  1  2  1  0
  2  3  1  0
  3  4  1  0
  4  5  1  0
  4  6  1  0
  6  7  1  0
  7  8  1  0
  8  9  1  0
  6  3  1  0
  9  7  1  0
  9  3  1  0
  1 10  1  0
  1 11  1  0
  1 12  1  0
  4 13  1  0
  5 14  1  0
  5 15  1  0
  5 16  1  0
  6 17  1  0
  7 18  1  0
  9 19  1  0
M  END
