
     RDKit          3D

 23 24  0  0  0  0  0  0  0  0999 V2000
   -2.3166    0.3706    1.2509 C   0  0  0  0  0  0  0  0  0  0  0  0
   -0.9753    0.4024    0.9921 O   0  0  0  0  0  0  0  0  0  0  0  0
   -0.5498   -0.2319   -0.1424 C   0  0  0  0  0  0  0  0  0  0  0  0
    0.9365   -0.1923   -0.4518 C   0  0  0  0  0  0  0  0  0  0  0  0
    1.4990    1.2066   -0.6292 C   0  0  0  0  0  0  0  0  0  0  0  0
    2.7067    0.7119    0.1823 C   0  0  0  0  0  0  0  0  0  0  0  0
    1.7367   -0.2364    0.8561 C   0  0  0  0  0  0  0  0  0  0  0  0
   -1.4512   -0.3562   -1.3366 C   0  0  0  0  0  0  0  0  0  0  0  0
   -1.1933   -1.5801   -0.4869 C   0  0  0  0  0  0  0  0  0  0  0  0
   -2.7674   -0.6268    1.3895 H   0  0  0  0  0  0  0  0  0  0  0  0
   -2.4480    0.8740    2.2559 H   0  0  0  0  0  0  0  0  0  0  0  0
   -2.9061    0.9218    0.4741 H   0  0  0  0  0  0  0  0  0  0  0  0
    1.2892   -0.9165   -1.1852 H   0  0  0  0  0  0  0  0  0  0  0  0
    0.9065    1.9638   -0.0553 H   0  0  0  0  0  0  0  0  0  0  0  0
    1.7879    1.4852   -1.6432 H   0  0  0  0  0  0  0  0  0  0  0  0
    3.0790    1.5394    0.7979 H   0  0  0  0  0  0  0  0  0  0  0  0
    3.4240    0.2234   -0.4974 H   0  0  0  0  0  0  0  0  0  0  0  0
    2.1110   -1.2247    1.1056 H   0  0  0  0  0  0  0  0  0  0  0  0
    1.1665    0.3010    1.6307 H   0  0  0  0  0  0  0  0  0  0  0  0
   -0.9697   -0.4044   -2.3408 H   0  0  0  0  0  0  0  0  0  0  0  0
   -2.4530    0.0859   -1.3352 H   0  0  0  0  0  0  0  0  0  0  0  0
   -2.0725   -1.9343    0.0631 H   0  0  0  0  0  0  0  0  0  0  0  0
   -0.5402   -2.3824   -0.8942 H   0  0  0  0  0  0  0  0  0  0  0  0
  1  2  1  0
  2  3  1  0
  3  4  1  0
  4  5  1  0
  5  6  1  0
  6  7  1  0
  3  8  1  0
  8  9  1  0
  9  3  1  0
  7  4  1  0
  1 10  1  0
  1 11  1  0
  1 12  1  0
  4 13  1  0
  5 14  1  0
  5 15  1  0
  6 16  1  0
  6 17  1  0
  7 18  1  0
  7 19  1  0
  8 20  1  0
  8 21  1  0
  9 22  1  0
  9 23  1  0
M  END
