
     RDKit          3D

 17 17  0  0  0  0  0  0  0  0999 V2000
   -2.5257   -0.3489   -0.2020 C   0  0  0  0  0  0  0  0  0  0  0  0
   -1.2628   -0.5290    0.3656 O   0  0  0  0  0  0  0  0  0  0  0  0
   -0.3819    0.4736    0.0080 C   0  0  0  0  0  0  0  0  0  0  0  0
    0.5504    0.9329    1.0553 C   0  0  0  0  0  0  0  0  0  0  0  0
    1.0595    0.2246   -0.1909 C   0  0  0  0  0  0  0  0  0  0  0  0
    1.6952   -1.1023    0.0887 C   0  0  0  0  0  0  0  0  0  0  0  0
    1.7558    1.0044   -1.1175 O   0  0  0  0  0  0  0  0  0  0  0  0
   -2.9946    0.6104    0.1082 H   0  0  0  0  0  0  0  0  0  0  0  0
   -2.4203   -0.3974   -1.3096 H   0  0  0  0  0  0  0  0  0  0  0  0
   -3.1419   -1.2173    0.1068 H   0  0  0  0  0  0  0  0  0  0  0  0
   -0.8321    1.2389   -0.6623 H   0  0  0  0  0  0  0  0  0  0  0  0
    0.8484    1.9946    1.1703 H   0  0  0  0  0  0  0  0  0  0  0  0
    0.5567    0.3868    2.0208 H   0  0  0  0  0  0  0  0  0  0  0  0
    1.0831   -1.7083    0.7881 H   0  0  0  0  0  0  0  0  0  0  0  0
    1.9678   -1.6565   -0.8356 H   0  0  0  0  0  0  0  0  0  0  0  0
    2.6651   -0.8961    0.6184 H   0  0  0  0  0  0  0  0  0  0  0  0
    1.3772    0.9896   -2.0124 H   0  0  0  0  0  0  0  0  0  0  0  0
  1  2  1  0
  2  3  1  0
  3  4  1  0
  4  5  1  0
  5  6  1  0
  5  7  1  0
  5  3  1  0
  1  8  1  0
  1  9  1  0
  1 10  1  0
  3 11  1  0
  4 12  1  0
  4 13  1  0
  6 14  1  0
  6 15  1  0
  6 16  1  0
  7 17  1  0
M  END
