
     RDKit          3D

 19 21  0  0  0  0  0  0  0  0999 V2000
   -2.6804   -0.4163    0.1353 C   0  0  0  0  0  0  0  0  0  0  0  0
   -1.4175   -0.5127    0.6917 O   0  0  0  0  0  0  0  0  0  0  0  0
   -0.4012   -0.2398   -0.1910 C   0  0  0  0  0  0  0  0  0  0  0  0
    0.7989   -1.1658   -0.0380 C   0  0  0  0  0  0  0  0  0  0  0  0
    1.9673   -1.2525   -0.8275 C   0  0  0  0  0  0  0  0  0  0  0  0
    1.4781    0.0947   -0.7306 C   0  0  0  0  0  0  0  0  0  0  0  0
    0.6530    0.7402    0.3363 C   0  0  0  0  0  0  0  0  0  0  0  0
    0.5356    1.9739    0.8208 C   0  0  0  0  0  0  0  0  0  0  0  0
    0.9889    0.7927    1.6426 O   0  0  0  0  0  0  0  0  0  0  0  0
   -3.4064   -0.6626    0.9607 H   0  0  0  0  0  0  0  0  0  0  0  0
   -2.8222   -1.0636   -0.7315 H   0  0  0  0  0  0  0  0  0  0  0  0
   -2.8429    0.6676   -0.0961 H   0  0  0  0  0  0  0  0  0  0  0  0
   -0.6715    0.0192   -1.2148 H   0  0  0  0  0  0  0  0  0  0  0  0
    0.9935   -1.2119    1.0840 H   0  0  0  0  0  0  0  0  0  0  0  0
    1.9058   -1.8875   -1.7637 H   0  0  0  0  0  0  0  0  0  0  0  0
    2.9815   -1.4324   -0.3580 H   0  0  0  0  0  0  0  0  0  0  0  0
    0.9844    0.3988   -1.7122 H   0  0  0  0  0  0  0  0  0  0  0  0
   -0.3919    2.4160    1.2438 H   0  0  0  0  0  0  0  0  0  0  0  0
    1.3470    2.7418    0.7483 H   0  0  0  0  0  0  0  0  0  0  0  0
  1  2  1  0
  2  3  1  0
  3  4  1  0
  4  5  1  0
  5  6  1  0
  6  7  1  0
  7  8  1  0
  8  9  1  0
  7  3  1  0
  6  4  1  0
  9  7  1  0
  1 10  1  0
  1 11  1  0
  1 12  1  0
  3 13  1  0
  4 14  1  0
  5 15  1  0
  5 16  1  0
  6 17  1  0
  8 18  1  0
  8 19  1  0
M  END
