
     RDKit          3D

 23 24  0  0  0  0  0  0  0  0999 V2000
    3.6980   -0.1437    0.1696 C   0  0  0  0  0  0  0  0  0  0  0  0
    2.6262    0.4922    0.7814 O   0  0  0  0  0  0  0  0  0  0  0  0
    1.4567    0.4133    0.0560 C   0  0  0  0  0  0  0  0  0  0  0  0
    0.5164    1.6599    0.1232 C   0  0  0  0  0  0  0  0  0  0  0  0
    0.1521    0.3899    0.7649 C   0  0  0  0  0  0  0  0  0  0  0  0
   -0.9806   -0.4650    0.2676 C   0  0  0  0  0  0  0  0  0  0  0  0
   -1.4807   -0.1842   -1.1284 C   0  0  0  0  0  0  0  0  0  0  0  0
   -2.9271   -0.2762   -0.6264 C   0  0  0  0  0  0  0  0  0  0  0  0
   -2.3468    0.0275    0.7567 C   0  0  0  0  0  0  0  0  0  0  0  0
    4.5740   -0.0119    0.8439 H   0  0  0  0  0  0  0  0  0  0  0  0
    3.9267    0.2423   -0.8341 H   0  0  0  0  0  0  0  0  0  0  0  0
    3.5249   -1.2596    0.1423 H   0  0  0  0  0  0  0  0  0  0  0  0
    1.4564   -0.1290   -0.9218 H   0  0  0  0  0  0  0  0  0  0  0  0
    0.8918    2.4831    0.7819 H   0  0  0  0  0  0  0  0  0  0  0  0
    0.1418    2.0148   -0.8377 H   0  0  0  0  0  0  0  0  0  0  0  0
    0.2561    0.3416    1.8896 H   0  0  0  0  0  0  0  0  0  0  0  0
   -0.8158   -1.5486    0.4661 H   0  0  0  0  0  0  0  0  0  0  0  0
   -1.3180    0.8118   -1.5260 H   0  0  0  0  0  0  0  0  0  0  0  0
   -1.2780   -1.0311   -1.8426 H   0  0  0  0  0  0  0  0  0  0  0  0
   -3.3361   -1.2858   -0.7439 H   0  0  0  0  0  0  0  0  0  0  0  0
   -3.5921    0.4944   -1.0129 H   0  0  0  0  0  0  0  0  0  0  0  0
   -2.8152   -0.6118    1.5123 H   0  0  0  0  0  0  0  0  0  0  0  0
   -2.3307    1.1031    0.9182 H   0  0  0  0  0  0  0  0  0  0  0  0
  1  2  1  0
  2  3  1  0
  3  4  1  0
  4  5  1  0
  5  6  1  0
  6  7  1  0
  7  8  1  0
  8  9  1  0
  5  3  1  0
  9  6  1  0
  1 10  1  0
  1 11  1  0
  1 12  1  0
  3 13  1  0
  4 14  1  0
  4 15  1  0
  5 16  1  0
  6 17  1  0
  7 18  1  0
  7 19  1  0
  8 20  1  0
  8 21  1  0
  9 22  1  0
  9 23  1  0
M  END
