
     RDKit          3D

 23 24  0  0  0  0  0  0  0  0999 V2000
   -1.8725   -1.8671   -0.2447 C   0  0  0  0  0  0  0  0  0  0  0  0
   -1.9314   -0.5337   -0.0196 O   0  0  0  0  0  0  0  0  0  0  0  0
   -0.8202    0.1463    0.2322 C   0  0  0  0  0  0  0  0  0  0  0  0
   -1.0413    1.6105    0.4606 C   0  0  0  0  0  0  0  0  0  0  0  0
   -0.2787    1.8794   -0.8253 C   0  0  0  0  0  0  0  0  0  0  0  0
    0.1860    0.4602   -0.7940 C   0  0  0  0  0  0  0  0  0  0  0  0
    1.2746    0.2616    0.2300 C   0  0  0  0  0  0  0  0  0  0  0  0
    2.4409   -0.5632   -0.1849 C   0  0  0  0  0  0  0  0  0  0  0  0
    0.2478   -0.4392    1.1040 C   0  0  0  0  0  0  0  0  0  0  0  0
   -2.9243   -2.2342   -0.4349 H   0  0  0  0  0  0  0  0  0  0  0  0
   -1.2870   -2.1932   -1.1158 H   0  0  0  0  0  0  0  0  0  0  0  0
   -1.5732   -2.3781    0.7039 H   0  0  0  0  0  0  0  0  0  0  0  0
   -0.5342    1.9590    1.3826 H   0  0  0  0  0  0  0  0  0  0  0  0
   -2.1100    1.9359    0.4115 H   0  0  0  0  0  0  0  0  0  0  0  0
    0.5632    2.5715   -0.5994 H   0  0  0  0  0  0  0  0  0  0  0  0
   -0.9113    2.1566   -1.6863 H   0  0  0  0  0  0  0  0  0  0  0  0
    0.2428   -0.0958   -1.7106 H   0  0  0  0  0  0  0  0  0  0  0  0
    1.6034    1.1959    0.7410 H   0  0  0  0  0  0  0  0  0  0  0  0
    3.3327    0.0811   -0.3819 H   0  0  0  0  0  0  0  0  0  0  0  0
    2.2258   -1.0892   -1.1394 H   0  0  0  0  0  0  0  0  0  0  0  0
    2.6720   -1.3054    0.5997 H   0  0  0  0  0  0  0  0  0  0  0  0
    0.3223   -1.5254    1.1369 H   0  0  0  0  0  0  0  0  0  0  0  0
    0.1726   -0.0336    2.1343 H   0  0  0  0  0  0  0  0  0  0  0  0
  1  2  1  0
  2  3  1  0
  3  4  1  0
  4  5  1  0
  5  6  1  0
  6  7  1  0
  7  8  1  0
  7  9  1  0
  6  3  1  0
  9  3  1  0
  1 10  1  0
  1 11  1  0
  1 12  1  0
  4 13  1  0
  4 14  1  0
  5 15  1  0
  5 16  1  0
  6 17  1  0
  7 18  1  0
  8 19  1  0
  8 20  1  0
  8 21  1  0
  9 22  1  0
  9 23  1  0
M  END
