
     RDKit          3D

 19 20  0  0  0  0  0  0  0  0999 V2000
   -2.7598   -0.9167    0.4550 C   0  0  0  0  0  0  0  0  0  0  0  0
   -1.7096   -0.7613   -0.3800 O   0  0  0  0  0  0  0  0  0  0  0  0
   -0.6296   -0.0737    0.0084 C   0  0  0  0  0  0  0  0  0  0  0  0
   -0.0671    0.9517   -0.9965 C   0  0  0  0  0  0  0  0  0  0  0  0
    1.1245    0.8851   -0.0768 C   0  0  0  0  0  0  0  0  0  0  0  0
    0.7351    1.5009    1.1438 O   0  0  0  0  0  0  0  0  0  0  0  0
    2.0046   -0.2032    0.2026 C   0  0  0  0  0  0  0  0  0  0  0  0
    3.1642   -0.2650   -0.6146 O   0  0  0  0  0  0  0  0  0  0  0  0
    0.7354   -0.6398   -0.2482 C   0  0  0  0  0  0  0  0  0  0  0  0
   -3.5431   -1.5132   -0.0576 H   0  0  0  0  0  0  0  0  0  0  0  0
   -2.5635   -1.3472    1.4379 H   0  0  0  0  0  0  0  0  0  0  0  0
   -3.2224    0.0919    0.6351 H   0  0  0  0  0  0  0  0  0  0  0  0
   -0.7473    0.3065    1.0411 H   0  0  0  0  0  0  0  0  0  0  0  0
    0.0791    0.4788   -1.9700 H   0  0  0  0  0  0  0  0  0  0  0  0
   -0.5868    1.9080   -0.9785 H   0  0  0  0  0  0  0  0  0  0  0  0
    1.3516    2.2387    1.2603 H   0  0  0  0  0  0  0  0  0  0  0  0
    2.3035   -0.5624    1.2372 H   0  0  0  0  0  0  0  0  0  0  0  0
    3.5747   -1.1627   -0.5496 H   0  0  0  0  0  0  0  0  0  0  0  0
    0.7565   -0.9164   -1.3561 H   0  0  0  0  0  0  0  0  0  0  0  0
  1  2  1  0
  2  3  1  0
  3  4  1  0
  4  5  1  0
  5  6  1  0
  5  7  1  0
  7  8  1  0
  7  9  1  0
  9  3  1  0
  9  5  1  0
  1 10  1  0
  1 11  1  0
  1 12  1  0
  3 13  1  0
  4 14  1  0
  4 15  1  0
  6 16  1  0
  7 17  1  0
  8 18  1  0
  9 19  1  0
M  END
