
     RDKit          3D

 19 19  0  0  0  0  0  0  0  0999 V2000
   -1.9900   -1.3240    0.2232 C   0  0  0  0  0  0  0  0  0  0  0  0
   -1.2087   -0.1956    0.4493 O   0  0  0  0  0  0  0  0  0  0  0  0
   -0.4113    0.1405   -0.6111 C   0  0  0  0  0  0  0  0  0  0  0  0
   -0.5300    1.6467   -0.8832 C   0  0  0  0  0  0  0  0  0  0  0  0
    0.4628    1.8107    0.2446 C   0  0  0  0  0  0  0  0  0  0  0  0
    0.6591    2.6659    1.0749 O   0  0  0  0  0  0  0  0  0  0  0  0
    1.0056    0.4911   -0.1789 C   0  0  0  0  0  0  0  0  0  0  0  0
    1.5378   -0.3718    0.9364 C   0  0  0  0  0  0  0  0  0  0  0  0
    1.5283   -1.6933    0.4725 O   0  0  0  0  0  0  0  0  0  0  0  0
   -2.6754   -1.2000   -0.6390 H   0  0  0  0  0  0  0  0  0  0  0  0
   -1.3094   -2.1984    0.1091 H   0  0  0  0  0  0  0  0  0  0  0  0
   -2.6345   -1.5342    1.1000 H   0  0  0  0  0  0  0  0  0  0  0  0
   -0.4638   -0.4904   -1.5053 H   0  0  0  0  0  0  0  0  0  0  0  0
   -0.0234    1.8799   -1.8282 H   0  0  0  0  0  0  0  0  0  0  0  0
   -1.5115    2.0744   -0.6984 H   0  0  0  0  0  0  0  0  0  0  0  0
    1.6736    0.5065   -1.0558 H   0  0  0  0  0  0  0  0  0  0  0  0
    0.9685   -0.2833    1.8557 H   0  0  0  0  0  0  0  0  0  0  0  0
    2.6179   -0.1066    1.0534 H   0  0  0  0  0  0  0  0  0  0  0  0
    2.3045   -1.8180   -0.1192 H   0  0  0  0  0  0  0  0  0  0  0  0
  1  2  1  0
  2  3  1  0
  3  4  1  0
  4  5  1  0
  5  6  2  0
  5  7  1  0
  7  8  1  0
  8  9  1  0
  7  3  1  0
  1 10  1  0
  1 11  1  0
  1 12  1  0
  3 13  1  0
  4 14  1  0
  4 15  1  0
  7 16  1  0
  8 17  1  0
  8 18  1  0
  9 19  1  0
M  END
