
     RDKit          3D

 23 24  0  0  0  0  0  0  0  0999 V2000
   -2.2035   -0.9792    0.0181 C   0  0  0  0  0  0  0  0  0  0  0  0
   -0.9046   -0.9090    0.4554 O   0  0  0  0  0  0  0  0  0  0  0  0
   -0.5418    0.3887    0.7345 C   0  0  0  0  0  0  0  0  0  0  0  0
    0.8902    0.3827    1.1840 C   0  0  0  0  0  0  0  0  0  0  0  0
    1.5481    0.0367   -0.1697 C   0  0  0  0  0  0  0  0  0  0  0  0
    1.9435   -1.4060   -0.2194 C   0  0  0  0  0  0  0  0  0  0  0  0
    0.4518    0.3424   -1.2161 C   0  0  0  0  0  0  0  0  0  0  0  0
   -0.2710    1.3797   -0.4568 C   0  0  0  0  0  0  0  0  0  0  0  0
   -1.4053    1.4312    0.3899 C   0  0  0  0  0  0  0  0  0  0  0  0
   -2.4363   -0.4490   -0.9190 H   0  0  0  0  0  0  0  0  0  0  0  0
   -2.5473   -2.0303   -0.1421 H   0  0  0  0  0  0  0  0  0  0  0  0
   -2.8839   -0.5201    0.7898 H   0  0  0  0  0  0  0  0  0  0  0  0
    1.1035   -0.4613    1.8717 H   0  0  0  0  0  0  0  0  0  0  0  0
    1.2647    1.3486    1.5181 H   0  0  0  0  0  0  0  0  0  0  0  0
    2.4375    0.6771   -0.3390 H   0  0  0  0  0  0  0  0  0  0  0  0
    1.0485   -2.0591   -0.1069 H   0  0  0  0  0  0  0  0  0  0  0  0
    2.7010   -1.5871    0.5438 H   0  0  0  0  0  0  0  0  0  0  0  0
    2.4184   -1.5802   -1.2041 H   0  0  0  0  0  0  0  0  0  0  0  0
    0.9249    0.7921   -2.1259 H   0  0  0  0  0  0  0  0  0  0  0  0
   -0.1183   -0.5535   -1.4394 H   0  0  0  0  0  0  0  0  0  0  0  0
    0.4797    2.2116   -0.2500 H   0  0  0  0  0  0  0  0  0  0  0  0
   -2.4054    1.2628   -0.0455 H   0  0  0  0  0  0  0  0  0  0  0  0
   -1.4942    2.2813    1.1285 H   0  0  0  0  0  0  0  0  0  0  0  0
  1  2  1  0
  2  3  1  0
  3  4  1  0
  4  5  1  0
  5  6  1  0
  5  7  1  0
  7  8  1  0
  8  9  1  0
  8  3  1  0
  9  3  1  0
  1 10  1  0
  1 11  1  0
  1 12  1  0
  4 13  1  0
  4 14  1  0
  5 15  1  0
  6 16  1  0
  6 17  1  0
  6 18  1  0
  7 19  1  0
  7 20  1  0
  8 21  1  0
  9 22  1  0
  9 23  1  0
M  END
