
     RDKit          3D

 19 19  0  0  0  0  0  0  0  0999 V2000
    2.9390    0.2317   -1.0735 C   0  0  0  0  0  0  0  0  0  0  0  0
    2.0238    0.9079   -0.2885 O   0  0  0  0  0  0  0  0  0  0  0  0
    1.2443    0.0938    0.4986 C   0  0  0  0  0  0  0  0  0  0  0  0
    0.6310    0.5221    1.7586 C   0  0  0  0  0  0  0  0  0  0  0  0
   -0.2350    0.4797    0.5399 C   0  0  0  0  0  0  0  0  0  0  0  0
   -1.1133   -0.5795    0.3526 O   0  0  0  0  0  0  0  0  0  0  0  0
   -2.2093   -0.1281   -0.3623 C   0  0  0  0  0  0  0  0  0  0  0  0
   -3.1755   -1.2086   -0.5914 C   0  0  0  0  0  0  0  0  0  0  0  0
   -4.2017   -1.0125   -1.1993 O   0  0  0  0  0  0  0  0  0  0  0  0
    3.4978    1.0014   -1.6537 H   0  0  0  0  0  0  0  0  0  0  0  0
    2.3498   -0.4250   -1.7583 H   0  0  0  0  0  0  0  0  0  0  0  0
    3.6245   -0.4207   -0.4956 H   0  0  0  0  0  0  0  0  0  0  0  0
    1.4777   -0.9946    0.3765 H   0  0  0  0  0  0  0  0  0  0  0  0
    0.4111   -0.2653    2.5079 H   0  0  0  0  0  0  0  0  0  0  0  0
    0.8050    1.5124    2.2215 H   0  0  0  0  0  0  0  0  0  0  0  0
   -0.5262    1.4660    0.1148 H   0  0  0  0  0  0  0  0  0  0  0  0
   -2.7178    0.7087    0.1670 H   0  0  0  0  0  0  0  0  0  0  0  0
   -1.8537    0.3036   -1.3327 H   0  0  0  0  0  0  0  0  0  0  0  0
   -2.9716   -2.1930   -0.2141 H   0  0  0  0  0  0  0  0  0  0  0  0
  1  2  1  0
  2  3  1  0
  3  4  1  0
  4  5  1  0
  5  6  1  0
  6  7  1  0
  7  8  1  0
  8  9  2  0
  5  3  1  0
  1 10  1  0
  1 11  1  0
  1 12  1  0
  3 13  1  0
  4 14  1  0
  4 15  1  0
  5 16  1  0
  7 17  1  0
  7 18  1  0
  8 19  1  0
M  END
