
     RDKit          3D

 17 18  0  0  0  0  0  0  0  0999 V2000
    2.3544   -0.4376    0.1823 C   0  0  0  0  0  0  0  0  0  0  0  0
    1.4666    0.5789    0.2888 O   0  0  0  0  0  0  0  0  0  0  0  0
    0.1869    0.3219    0.1649 C   0  0  0  0  0  0  0  0  0  0  0  0
   -0.5393   -0.6028    1.0553 C   0  0  0  0  0  0  0  0  0  0  0  0
   -1.8187   -0.4734    0.6130 C   0  0  0  0  0  0  0  0  0  0  0  0
   -1.6647    0.4912   -0.5018 C   0  0  0  0  0  0  0  0  0  0  0  0
   -0.4145   -0.0255   -1.1859 C   0  0  0  0  0  0  0  0  0  0  0  0
   -0.7432    1.4985    0.1467 C   0  0  0  0  0  0  0  0  0  0  0  0
   -0.7440    2.6491    0.4802 O   0  0  0  0  0  0  0  0  0  0  0  0
    3.3878   -0.0136    0.3172 H   0  0  0  0  0  0  0  0  0  0  0  0
    2.3443   -0.8941   -0.8240 H   0  0  0  0  0  0  0  0  0  0  0  0
    2.1665   -1.2551    0.9063 H   0  0  0  0  0  0  0  0  0  0  0  0
   -0.2241   -1.2472    1.8647 H   0  0  0  0  0  0  0  0  0  0  0  0
   -2.7108   -0.9583    0.9900 H   0  0  0  0  0  0  0  0  0  0  0  0
   -2.4816    0.8327   -1.0597 H   0  0  0  0  0  0  0  0  0  0  0  0
   -0.1359    0.6416   -2.0110 H   0  0  0  0  0  0  0  0  0  0  0  0
   -0.4297   -1.1062   -1.4270 H   0  0  0  0  0  0  0  0  0  0  0  0
  1  2  1  0
  2  3  1  0
  3  4  1  0
  4  5  2  0
  5  6  1  0
  6  7  1  0
  6  8  1  0
  8  9  2  0
  7  3  1  0
  8  3  1  0
  1 10  1  0
  1 11  1  0
  1 12  1  0
  4 13  1  0
  5 14  1  0
  6 15  1  0
  7 16  1  0
  7 17  1  0
M  END
