
     RDKit          3D

 21 22  0  0  0  0  0  0  0  0999 V2000
    1.6001    1.9939    0.7256 C   0  0  0  0  0  0  0  0  0  0  0  0
    0.7413    0.9232    0.8668 O   0  0  0  0  0  0  0  0  0  0  0  0
    0.4293    0.4297   -0.3813 C   0  0  0  0  0  0  0  0  0  0  0  0
   -1.0335    0.1132   -0.6048 C   0  0  0  0  0  0  0  0  0  0  0  0
   -1.9618    0.6169    0.4710 C   0  0  0  0  0  0  0  0  0  0  0  0
   -0.7331   -1.3544   -0.4921 C   0  0  0  0  0  0  0  0  0  0  0  0
    0.0805   -1.8614    0.6376 C   0  0  0  0  0  0  0  0  0  0  0  0
    0.6989   -1.0607   -0.4302 C   0  0  0  0  0  0  0  0  0  0  0  0
    1.6194   -1.5619   -1.3176 O   0  0  0  0  0  0  0  0  0  0  0  0
    2.5495    1.7188    0.2166 H   0  0  0  0  0  0  0  0  0  0  0  0
    1.0663    2.7930    0.1644 H   0  0  0  0  0  0  0  0  0  0  0  0
    1.8639    2.3673    1.7400 H   0  0  0  0  0  0  0  0  0  0  0  0
    0.9168    0.9772   -1.2094 H   0  0  0  0  0  0  0  0  0  0  0  0
   -1.3952    0.3542   -1.6247 H   0  0  0  0  0  0  0  0  0  0  0  0
   -3.0043    0.4329    0.0921 H   0  0  0  0  0  0  0  0  0  0  0  0
   -1.8129    0.1003    1.4322 H   0  0  0  0  0  0  0  0  0  0  0  0
   -1.8898    1.7292    0.5584 H   0  0  0  0  0  0  0  0  0  0  0  0
   -1.1838   -2.0605   -1.2116 H   0  0  0  0  0  0  0  0  0  0  0  0
   -0.0972   -1.4329    1.6552 H   0  0  0  0  0  0  0  0  0  0  0  0
    0.2870   -2.9482    0.6222 H   0  0  0  0  0  0  0  0  0  0  0  0
    1.2585   -2.2697   -1.9104 H   0  0  0  0  0  0  0  0  0  0  0  0
  1  2  1  0
  2  3  1  0
  3  4  1  0
  4  5  1  0
  4  6  1  0
  6  7  1  0
  7  8  1  0
  8  9  1  0
  8  3  1  0
  8  6  1  0
  1 10  1  0
  1 11  1  0
  1 12  1  0
  3 13  1  0
  4 14  1  0
  5 15  1  0
  5 16  1  0
  5 17  1  0
  6 18  1  0
  7 19  1  0
  7 20  1  0
  9 21  1  0
M  END
