
     RDKit          3D

 21 22  0  0  0  0  0  0  0  0999 V2000
    3.3732    0.4163    0.0567 C   0  0  0  0  0  0  0  0  0  0  0  0
    2.0862    0.4591   -0.4161 O   0  0  0  0  0  0  0  0  0  0  0  0
    1.1897   -0.0557    0.5187 C   0  0  0  0  0  0  0  0  0  0  0  0
   -0.0487    0.6196    0.6349 C   0  0  0  0  0  0  0  0  0  0  0  0
   -1.1452    0.9527   -0.2990 C   0  0  0  0  0  0  0  0  0  0  0  0
   -2.0845   -0.2455   -0.0354 C   0  0  0  0  0  0  0  0  0  0  0  0
   -3.1511    0.1105    0.7499 O   0  0  0  0  0  0  0  0  0  0  0  0
   -1.1876   -1.2846    0.6765 C   0  0  0  0  0  0  0  0  0  0  0  0
    0.1032   -0.8676    0.1058 C   0  0  0  0  0  0  0  0  0  0  0  0
    3.4320    1.0301    0.9988 H   0  0  0  0  0  0  0  0  0  0  0  0
    4.1030    0.8285   -0.6372 H   0  0  0  0  0  0  0  0  0  0  0  0
    3.6191   -0.6546    0.2651 H   0  0  0  0  0  0  0  0  0  0  0  0
    1.7137   -0.3918    1.4504 H   0  0  0  0  0  0  0  0  0  0  0  0
   -0.4430    0.7154    1.6938 H   0  0  0  0  0  0  0  0  0  0  0  0
   -1.6903    1.8493    0.0196 H   0  0  0  0  0  0  0  0  0  0  0  0
   -0.8550    0.9537   -1.3624 H   0  0  0  0  0  0  0  0  0  0  0  0
   -2.4086   -0.6434   -1.0093 H   0  0  0  0  0  0  0  0  0  0  0  0
   -3.8209    0.5485    0.1735 H   0  0  0  0  0  0  0  0  0  0  0  0
   -1.5027   -2.3044    0.4596 H   0  0  0  0  0  0  0  0  0  0  0  0
   -1.3159   -1.0586    1.7699 H   0  0  0  0  0  0  0  0  0  0  0  0
    0.0334   -0.9775   -1.0238 H   0  0  0  0  0  0  0  0  0  0  0  0
  1  2  1  0
  2  3  1  0
  3  4  1  0
  4  5  1  0
  5  6  1  0
  6  7  1  0
  6  8  1  0
  8  9  1  0
  9  3  1  0
  9  4  1  0
  1 10  1  0
  1 11  1  0
  1 12  1  0
  3 13  1  0
  4 14  1  0
  5 15  1  0
  5 16  1  0
  6 17  1  0
  7 18  1  0
  8 19  1  0
  8 20  1  0
  9 21  1  0
M  END
