
     RDKit          3D

 20 20  0  0  0  0  0  0  0  0999 V2000
    2.5597    0.5534    0.0348 C   0  0  0  0  0  0  0  0  0  0  0  0
    1.3877    0.4410   -0.6895 O   0  0  0  0  0  0  0  0  0  0  0  0
    0.4973   -0.3242    0.0479 C   0  0  0  0  0  0  0  0  0  0  0  0
    0.0453   -1.4506   -0.8175 C   0  0  0  0  0  0  0  0  0  0  0  0
   -1.2464   -1.6485   -0.7101 C   0  0  0  0  0  0  0  0  0  0  0  0
   -1.8073   -0.6757    0.2415 C   0  0  0  0  0  0  0  0  0  0  0  0
   -0.8197    0.4353    0.2628 C   0  0  0  0  0  0  0  0  0  0  0  0
   -0.9425    1.4099   -0.8613 C   0  0  0  0  0  0  0  0  0  0  0  0
    2.9965   -0.4506    0.2241 H   0  0  0  0  0  0  0  0  0  0  0  0
    2.3240    1.1007    0.9734 H   0  0  0  0  0  0  0  0  0  0  0  0
    3.2760    1.2048   -0.5236 H   0  0  0  0  0  0  0  0  0  0  0  0
    0.9050   -0.6612    1.0125 H   0  0  0  0  0  0  0  0  0  0  0  0
    0.7610   -2.0035   -1.4430 H   0  0  0  0  0  0  0  0  0  0  0  0
   -1.8252   -2.3900   -1.2200 H   0  0  0  0  0  0  0  0  0  0  0  0
   -2.8360   -0.3540   -0.0276 H   0  0  0  0  0  0  0  0  0  0  0  0
   -1.7850   -1.1653    1.2488 H   0  0  0  0  0  0  0  0  0  0  0  0
   -0.7377    0.9319    1.2643 H   0  0  0  0  0  0  0  0  0  0  0  0
   -1.9714    1.7254   -1.0891 H   0  0  0  0  0  0  0  0  0  0  0  0
   -0.3533    2.3261   -0.5695 H   0  0  0  0  0  0  0  0  0  0  0  0
   -0.4283    0.9949   -1.7577 H   0  0  0  0  0  0  0  0  0  0  0  0
  1  2  1  0
  2  3  1  0
  3  4  1  0
  4  5  2  0
  5  6  1  0
  6  7  1  0
  7  8  1  0
  7  3  1  0
  1  9  1  0
  1 10  1  0
  1 11  1  0
  3 12  1  0
  4 13  1  0
  5 14  1  0
  6 15  1  0
  6 16  1  0
  7 17  1  0
  8 18  1  0
  8 19  1  0
  8 20  1  0
M  END
