
     RDKit          3D

 18 19  0  0  0  0  0  0  0  0999 V2000
    2.3826   -0.3105    0.2026 C   0  0  0  0  0  0  0  0  0  0  0  0
    1.2062   -0.9410   -0.0633 O   0  0  0  0  0  0  0  0  0  0  0  0
    0.1471   -0.2872    0.0021 C   0  0  0  0  0  0  0  0  0  0  0  0
   -0.4315    0.4399    1.1930 C   0  0  0  0  0  0  0  0  0  0  0  0
   -1.4415    0.6753    0.1045 C   0  0  0  0  0  0  0  0  0  0  0  0
   -0.2611    0.9271   -0.7937 C   0  0  0  0  0  0  0  0  0  0  0  0
   -1.2500   -0.7783   -0.2432 C   0  0  0  0  0  0  0  0  0  0  0  0
   -1.5190   -1.1069   -1.5741 O   0  0  0  0  0  0  0  0  0  0  0  0
    2.6132    0.5439   -0.4646 H   0  0  0  0  0  0  0  0  0  0  0  0
    3.2116   -1.0489    0.1022 H   0  0  0  0  0  0  0  0  0  0  0  0
    2.4473    0.0608    1.2543 H   0  0  0  0  0  0  0  0  0  0  0  0
    0.1267    1.3480    1.5087 H   0  0  0  0  0  0  0  0  0  0  0  0
   -0.7748   -0.2120    2.0170 H   0  0  0  0  0  0  0  0  0  0  0  0
   -2.2971    1.1852    0.1550 H   0  0  0  0  0  0  0  0  0  0  0  0
    0.3065    1.8296   -0.4984 H   0  0  0  0  0  0  0  0  0  0  0  0
   -0.4102    0.7613   -1.8642 H   0  0  0  0  0  0  0  0  0  0  0  0
   -1.6925   -1.4263    0.5119 H   0  0  0  0  0  0  0  0  0  0  0  0
   -2.3635   -1.6600   -1.5495 H   0  0  0  0  0  0  0  0  0  0  0  0
  1  2  1  0
  2  3  1  0
  3  4  1  0
  4  5  1  0
  5  6  1  0
  5  7  1  0
  7  8  1  0
  6  3  1  0
  7  3  1  0
  1  9  1  0
  1 10  1  0
  1 11  1  0
  4 12  1  0
  4 13  1  0
  5 14  1  0
  6 15  1  0
  6 16  1  0
  7 17  1  0
  8 18  1  0
M  END
