
     RDKit          3D

 19 21  0  0  0  0  0  0  0  0999 V2000
    2.4777    0.3833   -0.6141 C   0  0  0  0  0  0  0  0  0  0  0  0
    1.3120    1.0201   -0.3109 O   0  0  0  0  0  0  0  0  0  0  0  0
    0.2916    0.3072    0.1255 C   0  0  0  0  0  0  0  0  0  0  0  0
   -1.0507    0.8014    0.5090 C   0  0  0  0  0  0  0  0  0  0  0  0
   -1.8387    0.4607   -0.7423 C   0  0  0  0  0  0  0  0  0  0  0  0
   -1.3416   -0.7279   -1.1858 O   0  0  0  0  0  0  0  0  0  0  0  0
   -0.0773   -0.9336   -0.7039 C   0  0  0  0  0  0  0  0  0  0  0  0
    0.1032   -0.9206    0.7793 C   0  0  0  0  0  0  0  0  0  0  0  0
   -1.1352   -0.3585    1.4943 C   0  0  0  0  0  0  0  0  0  0  0  0
    2.3948   -0.3726   -1.3999 H   0  0  0  0  0  0  0  0  0  0  0  0
    2.8547   -0.1091    0.3188 H   0  0  0  0  0  0  0  0  0  0  0  0
    3.2503    1.1566   -0.8700 H   0  0  0  0  0  0  0  0  0  0  0  0
   -1.1698    1.7941    0.9148 H   0  0  0  0  0  0  0  0  0  0  0  0
   -1.6010    1.2557   -1.4816 H   0  0  0  0  0  0  0  0  0  0  0  0
   -2.9038    0.3734   -0.5142 H   0  0  0  0  0  0  0  0  0  0  0  0
    0.6880   -1.4671   -1.2598 H   0  0  0  0  0  0  0  0  0  0  0  0
    0.7782   -1.5781    1.3049 H   0  0  0  0  0  0  0  0  0  0  0  0
   -2.0459   -0.9773    1.3388 H   0  0  0  0  0  0  0  0  0  0  0  0
   -0.9866   -0.1082    2.5403 H   0  0  0  0  0  0  0  0  0  0  0  0
  1  2  1  0
  2  3  1  0
  3  4  1  0
  4  5  1  0
  5  6  1  0
  6  7  1  0
  7  8  1  0
  8  9  1  0
  7  3  1  0
  8  3  1  0
  9  4  1  0
  1 10  1  0
  1 11  1  0
  1 12  1  0
  4 13  1  0
  5 14  1  0
  5 15  1  0
  7 16  1  0
  8 17  1  0
  9 18  1  0
  9 19  1  0
M  END
