
     RDKit          3D

 17 18  0  0  0  0  0  0  0  0999 V2000
   -2.5790   -0.4918    0.1553 C   0  0  0  0  0  0  0  0  0  0  0  0
   -1.3128   -0.2605    0.6827 O   0  0  0  0  0  0  0  0  0  0  0  0
   -0.4745    0.1663   -0.3123 C   0  0  0  0  0  0  0  0  0  0  0  0
    0.4019    1.3919    0.1154 C   0  0  0  0  0  0  0  0  0  0  0  0
    0.9721    0.1143   -0.2507 C   0  0  0  0  0  0  0  0  0  0  0  0
    1.7934   -0.7594    0.5992 C   0  0  0  0  0  0  0  0  0  0  0  0
    2.4924   -1.1214   -0.5964 O   0  0  0  0  0  0  0  0  0  0  0  0
    1.8599   -0.1348   -1.3685 C   0  0  0  0  0  0  0  0  0  0  0  0
    1.9786    0.3518   -2.5259 O   0  0  0  0  0  0  0  0  0  0  0  0
   -3.2921   -0.8364    0.9105 H   0  0  0  0  0  0  0  0  0  0  0  0
   -2.5435   -1.2380   -0.6635 H   0  0  0  0  0  0  0  0  0  0  0  0
   -3.0217    0.4285   -0.3003 H   0  0  0  0  0  0  0  0  0  0  0  0
   -0.9318    0.2478   -1.3139 H   0  0  0  0  0  0  0  0  0  0  0  0
    0.3355    1.7205    1.1498 H   0  0  0  0  0  0  0  0  0  0  0  0
    0.4634    2.2072   -0.6626 H   0  0  0  0  0  0  0  0  0  0  0  0
    1.3387   -1.6077    1.1085 H   0  0  0  0  0  0  0  0  0  0  0  0
    2.5195   -0.1783    1.2388 H   0  0  0  0  0  0  0  0  0  0  0  0
  1  2  1  0
  2  3  1  0
  3  4  1  0
  4  5  1  0
  5  6  1  0
  6  7  1  0
  7  8  1  0
  8  9  2  0
  5  3  1  0
  8  5  1  0
  1 10  1  0
  1 11  1  0
  1 12  1  0
  3 13  1  0
  4 14  1  0
  4 15  1  0
  6 16  1  0
  6 17  1  0
M  END
