
     RDKit          3D

 21 22  0  0  0  0  0  0  0  0999 V2000
   -0.7933    2.1817   -0.1199 C   0  0  0  0  0  0  0  0  0  0  0  0
    0.2397    1.3380   -0.3266 O   0  0  0  0  0  0  0  0  0  0  0  0
    0.0611    0.0199   -0.1627 C   0  0  0  0  0  0  0  0  0  0  0  0
   -0.9829   -0.6275   -1.0457 C   0  0  0  0  0  0  0  0  0  0  0  0
   -1.6165   -1.2503    0.1880 C   0  0  0  0  0  0  0  0  0  0  0  0
   -0.5824   -0.5686    1.0138 C   0  0  0  0  0  0  0  0  0  0  0  0
    0.5450   -1.3676    1.2302 O   0  0  0  0  0  0  0  0  0  0  0  0
    1.2284   -0.8470    0.1525 C   0  0  0  0  0  0  0  0  0  0  0  0
    2.5265   -0.1469    0.4612 C   0  0  0  0  0  0  0  0  0  0  0  0
   -0.4768    3.2305   -0.2974 H   0  0  0  0  0  0  0  0  0  0  0  0
   -1.3087    2.1224    0.8389 H   0  0  0  0  0  0  0  0  0  0  0  0
   -1.5762    1.9847   -0.9093 H   0  0  0  0  0  0  0  0  0  0  0  0
   -1.6619    0.0591   -1.5742 H   0  0  0  0  0  0  0  0  0  0  0  0
   -0.5182   -1.3799   -1.7223 H   0  0  0  0  0  0  0  0  0  0  0  0
   -1.5630   -2.3525    0.1457 H   0  0  0  0  0  0  0  0  0  0  0  0
   -2.6712   -0.9475    0.3683 H   0  0  0  0  0  0  0  0  0  0  0  0
   -0.8956    0.0331    1.8502 H   0  0  0  0  0  0  0  0  0  0  0  0
    1.3883   -1.5895   -0.6565 H   0  0  0  0  0  0  0  0  0  0  0  0
    2.4883    0.9276    0.1316 H   0  0  0  0  0  0  0  0  0  0  0  0
    3.3874   -0.5831   -0.0942 H   0  0  0  0  0  0  0  0  0  0  0  0
    2.7818   -0.2366    1.5391 H   0  0  0  0  0  0  0  0  0  0  0  0
  1  2  1  0
  2  3  1  0
  3  4  1  0
  4  5  1  0
  5  6  1  0
  6  7  1  0
  7  8  1  0
  8  9  1  0
  6  3  1  0
  8  3  1  0
  1 10  1  0
  1 11  1  0
  1 12  1  0
  4 13  1  0
  4 14  1  0
  5 15  1  0
  5 16  1  0
  6 17  1  0
  8 18  1  0
  9 19  1  0
  9 20  1  0
  9 21  1  0
M  END
