
     RDKit          3D

 18 19  0  0  0  0  0  0  0  0999 V2000
    2.4210    0.3770   -0.5141 C   0  0  0  0  0  0  0  0  0  0  0  0
    1.0598    0.2833   -0.8702 O   0  0  0  0  0  0  0  0  0  0  0  0
    0.3720   -0.0827    0.2605 C   0  0  0  0  0  0  0  0  0  0  0  0
   -0.6013   -1.2142    0.1110 C   0  0  0  0  0  0  0  0  0  0  0  0
   -1.4520   -0.2696   -0.6828 C   0  0  0  0  0  0  0  0  0  0  0  0
   -0.9687    0.5727    0.4768 C   0  0  0  0  0  0  0  0  0  0  0  0
   -1.2167    1.7727    0.7095 O   0  0  0  0  0  0  0  0  0  0  0  0
   -1.2946   -0.6312    1.3270 C   0  0  0  0  0  0  0  0  0  0  0  0
    2.6972   -0.6457   -0.1528 H   0  0  0  0  0  0  0  0  0  0  0  0
    3.0598    0.6194   -1.3672 H   0  0  0  0  0  0  0  0  0  0  0  0
    2.5750    1.0546    0.3467 H   0  0  0  0  0  0  0  0  0  0  0  0
    0.9788   -0.2263    1.1820 H   0  0  0  0  0  0  0  0  0  0  0  0
   -0.4130   -2.1769   -0.0604 H   0  0  0  0  0  0  0  0  0  0  0  0
   -1.0750    0.0387   -1.6677 H   0  0  0  0  0  0  0  0  0  0  0  0
   -2.5412   -0.4676   -0.6080 H   0  0  0  0  0  0  0  0  0  0  0  0
   -0.5565    2.5035    0.7463 H   0  0  0  0  0  0  0  0  0  0  0  0
   -2.3571   -0.8876    1.4243 H   0  0  0  0  0  0  0  0  0  0  0  0
   -0.6874   -0.6201    2.2446 H   0  0  0  0  0  0  0  0  0  0  0  0
  1  2  1  0
  2  3  1  0
  3  4  1  0
  4  5  1  0
  5  6  1  0
  6  7  1  0
  6  8  1  0
  6  3  1  0
  8  4  1  0
  1  9  1  0
  1 10  1  0
  1 11  1  0
  3 12  1  0
  4 13  1  0
  5 14  1  0
  5 15  1  0
  7 16  1  0
  8 17  1  0
  8 18  1  0
M  END
