
     RDKit          3D

 17 17  0  0  0  0  0  0  0  0999 V2000
    1.6958    1.6299    1.0457 C   0  0  0  0  0  0  0  0  0  0  0  0
    0.8078    0.9463    0.1848 O   0  0  0  0  0  0  0  0  0  0  0  0
    0.6206   -0.3659    0.5430 C   0  0  0  0  0  0  0  0  0  0  0  0
    0.4061   -1.4675   -0.4199 C   0  0  0  0  0  0  0  0  0  0  0  0
   -0.7170   -1.0275    0.4923 C   0  0  0  0  0  0  0  0  0  0  0  0
   -1.8849   -0.4052   -0.1502 C   0  0  0  0  0  0  0  0  0  0  0  0
   -3.0311   -0.6378    0.3350 O   0  0  0  0  0  0  0  0  0  0  0  0
   -1.8350    0.4588   -1.3025 C   0  0  0  0  0  0  0  0  0  0  0  0
   -0.7541    0.7401   -1.8592 O   0  0  0  0  0  0  0  0  0  0  0  0
    2.6607    1.0499    0.9569 H   0  0  0  0  0  0  0  0  0  0  0  0
    1.9184    2.6359    0.6731 H   0  0  0  0  0  0  0  0  0  0  0  0
    1.3545    1.5933    2.0782 H   0  0  0  0  0  0  0  0  0  0  0  0
    1.2227   -0.6353    1.4654 H   0  0  0  0  0  0  0  0  0  0  0  0
    0.3456   -1.2628   -1.5124 H   0  0  0  0  0  0  0  0  0  0  0  0
    0.8921   -2.4611   -0.1729 H   0  0  0  0  0  0  0  0  0  0  0  0
   -0.9846   -1.6938    1.3551 H   0  0  0  0  0  0  0  0  0  0  0  0
   -2.7176    0.9027   -1.7395 H   0  0  0  0  0  0  0  0  0  0  0  0
  1  2  1  0
  2  3  1  0
  3  4  1  0
  4  5  1  0
  5  6  1  0
  6  7  2  0
  6  8  1  0
  8  9  2  0
  5  3  1  0
  1 10  1  0
  1 11  1  0
  1 12  1  0
  3 13  1  0
  4 14  1  0
  4 15  1  0
  5 16  1  0
  8 17  1  0
M  END
