
     RDKit          3D

 21 22  0  0  0  0  0  0  0  0999 V2000
    2.1833    0.4212   -0.9013 C   0  0  0  0  0  0  0  0  0  0  0  0
    1.5766    0.2932    0.2792 O   0  0  0  0  0  0  0  0  0  0  0  0
    0.4938   -0.4101    0.5230 C   0  0  0  0  0  0  0  0  0  0  0  0
    0.0602   -0.4149    2.0125 C   0  0  0  0  0  0  0  0  0  0  0  0
   -0.7980    0.6547    2.0413 O   0  0  0  0  0  0  0  0  0  0  0  0
   -1.6712    0.3514    0.9879 C   0  0  0  0  0  0  0  0  0  0  0  0
   -0.8091   -0.0371   -0.1759 C   0  0  0  0  0  0  0  0  0  0  0  0
   -0.8589    0.7836   -1.4243 C   0  0  0  0  0  0  0  0  0  0  0  0
   -0.2121   -1.3788   -0.3057 C   0  0  0  0  0  0  0  0  0  0  0  0
    2.4955   -0.5525   -1.3305 H   0  0  0  0  0  0  0  0  0  0  0  0
    3.1773    0.9690   -0.6964 H   0  0  0  0  0  0  0  0  0  0  0  0
    1.6785    1.1070   -1.5940 H   0  0  0  0  0  0  0  0  0  0  0  0
   -0.4226   -1.3793    2.2463 H   0  0  0  0  0  0  0  0  0  0  0  0
    0.9654   -0.3001    2.6280 H   0  0  0  0  0  0  0  0  0  0  0  0
   -2.3922   -0.4040    1.2983 H   0  0  0  0  0  0  0  0  0  0  0  0
   -2.1706    1.3129    0.7259 H   0  0  0  0  0  0  0  0  0  0  0  0
   -0.5137    1.8308   -1.2885 H   0  0  0  0  0  0  0  0  0  0  0  0
   -0.3854    0.2613   -2.2617 H   0  0  0  0  0  0  0  0  0  0  0  0
   -1.9665    0.7939   -1.7080 H   0  0  0  0  0  0  0  0  0  0  0  0
    0.2431   -1.6536   -1.2643 H   0  0  0  0  0  0  0  0  0  0  0  0
   -0.6735   -2.2487    0.2082 H   0  0  0  0  0  0  0  0  0  0  0  0
  1  2  1  0
  2  3  1  0
  3  4  1  0
  4  5  1  0
  5  6  1  0
  6  7  1  0
  7  8  1  0
  7  9  1  0
  7  3  1  0
  9  3  1  0
  1 10  1  0
  1 11  1  0
  1 12  1  0
  4 13  1  0
  4 14  1  0
  6 15  1  0
  6 16  1  0
  8 17  1  0
  8 18  1  0
  8 19  1  0
  9 20  1  0
  9 21  1  0
M  END
