
     RDKit          3D

 23 24  0  0  0  0  0  0  0  0999 V2000
    2.5454    1.0748   -0.7939 C   0  0  0  0  0  0  0  0  0  0  0  0
    1.6131    0.5674    0.1388 O   0  0  0  0  0  0  0  0  0  0  0  0
    0.6674   -0.1837   -0.4946 C   0  0  0  0  0  0  0  0  0  0  0  0
    0.5627   -1.6053    0.0948 C   0  0  0  0  0  0  0  0  0  0  0  0
   -0.9051   -1.6258    0.3749 C   0  0  0  0  0  0  0  0  0  0  0  0
   -1.5583   -0.8182   -0.7530 C   0  0  0  0  0  0  0  0  0  0  0  0
   -0.7092    0.3104   -0.1543 C   0  0  0  0  0  0  0  0  0  0  0  0
   -1.0936    1.6728   -0.4075 C   0  0  0  0  0  0  0  0  0  0  0  0
   -1.0507   -0.3303    1.1835 C   0  0  0  0  0  0  0  0  0  0  0  0
    2.9982    0.1941   -1.2702 H   0  0  0  0  0  0  0  0  0  0  0  0
    1.9765    1.7156   -1.4842 H   0  0  0  0  0  0  0  0  0  0  0  0
    3.2517    1.7032   -0.2321 H   0  0  0  0  0  0  0  0  0  0  0  0
    0.7921   -0.2599   -1.5823 H   0  0  0  0  0  0  0  0  0  0  0  0
    1.1139   -1.5578    1.0512 H   0  0  0  0  0  0  0  0  0  0  0  0
    0.9189   -2.3619   -0.5988 H   0  0  0  0  0  0  0  0  0  0  0  0
   -1.3960   -2.4904    0.7231 H   0  0  0  0  0  0  0  0  0  0  0  0
   -2.6299   -0.7222   -0.5888 H   0  0  0  0  0  0  0  0  0  0  0  0
   -1.2225   -1.1190   -1.7648 H   0  0  0  0  0  0  0  0  0  0  0  0
   -1.0431    2.2849    0.5307 H   0  0  0  0  0  0  0  0  0  0  0  0
   -0.3792    2.1646   -1.1228 H   0  0  0  0  0  0  0  0  0  0  0  0
   -2.1007    1.8404   -0.8469 H   0  0  0  0  0  0  0  0  0  0  0  0
   -0.2704   -0.2892    1.9392 H   0  0  0  0  0  0  0  0  0  0  0  0
   -2.0814   -0.1646    1.4826 H   0  0  0  0  0  0  0  0  0  0  0  0
  1  2  1  0
  2  3  1  0
  3  4  1  0
  4  5  1  0
  5  6  1  0
  6  7  1  0
  7  8  1  0
  7  9  1  0
  7  3  1  0
  9  5  1  0
  1 10  1  0
  1 11  1  0
  1 12  1  0
  3 13  1  0
  4 14  1  0
  4 15  1  0
  5 16  1  0
  6 17  1  0
  6 18  1  0
  8 19  1  0
  8 20  1  0
  8 21  1  0
  9 22  1  0
  9 23  1  0
M  END
