
     RDKit          3D

 16 16  0  0  0  0  0  0  0  0999 V2000
    2.5361    0.1510    0.0397 C   0  0  0  0  0  0  0  0  0  0  0  0
    1.5622   -0.1674   -0.8991 O   0  0  0  0  0  0  0  0  0  0  0  0
    0.3376   -0.1653   -0.2979 C   0  0  0  0  0  0  0  0  0  0  0  0
   -0.6767    0.7163   -1.0006 C   0  0  0  0  0  0  0  0  0  0  0  0
   -1.9251    0.2246   -0.2542 C   0  0  0  0  0  0  0  0  0  0  0  0
   -1.6985   -1.2302   -0.3548 C   0  0  0  0  0  0  0  0  0  0  0  0
   -2.5820   -2.0952   -0.3851 O   0  0  0  0  0  0  0  0  0  0  0  0
   -0.3350   -1.4329   -0.4075 O   0  0  0  0  0  0  0  0  0  0  0  0
    3.5161    0.1494   -0.4408 H   0  0  0  0  0  0  0  0  0  0  0  0
    2.5700   -0.6489    0.8338 H   0  0  0  0  0  0  0  0  0  0  0  0
    2.2435    1.1091    0.5008 H   0  0  0  0  0  0  0  0  0  0  0  0
    0.3385    0.0777    0.7781 H   0  0  0  0  0  0  0  0  0  0  0  0
   -0.5012    1.7845   -0.8327 H   0  0  0  0  0  0  0  0  0  0  0  0
   -0.7411    0.4070   -2.0415 H   0  0  0  0  0  0  0  0  0  0  0  0
   -2.8485    0.5698   -0.7341 H   0  0  0  0  0  0  0  0  0  0  0  0
   -1.7959    0.5503    0.7893 H   0  0  0  0  0  0  0  0  0  0  0  0
  1  2  1  0
  2  3  1  0
  3  4  1  0
  4  5  1  0
  5  6  1  0
  6  7  2  0
  6  8  1  0
  8  3  1  0
  1  9  1  0
  1 10  1  0
  1 11  1  0
  3 12  1  0
  4 13  1  0
  4 14  1  0
  5 15  1  0
  5 16  1  0
M  END
