
     RDKit          3D

 21 21  0  0  0  0  0  0  0  0999 V2000
    2.7131   -0.5573   -0.4949 C   0  0  0  0  0  0  0  0  0  0  0  0
    1.6946   -0.7019    0.4368 O   0  0  0  0  0  0  0  0  0  0  0  0
    0.5589   -0.0090    0.1369 C   0  0  0  0  0  0  0  0  0  0  0  0
    0.1626    1.0141    1.1741 C   0  0  0  0  0  0  0  0  0  0  0  0
   -1.2209    1.4597    0.9721 C   0  0  0  0  0  0  0  0  0  0  0  0
   -2.0682    1.0042    0.0859 C   0  0  0  0  0  0  0  0  0  0  0  0
   -1.6500   -0.0760   -0.8428 C   0  0  0  0  0  0  0  0  0  0  0  0
   -0.6449   -0.9325   -0.0984 C   0  0  0  0  0  0  0  0  0  0  0  0
   -0.2406   -2.0357   -0.8077 O   0  0  0  0  0  0  0  0  0  0  0  0
    2.4251   -0.9011   -1.5039 H   0  0  0  0  0  0  0  0  0  0  0  0
    3.5684   -1.1627   -0.1215 H   0  0  0  0  0  0  0  0  0  0  0  0
    3.0002    0.5224   -0.4820 H   0  0  0  0  0  0  0  0  0  0  0  0
    0.6921    0.5429   -0.8203 H   0  0  0  0  0  0  0  0  0  0  0  0
    0.8359    1.8932    1.0866 H   0  0  0  0  0  0  0  0  0  0  0  0
    0.2150    0.5780    2.2130 H   0  0  0  0  0  0  0  0  0  0  0  0
   -1.5861    2.2622    1.6356 H   0  0  0  0  0  0  0  0  0  0  0  0
   -3.0746    1.4023    0.0163 H   0  0  0  0  0  0  0  0  0  0  0  0
   -2.5068   -0.6759   -1.2120 H   0  0  0  0  0  0  0  0  0  0  0  0
   -1.1260    0.4202   -1.7059 H   0  0  0  0  0  0  0  0  0  0  0  0
   -1.0577   -1.1769    0.9065 H   0  0  0  0  0  0  0  0  0  0  0  0
   -0.6901   -2.8700   -0.5744 H   0  0  0  0  0  0  0  0  0  0  0  0
  1  2  1  0
  2  3  1  0
  3  4  1  0
  4  5  1  0
  5  6  2  0
  6  7  1  0
  7  8  1  0
  8  9  1  0
  8  3  1  0
  1 10  1  0
  1 11  1  0
  1 12  1  0
  3 13  1  0
  4 14  1  0
  4 15  1  0
  5 16  1  0
  6 17  1  0
  7 18  1  0
  7 19  1  0
  8 20  1  0
  9 21  1  0
M  END
