
     RDKit          3D

 22 22  0  0  0  0  0  0  0  0999 V2000
    3.1617   -0.4315   -0.6907 C   0  0  0  0  0  0  0  0  0  0  0  0
    1.7957   -0.5265   -0.9428 O   0  0  0  0  0  0  0  0  0  0  0  0
    1.0335    0.0678    0.0273 C   0  0  0  0  0  0  0  0  0  0  0  0
   -0.0412    1.0115   -0.4658 C   0  0  0  0  0  0  0  0  0  0  0  0
   -1.0699    0.1311    0.1597 C   0  0  0  0  0  0  0  0  0  0  0  0
   -1.8971    0.7470    1.2586 C   0  0  0  0  0  0  0  0  0  0  0  0
   -1.9938   -0.5307   -0.8534 C   0  0  0  0  0  0  0  0  0  0  0  0
   -0.0127   -0.8463    0.6255 C   0  0  0  0  0  0  0  0  0  0  0  0
    3.4400   -0.9103    0.2578 H   0  0  0  0  0  0  0  0  0  0  0  0
    3.3713    0.6713   -0.5768 H   0  0  0  0  0  0  0  0  0  0  0  0
    3.7463   -0.7600   -1.5520 H   0  0  0  0  0  0  0  0  0  0  0  0
    1.6810    0.5042    0.8182 H   0  0  0  0  0  0  0  0  0  0  0  0
   -0.1029    1.1066   -1.5676 H   0  0  0  0  0  0  0  0  0  0  0  0
    0.0207    1.9897    0.0462 H   0  0  0  0  0  0  0  0  0  0  0  0
   -1.3133    1.3004    1.9964 H   0  0  0  0  0  0  0  0  0  0  0  0
   -2.4683   -0.0759    1.7529 H   0  0  0  0  0  0  0  0  0  0  0  0
   -2.6278    1.4200    0.8018 H   0  0  0  0  0  0  0  0  0  0  0  0
   -1.4327   -1.2838   -1.4409 H   0  0  0  0  0  0  0  0  0  0  0  0
   -2.7668   -1.0605   -0.2579 H   0  0  0  0  0  0  0  0  0  0  0  0
   -2.4572    0.2337   -1.5288 H   0  0  0  0  0  0  0  0  0  0  0  0
    0.0231   -0.9125    1.7234 H   0  0  0  0  0  0  0  0  0  0  0  0
   -0.0896   -1.8451    0.1840 H   0  0  0  0  0  0  0  0  0  0  0  0
  1  2  1  0
  2  3  1  0
  3  4  1  0
  4  5  1  0
  5  6  1  0
  5  7  1  0
  5  8  1  0
  8  3  1  0
  1  9  1  0
  1 10  1  0
  1 11  1  0
  3 12  1  0
  4 13  1  0
  4 14  1  0
  6 15  1  0
  6 16  1  0
  6 17  1  0
  7 18  1  0
  7 19  1  0
  7 20  1  0
  8 21  1  0
  8 22  1  0
M  END
