
     RDKit          3D

 23 23  0  0  0  0  0  0  0  0999 V2000
    2.1542    0.5228   -1.0805 C   0  0  0  0  0  0  0  0  0  0  0  0
    0.8715    0.7969   -0.7109 O   0  0  0  0  0  0  0  0  0  0  0  0
    0.3533    0.1223    0.3367 C   0  0  0  0  0  0  0  0  0  0  0  0
    1.0991    0.3120    1.6452 C   0  0  0  0  0  0  0  0  0  0  0  0
    0.0085   -1.3152    0.0916 C   0  0  0  0  0  0  0  0  0  0  0  0
   -1.3148   -1.3024   -0.6621 C   0  0  0  0  0  0  0  0  0  0  0  0
   -1.9009    0.0590   -0.4755 C   0  0  0  0  0  0  0  0  0  0  0  0
   -1.7833    0.8469   -1.6254 O   0  0  0  0  0  0  0  0  0  0  0  0
   -1.0524    0.6981    0.5911 C   0  0  0  0  0  0  0  0  0  0  0  0
    2.3521   -0.5189   -1.3789 H   0  0  0  0  0  0  0  0  0  0  0  0
    2.8274    0.7418   -0.2253 H   0  0  0  0  0  0  0  0  0  0  0  0
    2.4419    1.2499   -1.8786 H   0  0  0  0  0  0  0  0  0  0  0  0
    2.1595    0.0747    1.5831 H   0  0  0  0  0  0  0  0  0  0  0  0
    0.9327    1.3587    2.0223 H   0  0  0  0  0  0  0  0  0  0  0  0
    0.5567   -0.3325    2.3946 H   0  0  0  0  0  0  0  0  0  0  0  0
    0.7803   -1.9012   -0.3976 H   0  0  0  0  0  0  0  0  0  0  0  0
   -0.1756   -1.7687    1.0924 H   0  0  0  0  0  0  0  0  0  0  0  0
   -1.0894   -1.5365   -1.7232 H   0  0  0  0  0  0  0  0  0  0  0  0
   -1.9947   -2.0752   -0.2395 H   0  0  0  0  0  0  0  0  0  0  0  0
   -2.9498    0.0160   -0.1144 H   0  0  0  0  0  0  0  0  0  0  0  0
   -1.9232    1.7919   -1.3276 H   0  0  0  0  0  0  0  0  0  0  0  0
   -0.9560    1.7821    0.4847 H   0  0  0  0  0  0  0  0  0  0  0  0
   -1.3971    0.3774    1.5978 H   0  0  0  0  0  0  0  0  0  0  0  0
  1  2  1  0
  2  3  1  0
  3  4  1  0
  3  5  1  0
  5  6  1  0
  6  7  1  0
  7  8  1  0
  7  9  1  0
  9  3  1  0
  1 10  1  0
  1 11  1  0
  1 12  1  0
  4 13  1  0
  4 14  1  0
  4 15  1  0
  5 16  1  0
  5 17  1  0
  6 18  1  0
  6 19  1  0
  7 20  1  0
  8 21  1  0
  9 22  1  0
  9 23  1  0
M  END
