
     RDKit          3D

 21 22  0  0  0  0  0  0  0  0999 V2000
    2.9623   -0.4305   -0.2436 C   0  0  0  0  0  0  0  0  0  0  0  0
    1.6110   -0.7517   -0.3351 O   0  0  0  0  0  0  0  0  0  0  0  0
    0.8692    0.1527    0.4437 C   0  0  0  0  0  0  0  0  0  0  0  0
   -0.3826   -0.2717    1.0931 C   0  0  0  0  0  0  0  0  0  0  0  0
   -1.4717   -1.0295    0.4393 C   0  0  0  0  0  0  0  0  0  0  0  0
   -1.4436   -2.4016    0.5085 O   0  0  0  0  0  0  0  0  0  0  0  0
   -1.1689   -0.4261   -0.9169 C   0  0  0  0  0  0  0  0  0  0  0  0
   -0.3799    0.6198   -0.1695 C   0  0  0  0  0  0  0  0  0  0  0  0
   -0.9493    1.9781    0.0470 C   0  0  0  0  0  0  0  0  0  0  0  0
    3.1896    0.5817   -0.5982 H   0  0  0  0  0  0  0  0  0  0  0  0
    3.6166   -1.1559   -0.7171 H   0  0  0  0  0  0  0  0  0  0  0  0
    3.1888   -0.4122    0.8634 H   0  0  0  0  0  0  0  0  0  0  0  0
    1.4630    0.9291    0.9711 H   0  0  0  0  0  0  0  0  0  0  0  0
   -0.6465    0.2054    2.0522 H   0  0  0  0  0  0  0  0  0  0  0  0
   -2.4960   -0.6686    0.7528 H   0  0  0  0  0  0  0  0  0  0  0  0
   -2.1328   -2.7707    1.1468 H   0  0  0  0  0  0  0  0  0  0  0  0
   -0.4495   -1.0686   -1.4974 H   0  0  0  0  0  0  0  0  0  0  0  0
   -2.0260   -0.0634   -1.4802 H   0  0  0  0  0  0  0  0  0  0  0  0
   -2.0701    1.8850   -0.0314 H   0  0  0  0  0  0  0  0  0  0  0  0
   -0.7257    2.3903    1.0616 H   0  0  0  0  0  0  0  0  0  0  0  0
   -0.5580    2.7083   -0.6938 H   0  0  0  0  0  0  0  0  0  0  0  0
  1  2  1  0
  2  3  1  0
  3  4  1  0
  4  5  1  0
  5  6  1  0
  5  7  1  0
  7  8  1  0
  8  9  1  0
  8  3  1  0
  8  4  1  0
  1 10  1  0
  1 11  1  0
  1 12  1  0
  3 13  1  0
  4 14  1  0
  5 15  1  0
  6 16  1  0
  7 17  1  0
  7 18  1  0
  9 19  1  0
  9 20  1  0
  9 21  1  0
M  END
