
     RDKit          3D

 21 22  0  0  0  0  0  0  0  0999 V2000
    2.3519    0.2124   -1.0711 C   0  0  0  0  0  0  0  0  0  0  0  0
    1.2487   -0.6225   -0.9069 O   0  0  0  0  0  0  0  0  0  0  0  0
    0.6009   -0.2441    0.2327 C   0  0  0  0  0  0  0  0  0  0  0  0
    0.5068   -1.3417    1.2686 C   0  0  0  0  0  0  0  0  0  0  0  0
   -0.6356   -0.9812    2.0136 O   0  0  0  0  0  0  0  0  0  0  0  0
   -1.5677   -0.7396    0.9966 C   0  0  0  0  0  0  0  0  0  0  0  0
   -0.8346    0.1384    0.0395 C   0  0  0  0  0  0  0  0  0  0  0  0
   -1.1438    1.5672   -0.1242 C   0  0  0  0  0  0  0  0  0  0  0  0
   -1.3844    0.5946   -1.2362 C   0  0  0  0  0  0  0  0  0  0  0  0
    1.9963    1.2375   -1.1518 H   0  0  0  0  0  0  0  0  0  0  0  0
    2.9242   -0.1339   -1.9560 H   0  0  0  0  0  0  0  0  0  0  0  0
    2.9478    0.1261   -0.1308 H   0  0  0  0  0  0  0  0  0  0  0  0
    1.1124    0.6086    0.7155 H   0  0  0  0  0  0  0  0  0  0  0  0
    0.4121   -2.3431    0.8330 H   0  0  0  0  0  0  0  0  0  0  0  0
    1.3633   -1.2910    1.9747 H   0  0  0  0  0  0  0  0  0  0  0  0
   -1.7893   -1.7012    0.4854 H   0  0  0  0  0  0  0  0  0  0  0  0
   -2.5047   -0.3236    1.3857 H   0  0  0  0  0  0  0  0  0  0  0  0
   -0.2942    2.2611   -0.2737 H   0  0  0  0  0  0  0  0  0  0  0  0
   -2.0070    1.9533    0.4790 H   0  0  0  0  0  0  0  0  0  0  0  0
   -2.4779    0.3726   -1.4007 H   0  0  0  0  0  0  0  0  0  0  0  0
   -0.8251    0.6501   -2.1729 H   0  0  0  0  0  0  0  0  0  0  0  0
  1  2  1  0
  2  3  1  0
  3  4  1  0
  4  5  1  0
  5  6  1  0
  6  7  1  0
  7  8  1  0
  8  9  1  0
  7  3  1  0
  9  7  1  0
  1 10  1  0
  1 11  1  0
  1 12  1  0
  3 13  1  0
  4 14  1  0
  4 15  1  0
  6 16  1  0
  6 17  1  0
  8 18  1  0
  8 19  1  0
  9 20  1  0
  9 21  1  0
M  END
