
     RDKit          3D

 23 23  0  0  0  0  0  0  0  0999 V2000
    1.7951    1.3400    0.4138 C   0  0  0  0  0  0  0  0  0  0  0  0
    1.1837    0.7222   -0.6522 O   0  0  0  0  0  0  0  0  0  0  0  0
    0.7421   -0.5315   -0.2452 C   0  0  0  0  0  0  0  0  0  0  0  0
    1.8655   -1.3930    0.3050 C   0  0  0  0  0  0  0  0  0  0  0  0
   -0.0880   -1.3127   -1.2686 C   0  0  0  0  0  0  0  0  0  0  0  0
   -0.6513   -0.8152    0.0742 C   0  0  0  0  0  0  0  0  0  0  0  0
   -1.7859    0.1378   -0.0860 C   0  0  0  0  0  0  0  0  0  0  0  0
   -1.6983    1.4018    0.6974 C   0  0  0  0  0  0  0  0  0  0  0  0
   -1.9650    0.4530   -1.4300 O   0  0  0  0  0  0  0  0  0  0  0  0
    1.0877    1.4414    1.2433 H   0  0  0  0  0  0  0  0  0  0  0  0
    2.6185    0.6693    0.7980 H   0  0  0  0  0  0  0  0  0  0  0  0
    2.2617    2.3118    0.1501 H   0  0  0  0  0  0  0  0  0  0  0  0
    2.7889   -1.2395   -0.2905 H   0  0  0  0  0  0  0  0  0  0  0  0
    1.6358   -2.4808    0.2309 H   0  0  0  0  0  0  0  0  0  0  0  0
    2.0506   -1.2003    1.3823 H   0  0  0  0  0  0  0  0  0  0  0  0
    0.0571   -2.4050   -1.3611 H   0  0  0  0  0  0  0  0  0  0  0  0
   -0.3455   -0.7506   -2.1714 H   0  0  0  0  0  0  0  0  0  0  0  0
   -0.7876   -1.6397    0.8415 H   0  0  0  0  0  0  0  0  0  0  0  0
   -2.7114   -0.4037    0.2846 H   0  0  0  0  0  0  0  0  0  0  0  0
   -2.7217    1.8358    0.7752 H   0  0  0  0  0  0  0  0  0  0  0  0
   -1.3520    1.2612    1.7412 H   0  0  0  0  0  0  0  0  0  0  0  0
   -1.0544    2.1857    0.2038 H   0  0  0  0  0  0  0  0  0  0  0  0
   -2.9255    0.4120   -1.6361 H   0  0  0  0  0  0  0  0  0  0  0  0
  1  2  1  0
  2  3  1  0
  3  4  1  0
  3  5  1  0
  5  6  1  0
  6  7  1  0
  7  8  1  0
  7  9  1  0
  6  3  1  0
  1 10  1  0
  1 11  1  0
  1 12  1  0
  4 13  1  0
  4 14  1  0
  4 15  1  0
  5 16  1  0
  5 17  1  0
  6 18  1  0
  7 19  1  0
  8 20  1  0
  8 21  1  0
  8 22  1  0
  9 23  1  0
M  END
