
     RDKit          3D

 23 23  0  0  0  0  0  0  0  0999 V2000
    2.3787   -0.2609    0.0228 C   0  0  0  0  0  0  0  0  0  0  0  0
    1.5942    0.7990    0.3609 O   0  0  0  0  0  0  0  0  0  0  0  0
    0.2510    0.6356    0.2780 C   0  0  0  0  0  0  0  0  0  0  0  0
   -0.3649    1.9777    0.7106 C   0  0  0  0  0  0  0  0  0  0  0  0
   -0.3081   -0.4441    1.1964 C   0  0  0  0  0  0  0  0  0  0  0  0
   -1.1491   -1.3472    0.3598 C   0  0  0  0  0  0  0  0  0  0  0  0
   -0.6492   -1.1427   -1.0267 C   0  0  0  0  0  0  0  0  0  0  0  0
   -0.2826    0.3117   -1.0747 C   0  0  0  0  0  0  0  0  0  0  0  0
   -1.4533    1.0306   -1.3176 O   0  0  0  0  0  0  0  0  0  0  0  0
    3.4511    0.0729    0.1567 H   0  0  0  0  0  0  0  0  0  0  0  0
    2.2832   -1.1512    0.6752 H   0  0  0  0  0  0  0  0  0  0  0  0
    2.2940   -0.5547   -1.0595 H   0  0  0  0  0  0  0  0  0  0  0  0
    0.2744    2.4663    1.4731 H   0  0  0  0  0  0  0  0  0  0  0  0
   -0.3608    2.6178   -0.1809 H   0  0  0  0  0  0  0  0  0  0  0  0
   -1.3606    1.8366    1.1580 H   0  0  0  0  0  0  0  0  0  0  0  0
   -0.9303    0.0016    2.0035 H   0  0  0  0  0  0  0  0  0  0  0  0
    0.5021   -1.0317    1.6547 H   0  0  0  0  0  0  0  0  0  0  0  0
   -1.0024   -2.4237    0.6585 H   0  0  0  0  0  0  0  0  0  0  0  0
   -2.2390   -1.1561    0.4742 H   0  0  0  0  0  0  0  0  0  0  0  0
   -1.4061   -1.4122   -1.8072 H   0  0  0  0  0  0  0  0  0  0  0  0
    0.2485   -1.8045   -1.1601 H   0  0  0  0  0  0  0  0  0  0  0  0
    0.4141    0.5259   -1.9047 H   0  0  0  0  0  0  0  0  0  0  0  0
   -2.1848    0.4531   -1.6511 H   0  0  0  0  0  0  0  0  0  0  0  0
  1  2  1  0
  2  3  1  0
  3  4  1  0
  3  5  1  0
  5  6  1  0
  6  7  1  0
  7  8  1  0
  8  9  1  0
  8  3  1  0
  1 10  1  0
  1 11  1  0
  1 12  1  0
  4 13  1  0
  4 14  1  0
  4 15  1  0
  5 16  1  0
  5 17  1  0
  6 18  1  0
  6 19  1  0
  7 20  1  0
  7 21  1  0
  8 22  1  0
  9 23  1  0
M  END
