
     RDKit          3D

 21 22  0  0  0  0  0  0  0  0999 V2000
    2.1434    1.4741   -0.2736 C   0  0  0  0  0  0  0  0  0  0  0  0
    1.0718    0.7188   -0.7856 O   0  0  0  0  0  0  0  0  0  0  0  0
    0.3224    0.2835    0.2773 C   0  0  0  0  0  0  0  0  0  0  0  0
   -0.1090   -1.1614    0.2356 C   0  0  0  0  0  0  0  0  0  0  0  0
    0.7092   -2.2640    0.2701 C   0  0  0  0  0  0  0  0  0  0  0  0
   -1.1910   -0.7892    1.1997 C   0  0  0  0  0  0  0  0  0  0  0  0
   -1.1602    0.2617    0.1182 C   0  0  0  0  0  0  0  0  0  0  0  0
   -2.0172    1.3276   -0.0118 C   0  0  0  0  0  0  0  0  0  0  0  0
   -0.9871   -0.7915   -0.7792 O   0  0  0  0  0  0  0  0  0  0  0  0
    2.7759    0.8559    0.4032 H   0  0  0  0  0  0  0  0  0  0  0  0
    1.7961    2.3747    0.2640 H   0  0  0  0  0  0  0  0  0  0  0  0
    2.8164    1.8282   -1.0934 H   0  0  0  0  0  0  0  0  0  0  0  0
    0.6645    0.5798    1.2830 H   0  0  0  0  0  0  0  0  0  0  0  0
    1.8144   -2.0363    0.3321 H   0  0  0  0  0  0  0  0  0  0  0  0
    0.5352   -2.9642    1.1397 H   0  0  0  0  0  0  0  0  0  0  0  0
    0.6341   -2.9411   -0.6318 H   0  0  0  0  0  0  0  0  0  0  0  0
   -0.7775   -0.4291    2.1454 H   0  0  0  0  0  0  0  0  0  0  0  0
   -2.0832   -1.4191    1.2274 H   0  0  0  0  0  0  0  0  0  0  0  0
   -2.4284    1.4843   -1.0525 H   0  0  0  0  0  0  0  0  0  0  0  0
   -1.5824    2.3369    0.2503 H   0  0  0  0  0  0  0  0  0  0  0  0
   -2.9474    1.2705    0.6281 H   0  0  0  0  0  0  0  0  0  0  0  0
  1  2  1  0
  2  3  1  0
  3  4  1  0
  4  5  1  0
  4  6  1  0
  6  7  1  0
  7  8  1  0
  7  9  1  0
  7  3  1  0
  9  4  1  0
  1 10  1  0
  1 11  1  0
  1 12  1  0
  3 13  1  0
  5 14  1  0
  5 15  1  0
  5 16  1  0
  6 17  1  0
  6 18  1  0
  8 19  1  0
  8 20  1  0
  8 21  1  0
M  END
