
     RDKit          3D

 23 24  0  0  0  0  0  0  0  0999 V2000
    2.5759    0.0720   -0.7754 C   0  0  0  0  0  0  0  0  0  0  0  0
    1.3004   -0.4047   -1.0670 O   0  0  0  0  0  0  0  0  0  0  0  0
    0.4277    0.0954   -0.1173 C   0  0  0  0  0  0  0  0  0  0  0  0
    0.6145   -0.2096    1.3373 C   0  0  0  0  0  0  0  0  0  0  0  0
   -0.6869   -0.9903    1.2928 C   0  0  0  0  0  0  0  0  0  0  0  0
   -0.9908   -0.4920   -0.0688 C   0  0  0  0  0  0  0  0  0  0  0  0
   -1.3464   -1.5420   -1.0937 C   0  0  0  0  0  0  0  0  0  0  0  0
   -0.7705    0.8886   -0.5165 C   0  0  0  0  0  0  0  0  0  0  0  0
   -1.1554    2.0819    0.3007 C   0  0  0  0  0  0  0  0  0  0  0  0
    2.9159   -0.2470    0.2308 H   0  0  0  0  0  0  0  0  0  0  0  0
    2.5604    1.1815   -0.8716 H   0  0  0  0  0  0  0  0  0  0  0  0
    3.2791   -0.3018   -1.5605 H   0  0  0  0  0  0  0  0  0  0  0  0
    0.5444    0.6813    2.0141 H   0  0  0  0  0  0  0  0  0  0  0  0
    1.4971   -0.8143    1.5817 H   0  0  0  0  0  0  0  0  0  0  0  0
   -0.4512   -2.0915    1.3014 H   0  0  0  0  0  0  0  0  0  0  0  0
   -1.4044   -0.7507    2.0985 H   0  0  0  0  0  0  0  0  0  0  0  0
   -1.6961   -1.1020   -2.0449 H   0  0  0  0  0  0  0  0  0  0  0  0
   -0.5307   -2.2888   -1.2409 H   0  0  0  0  0  0  0  0  0  0  0  0
   -2.1976   -2.1327   -0.6425 H   0  0  0  0  0  0  0  0  0  0  0  0
   -0.8577    1.0543   -1.6163 H   0  0  0  0  0  0  0  0  0  0  0  0
   -2.2066    2.3873    0.1701 H   0  0  0  0  0  0  0  0  0  0  0  0
   -0.8895    1.9809    1.3659 H   0  0  0  0  0  0  0  0  0  0  0  0
   -0.5317    2.9440   -0.0781 H   0  0  0  0  0  0  0  0  0  0  0  0
  1  2  1  0
  2  3  1  0
  3  4  1  0
  4  5  1  0
  5  6  1  0
  6  7  1  0
  6  8  1  0
  8  9  1  0
  6  3  1  0
  8  3  1  0
  1 10  1  0
  1 11  1  0
  1 12  1  0
  4 13  1  0
  4 14  1  0
  5 15  1  0
  5 16  1  0
  7 17  1  0
  7 18  1  0
  7 19  1  0
  8 20  1  0
  9 21  1  0
  9 22  1  0
  9 23  1  0
M  END
