
     RDKit          3D

 17 17  0  0  0  0  0  0  0  0999 V2000
    2.4520   -0.1145   -0.4422 C   0  0  0  0  0  0  0  0  0  0  0  0
    1.2357   -0.8325   -0.4991 O   0  0  0  0  0  0  0  0  0  0  0  0
    0.3003   -0.1033    0.1667 C   0  0  0  0  0  0  0  0  0  0  0  0
   -0.4234   -0.8077    1.2238 C   0  0  0  0  0  0  0  0  0  0  0  0
    0.0106   -1.6767    2.0088 O   0  0  0  0  0  0  0  0  0  0  0  0
   -1.7311   -0.3499    1.2326 O   0  0  0  0  0  0  0  0  0  0  0  0
   -1.8118    0.7908    0.3581 C   0  0  0  0  0  0  0  0  0  0  0  0
   -0.8643    0.3383   -0.7345 C   0  0  0  0  0  0  0  0  0  0  0  0
   -1.3408   -0.8126   -1.3548 O   0  0  0  0  0  0  0  0  0  0  0  0
    2.6938   -0.0094    0.6291 H   0  0  0  0  0  0  0  0  0  0  0  0
    2.3028    0.8821   -0.9099 H   0  0  0  0  0  0  0  0  0  0  0  0
    3.2034   -0.6973   -1.0131 H   0  0  0  0  0  0  0  0  0  0  0  0
    0.6987    0.8629    0.5903 H   0  0  0  0  0  0  0  0  0  0  0  0
   -2.8273    0.9743    0.0113 H   0  0  0  0  0  0  0  0  0  0  0  0
   -1.3369    1.6367    0.8841 H   0  0  0  0  0  0  0  0  0  0  0  0
   -0.5551    1.1244   -1.4107 H   0  0  0  0  0  0  0  0  0  0  0  0
   -2.0067   -1.2056   -0.7404 H   0  0  0  0  0  0  0  0  0  0  0  0
  1  2  1  0
  2  3  1  0
  3  4  1  0
  4  5  2  0
  4  6  1  0
  6  7  1  0
  7  8  1  0
  8  9  1  0
  8  3  1  0
  1 10  1  0
  1 11  1  0
  1 12  1  0
  3 13  1  0
  7 14  1  0
  7 15  1  0
  8 16  1  0
  9 17  1  0
M  END
