
     RDKit          3D

 17 18  0  0  0  0  0  0  0  0999 V2000
    2.5466    0.2902   -0.2523 C   0  0  0  0  0  0  0  0  0  0  0  0
    1.3160   -0.1102   -0.7642 O   0  0  0  0  0  0  0  0  0  0  0  0
    0.3652    0.0797    0.1900 C   0  0  0  0  0  0  0  0  0  0  0  0
   -0.4042   -1.1849    0.5953 C   0  0  0  0  0  0  0  0  0  0  0  0
   -1.6004   -0.2623    0.6831 C   0  0  0  0  0  0  0  0  0  0  0  0
   -2.1198    0.1707   -0.6273 C   0  0  0  0  0  0  0  0  0  0  0  0
   -0.8860    0.7969   -0.1885 C   0  0  0  0  0  0  0  0  0  0  0  0
    3.3780    0.1675   -0.9695 H   0  0  0  0  0  0  0  0  0  0  0  0
    2.4485    1.3395    0.1130 H   0  0  0  0  0  0  0  0  0  0  0  0
    2.7665   -0.3853    0.6209 H   0  0  0  0  0  0  0  0  0  0  0  0
    0.7891    0.4983    1.1249 H   0  0  0  0  0  0  0  0  0  0  0  0
   -0.4517   -1.8470   -0.2925 H   0  0  0  0  0  0  0  0  0  0  0  0
   -0.0720   -1.6462    1.5234 H   0  0  0  0  0  0  0  0  0  0  0  0
   -1.9313    0.1301    1.6381 H   0  0  0  0  0  0  0  0  0  0  0  0
   -2.1527   -0.6435   -1.4086 H   0  0  0  0  0  0  0  0  0  0  0  0
   -3.0481    0.7553   -0.6096 H   0  0  0  0  0  0  0  0  0  0  0  0
   -0.9437    1.8511    0.1393 H   0  0  0  0  0  0  0  0  0  0  0  0
  1  2  1  0
  2  3  1  0
  3  4  1  0
  4  5  1  0
  5  6  1  0
  6  7  1  0
  7  3  1  0
  7  5  1  0
  1  8  1  0
  1  9  1  0
  1 10  1  0
  3 11  1  0
  4 12  1  0
  4 13  1  0
  5 14  1  0
  6 15  1  0
  6 16  1  0
  7 17  1  0
M  END
