
     RDKit          3D

 19 20  0  0  0  0  0  0  0  0999 V2000
    2.4589    0.7804   -0.1493 C   0  0  0  0  0  0  0  0  0  0  0  0
    1.2364    0.5441   -0.7349 O   0  0  0  0  0  0  0  0  0  0  0  0
    0.5180   -0.3193    0.0896 C   0  0  0  0  0  0  0  0  0  0  0  0
    0.2195   -1.5814   -0.6017 C   0  0  0  0  0  0  0  0  0  0  0  0
   -1.0506   -1.8770   -0.4116 C   0  0  0  0  0  0  0  0  0  0  0  0
   -1.7846   -0.9106    0.3995 C   0  0  0  0  0  0  0  0  0  0  0  0
   -1.3520   -0.4420    1.6119 O   0  0  0  0  0  0  0  0  0  0  0  0
   -0.7859    0.2168    0.5287 C   0  0  0  0  0  0  0  0  0  0  0  0
   -1.2941    1.5493    0.0904 C   0  0  0  0  0  0  0  0  0  0  0  0
    3.0899    1.4685   -0.7603 H   0  0  0  0  0  0  0  0  0  0  0  0
    2.3522    1.2515    0.8703 H   0  0  0  0  0  0  0  0  0  0  0  0
    3.0249   -0.1730    0.0505 H   0  0  0  0  0  0  0  0  0  0  0  0
    1.1289   -0.5872    1.0045 H   0  0  0  0  0  0  0  0  0  0  0  0
    0.9644   -2.1689   -1.1827 H   0  0  0  0  0  0  0  0  0  0  0  0
   -1.5015   -2.7814   -0.8371 H   0  0  0  0  0  0  0  0  0  0  0  0
   -2.8436   -0.6640    0.1774 H   0  0  0  0  0  0  0  0  0  0  0  0
   -1.4886    1.5756   -1.0214 H   0  0  0  0  0  0  0  0  0  0  0  0
   -0.6102    2.3909    0.2934 H   0  0  0  0  0  0  0  0  0  0  0  0
   -2.2821    1.7278    0.5827 H   0  0  0  0  0  0  0  0  0  0  0  0
  1  2  1  0
  2  3  1  0
  3  4  1  0
  4  5  2  0
  5  6  1  0
  6  7  1  0
  7  8  1  0
  8  9  1  0
  8  3  1  0
  8  6  1  0
  1 10  1  0
  1 11  1  0
  1 12  1  0
  3 13  1  0
  4 14  1  0
  5 15  1  0
  6 16  1  0
  9 17  1  0
  9 18  1  0
  9 19  1  0
M  END
