
     RDKit          3D

 18 18  0  0  0  0  0  0  0  0999 V2000
    2.5026   -0.7092    0.8656 C   0  0  0  0  0  0  0  0  0  0  0  0
    1.7603    0.2426    0.1615 O   0  0  0  0  0  0  0  0  0  0  0  0
    0.4483   -0.1713   -0.0512 C   0  0  0  0  0  0  0  0  0  0  0  0
   -0.1600    0.0693   -1.4233 C   0  0  0  0  0  0  0  0  0  0  0  0
   -0.6598    0.7974   -0.1792 C   0  0  0  0  0  0  0  0  0  0  0  0
   -0.4072    2.1543   -0.2043 O   0  0  0  0  0  0  0  0  0  0  0  0
   -1.9964    0.3423    0.3869 C   0  0  0  0  0  0  0  0  0  0  0  0
   -2.0246   -1.0470    0.3099 O   0  0  0  0  0  0  0  0  0  0  0  0
    3.5228   -0.2906    0.9833 H   0  0  0  0  0  0  0  0  0  0  0  0
    2.0757   -0.9341    1.8612 H   0  0  0  0  0  0  0  0  0  0  0  0
    2.5334   -1.6701    0.3116 H   0  0  0  0  0  0  0  0  0  0  0  0
    0.2324   -1.1824    0.3780 H   0  0  0  0  0  0  0  0  0  0  0  0
    0.4950    0.5936   -2.1274 H   0  0  0  0  0  0  0  0  0  0  0  0
   -0.8626   -0.6560   -1.8407 H   0  0  0  0  0  0  0  0  0  0  0  0
    0.2879    2.3872   -0.8646 H   0  0  0  0  0  0  0  0  0  0  0  0
   -2.8256    0.8251   -0.1596 H   0  0  0  0  0  0  0  0  0  0  0  0
   -1.9752    0.5977    1.4670 H   0  0  0  0  0  0  0  0  0  0  0  0
   -2.9470   -1.3487    0.1531 H   0  0  0  0  0  0  0  0  0  0  0  0
  1  2  1  0
  2  3  1  0
  3  4  1  0
  4  5  1  0
  5  6  1  0
  5  7  1  0
  7  8  1  0
  5  3  1  0
  1  9  1  0
  1 10  1  0
  1 11  1  0
  3 12  1  0
  4 13  1  0
  4 14  1  0
  6 15  1  0
  7 16  1  0
  7 17  1  0
  8 18  1  0
M  END
