
     RDKit          3D

 19 20  0  0  0  0  0  0  0  0999 V2000
    2.9070   -0.2619    0.1538 C   0  0  0  0  0  0  0  0  0  0  0  0
    1.8033    0.1518   -0.6123 O   0  0  0  0  0  0  0  0  0  0  0  0
    0.6225    0.0467    0.0786 C   0  0  0  0  0  0  0  0  0  0  0  0
   -0.4280    1.0616   -0.1792 C   0  0  0  0  0  0  0  0  0  0  0  0
   -1.4632    1.2278    0.8787 C   0  0  0  0  0  0  0  0  0  0  0  0
   -2.2861    0.1440    0.8871 O   0  0  0  0  0  0  0  0  0  0  0  0
   -1.8385   -0.8038    0.0202 C   0  0  0  0  0  0  0  0  0  0  0  0
   -0.5937   -0.3267   -0.6482 C   0  0  0  0  0  0  0  0  0  0  0  0
   -0.4389   -0.6811   -1.9802 O   0  0  0  0  0  0  0  0  0  0  0  0
    2.6886   -1.3403    0.4073 H   0  0  0  0  0  0  0  0  0  0  0  0
    3.0542    0.3593    1.0459 H   0  0  0  0  0  0  0  0  0  0  0  0
    3.8041   -0.3024   -0.4964 H   0  0  0  0  0  0  0  0  0  0  0  0
    0.7223   -0.3428    1.1186 H   0  0  0  0  0  0  0  0  0  0  0  0
   -0.3171    1.8284   -0.9624 H   0  0  0  0  0  0  0  0  0  0  0  0
   -2.0204    2.1850    0.8010 H   0  0  0  0  0  0  0  0  0  0  0  0
   -0.9465    1.2805    1.8819 H   0  0  0  0  0  0  0  0  0  0  0  0
   -1.7180   -1.7822    0.5297 H   0  0  0  0  0  0  0  0  0  0  0  0
   -2.6225   -0.9284   -0.7802 H   0  0  0  0  0  0  0  0  0  0  0  0
   -0.9290   -1.5156   -2.1441 H   0  0  0  0  0  0  0  0  0  0  0  0
  1  2  1  0
  2  3  1  0
  3  4  1  0
  4  5  1  0
  5  6  1  0
  6  7  1  0
  7  8  1  0
  8  9  1  0
  8  3  1  0
  8  4  1  0
  1 10  1  0
  1 11  1  0
  1 12  1  0
  3 13  1  0
  4 14  1  0
  5 15  1  0
  5 16  1  0
  7 17  1  0
  7 18  1  0
  9 19  1  0
M  END
