
     RDKit          3D

 23 23  0  0  0  0  0  0  0  0999 V2000
    3.3147   -0.1333    0.1271 C   0  0  0  0  0  0  0  0  0  0  0  0
    2.2857   -0.8993    0.6615 O   0  0  0  0  0  0  0  0  0  0  0  0
    1.0895   -0.3133    0.2740 C   0  0  0  0  0  0  0  0  0  0  0  0
    0.4389    0.1778    1.5298 C   0  0  0  0  0  0  0  0  0  0  0  0
   -0.7981    0.6328    1.3804 C   0  0  0  0  0  0  0  0  0  0  0  0
   -1.3446    0.5862    0.0037 C   0  0  0  0  0  0  0  0  0  0  0  0
   -2.7716    1.0748   -0.0121 C   0  0  0  0  0  0  0  0  0  0  0  0
   -1.2215   -0.8168   -0.5393 C   0  0  0  0  0  0  0  0  0  0  0  0
    0.2094   -1.2485   -0.5072 C   0  0  0  0  0  0  0  0  0  0  0  0
    4.3182   -0.5246    0.3836 H   0  0  0  0  0  0  0  0  0  0  0  0
    3.1510   -0.1268   -0.9855 H   0  0  0  0  0  0  0  0  0  0  0  0
    3.2145    0.9232    0.4427 H   0  0  0  0  0  0  0  0  0  0  0  0
    1.3048    0.5819   -0.3399 H   0  0  0  0  0  0  0  0  0  0  0  0
    0.9301    0.1688    2.4987 H   0  0  0  0  0  0  0  0  0  0  0  0
   -1.3532    1.0071    2.2142 H   0  0  0  0  0  0  0  0  0  0  0  0
   -0.7045    1.2302   -0.6687 H   0  0  0  0  0  0  0  0  0  0  0  0
   -2.9471    1.8651   -0.7555 H   0  0  0  0  0  0  0  0  0  0  0  0
   -3.0244    1.4970    0.9849 H   0  0  0  0  0  0  0  0  0  0  0  0
   -3.5061    0.2646   -0.2039 H   0  0  0  0  0  0  0  0  0  0  0  0
   -1.8576   -1.5315    0.0265 H   0  0  0  0  0  0  0  0  0  0  0  0
   -1.6027   -0.8058   -1.5835 H   0  0  0  0  0  0  0  0  0  0  0  0
    0.2927   -2.2895   -0.1041 H   0  0  0  0  0  0  0  0  0  0  0  0
    0.5819   -1.3202   -1.5545 H   0  0  0  0  0  0  0  0  0  0  0  0
  1  2  1  0
  2  3  1  0
  3  4  1  0
  4  5  2  0
  5  6  1  0
  6  7  1  0
  6  8  1  0
  8  9  1  0
  9  3  1  0
  1 10  1  0
  1 11  1  0
  1 12  1  0
  3 13  1  0
  4 14  1  0
  5 15  1  0
  6 16  1  0
  7 17  1  0
  7 18  1  0
  7 19  1  0
  8 20  1  0
  8 21  1  0
  9 22  1  0
  9 23  1  0
M  END
