
     RDKit          3D

 21 22  0  0  0  0  0  0  0  0999 V2000
    2.8191   -0.0101    0.3701 C   0  0  0  0  0  0  0  0  0  0  0  0
    1.7141   -0.0306   -0.4943 O   0  0  0  0  0  0  0  0  0  0  0  0
    0.5254   -0.0184    0.2314 C   0  0  0  0  0  0  0  0  0  0  0  0
   -0.2245   -1.3256   -0.0933 C   0  0  0  0  0  0  0  0  0  0  0  0
   -1.2862   -1.0907   -1.1445 C   0  0  0  0  0  0  0  0  0  0  0  0
   -2.2767   -0.1841   -0.7357 O   0  0  0  0  0  0  0  0  0  0  0  0
   -1.7764    0.4926    0.3185 C   0  0  0  0  0  0  0  0  0  0  0  0
   -1.3415    1.8397    0.4780 C   0  0  0  0  0  0  0  0  0  0  0  0
   -0.4049    1.0350   -0.2164 C   0  0  0  0  0  0  0  0  0  0  0  0
    3.7702   -0.0194   -0.1886 H   0  0  0  0  0  0  0  0  0  0  0  0
    2.7068   -0.8606    1.0684 H   0  0  0  0  0  0  0  0  0  0  0  0
    2.7990    0.9733    0.9201 H   0  0  0  0  0  0  0  0  0  0  0  0
    0.7733    0.0045    1.3110 H   0  0  0  0  0  0  0  0  0  0  0  0
    0.4870   -2.0516   -0.5380 H   0  0  0  0  0  0  0  0  0  0  0  0
   -0.6186   -1.7989    0.8232 H   0  0  0  0  0  0  0  0  0  0  0  0
   -1.7233   -2.0840   -1.3624 H   0  0  0  0  0  0  0  0  0  0  0  0
   -0.7712   -0.7596   -2.0672 H   0  0  0  0  0  0  0  0  0  0  0  0
   -1.7474   -0.1526    1.2368 H   0  0  0  0  0  0  0  0  0  0  0  0
   -1.8881    2.6352   -0.1104 H   0  0  0  0  0  0  0  0  0  0  0  0
   -1.2048    2.2292    1.5304 H   0  0  0  0  0  0  0  0  0  0  0  0
   -0.3312    1.1769   -1.3370 H   0  0  0  0  0  0  0  0  0  0  0  0
  1  2  1  0
  2  3  1  0
  3  4  1  0
  4  5  1  0
  5  6  1  0
  6  7  1  0
  7  8  1  0
  8  9  1  0
  9  3  1  0
  9  7  1  0
  1 10  1  0
  1 11  1  0
  1 12  1  0
  3 13  1  0
  4 14  1  0
  4 15  1  0
  5 16  1  0
  5 17  1  0
  7 18  1  0
  8 19  1  0
  8 20  1  0
  9 21  1  0
M  END
