
     RDKit          3D

 21 22  0  0  0  0  0  0  0  0999 V2000
    2.2646    0.8590    0.6971 C   0  0  0  0  0  0  0  0  0  0  0  0
    0.8939    0.8564    0.7242 O   0  0  0  0  0  0  0  0  0  0  0  0
    0.3092   -0.0510   -0.1206 C   0  0  0  0  0  0  0  0  0  0  0  0
    0.6362   -1.4979    0.0922 C   0  0  0  0  0  0  0  0  0  0  0  0
    0.3044    0.3278   -1.5854 C   0  0  0  0  0  0  0  0  0  0  0  0
   -1.0373   -0.0426   -1.6795 O   0  0  0  0  0  0  0  0  0  0  0  0
   -1.1485    0.1143   -0.3394 C   0  0  0  0  0  0  0  0  0  0  0  0
   -2.1071   -0.5581    0.5319 C   0  0  0  0  0  0  0  0  0  0  0  0
   -2.0400    0.9953    0.3654 C   0  0  0  0  0  0  0  0  0  0  0  0
    2.7011    1.0947   -0.3003 H   0  0  0  0  0  0  0  0  0  0  0  0
    2.6000    1.6408    1.4407 H   0  0  0  0  0  0  0  0  0  0  0  0
    2.6464   -0.0998    1.1085 H   0  0  0  0  0  0  0  0  0  0  0  0
    0.3909   -2.0498   -0.8573 H   0  0  0  0  0  0  0  0  0  0  0  0
   -0.0261   -1.9461    0.8624 H   0  0  0  0  0  0  0  0  0  0  0  0
    1.6754   -1.7106    0.3185 H   0  0  0  0  0  0  0  0  0  0  0  0
    0.9409   -0.3426   -2.2306 H   0  0  0  0  0  0  0  0  0  0  0  0
    0.4564    1.3935   -1.8083 H   0  0  0  0  0  0  0  0  0  0  0  0
   -1.7093   -0.9358    1.5040 H   0  0  0  0  0  0  0  0  0  0  0  0
   -3.0376   -1.0314    0.1963 H   0  0  0  0  0  0  0  0  0  0  0  0
   -1.7986    1.5615    1.2747 H   0  0  0  0  0  0  0  0  0  0  0  0
   -2.9150    1.4224   -0.1944 H   0  0  0  0  0  0  0  0  0  0  0  0
  1  2  1  0
  2  3  1  0
  3  4  1  0
  3  5  1  0
  5  6  1  0
  6  7  1  0
  7  8  1  0
  8  9  1  0
  7  3  1  0
  9  7  1  0
  1 10  1  0
  1 11  1  0
  1 12  1  0
  4 13  1  0
  4 14  1  0
  4 15  1  0
  5 16  1  0
  5 17  1  0
  8 18  1  0
  8 19  1  0
  9 20  1  0
  9 21  1  0
M  END
