
     RDKit          3D

 23 23  0  0  0  0  0  0  0  0999 V2000
    2.3194    1.1174    0.6648 C   0  0  0  0  0  0  0  0  0  0  0  0
    1.1992    0.4713    1.2177 O   0  0  0  0  0  0  0  0  0  0  0  0
    0.5677   -0.2046    0.2126 C   0  0  0  0  0  0  0  0  0  0  0  0
    0.5008   -1.7084    0.4515 C   0  0  0  0  0  0  0  0  0  0  0  0
   -0.7252   -2.0730   -0.3400 C   0  0  0  0  0  0  0  0  0  0  0  0
   -1.5361   -0.9797   -0.4241 O   0  0  0  0  0  0  0  0  0  0  0  0
   -0.8750    0.1304    0.0273 C   0  0  0  0  0  0  0  0  0  0  0  0
   -1.5113    0.7257    1.2730 C   0  0  0  0  0  0  0  0  0  0  0  0
   -0.9810    1.2037   -1.0542 C   0  0  0  0  0  0  0  0  0  0  0  0
    3.0152    0.3526    0.2130 H   0  0  0  0  0  0  0  0  0  0  0  0
    1.9631    1.7618   -0.1471 H   0  0  0  0  0  0  0  0  0  0  0  0
    2.9110    1.6447    1.4359 H   0  0  0  0  0  0  0  0  0  0  0  0
    1.0786   -0.0836   -0.7733 H   0  0  0  0  0  0  0  0  0  0  0  0
    0.3961   -1.9042    1.5276 H   0  0  0  0  0  0  0  0  0  0  0  0
    1.4261   -2.1583    0.0618 H   0  0  0  0  0  0  0  0  0  0  0  0
   -1.2669   -2.8703    0.2147 H   0  0  0  0  0  0  0  0  0  0  0  0
   -0.3665   -2.4382   -1.3343 H   0  0  0  0  0  0  0  0  0  0  0  0
   -1.8990   -0.0625    1.9496 H   0  0  0  0  0  0  0  0  0  0  0  0
   -0.7871    1.3571    1.7919 H   0  0  0  0  0  0  0  0  0  0  0  0
   -2.3747    1.3462    0.9350 H   0  0  0  0  0  0  0  0  0  0  0  0
   -0.5217    0.8480   -1.9873 H   0  0  0  0  0  0  0  0  0  0  0  0
   -0.4510    2.1287   -0.7530 H   0  0  0  0  0  0  0  0  0  0  0  0
   -2.0819    1.3952   -1.1921 H   0  0  0  0  0  0  0  0  0  0  0  0
  1  2  1  0
  2  3  1  0
  3  4  1  0
  4  5  1  0
  5  6  1  0
  6  7  1  0
  7  8  1  0
  7  9  1  0
  7  3  1  0
  1 10  1  0
  1 11  1  0
  1 12  1  0
  3 13  1  0
  4 14  1  0
  4 15  1  0
  5 16  1  0
  5 17  1  0
  8 18  1  0
  8 19  1  0
  8 20  1  0
  9 21  1  0
  9 22  1  0
  9 23  1  0
M  END
