
     RDKit          3D

 18 18  0  0  0  0  0  0  0  0999 V2000
    2.5802    0.0739    0.5991 C   0  0  0  0  0  0  0  0  0  0  0  0
    1.4175    0.7737    0.1723 O   0  0  0  0  0  0  0  0  0  0  0  0
    0.4947   -0.1066   -0.2711 C   0  0  0  0  0  0  0  0  0  0  0  0
   -0.3952    0.1684   -1.4608 C   0  0  0  0  0  0  0  0  0  0  0  0
   -0.9904    0.1030   -0.1442 C   0  0  0  0  0  0  0  0  0  0  0  0
   -1.6235   -1.0651    0.5654 C   0  0  0  0  0  0  0  0  0  0  0  0
   -1.4384    1.4217    0.4250 C   0  0  0  0  0  0  0  0  0  0  0  0
   -2.1850    2.1161   -0.2566 O   0  0  0  0  0  0  0  0  0  0  0  0
    3.0269   -0.4325   -0.3192 H   0  0  0  0  0  0  0  0  0  0  0  0
    2.3159   -0.7440    1.2623 H   0  0  0  0  0  0  0  0  0  0  0  0
    3.3240    0.7484    1.0874 H   0  0  0  0  0  0  0  0  0  0  0  0
    0.8793   -1.1708   -0.2968 H   0  0  0  0  0  0  0  0  0  0  0  0
   -0.2307    1.1128   -2.0200 H   0  0  0  0  0  0  0  0  0  0  0  0
   -0.6446   -0.7132   -2.1530 H   0  0  0  0  0  0  0  0  0  0  0  0
   -2.6474   -1.2111    0.1163 H   0  0  0  0  0  0  0  0  0  0  0  0
   -1.6742   -0.8590    1.6265 H   0  0  0  0  0  0  0  0  0  0  0  0
   -1.0842   -2.0040    0.3863 H   0  0  0  0  0  0  0  0  0  0  0  0
   -1.1250    1.7880    1.4070 H   0  0  0  0  0  0  0  0  0  0  0  0
  1  2  1  0
  2  3  1  0
  3  4  1  0
  4  5  1  0
  5  6  1  0
  5  7  1  0
  7  8  2  0
  5  3  1  0
  1  9  1  0
  1 10  1  0
  1 11  1  0
  3 12  1  0
  4 13  1  0
  4 14  1  0
  6 15  1  0
  6 16  1  0
  6 17  1  0
  7 18  1  0
M  END
