
     RDKit          3D

 25 25  0  0  0  0  0  0  0  0999 V2000
    3.3325   -0.1300    0.2542 C   0  0  0  0  0  0  0  0  0  0  0  0
    2.3895    0.1591   -0.7604 O   0  0  0  0  0  0  0  0  0  0  0  0
    1.1476   -0.0286   -0.2186 C   0  0  0  0  0  0  0  0  0  0  0  0
    0.2512   -0.9364   -0.9976 C   0  0  0  0  0  0  0  0  0  0  0  0
   -1.1234   -0.5910   -0.4817 C   0  0  0  0  0  0  0  0  0  0  0  0
   -1.6236   -1.7584    0.3288 C   0  0  0  0  0  0  0  0  0  0  0  0
   -1.0098    0.6783    0.3021 C   0  0  0  0  0  0  0  0  0  0  0  0
   -2.0986    1.6756   -0.0162 C   0  0  0  0  0  0  0  0  0  0  0  0
    0.3077    1.2553   -0.2341 C   0  0  0  0  0  0  0  0  0  0  0  0
    3.1523    0.5705    1.1090 H   0  0  0  0  0  0  0  0  0  0  0  0
    4.3599    0.0315   -0.0858 H   0  0  0  0  0  0  0  0  0  0  0  0
    3.1270   -1.1598    0.6076 H   0  0  0  0  0  0  0  0  0  0  0  0
    1.1793   -0.3522    0.8522 H   0  0  0  0  0  0  0  0  0  0  0  0
    0.4942   -2.0115   -0.8820 H   0  0  0  0  0  0  0  0  0  0  0  0
    0.3282   -0.6178   -2.0772 H   0  0  0  0  0  0  0  0  0  0  0  0
   -1.8309   -0.4544   -1.3309 H   0  0  0  0  0  0  0  0  0  0  0  0
   -0.8271   -2.2439    0.8962 H   0  0  0  0  0  0  0  0  0  0  0  0
   -2.4751   -1.4904    0.9705 H   0  0  0  0  0  0  0  0  0  0  0  0
   -2.0232   -2.5067   -0.4160 H   0  0  0  0  0  0  0  0  0  0  0  0
   -0.8794    0.5144    1.3883 H   0  0  0  0  0  0  0  0  0  0  0  0
   -1.9741    1.9729   -1.0761 H   0  0  0  0  0  0  0  0  0  0  0  0
   -1.9028    2.5653    0.6394 H   0  0  0  0  0  0  0  0  0  0  0  0
   -3.1104    1.2639    0.1490 H   0  0  0  0  0  0  0  0  0  0  0  0
    0.7157    2.0314    0.4029 H   0  0  0  0  0  0  0  0  0  0  0  0
    0.0935    1.5629   -1.2772 H   0  0  0  0  0  0  0  0  0  0  0  0
  1  2  1  0
  2  3  1  0
  3  4  1  0
  4  5  1  0
  5  6  1  0
  5  7  1  0
  7  8  1  0
  7  9  1  0
  9  3  1  0
  1 10  1  0
  1 11  1  0
  1 12  1  0
  3 13  1  0
  4 14  1  0
  4 15  1  0
  5 16  1  0
  6 17  1  0
  6 18  1  0
  6 19  1  0
  7 20  1  0
  8 21  1  0
  8 22  1  0
  8 23  1  0
  9 24  1  0
  9 25  1  0
M  END
