
     RDKit          3D

 15 15  0  0  0  0  0  0  0  0999 V2000
    2.4200   -0.1594    0.0509 C   0  0  0  0  0  0  0  0  0  0  0  0
    1.2677   -0.5037    0.7852 O   0  0  0  0  0  0  0  0  0  0  0  0
    0.1948    0.1053    0.1780 C   0  0  0  0  0  0  0  0  0  0  0  0
   -0.8664   -0.8934   -0.2697 C   0  0  0  0  0  0  0  0  0  0  0  0
   -2.0634   -0.0289   -0.3333 C   0  0  0  0  0  0  0  0  0  0  0  0
   -3.0953   -0.2166   -1.0037 O   0  0  0  0  0  0  0  0  0  0  0  0
   -1.7895    1.0909    0.5506 C   0  0  0  0  0  0  0  0  0  0  0  0
   -2.5736    2.0640    0.7688 O   0  0  0  0  0  0  0  0  0  0  0  0
   -0.5096    0.9126    1.1220 O   0  0  0  0  0  0  0  0  0  0  0  0
    3.3273   -0.6221    0.4919 H   0  0  0  0  0  0  0  0  0  0  0  0
    2.2931   -0.4176   -1.0293 H   0  0  0  0  0  0  0  0  0  0  0  0
    2.4863    0.9530    0.0978 H   0  0  0  0  0  0  0  0  0  0  0  0
    0.4778    0.7055   -0.7185 H   0  0  0  0  0  0  0  0  0  0  0  0
   -0.6069   -1.3577   -1.2376 H   0  0  0  0  0  0  0  0  0  0  0  0
   -0.9622   -1.6318    0.5468 H   0  0  0  0  0  0  0  0  0  0  0  0
  1  2  1  0
  2  3  1  0
  3  4  1  0
  4  5  1  0
  5  6  2  0
  5  7  1  0
  7  8  2  0
  7  9  1  0
  9  3  1  0
  1 10  1  0
  1 11  1  0
  1 12  1  0
  3 13  1  0
  4 14  1  0
  4 15  1  0
M  END
