
     RDKit          3D

 18 19  0  0  0  0  0  0  0  0999 V2000
    2.7263   -0.7212    0.3185 C   0  0  0  0  0  0  0  0  0  0  0  0
    1.8081    0.1346   -0.2754 O   0  0  0  0  0  0  0  0  0  0  0  0
    0.5557   -0.1163    0.2548 C   0  0  0  0  0  0  0  0  0  0  0  0
   -0.4127    1.0123    0.4434 C   0  0  0  0  0  0  0  0  0  0  0  0
   -0.9546    1.7910   -0.6892 C   0  0  0  0  0  0  0  0  0  0  0  0
   -0.6612    0.8084   -1.6297 O   0  0  0  0  0  0  0  0  0  0  0  0
   -0.6515   -0.1038   -0.5978 C   0  0  0  0  0  0  0  0  0  0  0  0
   -1.8302   -0.9820   -0.3432 C   0  0  0  0  0  0  0  0  0  0  0  0
    3.7440   -0.5582   -0.0737 H   0  0  0  0  0  0  0  0  0  0  0  0
    2.6683   -0.5277    1.4220 H   0  0  0  0  0  0  0  0  0  0  0  0
    2.4057   -1.7807    0.1925 H   0  0  0  0  0  0  0  0  0  0  0  0
    0.5555   -0.9228    1.0171 H   0  0  0  0  0  0  0  0  0  0  0  0
   -1.0065    0.9598    1.3774 H   0  0  0  0  0  0  0  0  0  0  0  0
   -0.5569    2.7846   -0.8890 H   0  0  0  0  0  0  0  0  0  0  0  0
   -2.0784    1.8646   -0.6082 H   0  0  0  0  0  0  0  0  0  0  0  0
   -2.7476   -0.4060   -0.1551 H   0  0  0  0  0  0  0  0  0  0  0  0
   -1.6281   -1.5845    0.5690 H   0  0  0  0  0  0  0  0  0  0  0  0
   -1.9359   -1.6522   -1.2457 H   0  0  0  0  0  0  0  0  0  0  0  0
  1  2  1  0
  2  3  1  0
  3  4  1  0
  4  5  1  0
  5  6  1  0
  6  7  1  0
  7  8  1  0
  7  3  1  0
  7  4  1  0
  1  9  1  0
  1 10  1  0
  1 11  1  0
  3 12  1  0
  4 13  1  0
  5 14  1  0
  5 15  1  0
  8 16  1  0
  8 17  1  0
  8 18  1  0
M  END
