
     RDKit          3D

 19 19  0  0  0  0  0  0  0  0999 V2000
    2.1313   -0.7578   -0.6244 C   0  0  0  0  0  0  0  0  0  0  0  0
    1.1711    0.0871   -1.1599 O   0  0  0  0  0  0  0  0  0  0  0  0
    0.1796    0.3872   -0.2382 C   0  0  0  0  0  0  0  0  0  0  0  0
    0.6659    1.0672    0.9785 C   0  0  0  0  0  0  0  0  0  0  0  0
   -0.1647    1.3586    1.8459 O   0  0  0  0  0  0  0  0  0  0  0  0
   -0.9401    1.1241   -0.9442 C   0  0  0  0  0  0  0  0  0  0  0  0
   -1.9005    0.3249   -0.0905 C   0  0  0  0  0  0  0  0  0  0  0  0
   -0.8038   -0.7104    0.0435 C   0  0  0  0  0  0  0  0  0  0  0  0
   -0.7114   -1.3212    1.2728 O   0  0  0  0  0  0  0  0  0  0  0  0
    1.6233   -1.7082   -0.3091 H   0  0  0  0  0  0  0  0  0  0  0  0
    2.5819   -0.3273    0.2711 H   0  0  0  0  0  0  0  0  0  0  0  0
    2.9189   -0.9625   -1.3756 H   0  0  0  0  0  0  0  0  0  0  0  0
    1.6997    1.2987    1.1034 H   0  0  0  0  0  0  0  0  0  0  0  0
   -0.9276    2.2140   -0.7180 H   0  0  0  0  0  0  0  0  0  0  0  0
   -1.0590    0.8584   -2.0003 H   0  0  0  0  0  0  0  0  0  0  0  0
   -2.7764   -0.0481   -0.6914 H   0  0  0  0  0  0  0  0  0  0  0  0
   -2.2074    0.8158    0.8634 H   0  0  0  0  0  0  0  0  0  0  0  0
   -0.8578   -1.4000   -0.8340 H   0  0  0  0  0  0  0  0  0  0  0  0
   -0.6231   -2.3005    1.1132 H   0  0  0  0  0  0  0  0  0  0  0  0
  1  2  1  0
  2  3  1  0
  3  4  1  0
  4  5  2  0
  3  6  1  0
  6  7  1  0
  7  8  1  0
  8  9  1  0
  8  3  1  0
  1 10  1  0
  1 11  1  0
  1 12  1  0
  4 13  1  0
  6 14  1  0
  6 15  1  0
  7 16  1  0
  7 17  1  0
  8 18  1  0
  9 19  1  0
M  END
