
     RDKit          3D

 21 22  0  0  0  0  0  0  0  0999 V2000
    3.5660   -0.0728    0.2775 C   0  0  0  0  0  0  0  0  0  0  0  0
    2.3181    0.4193    0.5891 O   0  0  0  0  0  0  0  0  0  0  0  0
    1.2742   -0.2779    0.0305 C   0  0  0  0  0  0  0  0  0  0  0  0
    0.1900    0.6288   -0.4706 C   0  0  0  0  0  0  0  0  0  0  0  0
   -0.9159   -0.0403   -1.2253 C   0  0  0  0  0  0  0  0  0  0  0  0
   -1.3040   -0.7027    0.0863 C   0  0  0  0  0  0  0  0  0  0  0  0
   -2.4672    0.0949    0.6907 C   0  0  0  0  0  0  0  0  0  0  0  0
   -3.5650    0.1103   -0.1599 O   0  0  0  0  0  0  0  0  0  0  0  0
   -0.0188   -0.3504    0.7342 C   0  0  0  0  0  0  0  0  0  0  0  0
    4.3128    0.5775    0.7891 H   0  0  0  0  0  0  0  0  0  0  0  0
    3.6467   -1.1307    0.5738 H   0  0  0  0  0  0  0  0  0  0  0  0
    3.7285    0.0809   -0.8166 H   0  0  0  0  0  0  0  0  0  0  0  0
    1.5190   -1.1604   -0.6113 H   0  0  0  0  0  0  0  0  0  0  0  0
    0.1682    1.6878   -0.2195 H   0  0  0  0  0  0  0  0  0  0  0  0
   -1.6272    0.6988   -1.6125 H   0  0  0  0  0  0  0  0  0  0  0  0
   -0.5153   -0.7303   -1.9890 H   0  0  0  0  0  0  0  0  0  0  0  0
   -1.5807   -1.7616    0.0169 H   0  0  0  0  0  0  0  0  0  0  0  0
   -2.1378    1.1446    0.8528 H   0  0  0  0  0  0  0  0  0  0  0  0
   -2.7788   -0.3267    1.6460 H   0  0  0  0  0  0  0  0  0  0  0  0
   -3.7312    1.0128   -0.5080 H   0  0  0  0  0  0  0  0  0  0  0  0
   -0.0816    0.0981    1.7243 H   0  0  0  0  0  0  0  0  0  0  0  0
  1  2  1  0
  2  3  1  0
  3  4  1  0
  4  5  1  0
  5  6  1  0
  6  7  1  0
  7  8  1  0
  6  9  1  0
  9  3  1  0
  9  4  1  0
  1 10  1  0
  1 11  1  0
  1 12  1  0
  3 13  1  0
  4 14  1  0
  5 15  1  0
  5 16  1  0
  6 17  1  0
  7 18  1  0
  7 19  1  0
  8 20  1  0
  9 21  1  0
M  END
