
     RDKit          3D

 18 19  0  0  0  0  0  0  0  0999 V2000
    2.5543    0.2925    0.2379 C   0  0  0  0  0  0  0  0  0  0  0  0
    1.3406    0.6216   -0.3188 O   0  0  0  0  0  0  0  0  0  0  0  0
    0.2632   -0.0304    0.1239 C   0  0  0  0  0  0  0  0  0  0  0  0
   -0.4548   -0.8755   -0.9368 C   0  0  0  0  0  0  0  0  0  0  0  0
   -1.7928   -0.9004   -0.2753 C   0  0  0  0  0  0  0  0  0  0  0  0
   -2.8802   -0.2044   -0.4087 O   0  0  0  0  0  0  0  0  0  0  0  0
   -1.9144    0.6584   -0.2842 C   0  0  0  0  0  0  0  0  0  0  0  0
   -0.8342    0.8693    0.7143 C   0  0  0  0  0  0  0  0  0  0  0  0
    2.7045   -0.8071    0.0165 H   0  0  0  0  0  0  0  0  0  0  0  0
    2.5811    0.3861    1.3427 H   0  0  0  0  0  0  0  0  0  0  0  0
    3.4135    0.7950   -0.2227 H   0  0  0  0  0  0  0  0  0  0  0  0
    0.5717   -0.7654    0.9116 H   0  0  0  0  0  0  0  0  0  0  0  0
   -0.0366   -1.8913   -0.9919 H   0  0  0  0  0  0  0  0  0  0  0  0
   -0.5353   -0.3496   -1.8884 H   0  0  0  0  0  0  0  0  0  0  0  0
   -1.6910   -1.3630    0.7570 H   0  0  0  0  0  0  0  0  0  0  0  0
   -1.6484    1.1621   -1.2641 H   0  0  0  0  0  0  0  0  0  0  0  0
   -1.1238    0.4873    1.7147 H   0  0  0  0  0  0  0  0  0  0  0  0
   -0.5175    1.9150    0.7654 H   0  0  0  0  0  0  0  0  0  0  0  0
  1  2  1  0
  2  3  1  0
  3  4  1  0
  4  5  1  0
  5  6  1  0
  6  7  1  0
  7  8  1  0
  8  3  1  0
  7  5  1  0
  1  9  1  0
  1 10  1  0
  1 11  1  0
  3 12  1  0
  4 13  1  0
  4 14  1  0
  5 15  1  0
  7 16  1  0
  8 17  1  0
  8 18  1  0
M  END
