
     RDKit          3D

 21 21  0  0  0  0  0  0  0  0999 V2000
   -1.3451    1.4852    1.1002 C   0  0  0  0  0  0  0  0  0  0  0  0
   -0.3118    0.6156    1.2747 O   0  0  0  0  0  0  0  0  0  0  0  0
   -0.1268   -0.3500    0.3153 C   0  0  0  0  0  0  0  0  0  0  0  0
   -1.3604   -1.1868    0.2043 C   0  0  0  0  0  0  0  0  0  0  0  0
   -1.2520   -2.1960   -0.7490 O   0  0  0  0  0  0  0  0  0  0  0  0
    0.2825    0.3058   -0.9747 C   0  0  0  0  0  0  0  0  0  0  0  0
    1.7397    0.6581   -0.6281 C   0  0  0  0  0  0  0  0  0  0  0  0
    2.1010   -0.6032    0.1293 C   0  0  0  0  0  0  0  0  0  0  0  0
    0.9773   -1.0973    0.7301 O   0  0  0  0  0  0  0  0  0  0  0  0
   -1.3217    2.1005    0.1823 H   0  0  0  0  0  0  0  0  0  0  0  0
   -2.3617    1.0588    1.2099 H   0  0  0  0  0  0  0  0  0  0  0  0
   -1.2718    2.2162    1.9648 H   0  0  0  0  0  0  0  0  0  0  0  0
   -1.5112   -1.6892    1.1825 H   0  0  0  0  0  0  0  0  0  0  0  0
   -2.2710   -0.5814    0.0266 H   0  0  0  0  0  0  0  0  0  0  0  0
   -1.5588   -1.9405   -1.6381 H   0  0  0  0  0  0  0  0  0  0  0  0
   -0.2981    1.1665   -1.2796 H   0  0  0  0  0  0  0  0  0  0  0  0
    0.3919   -0.4554   -1.8050 H   0  0  0  0  0  0  0  0  0  0  0  0
    1.7760    1.4942    0.0962 H   0  0  0  0  0  0  0  0  0  0  0  0
    2.3377    0.8167   -1.5272 H   0  0  0  0  0  0  0  0  0  0  0  0
    2.4303   -1.3717   -0.6302 H   0  0  0  0  0  0  0  0  0  0  0  0
    2.9542   -0.4460    0.8155 H   0  0  0  0  0  0  0  0  0  0  0  0
  1  2  1  0
  2  3  1  0
  3  4  1  0
  4  5  1  0
  3  6  1  0
  6  7  1  0
  7  8  1  0
  8  9  1  0
  9  3  1  0
  1 10  1  0
  1 11  1  0
  1 12  1  0
  4 13  1  0
  4 14  1  0
  5 15  1  0
  6 16  1  0
  6 17  1  0
  7 18  1  0
  7 19  1  0
  8 20  1  0
  8 21  1  0
M  END
