
     RDKit          3D

 19 20  0  0  0  0  0  0  0  0999 V2000
    3.0331   -0.0202   -0.1469 C   0  0  0  0  0  0  0  0  0  0  0  0
    1.9201   -0.3467    0.6338 O   0  0  0  0  0  0  0  0  0  0  0  0
    0.7810    0.2405    0.0847 C   0  0  0  0  0  0  0  0  0  0  0  0
    0.0945    1.0705    1.2127 C   0  0  0  0  0  0  0  0  0  0  0  0
   -1.2295    0.5651    0.6784 C   0  0  0  0  0  0  0  0  0  0  0  0
   -2.4840    0.3460    0.3341 C   0  0  0  0  0  0  0  0  0  0  0  0
   -2.4788   -0.9361   -0.4706 C   0  0  0  0  0  0  0  0  0  0  0  0
   -1.1287   -0.9578   -0.9550 O   0  0  0  0  0  0  0  0  0  0  0  0
   -0.4342   -0.6171    0.1680 C   0  0  0  0  0  0  0  0  0  0  0  0
    2.8443   -0.4181   -1.1875 H   0  0  0  0  0  0  0  0  0  0  0  0
    3.9451   -0.5347    0.2095 H   0  0  0  0  0  0  0  0  0  0  0  0
    3.2085    1.0557   -0.1373 H   0  0  0  0  0  0  0  0  0  0  0  0
    0.9302    0.8335   -0.8236 H   0  0  0  0  0  0  0  0  0  0  0  0
    0.2738    0.6617    2.2146 H   0  0  0  0  0  0  0  0  0  0  0  0
    0.2149    2.1440    1.0824 H   0  0  0  0  0  0  0  0  0  0  0  0
   -3.3416    0.9575    0.5771 H   0  0  0  0  0  0  0  0  0  0  0  0
   -2.6910   -1.8022    0.1648 H   0  0  0  0  0  0  0  0  0  0  0  0
   -3.1459   -0.8195   -1.3269 H   0  0  0  0  0  0  0  0  0  0  0  0
   -0.3119   -1.4221    0.9255 H   0  0  0  0  0  0  0  0  0  0  0  0
  1  2  1  0
  2  3  1  0
  3  4  1  0
  4  5  1  0
  5  6  2  0
  6  7  1  0
  7  8  1  0
  8  9  1  0
  9  3  1  0
  9  5  1  0
  1 10  1  0
  1 11  1  0
  1 12  1  0
  3 13  1  0
  4 14  1  0
  4 15  1  0
  6 16  1  0
  7 17  1  0
  7 18  1  0
  9 19  1  0
M  END
