
     RDKit          3D

 16 18  0  0  0  0  0  0  0  0999 V2000
    2.2769   -0.1631   -0.0092 C   0  0  0  0  0  0  0  0  0  0  0  0
    1.1025   -0.6711   -0.6112 O   0  0  0  0  0  0  0  0  0  0  0  0
    0.0444   -0.1211    0.0617 C   0  0  0  0  0  0  0  0  0  0  0  0
   -0.2164    1.3163    0.1577 C   0  0  0  0  0  0  0  0  0  0  0  0
   -1.0634    0.5342   -0.7782 C   0  0  0  0  0  0  0  0  0  0  0  0
   -2.0104   -0.4958   -0.1638 C   0  0  0  0  0  0  0  0  0  0  0  0
   -2.1202   -0.4484    1.2125 O   0  0  0  0  0  0  0  0  0  0  0  0
   -1.0256   -1.0362    0.6165 C   0  0  0  0  0  0  0  0  0  0  0  0
    3.1152   -0.6170   -0.5642 H   0  0  0  0  0  0  0  0  0  0  0  0
    2.2250    0.9380   -0.1024 H   0  0  0  0  0  0  0  0  0  0  0  0
    2.2954   -0.4899    1.0715 H   0  0  0  0  0  0  0  0  0  0  0  0
   -0.6517    1.6932    1.0975 H   0  0  0  0  0  0  0  0  0  0  0  0
    0.5021    2.0197   -0.3063 H   0  0  0  0  0  0  0  0  0  0  0  0
   -0.9521    0.5710   -1.8615 H   0  0  0  0  0  0  0  0  0  0  0  0
   -2.7458   -0.9965   -0.7895 H   0  0  0  0  0  0  0  0  0  0  0  0
   -0.7759   -2.0333    0.9689 H   0  0  0  0  0  0  0  0  0  0  0  0
  1  2  1  0
  2  3  1  0
  3  4  1  0
  4  5  1  0
  5  6  1  0
  6  7  1  0
  7  8  1  0
  5  3  1  0
  8  6  1  0
  8  3  1  0
  1  9  1  0
  1 10  1  0
  1 11  1  0
  4 12  1  0
  4 13  1  0
  5 14  1  0
  6 15  1  0
  8 16  1  0
M  END
