
     RDKit          3D

 19 20  0  0  0  0  0  0  0  0999 V2000
   -2.8239   -0.2291    0.1748 C   0  0  0  0  0  0  0  0  0  0  0  0
   -1.7786    0.6849    0.2857 O   0  0  0  0  0  0  0  0  0  0  0  0
   -0.5924    0.0708    0.0066 C   0  0  0  0  0  0  0  0  0  0  0  0
    0.4864    0.1672    1.0609 C   0  0  0  0  0  0  0  0  0  0  0  0
    0.2905    1.3188    1.8296 O   0  0  0  0  0  0  0  0  0  0  0  0
    1.4470    0.3815   -0.0837 C   0  0  0  0  0  0  0  0  0  0  0  0
    2.3321   -0.6967   -0.5675 C   0  0  0  0  0  0  0  0  0  0  0  0
    1.2861    1.5782   -0.7391 O   0  0  0  0  0  0  0  0  0  0  0  0
    0.2915    0.7033   -1.0159 C   0  0  0  0  0  0  0  0  0  0  0  0
   -3.8126    0.2128    0.3904 H   0  0  0  0  0  0  0  0  0  0  0  0
   -2.6741   -1.0626    0.9128 H   0  0  0  0  0  0  0  0  0  0  0  0
   -2.8861   -0.6794   -0.8354 H   0  0  0  0  0  0  0  0  0  0  0  0
   -0.7385   -1.0011   -0.2405 H   0  0  0  0  0  0  0  0  0  0  0  0
    0.6889   -0.7438    1.6257 H   0  0  0  0  0  0  0  0  0  0  0  0
    0.5951    2.1340    1.3383 H   0  0  0  0  0  0  0  0  0  0  0  0
    2.0663   -1.6410   -0.0090 H   0  0  0  0  0  0  0  0  0  0  0  0
    3.4052   -0.5202   -0.4640 H   0  0  0  0  0  0  0  0  0  0  0  0
    2.1595   -0.9676   -1.6483 H   0  0  0  0  0  0  0  0  0  0  0  0
    0.2574    0.2900   -2.0214 H   0  0  0  0  0  0  0  0  0  0  0  0
  1  2  1  0
  2  3  1  0
  3  4  1  0
  4  5  1  0
  4  6  1  0
  6  7  1  0
  6  8  1  0
  8  9  1  0
  9  3  1  0
  9  6  1  0
  1 10  1  0
  1 11  1  0
  1 12  1  0
  3 13  1  0
  4 14  1  0
  5 15  1  0
  7 16  1  0
  7 17  1  0
  7 18  1  0
  9 19  1  0
M  END
