
     RDKit          3D

 21 22  0  0  0  0  0  0  0  0999 V2000
    2.7304    0.8168    0.2031 C   0  0  0  0  0  0  0  0  0  0  0  0
    1.3481    0.9273    0.3663 O   0  0  0  0  0  0  0  0  0  0  0  0
    0.7059   -0.2567    0.0133 C   0  0  0  0  0  0  0  0  0  0  0  0
   -0.1594   -0.7492    1.1793 C   0  0  0  0  0  0  0  0  0  0  0  0
   -1.5761   -0.6776    0.6593 C   0  0  0  0  0  0  0  0  0  0  0  0
   -1.8964    0.7462    0.4744 C   0  0  0  0  0  0  0  0  0  0  0  0
   -1.1335    1.2044   -0.5089 C   0  0  0  0  0  0  0  0  0  0  0  0
   -0.3146    0.0724   -1.0364 C   0  0  0  0  0  0  0  0  0  0  0  0
   -1.3157   -1.0770   -0.8088 C   0  0  0  0  0  0  0  0  0  0  0  0
    3.0616   -0.0111    0.8658 H   0  0  0  0  0  0  0  0  0  0  0  0
    3.1720    1.7691    0.5099 H   0  0  0  0  0  0  0  0  0  0  0  0
    2.9352    0.5818   -0.8589 H   0  0  0  0  0  0  0  0  0  0  0  0
    1.4053   -1.0453   -0.3236 H   0  0  0  0  0  0  0  0  0  0  0  0
   -0.0950   -0.0076    2.0201 H   0  0  0  0  0  0  0  0  0  0  0  0
    0.1364   -1.7402    1.5268 H   0  0  0  0  0  0  0  0  0  0  0  0
   -2.2950   -1.2889    1.1515 H   0  0  0  0  0  0  0  0  0  0  0  0
   -2.6114    1.3405    1.0173 H   0  0  0  0  0  0  0  0  0  0  0  0
   -1.0962    2.2161   -0.8787 H   0  0  0  0  0  0  0  0  0  0  0  0
    0.0236    0.1651   -2.0400 H   0  0  0  0  0  0  0  0  0  0  0  0
   -0.8226   -2.0468   -0.8812 H   0  0  0  0  0  0  0  0  0  0  0  0
   -2.2026   -0.9393   -1.4232 H   0  0  0  0  0  0  0  0  0  0  0  0
  1  2  1  0
  2  3  1  0
  3  4  1  0
  4  5  1  0
  5  6  1  0
  6  7  2  0
  7  8  1  0
  8  9  1  0
  8  3  1  0
  9  5  1  0
  1 10  1  0
  1 11  1  0
  1 12  1  0
  3 13  1  0
  4 14  1  0
  4 15  1  0
  5 16  1  0
  6 17  1  0
  7 18  1  0
  8 19  1  0
  9 20  1  0
  9 21  1  0
M  END
