
     RDKit          3D

 18 18  0  0  0  0  0  0  0  0999 V2000
    2.5558   -0.1486   -0.1549 C   0  0  0  0  0  0  0  0  0  0  0  0
    1.3315    0.0710    0.4710 O   0  0  0  0  0  0  0  0  0  0  0  0
    0.2556   -0.3078   -0.3145 C   0  0  0  0  0  0  0  0  0  0  0  0
   -1.0269    0.5581   -0.2214 C   0  0  0  0  0  0  0  0  0  0  0  0
   -0.7977    1.8747    0.4287 C   0  0  0  0  0  0  0  0  0  0  0  0
   -0.9731   -0.7265    0.4726 C   0  0  0  0  0  0  0  0  0  0  0  0
   -1.7483   -1.8770   -0.0765 C   0  0  0  0  0  0  0  0  0  0  0  0
   -2.2259   -2.7567    0.6039 O   0  0  0  0  0  0  0  0  0  0  0  0
    2.7008   -1.2215   -0.4002 H   0  0  0  0  0  0  0  0  0  0  0  0
    2.6542    0.5060   -1.0361 H   0  0  0  0  0  0  0  0  0  0  0  0
    3.3339    0.2050    0.5827 H   0  0  0  0  0  0  0  0  0  0  0  0
    0.4449   -0.7243   -1.3047 H   0  0  0  0  0  0  0  0  0  0  0  0
   -1.6616    0.5940   -1.1433 H   0  0  0  0  0  0  0  0  0  0  0  0
   -0.0234    1.7413    1.2169 H   0  0  0  0  0  0  0  0  0  0  0  0
   -0.3386    2.5550   -0.3481 H   0  0  0  0  0  0  0  0  0  0  0  0
   -1.6864    2.3823    0.8002 H   0  0  0  0  0  0  0  0  0  0  0  0
   -0.8869   -0.7750    1.5870 H   0  0  0  0  0  0  0  0  0  0  0  0
   -1.9076   -1.9502   -1.1633 H   0  0  0  0  0  0  0  0  0  0  0  0
  1  2  1  0
  2  3  1  0
  3  4  1  0
  4  5  1  0
  4  6  1  0
  6  7  1  0
  7  8  2  0
  6  3  1  0
  1  9  1  0
  1 10  1  0
  1 11  1  0
  3 12  1  0
  4 13  1  0
  5 14  1  0
  5 15  1  0
  5 16  1  0
  6 17  1  0
  7 18  1  0
M  END
