
     RDKit          3D

 19 20  0  0  0  0  0  0  0  0999 V2000
    2.4137   -0.9562    0.1897 C   0  0  0  0  0  0  0  0  0  0  0  0
    1.4337   -0.3242   -0.5572 O   0  0  0  0  0  0  0  0  0  0  0  0
    0.5186    0.3672    0.2432 C   0  0  0  0  0  0  0  0  0  0  0  0
    0.3068    1.7526   -0.3439 C   0  0  0  0  0  0  0  0  0  0  0  0
   -0.7496    1.2575   -1.1460 O   0  0  0  0  0  0  0  0  0  0  0  0
   -0.8631    0.2405   -0.2707 C   0  0  0  0  0  0  0  0  0  0  0  0
   -1.9901    0.1702    0.6675 C   0  0  0  0  0  0  0  0  0  0  0  0
   -1.9148   -1.2393    0.5947 O   0  0  0  0  0  0  0  0  0  0  0  0
   -1.3653   -1.0765   -0.6952 C   0  0  0  0  0  0  0  0  0  0  0  0
    2.9549   -0.1992    0.7619 H   0  0  0  0  0  0  0  0  0  0  0  0
    1.9701   -1.7663    0.7974 H   0  0  0  0  0  0  0  0  0  0  0  0
    3.1152   -1.4267   -0.5122 H   0  0  0  0  0  0  0  0  0  0  0  0
    0.6866    0.3230    1.3172 H   0  0  0  0  0  0  0  0  0  0  0  0
   -0.1068    2.4987    0.3827 H   0  0  0  0  0  0  0  0  0  0  0  0
    1.1710    2.1342   -0.9398 H   0  0  0  0  0  0  0  0  0  0  0  0
   -1.8668    0.5804    1.6790 H   0  0  0  0  0  0  0  0  0  0  0  0
   -2.9640    0.4738    0.2211 H   0  0  0  0  0  0  0  0  0  0  0  0
   -2.1610   -0.9793   -1.4727 H   0  0  0  0  0  0  0  0  0  0  0  0
   -0.5891   -1.8305   -0.9166 H   0  0  0  0  0  0  0  0  0  0  0  0
  1  2  1  0
  2  3  1  0
  3  4  1  0
  4  5  1  0
  5  6  1  0
  6  7  1  0
  7  8  1  0
  8  9  1  0
  6  3  1  0
  9  6  1  0
  1 10  1  0
  1 11  1  0
  1 12  1  0
  3 13  1  0
  4 14  1  0
  4 15  1  0
  7 16  1  0
  7 17  1  0
  9 18  1  0
  9 19  1  0
M  END
