
     RDKit          3D

 21 22  0  0  0  0  0  0  0  0999 V2000
    1.9061   -0.2563   -1.5213 C   0  0  0  0  0  0  0  0  0  0  0  0
    0.9744   -0.7341   -0.5992 O   0  0  0  0  0  0  0  0  0  0  0  0
    0.9161    0.1215    0.4735 C   0  0  0  0  0  0  0  0  0  0  0  0
    1.2226   -0.7112    1.7332 C   0  0  0  0  0  0  0  0  0  0  0  0
   -0.1399   -1.0930    1.6648 O   0  0  0  0  0  0  0  0  0  0  0  0
   -0.3585    0.2313    1.2182 C   0  0  0  0  0  0  0  0  0  0  0  0
   -1.6170    0.4637    0.4845 C   0  0  0  0  0  0  0  0  0  0  0  0
   -2.1288   -0.4666   -0.5368 C   0  0  0  0  0  0  0  0  0  0  0  0
   -1.6323    0.9270   -0.9542 C   0  0  0  0  0  0  0  0  0  0  0  0
    1.6421    0.7459   -1.8934 H   0  0  0  0  0  0  0  0  0  0  0  0
    2.9358   -0.2561   -1.1049 H   0  0  0  0  0  0  0  0  0  0  0  0
    1.9350   -0.9342   -2.4226 H   0  0  0  0  0  0  0  0  0  0  0  0
    1.5802    1.0082    0.4392 H   0  0  0  0  0  0  0  0  0  0  0  0
    1.3770   -0.0856    2.6366 H   0  0  0  0  0  0  0  0  0  0  0  0
    1.9331   -1.5202    1.5728 H   0  0  0  0  0  0  0  0  0  0  0  0
   -0.2280    0.8954    2.1097 H   0  0  0  0  0  0  0  0  0  0  0  0
   -2.4243    0.9583    1.1044 H   0  0  0  0  0  0  0  0  0  0  0  0
   -1.5434   -1.3285   -0.9132 H   0  0  0  0  0  0  0  0  0  0  0  0
   -3.2225   -0.6002   -0.6668 H   0  0  0  0  0  0  0  0  0  0  0  0
   -2.4064    1.6669   -1.2783 H   0  0  0  0  0  0  0  0  0  0  0  0
   -0.7215    0.9677   -1.5462 H   0  0  0  0  0  0  0  0  0  0  0  0
  1  2  1  0
  2  3  1  0
  3  4  1  0
  4  5  1  0
  5  6  1  0
  6  7  1  0
  7  8  1  0
  8  9  1  0
  6  3  1  0
  9  7  1  0
  1 10  1  0
  1 11  1  0
  1 12  1  0
  3 13  1  0
  4 14  1  0
  4 15  1  0
  6 16  1  0
  7 17  1  0
  8 18  1  0
  8 19  1  0
  9 20  1  0
  9 21  1  0
M  END
