
     RDKit          3D

 18 19  0  0  0  0  0  0  0  0999 V2000
   -2.2423    0.4808    0.8534 C   0  0  0  0  0  0  0  0  0  0  0  0
   -1.2667    1.0587    0.0601 O   0  0  0  0  0  0  0  0  0  0  0  0
   -0.2183    0.2105   -0.2389 C   0  0  0  0  0  0  0  0  0  0  0  0
   -0.4684   -1.0777   -0.9816 C   0  0  0  0  0  0  0  0  0  0  0  0
    0.2089   -1.7524    0.0192 O   0  0  0  0  0  0  0  0  0  0  0  0
    0.4492   -0.6301    0.7600 C   0  0  0  0  0  0  0  0  0  0  0  0
    1.1277    0.5630    0.2151 C   0  0  0  0  0  0  0  0  0  0  0  0
    2.2912    0.4384   -0.7336 C   0  0  0  0  0  0  0  0  0  0  0  0
   -3.0216    1.2555    1.0214 H   0  0  0  0  0  0  0  0  0  0  0  0
   -2.7062   -0.3784    0.3777 H   0  0  0  0  0  0  0  0  0  0  0  0
   -1.7578    0.2407    1.8320 H   0  0  0  0  0  0  0  0  0  0  0  0
   -1.5521   -1.2783   -1.0454 H   0  0  0  0  0  0  0  0  0  0  0  0
    0.0519   -1.1891   -1.9409 H   0  0  0  0  0  0  0  0  0  0  0  0
    0.1846   -0.6633    1.8223 H   0  0  0  0  0  0  0  0  0  0  0  0
    1.1987    1.4267    0.9142 H   0  0  0  0  0  0  0  0  0  0  0  0
    1.9358   -0.0447   -1.6633 H   0  0  0  0  0  0  0  0  0  0  0  0
    2.6391    1.4578   -0.9692 H   0  0  0  0  0  0  0  0  0  0  0  0
    3.1463   -0.1180   -0.3023 H   0  0  0  0  0  0  0  0  0  0  0  0
  1  2  1  0
  2  3  1  0
  3  4  1  0
  4  5  1  0
  5  6  1  0
  6  7  1  0
  7  8  1  0
  6  3  1  0
  7  3  1  0
  1  9  1  0
  1 10  1  0
  1 11  1  0
  4 12  1  0
  4 13  1  0
  6 14  1  0
  7 15  1  0
  8 16  1  0
  8 17  1  0
  8 18  1  0
M  END
