
     RDKit          3D

 20 20  0  0  0  0  0  0  0  0999 V2000
    2.8129    0.8735    0.4343 C   0  0  0  0  0  0  0  0  0  0  0  0
    1.7581    0.1005    0.8697 O   0  0  0  0  0  0  0  0  0  0  0  0
    0.6926    0.0845   -0.0140 C   0  0  0  0  0  0  0  0  0  0  0  0
    0.2543   -1.3025   -0.3880 C   0  0  0  0  0  0  0  0  0  0  0  0
   -1.0787   -1.1423   -0.7335 O   0  0  0  0  0  0  0  0  0  0  0  0
   -1.6289   -0.1922    0.0838 C   0  0  0  0  0  0  0  0  0  0  0  0
   -2.4438    0.8004   -0.7327 C   0  0  0  0  0  0  0  0  0  0  0  0
   -0.5248    0.5776    0.7417 C   0  0  0  0  0  0  0  0  0  0  0  0
    3.6066    0.8129    1.2181 H   0  0  0  0  0  0  0  0  0  0  0  0
    3.2788    0.4999   -0.4986 H   0  0  0  0  0  0  0  0  0  0  0  0
    2.5532    1.9588    0.3662 H   0  0  0  0  0  0  0  0  0  0  0  0
    0.8733    0.6950   -0.9159 H   0  0  0  0  0  0  0  0  0  0  0  0
    0.3629   -1.9931    0.4731 H   0  0  0  0  0  0  0  0  0  0  0  0
    0.7802   -1.6819   -1.2954 H   0  0  0  0  0  0  0  0  0  0  0  0
   -2.3347   -0.6420    0.8148 H   0  0  0  0  0  0  0  0  0  0  0  0
   -3.3683    0.3133   -1.1261 H   0  0  0  0  0  0  0  0  0  0  0  0
   -2.7041    1.6919   -0.1176 H   0  0  0  0  0  0  0  0  0  0  0  0
   -1.8387    1.0770   -1.6159 H   0  0  0  0  0  0  0  0  0  0  0  0
   -0.6455    1.6745    0.6311 H   0  0  0  0  0  0  0  0  0  0  0  0
   -0.4055    0.2903    1.8050 H   0  0  0  0  0  0  0  0  0  0  0  0
  1  2  1  0
  2  3  1  0
  3  4  1  0
  4  5  1  0
  5  6  1  0
  6  7  1  0
  6  8  1  0
  8  3  1  0
  1  9  1  0
  1 10  1  0
  1 11  1  0
  3 12  1  0
  4 13  1  0
  4 14  1  0
  6 15  1  0
  7 16  1  0
  7 17  1  0
  7 18  1  0
  8 19  1  0
  8 20  1  0
M  END
