
     RDKit          3D

 19 20  0  0  0  0  0  0  0  0999 V2000
    2.4459    0.0594   -0.2761 C   0  0  0  0  0  0  0  0  0  0  0  0
    1.4908   -0.2871    0.6212 O   0  0  0  0  0  0  0  0  0  0  0  0
    0.2078   -0.3374    0.2187 C   0  0  0  0  0  0  0  0  0  0  0  0
   -0.7185   -0.7402    1.3477 C   0  0  0  0  0  0  0  0  0  0  0  0
   -1.4636    0.5581    1.1506 C   0  0  0  0  0  0  0  0  0  0  0  0
   -0.5852    0.8774   -0.0247 C   0  0  0  0  0  0  0  0  0  0  0  0
   -1.0994    0.2748   -1.2970 C   0  0  0  0  0  0  0  0  0  0  0  0
   -0.1255   -0.8435   -1.1072 C   0  0  0  0  0  0  0  0  0  0  0  0
    0.1732   -1.7648   -1.8695 O   0  0  0  0  0  0  0  0  0  0  0  0
    2.4459   -0.6666   -1.1180 H   0  0  0  0  0  0  0  0  0  0  0  0
    2.3576    1.0754   -0.7011 H   0  0  0  0  0  0  0  0  0  0  0  0
    3.4406   -0.0239    0.2130 H   0  0  0  0  0  0  0  0  0  0  0  0
   -1.2990   -1.6598    1.1607 H   0  0  0  0  0  0  0  0  0  0  0  0
   -0.2205   -0.7506    2.3432 H   0  0  0  0  0  0  0  0  0  0  0  0
   -1.3356    1.2778    1.9615 H   0  0  0  0  0  0  0  0  0  0  0  0
   -2.5210    0.3299    0.8533 H   0  0  0  0  0  0  0  0  0  0  0  0
   -0.1189    1.8475   -0.0635 H   0  0  0  0  0  0  0  0  0  0  0  0
   -2.1354   -0.0885   -1.1959 H   0  0  0  0  0  0  0  0  0  0  0  0
   -0.9391    0.8620   -2.2169 H   0  0  0  0  0  0  0  0  0  0  0  0
  1  2  1  0
  2  3  1  0
  3  4  1  0
  4  5  1  0
  5  6  1  0
  6  7  1  0
  7  8  1  0
  8  9  2  0
  6  3  1  0
  8  3  1  0
  1 10  1  0
  1 11  1  0
  1 12  1  0
  4 13  1  0
  4 14  1  0
  5 15  1  0
  5 16  1  0
  6 17  1  0
  7 18  1  0
  7 19  1  0
M  END
