
     RDKit          3D

 23 23  0  0  0  0  0  0  0  0999 V2000
    3.2156   -0.3197    0.4810 C   0  0  0  0  0  0  0  0  0  0  0  0
    2.2713    0.7019    0.3932 O   0  0  0  0  0  0  0  0  0  0  0  0
    1.0474    0.1113    0.1115 C   0  0  0  0  0  0  0  0  0  0  0  0
    0.0381    0.3612    1.1612 C   0  0  0  0  0  0  0  0  0  0  0  0
   -1.1514    0.4457    0.6062 C   0  0  0  0  0  0  0  0  0  0  0  0
   -2.4164    0.6911    1.3539 C   0  0  0  0  0  0  0  0  0  0  0  0
   -1.0638    0.2751   -0.8639 C   0  0  0  0  0  0  0  0  0  0  0  0
   -1.3169   -1.1246   -1.3222 C   0  0  0  0  0  0  0  0  0  0  0  0
    0.4203    0.5953   -1.1447 C   0  0  0  0  0  0  0  0  0  0  0  0
    4.1877    0.1733    0.7069 H   0  0  0  0  0  0  0  0  0  0  0  0
    3.2285   -0.8165   -0.5141 H   0  0  0  0  0  0  0  0  0  0  0  0
    2.9431   -0.9919    1.2999 H   0  0  0  0  0  0  0  0  0  0  0  0
    1.1328   -1.0042    0.0297 H   0  0  0  0  0  0  0  0  0  0  0  0
    0.2345    0.4649    2.2562 H   0  0  0  0  0  0  0  0  0  0  0  0
   -2.6298    1.7738    1.2689 H   0  0  0  0  0  0  0  0  0  0  0  0
   -3.2337    0.0680    0.8920 H   0  0  0  0  0  0  0  0  0  0  0  0
   -2.3485    0.3511    2.4092 H   0  0  0  0  0  0  0  0  0  0  0  0
   -1.7252    0.9822   -1.4013 H   0  0  0  0  0  0  0  0  0  0  0  0
   -2.4281   -1.2786   -1.4262 H   0  0  0  0  0  0  0  0  0  0  0  0
   -0.8573   -1.8689   -0.6432 H   0  0  0  0  0  0  0  0  0  0  0  0
   -0.9128   -1.2363   -2.3561 H   0  0  0  0  0  0  0  0  0  0  0  0
    0.7908   -0.0219   -1.9903 H   0  0  0  0  0  0  0  0  0  0  0  0
    0.5739    1.6677   -1.3078 H   0  0  0  0  0  0  0  0  0  0  0  0
  1  2  1  0
  2  3  1  0
  3  4  1  0
  4  5  2  0
  5  6  1  0
  5  7  1  0
  7  8  1  0
  7  9  1  0
  9  3  1  0
  1 10  1  0
  1 11  1  0
  1 12  1  0
  3 13  1  0
  4 14  1  0
  6 15  1  0
  6 16  1  0
  6 17  1  0
  7 18  1  0
  8 19  1  0
  8 20  1  0
  8 21  1  0
  9 22  1  0
  9 23  1  0
M  END
