
     RDKit          3D

 16 16  0  0  0  0  0  0  0  0999 V2000
   -2.3605   -0.3480    0.0874 C   0  0  0  0  0  0  0  0  0  0  0  0
   -1.0928   -0.3352    0.6429 O   0  0  0  0  0  0  0  0  0  0  0  0
   -0.2218    0.2495   -0.2367 C   0  0  0  0  0  0  0  0  0  0  0  0
    0.9668   -0.6495   -0.5595 C   0  0  0  0  0  0  0  0  0  0  0  0
    2.0617   -0.2293    0.3789 C   0  0  0  0  0  0  0  0  0  0  0  0
    1.5861    0.9558    1.0097 O   0  0  0  0  0  0  0  0  0  0  0  0
    0.4640    1.4359    0.3343 C   0  0  0  0  0  0  0  0  0  0  0  0
    0.1141    2.6398    0.2364 O   0  0  0  0  0  0  0  0  0  0  0  0
   -3.1265   -0.8052    0.7362 H   0  0  0  0  0  0  0  0  0  0  0  0
   -2.3021   -1.0109   -0.8231 H   0  0  0  0  0  0  0  0  0  0  0  0
   -2.7079    0.6628   -0.2315 H   0  0  0  0  0  0  0  0  0  0  0  0
   -0.7427    0.5608   -1.1581 H   0  0  0  0  0  0  0  0  0  0  0  0
    1.2931   -0.3801   -1.5911 H   0  0  0  0  0  0  0  0  0  0  0  0
    0.7272   -1.7072   -0.5337 H   0  0  0  0  0  0  0  0  0  0  0  0
    3.0269   -0.0275   -0.1673 H   0  0  0  0  0  0  0  0  0  0  0  0
    2.3143   -1.0116    1.1307 H   0  0  0  0  0  0  0  0  0  0  0  0
  1  2  1  0
  2  3  1  0
  3  4  1  0
  4  5  1  0
  5  6  1  0
  6  7  1  0
  7  8  2  0
  7  3  1  0
  1  9  1  0
  1 10  1  0
  1 11  1  0
  3 12  1  0
  4 13  1  0
  4 14  1  0
  5 15  1  0
  5 16  1  0
M  END
