
     RDKit          3D

 21 22  0  0  0  0  0  0  0  0999 V2000
    3.2601    0.7039    0.3907 C   0  0  0  0  0  0  0  0  0  0  0  0
    2.1678    0.3169   -0.3418 O   0  0  0  0  0  0  0  0  0  0  0  0
    1.0432    0.0438    0.3805 C   0  0  0  0  0  0  0  0  0  0  0  0
    0.3950   -1.3265    0.0696 C   0  0  0  0  0  0  0  0  0  0  0  0
   -0.8725   -0.6239    0.4535 C   0  0  0  0  0  0  0  0  0  0  0  0
   -2.1207   -0.8696   -0.3137 C   0  0  0  0  0  0  0  0  0  0  0  0
   -2.5245    0.5721   -0.6448 C   0  0  0  0  0  0  0  0  0  0  0  0
   -1.2072    1.2795   -0.7768 C   0  0  0  0  0  0  0  0  0  0  0  0
   -0.2414    0.5977   -0.1939 C   0  0  0  0  0  0  0  0  0  0  0  0
    4.0948    0.8905   -0.3349 H   0  0  0  0  0  0  0  0  0  0  0  0
    3.1405    1.6161    0.9766 H   0  0  0  0  0  0  0  0  0  0  0  0
    3.6487   -0.1286    1.0470 H   0  0  0  0  0  0  0  0  0  0  0  0
    1.1235    0.1596    1.4631 H   0  0  0  0  0  0  0  0  0  0  0  0
    0.5202   -1.5848   -0.9783 H   0  0  0  0  0  0  0  0  0  0  0  0
    0.6970   -2.1046    0.8156 H   0  0  0  0  0  0  0  0  0  0  0  0
   -0.9881   -0.5276    1.5411 H   0  0  0  0  0  0  0  0  0  0  0  0
   -1.9179   -1.4475   -1.2305 H   0  0  0  0  0  0  0  0  0  0  0  0
   -2.8771   -1.3366    0.3500 H   0  0  0  0  0  0  0  0  0  0  0  0
   -3.1439    0.9711    0.1740 H   0  0  0  0  0  0  0  0  0  0  0  0
   -3.1201    0.5820   -1.5662 H   0  0  0  0  0  0  0  0  0  0  0  0
   -1.0774    2.2164   -1.2809 H   0  0  0  0  0  0  0  0  0  0  0  0
  1  2  1  0
  2  3  1  0
  3  4  1  0
  4  5  1  0
  5  6  1  0
  6  7  1  0
  7  8  1  0
  8  9  2  0
  9  3  1  0
  9  5  1  0
  1 10  1  0
  1 11  1  0
  1 12  1  0
  3 13  1  0
  4 14  1  0
  4 15  1  0
  5 16  1  0
  6 17  1  0
  6 18  1  0
  7 19  1  0
  7 20  1  0
  8 21  1  0
M  END
