
     RDKit          3D

 23 23  0  0  0  0  0  0  0  0999 V2000
    3.3922   -0.0270    0.5259 C   0  0  0  0  0  0  0  0  0  0  0  0
    2.4073    0.2869   -0.4347 O   0  0  0  0  0  0  0  0  0  0  0  0
    1.1448    0.0274    0.0164 C   0  0  0  0  0  0  0  0  0  0  0  0
    0.2726    1.2389   -0.1714 C   0  0  0  0  0  0  0  0  0  0  0  0
   -1.0816    0.6604   -0.1632 C   0  0  0  0  0  0  0  0  0  0  0  0
   -2.3008    1.4406    0.2391 C   0  0  0  0  0  0  0  0  0  0  0  0
   -1.0175   -0.5995   -0.5542 C   0  0  0  0  0  0  0  0  0  0  0  0
   -2.1672   -1.5262   -0.6794 C   0  0  0  0  0  0  0  0  0  0  0  0
    0.3979   -0.9802   -0.8615 C   0  0  0  0  0  0  0  0  0  0  0  0
    3.2537   -1.1285    0.7160 H   0  0  0  0  0  0  0  0  0  0  0  0
    4.3759    0.1786    0.0774 H   0  0  0  0  0  0  0  0  0  0  0  0
    3.1817    0.5781    1.4255 H   0  0  0  0  0  0  0  0  0  0  0  0
    1.0937   -0.3805    1.0450 H   0  0  0  0  0  0  0  0  0  0  0  0
    0.4372    2.0192    0.5868 H   0  0  0  0  0  0  0  0  0  0  0  0
    0.4650    1.6115   -1.2103 H   0  0  0  0  0  0  0  0  0  0  0  0
   -2.4881    1.2052    1.3154 H   0  0  0  0  0  0  0  0  0  0  0  0
   -2.1330    2.5137    0.1739 H   0  0  0  0  0  0  0  0  0  0  0  0
   -3.1721    1.1787   -0.4027 H   0  0  0  0  0  0  0  0  0  0  0  0
   -1.9275   -2.4913   -0.1464 H   0  0  0  0  0  0  0  0  0  0  0  0
   -2.3000   -1.8184   -1.7427 H   0  0  0  0  0  0  0  0  0  0  0  0
   -3.0813   -1.1482   -0.2113 H   0  0  0  0  0  0  0  0  0  0  0  0
    0.6261   -2.0113   -0.5934 H   0  0  0  0  0  0  0  0  0  0  0  0
    0.6210   -0.8281   -1.9319 H   0  0  0  0  0  0  0  0  0  0  0  0
  1  2  1  0
  2  3  1  0
  3  4  1  0
  4  5  1  0
  5  6  1  0
  5  7  2  0
  7  8  1  0
  7  9  1  0
  9  3  1  0
  1 10  1  0
  1 11  1  0
  1 12  1  0
  3 13  1  0
  4 14  1  0
  4 15  1  0
  6 16  1  0
  6 17  1  0
  6 18  1  0
  8 19  1  0
  8 20  1  0
  8 21  1  0
  9 22  1  0
  9 23  1  0
M  END
