
     RDKit          3D

 21 22  0  0  0  0  0  0  0  0999 V2000
    2.7555    0.7666    0.1456 C   0  0  0  0  0  0  0  0  0  0  0  0
    1.9204   -0.2847   -0.2289 O   0  0  0  0  0  0  0  0  0  0  0  0
    0.6318    0.0461    0.0882 C   0  0  0  0  0  0  0  0  0  0  0  0
   -0.0040   -1.1044    0.8864 C   0  0  0  0  0  0  0  0  0  0  0  0
   -0.1114   -1.7887   -0.4835 C   0  0  0  0  0  0  0  0  0  0  0  0
   -0.4254   -0.3463   -0.9137 C   0  0  0  0  0  0  0  0  0  0  0  0
   -1.6799   -0.1370   -0.1283 C   0  0  0  0  0  0  0  0  0  0  0  0
   -2.0831    1.2794    0.0472 C   0  0  0  0  0  0  0  0  0  0  0  0
   -1.2640   -0.6372    1.1332 O   0  0  0  0  0  0  0  0  0  0  0  0
    2.6962    0.9729    1.2505 H   0  0  0  0  0  0  0  0  0  0  0  0
    2.4336    1.7028   -0.3802 H   0  0  0  0  0  0  0  0  0  0  0  0
    3.8064    0.5078   -0.1096 H   0  0  0  0  0  0  0  0  0  0  0  0
    0.5231    1.0229    0.5498 H   0  0  0  0  0  0  0  0  0  0  0  0
    0.5867   -1.5714    1.6264 H   0  0  0  0  0  0  0  0  0  0  0  0
    0.8219   -2.1899   -0.8717 H   0  0  0  0  0  0  0  0  0  0  0  0
   -1.0145   -2.3895   -0.5360 H   0  0  0  0  0  0  0  0  0  0  0  0
   -0.3389   -0.0927   -1.9265 H   0  0  0  0  0  0  0  0  0  0  0  0
   -2.4992   -0.7246   -0.5509 H   0  0  0  0  0  0  0  0  0  0  0  0
   -2.7627    1.3266    0.9484 H   0  0  0  0  0  0  0  0  0  0  0  0
   -2.7185    1.6594   -0.7914 H   0  0  0  0  0  0  0  0  0  0  0  0
   -1.2741    1.9818    0.2451 H   0  0  0  0  0  0  0  0  0  0  0  0
  1  2  1  0
  2  3  1  0
  3  4  1  0
  4  5  1  0
  5  6  1  0
  6  7  1  0
  7  8  1  0
  7  9  1  0
  6  3  1  0
  9  4  1  0
  1 10  1  0
  1 11  1  0
  1 12  1  0
  3 13  1  0
  4 14  1  0
  5 15  1  0
  5 16  1  0
  6 17  1  0
  7 18  1  0
  8 19  1  0
  8 20  1  0
  8 21  1  0
M  END
