
     RDKit          3D

 23 24  0  0  0  0  0  0  0  0999 V2000
    3.1350    0.2388   -0.5071 C   0  0  0  0  0  0  0  0  0  0  0  0
    2.1130   -0.1564    0.3480 O   0  0  0  0  0  0  0  0  0  0  0  0
    0.8652    0.2296   -0.0586 C   0  0  0  0  0  0  0  0  0  0  0  0
   -0.2351    0.4465    0.9053 C   0  0  0  0  0  0  0  0  0  0  0  0
   -1.6361    0.6107    0.4391 C   0  0  0  0  0  0  0  0  0  0  0  0
   -1.9407    1.8939   -0.3042 C   0  0  0  0  0  0  0  0  0  0  0  0
   -1.5574   -0.6108   -0.4558 C   0  0  0  0  0  0  0  0  0  0  0  0
   -0.1780   -0.8539    0.0651 C   0  0  0  0  0  0  0  0  0  0  0  0
    0.1374   -2.0974    0.8487 C   0  0  0  0  0  0  0  0  0  0  0  0
    3.0122   -0.1765   -1.5247 H   0  0  0  0  0  0  0  0  0  0  0  0
    4.0749   -0.2298   -0.0990 H   0  0  0  0  0  0  0  0  0  0  0  0
    3.2588    1.3551   -0.5225 H   0  0  0  0  0  0  0  0  0  0  0  0
    0.8306    0.8000   -1.0047 H   0  0  0  0  0  0  0  0  0  0  0  0
   -0.0997    0.3265    1.9875 H   0  0  0  0  0  0  0  0  0  0  0  0
   -2.4171    0.4428    1.2108 H   0  0  0  0  0  0  0  0  0  0  0  0
   -2.8444    1.7529   -0.9244 H   0  0  0  0  0  0  0  0  0  0  0  0
   -2.1758    2.6812    0.4389 H   0  0  0  0  0  0  0  0  0  0  0  0
   -1.0733    2.2563   -0.8873 H   0  0  0  0  0  0  0  0  0  0  0  0
   -2.2370   -1.4383   -0.1829 H   0  0  0  0  0  0  0  0  0  0  0  0
   -1.6339   -0.3708   -1.5295 H   0  0  0  0  0  0  0  0  0  0  0  0
   -0.7979   -2.3931    1.3779 H   0  0  0  0  0  0  0  0  0  0  0  0
    0.4923   -2.8615    0.1522 H   0  0  0  0  0  0  0  0  0  0  0  0
    0.9070   -1.8458    1.6145 H   0  0  0  0  0  0  0  0  0  0  0  0
  1  2  1  0
  2  3  1  0
  3  4  1  0
  4  5  1  0
  5  6  1  0
  5  7  1  0
  7  8  1  0
  8  9  1  0
  8  3  1  0
  8  4  1  0
  1 10  1  0
  1 11  1  0
  1 12  1  0
  3 13  1  0
  4 14  1  0
  5 15  1  0
  6 16  1  0
  6 17  1  0
  6 18  1  0
  7 19  1  0
  7 20  1  0
  9 21  1  0
  9 22  1  0
  9 23  1  0
M  END
