
     RDKit          3D

 21 22  0  0  0  0  0  0  0  0999 V2000
    2.9272    0.5881    0.8113 C   0  0  0  0  0  0  0  0  0  0  0  0
    1.8652   -0.3441    0.8118 O   0  0  0  0  0  0  0  0  0  0  0  0
    0.7356    0.3371    0.4429 C   0  0  0  0  0  0  0  0  0  0  0  0
   -0.5277    0.0242    1.1977 C   0  0  0  0  0  0  0  0  0  0  0  0
   -0.4917   -1.3086    0.5128 C   0  0  0  0  0  0  0  0  0  0  0  0
   -0.1462   -0.3285   -0.5818 C   0  0  0  0  0  0  0  0  0  0  0  0
    0.1218   -0.5815   -1.7793 O   0  0  0  0  0  0  0  0  0  0  0  0
   -1.2487    0.5199   -0.0262 C   0  0  0  0  0  0  0  0  0  0  0  0
   -2.6413    0.0189   -0.2287 C   0  0  0  0  0  0  0  0  0  0  0  0
    3.8811    0.1193    1.0992 H   0  0  0  0  0  0  0  0  0  0  0  0
    2.7018    1.4594    1.4591 H   0  0  0  0  0  0  0  0  0  0  0  0
    2.9865    0.9695   -0.2407 H   0  0  0  0  0  0  0  0  0  0  0  0
    0.8306    1.4042    0.2256 H   0  0  0  0  0  0  0  0  0  0  0  0
   -0.7351    0.2256    2.1526 H   0  0  0  0  0  0  0  0  0  0  0  0
    0.3078   -2.0029    0.8098 H   0  0  0  0  0  0  0  0  0  0  0  0
   -1.4439   -1.8204    0.3537 H   0  0  0  0  0  0  0  0  0  0  0  0
    1.0833   -0.6717   -1.9848 H   0  0  0  0  0  0  0  0  0  0  0  0
   -1.0857    1.5988   -0.2356 H   0  0  0  0  0  0  0  0  0  0  0  0
   -3.3360    0.9035   -0.3279 H   0  0  0  0  0  0  0  0  0  0  0  0
   -2.7521   -0.5562   -1.1907 H   0  0  0  0  0  0  0  0  0  0  0  0
   -3.0323   -0.5549    0.6389 H   0  0  0  0  0  0  0  0  0  0  0  0
  1  2  1  0
  2  3  1  0
  3  4  1  0
  4  5  1  0
  5  6  1  0
  6  7  1  0
  6  8  1  0
  8  9  1  0
  6  3  1  0
  8  4  1  0
  1 10  1  0
  1 11  1  0
  1 12  1  0
  3 13  1  0
  4 14  1  0
  5 15  1  0
  5 16  1  0
  7 17  1  0
  8 18  1  0
  9 19  1  0
  9 20  1  0
  9 21  1  0
M  END
