
     RDKit          3D

 19 20  0  0  0  0  0  0  0  0999 V2000
    2.6112    0.0207    0.4936 C   0  0  0  0  0  0  0  0  0  0  0  0
    1.2610    0.1278    0.8325 O   0  0  0  0  0  0  0  0  0  0  0  0
    0.5086   -0.2025   -0.2710 C   0  0  0  0  0  0  0  0  0  0  0  0
   -0.6814   -1.0898   -0.0310 C   0  0  0  0  0  0  0  0  0  0  0  0
   -1.3825   -0.4606    1.1416 C   0  0  0  0  0  0  0  0  0  0  0  0
   -1.2736    1.0166    0.7080 C   0  0  0  0  0  0  0  0  0  0  0  0
   -0.5839    0.8207   -0.6076 C   0  0  0  0  0  0  0  0  0  0  0  0
   -1.3148   -0.3409   -1.1801 C   0  0  0  0  0  0  0  0  0  0  0  0
   -2.0489   -0.6559   -2.0720 O   0  0  0  0  0  0  0  0  0  0  0  0
    3.2799    0.2743    1.3420 H   0  0  0  0  0  0  0  0  0  0  0  0
    2.8640    0.7731   -0.3096 H   0  0  0  0  0  0  0  0  0  0  0  0
    2.8705   -0.9622    0.0757 H   0  0  0  0  0  0  0  0  0  0  0  0
    1.1043   -0.4735   -1.1619 H   0  0  0  0  0  0  0  0  0  0  0  0
   -0.5959   -2.1397   -0.1109 H   0  0  0  0  0  0  0  0  0  0  0  0
   -2.4502   -0.7540    1.0888 H   0  0  0  0  0  0  0  0  0  0  0  0
   -0.9060   -0.6359    2.1045 H   0  0  0  0  0  0  0  0  0  0  0  0
   -2.2846    1.4564    0.5680 H   0  0  0  0  0  0  0  0  0  0  0  0
   -0.6505    1.5864    1.4294 H   0  0  0  0  0  0  0  0  0  0  0  0
   -0.3273    1.6391   -1.2217 H   0  0  0  0  0  0  0  0  0  0  0  0
  1  2  1  0
  2  3  1  0
  3  4  1  0
  4  5  1  0
  5  6  1  0
  6  7  1  0
  7  8  1  0
  8  9  2  0
  7  3  1  0
  8  4  1  0
  1 10  1  0
  1 11  1  0
  1 12  1  0
  3 13  1  0
  4 14  1  0
  5 15  1  0
  5 16  1  0
  6 17  1  0
  6 18  1  0
  7 19  1  0
M  END
