
     RDKit          3D

 19 20  0  0  0  0  0  0  0  0999 V2000
    2.5568   -0.3298   -0.1230 C   0  0  0  0  0  0  0  0  0  0  0  0
    1.3931   -0.8878   -0.5691 O   0  0  0  0  0  0  0  0  0  0  0  0
    0.2362   -0.1921   -0.3246 C   0  0  0  0  0  0  0  0  0  0  0  0
   -1.0056   -0.8535   -0.8413 C   0  0  0  0  0  0  0  0  0  0  0  0
   -2.1406   -0.1053   -0.1768 C   0  0  0  0  0  0  0  0  0  0  0  0
   -1.5878    0.1088    1.1772 C   0  0  0  0  0  0  0  0  0  0  0  0
   -2.2031    0.1166    2.2082 O   0  0  0  0  0  0  0  0  0  0  0  0
   -0.1302    0.3115    1.0147 C   0  0  0  0  0  0  0  0  0  0  0  0
    0.3119    1.2477   -0.0731 C   0  0  0  0  0  0  0  0  0  0  0  0
    3.3772   -1.0534   -0.4150 H   0  0  0  0  0  0  0  0  0  0  0  0
    2.8066    0.6048   -0.6705 H   0  0  0  0  0  0  0  0  0  0  0  0
    2.5592   -0.2382    0.9612 H   0  0  0  0  0  0  0  0  0  0  0  0
   -1.0831   -0.8720   -1.9400 H   0  0  0  0  0  0  0  0  0  0  0  0
   -1.0254   -1.8920   -0.4109 H   0  0  0  0  0  0  0  0  0  0  0  0
   -3.0715   -0.6982   -0.1847 H   0  0  0  0  0  0  0  0  0  0  0  0
   -2.3457    0.8457   -0.7091 H   0  0  0  0  0  0  0  0  0  0  0  0
    0.5109    0.2082    1.8912 H   0  0  0  0  0  0  0  0  0  0  0  0
    1.2901    1.7158    0.0811 H   0  0  0  0  0  0  0  0  0  0  0  0
   -0.4490    1.9630   -0.4671 H   0  0  0  0  0  0  0  0  0  0  0  0
  1  2  1  0
  2  3  1  0
  3  4  1  0
  4  5  1  0
  5  6  1  0
  6  7  2  0
  6  8  1  0
  8  9  1  0
  8  3  1  0
  9  3  1  0
  1 10  1  0
  1 11  1  0
  1 12  1  0
  4 13  1  0
  4 14  1  0
  5 15  1  0
  5 16  1  0
  8 17  1  0
  9 18  1  0
  9 19  1  0
M  END
