
     RDKit          3D

 21 22  0  0  0  0  0  0  0  0999 V2000
    3.2150    0.3133    0.1651 C   0  0  0  0  0  0  0  0  0  0  0  0
    2.0212    0.7665   -0.3322 O   0  0  0  0  0  0  0  0  0  0  0  0
    0.9050    0.1143    0.1977 C   0  0  0  0  0  0  0  0  0  0  0  0
   -0.2614    0.8126    0.5560 C   0  0  0  0  0  0  0  0  0  0  0  0
   -1.6734    0.4799    0.7887 C   0  0  0  0  0  0  0  0  0  0  0  0
   -2.1779    0.5701   -0.6626 C   0  0  0  0  0  0  0  0  0  0  0  0
   -0.9983    0.6410   -1.4281 O   0  0  0  0  0  0  0  0  0  0  0  0
   -0.1598   -0.1383   -0.7054 C   0  0  0  0  0  0  0  0  0  0  0  0
   -0.6893   -1.5389   -0.6106 C   0  0  0  0  0  0  0  0  0  0  0  0
    3.3038    0.4337    1.2693 H   0  0  0  0  0  0  0  0  0  0  0  0
    4.0746    0.8256   -0.3012 H   0  0  0  0  0  0  0  0  0  0  0  0
    3.3194   -0.7687   -0.0861 H   0  0  0  0  0  0  0  0  0  0  0  0
    1.2357   -0.6691    0.9421 H   0  0  0  0  0  0  0  0  0  0  0  0
   -0.1864    1.9230    0.3140 H   0  0  0  0  0  0  0  0  0  0  0  0
   -1.9293   -0.4414    1.2790 H   0  0  0  0  0  0  0  0  0  0  0  0
   -2.2032    1.2945    1.3496 H   0  0  0  0  0  0  0  0  0  0  0  0
   -2.8248   -0.2636   -0.9088 H   0  0  0  0  0  0  0  0  0  0  0  0
   -2.7319    1.5316   -0.8254 H   0  0  0  0  0  0  0  0  0  0  0  0
    0.1542   -2.1906   -1.0083 H   0  0  0  0  0  0  0  0  0  0  0  0
   -0.8646   -1.9170    0.3926 H   0  0  0  0  0  0  0  0  0  0  0  0
   -1.5288   -1.7785   -1.2804 H   0  0  0  0  0  0  0  0  0  0  0  0
  1  2  1  0
  2  3  1  0
  3  4  1  0
  4  5  1  0
  5  6  1  0
  6  7  1  0
  7  8  1  0
  8  9  1  0
  8  3  1  0
  8  4  1  0
  1 10  1  0
  1 11  1  0
  1 12  1  0
  3 13  1  0
  4 14  1  0
  5 15  1  0
  5 16  1  0
  6 17  1  0
  6 18  1  0
  9 19  1  0
  9 20  1  0
  9 21  1  0
M  END
