
     RDKit          3D

 21 23  0  0  0  0  0  0  0  0999 V2000
    1.7168   -1.9039    0.1988 C   0  0  0  0  0  0  0  0  0  0  0  0
    0.8739   -1.3499   -0.7385 O   0  0  0  0  0  0  0  0  0  0  0  0
    0.0535   -0.3743   -0.3410 C   0  0  0  0  0  0  0  0  0  0  0  0
   -0.9365   -0.6281    0.7198 C   0  0  0  0  0  0  0  0  0  0  0  0
   -2.3699   -0.3107    0.3971 C   0  0  0  0  0  0  0  0  0  0  0  0
    0.0779    0.4408    0.8544 C   0  0  0  0  0  0  0  0  0  0  0  0
   -0.0206    1.6959    0.0081 C   0  0  0  0  0  0  0  0  0  0  0  0
    1.0658    1.8670   -0.9794 C   0  0  0  0  0  0  0  0  0  0  0  0
   -0.0144    0.8581   -1.2023 C   0  0  0  0  0  0  0  0  0  0  0  0
    2.3729   -1.0872    0.5940 H   0  0  0  0  0  0  0  0  0  0  0  0
    2.4092   -2.5833   -0.3433 H   0  0  0  0  0  0  0  0  0  0  0  0
    1.2061   -2.4372    1.0112 H   0  0  0  0  0  0  0  0  0  0  0  0
   -0.7839   -1.5137    1.3369 H   0  0  0  0  0  0  0  0  0  0  0  0
   -2.6610   -0.8619   -0.5403 H   0  0  0  0  0  0  0  0  0  0  0  0
   -3.0037   -0.6839    1.2527 H   0  0  0  0  0  0  0  0  0  0  0  0
   -2.4940    0.7807    0.2864 H   0  0  0  0  0  0  0  0  0  0  0  0
    0.8527    0.4326    1.6257 H   0  0  0  0  0  0  0  0  0  0  0  0
   -0.7847    2.4425    0.2046 H   0  0  0  0  0  0  0  0  0  0  0  0
    1.0831    2.7441   -1.6634 H   0  0  0  0  0  0  0  0  0  0  0  0
    2.0682    1.5236   -0.6548 H   0  0  0  0  0  0  0  0  0  0  0  0
   -0.7117    0.9486   -2.0267 H   0  0  0  0  0  0  0  0  0  0  0  0
  1  2  1  0
  2  3  1  0
  3  4  1  0
  4  5  1  0
  4  6  1  0
  6  7  1  0
  7  8  1  0
  8  9  1  0
  6  3  1  0
  9  7  1  0
  9  3  1  0
  1 10  1  0
  1 11  1  0
  1 12  1  0
  4 13  1  0
  5 14  1  0
  5 15  1  0
  5 16  1  0
  6 17  1  0
  7 18  1  0
  8 19  1  0
  8 20  1  0
  9 21  1  0
M  END
