
     RDKit          3D

 19 19  0  0  0  0  0  0  0  0999 V2000
   -2.7606   -0.0259   -0.8230 C   0  0  0  0  0  0  0  0  0  0  0  0
   -1.4016   -0.2562   -1.0373 O   0  0  0  0  0  0  0  0  0  0  0  0
   -0.7690   -0.1194    0.1762 C   0  0  0  0  0  0  0  0  0  0  0  0
   -0.0211   -1.3256    0.5890 C   0  0  0  0  0  0  0  0  0  0  0  0
    1.2514   -1.1852    0.2865 C   0  0  0  0  0  0  0  0  0  0  0  0
    1.4962    0.1101   -0.3531 C   0  0  0  0  0  0  0  0  0  0  0  0
    2.7379    0.7674    0.1277 C   0  0  0  0  0  0  0  0  0  0  0  0
    3.6426    0.1574    0.6509 O   0  0  0  0  0  0  0  0  0  0  0  0
    0.3013    0.9412    0.0169 C   0  0  0  0  0  0  0  0  0  0  0  0
   -2.9319    0.9990   -0.4193 H   0  0  0  0  0  0  0  0  0  0  0  0
   -3.0805   -0.7711   -0.0456 H   0  0  0  0  0  0  0  0  0  0  0  0
   -3.3617   -0.1465   -1.7300 H   0  0  0  0  0  0  0  0  0  0  0  0
   -1.4684    0.1315    0.9990 H   0  0  0  0  0  0  0  0  0  0  0  0
   -0.4509   -2.2337    1.0858 H   0  0  0  0  0  0  0  0  0  0  0  0
    2.0187   -1.9780    0.5064 H   0  0  0  0  0  0  0  0  0  0  0  0
    1.5141   -0.0482   -1.4546 H   0  0  0  0  0  0  0  0  0  0  0  0
    2.8183    1.8388   -0.0046 H   0  0  0  0  0  0  0  0  0  0  0  0
    0.0551    1.6646   -0.7943 H   0  0  0  0  0  0  0  0  0  0  0  0
    0.4100    1.4796    0.9714 H   0  0  0  0  0  0  0  0  0  0  0  0
  1  2  1  0
  2  3  1  0
  3  4  1  0
  4  5  2  0
  5  6  1  0
  6  7  1  0
  7  8  2  0
  6  9  1  0
  9  3  1  0
  1 10  1  0
  1 11  1  0
  1 12  1  0
  3 13  1  0
  4 14  1  0
  5 15  1  0
  6 16  1  0
  7 17  1  0
  9 18  1  0
  9 19  1  0
M  END
