
     RDKit          3D

 21 21  0  0  0  0  0  0  0  0999 V2000
    2.7346   -0.0720   -0.2312 C   0  0  0  0  0  0  0  0  0  0  0  0
    1.5760   -0.5578    0.3037 O   0  0  0  0  0  0  0  0  0  0  0  0
    0.4054   -0.0920   -0.1942 C   0  0  0  0  0  0  0  0  0  0  0  0
   -0.2968   -1.2575   -0.8874 C   0  0  0  0  0  0  0  0  0  0  0  0
   -1.5142   -1.5377   -0.0027 C   0  0  0  0  0  0  0  0  0  0  0  0
   -1.8426   -0.1773    0.4715 C   0  0  0  0  0  0  0  0  0  0  0  0
   -2.9421    0.3005    0.6127 O   0  0  0  0  0  0  0  0  0  0  0  0
   -0.5561    0.5058    0.7470 C   0  0  0  0  0  0  0  0  0  0  0  0
   -0.7838    1.9981    0.5079 C   0  0  0  0  0  0  0  0  0  0  0  0
    2.8650    1.0217   -0.1355 H   0  0  0  0  0  0  0  0  0  0  0  0
    3.5793   -0.5226    0.3356 H   0  0  0  0  0  0  0  0  0  0  0  0
    2.8814   -0.3860   -1.2949 H   0  0  0  0  0  0  0  0  0  0  0  0
    0.6136    0.6543   -1.0056 H   0  0  0  0  0  0  0  0  0  0  0  0
    0.3117   -2.1765   -0.8760 H   0  0  0  0  0  0  0  0  0  0  0  0
   -0.5762   -1.0284   -1.9202 H   0  0  0  0  0  0  0  0  0  0  0  0
   -1.1827   -2.1196    0.8905 H   0  0  0  0  0  0  0  0  0  0  0  0
   -2.3262   -2.0275   -0.5592 H   0  0  0  0  0  0  0  0  0  0  0  0
   -0.3541    0.3316    1.8183 H   0  0  0  0  0  0  0  0  0  0  0  0
   -1.8668    2.2291    0.3854 H   0  0  0  0  0  0  0  0  0  0  0  0
   -0.4577    2.5486    1.4163 H   0  0  0  0  0  0  0  0  0  0  0  0
   -0.2676    2.3651   -0.3820 H   0  0  0  0  0  0  0  0  0  0  0  0
  1  2  1  0
  2  3  1  0
  3  4  1  0
  4  5  1  0
  5  6  1  0
  6  7  2  0
  6  8  1  0
  8  9  1  0
  8  3  1  0
  1 10  1  0
  1 11  1  0
  1 12  1  0
  3 13  1  0
  4 14  1  0
  4 15  1  0
  5 16  1  0
  5 17  1  0
  8 18  1  0
  9 19  1  0
  9 20  1  0
  9 21  1  0
M  END
