
     RDKit          3D

 19 19  0  0  0  0  0  0  0  0999 V2000
    2.2359    1.0467    0.1398 C   0  0  0  0  0  0  0  0  0  0  0  0
    0.9776    0.7536    0.6357 O   0  0  0  0  0  0  0  0  0  0  0  0
    0.3095   -0.2017   -0.0905 C   0  0  0  0  0  0  0  0  0  0  0  0
   -0.0376   -1.4210    0.7716 C   0  0  0  0  0  0  0  0  0  0  0  0
   -1.4877   -1.6498    0.3276 C   0  0  0  0  0  0  0  0  0  0  0  0
   -1.9559   -0.3161    0.3573 O   0  0  0  0  0  0  0  0  0  0  0  0
   -1.0491    0.2786   -0.5190 C   0  0  0  0  0  0  0  0  0  0  0  0
   -1.1528    1.7600   -0.5051 C   0  0  0  0  0  0  0  0  0  0  0  0
   -0.4432    2.4426   -1.2028 O   0  0  0  0  0  0  0  0  0  0  0  0
    2.6669    1.8348    0.8207 H   0  0  0  0  0  0  0  0  0  0  0  0
    2.9437    0.1759    0.2632 H   0  0  0  0  0  0  0  0  0  0  0  0
    2.2471    1.4310   -0.8789 H   0  0  0  0  0  0  0  0  0  0  0  0
    0.8966   -0.5669   -0.9427 H   0  0  0  0  0  0  0  0  0  0  0  0
   -0.0809   -1.1287    1.8290 H   0  0  0  0  0  0  0  0  0  0  0  0
    0.5890   -2.2796    0.5419 H   0  0  0  0  0  0  0  0  0  0  0  0
   -2.0357   -2.2969    1.0095 H   0  0  0  0  0  0  0  0  0  0  0  0
   -1.4931   -1.9575   -0.7282 H   0  0  0  0  0  0  0  0  0  0  0  0
   -1.2510   -0.1173   -1.5187 H   0  0  0  0  0  0  0  0  0  0  0  0
   -1.8792    2.2126    0.1451 H   0  0  0  0  0  0  0  0  0  0  0  0
  1  2  1  0
  2  3  1  0
  3  4  1  0
  4  5  1  0
  5  6  1  0
  6  7  1  0
  7  8  1  0
  8  9  2  0
  7  3  1  0
  1 10  1  0
  1 11  1  0
  1 12  1  0
  3 13  1  0
  4 14  1  0
  4 15  1  0
  5 16  1  0
  5 17  1  0
  7 18  1  0
  8 19  1  0
M  END
