
     RDKit          3D

 19 20  0  0  0  0  0  0  0  0999 V2000
    2.6710   -0.2360    0.2804 C   0  0  0  0  0  0  0  0  0  0  0  0
    1.3693   -0.5950    0.6563 O   0  0  0  0  0  0  0  0  0  0  0  0
    0.4467    0.3093    0.1970 C   0  0  0  0  0  0  0  0  0  0  0  0
   -0.5723    0.8067    1.1774 C   0  0  0  0  0  0  0  0  0  0  0  0
   -1.4410    1.1100   -0.0215 C   0  0  0  0  0  0  0  0  0  0  0  0
   -0.8431   -0.2407   -0.3289 C   0  0  0  0  0  0  0  0  0  0  0  0
   -1.0693   -1.0219   -1.3996 C   0  0  0  0  0  0  0  0  0  0  0  0
   -1.2322   -0.5861   -2.5491 O   0  0  0  0  0  0  0  0  0  0  0  0
   -1.1917   -0.5626    1.1010 C   0  0  0  0  0  0  0  0  0  0  0  0
    2.7145   -0.2024   -0.8429 H   0  0  0  0  0  0  0  0  0  0  0  0
    2.9871    0.7282    0.7226 H   0  0  0  0  0  0  0  0  0  0  0  0
    3.4076   -1.0088    0.5737 H   0  0  0  0  0  0  0  0  0  0  0  0
    0.8641    1.1690   -0.3899 H   0  0  0  0  0  0  0  0  0  0  0  0
   -0.4378    1.3755    1.9846 H   0  0  0  0  0  0  0  0  0  0  0  0
   -1.1397    1.9358   -0.6526 H   0  0  0  0  0  0  0  0  0  0  0  0
   -2.4954    1.0081    0.2446 H   0  0  0  0  0  0  0  0  0  0  0  0
   -1.1331   -2.1270   -1.3648 H   0  0  0  0  0  0  0  0  0  0  0  0
   -0.6307   -1.3549    1.5850 H   0  0  0  0  0  0  0  0  0  0  0  0
   -2.2741   -0.5071    1.2530 H   0  0  0  0  0  0  0  0  0  0  0  0
  1  2  1  0
  2  3  1  0
  3  4  1  0
  4  5  1  0
  5  6  1  0
  6  7  1  0
  7  8  2  0
  6  9  1  0
  6  3  1  0
  9  4  1  0
  1 10  1  0
  1 11  1  0
  1 12  1  0
  3 13  1  0
  4 14  1  0
  5 15  1  0
  5 16  1  0
  7 17  1  0
  9 18  1  0
  9 19  1  0
M  END
