
     RDKit          3D

 19 20  0  0  0  0  0  0  0  0999 V2000
    2.5025    0.0479    0.0086 C   0  0  0  0  0  0  0  0  0  0  0  0
    1.5069   -0.1242    0.9273 O   0  0  0  0  0  0  0  0  0  0  0  0
    0.2839    0.0210    0.4558 C   0  0  0  0  0  0  0  0  0  0  0  0
   -0.1920   -0.9030   -0.6733 C   0  0  0  0  0  0  0  0  0  0  0  0
   -1.5771   -0.5297   -0.1263 C   0  0  0  0  0  0  0  0  0  0  0  0
   -1.6211    0.9220   -0.5186 C   0  0  0  0  0  0  0  0  0  0  0  0
   -0.2577    1.3110    0.0285 C   0  0  0  0  0  0  0  0  0  0  0  0
    0.2427    2.4126    0.0899 O   0  0  0  0  0  0  0  0  0  0  0  0
   -0.8842   -0.5833    1.2279 C   0  0  0  0  0  0  0  0  0  0  0  0
    2.3717   -0.7118   -0.8126 H   0  0  0  0  0  0  0  0  0  0  0  0
    2.5510    1.0653   -0.4354 H   0  0  0  0  0  0  0  0  0  0  0  0
    3.4795   -0.1412    0.5177 H   0  0  0  0  0  0  0  0  0  0  0  0
   -0.0369   -0.5188   -1.6783 H   0  0  0  0  0  0  0  0  0  0  0  0
   -0.0190   -1.9669   -0.4951 H   0  0  0  0  0  0  0  0  0  0  0  0
   -2.3839   -1.1764   -0.3246 H   0  0  0  0  0  0  0  0  0  0  0  0
   -2.4208    1.4957   -0.0671 H   0  0  0  0  0  0  0  0  0  0  0  0
   -1.5470    0.9889   -1.6161 H   0  0  0  0  0  0  0  0  0  0  0  0
   -1.3097    0.0385    2.0099 H   0  0  0  0  0  0  0  0  0  0  0  0
   -0.6888   -1.6475    1.4814 H   0  0  0  0  0  0  0  0  0  0  0  0
  1  2  1  0
  2  3  1  0
  3  4  1  0
  4  5  1  0
  5  6  1  0
  6  7  1  0
  7  8  2  0
  5  9  1  0
  7  3  1  0
  9  3  1  0
  1 10  1  0
  1 11  1  0
  1 12  1  0
  4 13  1  0
  4 14  1  0
  5 15  1  0
  6 16  1  0
  6 17  1  0
  9 18  1  0
  9 19  1  0
M  END
