
     RDKit          3D

 21 21  0  0  0  0  0  0  0  0999 V2000
    3.1813    0.2710   -0.0643 C   0  0  0  0  0  0  0  0  0  0  0  0
    2.0115    0.8266   -0.5750 O   0  0  0  0  0  0  0  0  0  0  0  0
    0.9439    0.2177    0.0248 C   0  0  0  0  0  0  0  0  0  0  0  0
   -0.0366   -0.3890   -0.9916 C   0  0  0  0  0  0  0  0  0  0  0  0
   -1.1062    0.0297    0.0280 C   0  0  0  0  0  0  0  0  0  0  0  0
   -2.3982    0.4793   -0.5796 C   0  0  0  0  0  0  0  0  0  0  0  0
   -1.3547   -1.0628    1.0378 C   0  0  0  0  0  0  0  0  0  0  0  0
   -0.1721    1.0888    0.4562 C   0  0  0  0  0  0  0  0  0  0  0  0
   -0.2680    2.1840    0.9436 O   0  0  0  0  0  0  0  0  0  0  0  0
    3.2598    0.4124    1.0360 H   0  0  0  0  0  0  0  0  0  0  0  0
    4.0408    0.7633   -0.5235 H   0  0  0  0  0  0  0  0  0  0  0  0
    3.2573   -0.8235   -0.3085 H   0  0  0  0  0  0  0  0  0  0  0  0
    1.2432   -0.5570    0.7596 H   0  0  0  0  0  0  0  0  0  0  0  0
   -0.0696    0.1899   -1.9341 H   0  0  0  0  0  0  0  0  0  0  0  0
    0.0363   -1.4690   -1.1068 H   0  0  0  0  0  0  0  0  0  0  0  0
   -3.1785    0.4117    0.2323 H   0  0  0  0  0  0  0  0  0  0  0  0
   -2.3761    1.5358   -0.8862 H   0  0  0  0  0  0  0  0  0  0  0  0
   -2.7204   -0.1380   -1.4409 H   0  0  0  0  0  0  0  0  0  0  0  0
   -0.5353   -1.1555    1.7770 H   0  0  0  0  0  0  0  0  0  0  0  0
   -2.2714   -0.7862    1.5990 H   0  0  0  0  0  0  0  0  0  0  0  0
   -1.4871   -2.0293    0.5162 H   0  0  0  0  0  0  0  0  0  0  0  0
  1  2  1  0
  2  3  1  0
  3  4  1  0
  4  5  1  0
  5  6  1  0
  5  7  1  0
  5  8  1  0
  8  9  2  0
  8  3  1  0
  1 10  1  0
  1 11  1  0
  1 12  1  0
  3 13  1  0
  4 14  1  0
  4 15  1  0
  6 16  1  0
  6 17  1  0
  6 18  1  0
  7 19  1  0
  7 20  1  0
  7 21  1  0
M  END
