
     RDKit          3D

 17 17  0  0  0  0  0  0  0  0999 V2000
    2.2144    0.0167    0.5179 C   0  0  0  0  0  0  0  0  0  0  0  0
    1.0769   -0.6732    0.8073 O   0  0  0  0  0  0  0  0  0  0  0  0
   -0.0056   -0.3456    0.0330 C   0  0  0  0  0  0  0  0  0  0  0  0
    0.0688   -0.5575   -1.4192 C   0  0  0  0  0  0  0  0  0  0  0  0
    1.0569   -1.0289   -1.9118 O   0  0  0  0  0  0  0  0  0  0  0  0
   -0.6144    0.9899    0.4487 C   0  0  0  0  0  0  0  0  0  0  0  0
   -1.9546    0.3199    0.6308 C   0  0  0  0  0  0  0  0  0  0  0  0
   -1.2707   -0.9965    0.5400 C   0  0  0  0  0  0  0  0  0  0  0  0
   -1.6576   -2.1168    0.7961 O   0  0  0  0  0  0  0  0  0  0  0  0
    2.6011   -0.0943   -0.4896 H   0  0  0  0  0  0  0  0  0  0  0  0
    2.1533    1.1028    0.7342 H   0  0  0  0  0  0  0  0  0  0  0  0
    3.0350   -0.3540    1.2015 H   0  0  0  0  0  0  0  0  0  0  0  0
   -0.7603   -0.2906   -2.0380 H   0  0  0  0  0  0  0  0  0  0  0  0
   -0.2279    1.3157    1.4233 H   0  0  0  0  0  0  0  0  0  0  0  0
   -0.6410    1.7526   -0.3576 H   0  0  0  0  0  0  0  0  0  0  0  0
   -2.6655    0.5333   -0.1921 H   0  0  0  0  0  0  0  0  0  0  0  0
   -2.4088    0.4264    1.6357 H   0  0  0  0  0  0  0  0  0  0  0  0
  1  2  1  0
  2  3  1  0
  3  4  1  0
  4  5  2  0
  3  6  1  0
  6  7  1  0
  7  8  1  0
  8  9  2  0
  8  3  1  0
  1 10  1  0
  1 11  1  0
  1 12  1  0
  4 13  1  0
  6 14  1  0
  6 15  1  0
  7 16  1  0
  7 17  1  0
M  END
