
     RDKit          3D

 19 20  0  0  0  0  0  0  0  0999 V2000
    2.7345    0.5404    0.0031 C   0  0  0  0  0  0  0  0  0  0  0  0
    1.5280    0.4251    0.6770 O   0  0  0  0  0  0  0  0  0  0  0  0
    0.4919   -0.0048   -0.1193 C   0  0  0  0  0  0  0  0  0  0  0  0
   -0.7614    0.8136    0.0869 C   0  0  0  0  0  0  0  0  0  0  0  0
   -1.4059    1.3215   -1.1386 C   0  0  0  0  0  0  0  0  0  0  0  0
   -2.1481    2.2749   -1.0949 O   0  0  0  0  0  0  0  0  0  0  0  0
   -1.4983   -0.4225    0.5858 C   0  0  0  0  0  0  0  0  0  0  0  0
   -1.4305   -1.6470   -0.2664 C   0  0  0  0  0  0  0  0  0  0  0  0
   -0.2494   -1.1855    0.4804 C   0  0  0  0  0  0  0  0  0  0  0  0
    2.6190    1.2747   -0.8251 H   0  0  0  0  0  0  0  0  0  0  0  0
    3.4719    0.9871    0.7025 H   0  0  0  0  0  0  0  0  0  0  0  0
    3.1524   -0.4236   -0.3233 H   0  0  0  0  0  0  0  0  0  0  0  0
    0.7333   -0.2047   -1.1806 H   0  0  0  0  0  0  0  0  0  0  0  0
   -0.6793    1.5483    0.9185 H   0  0  0  0  0  0  0  0  0  0  0  0
   -1.2239    0.8501   -2.0871 H   0  0  0  0  0  0  0  0  0  0  0  0
   -2.1184   -0.3651    1.4794 H   0  0  0  0  0  0  0  0  0  0  0  0
   -2.0380   -2.4963    0.1045 H   0  0  0  0  0  0  0  0  0  0  0  0
   -1.3762   -1.5337   -1.3794 H   0  0  0  0  0  0  0  0  0  0  0  0
    0.1983   -1.7526    1.3072 H   0  0  0  0  0  0  0  0  0  0  0  0
  1  2  1  0
  2  3  1  0
  3  4  1  0
  4  5  1  0
  5  6  2  0
  4  7  1  0
  7  8  1  0
  8  9  1  0
  9  3  1  0
  9  7  1  0
  1 10  1  0
  1 11  1  0
  1 12  1  0
  3 13  1  0
  4 14  1  0
  5 15  1  0
  7 16  1  0
  8 17  1  0
  8 18  1  0
  9 19  1  0
M  END
