
     RDKit          3D

 21 22  0  0  0  0  0  0  0  0999 V2000
    2.7496   -0.0912    0.0803 C   0  0  0  0  0  0  0  0  0  0  0  0
    1.5152   -0.6612   -0.1940 O   0  0  0  0  0  0  0  0  0  0  0  0
    0.4830   -0.0996    0.5450 C   0  0  0  0  0  0  0  0  0  0  0  0
   -0.1056   -1.2048    1.3604 C   0  0  0  0  0  0  0  0  0  0  0  0
   -1.1808   -1.6918    0.7763 C   0  0  0  0  0  0  0  0  0  0  0  0
   -1.4415   -0.9697   -0.5026 C   0  0  0  0  0  0  0  0  0  0  0  0
   -0.6880    0.3006   -0.3180 C   0  0  0  0  0  0  0  0  0  0  0  0
   -0.6008    1.3559   -1.3280 C   0  0  0  0  0  0  0  0  0  0  0  0
   -1.4192    1.5508   -0.1222 C   0  0  0  0  0  0  0  0  0  0  0  0
    3.4911   -0.6144   -0.5624 H   0  0  0  0  0  0  0  0  0  0  0  0
    2.7749    0.9725   -0.2318 H   0  0  0  0  0  0  0  0  0  0  0  0
    3.0291   -0.1281    1.1446 H   0  0  0  0  0  0  0  0  0  0  0  0
    0.7963    0.6975    1.2232 H   0  0  0  0  0  0  0  0  0  0  0  0
    0.3042   -1.5502    2.3020 H   0  0  0  0  0  0  0  0  0  0  0  0
   -1.8060   -2.4909    1.1349 H   0  0  0  0  0  0  0  0  0  0  0  0
   -2.5228   -0.7982   -0.6537 H   0  0  0  0  0  0  0  0  0  0  0  0
   -1.0802   -1.5787   -1.3337 H   0  0  0  0  0  0  0  0  0  0  0  0
    0.3605    1.9335   -1.3506 H   0  0  0  0  0  0  0  0  0  0  0  0
   -1.0190    1.2077   -2.3322 H   0  0  0  0  0  0  0  0  0  0  0  0
   -2.5294    1.5521   -0.2891 H   0  0  0  0  0  0  0  0  0  0  0  0
   -1.1106    2.3082    0.6516 H   0  0  0  0  0  0  0  0  0  0  0  0
  1  2  1  0
  2  3  1  0
  3  4  1  0
  4  5  2  0
  5  6  1  0
  6  7  1  0
  7  8  1  0
  8  9  1  0
  7  3  1  0
  9  7  1  0
  1 10  1  0
  1 11  1  0
  1 12  1  0
  3 13  1  0
  4 14  1  0
  5 15  1  0
  6 16  1  0
  6 17  1  0
  8 18  1  0
  8 19  1  0
  9 20  1  0
  9 21  1  0
M  END
