
     RDKit          3D

 21 21  0  0  0  0  0  0  0  0999 V2000
   -1.7622    1.0495   -0.9811 C   0  0  0  0  0  0  0  0  0  0  0  0
   -0.8076    0.9943   -0.0118 O   0  0  0  0  0  0  0  0  0  0  0  0
   -0.2559   -0.1900    0.2922 C   0  0  0  0  0  0  0  0  0  0  0  0
   -1.1666   -1.2681    0.7830 C   0  0  0  0  0  0  0  0  0  0  0  0
    0.6485   -0.6480   -0.8228 C   0  0  0  0  0  0  0  0  0  0  0  0
    1.7756    0.3744   -0.7327 C   0  0  0  0  0  0  0  0  0  0  0  0
    1.8028    0.8266    0.6759 C   0  0  0  0  0  0  0  0  0  0  0  0
    2.5442    1.6623    1.1329 O   0  0  0  0  0  0  0  0  0  0  0  0
    0.7622    0.0699    1.4081 C   0  0  0  0  0  0  0  0  0  0  0  0
   -1.4807    0.7225   -1.9727 H   0  0  0  0  0  0  0  0  0  0  0  0
   -2.1173    2.1011   -1.0605 H   0  0  0  0  0  0  0  0  0  0  0  0
   -2.6594    0.4761   -0.6028 H   0  0  0  0  0  0  0  0  0  0  0  0
   -1.4887   -1.0896    1.8355 H   0  0  0  0  0  0  0  0  0  0  0  0
   -2.0237   -1.4826    0.1417 H   0  0  0  0  0  0  0  0  0  0  0  0
   -0.5620   -2.2079    0.8205 H   0  0  0  0  0  0  0  0  0  0  0  0
    1.0080   -1.6707   -0.7169 H   0  0  0  0  0  0  0  0  0  0  0  0
    0.0968   -0.5542   -1.7677 H   0  0  0  0  0  0  0  0  0  0  0  0
    2.7329   -0.1489   -0.9532 H   0  0  0  0  0  0  0  0  0  0  0  0
    1.5966    1.1735   -1.4579 H   0  0  0  0  0  0  0  0  0  0  0  0
    0.2263    0.6880    2.1546 H   0  0  0  0  0  0  0  0  0  0  0  0
    1.1303   -0.8783    1.8357 H   0  0  0  0  0  0  0  0  0  0  0  0
  1  2  1  0
  2  3  1  0
  3  4  1  0
  3  5  1  0
  5  6  1  0
  6  7  1  0
  7  8  2  0
  7  9  1  0
  9  3  1  0
  1 10  1  0
  1 11  1  0
  1 12  1  0
  4 13  1  0
  4 14  1  0
  4 15  1  0
  5 16  1  0
  5 17  1  0
  6 18  1  0
  6 19  1  0
  9 20  1  0
  9 21  1  0
M  END
