
     RDKit          3D

 17 17  0  0  0  0  0  0  0  0999 V2000
   -2.5644   -0.2764   -0.2629 C   0  0  0  0  0  0  0  0  0  0  0  0
   -1.3143   -0.0528   -0.8172 O   0  0  0  0  0  0  0  0  0  0  0  0
   -0.2982   -0.0705    0.1351 C   0  0  0  0  0  0  0  0  0  0  0  0
    0.4174    1.2241    0.1681 C   0  0  0  0  0  0  0  0  0  0  0  0
    1.7101    1.3703    0.2088 C   0  0  0  0  0  0  0  0  0  0  0  0
    2.5626    0.1833    0.2247 C   0  0  0  0  0  0  0  0  0  0  0  0
    3.8122    0.3111    0.2639 O   0  0  0  0  0  0  0  0  0  0  0  0
    1.9306   -1.0446    0.1949 O   0  0  0  0  0  0  0  0  0  0  0  0
    0.6100   -1.2283   -0.2106 C   0  0  0  0  0  0  0  0  0  0  0  0
   -2.8538    0.4735    0.4954 H   0  0  0  0  0  0  0  0  0  0  0  0
   -3.3030   -0.1894   -1.0865 H   0  0  0  0  0  0  0  0  0  0  0  0
   -2.6643   -1.3114    0.1522 H   0  0  0  0  0  0  0  0  0  0  0  0
   -0.7231   -0.2632    1.1445 H   0  0  0  0  0  0  0  0  0  0  0  0
   -0.2036    2.1191    0.1567 H   0  0  0  0  0  0  0  0  0  0  0  0
    2.1258    2.3687    0.2301 H   0  0  0  0  0  0  0  0  0  0  0  0
    0.5225   -1.4612   -1.3059 H   0  0  0  0  0  0  0  0  0  0  0  0
    0.2337   -2.1523    0.3086 H   0  0  0  0  0  0  0  0  0  0  0  0
  1  2  1  0
  2  3  1  0
  3  4  1  0
  4  5  2  0
  5  6  1  0
  6  7  2  0
  6  8  1  0
  8  9  1  0
  9  3  1  0
  1 10  1  0
  1 11  1  0
  1 12  1  0
  3 13  1  0
  4 14  1  0
  5 15  1  0
  9 16  1  0
  9 17  1  0
M  END
