
     RDKit          3D

 23 23  0  0  0  0  0  0  0  0999 V2000
    2.2539    0.6594    0.9724 C   0  0  0  0  0  0  0  0  0  0  0  0
    1.4420   -0.4436    0.9099 O   0  0  0  0  0  0  0  0  0  0  0  0
    0.5004   -0.4175   -0.0835 C   0  0  0  0  0  0  0  0  0  0  0  0
    1.0465   -0.3124   -1.4908 C   0  0  0  0  0  0  0  0  0  0  0  0
   -0.4786   -1.5825    0.1023 C   0  0  0  0  0  0  0  0  0  0  0  0
   -1.5268   -0.6472    0.6437 C   0  0  0  0  0  0  0  0  0  0  0  0
   -1.7512   -0.7355    2.0005 O   0  0  0  0  0  0  0  0  0  0  0  0
   -0.6262    0.5088    0.2464 C   0  0  0  0  0  0  0  0  0  0  0  0
   -1.2249    1.2829   -0.8810 C   0  0  0  0  0  0  0  0  0  0  0  0
    1.7164    1.6108    1.1446 H   0  0  0  0  0  0  0  0  0  0  0  0
    2.8988    0.8105    0.0906 H   0  0  0  0  0  0  0  0  0  0  0  0
    2.9399    0.5197    1.8432 H   0  0  0  0  0  0  0  0  0  0  0  0
    1.1451    0.7314   -1.8381 H   0  0  0  0  0  0  0  0  0  0  0  0
    2.0491   -0.8268   -1.4733 H   0  0  0  0  0  0  0  0  0  0  0  0
    0.4408   -0.8516   -2.2290 H   0  0  0  0  0  0  0  0  0  0  0  0
   -0.7358   -2.0221   -0.8785 H   0  0  0  0  0  0  0  0  0  0  0  0
   -0.1743   -2.3083    0.8792 H   0  0  0  0  0  0  0  0  0  0  0  0
   -2.4890   -0.6910    0.0884 H   0  0  0  0  0  0  0  0  0  0  0  0
   -2.6802   -0.9612    2.2048 H   0  0  0  0  0  0  0  0  0  0  0  0
   -0.4549    1.1697    1.1198 H   0  0  0  0  0  0  0  0  0  0  0  0
   -2.3178    1.4251   -0.6358 H   0  0  0  0  0  0  0  0  0  0  0  0
   -0.7918    2.3028   -0.8833 H   0  0  0  0  0  0  0  0  0  0  0  0
   -1.1813    0.7784   -1.8525 H   0  0  0  0  0  0  0  0  0  0  0  0
  1  2  1  0
  2  3  1  0
  3  4  1  0
  3  5  1  0
  5  6  1  0
  6  7  1  0
  6  8  1  0
  8  9  1  0
  8  3  1  0
  1 10  1  0
  1 11  1  0
  1 12  1  0
  4 13  1  0
  4 14  1  0
  4 15  1  0
  5 16  1  0
  5 17  1  0
  6 18  1  0
  7 19  1  0
  8 20  1  0
  9 21  1  0
  9 22  1  0
  9 23  1  0
M  END
