
     RDKit          3D

 19 22  0  0  0  0  0  0  0  0999 V2000
    2.5794    0.4399    0.4254 C   0  0  0  0  0  0  0  0  0  0  0  0
    1.5109    0.7880   -0.3541 O   0  0  0  0  0  0  0  0  0  0  0  0
    0.5093   -0.0928   -0.4454 C   0  0  0  0  0  0  0  0  0  0  0  0
   -0.6586    0.3786   -1.3479 C   0  0  0  0  0  0  0  0  0  0  0  0
   -1.9630    0.1581   -0.5397 C   0  0  0  0  0  0  0  0  0  0  0  0
   -1.6426   -0.6158    0.8282 C   0  0  0  0  0  0  0  0  0  0  0  0
   -1.2184    0.4062    0.4440 C   0  0  0  0  0  0  0  0  0  0  0  0
   -0.3300   -0.9160   -0.0398 C   0  0  0  0  0  0  0  0  0  0  0  0
   -0.0417   -0.5023    1.0038 C   0  0  0  0  0  0  0  0  0  0  0  0
    3.0153   -0.5024   -0.0033 H   0  0  0  0  0  0  0  0  0  0  0  0
    3.3228    1.2755    0.3680 H   0  0  0  0  0  0  0  0  0  0  0  0
    2.2625    0.3238    1.4625 H   0  0  0  0  0  0  0  0  0  0  0  0
   -0.6909   -0.2571   -2.2452 H   0  0  0  0  0  0  0  0  0  0  0  0
   -0.5507    1.4280   -1.6219 H   0  0  0  0  0  0  0  0  0  0  0  0
   -2.8112   -0.2830   -1.0328 H   0  0  0  0  0  0  0  0  0  0  0  0
   -2.0156   -1.6529    0.8662 H   0  0  0  0  0  0  0  0  0  0  0  0
   -0.7542    1.2807    0.8370 H   0  0  0  0  0  0  0  0  0  0  0  0
   -0.7917   -1.7902   -0.4415 H   0  0  0  0  0  0  0  0  0  0  0  0
    0.2682    0.1338    1.8366 H   0  0  0  0  0  0  0  0  0  0  0  0
  1  2  1  0
  2  3  1  0
  3  4  1  0
  4  5  1  0
  5  6  1  0
  6  7  1  0
  7  8  1  0
  8  9  1  0
  8  3  1  0
  9  3  1  0
  7  5  1  0
  9  6  1  0
  1 10  1  0
  1 11  1  0
  1 12  1  0
  4 13  1  0
  4 14  1  0
  5 15  1  0
  6 16  1  0
  7 17  1  0
  8 18  1  0
  9 19  1  0
M  END
