
     RDKit          3D

 21 21  0  0  0  0  0  0  0  0999 V2000
    2.7227   -1.4407    0.2414 C   0  0  0  0  0  0  0  0  0  0  0  0
    1.8009   -0.4853    0.7053 O   0  0  0  0  0  0  0  0  0  0  0  0
    0.7491   -0.3510   -0.1620 C   0  0  0  0  0  0  0  0  0  0  0  0
    0.1442    0.9855   -0.3627 C   0  0  0  0  0  0  0  0  0  0  0  0
    0.4994    2.1384    0.5451 C   0  0  0  0  0  0  0  0  0  0  0  0
   -0.6314   -0.1075    0.3179 C   0  0  0  0  0  0  0  0  0  0  0  0
   -1.8131   -0.6272   -0.4450 C   0  0  0  0  0  0  0  0  0  0  0  0
   -3.0781   -0.2614    0.2245 C   0  0  0  0  0  0  0  0  0  0  0  0
   -4.1409   -0.6063   -0.2650 O   0  0  0  0  0  0  0  0  0  0  0  0
    3.1121   -1.1243   -0.7404 H   0  0  0  0  0  0  0  0  0  0  0  0
    2.1337   -2.3938    0.1285 H   0  0  0  0  0  0  0  0  0  0  0  0
    3.5248   -1.6127    0.9703 H   0  0  0  0  0  0  0  0  0  0  0  0
    0.8030   -1.0129   -1.0747 H   0  0  0  0  0  0  0  0  0  0  0  0
   -0.1009    1.2817   -1.3886 H   0  0  0  0  0  0  0  0  0  0  0  0
    0.4237    1.8686    1.6195 H   0  0  0  0  0  0  0  0  0  0  0  0
    1.4614    2.6067    0.2827 H   0  0  0  0  0  0  0  0  0  0  0  0
   -0.2836    2.9292    0.3780 H   0  0  0  0  0  0  0  0  0  0  0  0
   -0.7762   -0.0848    1.4115 H   0  0  0  0  0  0  0  0  0  0  0  0
   -1.7301   -1.7498   -0.5472 H   0  0  0  0  0  0  0  0  0  0  0  0
   -1.7804   -0.2631   -1.5066 H   0  0  0  0  0  0  0  0  0  0  0  0
   -3.0404    0.3106    1.1445 H   0  0  0  0  0  0  0  0  0  0  0  0
  1  2  1  0
  2  3  1  0
  3  4  1  0
  4  5  1  0
  4  6  1  0
  6  7  1  0
  7  8  1  0
  8  9  2  0
  6  3  1  0
  1 10  1  0
  1 11  1  0
  1 12  1  0
  3 13  1  0
  4 14  1  0
  5 15  1  0
  5 16  1  0
  5 17  1  0
  6 18  1  0
  7 19  1  0
  7 20  1  0
  8 21  1  0
M  END
