
     RDKit          3D

 23 23  0  0  0  0  0  0  0  0999 V2000
    2.2937   -0.1120    0.7785 C   0  0  0  0  0  0  0  0  0  0  0  0
    0.9234   -0.0815    0.9015 O   0  0  0  0  0  0  0  0  0  0  0  0
    0.2412   -0.1049   -0.2865 C   0  0  0  0  0  0  0  0  0  0  0  0
    0.4857   -1.3021   -1.1356 C   0  0  0  0  0  0  0  0  0  0  0  0
    0.4302    1.1924   -1.0809 C   0  0  0  0  0  0  0  0  0  0  0  0
   -0.2004    2.1109   -0.2832 O   0  0  0  0  0  0  0  0  0  0  0  0
   -1.3047    1.5312    0.2913 C   0  0  0  0  0  0  0  0  0  0  0  0
   -1.2425    0.0456    0.0215 C   0  0  0  0  0  0  0  0  0  0  0  0
   -1.6826   -0.7914    1.1715 C   0  0  0  0  0  0  0  0  0  0  0  0
    2.7194   -0.0886    1.8094 H   0  0  0  0  0  0  0  0  0  0  0  0
    2.7058    0.7942    0.2691 H   0  0  0  0  0  0  0  0  0  0  0  0
    2.6431   -1.0446    0.2944 H   0  0  0  0  0  0  0  0  0  0  0  0
    1.4228   -1.2648   -1.7123 H   0  0  0  0  0  0  0  0  0  0  0  0
   -0.3592   -1.3432   -1.8861 H   0  0  0  0  0  0  0  0  0  0  0  0
    0.4020   -2.2022   -0.5315 H   0  0  0  0  0  0  0  0  0  0  0  0
   -0.1645    1.0474   -2.0179 H   0  0  0  0  0  0  0  0  0  0  0  0
    1.4770    1.4254   -1.2593 H   0  0  0  0  0  0  0  0  0  0  0  0
   -2.2556    1.9045   -0.1242 H   0  0  0  0  0  0  0  0  0  0  0  0
   -1.2865    1.6380    1.4152 H   0  0  0  0  0  0  0  0  0  0  0  0
   -1.7914   -0.2428   -0.8944 H   0  0  0  0  0  0  0  0  0  0  0  0
   -2.7990   -0.8734    1.1238 H   0  0  0  0  0  0  0  0  0  0  0  0
   -1.3432   -0.4042    2.1435 H   0  0  0  0  0  0  0  0  0  0  0  0
   -1.3147   -1.8339    0.9923 H   0  0  0  0  0  0  0  0  0  0  0  0
  1  2  1  0
  2  3  1  0
  3  4  1  0
  3  5  1  0
  5  6  1  0
  6  7  1  0
  7  8  1  0
  8  9  1  0
  8  3  1  0
  1 10  1  0
  1 11  1  0
  1 12  1  0
  4 13  1  0
  4 14  1  0
  4 15  1  0
  5 16  1  0
  5 17  1  0
  7 18  1  0
  7 19  1  0
  8 20  1  0
  9 21  1  0
  9 22  1  0
  9 23  1  0
M  END
