
     RDKit          3D

 21 21  0  0  0  0  0  0  0  0999 V2000
    2.1272    0.7614    0.8184 C   0  0  0  0  0  0  0  0  0  0  0  0
    1.2196   -0.2264    1.1506 O   0  0  0  0  0  0  0  0  0  0  0  0
    0.3058   -0.4956    0.1637 C   0  0  0  0  0  0  0  0  0  0  0  0
    0.8980   -0.9461   -1.0857 C   0  0  0  0  0  0  0  0  0  0  0  0
    0.2993   -1.2448   -2.1021 O   0  0  0  0  0  0  0  0  0  0  0  0
   -0.6803   -1.5570    0.6790 C   0  0  0  0  0  0  0  0  0  0  0  0
   -1.7861   -0.6972    0.0628 C   0  0  0  0  0  0  0  0  0  0  0  0
   -0.8282    0.4618    0.1346 C   0  0  0  0  0  0  0  0  0  0  0  0
   -0.8978    1.4573   -0.9659 C   0  0  0  0  0  0  0  0  0  0  0  0
    2.8095    0.8878    1.6912 H   0  0  0  0  0  0  0  0  0  0  0  0
    1.6472    1.7523    0.6663 H   0  0  0  0  0  0  0  0  0  0  0  0
    2.7720    0.4900   -0.0426 H   0  0  0  0  0  0  0  0  0  0  0  0
    1.9785   -1.0347   -1.1482 H   0  0  0  0  0  0  0  0  0  0  0  0
   -0.5572   -2.5391    0.2248 H   0  0  0  0  0  0  0  0  0  0  0  0
   -0.7310   -1.6200    1.7766 H   0  0  0  0  0  0  0  0  0  0  0  0
   -2.6565   -0.6421    0.7530 H   0  0  0  0  0  0  0  0  0  0  0  0
   -2.0559   -1.0380   -0.9444 H   0  0  0  0  0  0  0  0  0  0  0  0
   -0.9399    0.9678    1.1193 H   0  0  0  0  0  0  0  0  0  0  0  0
   -0.3058    2.3502   -0.6630 H   0  0  0  0  0  0  0  0  0  0  0  0
   -0.6553    1.0858   -1.9584 H   0  0  0  0  0  0  0  0  0  0  0  0
   -1.9631    1.8264   -1.0196 H   0  0  0  0  0  0  0  0  0  0  0  0
  1  2  1  0
  2  3  1  0
  3  4  1  0
  4  5  2  0
  3  6  1  0
  6  7  1  0
  7  8  1  0
  8  9  1  0
  8  3  1  0
  1 10  1  0
  1 11  1  0
  1 12  1  0
  4 13  1  0
  6 14  1  0
  6 15  1  0
  7 16  1  0
  7 17  1  0
  8 18  1  0
  9 19  1  0
  9 20  1  0
  9 21  1  0
M  END
