
     RDKit          3D

 19 19  0  0  0  0  0  0  0  0999 V2000
   -2.4274   -0.3982    2.3052 C   0  0  0  0  0  0  0  0  0  0  0  0
   -2.1943    0.5103    1.3016 O   0  0  0  0  0  0  0  0  0  0  0  0
   -0.9195    0.5543    0.7641 C   0  0  0  0  0  0  0  0  0  0  0  0
   -0.6224    1.6819   -0.1271 C   0  0  0  0  0  0  0  0  0  0  0  0
   -0.8178    0.3021   -0.7107 C   0  0  0  0  0  0  0  0  0  0  0  0
    0.4810   -0.2662   -1.1945 C   0  0  0  0  0  0  0  0  0  0  0  0
    1.5159   -0.6992   -1.5705 C   0  0  0  0  0  0  0  0  0  0  0  0
    2.8025   -1.2317   -2.0211 C   0  0  0  0  0  0  0  0  0  0  0  0
    3.8030   -0.2312   -1.9532 O   0  0  0  0  0  0  0  0  0  0  0  0
   -1.7442   -0.4192    3.1541 H   0  0  0  0  0  0  0  0  0  0  0  0
   -3.4592   -0.0680    2.7908 H   0  0  0  0  0  0  0  0  0  0  0  0
   -2.7026   -1.4046    1.9576 H   0  0  0  0  0  0  0  0  0  0  0  0
   -0.1809   -0.0096    1.3785 H   0  0  0  0  0  0  0  0  0  0  0  0
   -1.4299    2.4234   -0.3647 H   0  0  0  0  0  0  0  0  0  0  0  0
    0.3806    2.1425   -0.2180 H   0  0  0  0  0  0  0  0  0  0  0  0
   -1.7018    0.0803   -1.3025 H   0  0  0  0  0  0  0  0  0  0  0  0
    3.1170   -2.0244   -1.3277 H   0  0  0  0  0  0  0  0  0  0  0  0
    2.7294   -1.6050   -3.0647 H   0  0  0  0  0  0  0  0  0  0  0  0
    3.3706    0.6623   -1.8730 H   0  0  0  0  0  0  0  0  0  0  0  0
  1  2  1  0
  2  3  1  0
  3  4  1  0
  4  5  1  0
  5  6  1  0
  6  7  3  0
  7  8  1  0
  8  9  1  0
  5  3  1  0
  1 10  1  0
  1 11  1  0
  1 12  1  0
  3 13  1  0
  4 14  1  0
  4 15  1  0
  5 16  1  0
  8 17  1  0
  8 18  1  0
  9 19  1  0
M  END
