
     RDKit          3D

 19 19  0  0  0  0  0  0  0  0999 V2000
   -1.8689    1.4367   -0.3145 C   0  0  0  0  0  0  0  0  0  0  0  0
   -0.8105    0.9569    0.4777 O   0  0  0  0  0  0  0  0  0  0  0  0
   -0.6887   -0.3835    0.2063 C   0  0  0  0  0  0  0  0  0  0  0  0
   -0.8070   -1.1348    1.5505 C   0  0  0  0  0  0  0  0  0  0  0  0
    0.5605   -0.9018    1.7024 O   0  0  0  0  0  0  0  0  0  0  0  0
    0.6534   -1.0214    0.3210 C   0  0  0  0  0  0  0  0  0  0  0  0
    1.8200   -0.3860   -0.3331 C   0  0  0  0  0  0  0  0  0  0  0  0
    2.1588    0.9709    0.0983 C   0  0  0  0  0  0  0  0  0  0  0  0
    1.5100    1.9467   -0.2250 O   0  0  0  0  0  0  0  0  0  0  0  0
   -2.0387    2.5118   -0.1703 H   0  0  0  0  0  0  0  0  0  0  0  0
   -2.8336    0.8994   -0.0544 H   0  0  0  0  0  0  0  0  0  0  0  0
   -1.6509    1.1432   -1.3641 H   0  0  0  0  0  0  0  0  0  0  0  0
   -1.3867   -0.7906   -0.5513 H   0  0  0  0  0  0  0  0  0  0  0  0
   -1.0796   -2.1850    1.3018 H   0  0  0  0  0  0  0  0  0  0  0  0
   -1.4742   -0.6294    2.2767 H   0  0  0  0  0  0  0  0  0  0  0  0
    0.5892   -2.0997    0.0599 H   0  0  0  0  0  0  0  0  0  0  0  0
    2.6994   -1.0963   -0.2446 H   0  0  0  0  0  0  0  0  0  0  0  0
    1.6257   -0.3614   -1.4386 H   0  0  0  0  0  0  0  0  0  0  0  0
    3.0218    1.1245    0.7310 H   0  0  0  0  0  0  0  0  0  0  0  0
  1  2  1  0
  2  3  1  0
  3  4  1  0
  4  5  1  0
  5  6  1  0
  6  7  1  0
  7  8  1  0
  8  9  2  0
  6  3  1  0
  1 10  1  0
  1 11  1  0
  1 12  1  0
  3 13  1  0
  4 14  1  0
  4 15  1  0
  6 16  1  0
  7 17  1  0
  7 18  1  0
  8 19  1  0
M  END
