
     RDKit          3D

 19 20  0  0  0  0  0  0  0  0999 V2000
   -2.5659   -0.3217   -0.3919 C   0  0  0  0  0  0  0  0  0  0  0  0
   -1.3495   -0.4513   -1.0503 O   0  0  0  0  0  0  0  0  0  0  0  0
   -0.2673   -0.2193   -0.2236 C   0  0  0  0  0  0  0  0  0  0  0  0
   -0.1068    1.1108    0.4571 C   0  0  0  0  0  0  0  0  0  0  0  0
    1.3476    1.3747    0.5463 C   0  0  0  0  0  0  0  0  0  0  0  0
    1.8514    2.3185    1.1271 O   0  0  0  0  0  0  0  0  0  0  0  0
    2.0966    0.3343   -0.1665 C   0  0  0  0  0  0  0  0  0  0  0  0
    1.0721   -0.6337   -0.6794 C   0  0  0  0  0  0  0  0  0  0  0  0
    0.3569   -1.4177    0.3882 C   0  0  0  0  0  0  0  0  0  0  0  0
   -2.6965    0.7113    0.0298 H   0  0  0  0  0  0  0  0  0  0  0  0
   -3.3617   -0.4368   -1.1566 H   0  0  0  0  0  0  0  0  0  0  0  0
   -2.7301   -1.0481    0.4016 H   0  0  0  0  0  0  0  0  0  0  0  0
   -0.5368    1.0646    1.4660 H   0  0  0  0  0  0  0  0  0  0  0  0
   -0.5659    1.8956   -0.1886 H   0  0  0  0  0  0  0  0  0  0  0  0
    2.7591   -0.2006    0.5697 H   0  0  0  0  0  0  0  0  0  0  0  0
    2.7203    0.7356   -0.9801 H   0  0  0  0  0  0  0  0  0  0  0  0
    1.2500   -1.0670   -1.6726 H   0  0  0  0  0  0  0  0  0  0  0  0
    0.0495   -2.4235    0.0796 H   0  0  0  0  0  0  0  0  0  0  0  0
    0.6771   -1.3257    1.4441 H   0  0  0  0  0  0  0  0  0  0  0  0
  1  2  1  0
  2  3  1  0
  3  4  1  0
  4  5  1  0
  5  6  2  0
  5  7  1  0
  7  8  1  0
  8  9  1  0
  8  3  1  0
  9  3  1  0
  1 10  1  0
  1 11  1  0
  1 12  1  0
  4 13  1  0
  4 14  1  0
  7 15  1  0
  7 16  1  0
  8 17  1  0
  9 18  1  0
  9 19  1  0
M  END
