
     RDKit          3D

 23 23  0  0  0  0  0  0  0  0999 V2000
    3.2797    1.1204   -0.0798 C   0  0  0  0  0  0  0  0  0  0  0  0
    2.3703    0.3979   -0.8668 O   0  0  0  0  0  0  0  0  0  0  0  0
    1.2988   -0.0502   -0.0973 C   0  0  0  0  0  0  0  0  0  0  0  0
    0.8749   -1.4713   -0.4499 C   0  0  0  0  0  0  0  0  0  0  0  0
    0.0153   -0.2291   -0.8029 C   0  0  0  0  0  0  0  0  0  0  0  0
   -1.2992   -0.1948   -0.1077 C   0  0  0  0  0  0  0  0  0  0  0  0
   -2.3984   -0.4117   -1.1272 C   0  0  0  0  0  0  0  0  0  0  0  0
   -1.5674    1.1009    0.6255 C   0  0  0  0  0  0  0  0  0  0  0  0
   -1.4295   -1.2357    0.8317 O   0  0  0  0  0  0  0  0  0  0  0  0
    3.7007    0.5213    0.7434 H   0  0  0  0  0  0  0  0  0  0  0  0
    4.0445    1.6184   -0.6800 H   0  0  0  0  0  0  0  0  0  0  0  0
    2.6677    1.9412    0.3875 H   0  0  0  0  0  0  0  0  0  0  0  0
    1.3435    0.2302    0.9719 H   0  0  0  0  0  0  0  0  0  0  0  0
    0.5504   -2.0738    0.4175 H   0  0  0  0  0  0  0  0  0  0  0  0
    1.3637   -1.9913   -1.2809 H   0  0  0  0  0  0  0  0  0  0  0  0
   -0.0092   -0.0099   -1.8914 H   0  0  0  0  0  0  0  0  0  0  0  0
   -2.2111   -1.3836   -1.6382 H   0  0  0  0  0  0  0  0  0  0  0  0
   -3.3558   -0.4412   -0.5403 H   0  0  0  0  0  0  0  0  0  0  0  0
   -2.4139    0.3905   -1.8905 H   0  0  0  0  0  0  0  0  0  0  0  0
   -1.3083    1.9883    0.0477 H   0  0  0  0  0  0  0  0  0  0  0  0
   -2.6522    1.1361    0.8634 H   0  0  0  0  0  0  0  0  0  0  0  0
   -1.0517    1.1010    1.6283 H   0  0  0  0  0  0  0  0  0  0  0  0
   -1.8129   -2.0536    0.4049 H   0  0  0  0  0  0  0  0  0  0  0  0
  1  2  1  0
  2  3  1  0
  3  4  1  0
  4  5  1  0
  5  6  1  0
  6  7  1  0
  6  8  1  0
  6  9  1  0
  5  3  1  0
  1 10  1  0
  1 11  1  0
  1 12  1  0
  3 13  1  0
  4 14  1  0
  4 15  1  0
  5 16  1  0
  7 17  1  0
  7 18  1  0
  7 19  1  0
  8 20  1  0
  8 21  1  0
  8 22  1  0
  9 23  1  0
M  END
