
     RDKit          3D

 17 18  0  0  0  0  0  0  0  0999 V2000
    2.1368    0.1836   -0.2704 C   0  0  0  0  0  0  0  0  0  0  0  0
    1.3894    0.6933    0.7232 O   0  0  0  0  0  0  0  0  0  0  0  0
    0.0295    0.4113    0.7543 C   0  0  0  0  0  0  0  0  0  0  0  0
   -0.1179   -1.0675    0.8427 C   0  0  0  0  0  0  0  0  0  0  0  0
    0.1075   -0.9988   -0.5544 O   0  0  0  0  0  0  0  0  0  0  0  0
   -0.7545    0.0323   -0.5156 C   0  0  0  0  0  0  0  0  0  0  0  0
   -2.1551   -0.4283   -0.4784 C   0  0  0  0  0  0  0  0  0  0  0  0
   -2.4099   -1.6163   -0.5541 O   0  0  0  0  0  0  0  0  0  0  0  0
   -0.6513    1.3870   -0.0476 C   0  0  0  0  0  0  0  0  0  0  0  0
    1.8515    0.4563   -1.3046 H   0  0  0  0  0  0  0  0  0  0  0  0
    3.1666    0.6620   -0.1635 H   0  0  0  0  0  0  0  0  0  0  0  0
    2.3795   -0.8941   -0.2348 H   0  0  0  0  0  0  0  0  0  0  0  0
   -1.0321   -1.4879    1.2063 H   0  0  0  0  0  0  0  0  0  0  0  0
    0.7334   -1.6237    1.2868 H   0  0  0  0  0  0  0  0  0  0  0  0
   -3.0268    0.2527   -0.3834 H   0  0  0  0  0  0  0  0  0  0  0  0
   -1.4792    1.9323    0.4712 H   0  0  0  0  0  0  0  0  0  0  0  0
   -0.1675    2.1058   -0.7778 H   0  0  0  0  0  0  0  0  0  0  0  0
  1  2  1  0
  2  3  1  0
  3  4  1  0
  4  5  1  0
  5  6  1  0
  6  7  1  0
  7  8  2  0
  6  9  1  0
  6  3  1  0
  9  3  1  0
  1 10  1  0
  1 11  1  0
  1 12  1  0
  4 13  1  0
  4 14  1  0
  7 15  1  0
  9 16  1  0
  9 17  1  0
M  END
