
     RDKit          3D

 18 18  0  0  0  0  0  0  0  0999 V2000
    2.1524    0.2604    0.2010 C   0  0  0  0  0  0  0  0  0  0  0  0
    0.9301    0.4689    0.7996 O   0  0  0  0  0  0  0  0  0  0  0  0
   -0.1024   -0.2710    0.2762 C   0  0  0  0  0  0  0  0  0  0  0  0
    0.0841   -1.7613    0.4230 C   0  0  0  0  0  0  0  0  0  0  0  0
   -0.4531    0.1030   -1.1139 C   0  0  0  0  0  0  0  0  0  0  0  0
   -1.4280    0.9991   -1.0232 C   0  0  0  0  0  0  0  0  0  0  0  0
   -1.7413    1.2353    0.4317 C   0  0  0  0  0  0  0  0  0  0  0  0
   -1.2573    0.0557    0.9877 O   0  0  0  0  0  0  0  0  0  0  0  0
    2.1283    0.5148   -0.8998 H   0  0  0  0  0  0  0  0  0  0  0  0
    2.8598    1.0077    0.6380 H   0  0  0  0  0  0  0  0  0  0  0  0
    2.5657   -0.7350    0.3619 H   0  0  0  0  0  0  0  0  0  0  0  0
    1.0263   -2.1357    0.0309 H   0  0  0  0  0  0  0  0  0  0  0  0
   -0.7450   -2.2461   -0.1486 H   0  0  0  0  0  0  0  0  0  0  0  0
   -0.1026   -2.0486    1.4919 H   0  0  0  0  0  0  0  0  0  0  0  0
    0.0116   -0.2933   -2.0086 H   0  0  0  0  0  0  0  0  0  0  0  0
   -1.9153    1.4794   -1.8717 H   0  0  0  0  0  0  0  0  0  0  0  0
   -2.8248    1.2698    0.6086 H   0  0  0  0  0  0  0  0  0  0  0  0
   -1.1886    2.0970    0.8154 H   0  0  0  0  0  0  0  0  0  0  0  0
  1  2  1  0
  2  3  1  0
  3  4  1  0
  3  5  1  0
  5  6  2  0
  6  7  1  0
  7  8  1  0
  8  3  1  0
  1  9  1  0
  1 10  1  0
  1 11  1  0
  4 12  1  0
  4 13  1  0
  4 14  1  0
  5 15  1  0
  6 16  1  0
  7 17  1  0
  7 18  1  0
M  END
