
     RDKit          3D

 21 22  0  0  0  0  0  0  0  0999 V2000
    2.3744    0.1623    0.4472 C   0  0  0  0  0  0  0  0  0  0  0  0
    1.2646    0.9101    0.6064 O   0  0  0  0  0  0  0  0  0  0  0  0
    0.0438    0.3988    0.1929 C   0  0  0  0  0  0  0  0  0  0  0  0
   -0.9803    1.4490    0.5106 C   0  0  0  0  0  0  0  0  0  0  0  0
   -0.9593    1.7172    1.9120 O   0  0  0  0  0  0  0  0  0  0  0  0
    0.0905   -0.1108   -1.2329 C   0  0  0  0  0  0  0  0  0  0  0  0
   -1.0714   -0.9237   -0.8206 C   0  0  0  0  0  0  0  0  0  0  0  0
   -1.2460   -1.9394    0.1868 C   0  0  0  0  0  0  0  0  0  0  0  0
   -0.2177   -1.0121    0.4801 C   0  0  0  0  0  0  0  0  0  0  0  0
    3.2243    0.8056    0.8584 H   0  0  0  0  0  0  0  0  0  0  0  0
    2.4596   -0.7449    1.1094 H   0  0  0  0  0  0  0  0  0  0  0  0
    2.7080   -0.0380   -0.5917 H   0  0  0  0  0  0  0  0  0  0  0  0
   -2.0260    1.1615    0.3332 H   0  0  0  0  0  0  0  0  0  0  0  0
   -0.7156    2.4278    0.0583 H   0  0  0  0  0  0  0  0  0  0  0  0
   -1.4636    2.5637    2.0135 H   0  0  0  0  0  0  0  0  0  0  0  0
    1.0163   -0.6837   -1.4436 H   0  0  0  0  0  0  0  0  0  0  0  0
   -0.1173    0.6650   -1.9834 H   0  0  0  0  0  0  0  0  0  0  0  0
   -1.9767   -0.3024   -0.8615 H   0  0  0  0  0  0  0  0  0  0  0  0
   -1.0951   -2.9941   -0.1869 H   0  0  0  0  0  0  0  0  0  0  0  0
   -2.1058   -1.9652    0.9248 H   0  0  0  0  0  0  0  0  0  0  0  0
    0.7934   -1.5468    0.3464 H   0  0  0  0  0  0  0  0  0  0  0  0
  1  2  1  0
  2  3  1  0
  3  4  1  0
  4  5  1  0
  3  6  1  0
  6  7  1  0
  7  8  1  0
  8  9  1  0
  9  3  1  0
  9  7  1  0
  1 10  1  0
  1 11  1  0
  1 12  1  0
  4 13  1  0
  4 14  1  0
  5 15  1  0
  6 16  1  0
  6 17  1  0
  7 18  1  0
  8 19  1  0
  8 20  1  0
  9 21  1  0
M  END
