
     RDKit          3D

 19 19  0  0  0  0  0  0  0  0999 V2000
    2.3344    0.0442   -0.0204 C   0  0  0  0  0  0  0  0  0  0  0  0
    1.3158   -0.8374   -0.2166 O   0  0  0  0  0  0  0  0  0  0  0  0
    0.0709   -0.4357    0.1422 C   0  0  0  0  0  0  0  0  0  0  0  0
   -0.8947   -1.5824   -0.1692 C   0  0  0  0  0  0  0  0  0  0  0  0
   -0.4032    0.8519   -0.4991 C   0  0  0  0  0  0  0  0  0  0  0  0
   -1.5990    1.1797    0.3652 C   0  0  0  0  0  0  0  0  0  0  0  0
   -1.2295    0.7016    1.6424 O   0  0  0  0  0  0  0  0  0  0  0  0
   -0.1012   -0.1056    1.5718 C   0  0  0  0  0  0  0  0  0  0  0  0
    0.5516   -0.4190    2.5836 O   0  0  0  0  0  0  0  0  0  0  0  0
    3.2906   -0.4389   -0.3647 H   0  0  0  0  0  0  0  0  0  0  0  0
    2.2398    0.9441   -0.6919 H   0  0  0  0  0  0  0  0  0  0  0  0
    2.3836    0.3287    1.0350 H   0  0  0  0  0  0  0  0  0  0  0  0
   -0.3520   -2.4891   -0.5060 H   0  0  0  0  0  0  0  0  0  0  0  0
   -1.5059   -1.8568    0.7084 H   0  0  0  0  0  0  0  0  0  0  0  0
   -1.5746   -1.3096   -1.0121 H   0  0  0  0  0  0  0  0  0  0  0  0
    0.3656    1.6163   -0.2696 H   0  0  0  0  0  0  0  0  0  0  0  0
   -0.6329    0.7568   -1.5602 H   0  0  0  0  0  0  0  0  0  0  0  0
   -2.5387    0.7594   -0.0109 H   0  0  0  0  0  0  0  0  0  0  0  0
   -1.7205    2.2917    0.3873 H   0  0  0  0  0  0  0  0  0  0  0  0
  1  2  1  0
  2  3  1  0
  3  4  1  0
  3  5  1  0
  5  6  1  0
  6  7  1  0
  7  8  1  0
  8  9  2  0
  8  3  1  0
  1 10  1  0
  1 11  1  0
  1 12  1  0
  4 13  1  0
  4 14  1  0
  4 15  1  0
  5 16  1  0
  5 17  1  0
  6 18  1  0
  6 19  1  0
M  END
