
     RDKit          3D

 25 25  0  0  0  0  0  0  0  0999 V2000
    2.4948   -0.8525   -0.4851 C   0  0  0  0  0  0  0  0  0  0  0  0
    1.2956   -0.8436    0.1711 O   0  0  0  0  0  0  0  0  0  0  0  0
    0.4518    0.1811   -0.1381 C   0  0  0  0  0  0  0  0  0  0  0  0
    0.9439    1.5808    0.1195 C   0  0  0  0  0  0  0  0  0  0  0  0
   -0.2005    0.1222   -1.5145 C   0  0  0  0  0  0  0  0  0  0  0  0
   -1.5223    0.4525   -0.8052 C   0  0  0  0  0  0  0  0  0  0  0  0
   -0.9341   -0.1168    0.4298 C   0  0  0  0  0  0  0  0  0  0  0  0
   -1.1828   -1.6161    0.5018 C   0  0  0  0  0  0  0  0  0  0  0  0
   -1.2554    0.5311    1.7249 C   0  0  0  0  0  0  0  0  0  0  0  0
    3.1071    0.0741   -0.2925 H   0  0  0  0  0  0  0  0  0  0  0  0
    3.1101   -1.6811   -0.0462 H   0  0  0  0  0  0  0  0  0  0  0  0
    2.4157   -1.0514   -1.5811 H   0  0  0  0  0  0  0  0  0  0  0  0
    1.7016    1.6336    0.9281 H   0  0  0  0  0  0  0  0  0  0  0  0
    1.4874    1.8944   -0.8200 H   0  0  0  0  0  0  0  0  0  0  0  0
    0.1212    2.2985    0.2413 H   0  0  0  0  0  0  0  0  0  0  0  0
   -0.1930   -0.8647   -1.9954 H   0  0  0  0  0  0  0  0  0  0  0  0
    0.0451    0.9493   -2.1882 H   0  0  0  0  0  0  0  0  0  0  0  0
   -2.3200   -0.1724   -1.2898 H   0  0  0  0  0  0  0  0  0  0  0  0
   -1.7745    1.5226   -0.8170 H   0  0  0  0  0  0  0  0  0  0  0  0
   -2.0413   -1.8882   -0.1320 H   0  0  0  0  0  0  0  0  0  0  0  0
   -1.4242   -1.9417    1.5301 H   0  0  0  0  0  0  0  0  0  0  0  0
   -0.2727   -2.1707    0.1911 H   0  0  0  0  0  0  0  0  0  0  0  0
   -0.8147   -0.1108    2.5409 H   0  0  0  0  0  0  0  0  0  0  0  0
   -0.8919    1.5568    1.8495 H   0  0  0  0  0  0  0  0  0  0  0  0
   -2.3469    0.5130    1.8770 H   0  0  0  0  0  0  0  0  0  0  0  0
  1  2  1  0
  2  3  1  0
  3  4  1  0
  3  5  1  0
  5  6  1  0
  6  7  1  0
  7  8  1  0
  7  9  1  0
  7  3  1  0
  1 10  1  0
  1 11  1  0
  1 12  1  0
  4 13  1  0
  4 14  1  0
  4 15  1  0
  5 16  1  0
  5 17  1  0
  6 18  1  0
  6 19  1  0
  8 20  1  0
  8 21  1  0
  8 22  1  0
  9 23  1  0
  9 24  1  0
  9 25  1  0
M  END
