
     RDKit          3D

 19 19  0  0  0  0  0  0  0  0999 V2000
    2.7348   -0.4995    0.2676 C   0  0  0  0  0  0  0  0  0  0  0  0
    1.4276   -0.6245    0.6879 O   0  0  0  0  0  0  0  0  0  0  0  0
    0.5815    0.1646   -0.0988 C   0  0  0  0  0  0  0  0  0  0  0  0
   -0.6402    0.6650    0.5278 C   0  0  0  0  0  0  0  0  0  0  0  0
   -1.3860    1.8780    0.0837 C   0  0  0  0  0  0  0  0  0  0  0  0
   -0.6871   -0.4866   -0.4823 C   0  0  0  0  0  0  0  0  0  0  0  0
   -1.1945   -0.2014   -1.7560 O   0  0  0  0  0  0  0  0  0  0  0  0
   -1.1499   -1.7448    0.0995 C   0  0  0  0  0  0  0  0  0  0  0  0
   -2.1553   -2.2635   -0.3449 O   0  0  0  0  0  0  0  0  0  0  0  0
    3.0027    0.5848    0.3682 H   0  0  0  0  0  0  0  0  0  0  0  0
    2.7185   -0.7090   -0.8362 H   0  0  0  0  0  0  0  0  0  0  0  0
    3.4289   -1.1579    0.7872 H   0  0  0  0  0  0  0  0  0  0  0  0
    1.0905    0.7478   -0.9051 H   0  0  0  0  0  0  0  0  0  0  0  0
   -0.7727    0.4456    1.6061 H   0  0  0  0  0  0  0  0  0  0  0  0
   -1.1054    2.1044   -0.9863 H   0  0  0  0  0  0  0  0  0  0  0  0
   -2.4755    1.5857    0.0170 H   0  0  0  0  0  0  0  0  0  0  0  0
   -1.3124    2.7427    0.7269 H   0  0  0  0  0  0  0  0  0  0  0  0
   -1.4865   -1.0090   -2.2213 H   0  0  0  0  0  0  0  0  0  0  0  0
   -0.6189   -2.2225    0.9146 H   0  0  0  0  0  0  0  0  0  0  0  0
  1  2  1  0
  2  3  1  0
  3  4  1  0
  4  5  1  0
  4  6  1  0
  6  7  1  0
  6  8  1  0
  8  9  2  0
  6  3  1  0
  1 10  1  0
  1 11  1  0
  1 12  1  0
  3 13  1  0
  4 14  1  0
  5 15  1  0
  5 16  1  0
  5 17  1  0
  7 18  1  0
  8 19  1  0
M  END
