
     RDKit          3D

 19 20  0  0  0  0  0  0  0  0999 V2000
    2.8729    0.4899    0.0970 C   0  0  0  0  0  0  0  0  0  0  0  0
    1.5489    0.4751    0.4471 O   0  0  0  0  0  0  0  0  0  0  0  0
    0.7113    0.1686   -0.6086 C   0  0  0  0  0  0  0  0  0  0  0  0
   -0.0636   -0.9733   -0.3538 O   0  0  0  0  0  0  0  0  0  0  0  0
   -1.3785   -0.5538   -0.1264 C   0  0  0  0  0  0  0  0  0  0  0  0
   -2.1051   -1.4576    0.8373 C   0  0  0  0  0  0  0  0  0  0  0  0
   -1.1276    0.8141    0.4204 C   0  0  0  0  0  0  0  0  0  0  0  0
   -1.0269    2.0012   -0.1046 O   0  0  0  0  0  0  0  0  0  0  0  0
   -0.3155    1.2080   -0.8601 C   0  0  0  0  0  0  0  0  0  0  0  0
    3.0873    1.2487   -0.7048 H   0  0  0  0  0  0  0  0  0  0  0  0
    3.2523   -0.5192   -0.1782 H   0  0  0  0  0  0  0  0  0  0  0  0
    3.4478    0.8622    0.9946 H   0  0  0  0  0  0  0  0  0  0  0  0
    1.3134    0.0030   -1.5088 H   0  0  0  0  0  0  0  0  0  0  0  0
   -1.9414   -0.4790   -1.0943 H   0  0  0  0  0  0  0  0  0  0  0  0
   -2.5847   -0.8004    1.6014 H   0  0  0  0  0  0  0  0  0  0  0  0
   -1.4533   -2.1881    1.3360 H   0  0  0  0  0  0  0  0  0  0  0  0
   -2.8915   -2.0257    0.2856 H   0  0  0  0  0  0  0  0  0  0  0  0
   -0.5065    0.7230    1.3669 H   0  0  0  0  0  0  0  0  0  0  0  0
   -0.8394    1.0032   -1.8466 H   0  0  0  0  0  0  0  0  0  0  0  0
  1  2  1  0
  2  3  1  0
  3  4  1  0
  4  5  1  0
  5  6  1  0
  5  7  1  0
  7  8  1  0
  8  9  1  0
  9  3  1  0
  9  7  1  0
  1 10  1  0
  1 11  1  0
  1 12  1  0
  3 13  1  0
  5 14  1  0
  6 15  1  0
  6 16  1  0
  6 17  1  0
  7 18  1  0
  9 19  1  0
M  END
