
     RDKit          3D

 20 21  0  0  0  0  0  0  0  0999 V2000
    2.7040   -1.0201    0.0696 C   0  0  0  0  0  0  0  0  0  0  0  0
    1.6614   -0.2729   -0.4591 O   0  0  0  0  0  0  0  0  0  0  0  0
    1.1618    0.6671    0.3993 C   0  0  0  0  0  0  0  0  0  0  0  0
    0.4905    1.8954   -0.0318 C   0  0  0  0  0  0  0  0  0  0  0  0
   -0.3686    0.8064    0.5039 C   0  0  0  0  0  0  0  0  0  0  0  0
   -1.1258   -0.0982   -0.4341 C   0  0  0  0  0  0  0  0  0  0  0  0
   -2.6050   -0.0802   -0.4505 C   0  0  0  0  0  0  0  0  0  0  0  0
   -1.9140   -1.1951    0.2553 C   0  0  0  0  0  0  0  0  0  0  0  0
    3.5797   -0.4123    0.3646 H   0  0  0  0  0  0  0  0  0  0  0  0
    3.0102   -1.8479   -0.6001 H   0  0  0  0  0  0  0  0  0  0  0  0
    2.2781   -1.5327    0.9821 H   0  0  0  0  0  0  0  0  0  0  0  0
    1.6832    0.6785    1.3993 H   0  0  0  0  0  0  0  0  0  0  0  0
    0.5783    2.7810    0.6574 H   0  0  0  0  0  0  0  0  0  0  0  0
    0.3689    2.1932   -1.0762 H   0  0  0  0  0  0  0  0  0  0  0  0
   -0.7914    0.8869    1.5232 H   0  0  0  0  0  0  0  0  0  0  0  0
   -0.5661   -0.4266   -1.3460 H   0  0  0  0  0  0  0  0  0  0  0  0
   -3.1019    0.7184    0.1363 H   0  0  0  0  0  0  0  0  0  0  0  0
   -3.1300   -0.3717   -1.3835 H   0  0  0  0  0  0  0  0  0  0  0  0
   -1.9032   -2.2077   -0.1510 H   0  0  0  0  0  0  0  0  0  0  0  0
   -2.0102   -1.1615    1.3655 H   0  0  0  0  0  0  0  0  0  0  0  0
  1  2  1  0
  2  3  1  0
  3  4  1  0
  4  5  1  0
  5  6  1  0
  6  7  1  0
  7  8  1  0
  5  3  1  0
  8  6  1  0
  1  9  1  0
  1 10  1  0
  1 11  1  0
  3 12  1  0
  4 13  1  0
  4 14  1  0
  5 15  1  0
  6 16  1  0
  7 17  1  0
  7 18  1  0
  8 19  1  0
  8 20  1  0
M  END
