
     RDKit          3D

 21 22  0  0  0  0  0  0  0  0999 V2000
    2.1787   -1.0594   -0.2656 C   0  0  0  0  0  0  0  0  0  0  0  0
    1.7176    0.1992   -0.3289 O   0  0  0  0  0  0  0  0  0  0  0  0
    0.4637    0.4797    0.0431 C   0  0  0  0  0  0  0  0  0  0  0  0
    0.0740    1.9367   -0.0794 C   0  0  0  0  0  0  0  0  0  0  0  0
   -1.2902    1.4761   -0.5405 C   0  0  0  0  0  0  0  0  0  0  0  0
   -0.7127    0.1085   -0.7511 C   0  0  0  0  0  0  0  0  0  0  0  0
   -1.1371   -0.8659    0.2952 C   0  0  0  0  0  0  0  0  0  0  0  0
   -0.8327   -2.1984    0.0412 O   0  0  0  0  0  0  0  0  0  0  0  0
   -0.1298   -0.2020    1.2405 C   0  0  0  0  0  0  0  0  0  0  0  0
    2.1561   -1.4835    0.7575 H   0  0  0  0  0  0  0  0  0  0  0  0
    3.2740   -1.0472   -0.5443 H   0  0  0  0  0  0  0  0  0  0  0  0
    1.7195   -1.7971   -0.9409 H   0  0  0  0  0  0  0  0  0  0  0  0
    0.0994    2.4111    0.9198 H   0  0  0  0  0  0  0  0  0  0  0  0
    0.6460    2.4362   -0.8722 H   0  0  0  0  0  0  0  0  0  0  0  0
   -2.0289    1.5633    0.2882 H   0  0  0  0  0  0  0  0  0  0  0  0
   -1.6651    1.9872   -1.4505 H   0  0  0  0  0  0  0  0  0  0  0  0
   -0.6034   -0.2448   -1.7738 H   0  0  0  0  0  0  0  0  0  0  0  0
   -2.1544   -0.7103    0.6624 H   0  0  0  0  0  0  0  0  0  0  0  0
   -1.6337   -2.6101   -0.3849 H   0  0  0  0  0  0  0  0  0  0  0  0
    0.4793   -0.9283    1.7726 H   0  0  0  0  0  0  0  0  0  0  0  0
   -0.6204    0.5488    1.9115 H   0  0  0  0  0  0  0  0  0  0  0  0
  1  2  1  0
  2  3  1  0
  3  4  1  0
  4  5  1  0
  5  6  1  0
  6  7  1  0
  7  8  1  0
  7  9  1  0
  6  3  1  0
  9  3  1  0
  1 10  1  0
  1 11  1  0
  1 12  1  0
  4 13  1  0
  4 14  1  0
  5 15  1  0
  5 16  1  0
  6 17  1  0
  7 18  1  0
  8 19  1  0
  9 20  1  0
  9 21  1  0
M  END
