
     RDKit          3D

 19 21  0  0  0  0  0  0  0  0999 V2000
    2.9986    0.2741   -0.0409 C   0  0  0  0  0  0  0  0  0  0  0  0
    1.7500    0.3321    0.5458 O   0  0  0  0  0  0  0  0  0  0  0  0
    0.8000   -0.4485   -0.0953 C   0  0  0  0  0  0  0  0  0  0  0  0
    0.1712   -1.3326    0.8160 O   0  0  0  0  0  0  0  0  0  0  0  0
   -1.1407   -0.9428    0.7625 C   0  0  0  0  0  0  0  0  0  0  0  0
   -1.4694   -0.5567   -0.6540 C   0  0  0  0  0  0  0  0  0  0  0  0
   -2.3520    0.5072   -0.0677 C   0  0  0  0  0  0  0  0  0  0  0  0
   -1.1204    0.5619    0.7830 C   0  0  0  0  0  0  0  0  0  0  0  0
   -0.3453    0.4115   -0.4891 C   0  0  0  0  0  0  0  0  0  0  0  0
    3.3983   -0.7794   -0.0417 H   0  0  0  0  0  0  0  0  0  0  0  0
    3.6582    0.9655    0.5119 H   0  0  0  0  0  0  0  0  0  0  0  0
    2.8664    0.6045   -1.1096 H   0  0  0  0  0  0  0  0  0  0  0  0
    1.1948   -0.9924   -0.9738 H   0  0  0  0  0  0  0  0  0  0  0  0
   -1.8826   -1.4556    1.3426 H   0  0  0  0  0  0  0  0  0  0  0  0
   -1.6656   -1.1654   -1.4203 H   0  0  0  0  0  0  0  0  0  0  0  0
   -2.4247    1.4420   -0.6781 H   0  0  0  0  0  0  0  0  0  0  0  0
   -3.2805    0.1844    0.3995 H   0  0  0  0  0  0  0  0  0  0  0  0
   -0.9272    1.1575    1.5607 H   0  0  0  0  0  0  0  0  0  0  0  0
   -0.2291    1.2326   -1.1516 H   0  0  0  0  0  0  0  0  0  0  0  0
  1  2  1  0
  2  3  1  0
  3  4  1  0
  4  5  1  0
  5  6  1  0
  6  7  1  0
  7  8  1  0
  8  9  1  0
  9  3  1  0
  8  5  1  0
  9  6  1  0
  1 10  1  0
  1 11  1  0
  1 12  1  0
  3 13  1  0
  5 14  1  0
  6 15  1  0
  7 16  1  0
  7 17  1  0
  8 18  1  0
  9 19  1  0
M  END
