
     RDKit          3D

 21 21  0  0  0  0  0  0  0  0999 V2000
    2.9212    0.7439   -0.1206 C   0  0  0  0  0  0  0  0  0  0  0  0
    1.7115    0.7215    0.5569 O   0  0  0  0  0  0  0  0  0  0  0  0
    0.8041   -0.0358   -0.1310 C   0  0  0  0  0  0  0  0  0  0  0  0
    0.3830   -1.1850    0.7656 C   0  0  0  0  0  0  0  0  0  0  0  0
   -1.1332   -1.1364    0.8322 C   0  0  0  0  0  0  0  0  0  0  0  0
   -1.4804    0.3153    0.6113 C   0  0  0  0  0  0  0  0  0  0  0  0
   -2.8737    0.4204    0.1124 C   0  0  0  0  0  0  0  0  0  0  0  0
   -3.4831    1.4902    0.1076 O   0  0  0  0  0  0  0  0  0  0  0  0
   -0.4644    0.7208   -0.4491 C   0  0  0  0  0  0  0  0  0  0  0  0
    3.3420   -0.2961   -0.2365 H   0  0  0  0  0  0  0  0  0  0  0  0
    2.7929    1.1057   -1.1814 H   0  0  0  0  0  0  0  0  0  0  0  0
    3.6448    1.4304    0.3586 H   0  0  0  0  0  0  0  0  0  0  0  0
    1.2857   -0.4286   -1.0496 H   0  0  0  0  0  0  0  0  0  0  0  0
    0.7859   -1.0707    1.7900 H   0  0  0  0  0  0  0  0  0  0  0  0
    0.7391   -2.1640    0.3858 H   0  0  0  0  0  0  0  0  0  0  0  0
   -1.5043   -1.7031   -0.0499 H   0  0  0  0  0  0  0  0  0  0  0  0
   -1.4747   -1.5301    1.7938 H   0  0  0  0  0  0  0  0  0  0  0  0
   -1.3899    0.9166    1.5318 H   0  0  0  0  0  0  0  0  0  0  0  0
   -3.4293   -0.4280   -0.2721 H   0  0  0  0  0  0  0  0  0  0  0  0
   -0.3292    1.8051   -0.5132 H   0  0  0  0  0  0  0  0  0  0  0  0
   -0.8480    0.3080   -1.4073 H   0  0  0  0  0  0  0  0  0  0  0  0
  1  2  1  0
  2  3  1  0
  3  4  1  0
  4  5  1  0
  5  6  1  0
  6  7  1  0
  7  8  2  0
  6  9  1  0
  9  3  1  0
  1 10  1  0
  1 11  1  0
  1 12  1  0
  3 13  1  0
  4 14  1  0
  4 15  1  0
  5 16  1  0
  5 17  1  0
  6 18  1  0
  7 19  1  0
  9 20  1  0
  9 21  1  0
M  END
