
     RDKit          3D

 17 18  0  0  0  0  0  0  0  0999 V2000
    2.6177    0.5682   -0.8080 C   0  0  0  0  0  0  0  0  0  0  0  0
    1.5725    0.7338    0.0803 O   0  0  0  0  0  0  0  0  0  0  0  0
    0.7012   -0.3261    0.1408 C   0  0  0  0  0  0  0  0  0  0  0  0
   -0.0311   -0.6970    1.3696 C   0  0  0  0  0  0  0  0  0  0  0  0
   -0.7155   -0.0523    0.2709 C   0  0  0  0  0  0  0  0  0  0  0  0
   -1.2753    1.2040    0.3136 O   0  0  0  0  0  0  0  0  0  0  0  0
   -2.5095    0.5970   -0.0178 C   0  0  0  0  0  0  0  0  0  0  0  0
   -1.7790   -0.6188   -0.5354 C   0  0  0  0  0  0  0  0  0  0  0  0
   -2.0963   -1.5249   -1.2680 O   0  0  0  0  0  0  0  0  0  0  0  0
    2.3041    0.4192   -1.8486 H   0  0  0  0  0  0  0  0  0  0  0  0
    3.3278   -0.2299   -0.4888 H   0  0  0  0  0  0  0  0  0  0  0  0
    3.2087    1.5147   -0.7889 H   0  0  0  0  0  0  0  0  0  0  0  0
    0.9873   -1.1644   -0.5523 H   0  0  0  0  0  0  0  0  0  0  0  0
   -0.2159   -1.7789    1.5354 H   0  0  0  0  0  0  0  0  0  0  0  0
    0.0727   -0.1371    2.3182 H   0  0  0  0  0  0  0  0  0  0  0  0
   -3.1578    0.3945    0.8549 H   0  0  0  0  0  0  0  0  0  0  0  0
   -3.0116    1.0980   -0.8673 H   0  0  0  0  0  0  0  0  0  0  0  0
  1  2  1  0
  2  3  1  0
  3  4  1  0
  4  5  1  0
  5  6  1  0
  6  7  1  0
  7  8  1  0
  8  9  2  0
  5  3  1  0
  8  5  1  0
  1 10  1  0
  1 11  1  0
  1 12  1  0
  3 13  1  0
  4 14  1  0
  4 15  1  0
  7 16  1  0
  7 17  1  0
M  END
