
     RDKit          3D

 19 19  0  0  0  0  0  0  0  0999 V2000
    2.0302    0.7599   -0.0483 C   0  0  0  0  0  0  0  0  0  0  0  0
    0.9697    0.3951    0.7442 O   0  0  0  0  0  0  0  0  0  0  0  0
   -0.0120   -0.3308    0.1097 C   0  0  0  0  0  0  0  0  0  0  0  0
    0.4564   -1.6262   -0.4729 C   0  0  0  0  0  0  0  0  0  0  0  0
   -1.1088   -0.5627    1.1519 C   0  0  0  0  0  0  0  0  0  0  0  0
   -1.9896    0.4725    1.0543 O   0  0  0  0  0  0  0  0  0  0  0  0
   -1.6692    1.2947    0.0036 C   0  0  0  0  0  0  0  0  0  0  0  0
   -0.7463    0.5178   -0.8365 C   0  0  0  0  0  0  0  0  0  0  0  0
   -0.6463    0.5894   -2.0194 O   0  0  0  0  0  0  0  0  0  0  0  0
    2.7384    1.3335    0.5850 H   0  0  0  0  0  0  0  0  0  0  0  0
    2.5818   -0.0713   -0.4934 H   0  0  0  0  0  0  0  0  0  0  0  0
    1.6257    1.4690   -0.8238 H   0  0  0  0  0  0  0  0  0  0  0  0
    1.0861   -2.1301    0.2699 H   0  0  0  0  0  0  0  0  0  0  0  0
   -0.4393   -2.2657   -0.6611 H   0  0  0  0  0  0  0  0  0  0  0  0
    0.9334   -1.4720   -1.4507 H   0  0  0  0  0  0  0  0  0  0  0  0
   -0.6192   -0.6506    2.1363 H   0  0  0  0  0  0  0  0  0  0  0  0
   -1.5700   -1.5549    0.8815 H   0  0  0  0  0  0  0  0  0  0  0  0
   -1.0660    2.1606    0.4107 H   0  0  0  0  0  0  0  0  0  0  0  0
   -2.5552    1.6718   -0.5411 H   0  0  0  0  0  0  0  0  0  0  0  0
  1  2  1  0
  2  3  1  0
  3  4  1  0
  3  5  1  0
  5  6  1  0
  6  7  1  0
  7  8  1  0
  8  9  2  0
  8  3  1  0
  1 10  1  0
  1 11  1  0
  1 12  1  0
  4 13  1  0
  4 14  1  0
  4 15  1  0
  5 16  1  0
  5 17  1  0
  7 18  1  0
  7 19  1  0
M  END
