
     RDKit          3D

 21 22  0  0  0  0  0  0  0  0999 V2000
    2.5000   -0.7437   -0.0836 C   0  0  0  0  0  0  0  0  0  0  0  0
    1.2159   -0.6726    0.4362 O   0  0  0  0  0  0  0  0  0  0  0  0
    0.3462   -0.3023   -0.5749 C   0  0  0  0  0  0  0  0  0  0  0  0
   -0.2611    1.0069   -0.2105 C   0  0  0  0  0  0  0  0  0  0  0  0
    0.5265    2.2017    0.1976 C   0  0  0  0  0  0  0  0  0  0  0  0
   -1.5839    0.9390   -0.3058 C   0  0  0  0  0  0  0  0  0  0  0  0
   -2.0210   -0.4120   -0.7417 C   0  0  0  0  0  0  0  0  0  0  0  0
   -1.8159   -1.4994    0.2386 C   0  0  0  0  0  0  0  0  0  0  0  0
   -0.7737   -1.2631   -0.7834 C   0  0  0  0  0  0  0  0  0  0  0  0
    2.4963   -1.5059   -0.8981 H   0  0  0  0  0  0  0  0  0  0  0  0
    3.2615   -0.9663    0.6893 H   0  0  0  0  0  0  0  0  0  0  0  0
    2.7820    0.2148   -0.5690 H   0  0  0  0  0  0  0  0  0  0  0  0
    0.8863   -0.1581   -1.5306 H   0  0  0  0  0  0  0  0  0  0  0  0
    0.8641    2.7705   -0.6942 H   0  0  0  0  0  0  0  0  0  0  0  0
    1.3568    1.8501    0.8226 H   0  0  0  0  0  0  0  0  0  0  0  0
   -0.1429    2.8980    0.7687 H   0  0  0  0  0  0  0  0  0  0  0  0
   -2.2245    1.7836   -0.0846 H   0  0  0  0  0  0  0  0  0  0  0  0
   -2.6643   -0.5230   -1.6291 H   0  0  0  0  0  0  0  0  0  0  0  0
   -2.4234   -2.4155    0.1036 H   0  0  0  0  0  0  0  0  0  0  0  0
   -1.6768   -1.2113    1.2971 H   0  0  0  0  0  0  0  0  0  0  0  0
   -0.6481   -1.9915   -1.6027 H   0  0  0  0  0  0  0  0  0  0  0  0
  1  2  1  0
  2  3  1  0
  3  4  1  0
  4  5  1  0
  4  6  2  0
  6  7  1  0
  7  8  1  0
  8  9  1  0
  9  3  1  0
  9  7  1  0
  1 10  1  0
  1 11  1  0
  1 12  1  0
  3 13  1  0
  5 14  1  0
  5 15  1  0
  5 16  1  0
  6 17  1  0
  7 18  1  0
  8 19  1  0
  8 20  1  0
  9 21  1  0
M  END
