
     RDKit          3D

 17 18  0  0  0  0  0  0  0  0999 V2000
    2.5887   -0.1796    0.1583 C   0  0  0  0  0  0  0  0  0  0  0  0
    1.2958    0.2800    0.4710 O   0  0  0  0  0  0  0  0  0  0  0  0
    0.3574   -0.0938   -0.4393 C   0  0  0  0  0  0  0  0  0  0  0  0
   -0.5334    1.0090   -0.9826 C   0  0  0  0  0  0  0  0  0  0  0  0
   -0.7407    1.6100   -1.9920 O   0  0  0  0  0  0  0  0  0  0  0  0
   -1.0392    0.9673    0.4217 C   0  0  0  0  0  0  0  0  0  0  0  0
   -1.8082   -0.0398    1.0711 C   0  0  0  0  0  0  0  0  0  0  0  0
   -0.9771   -0.5764    0.0621 C   0  0  0  0  0  0  0  0  0  0  0  0
   -1.7312   -0.9099   -1.1046 O   0  0  0  0  0  0  0  0  0  0  0  0
    2.9378    0.2046   -0.8212 H   0  0  0  0  0  0  0  0  0  0  0  0
    2.6653   -1.2704    0.1701 H   0  0  0  0  0  0  0  0  0  0  0  0
    3.2804    0.2565    0.9293 H   0  0  0  0  0  0  0  0  0  0  0  0
    0.7879   -0.6876   -1.2523 H   0  0  0  0  0  0  0  0  0  0  0  0
   -0.1769    1.3416    1.0561 H   0  0  0  0  0  0  0  0  0  0  0  0
   -1.5896   -0.3599    2.1351 H   0  0  0  0  0  0  0  0  0  0  0  0
   -2.9326    0.0819    0.9816 H   0  0  0  0  0  0  0  0  0  0  0  0
   -2.3846   -1.6333   -0.8644 H   0  0  0  0  0  0  0  0  0  0  0  0
  1  2  1  0
  2  3  1  0
  3  4  1  0
  4  5  2  0
  4  6  1  0
  6  7  1  0
  7  8  1  0
  8  9  1  0
  8  3  1  0
  8  6  1  0
  1 10  1  0
  1 11  1  0
  1 12  1  0
  3 13  1  0
  6 14  1  0
  7 15  1  0
  7 16  1  0
  9 17  1  0
M  END
