
     RDKit          3D

 18 18  0  0  0  0  0  0  0  0999 V2000
    2.3995   -0.6900    0.0602 C   0  0  0  0  0  0  0  0  0  0  0  0
    1.1995   -0.6463    0.7655 O   0  0  0  0  0  0  0  0  0  0  0  0
    0.2696   -0.0253   -0.0138 C   0  0  0  0  0  0  0  0  0  0  0  0
   -1.0463   -0.7979   -0.1981 C   0  0  0  0  0  0  0  0  0  0  0  0
   -1.0952   -1.5396   -1.3628 O   0  0  0  0  0  0  0  0  0  0  0  0
   -1.6669    0.5952   -0.3188 C   0  0  0  0  0  0  0  0  0  0  0  0
   -0.6005    1.0099    0.7013 C   0  0  0  0  0  0  0  0  0  0  0  0
   -0.1720    2.3092    0.5839 O   0  0  0  0  0  0  0  0  0  0  0  0
    3.2084   -1.1785    0.6212 H   0  0  0  0  0  0  0  0  0  0  0  0
    2.1725   -1.1819   -0.9121 H   0  0  0  0  0  0  0  0  0  0  0  0
    2.6764    0.3699   -0.2077 H   0  0  0  0  0  0  0  0  0  0  0  0
    0.6363    0.2959   -0.9848 H   0  0  0  0  0  0  0  0  0  0  0  0
   -1.3789   -1.2992    0.7254 H   0  0  0  0  0  0  0  0  0  0  0  0
   -1.8874   -2.1175   -1.3117 H   0  0  0  0  0  0  0  0  0  0  0  0
   -2.6954    0.6810    0.0280 H   0  0  0  0  0  0  0  0  0  0  0  0
   -1.4116    1.0131   -1.2973 H   0  0  0  0  0  0  0  0  0  0  0  0
   -0.9026    0.6566    1.6903 H   0  0  0  0  0  0  0  0  0  0  0  0
    0.2946    2.5453    1.4312 H   0  0  0  0  0  0  0  0  0  0  0  0
  1  2  1  0
  2  3  1  0
  3  4  1  0
  4  5  1  0
  4  6  1  0
  6  7  1  0
  7  8  1  0
  7  3  1  0
  1  9  1  0
  1 10  1  0
  1 11  1  0
  3 12  1  0
  4 13  1  0
  5 14  1  0
  6 15  1  0
  6 16  1  0
  7 17  1  0
  8 18  1  0
M  END
