
     RDKit          3D

 19 20  0  0  0  0  0  0  0  0999 V2000
    2.4633    0.2917   -0.7597 C   0  0  0  0  0  0  0  0  0  0  0  0
    1.0922    0.0968   -0.8170 O   0  0  0  0  0  0  0  0  0  0  0  0
    0.5045   -0.0919    0.4056 C   0  0  0  0  0  0  0  0  0  0  0  0
   -0.2063   -1.4648    0.4917 C   0  0  0  0  0  0  0  0  0  0  0  0
   -1.6360   -1.1309    0.2019 C   0  0  0  0  0  0  0  0  0  0  0  0
   -2.5959   -1.8043    0.4935 O   0  0  0  0  0  0  0  0  0  0  0  0
   -1.5399    0.1407   -0.4795 C   0  0  0  0  0  0  0  0  0  0  0  0
   -1.5796    1.4944   -0.1100 C   0  0  0  0  0  0  0  0  0  0  0  0
   -0.6661    0.7871    0.6765 C   0  0  0  0  0  0  0  0  0  0  0  0
    2.8144    0.4309   -1.8033 H   0  0  0  0  0  0  0  0  0  0  0  0
    3.0132   -0.5566   -0.3221 H   0  0  0  0  0  0  0  0  0  0  0  0
    2.6830    1.2121   -0.1622 H   0  0  0  0  0  0  0  0  0  0  0  0
    1.2179   -0.0593    1.2497 H   0  0  0  0  0  0  0  0  0  0  0  0
   -0.0574   -1.9302    1.4637 H   0  0  0  0  0  0  0  0  0  0  0  0
    0.2067   -2.0798   -0.3454 H   0  0  0  0  0  0  0  0  0  0  0  0
   -0.9725   -0.0577   -1.4483 H   0  0  0  0  0  0  0  0  0  0  0  0
   -1.1893    2.2818   -0.8121 H   0  0  0  0  0  0  0  0  0  0  0  0
   -2.5298    1.8887    0.3465 H   0  0  0  0  0  0  0  0  0  0  0  0
   -1.0223    0.5514    1.7304 H   0  0  0  0  0  0  0  0  0  0  0  0
  1  2  1  0
  2  3  1  0
  3  4  1  0
  4  5  1  0
  5  6  2  0
  5  7  1  0
  7  8  1  0
  8  9  1  0
  9  3  1  0
  9  7  1  0
  1 10  1  0
  1 11  1  0
  1 12  1  0
  3 13  1  0
  4 14  1  0
  4 15  1  0
  7 16  1  0
  8 17  1  0
  8 18  1  0
  9 19  1  0
M  END
