
     RDKit          3D

 21 22  0  0  0  0  0  0  0  0999 V2000
    2.5741   -0.4677   -0.1084 C   0  0  0  0  0  0  0  0  0  0  0  0
    1.6878    0.0036    0.8621 O   0  0  0  0  0  0  0  0  0  0  0  0
    0.5328    0.4178    0.1552 C   0  0  0  0  0  0  0  0  0  0  0  0
    0.9282    1.5224   -0.8350 C   0  0  0  0  0  0  0  0  0  0  0  0
   -0.6525    0.4951    0.8891 C   0  0  0  0  0  0  0  0  0  0  0  0
   -1.5376   -0.3526    1.6316 C   0  0  0  0  0  0  0  0  0  0  0  0
   -2.3090   -0.9889    0.7616 C   0  0  0  0  0  0  0  0  0  0  0  0
   -1.8709   -0.5091   -0.6261 C   0  0  0  0  0  0  0  0  0  0  0  0
   -0.4049   -0.5182   -0.2778 C   0  0  0  0  0  0  0  0  0  0  0  0
    3.5207   -0.8198    0.3461 H   0  0  0  0  0  0  0  0  0  0  0  0
    2.8460    0.3095   -0.8415 H   0  0  0  0  0  0  0  0  0  0  0  0
    2.1625   -1.3227   -0.6788 H   0  0  0  0  0  0  0  0  0  0  0  0
    1.7295    2.1406   -0.4425 H   0  0  0  0  0  0  0  0  0  0  0  0
    1.2223    1.0893   -1.7989 H   0  0  0  0  0  0  0  0  0  0  0  0
    0.0025    2.1216   -1.0337 H   0  0  0  0  0  0  0  0  0  0  0  0
   -1.2546    1.4305    0.6147 H   0  0  0  0  0  0  0  0  0  0  0  0
   -1.6133   -0.4926    2.6961 H   0  0  0  0  0  0  0  0  0  0  0  0
   -3.1009   -1.7056    0.8765 H   0  0  0  0  0  0  0  0  0  0  0  0
   -2.0629   -1.2620   -1.3868 H   0  0  0  0  0  0  0  0  0  0  0  0
   -2.2402    0.4927   -0.8359 H   0  0  0  0  0  0  0  0  0  0  0  0
   -0.1594   -1.5841    0.0323 H   0  0  0  0  0  0  0  0  0  0  0  0
  1  2  1  0
  2  3  1  0
  3  4  1  0
  3  5  1  0
  5  6  1  0
  6  7  2  0
  7  8  1  0
  8  9  1  0
  9  3  1  0
  9  5  1  0
  1 10  1  0
  1 11  1  0
  1 12  1  0
  4 13  1  0
  4 14  1  0
  4 15  1  0
  5 16  1  0
  6 17  1  0
  7 18  1  0
  8 19  1  0
  8 20  1  0
  9 21  1  0
M  END
