
     RDKit          3D

 19 19  0  0  0  0  0  0  0  0999 V2000
    2.2431   -0.0017    0.4327 C   0  0  0  0  0  0  0  0  0  0  0  0
    1.2455   -0.3949   -0.3618 O   0  0  0  0  0  0  0  0  0  0  0  0
    0.0060    0.0251   -0.2829 C   0  0  0  0  0  0  0  0  0  0  0  0
   -0.0759    1.5459   -0.4841 C   0  0  0  0  0  0  0  0  0  0  0  0
   -0.8552   -0.6444   -1.3604 C   0  0  0  0  0  0  0  0  0  0  0  0
   -1.6401   -1.3409   -0.3092 C   0  0  0  0  0  0  0  0  0  0  0  0
   -2.4306   -2.2352   -0.2442 O   0  0  0  0  0  0  0  0  0  0  0  0
   -1.0019   -0.4155    0.6854 C   0  0  0  0  0  0  0  0  0  0  0  0
   -0.6386   -1.1100    1.8035 O   0  0  0  0  0  0  0  0  0  0  0  0
    2.1688   -0.1710    1.5042 H   0  0  0  0  0  0  0  0  0  0  0  0
    2.4503    1.0843    0.2805 H   0  0  0  0  0  0  0  0  0  0  0  0
    3.1850   -0.5176    0.0941 H   0  0  0  0  0  0  0  0  0  0  0  0
    0.8373    1.9450   -0.9297 H   0  0  0  0  0  0  0  0  0  0  0  0
   -0.9968    1.8217   -1.0428 H   0  0  0  0  0  0  0  0  0  0  0  0
   -0.1850    1.9795    0.5358 H   0  0  0  0  0  0  0  0  0  0  0  0
   -1.4767    0.0334   -1.9412 H   0  0  0  0  0  0  0  0  0  0  0  0
   -0.3305   -1.3737   -1.9845 H   0  0  0  0  0  0  0  0  0  0  0  0
   -1.7690    0.3546    0.9596 H   0  0  0  0  0  0  0  0  0  0  0  0
   -0.7357   -0.5847    2.6449 H   0  0  0  0  0  0  0  0  0  0  0  0
  1  2  1  0
  2  3  1  0
  3  4  1  0
  3  5  1  0
  5  6  1  0
  6  7  2  0
  6  8  1  0
  8  9  1  0
  8  3  1  0
  1 10  1  0
  1 11  1  0
  1 12  1  0
  4 13  1  0
  4 14  1  0
  4 15  1  0
  5 16  1  0
  5 17  1  0
  8 18  1  0
  9 19  1  0
M  END
