
     RDKit          3D

 23 23  0  0  0  0  0  0  0  0999 V2000
    3.2531   -0.3621    0.8067 C   0  0  0  0  0  0  0  0  0  0  0  0
    2.3691    0.6366    0.4236 O   0  0  0  0  0  0  0  0  0  0  0  0
    1.0724    0.2359    0.3398 C   0  0  0  0  0  0  0  0  0  0  0  0
    0.1146    0.9424    1.2251 C   0  0  0  0  0  0  0  0  0  0  0  0
   -1.2933    0.6439    0.8661 C   0  0  0  0  0  0  0  0  0  0  0  0
   -1.6919   -0.0698   -0.1731 C   0  0  0  0  0  0  0  0  0  0  0  0
   -3.1429   -0.3197   -0.4571 C   0  0  0  0  0  0  0  0  0  0  0  0
   -0.6659   -0.6430   -1.0890 C   0  0  0  0  0  0  0  0  0  0  0  0
    0.5201    0.2993   -1.0824 C   0  0  0  0  0  0  0  0  0  0  0  0
    4.2955    0.0115    0.8609 H   0  0  0  0  0  0  0  0  0  0  0  0
    3.2391   -1.1272    0.0024 H   0  0  0  0  0  0  0  0  0  0  0  0
    2.9716   -0.8146    1.7954 H   0  0  0  0  0  0  0  0  0  0  0  0
    1.0394   -0.8592    0.6157 H   0  0  0  0  0  0  0  0  0  0  0  0
    0.2506    0.5802    2.2823 H   0  0  0  0  0  0  0  0  0  0  0  0
    0.2562    2.0393    1.2715 H   0  0  0  0  0  0  0  0  0  0  0  0
   -2.0890    1.0465    1.5142 H   0  0  0  0  0  0  0  0  0  0  0  0
   -3.3874   -1.3993   -0.3939 H   0  0  0  0  0  0  0  0  0  0  0  0
   -3.7975    0.2242    0.2228 H   0  0  0  0  0  0  0  0  0  0  0  0
   -3.3297    0.0444   -1.4930 H   0  0  0  0  0  0  0  0  0  0  0  0
   -0.3018   -1.5900   -0.6041 H   0  0  0  0  0  0  0  0  0  0  0  0
   -1.0655   -0.8208   -2.1002 H   0  0  0  0  0  0  0  0  0  0  0  0
    0.1062    1.3154   -1.3094 H   0  0  0  0  0  0  0  0  0  0  0  0
    1.2772   -0.0136   -1.8170 H   0  0  0  0  0  0  0  0  0  0  0  0
  1  2  1  0
  2  3  1  0
  3  4  1  0
  4  5  1  0
  5  6  2  0
  6  7  1  0
  6  8  1  0
  8  9  1  0
  9  3  1  0
  1 10  1  0
  1 11  1  0
  1 12  1  0
  3 13  1  0
  4 14  1  0
  4 15  1  0
  5 16  1  0
  7 17  1  0
  7 18  1  0
  7 19  1  0
  8 20  1  0
  8 21  1  0
  9 22  1  0
  9 23  1  0
M  END
