
     RDKit          3D

 21 22  0  0  0  0  0  0  0  0999 V2000
    2.3126   -0.6706   -0.7227 C   0  0  0  0  0  0  0  0  0  0  0  0
    1.0455   -0.8579   -0.2248 O   0  0  0  0  0  0  0  0  0  0  0  0
    0.3883    0.2816    0.1327 C   0  0  0  0  0  0  0  0  0  0  0  0
    0.0955    1.3748   -0.8508 C   0  0  0  0  0  0  0  0  0  0  0  0
   -1.3813    0.9992   -0.7430 C   0  0  0  0  0  0  0  0  0  0  0  0
   -1.1168    0.0574    0.3866 C   0  0  0  0  0  0  0  0  0  0  0  0
   -1.6675   -1.3162    0.2424 C   0  0  0  0  0  0  0  0  0  0  0  0
   -0.2242    0.4644    1.4857 C   0  0  0  0  0  0  0  0  0  0  0  0
    0.1678   -0.4364    2.4431 O   0  0  0  0  0  0  0  0  0  0  0  0
    2.7209   -1.6855   -0.9696 H   0  0  0  0  0  0  0  0  0  0  0  0
    2.2579   -0.1361   -1.6961 H   0  0  0  0  0  0  0  0  0  0  0  0
    3.0017   -0.1612   -0.0244 H   0  0  0  0  0  0  0  0  0  0  0  0
    0.5340    1.2835   -1.8411 H   0  0  0  0  0  0  0  0  0  0  0  0
    0.2788    2.3661   -0.3704 H   0  0  0  0  0  0  0  0  0  0  0  0
   -1.7370    0.4993   -1.6681 H   0  0  0  0  0  0  0  0  0  0  0  0
   -2.0127    1.8561   -0.4556 H   0  0  0  0  0  0  0  0  0  0  0  0
   -1.9727   -1.7800    1.1985 H   0  0  0  0  0  0  0  0  0  0  0  0
   -1.0058   -2.0303   -0.2788 H   0  0  0  0  0  0  0  0  0  0  0  0
   -2.6042   -1.2705   -0.3855 H   0  0  0  0  0  0  0  0  0  0  0  0
   -0.2538    1.5210    1.8240 H   0  0  0  0  0  0  0  0  0  0  0  0
    1.1730   -0.3589    2.5178 H   0  0  0  0  0  0  0  0  0  0  0  0
  1  2  1  0
  2  3  1  0
  3  4  1  0
  4  5  1  0
  5  6  1  0
  6  7  1  0
  6  8  1  0
  8  9  1  0
  6  3  1  0
  8  3  1  0
  1 10  1  0
  1 11  1  0
  1 12  1  0
  4 13  1  0
  4 14  1  0
  5 15  1  0
  5 16  1  0
  7 17  1  0
  7 18  1  0
  7 19  1  0
  8 20  1  0
  9 21  1  0
M  END
