
     RDKit          3D

 23 23  0  0  0  0  0  0  0  0999 V2000
    2.4156   -0.3062    1.2278 C   0  0  0  0  0  0  0  0  0  0  0  0
    2.0101   -0.1883   -0.0748 O   0  0  0  0  0  0  0  0  0  0  0  0
    0.6847    0.0803   -0.2780 C   0  0  0  0  0  0  0  0  0  0  0  0
    0.4828    0.1685   -1.7950 C   0  0  0  0  0  0  0  0  0  0  0  0
    0.1723    1.3036    0.3445 C   0  0  0  0  0  0  0  0  0  0  0  0
   -1.1391    1.4466    0.4711 C   0  0  0  0  0  0  0  0  0  0  0  0
   -2.1142    0.4426    0.0203 C   0  0  0  0  0  0  0  0  0  0  0  0
   -1.5997   -0.9396   -0.1273 C   0  0  0  0  0  0  0  0  0  0  0  0
   -0.1346   -1.0990    0.1915 C   0  0  0  0  0  0  0  0  0  0  0  0
    1.9364   -1.0993    1.8193 H   0  0  0  0  0  0  0  0  0  0  0  0
    2.3915    0.6799    1.7718 H   0  0  0  0  0  0  0  0  0  0  0  0
    3.5096   -0.5760    1.1973 H   0  0  0  0  0  0  0  0  0  0  0  0
    0.7744    1.1748   -2.1727 H   0  0  0  0  0  0  0  0  0  0  0  0
   -0.5513   -0.0372   -2.0885 H   0  0  0  0  0  0  0  0  0  0  0  0
    1.1502   -0.6118   -2.2632 H   0  0  0  0  0  0  0  0  0  0  0  0
    0.8216    2.0888    0.7018 H   0  0  0  0  0  0  0  0  0  0  0  0
   -1.5349    2.3571    0.9350 H   0  0  0  0  0  0  0  0  0  0  0  0
   -3.0275    0.4732    0.6813 H   0  0  0  0  0  0  0  0  0  0  0  0
   -2.5106    0.7918   -0.9784 H   0  0  0  0  0  0  0  0  0  0  0  0
   -1.7946   -1.3379   -1.1279 H   0  0  0  0  0  0  0  0  0  0  0  0
   -2.1451   -1.5967    0.6126 H   0  0  0  0  0  0  0  0  0  0  0  0
   -0.0178   -1.2206    1.2902 H   0  0  0  0  0  0  0  0  0  0  0  0
    0.2202   -1.9946   -0.3587 H   0  0  0  0  0  0  0  0  0  0  0  0
  1  2  1  0
  2  3  1  0
  3  4  1  0
  3  5  1  0
  5  6  2  0
  6  7  1  0
  7  8  1  0
  8  9  1  0
  9  3  1  0
  1 10  1  0
  1 11  1  0
  1 12  1  0
  4 13  1  0
  4 14  1  0
  4 15  1  0
  5 16  1  0
  6 17  1  0
  7 18  1  0
  7 19  1  0
  8 20  1  0
  8 21  1  0
  9 22  1  0
  9 23  1  0
M  END
