
     RDKit          3D

 19 19  0  0  0  0  0  0  0  0999 V2000
    2.4291   -0.3968   -0.4105 C   0  0  0  0  0  0  0  0  0  0  0  0
    1.2316   -0.1436   -1.0808 O   0  0  0  0  0  0  0  0  0  0  0  0
    0.1832    0.0535   -0.1972 C   0  0  0  0  0  0  0  0  0  0  0  0
    0.3726    1.3203    0.6380 C   0  0  0  0  0  0  0  0  0  0  0  0
   -1.0711    0.2726   -1.0438 C   0  0  0  0  0  0  0  0  0  0  0  0
   -2.1073   -0.1500   -0.0284 C   0  0  0  0  0  0  0  0  0  0  0  0
   -3.2289    0.2668    0.1092 O   0  0  0  0  0  0  0  0  0  0  0  0
   -1.4055   -1.2031    0.7571 C   0  0  0  0  0  0  0  0  0  0  0  0
   -0.0609   -1.0149    0.6192 O   0  0  0  0  0  0  0  0  0  0  0  0
    2.3756   -1.3031    0.2293 H   0  0  0  0  0  0  0  0  0  0  0  0
    2.6358    0.4995    0.2126 H   0  0  0  0  0  0  0  0  0  0  0  0
    3.2196   -0.5233   -1.1902 H   0  0  0  0  0  0  0  0  0  0  0  0
    0.5597    2.1812   -0.0293 H   0  0  0  0  0  0  0  0  0  0  0  0
    1.1403    1.1927    1.4150 H   0  0  0  0  0  0  0  0  0  0  0  0
   -0.5960    1.4850    1.1543 H   0  0  0  0  0  0  0  0  0  0  0  0
   -1.0855   -0.4551   -1.8572 H   0  0  0  0  0  0  0  0  0  0  0  0
   -1.1923    1.3138   -1.3488 H   0  0  0  0  0  0  0  0  0  0  0  0
   -1.6651   -2.1733    0.2370 H   0  0  0  0  0  0  0  0  0  0  0  0
   -1.7347   -1.2221    1.8144 H   0  0  0  0  0  0  0  0  0  0  0  0
  1  2  1  0
  2  3  1  0
  3  4  1  0
  3  5  1  0
  5  6  1  0
  6  7  2  0
  6  8  1  0
  8  9  1  0
  9  3  1  0
  1 10  1  0
  1 11  1  0
  1 12  1  0
  4 13  1  0
  4 14  1  0
  4 15  1  0
  5 16  1  0
  5 17  1  0
  8 18  1  0
  8 19  1  0
M  END
