
     RDKit          3D

 21 22  0  0  0  0  0  0  0  0999 V2000
    2.7367    0.3614   -0.3014 C   0  0  0  0  0  0  0  0  0  0  0  0
    1.5584    0.0398   -1.0050 O   0  0  0  0  0  0  0  0  0  0  0  0
    0.6574   -0.4507   -0.1036 C   0  0  0  0  0  0  0  0  0  0  0  0
    0.2471   -1.7502   -0.3892 O   0  0  0  0  0  0  0  0  0  0  0  0
   -0.8847   -2.0014    0.3365 C   0  0  0  0  0  0  0  0  0  0  0  0
   -1.5047   -0.6810    0.7197 C   0  0  0  0  0  0  0  0  0  0  0  0
   -0.6453    0.2902   -0.0497 C   0  0  0  0  0  0  0  0  0  0  0  0
   -0.7520    1.7238    0.1839 C   0  0  0  0  0  0  0  0  0  0  0  0
   -1.1596    1.1002   -1.1501 C   0  0  0  0  0  0  0  0  0  0  0  0
    2.4364    1.1283    0.4538 H   0  0  0  0  0  0  0  0  0  0  0  0
    3.5177    0.7614   -0.9455 H   0  0  0  0  0  0  0  0  0  0  0  0
    3.0909   -0.5199    0.2750 H   0  0  0  0  0  0  0  0  0  0  0  0
    1.0612   -0.4765    0.9375 H   0  0  0  0  0  0  0  0  0  0  0  0
   -1.6177   -2.6259   -0.2293 H   0  0  0  0  0  0  0  0  0  0  0  0
   -0.6622   -2.5970    1.2625 H   0  0  0  0  0  0  0  0  0  0  0  0
   -2.5687   -0.6041    0.4857 H   0  0  0  0  0  0  0  0  0  0  0  0
   -1.2872   -0.4946    1.8076 H   0  0  0  0  0  0  0  0  0  0  0  0
    0.1987    2.3041    0.1974 H   0  0  0  0  0  0  0  0  0  0  0  0
   -1.5754    2.0517    0.8731 H   0  0  0  0  0  0  0  0  0  0  0  0
   -0.5809    1.3481   -2.0417 H   0  0  0  0  0  0  0  0  0  0  0  0
   -2.2660    1.0923   -1.3173 H   0  0  0  0  0  0  0  0  0  0  0  0
  1  2  1  0
  2  3  1  0
  3  4  1  0
  4  5  1  0
  5  6  1  0
  6  7  1  0
  7  8  1  0
  8  9  1  0
  7  3  1  0
  9  7  1  0
  1 10  1  0
  1 11  1  0
  1 12  1  0
  3 13  1  0
  5 14  1  0
  5 15  1  0
  6 16  1  0
  6 17  1  0
  8 18  1  0
  8 19  1  0
  9 20  1  0
  9 21  1  0
M  END
