
     RDKit          3D

 23 24  0  0  0  0  0  0  0  0999 V2000
    3.1607    1.1071   -0.3471 C   0  0  0  0  0  0  0  0  0  0  0  0
    1.9939    0.9039    0.3872 O   0  0  0  0  0  0  0  0  0  0  0  0
    1.5281   -0.3656    0.1934 C   0  0  0  0  0  0  0  0  0  0  0  0
    1.0682   -1.0488    1.4870 C   0  0  0  0  0  0  0  0  0  0  0  0
    0.1140   -0.7451    0.3471 C   0  0  0  0  0  0  0  0  0  0  0  0
   -0.9601    0.2557    0.6453 C   0  0  0  0  0  0  0  0  0  0  0  0
   -2.3789   -0.3411    0.7704 C   0  0  0  0  0  0  0  0  0  0  0  0
   -1.9872    0.6562   -0.3042 C   0  0  0  0  0  0  0  0  0  0  0  0
   -2.0895    0.1237   -1.7016 C   0  0  0  0  0  0  0  0  0  0  0  0
    3.5511    2.1303   -0.2014 H   0  0  0  0  0  0  0  0  0  0  0  0
    2.9438    1.0195   -1.4502 H   0  0  0  0  0  0  0  0  0  0  0  0
    3.8856    0.3188   -0.0860 H   0  0  0  0  0  0  0  0  0  0  0  0
    2.1321   -1.0043   -0.4915 H   0  0  0  0  0  0  0  0  0  0  0  0
    1.4267   -2.0679    1.6408 H   0  0  0  0  0  0  0  0  0  0  0  0
    0.9692   -0.4290    2.3999 H   0  0  0  0  0  0  0  0  0  0  0  0
   -0.2405   -1.6558   -0.1716 H   0  0  0  0  0  0  0  0  0  0  0  0
   -0.6972    0.9788    1.4557 H   0  0  0  0  0  0  0  0  0  0  0  0
   -2.4869   -1.4204    0.4664 H   0  0  0  0  0  0  0  0  0  0  0  0
   -2.9995   -0.0260    1.6118 H   0  0  0  0  0  0  0  0  0  0  0  0
   -2.4700    1.6469   -0.1552 H   0  0  0  0  0  0  0  0  0  0  0  0
   -3.0895   -0.3425   -1.8318 H   0  0  0  0  0  0  0  0  0  0  0  0
   -1.3522   -0.6717   -1.9317 H   0  0  0  0  0  0  0  0  0  0  0  0
   -2.0219    0.9773   -2.4262 H   0  0  0  0  0  0  0  0  0  0  0  0
  1  2  1  0
  2  3  1  0
  3  4  1  0
  4  5  1  0
  5  6  1  0
  6  7  1  0
  7  8  1  0
  8  9  1  0
  5  3  1  0
  8  6  1  0
  1 10  1  0
  1 11  1  0
  1 12  1  0
  3 13  1  0
  4 14  1  0
  4 15  1  0
  5 16  1  0
  6 17  1  0
  7 18  1  0
  7 19  1  0
  8 20  1  0
  9 21  1  0
  9 22  1  0
  9 23  1  0
M  END
