
     RDKit          3D

 21 21  0  0  0  0  0  0  0  0999 V2000
   -3.0133    0.4701   -0.0571 C   0  0  0  0  0  0  0  0  0  0  0  0
   -2.0466    0.0561    0.8441 O   0  0  0  0  0  0  0  0  0  0  0  0
   -0.8113    0.0595    0.2228 C   0  0  0  0  0  0  0  0  0  0  0  0
   -0.1879   -1.3435    0.2518 C   0  0  0  0  0  0  0  0  0  0  0  0
    0.8811   -1.3070    1.1195 O   0  0  0  0  0  0  0  0  0  0  0  0
    2.0516   -0.8374    0.5670 C   0  0  0  0  0  0  0  0  0  0  0  0
    1.8525    0.1482   -0.5410 C   0  0  0  0  0  0  0  0  0  0  0  0
    1.0262    1.3155   -0.0946 C   0  0  0  0  0  0  0  0  0  0  0  0
    0.0637    0.9803    0.8428 O   0  0  0  0  0  0  0  0  0  0  0  0
   -3.0298   -0.2261   -0.9260 H   0  0  0  0  0  0  0  0  0  0  0  0
   -3.9998    0.3605    0.4726 H   0  0  0  0  0  0  0  0  0  0  0  0
   -2.8792    1.4972   -0.4217 H   0  0  0  0  0  0  0  0  0  0  0  0
   -0.9408    0.3919   -0.8199 H   0  0  0  0  0  0  0  0  0  0  0  0
    0.1016   -1.6224   -0.7649 H   0  0  0  0  0  0  0  0  0  0  0  0
   -0.9328   -2.0632    0.6808 H   0  0  0  0  0  0  0  0  0  0  0  0
    2.5928   -1.7299    0.1474 H   0  0  0  0  0  0  0  0  0  0  0  0
    2.6446   -0.3330    1.3600 H   0  0  0  0  0  0  0  0  0  0  0  0
    1.4923   -0.3094   -1.4813 H   0  0  0  0  0  0  0  0  0  0  0  0
    2.8753    0.5576   -0.7874 H   0  0  0  0  0  0  0  0  0  0  0  0
    1.6825    2.1060    0.3729 H   0  0  0  0  0  0  0  0  0  0  0  0
    0.5773    1.8292   -0.9877 H   0  0  0  0  0  0  0  0  0  0  0  0
  1  2  1  0
  2  3  1  0
  3  4  1  0
  4  5  1  0
  5  6  1  0
  6  7  1  0
  7  8  1  0
  8  9  1  0
  9  3  1  0
  1 10  1  0
  1 11  1  0
  1 12  1  0
  3 13  1  0
  4 14  1  0
  4 15  1  0
  6 16  1  0
  6 17  1  0
  7 18  1  0
  7 19  1  0
  8 20  1  0
  8 21  1  0
M  END
