
     RDKit          3D

 19 19  0  0  0  0  0  0  0  0999 V2000
    2.3847    0.9354   -0.2879 C   0  0  0  0  0  0  0  0  0  0  0  0
    1.0780    0.7543    0.2102 O   0  0  0  0  0  0  0  0  0  0  0  0
    0.6903   -0.5346   -0.0504 C   0  0  0  0  0  0  0  0  0  0  0  0
   -0.1217   -1.2095    1.0150 C   0  0  0  0  0  0  0  0  0  0  0  0
   -0.7808   -0.8503   -0.2454 C   0  0  0  0  0  0  0  0  0  0  0  0
   -0.9994   -1.8539   -1.2037 O   0  0  0  0  0  0  0  0  0  0  0  0
   -1.7207    0.3183   -0.3407 C   0  0  0  0  0  0  0  0  0  0  0  0
   -1.7183    1.1759    0.8453 C   0  0  0  0  0  0  0  0  0  0  0  0
   -1.1661    2.2600    0.8004 O   0  0  0  0  0  0  0  0  0  0  0  0
    2.7574    1.9649   -0.1064 H   0  0  0  0  0  0  0  0  0  0  0  0
    2.3926    0.7628   -1.3845 H   0  0  0  0  0  0  0  0  0  0  0  0
    3.0557    0.2232    0.2555 H   0  0  0  0  0  0  0  0  0  0  0  0
    1.4475   -1.1573   -0.5727 H   0  0  0  0  0  0  0  0  0  0  0  0
   -0.2628   -0.6645    1.9632 H   0  0  0  0  0  0  0  0  0  0  0  0
    0.0992   -2.2787    1.1701 H   0  0  0  0  0  0  0  0  0  0  0  0
   -0.7099   -1.4964   -2.0825 H   0  0  0  0  0  0  0  0  0  0  0  0
   -2.7568   -0.1041   -0.4630 H   0  0  0  0  0  0  0  0  0  0  0  0
   -1.4751    0.8887   -1.2794 H   0  0  0  0  0  0  0  0  0  0  0  0
   -2.1937    0.8658    1.7571 H   0  0  0  0  0  0  0  0  0  0  0  0
  1  2  1  0
  2  3  1  0
  3  4  1  0
  4  5  1  0
  5  6  1  0
  5  7  1  0
  7  8  1  0
  8  9  2  0
  5  3  1  0
  1 10  1  0
  1 11  1  0
  1 12  1  0
  3 13  1  0
  4 14  1  0
  4 15  1  0
  6 16  1  0
  7 17  1  0
  7 18  1  0
  8 19  1  0
M  END
