
     RDKit          3D

 19 19  0  0  0  0  0  0  0  0999 V2000
    2.3442    0.7371    0.1721 C   0  0  0  0  0  0  0  0  0  0  0  0
    1.2099    0.0199    0.5790 O   0  0  0  0  0  0  0  0  0  0  0  0
    0.3635   -0.1857   -0.4927 C   0  0  0  0  0  0  0  0  0  0  0  0
   -0.1250   -1.6382   -0.5367 C   0  0  0  0  0  0  0  0  0  0  0  0
   -1.1297   -1.2098    0.5419 C   0  0  0  0  0  0  0  0  0  0  0  0
   -1.0677    0.1717   -0.0846 C   0  0  0  0  0  0  0  0  0  0  0  0
   -1.8526    0.2907   -1.2197 O   0  0  0  0  0  0  0  0  0  0  0  0
   -1.1637    1.2983    0.8706 C   0  0  0  0  0  0  0  0  0  0  0  0
   -0.5214    1.2977    1.8948 O   0  0  0  0  0  0  0  0  0  0  0  0
    1.9567    1.7060   -0.2253 H   0  0  0  0  0  0  0  0  0  0  0  0
    2.8897    0.1609   -0.5944 H   0  0  0  0  0  0  0  0  0  0  0  0
    2.9992    0.9422    1.0310 H   0  0  0  0  0  0  0  0  0  0  0  0
    0.6817    0.2185   -1.4546 H   0  0  0  0  0  0  0  0  0  0  0  0
    0.6164   -2.3714   -0.2068 H   0  0  0  0  0  0  0  0  0  0  0  0
   -0.6825   -1.8669   -1.4631 H   0  0  0  0  0  0  0  0  0  0  0  0
   -2.0940   -1.7160    0.4954 H   0  0  0  0  0  0  0  0  0  0  0  0
   -0.6239   -1.2206    1.5326 H   0  0  0  0  0  0  0  0  0  0  0  0
   -1.9704    1.2353   -1.4652 H   0  0  0  0  0  0  0  0  0  0  0  0
   -1.8306    2.1304    0.6256 H   0  0  0  0  0  0  0  0  0  0  0  0
  1  2  1  0
  2  3  1  0
  3  4  1  0
  4  5  1  0
  5  6  1  0
  6  7  1  0
  6  8  1  0
  8  9  2  0
  6  3  1  0
  1 10  1  0
  1 11  1  0
  1 12  1  0
  3 13  1  0
  4 14  1  0
  4 15  1  0
  5 16  1  0
  5 17  1  0
  7 18  1  0
  8 19  1  0
M  END
