
     RDKit          3D

 18 18  0  0  0  0  0  0  0  0999 V2000
    2.1321   -0.6874    0.3127 C   0  0  0  0  0  0  0  0  0  0  0  0
    0.7651   -0.6913    0.6529 O   0  0  0  0  0  0  0  0  0  0  0  0
    0.1046    0.4217    0.1882 C   0  0  0  0  0  0  0  0  0  0  0  0
    0.5518    1.7545    0.6444 C   0  0  0  0  0  0  0  0  0  0  0  0
    0.0485    2.7862    0.3027 O   0  0  0  0  0  0  0  0  0  0  0  0
   -0.4140    0.4133   -1.2527 C   0  0  0  0  0  0  0  0  0  0  0  0
   -1.3456    0.1931   -0.1457 C   0  0  0  0  0  0  0  0  0  0  0  0
   -1.9338   -1.1816    0.1364 C   0  0  0  0  0  0  0  0  0  0  0  0
    2.6237    0.2013    0.7461 H   0  0  0  0  0  0  0  0  0  0  0  0
    2.2321   -0.7414   -0.7982 H   0  0  0  0  0  0  0  0  0  0  0  0
    2.5711   -1.6053    0.7371 H   0  0  0  0  0  0  0  0  0  0  0  0
    1.3883    1.7971    1.3314 H   0  0  0  0  0  0  0  0  0  0  0  0
   -0.4248    1.3693   -1.8140 H   0  0  0  0  0  0  0  0  0  0  0  0
    0.0200   -0.4168   -1.8470 H   0  0  0  0  0  0  0  0  0  0  0  0
   -2.0329    1.0260    0.1051 H   0  0  0  0  0  0  0  0  0  0  0  0
   -1.7364   -1.9033   -0.6667 H   0  0  0  0  0  0  0  0  0  0  0  0
   -3.0325   -1.1190    0.2950 H   0  0  0  0  0  0  0  0  0  0  0  0
   -1.5171   -1.6165    1.0723 H   0  0  0  0  0  0  0  0  0  0  0  0
  1  2  1  0
  2  3  1  0
  3  4  1  0
  4  5  2  0
  3  6  1  0
  6  7  1  0
  7  8  1  0
  7  3  1  0
  1  9  1  0
  1 10  1  0
  1 11  1  0
  4 12  1  0
  6 13  1  0
  6 14  1  0
  7 15  1  0
  8 16  1  0
  8 17  1  0
  8 18  1  0
M  END
