
     RDKit          3D

 17 18  0  0  0  0  0  0  0  0999 V2000
   -2.5905    0.7016    0.6355 C   0  0  0  0  0  0  0  0  0  0  0  0
   -1.3663    0.6130   -0.0222 O   0  0  0  0  0  0  0  0  0  0  0  0
   -0.5570   -0.3841    0.5242 C   0  0  0  0  0  0  0  0  0  0  0  0
    0.0864   -1.2920   -0.5474 C   0  0  0  0  0  0  0  0  0  0  0  0
    0.8482   -0.3223    0.2117 C   0  0  0  0  0  0  0  0  0  0  0  0
    1.5872    0.8274   -0.3231 C   0  0  0  0  0  0  0  0  0  0  0  0
    2.7387    0.0122    0.1073 C   0  0  0  0  0  0  0  0  0  0  0  0
    3.9339   -0.1088   -0.2004 O   0  0  0  0  0  0  0  0  0  0  0  0
    1.9196   -0.5965    1.0379 O   0  0  0  0  0  0  0  0  0  0  0  0
   -3.1291   -0.2382    0.5644 H   0  0  0  0  0  0  0  0  0  0  0  0
   -2.3354    0.9481    1.7072 H   0  0  0  0  0  0  0  0  0  0  0  0
   -3.1767    1.5488    0.2296 H   0  0  0  0  0  0  0  0  0  0  0  0
   -0.9954   -0.9365    1.3706 H   0  0  0  0  0  0  0  0  0  0  0  0
   -0.2430   -1.1796   -1.5797 H   0  0  0  0  0  0  0  0  0  0  0  0
    0.2322   -2.3686   -0.2497 H   0  0  0  0  0  0  0  0  0  0  0  0
    1.5271    1.0386   -1.4056 H   0  0  0  0  0  0  0  0  0  0  0  0
    1.5201    1.7369    0.3350 H   0  0  0  0  0  0  0  0  0  0  0  0
  1  2  1  0
  2  3  1  0
  3  4  1  0
  4  5  1  0
  5  6  1  0
  6  7  1  0
  7  8  2  0
  7  9  1  0
  5  3  1  0
  9  5  1  0
  1 10  1  0
  1 11  1  0
  1 12  1  0
  3 13  1  0
  4 14  1  0
  4 15  1  0
  6 16  1  0
  6 17  1  0
M  END
