
     RDKit          3D

 19 22  0  0  0  0  0  0  0  0999 V2000
    2.7910   -0.3400   -0.2092 C   0  0  0  0  0  0  0  0  0  0  0  0
    1.5653   -0.4125    0.4357 O   0  0  0  0  0  0  0  0  0  0  0  0
    0.5287    0.1034   -0.3230 C   0  0  0  0  0  0  0  0  0  0  0  0
   -0.5281   -0.9692   -0.5056 C   0  0  0  0  0  0  0  0  0  0  0  0
   -1.3319   -0.8769    0.7185 C   0  0  0  0  0  0  0  0  0  0  0  0
   -1.8278   -0.3078   -0.5562 C   0  0  0  0  0  0  0  0  0  0  0  0
   -1.6181    1.0609   -0.0397 C   0  0  0  0  0  0  0  0  0  0  0  0
   -0.2358    1.1799    0.3988 C   0  0  0  0  0  0  0  0  0  0  0  0
   -1.1857    0.4921    1.2632 C   0  0  0  0  0  0  0  0  0  0  0  0
    3.5446   -0.7806    0.4903 H   0  0  0  0  0  0  0  0  0  0  0  0
    2.7750   -0.8666   -1.1753 H   0  0  0  0  0  0  0  0  0  0  0  0
    3.0660    0.7178   -0.3424 H   0  0  0  0  0  0  0  0  0  0  0  0
    0.9491    0.4539   -1.2796 H   0  0  0  0  0  0  0  0  0  0  0  0
   -0.2924   -1.9081   -0.9956 H   0  0  0  0  0  0  0  0  0  0  0  0
   -1.7899   -1.7017    1.2406 H   0  0  0  0  0  0  0  0  0  0  0  0
   -2.7252   -0.6703   -1.0172 H   0  0  0  0  0  0  0  0  0  0  0  0
   -2.3460    1.8619   -0.1090 H   0  0  0  0  0  0  0  0  0  0  0  0
    0.2129    2.1504    0.6021 H   0  0  0  0  0  0  0  0  0  0  0  0
   -1.5515    0.8137    2.2193 H   0  0  0  0  0  0  0  0  0  0  0  0
  1  2  1  0
  2  3  1  0
  3  4  1  0
  4  5  1  0
  5  6  1  0
  6  7  1  0
  7  8  1  0
  8  9  1  0
  8  3  1  0
  6  4  1  0
  9  7  1  0
  9  5  1  0
  1 10  1  0
  1 11  1  0
  1 12  1  0
  3 13  1  0
  4 14  1  0
  5 15  1  0
  6 16  1  0
  7 17  1  0
  8 18  1  0
  9 19  1  0
M  END
