
     RDKit          3D

 21 23  0  0  0  0  0  0  0  0999 V2000
    3.3340   -0.6032    0.3144 C   0  0  0  0  0  0  0  0  0  0  0  0
    2.2754    0.2316    0.7039 O   0  0  0  0  0  0  0  0  0  0  0  0
    1.1298   -0.0587    0.0146 C   0  0  0  0  0  0  0  0  0  0  0  0
    0.1923    1.0118   -0.2246 C   0  0  0  0  0  0  0  0  0  0  0  0
   -1.0080    0.8966   -1.1784 C   0  0  0  0  0  0  0  0  0  0  0  0
   -2.0655    0.6172   -0.1696 C   0  0  0  0  0  0  0  0  0  0  0  0
   -2.7681   -0.5133    0.2638 C   0  0  0  0  0  0  0  0  0  0  0  0
   -1.3750   -0.7506    0.2414 C   0  0  0  0  0  0  0  0  0  0  0  0
   -0.1995   -0.0989    0.8178 C   0  0  0  0  0  0  0  0  0  0  0  0
    3.1284   -1.6649    0.4845 H   0  0  0  0  0  0  0  0  0  0  0  0
    3.5632   -0.4101   -0.7557 H   0  0  0  0  0  0  0  0  0  0  0  0
    4.2467   -0.3192    0.8778 H   0  0  0  0  0  0  0  0  0  0  0  0
    1.1638   -0.8861   -0.7429 H   0  0  0  0  0  0  0  0  0  0  0  0
    0.2972    2.0204    0.2306 H   0  0  0  0  0  0  0  0  0  0  0  0
   -1.1427    1.8231   -1.7492 H   0  0  0  0  0  0  0  0  0  0  0  0
   -0.8453    0.0276   -1.8607 H   0  0  0  0  0  0  0  0  0  0  0  0
   -2.0020    1.4366    0.6172 H   0  0  0  0  0  0  0  0  0  0  0  0
   -3.2683   -0.5404    1.2705 H   0  0  0  0  0  0  0  0  0  0  0  0
   -3.4570   -1.0208   -0.4663 H   0  0  0  0  0  0  0  0  0  0  0  0
   -1.0624   -1.4084   -0.6325 H   0  0  0  0  0  0  0  0  0  0  0  0
   -0.1369    0.2098    1.8788 H   0  0  0  0  0  0  0  0  0  0  0  0
  1  2  1  0
  2  3  1  0
  3  4  1  0
  4  5  1  0
  5  6  1  0
  6  7  1  0
  7  8  1  0
  8  9  1  0
  9  3  1  0
  9  4  1  0
  8  6  1  0
  1 10  1  0
  1 11  1  0
  1 12  1  0
  3 13  1  0
  4 14  1  0
  5 15  1  0
  5 16  1  0
  6 17  1  0
  7 18  1  0
  7 19  1  0
  8 20  1  0
  9 21  1  0
M  END
