
     RDKit          3D

 23 24  0  0  0  0  0  0  0  0999 V2000
    2.8634    0.3081   -0.6253 C   0  0  0  0  0  0  0  0  0  0  0  0
    1.4978   -0.0372   -0.7019 O   0  0  0  0  0  0  0  0  0  0  0  0
    0.9995    0.0252    0.5851 C   0  0  0  0  0  0  0  0  0  0  0  0
   -0.1137    1.0930    0.6809 C   0  0  0  0  0  0  0  0  0  0  0  0
   -1.4271    0.2835    0.6170 C   0  0  0  0  0  0  0  0  0  0  0  0
   -2.4443    1.0604   -0.1767 C   0  0  0  0  0  0  0  0  0  0  0  0
   -0.9166   -0.9280   -0.0537 C   0  0  0  0  0  0  0  0  0  0  0  0
   -0.4647   -2.1850    0.3714 C   0  0  0  0  0  0  0  0  0  0  0  0
    0.2261   -1.1544    1.0216 C   0  0  0  0  0  0  0  0  0  0  0  0
    2.9195    1.3491   -0.2044 H   0  0  0  0  0  0  0  0  0  0  0  0
    3.3782    0.2133   -1.5811 H   0  0  0  0  0  0  0  0  0  0  0  0
    3.3336   -0.3880    0.0991 H   0  0  0  0  0  0  0  0  0  0  0  0
    1.7756    0.3233    1.3390 H   0  0  0  0  0  0  0  0  0  0  0  0
   -0.0415    1.6655    1.6016 H   0  0  0  0  0  0  0  0  0  0  0  0
   -0.0948    1.6920   -0.2494 H   0  0  0  0  0  0  0  0  0  0  0  0
   -1.7306    0.0949    1.6436 H   0  0  0  0  0  0  0  0  0  0  0  0
   -3.3798    0.4979   -0.1999 H   0  0  0  0  0  0  0  0  0  0  0  0
   -2.6295    2.0123    0.4011 H   0  0  0  0  0  0  0  0  0  0  0  0
   -2.0388    1.3621   -1.1395 H   0  0  0  0  0  0  0  0  0  0  0  0
   -0.5468   -0.6196   -1.0841 H   0  0  0  0  0  0  0  0  0  0  0  0
    0.1058   -2.8520   -0.3286 H   0  0  0  0  0  0  0  0  0  0  0  0
   -1.1832   -2.8368    0.9485 H   0  0  0  0  0  0  0  0  0  0  0  0
   -0.0880   -0.9796    2.0998 H   0  0  0  0  0  0  0  0  0  0  0  0
  1  2  1  0
  2  3  1  0
  3  4  1  0
  4  5  1  0
  5  6  1  0
  5  7  1  0
  7  8  1  0
  8  9  1  0
  9  3  1  0
  9  7  1  0
  1 10  1  0
  1 11  1  0
  1 12  1  0
  3 13  1  0
  4 14  1  0
  4 15  1  0
  5 16  1  0
  6 17  1  0
  6 18  1  0
  6 19  1  0
  7 20  1  0
  8 21  1  0
  8 22  1  0
  9 23  1  0
M  END
