
     RDKit          3D

 19 20  0  0  0  0  0  0  0  0999 V2000
    3.0136    0.3393   -0.5774 C   0  0  0  0  0  0  0  0  0  0  0  0
    1.7689    0.9641   -0.4844 O   0  0  0  0  0  0  0  0  0  0  0  0
    0.7511    0.0823   -0.2158 C   0  0  0  0  0  0  0  0  0  0  0  0
   -0.3457    0.2551   -1.2675 C   0  0  0  0  0  0  0  0  0  0  0  0
   -1.5352   -0.3179   -0.5614 C   0  0  0  0  0  0  0  0  0  0  0  0
   -2.2773   -1.3325   -1.0957 O   0  0  0  0  0  0  0  0  0  0  0  0
   -2.3016    0.5780    0.4055 C   0  0  0  0  0  0  0  0  0  0  0  0
   -1.1569   -0.2573    0.8719 C   0  0  0  0  0  0  0  0  0  0  0  0
    0.0656    0.4430    0.9405 O   0  0  0  0  0  0  0  0  0  0  0  0
    3.2160   -0.1553    0.3981 H   0  0  0  0  0  0  0  0  0  0  0  0
    3.0155   -0.4843   -1.3309 H   0  0  0  0  0  0  0  0  0  0  0  0
    3.8175    1.0459   -0.8360 H   0  0  0  0  0  0  0  0  0  0  0  0
    1.0699   -0.9637   -0.1172 H   0  0  0  0  0  0  0  0  0  0  0  0
   -0.4267    1.3396   -1.4777 H   0  0  0  0  0  0  0  0  0  0  0  0
   -0.1076   -0.3589   -2.1417 H   0  0  0  0  0  0  0  0  0  0  0  0
   -1.7954   -1.9684   -1.6499 H   0  0  0  0  0  0  0  0  0  0  0  0
   -3.2873    0.2544    0.7335 H   0  0  0  0  0  0  0  0  0  0  0  0
   -2.1956    1.6744    0.3049 H   0  0  0  0  0  0  0  0  0  0  0  0
   -1.2887   -1.1378    1.4959 H   0  0  0  0  0  0  0  0  0  0  0  0
  1  2  1  0
  2  3  1  0
  3  4  1  0
  4  5  1  0
  5  6  1  0
  5  7  1  0
  7  8  1  0
  8  9  1  0
  9  3  1  0
  8  5  1  0
  1 10  1  0
  1 11  1  0
  1 12  1  0
  3 13  1  0
  4 14  1  0
  4 15  1  0
  6 16  1  0
  7 17  1  0
  7 18  1  0
  8 19  1  0
M  END
