
     RDKit          3D

 17 19  0  0  0  0  0  0  0  0999 V2000
   -2.2868    0.0900    0.5281 C   0  0  0  0  0  0  0  0  0  0  0  0
   -1.4153   -0.8684    0.0987 O   0  0  0  0  0  0  0  0  0  0  0  0
   -0.1586   -0.5083   -0.1475 C   0  0  0  0  0  0  0  0  0  0  0  0
    0.3045    0.5010   -1.1342 C   0  0  0  0  0  0  0  0  0  0  0  0
    1.2663    1.3125   -0.3144 C   0  0  0  0  0  0  0  0  0  0  0  0
    1.6739    0.5859    0.7155 C   0  0  0  0  0  0  0  0  0  0  0  0
    1.0346   -0.7575    0.6837 C   0  0  0  0  0  0  0  0  0  0  0  0
    0.9070   -1.3527   -0.6748 C   0  0  0  0  0  0  0  0  0  0  0  0
    1.0343   -0.5146   -1.7547 O   0  0  0  0  0  0  0  0  0  0  0  0
   -3.2858   -0.4008    0.6802 H   0  0  0  0  0  0  0  0  0  0  0  0
   -2.3712    0.9646   -0.1557 H   0  0  0  0  0  0  0  0  0  0  0  0
   -1.9660    0.4711    1.5082 H   0  0  0  0  0  0  0  0  0  0  0  0
   -0.4099    1.0453   -1.7281 H   0  0  0  0  0  0  0  0  0  0  0  0
    1.5494    2.3258   -0.5667 H   0  0  0  0  0  0  0  0  0  0  0  0
    2.3665    0.8977    1.4793 H   0  0  0  0  0  0  0  0  0  0  0  0
    0.9267   -1.3444    1.5902 H   0  0  0  0  0  0  0  0  0  0  0  0
    0.8302   -2.4472   -0.8079 H   0  0  0  0  0  0  0  0  0  0  0  0
  1  2  1  0
  2  3  1  0
  3  4  1  0
  4  5  1  0
  5  6  2  0
  6  7  1  0
  7  8  1  0
  8  9  1  0
  7  3  1  0
  8  3  1  0
  9  4  1  0
  1 10  1  0
  1 11  1  0
  1 12  1  0
  4 13  1  0
  5 14  1  0
  6 15  1  0
  7 16  1  0
  8 17  1  0
M  END
