
     RDKit          3D

 21 22  0  0  0  0  0  0  0  0999 V2000
    2.3460   -0.2157    1.3175 C   0  0  0  0  0  0  0  0  0  0  0  0
    1.0068    0.2136    1.1587 O   0  0  0  0  0  0  0  0  0  0  0  0
    0.5299   -0.3697    0.0232 C   0  0  0  0  0  0  0  0  0  0  0  0
   -0.8350   -1.0331    0.1265 C   0  0  0  0  0  0  0  0  0  0  0  0
   -1.6395    0.0500    0.7840 C   0  0  0  0  0  0  0  0  0  0  0  0
   -1.2823    1.2171   -0.1562 C   0  0  0  0  0  0  0  0  0  0  0  0
   -0.2068    0.5487   -0.9448 C   0  0  0  0  0  0  0  0  0  0  0  0
    0.4929    1.2089   -1.8627 O   0  0  0  0  0  0  0  0  0  0  0  0
   -0.9046   -0.7538   -1.3727 C   0  0  0  0  0  0  0  0  0  0  0  0
    2.9320    0.1079    0.4249 H   0  0  0  0  0  0  0  0  0  0  0  0
    2.7887    0.1316    2.2484 H   0  0  0  0  0  0  0  0  0  0  0  0
    2.3517   -1.3272    1.2911 H   0  0  0  0  0  0  0  0  0  0  0  0
    1.2144   -1.0324   -0.5454 H   0  0  0  0  0  0  0  0  0  0  0  0
   -0.8950   -2.0333    0.4589 H   0  0  0  0  0  0  0  0  0  0  0  0
   -1.1558    0.2895    1.7446 H   0  0  0  0  0  0  0  0  0  0  0  0
   -2.7034   -0.1269    0.8314 H   0  0  0  0  0  0  0  0  0  0  0  0
   -2.1623    1.3447   -0.8217 H   0  0  0  0  0  0  0  0  0  0  0  0
   -0.9826    2.1055    0.3849 H   0  0  0  0  0  0  0  0  0  0  0  0
    1.2246    1.7248   -1.4203 H   0  0  0  0  0  0  0  0  0  0  0  0
   -1.9026   -0.6135   -1.7759 H   0  0  0  0  0  0  0  0  0  0  0  0
   -0.2171   -1.4367   -1.8945 H   0  0  0  0  0  0  0  0  0  0  0  0
  1  2  1  0
  2  3  1  0
  3  4  1  0
  4  5  1  0
  5  6  1  0
  6  7  1  0
  7  8  1  0
  7  9  1  0
  7  3  1  0
  9  4  1  0
  1 10  1  0
  1 11  1  0
  1 12  1  0
  3 13  1  0
  4 14  1  0
  5 15  1  0
  5 16  1  0
  6 17  1  0
  6 18  1  0
  8 19  1  0
  9 20  1  0
  9 21  1  0
M  END
