
     RDKit          3D

 19 20  0  0  0  0  0  0  0  0999 V2000
    2.1777    0.5769    0.5279 C   0  0  0  0  0  0  0  0  0  0  0  0
    1.1347    1.0692   -0.2220 O   0  0  0  0  0  0  0  0  0  0  0  0
    0.1255    0.1676   -0.4553 C   0  0  0  0  0  0  0  0  0  0  0  0
    0.3187   -1.1073   -1.1603 C   0  0  0  0  0  0  0  0  0  0  0  0
    0.0089   -1.1132    0.2753 C   0  0  0  0  0  0  0  0  0  0  0  0
   -1.3433   -1.0354    0.8279 C   0  0  0  0  0  0  0  0  0  0  0  0
   -2.0538   -0.0134    0.3916 C   0  0  0  0  0  0  0  0  0  0  0  0
   -1.2506    0.7645   -0.5479 C   0  0  0  0  0  0  0  0  0  0  0  0
   -1.2549    2.1312   -0.2919 O   0  0  0  0  0  0  0  0  0  0  0  0
    2.9188    1.4099    0.6382 H   0  0  0  0  0  0  0  0  0  0  0  0
    1.8868    0.2153    1.5223 H   0  0  0  0  0  0  0  0  0  0  0  0
    2.7389   -0.2194   -0.0359 H   0  0  0  0  0  0  0  0  0  0  0  0
   -0.5084   -1.4714   -1.8264 H   0  0  0  0  0  0  0  0  0  0  0  0
    1.2986   -1.4362   -1.4993 H   0  0  0  0  0  0  0  0  0  0  0  0
    0.8327   -1.4695    0.9368 H   0  0  0  0  0  0  0  0  0  0  0  0
   -1.7691   -1.7535    1.5520 H   0  0  0  0  0  0  0  0  0  0  0  0
   -3.0829    0.2589    0.6547 H   0  0  0  0  0  0  0  0  0  0  0  0
   -1.6874    0.6152   -1.5580 H   0  0  0  0  0  0  0  0  0  0  0  0
   -0.4911    2.4106    0.2702 H   0  0  0  0  0  0  0  0  0  0  0  0
  1  2  1  0
  2  3  1  0
  3  4  1  0
  4  5  1  0
  5  6  1  0
  6  7  2  0
  7  8  1  0
  8  9  1  0
  5  3  1  0
  8  3  1  0
  1 10  1  0
  1 11  1  0
  1 12  1  0
  4 13  1  0
  4 14  1  0
  5 15  1  0
  6 16  1  0
  7 17  1  0
  8 18  1  0
  9 19  1  0
M  END
