
     RDKit          3D

 23 24  0  0  0  0  0  0  0  0999 V2000
    2.8421    0.3538    0.2696 C   0  0  0  0  0  0  0  0  0  0  0  0
    2.0470   -0.4114   -0.5822 O   0  0  0  0  0  0  0  0  0  0  0  0
    0.7808   -0.3728   -0.2091 C   0  0  0  0  0  0  0  0  0  0  0  0
    0.3541   -0.8575    1.1515 C   0  0  0  0  0  0  0  0  0  0  0  0
   -1.1685   -0.6598    1.0016 C   0  0  0  0  0  0  0  0  0  0  0  0
   -1.1861    0.0886   -0.2781 C   0  0  0  0  0  0  0  0  0  0  0  0
   -2.4007    0.6328   -0.8382 C   0  0  0  0  0  0  0  0  0  0  0  0
   -0.3073   -0.7991   -1.1726 C   0  0  0  0  0  0  0  0  0  0  0  0
    0.0569    0.9849   -0.2186 C   0  0  0  0  0  0  0  0  0  0  0  0
    2.5280    1.4194    0.2780 H   0  0  0  0  0  0  0  0  0  0  0  0
    3.8994    0.2462   -0.0885 H   0  0  0  0  0  0  0  0  0  0  0  0
    2.7477   -0.0362    1.3095 H   0  0  0  0  0  0  0  0  0  0  0  0
    0.6990   -0.1126    1.8916 H   0  0  0  0  0  0  0  0  0  0  0  0
    0.6175   -1.8833    1.3672 H   0  0  0  0  0  0  0  0  0  0  0  0
   -1.5573   -0.1067    1.8713 H   0  0  0  0  0  0  0  0  0  0  0  0
   -1.5843   -1.6849    0.9254 H   0  0  0  0  0  0  0  0  0  0  0  0
   -2.3295    0.6123   -1.9650 H   0  0  0  0  0  0  0  0  0  0  0  0
   -3.2856    0.1045   -0.4702 H   0  0  0  0  0  0  0  0  0  0  0  0
   -2.4926    1.7246   -0.5785 H   0  0  0  0  0  0  0  0  0  0  0  0
   -0.5982   -1.8672   -1.1129 H   0  0  0  0  0  0  0  0  0  0  0  0
   -0.1235   -0.4010   -2.1711 H   0  0  0  0  0  0  0  0  0  0  0  0
    0.2426    1.5616   -1.1286 H   0  0  0  0  0  0  0  0  0  0  0  0
    0.2185    1.4639    0.7481 H   0  0  0  0  0  0  0  0  0  0  0  0
  1  2  1  0
  2  3  1  0
  3  4  1  0
  4  5  1  0
  5  6  1  0
  6  7  1  0
  6  8  1  0
  6  9  1  0
  8  3  1  0
  9  3  1  0
  1 10  1  0
  1 11  1  0
  1 12  1  0
  4 13  1  0
  4 14  1  0
  5 15  1  0
  5 16  1  0
  7 17  1  0
  7 18  1  0
  7 19  1  0
  8 20  1  0
  8 21  1  0
  9 22  1  0
  9 23  1  0
M  END
