
     RDKit          3D

 20 20  0  0  0  0  0  0  0  0999 V2000
    2.7537    0.0360    0.0112 C   0  0  0  0  0  0  0  0  0  0  0  0
    1.5245    0.1856   -0.5932 O   0  0  0  0  0  0  0  0  0  0  0  0
    0.4595   -0.0454    0.2522 C   0  0  0  0  0  0  0  0  0  0  0  0
   -0.4776    1.1185    0.3610 C   0  0  0  0  0  0  0  0  0  0  0  0
   -1.6127    1.0880   -0.6048 C   0  0  0  0  0  0  0  0  0  0  0  0
   -2.2548   -0.1229   -0.7024 O   0  0  0  0  0  0  0  0  0  0  0  0
   -1.7242   -1.0956    0.1378 C   0  0  0  0  0  0  0  0  0  0  0  0
   -0.2702   -1.2715   -0.2591 C   0  0  0  0  0  0  0  0  0  0  0  0
    2.9313   -0.9797    0.4214 H   0  0  0  0  0  0  0  0  0  0  0  0
    3.5255    0.2142   -0.7840 H   0  0  0  0  0  0  0  0  0  0  0  0
    2.9629    0.7885    0.7987 H   0  0  0  0  0  0  0  0  0  0  0  0
    0.8033   -0.3171    1.2936 H   0  0  0  0  0  0  0  0  0  0  0  0
   -0.8664    1.1950    1.4048 H   0  0  0  0  0  0  0  0  0  0  0  0
    0.0784    2.0783    0.1913 H   0  0  0  0  0  0  0  0  0  0  0  0
   -1.3273    1.5011   -1.6157 H   0  0  0  0  0  0  0  0  0  0  0  0
   -2.3794    1.8277   -0.2256 H   0  0  0  0  0  0  0  0  0  0  0  0
   -2.2980   -2.0259   -0.0265 H   0  0  0  0  0  0  0  0  0  0  0  0
   -1.8137   -0.7036    1.1716 H   0  0  0  0  0  0  0  0  0  0  0  0
   -0.1781   -1.2605   -1.3689 H   0  0  0  0  0  0  0  0  0  0  0  0
    0.1634   -2.2108    0.1364 H   0  0  0  0  0  0  0  0  0  0  0  0
  1  2  1  0
  2  3  1  0
  3  4  1  0
  4  5  1  0
  5  6  1  0
  6  7  1  0
  7  8  1  0
  8  3  1  0
  1  9  1  0
  1 10  1  0
  1 11  1  0
  3 12  1  0
  4 13  1  0
  4 14  1  0
  5 15  1  0
  5 16  1  0
  7 17  1  0
  7 18  1  0
  8 19  1  0
  8 20  1  0
M  END
