
     RDKit          3D

 21 22  0  0  0  0  0  0  0  0999 V2000
    3.1538    0.3063   -0.3898 C   0  0  0  0  0  0  0  0  0  0  0  0
    1.9926   -0.4235   -0.6553 O   0  0  0  0  0  0  0  0  0  0  0  0
    0.9943   -0.1475    0.2740 C   0  0  0  0  0  0  0  0  0  0  0  0
    0.1138   -1.2189    0.7465 C   0  0  0  0  0  0  0  0  0  0  0  0
   -0.8158   -0.8365    1.7350 O   0  0  0  0  0  0  0  0  0  0  0  0
   -1.5731   -0.2883    0.7105 C   0  0  0  0  0  0  0  0  0  0  0  0
   -2.3758    0.9188    1.0709 C   0  0  0  0  0  0  0  0  0  0  0  0
   -0.4033   -0.0993   -0.1849 C   0  0  0  0  0  0  0  0  0  0  0  0
   -0.6248   -0.4870   -1.6380 C   0  0  0  0  0  0  0  0  0  0  0  0
    3.9438    0.0814   -1.1336 H   0  0  0  0  0  0  0  0  0  0  0  0
    3.5460    0.0633    0.6028 H   0  0  0  0  0  0  0  0  0  0  0  0
    2.9029    1.3945   -0.3741 H   0  0  0  0  0  0  0  0  0  0  0  0
    1.3025    0.6024    1.0573 H   0  0  0  0  0  0  0  0  0  0  0  0
    0.0592   -2.2135    0.3122 H   0  0  0  0  0  0  0  0  0  0  0  0
   -2.2564   -1.0957    0.3123 H   0  0  0  0  0  0  0  0  0  0  0  0
   -1.8408    1.8847    0.8693 H   0  0  0  0  0  0  0  0  0  0  0  0
   -2.7224    0.9083    2.1339 H   0  0  0  0  0  0  0  0  0  0  0  0
   -3.2984    0.9499    0.4496 H   0  0  0  0  0  0  0  0  0  0  0  0
   -1.6587   -0.1569   -1.8880 H   0  0  0  0  0  0  0  0  0  0  0  0
   -0.5588   -1.5971   -1.7124 H   0  0  0  0  0  0  0  0  0  0  0  0
    0.1195   -0.0137   -2.2983 H   0  0  0  0  0  0  0  0  0  0  0  0
  1  2  1  0
  2  3  1  0
  3  4  1  0
  4  5  1  0
  5  6  1  0
  6  7  1  0
  6  8  1  0
  8  9  1  0
  8  3  1  0
  8  4  1  0
  1 10  1  0
  1 11  1  0
  1 12  1  0
  3 13  1  0
  4 14  1  0
  6 15  1  0
  7 16  1  0
  7 17  1  0
  7 18  1  0
  9 19  1  0
  9 20  1  0
  9 21  1  0
M  END
