
     RDKit          3D

 20 20  0  0  0  0  0  0  0  0999 V2000
   -2.0194    0.9252   -0.9027 C   0  0  0  0  0  0  0  0  0  0  0  0
   -0.9006    0.1168   -0.7724 O   0  0  0  0  0  0  0  0  0  0  0  0
   -0.4491    0.1268    0.5458 C   0  0  0  0  0  0  0  0  0  0  0  0
    1.0605    0.3186    0.5447 C   0  0  0  0  0  0  0  0  0  0  0  0
    1.6044    1.1570   -0.5569 C   0  0  0  0  0  0  0  0  0  0  0  0
    1.1025   -1.1797    0.2049 C   0  0  0  0  0  0  0  0  0  0  0  0
   -0.1354   -1.2715    1.0867 C   0  0  0  0  0  0  0  0  0  0  0  0
   -1.0380   -2.2436    0.7511 O   0  0  0  0  0  0  0  0  0  0  0  0
   -2.7943    0.4876   -0.2057 H   0  0  0  0  0  0  0  0  0  0  0  0
   -2.3736    0.8457   -1.9680 H   0  0  0  0  0  0  0  0  0  0  0  0
   -1.8170    1.9844   -0.6772 H   0  0  0  0  0  0  0  0  0  0  0  0
   -1.0065    0.7350    1.2540 H   0  0  0  0  0  0  0  0  0  0  0  0
    1.4217    0.5295    1.5646 H   0  0  0  0  0  0  0  0  0  0  0  0
    2.5852    1.5994   -0.2342 H   0  0  0  0  0  0  0  0  0  0  0  0
    1.8131    0.5922   -1.4953 H   0  0  0  0  0  0  0  0  0  0  0  0
    0.9053    1.9790   -0.8593 H   0  0  0  0  0  0  0  0  0  0  0  0
    2.0041   -1.6277    0.6012 H   0  0  0  0  0  0  0  0  0  0  0  0
    0.8974   -1.2924   -0.8703 H   0  0  0  0  0  0  0  0  0  0  0  0
    0.1313   -1.2073    2.1455 H   0  0  0  0  0  0  0  0  0  0  0  0
   -0.9919   -2.5751   -0.1565 H   0  0  0  0  0  0  0  0  0  0  0  0
  1  2  1  0
  2  3  1  0
  3  4  1  0
  4  5  1  0
  4  6  1  0
  6  7  1  0
  7  8  1  0
  7  3  1  0
  1  9  1  0
  1 10  1  0
  1 11  1  0
  3 12  1  0
  4 13  1  0
  5 14  1  0
  5 15  1  0
  5 16  1  0
  6 17  1  0
  6 18  1  0
  7 19  1  0
  8 20  1  0
M  END
