
     RDKit          3D

 19 19  0  0  0  0  0  0  0  0999 V2000
    2.7711    0.4622    0.1711 C   0  0  0  0  0  0  0  0  0  0  0  0
    1.8533   -0.5837   -0.0293 O   0  0  0  0  0  0  0  0  0  0  0  0
    0.5931   -0.0893   -0.2140 C   0  0  0  0  0  0  0  0  0  0  0  0
   -0.4011   -0.6102    0.8153 C   0  0  0  0  0  0  0  0  0  0  0  0
   -1.7134   -0.1818    0.1909 C   0  0  0  0  0  0  0  0  0  0  0  0
   -1.9553    1.1242    0.5948 O   0  0  0  0  0  0  0  0  0  0  0  0
   -1.4957   -0.2434   -1.3184 C   0  0  0  0  0  0  0  0  0  0  0  0
   -0.0475   -0.5337   -1.4808 C   0  0  0  0  0  0  0  0  0  0  0  0
    0.5374   -1.0232   -2.4162 O   0  0  0  0  0  0  0  0  0  0  0  0
    2.7885    1.1488   -0.7171 H   0  0  0  0  0  0  0  0  0  0  0  0
    2.5332    1.0199    1.0998 H   0  0  0  0  0  0  0  0  0  0  0  0
    3.7956    0.0611    0.3007 H   0  0  0  0  0  0  0  0  0  0  0  0
    0.5260    1.0145   -0.1732 H   0  0  0  0  0  0  0  0  0  0  0  0
   -0.2922   -1.7166    0.8559 H   0  0  0  0  0  0  0  0  0  0  0  0
   -0.2484   -0.1287    1.8081 H   0  0  0  0  0  0  0  0  0  0  0  0
   -2.5434   -0.8451    0.4845 H   0  0  0  0  0  0  0  0  0  0  0  0
   -2.8986    1.3320    0.3914 H   0  0  0  0  0  0  0  0  0  0  0  0
   -1.6557    0.7797   -1.7508 H   0  0  0  0  0  0  0  0  0  0  0  0
   -2.1470   -0.9866   -1.8046 H   0  0  0  0  0  0  0  0  0  0  0  0
  1  2  1  0
  2  3  1  0
  3  4  1  0
  4  5  1  0
  5  6  1  0
  5  7  1  0
  7  8  1  0
  8  9  2  0
  8  3  1  0
  1 10  1  0
  1 11  1  0
  1 12  1  0
  3 13  1  0
  4 14  1  0
  4 15  1  0
  5 16  1  0
  6 17  1  0
  7 18  1  0
  7 19  1  0
M  END
