
     RDKit          3D

 21 21  0  0  0  0  0  0  0  0999 V2000
    2.6658   -0.7643   -0.3068 C   0  0  0  0  0  0  0  0  0  0  0  0
    1.2987   -0.8783   -0.4877 O   0  0  0  0  0  0  0  0  0  0  0  0
    0.5727   -0.0128    0.3271 C   0  0  0  0  0  0  0  0  0  0  0  0
   -0.7052   -0.5627    0.8455 C   0  0  0  0  0  0  0  0  0  0  0  0
   -1.2295   -1.8921    0.3989 C   0  0  0  0  0  0  0  0  0  0  0  0
   -0.6853    0.5000   -0.2474 C   0  0  0  0  0  0  0  0  0  0  0  0
   -1.0189    0.1158   -1.5480 O   0  0  0  0  0  0  0  0  0  0  0  0
   -1.2927    1.8044    0.1731 C   0  0  0  0  0  0  0  0  0  0  0  0
   -0.8971    2.8692   -0.6451 O   0  0  0  0  0  0  0  0  0  0  0  0
    2.9566    0.2943   -0.5538 H   0  0  0  0  0  0  0  0  0  0  0  0
    3.1474   -1.4399   -1.0430 H   0  0  0  0  0  0  0  0  0  0  0  0
    3.0152   -1.0579    0.6908 H   0  0  0  0  0  0  0  0  0  0  0  0
    1.2065    0.6318    0.9931 H   0  0  0  0  0  0  0  0  0  0  0  0
   -0.9664   -0.2505    1.8768 H   0  0  0  0  0  0  0  0  0  0  0  0
   -0.4594   -2.5922    0.0459 H   0  0  0  0  0  0  0  0  0  0  0  0
   -1.8032   -2.3925    1.2306 H   0  0  0  0  0  0  0  0  0  0  0  0
   -1.9995   -1.7060   -0.3908 H   0  0  0  0  0  0  0  0  0  0  0  0
   -0.3100    0.4816   -2.1369 H   0  0  0  0  0  0  0  0  0  0  0  0
   -1.1512    2.0338    1.2474 H   0  0  0  0  0  0  0  0  0  0  0  0
   -2.4045    1.7202    0.0257 H   0  0  0  0  0  0  0  0  0  0  0  0
    0.0601    3.0983   -0.4955 H   0  0  0  0  0  0  0  0  0  0  0  0
  1  2  1  0
  2  3  1  0
  3  4  1  0
  4  5  1  0
  4  6  1  0
  6  7  1  0
  6  8  1  0
  8  9  1  0
  6  3  1  0
  1 10  1  0
  1 11  1  0
  1 12  1  0
  3 13  1  0
  4 14  1  0
  5 15  1  0
  5 16  1  0
  5 17  1  0
  7 18  1  0
  8 19  1  0
  8 20  1  0
  9 21  1  0
M  END
