
     RDKit          3D

 17 18  0  0  0  0  0  0  0  0999 V2000
    1.6572   -1.1760    0.2981 C   0  0  0  0  0  0  0  0  0  0  0  0
    1.0194   -0.1713    0.8303 O   0  0  0  0  0  0  0  0  0  0  0  0
   -0.1337    0.3830    0.6091 C   0  0  0  0  0  0  0  0  0  0  0  0
   -1.2908   -0.5853    0.7482 C   0  0  0  0  0  0  0  0  0  0  0  0
   -0.9138   -0.8184   -0.6702 C   0  0  0  0  0  0  0  0  0  0  0  0
   -0.7348   -1.7442   -1.3759 O   0  0  0  0  0  0  0  0  0  0  0  0
   -0.8897    0.6412   -0.7118 C   0  0  0  0  0  0  0  0  0  0  0  0
   -0.1625    1.6687   -0.0438 C   0  0  0  0  0  0  0  0  0  0  0  0
    0.9629    2.1714   -0.7420 O   0  0  0  0  0  0  0  0  0  0  0  0
    1.2146   -2.2132    0.3574 H   0  0  0  0  0  0  0  0  0  0  0  0
    2.6363   -1.3193    0.8601 H   0  0  0  0  0  0  0  0  0  0  0  0
    1.9939   -1.1094   -0.7577 H   0  0  0  0  0  0  0  0  0  0  0  0
   -1.1158   -1.4156    1.4349 H   0  0  0  0  0  0  0  0  0  0  0  0
   -2.2870   -0.0854    0.8726 H   0  0  0  0  0  0  0  0  0  0  0  0
   -2.0116    0.9160   -0.6217 H   0  0  0  0  0  0  0  0  0  0  0  0
   -0.5818    2.4955    0.5768 H   0  0  0  0  0  0  0  0  0  0  0  0
    0.6371    2.3623   -1.6643 H   0  0  0  0  0  0  0  0  0  0  0  0
  1  2  1  0
  2  3  1  0
  3  4  1  0
  4  5  1  0
  5  6  2  0
  5  7  1  0
  7  8  1  0
  8  9  1  0
  7  3  1  0
  8  3  1  0
  1 10  1  0
  1 11  1  0
  1 12  1  0
  4 13  1  0
  4 14  1  0
  7 15  1  0
  8 16  1  0
  9 17  1  0
M  END
