
     RDKit          3D

 19 19  0  0  0  0  0  0  0  0999 V2000
    2.3348   -0.3957   -0.1216 C   0  0  0  0  0  0  0  0  0  0  0  0
    1.2375   -0.3955   -0.9390 O   0  0  0  0  0  0  0  0  0  0  0  0
    0.0767    0.0566   -0.3815 C   0  0  0  0  0  0  0  0  0  0  0  0
    0.0610    1.4548    0.1303 C   0  0  0  0  0  0  0  0  0  0  0  0
   -1.0988   -0.2570   -1.3164 C   0  0  0  0  0  0  0  0  0  0  0  0
   -1.1685   -1.5234   -0.7461 O   0  0  0  0  0  0  0  0  0  0  0  0
   -0.6886   -0.9609    0.4332 C   0  0  0  0  0  0  0  0  0  0  0  0
   -1.7539   -0.3854    1.2813 C   0  0  0  0  0  0  0  0  0  0  0  0
   -2.9229   -0.4234    0.9394 O   0  0  0  0  0  0  0  0  0  0  0  0
    2.6043    0.5910    0.2604 H   0  0  0  0  0  0  0  0  0  0  0  0
    2.2675   -1.1385    0.7035 H   0  0  0  0  0  0  0  0  0  0  0  0
    3.2072   -0.7355   -0.7471 H   0  0  0  0  0  0  0  0  0  0  0  0
    1.0678    1.9198    0.0911 H   0  0  0  0  0  0  0  0  0  0  0  0
   -0.6394    2.0439   -0.5301 H   0  0  0  0  0  0  0  0  0  0  0  0
   -0.2983    1.5349    1.1955 H   0  0  0  0  0  0  0  0  0  0  0  0
   -1.9979    0.3526   -1.1098 H   0  0  0  0  0  0  0  0  0  0  0  0
   -0.7906   -0.2398   -2.3857 H   0  0  0  0  0  0  0  0  0  0  0  0
    0.0093   -1.5803    1.0168 H   0  0  0  0  0  0  0  0  0  0  0  0
   -1.5072    0.0818    2.2260 H   0  0  0  0  0  0  0  0  0  0  0  0
  1  2  1  0
  2  3  1  0
  3  4  1  0
  3  5  1  0
  5  6  1  0
  6  7  1  0
  7  8  1  0
  8  9  2  0
  7  3  1  0
  1 10  1  0
  1 11  1  0
  1 12  1  0
  4 13  1  0
  4 14  1  0
  4 15  1  0
  5 16  1  0
  5 17  1  0
  7 18  1  0
  8 19  1  0
M  END
