
     RDKit          3D

 23 23  0  0  0  0  0  0  0  0999 V2000
    2.1405   -1.5176   -0.8508 C   0  0  0  0  0  0  0  0  0  0  0  0
    1.2101   -1.2442    0.1211 O   0  0  0  0  0  0  0  0  0  0  0  0
    0.5635   -0.0434   -0.0317 C   0  0  0  0  0  0  0  0  0  0  0  0
    0.4933    0.7078    1.2643 C   0  0  0  0  0  0  0  0  0  0  0  0
    0.5012    2.1987    1.1741 C   0  0  0  0  0  0  0  0  0  0  0  0
   -0.7802    0.1719    1.4588 O   0  0  0  0  0  0  0  0  0  0  0  0
   -0.9211   -0.2042    0.1251 C   0  0  0  0  0  0  0  0  0  0  0  0
   -1.4287   -1.6293   -0.0553 C   0  0  0  0  0  0  0  0  0  0  0  0
   -1.7786    0.7452   -0.6551 C   0  0  0  0  0  0  0  0  0  0  0  0
    1.7029   -1.5575   -1.8776 H   0  0  0  0  0  0  0  0  0  0  0  0
    2.5459   -2.5408   -0.6389 H   0  0  0  0  0  0  0  0  0  0  0  0
    3.0326   -0.8445   -0.8196 H   0  0  0  0  0  0  0  0  0  0  0  0
    0.8880    0.5246   -0.9143 H   0  0  0  0  0  0  0  0  0  0  0  0
    1.1910    0.3640    2.0547 H   0  0  0  0  0  0  0  0  0  0  0  0
   -0.3176    2.5779    1.8528 H   0  0  0  0  0  0  0  0  0  0  0  0
    1.4663    2.6395    1.5143 H   0  0  0  0  0  0  0  0  0  0  0  0
    0.3509    2.5165    0.1375 H   0  0  0  0  0  0  0  0  0  0  0  0
   -2.4153   -1.6928    0.4629 H   0  0  0  0  0  0  0  0  0  0  0  0
   -0.7447   -2.3580    0.3938 H   0  0  0  0  0  0  0  0  0  0  0  0
   -1.5902   -1.7970   -1.1371 H   0  0  0  0  0  0  0  0  0  0  0  0
   -2.0811    1.5981   -0.0068 H   0  0  0  0  0  0  0  0  0  0  0  0
   -1.2900    1.1286   -1.5734 H   0  0  0  0  0  0  0  0  0  0  0  0
   -2.7388    0.2566   -0.9851 H   0  0  0  0  0  0  0  0  0  0  0  0
  1  2  1  0
  2  3  1  0
  3  4  1  0
  4  5  1  0
  4  6  1  0
  6  7  1  0
  7  8  1  0
  7  9  1  0
  7  3  1  0
  1 10  1  0
  1 11  1  0
  1 12  1  0
  3 13  1  0
  4 14  1  0
  5 15  1  0
  5 16  1  0
  5 17  1  0
  8 18  1  0
  8 19  1  0
  8 20  1  0
  9 21  1  0
  9 22  1  0
  9 23  1  0
M  END
