
     RDKit          3D

 19 20  0  0  0  0  0  0  0  0999 V2000
   -2.8967    0.1664   -0.4011 C   0  0  0  0  0  0  0  0  0  0  0  0
   -1.8327   -0.4117    0.2593 O   0  0  0  0  0  0  0  0  0  0  0  0
   -0.5992    0.0156   -0.1747 C   0  0  0  0  0  0  0  0  0  0  0  0
    0.4116    0.2893    0.9200 C   0  0  0  0  0  0  0  0  0  0  0  0
    1.5747    1.1964    0.6167 C   0  0  0  0  0  0  0  0  0  0  0  0
    2.3966    0.4130   -0.3288 C   0  0  0  0  0  0  0  0  0  0  0  0
    1.8242   -0.7463   -0.6296 C   0  0  0  0  0  0  0  0  0  0  0  0
    0.5355   -0.9142    0.0672 C   0  0  0  0  0  0  0  0  0  0  0  0
    0.2668   -2.1674    0.5865 O   0  0  0  0  0  0  0  0  0  0  0  0
   -2.8586    1.2666   -0.2557 H   0  0  0  0  0  0  0  0  0  0  0  0
   -3.8252   -0.1716    0.1394 H   0  0  0  0  0  0  0  0  0  0  0  0
   -2.9658   -0.1134   -1.4718 H   0  0  0  0  0  0  0  0  0  0  0  0
   -0.5432    0.7704   -0.9982 H   0  0  0  0  0  0  0  0  0  0  0  0
    0.0977    0.1446    1.9799 H   0  0  0  0  0  0  0  0  0  0  0  0
    1.2434    2.1319    0.1550 H   0  0  0  0  0  0  0  0  0  0  0  0
    2.1195    1.3631    1.5796 H   0  0  0  0  0  0  0  0  0  0  0  0
    3.3605    0.7847   -0.7116 H   0  0  0  0  0  0  0  0  0  0  0  0
    2.2699   -1.4658   -1.3082 H   0  0  0  0  0  0  0  0  0  0  0  0
   -0.5791   -2.5516    0.2199 H   0  0  0  0  0  0  0  0  0  0  0  0
  1  2  1  0
  2  3  1  0
  3  4  1  0
  4  5  1  0
  5  6  1  0
  6  7  2  0
  7  8  1  0
  8  9  1  0
  8  3  1  0
  8  4  1  0
  1 10  1  0
  1 11  1  0
  1 12  1  0
  3 13  1  0
  4 14  1  0
  5 15  1  0
  5 16  1  0
  6 17  1  0
  7 18  1  0
  9 19  1  0
M  END
