
     RDKit          3D

 15 16  0  0  0  0  0  0  0  0999 V2000
    2.4604    0.2850   -0.0893 C   0  0  0  0  0  0  0  0  0  0  0  0
    1.1710    0.6823    0.2349 O   0  0  0  0  0  0  0  0  0  0  0  0
    0.3454   -0.4252    0.3489 C   0  0  0  0  0  0  0  0  0  0  0  0
   -1.0093   -0.3967   -0.4380 C   0  0  0  0  0  0  0  0  0  0  0  0
   -2.1668    0.4434   -0.0366 C   0  0  0  0  0  0  0  0  0  0  0  0
   -1.5059    0.9454    1.0756 O   0  0  0  0  0  0  0  0  0  0  0  0
   -0.8771   -0.3036    0.9612 C   0  0  0  0  0  0  0  0  0  0  0  0
    3.1082    1.1701   -0.1776 H   0  0  0  0  0  0  0  0  0  0  0  0
    2.8213   -0.4439    0.6611 H   0  0  0  0  0  0  0  0  0  0  0  0
    2.3820   -0.2593   -1.0670 H   0  0  0  0  0  0  0  0  0  0  0  0
    0.8369   -1.4173    0.1675 H   0  0  0  0  0  0  0  0  0  0  0  0
   -0.6825   -0.1688   -1.4037 H   0  0  0  0  0  0  0  0  0  0  0  0
   -2.5449    1.2015   -0.7263 H   0  0  0  0  0  0  0  0  0  0  0  0
   -3.0048   -0.2192    0.3286 H   0  0  0  0  0  0  0  0  0  0  0  0
   -1.3340   -1.0937    1.5901 H   0  0  0  0  0  0  0  0  0  0  0  0
  1  2  1  0
  2  3  1  0
  3  4  1  0
  4  5  1  0
  5  6  1  0
  6  7  1  0
  7  3  1  0
  7  4  1  0
  1  8  1  0
  1  9  1  0
  1 10  1  0
  3 11  1  0
  4 12  1  0
  5 13  1  0
  5 14  1  0
  7 15  1  0
M  END
