
     RDKit          3D

 17 18  0  0  0  0  0  0  0  0999 V2000
    2.4739   -0.0627   -0.2210 C   0  0  0  0  0  0  0  0  0  0  0  0
    1.1313   -0.2618   -0.4503 O   0  0  0  0  0  0  0  0  0  0  0  0
    0.2988    0.2817    0.4898 C   0  0  0  0  0  0  0  0  0  0  0  0
   -0.6037    1.2494   -0.2615 C   0  0  0  0  0  0  0  0  0  0  0  0
   -0.2310    2.2866   -0.6985 O   0  0  0  0  0  0  0  0  0  0  0  0
   -1.8648    0.4931   -0.2148 C   0  0  0  0  0  0  0  0  0  0  0  0
   -1.4425   -0.9587   -0.4405 C   0  0  0  0  0  0  0  0  0  0  0  0
   -0.8184   -0.6555    0.9003 C   0  0  0  0  0  0  0  0  0  0  0  0
   -1.9451    0.1590    1.1336 O   0  0  0  0  0  0  0  0  0  0  0  0
    2.8386   -0.4824    0.7280 H   0  0  0  0  0  0  0  0  0  0  0  0
    2.7065    1.0155   -0.3527 H   0  0  0  0  0  0  0  0  0  0  0  0
    3.0243   -0.5902   -1.0433 H   0  0  0  0  0  0  0  0  0  0  0  0
    0.7669    0.8071    1.3095 H   0  0  0  0  0  0  0  0  0  0  0  0
   -2.7291    0.8439   -0.7216 H   0  0  0  0  0  0  0  0  0  0  0  0
   -0.7204   -1.0217   -1.2844 H   0  0  0  0  0  0  0  0  0  0  0  0
   -2.2692   -1.6586   -0.4496 H   0  0  0  0  0  0  0  0  0  0  0  0
   -0.6160   -1.4447    1.5770 H   0  0  0  0  0  0  0  0  0  0  0  0
  1  2  1  0
  2  3  1  0
  3  4  1  0
  4  5  2  0
  4  6  1  0
  6  7  1  0
  7  8  1  0
  8  9  1  0
  8  3  1  0
  9  6  1  0
  1 10  1  0
  1 11  1  0
  1 12  1  0
  3 13  1  0
  6 14  1  0
  7 15  1  0
  7 16  1  0
  8 17  1  0
M  END
