
     RDKit          3D

 19 19  0  0  0  0  0  0  0  0999 V2000
    2.6180    1.1379   -0.1786 C   0  0  0  0  0  0  0  0  0  0  0  0
    1.4175    0.7201    0.3788 O   0  0  0  0  0  0  0  0  0  0  0  0
    0.6856   -0.0954   -0.4780 C   0  0  0  0  0  0  0  0  0  0  0  0
   -0.6090    0.5607   -0.7056 C   0  0  0  0  0  0  0  0  0  0  0  0
   -1.5270    0.0509    0.0705 C   0  0  0  0  0  0  0  0  0  0  0  0
   -2.9565    0.4475    0.1351 C   0  0  0  0  0  0  0  0  0  0  0  0
   -3.7700   -0.0898    0.9052 O   0  0  0  0  0  0  0  0  0  0  0  0
   -0.9608   -1.0219    0.9184 C   0  0  0  0  0  0  0  0  0  0  0  0
    0.2941   -1.3982    0.1312 C   0  0  0  0  0  0  0  0  0  0  0  0
    3.1138    1.7780    0.5888 H   0  0  0  0  0  0  0  0  0  0  0  0
    2.5161    1.7180   -1.0943 H   0  0  0  0  0  0  0  0  0  0  0  0
    3.2846    0.2449   -0.2908 H   0  0  0  0  0  0  0  0  0  0  0  0
    1.2648   -0.2076   -1.4165 H   0  0  0  0  0  0  0  0  0  0  0  0
   -0.7925    1.3803   -1.4365 H   0  0  0  0  0  0  0  0  0  0  0  0
   -3.2687    1.2290   -0.5185 H   0  0  0  0  0  0  0  0  0  0  0  0
   -1.6396   -1.8958    1.0205 H   0  0  0  0  0  0  0  0  0  0  0  0
   -0.6737   -0.6143    1.9116 H   0  0  0  0  0  0  0  0  0  0  0  0
    1.0466   -1.8761    0.7484 H   0  0  0  0  0  0  0  0  0  0  0  0
   -0.0432   -2.0683   -0.6896 H   0  0  0  0  0  0  0  0  0  0  0  0
  1  2  1  0
  2  3  1  0
  3  4  1  0
  4  5  2  0
  5  6  1  0
  6  7  2  0
  5  8  1  0
  8  9  1  0
  9  3  1  0
  1 10  1  0
  1 11  1  0
  1 12  1  0
  3 13  1  0
  4 14  1  0
  6 15  1  0
  8 16  1  0
  8 17  1  0
  9 18  1  0
  9 19  1  0
M  END
