
     RDKit          3D

 16 16  0  0  0  0  0  0  0  0999 V2000
    2.3589   -0.3674    0.2485 C   0  0  0  0  0  0  0  0  0  0  0  0
    1.1928    0.2356    0.6664 O   0  0  0  0  0  0  0  0  0  0  0  0
    0.2145    0.1291   -0.2841 C   0  0  0  0  0  0  0  0  0  0  0  0
   -0.8802    1.1146   -0.4243 C   0  0  0  0  0  0  0  0  0  0  0  0
   -0.7172    2.2858    0.3008 O   0  0  0  0  0  0  0  0  0  0  0  0
   -1.1800   -0.1338    0.3114 C   0  0  0  0  0  0  0  0  0  0  0  0
   -1.8672   -1.2639   -0.3058 C   0  0  0  0  0  0  0  0  0  0  0  0
   -2.5326   -2.0161    0.3731 O   0  0  0  0  0  0  0  0  0  0  0  0
    2.7231    0.1280   -0.6999 H   0  0  0  0  0  0  0  0  0  0  0  0
    2.1677   -1.4350    0.0814 H   0  0  0  0  0  0  0  0  0  0  0  0
    3.1148   -0.2123    1.0694 H   0  0  0  0  0  0  0  0  0  0  0  0
    0.4944   -0.4036   -1.2089 H   0  0  0  0  0  0  0  0  0  0  0  0
   -1.3141    1.2984   -1.4398 H   0  0  0  0  0  0  0  0  0  0  0  0
   -0.6870    2.0883    1.2806 H   0  0  0  0  0  0  0  0  0  0  0  0
   -1.3068   -0.0207    1.3966 H   0  0  0  0  0  0  0  0  0  0  0  0
   -1.7812   -1.4272   -1.3653 H   0  0  0  0  0  0  0  0  0  0  0  0
  1  2  1  0
  2  3  1  0
  3  4  1  0
  4  5  1  0
  4  6  1  0
  6  7  1  0
  7  8  2  0
  6  3  1  0
  1  9  1  0
  1 10  1  0
  1 11  1  0
  3 12  1  0
  4 13  1  0
  5 14  1  0
  6 15  1  0
  7 16  1  0
M  END
