
     RDKit          3D

 21 23  0  0  0  0  0  0  0  0999 V2000
    2.5585   -0.1102   -0.1491 C   0  0  0  0  0  0  0  0  0  0  0  0
    1.4300    0.1180   -0.8889 O   0  0  0  0  0  0  0  0  0  0  0  0
    0.3926    0.3573   -0.2364 C   0  0  0  0  0  0  0  0  0  0  0  0
    0.1810    1.5121    0.7368 C   0  0  0  0  0  0  0  0  0  0  0  0
   -1.1071    0.7595    0.7808 C   0  0  0  0  0  0  0  0  0  0  0  0
   -0.2891   -0.4978    0.7929 C   0  0  0  0  0  0  0  0  0  0  0  0
   -1.1235   -1.5074    0.0691 C   0  0  0  0  0  0  0  0  0  0  0  0
   -1.5628   -0.6575   -1.1373 C   0  0  0  0  0  0  0  0  0  0  0  0
   -0.9811    0.6649   -0.7168 C   0  0  0  0  0  0  0  0  0  0  0  0
    2.8575    0.7330    0.5042 H   0  0  0  0  0  0  0  0  0  0  0  0
    2.4830   -1.0230    0.5019 H   0  0  0  0  0  0  0  0  0  0  0  0
    3.4326   -0.3105   -0.8250 H   0  0  0  0  0  0  0  0  0  0  0  0
    0.0831    2.5023    0.2361 H   0  0  0  0  0  0  0  0  0  0  0  0
    0.8478    1.4512    1.5919 H   0  0  0  0  0  0  0  0  0  0  0  0
   -1.9357    0.9607    1.3068 H   0  0  0  0  0  0  0  0  0  0  0  0
    0.2397   -0.7758    1.6804 H   0  0  0  0  0  0  0  0  0  0  0  0
   -2.0435   -1.7388    0.6432 H   0  0  0  0  0  0  0  0  0  0  0  0
   -0.5889   -2.3761   -0.3032 H   0  0  0  0  0  0  0  0  0  0  0  0
   -2.6505   -0.5931   -1.2158 H   0  0  0  0  0  0  0  0  0  0  0  0
   -1.0542   -1.0007   -2.0612 H   0  0  0  0  0  0  0  0  0  0  0  0
   -1.1692    1.5319   -1.3104 H   0  0  0  0  0  0  0  0  0  0  0  0
  1  2  1  0
  2  3  1  0
  3  4  1  0
  4  5  1  0
  5  6  1  0
  6  7  1  0
  7  8  1  0
  8  9  1  0
  6  3  1  0
  9  3  1  0
  9  5  1  0
  1 10  1  0
  1 11  1  0
  1 12  1  0
  4 13  1  0
  4 14  1  0
  5 15  1  0
  6 16  1  0
  7 17  1  0
  7 18  1  0
  8 19  1  0
  8 20  1  0
  9 21  1  0
M  END
