
     RDKit          3D

 19 19  0  0  0  0  0  0  0  0999 V2000
   -2.8919   -0.7095    0.2059 C   0  0  0  0  0  0  0  0  0  0  0  0
   -1.6714   -0.9119   -0.4618 O   0  0  0  0  0  0  0  0  0  0  0  0
   -0.7749    0.0277    0.0185 C   0  0  0  0  0  0  0  0  0  0  0  0
   -0.2486    0.9299   -1.0803 C   0  0  0  0  0  0  0  0  0  0  0  0
    1.0652    1.2043   -0.8184 O   0  0  0  0  0  0  0  0  0  0  0  0
    1.4896    0.4841    0.2706 C   0  0  0  0  0  0  0  0  0  0  0  0
    2.8725   -0.0952    0.0957 C   0  0  0  0  0  0  0  0  0  0  0  0
    0.4815   -0.5581    0.5039 C   0  0  0  0  0  0  0  0  0  0  0  0
    0.6424   -1.6362    0.9791 O   0  0  0  0  0  0  0  0  0  0  0  0
   -3.2948    0.3084    0.0274 H   0  0  0  0  0  0  0  0  0  0  0  0
   -2.7597   -0.8406    1.2969 H   0  0  0  0  0  0  0  0  0  0  0  0
   -3.6530   -1.4279   -0.1403 H   0  0  0  0  0  0  0  0  0  0  0  0
   -1.2308    0.6928    0.7938 H   0  0  0  0  0  0  0  0  0  0  0  0
   -0.2725    0.3011   -2.0176 H   0  0  0  0  0  0  0  0  0  0  0  0
   -0.8917    1.8183   -1.1975 H   0  0  0  0  0  0  0  0  0  0  0  0
    1.4743    1.1517    1.1828 H   0  0  0  0  0  0  0  0  0  0  0  0
    3.1613   -0.2432   -0.9453 H   0  0  0  0  0  0  0  0  0  0  0  0
    3.6103    0.5655    0.6366 H   0  0  0  0  0  0  0  0  0  0  0  0
    2.8923   -1.0612    0.6499 H   0  0  0  0  0  0  0  0  0  0  0  0
  1  2  1  0
  2  3  1  0
  3  4  1  0
  4  5  1  0
  5  6  1  0
  6  7  1  0
  6  8  1  0
  8  9  2  0
  8  3  1  0
  1 10  1  0
  1 11  1  0
  1 12  1  0
  3 13  1  0
  4 14  1  0
  4 15  1  0
  6 16  1  0
  7 17  1  0
  7 18  1  0
  7 19  1  0
M  END
