
     RDKit          3D

 25 25  0  0  0  0  0  0  0  0999 V2000
    3.1444   -0.5576   -0.6906 C   0  0  0  0  0  0  0  0  0  0  0  0
    2.2750    0.5225   -0.4164 O   0  0  0  0  0  0  0  0  0  0  0  0
    1.1677    0.0951    0.2991 C   0  0  0  0  0  0  0  0  0  0  0  0
    0.9877    0.8115    1.6484 C   0  0  0  0  0  0  0  0  0  0  0  0
   -0.5162    0.6188    1.4064 C   0  0  0  0  0  0  0  0  0  0  0  0
   -0.1477    0.6774   -0.0781 C   0  0  0  0  0  0  0  0  0  0  0  0
   -1.0926   -0.1341   -0.8746 C   0  0  0  0  0  0  0  0  0  0  0  0
   -2.3396    0.7268   -1.1003 C   0  0  0  0  0  0  0  0  0  0  0  0
   -1.5401   -1.4038   -0.2375 C   0  0  0  0  0  0  0  0  0  0  0  0
    2.5874   -1.3221   -1.2941 H   0  0  0  0  0  0  0  0  0  0  0  0
    3.4999   -1.0317    0.2299 H   0  0  0  0  0  0  0  0  0  0  0  0
    3.9492   -0.1750   -1.3483 H   0  0  0  0  0  0  0  0  0  0  0  0
    1.2051   -0.9886    0.4980 H   0  0  0  0  0  0  0  0  0  0  0  0
    1.2033    1.9025    1.5992 H   0  0  0  0  0  0  0  0  0  0  0  0
    1.3870    0.2790    2.5073 H   0  0  0  0  0  0  0  0  0  0  0  0
   -1.1364    1.4701    1.6795 H   0  0  0  0  0  0  0  0  0  0  0  0
   -0.8161   -0.3727    1.7485 H   0  0  0  0  0  0  0  0  0  0  0  0
   -0.0434    1.7016   -0.4504 H   0  0  0  0  0  0  0  0  0  0  0  0
   -0.7200   -0.3715   -1.9092 H   0  0  0  0  0  0  0  0  0  0  0  0
   -2.0412    1.7848   -1.2046 H   0  0  0  0  0  0  0  0  0  0  0  0
   -2.9295    0.3711   -1.9519 H   0  0  0  0  0  0  0  0  0  0  0  0
   -2.9367    0.6707   -0.1575 H   0  0  0  0  0  0  0  0  0  0  0  0
   -0.7322   -2.0865    0.0517 H   0  0  0  0  0  0  0  0  0  0  0  0
   -2.1466   -1.9622   -1.0099 H   0  0  0  0  0  0  0  0  0  0  0  0
   -2.2682   -1.2259    0.5980 H   0  0  0  0  0  0  0  0  0  0  0  0
  1  2  1  0
  2  3  1  0
  3  4  1  0
  4  5  1  0
  5  6  1  0
  6  7  1  0
  7  8  1  0
  7  9  1  0
  6  3  1  0
  1 10  1  0
  1 11  1  0
  1 12  1  0
  3 13  1  0
  4 14  1  0
  4 15  1  0
  5 16  1  0
  5 17  1  0
  6 18  1  0
  7 19  1  0
  8 20  1  0
  8 21  1  0
  8 22  1  0
  9 23  1  0
  9 24  1  0
  9 25  1  0
M  END
