
     RDKit          3D

 25 25  0  0  0  0  0  0  0  0999 V2000
    2.7803   -0.4748    0.8106 C   0  0  0  0  0  0  0  0  0  0  0  0
    1.9496    0.6183    0.6530 O   0  0  0  0  0  0  0  0  0  0  0  0
    0.7636    0.3560    0.0346 C   0  0  0  0  0  0  0  0  0  0  0  0
    0.8330   -0.1995   -1.3664 C   0  0  0  0  0  0  0  0  0  0  0  0
   -0.1354    1.5763    0.0558 C   0  0  0  0  0  0  0  0  0  0  0  0
   -1.1431    0.8659    0.9546 C   0  0  0  0  0  0  0  0  0  0  0  0
   -2.4832    0.8115    0.2964 C   0  0  0  0  0  0  0  0  0  0  0  0
   -0.2838   -0.3435    0.9009 C   0  0  0  0  0  0  0  0  0  0  0  0
   -0.8394   -1.5781    0.2711 C   0  0  0  0  0  0  0  0  0  0  0  0
    3.0840   -0.9651   -0.1083 H   0  0  0  0  0  0  0  0  0  0  0  0
    3.6853   -0.2078    1.3921 H   0  0  0  0  0  0  0  0  0  0  0  0
    2.2474   -1.2583    1.4261 H   0  0  0  0  0  0  0  0  0  0  0  0
    1.4106    0.4982   -1.9902 H   0  0  0  0  0  0  0  0  0  0  0  0
    1.1523   -1.2411   -1.4101 H   0  0  0  0  0  0  0  0  0  0  0  0
   -0.2175   -0.1735   -1.7624 H   0  0  0  0  0  0  0  0  0  0  0  0
    0.2822    2.4540    0.5906 H   0  0  0  0  0  0  0  0  0  0  0  0
   -0.5452    1.8715   -0.9344 H   0  0  0  0  0  0  0  0  0  0  0  0
   -1.2242    1.3040    1.9744 H   0  0  0  0  0  0  0  0  0  0  0  0
   -2.9219   -0.2011    0.2576 H   0  0  0  0  0  0  0  0  0  0  0  0
   -2.4820    1.2263   -0.7390 H   0  0  0  0  0  0  0  0  0  0  0  0
   -3.2399    1.4423    0.8467 H   0  0  0  0  0  0  0  0  0  0  0  0
    0.1735   -0.5860    1.8829 H   0  0  0  0  0  0  0  0  0  0  0  0
   -1.4273   -1.4070   -0.6383 H   0  0  0  0  0  0  0  0  0  0  0  0
    0.0052   -2.2471   -0.0199 H   0  0  0  0  0  0  0  0  0  0  0  0
   -1.4241   -2.1411    1.0273 H   0  0  0  0  0  0  0  0  0  0  0  0
  1  2  1  0
  2  3  1  0
  3  4  1  0
  3  5  1  0
  5  6  1  0
  6  7  1  0
  6  8  1  0
  8  9  1  0
  8  3  1  0
  1 10  1  0
  1 11  1  0
  1 12  1  0
  4 13  1  0
  4 14  1  0
  4 15  1  0
  5 16  1  0
  5 17  1  0
  6 18  1  0
  7 19  1  0
  7 20  1  0
  7 21  1  0
  8 22  1  0
  9 23  1  0
  9 24  1  0
  9 25  1  0
M  END
