
     RDKit          3D

 19 19  0  0  0  0  0  0  0  0999 V2000
    2.7861    0.6599   -0.5653 C   0  0  0  0  0  0  0  0  0  0  0  0
    1.6506    0.1219   -1.1332 O   0  0  0  0  0  0  0  0  0  0  0  0
    0.7077   -0.0922   -0.1320 C   0  0  0  0  0  0  0  0  0  0  0  0
    0.3943   -1.4337   -0.0437 O   0  0  0  0  0  0  0  0  0  0  0  0
   -0.9345   -1.4399    0.4278 C   0  0  0  0  0  0  0  0  0  0  0  0
   -1.5501   -0.5043   -0.6190 C   0  0  0  0  0  0  0  0  0  0  0  0
   -2.8098   -0.1738   -0.1968 O   0  0  0  0  0  0  0  0  0  0  0  0
   -0.5585    0.6468   -0.4978 C   0  0  0  0  0  0  0  0  0  0  0  0
   -1.0091    1.4404    0.5579 O   0  0  0  0  0  0  0  0  0  0  0  0
    3.5845    0.8600   -1.2936 H   0  0  0  0  0  0  0  0  0  0  0  0
    3.1722   -0.0395    0.2276 H   0  0  0  0  0  0  0  0  0  0  0  0
    2.5170    1.6105   -0.0639 H   0  0  0  0  0  0  0  0  0  0  0  0
    1.0941    0.2179    0.8647 H   0  0  0  0  0  0  0  0  0  0  0  0
   -1.3845   -2.4228    0.4340 H   0  0  0  0  0  0  0  0  0  0  0  0
   -0.9273   -0.8961    1.3738 H   0  0  0  0  0  0  0  0  0  0  0  0
   -1.5019   -0.9862   -1.6057 H   0  0  0  0  0  0  0  0  0  0  0  0
   -3.3038   -1.0187   -0.0298 H   0  0  0  0  0  0  0  0  0  0  0  0
   -0.4333    1.1991   -1.4319 H   0  0  0  0  0  0  0  0  0  0  0  0
   -1.4938    2.2506    0.2363 H   0  0  0  0  0  0  0  0  0  0  0  0
  1  2  1  0
  2  3  1  0
  3  4  1  0
  4  5  1  0
  5  6  1  0
  6  7  1  0
  6  8  1  0
  8  9  1  0
  8  3  1  0
  1 10  1  0
  1 11  1  0
  1 12  1  0
  3 13  1  0
  5 14  1  0
  5 15  1  0
  6 16  1  0
  7 17  1  0
  8 18  1  0
  9 19  1  0
M  END
