
     RDKit          3D

 23 24  0  0  0  0  0  0  0  0999 V2000
    2.5866   -0.1869    1.1131 C   0  0  0  0  0  0  0  0  0  0  0  0
    1.6546    0.5871    0.4134 O   0  0  0  0  0  0  0  0  0  0  0  0
    0.8494   -0.2165   -0.3844 C   0  0  0  0  0  0  0  0  0  0  0  0
    0.7790    0.3828   -1.7953 C   0  0  0  0  0  0  0  0  0  0  0  0
   -0.5489    1.0511   -1.4138 C   0  0  0  0  0  0  0  0  0  0  0  0
   -0.6000    0.1340   -0.2443 C   0  0  0  0  0  0  0  0  0  0  0  0
   -1.0611    0.6672    1.0552 C   0  0  0  0  0  0  0  0  0  0  0  0
   -1.9730   -0.5626    1.1712 C   0  0  0  0  0  0  0  0  0  0  0  0
   -1.5840   -0.9697   -0.2537 C   0  0  0  0  0  0  0  0  0  0  0  0
    3.1999   -0.7114    0.3451 H   0  0  0  0  0  0  0  0  0  0  0  0
    2.0518   -0.8869    1.7538 H   0  0  0  0  0  0  0  0  0  0  0  0
    3.2791    0.4662    1.6793 H   0  0  0  0  0  0  0  0  0  0  0  0
    1.0519   -1.2893   -0.3511 H   0  0  0  0  0  0  0  0  0  0  0  0
    1.5924    1.0958   -2.0098 H   0  0  0  0  0  0  0  0  0  0  0  0
    0.6687   -0.4438   -2.5114 H   0  0  0  0  0  0  0  0  0  0  0  0
   -0.4569    2.1325   -1.1880 H   0  0  0  0  0  0  0  0  0  0  0  0
   -1.3593    0.8918   -2.1484 H   0  0  0  0  0  0  0  0  0  0  0  0
   -1.6360    1.6187    1.0360 H   0  0  0  0  0  0  0  0  0  0  0  0
   -0.2872    0.6896    1.8541 H   0  0  0  0  0  0  0  0  0  0  0  0
   -3.0259   -0.2835    1.2607 H   0  0  0  0  0  0  0  0  0  0  0  0
   -1.6049   -1.3247    1.8869 H   0  0  0  0  0  0  0  0  0  0  0  0
   -2.4494   -0.8577   -0.9498 H   0  0  0  0  0  0  0  0  0  0  0  0
   -1.1266   -1.9839   -0.3188 H   0  0  0  0  0  0  0  0  0  0  0  0
  1  2  1  0
  2  3  1  0
  3  4  1  0
  4  5  1  0
  5  6  1  0
  6  7  1  0
  7  8  1  0
  8  9  1  0
  6  3  1  0
  9  6  1  0
  1 10  1  0
  1 11  1  0
  1 12  1  0
  3 13  1  0
  4 14  1  0
  4 15  1  0
  5 16  1  0
  5 17  1  0
  7 18  1  0
  7 19  1  0
  8 20  1  0
  8 21  1  0
  9 22  1  0
  9 23  1  0
M  END
