
     RDKit          3D

 19 20  0  0  0  0  0  0  0  0999 V2000
    2.7322    0.1391    0.1549 C   0  0  0  0  0  0  0  0  0  0  0  0
    1.7422    0.3922   -0.7966 O   0  0  0  0  0  0  0  0  0  0  0  0
    0.5284    0.1450   -0.2031 C   0  0  0  0  0  0  0  0  0  0  0  0
   -0.3328   -0.7122   -1.1181 C   0  0  0  0  0  0  0  0  0  0  0  0
   -1.3122   -1.3948   -0.1985 C   0  0  0  0  0  0  0  0  0  0  0  0
   -1.7474   -0.6420    0.8147 C   0  0  0  0  0  0  0  0  0  0  0  0
   -1.6762    0.8473    0.5809 C   0  0  0  0  0  0  0  0  0  0  0  0
   -0.5791    1.1054   -0.4526 C   0  0  0  0  0  0  0  0  0  0  0  0
   -0.8657    0.4610   -1.6300 O   0  0  0  0  0  0  0  0  0  0  0  0
    2.6232   -0.9435    0.4519 H   0  0  0  0  0  0  0  0  0  0  0  0
    3.7509    0.2479   -0.2417 H   0  0  0  0  0  0  0  0  0  0  0  0
    2.5496    0.7338    1.0703 H   0  0  0  0  0  0  0  0  0  0  0  0
    0.5693   -0.1859    0.8473 H   0  0  0  0  0  0  0  0  0  0  0  0
    0.1978   -1.3662   -1.8048 H   0  0  0  0  0  0  0  0  0  0  0  0
   -1.6276   -2.4179   -0.3622 H   0  0  0  0  0  0  0  0  0  0  0  0
   -2.1271   -1.0565    1.7437 H   0  0  0  0  0  0  0  0  0  0  0  0
   -1.4815    1.3697    1.5138 H   0  0  0  0  0  0  0  0  0  0  0  0
   -2.6772    1.1165    0.1425 H   0  0  0  0  0  0  0  0  0  0  0  0
   -0.2667    2.1609   -0.5122 H   0  0  0  0  0  0  0  0  0  0  0  0
  1  2  1  0
  2  3  1  0
  3  4  1  0
  4  5  1  0
  5  6  2  0
  6  7  1  0
  7  8  1  0
  8  9  1  0
  8  3  1  0
  9  4  1  0
  1 10  1  0
  1 11  1  0
  1 12  1  0
  3 13  1  0
  4 14  1  0
  5 15  1  0
  6 16  1  0
  7 17  1  0
  7 18  1  0
  8 19  1  0
M  END
