
     RDKit          3D

 21 22  0  0  0  0  0  0  0  0999 V2000
    2.4497    1.2576   -1.1476 C   0  0  0  0  0  0  0  0  0  0  0  0
    1.1565    0.7049   -1.2089 O   0  0  0  0  0  0  0  0  0  0  0  0
    0.9818   -0.0752   -0.0934 C   0  0  0  0  0  0  0  0  0  0  0  0
    0.3440   -1.4290   -0.3186 C   0  0  0  0  0  0  0  0  0  0  0  0
   -0.8978   -1.0753   -1.0337 C   0  0  0  0  0  0  0  0  0  0  0  0
   -1.3486   -0.0191   -0.3504 C   0  0  0  0  0  0  0  0  0  0  0  0
   -2.5886    0.7727   -0.5656 C   0  0  0  0  0  0  0  0  0  0  0  0
   -0.3012    0.1698    0.6814 C   0  0  0  0  0  0  0  0  0  0  0  0
   -0.1287   -1.2890    1.1385 C   0  0  0  0  0  0  0  0  0  0  0  0
    3.1927    0.4426   -1.1272 H   0  0  0  0  0  0  0  0  0  0  0  0
    2.6560    1.9218   -2.0037 H   0  0  0  0  0  0  0  0  0  0  0  0
    2.5782    1.8036   -0.1668 H   0  0  0  0  0  0  0  0  0  0  0  0
    1.8462   -0.1213    0.6093 H   0  0  0  0  0  0  0  0  0  0  0  0
    0.9230   -2.2587   -0.5803 H   0  0  0  0  0  0  0  0  0  0  0  0
   -1.3430   -1.5476   -1.8989 H   0  0  0  0  0  0  0  0  0  0  0  0
   -3.2627    0.7558    0.2983 H   0  0  0  0  0  0  0  0  0  0  0  0
   -3.1278    0.3232   -1.4427 H   0  0  0  0  0  0  0  0  0  0  0  0
   -2.3626    1.8508   -0.7650 H   0  0  0  0  0  0  0  0  0  0  0  0
   -0.3566    0.9240    1.4029 H   0  0  0  0  0  0  0  0  0  0  0  0
    0.6683   -1.3438    1.8752 H   0  0  0  0  0  0  0  0  0  0  0  0
   -1.0787   -1.7680    1.3568 H   0  0  0  0  0  0  0  0  0  0  0  0
  1  2  1  0
  2  3  1  0
  3  4  1  0
  4  5  1  0
  5  6  2  0
  6  7  1  0
  6  8  1  0
  8  9  1  0
  8  3  1  0
  9  4  1  0
  1 10  1  0
  1 11  1  0
  1 12  1  0
  3 13  1  0
  4 14  1  0
  5 15  1  0
  7 16  1  0
  7 17  1  0
  7 18  1  0
  8 19  1  0
  9 20  1  0
  9 21  1  0
M  END
