
     RDKit          3D

 23 24  0  0  0  0  0  0  0  0999 V2000
    2.1635   -1.2191    0.1006 C   0  0  0  0  0  0  0  0  0  0  0  0
    1.6785   -0.0062    0.5129 O   0  0  0  0  0  0  0  0  0  0  0  0
    0.5217    0.4239   -0.0569 C   0  0  0  0  0  0  0  0  0  0  0  0
    0.5430    0.5887   -1.5709 C   0  0  0  0  0  0  0  0  0  0  0  0
    0.1595    1.7997    0.5420 C   0  0  0  0  0  0  0  0  0  0  0  0
   -1.3188    1.3700    0.5507 C   0  0  0  0  0  0  0  0  0  0  0  0
   -0.7877   -0.0248    0.4161 C   0  0  0  0  0  0  0  0  0  0  0  0
   -1.4783   -1.0994   -0.2841 C   0  0  0  0  0  0  0  0  0  0  0  0
   -1.1888   -1.1528    1.1950 C   0  0  0  0  0  0  0  0  0  0  0  0
    3.1125   -1.3991    0.6772 H   0  0  0  0  0  0  0  0  0  0  0  0
    1.4978   -2.0608    0.3717 H   0  0  0  0  0  0  0  0  0  0  0  0
    2.4559   -1.2423   -0.9703 H   0  0  0  0  0  0  0  0  0  0  0  0
    1.0492    1.5290   -1.8785 H   0  0  0  0  0  0  0  0  0  0  0  0
    0.9891   -0.2819   -2.0816 H   0  0  0  0  0  0  0  0  0  0  0  0
   -0.4999    0.6689   -1.9458 H   0  0  0  0  0  0  0  0  0  0  0  0
    0.3787    2.6465   -0.1190 H   0  0  0  0  0  0  0  0  0  0  0  0
    0.4955    1.9368    1.5675 H   0  0  0  0  0  0  0  0  0  0  0  0
   -1.8130    1.5151    1.5142 H   0  0  0  0  0  0  0  0  0  0  0  0
   -1.8753    1.6934   -0.3531 H   0  0  0  0  0  0  0  0  0  0  0  0
   -2.5025   -0.8868   -0.6436 H   0  0  0  0  0  0  0  0  0  0  0  0
   -0.8925   -1.8062   -0.9295 H   0  0  0  0  0  0  0  0  0  0  0  0
   -0.5575   -1.9503    1.5748 H   0  0  0  0  0  0  0  0  0  0  0  0
   -2.1304   -1.0426    1.8105 H   0  0  0  0  0  0  0  0  0  0  0  0
  1  2  1  0
  2  3  1  0
  3  4  1  0
  3  5  1  0
  5  6  1  0
  6  7  1  0
  7  8  1  0
  8  9  1  0
  7  3  1  0
  9  7  1  0
  1 10  1  0
  1 11  1  0
  1 12  1  0
  4 13  1  0
  4 14  1  0
  4 15  1  0
  5 16  1  0
  5 17  1  0
  6 18  1  0
  6 19  1  0
  8 20  1  0
  8 21  1  0
  9 22  1  0
  9 23  1  0
M  END
