
     RDKit          3D

 19 20  0  0  0  0  0  0  0  0999 V2000
    2.1646    0.5175    0.0368 C   0  0  0  0  0  0  0  0  0  0  0  0
    0.9218    0.6243    0.6405 O   0  0  0  0  0  0  0  0  0  0  0  0
   -0.0354   -0.1901    0.0760 C   0  0  0  0  0  0  0  0  0  0  0  0
    0.2275   -1.6636    0.0970 C   0  0  0  0  0  0  0  0  0  0  0  0
   -1.4138    0.2151    0.6113 C   0  0  0  0  0  0  0  0  0  0  0  0
   -1.3906    1.0987    1.6584 O   0  0  0  0  0  0  0  0  0  0  0  0
   -1.6149    0.9143   -0.7092 C   0  0  0  0  0  0  0  0  0  0  0  0
   -1.6904    0.0727   -1.7955 O   0  0  0  0  0  0  0  0  0  0  0  0
   -0.4531    0.3161   -1.2706 C   0  0  0  0  0  0  0  0  0  0  0  0
    2.1485    0.7822   -1.0336 H   0  0  0  0  0  0  0  0  0  0  0  0
    2.5782   -0.4695    0.2541 H   0  0  0  0  0  0  0  0  0  0  0  0
    2.8309    1.2732    0.5257 H   0  0  0  0  0  0  0  0  0  0  0  0
    0.0603   -2.0824   -0.9217 H   0  0  0  0  0  0  0  0  0  0  0  0
   -0.5646   -2.1315    0.7357 H   0  0  0  0  0  0  0  0  0  0  0  0
    1.1992   -1.9519    0.5017 H   0  0  0  0  0  0  0  0  0  0  0  0
   -2.0197   -0.7002    0.7415 H   0  0  0  0  0  0  0  0  0  0  0  0
   -1.4483    0.6283    2.5326 H   0  0  0  0  0  0  0  0  0  0  0  0
   -1.8082    1.9779   -0.7681 H   0  0  0  0  0  0  0  0  0  0  0  0
    0.3078    0.7690   -1.9128 H   0  0  0  0  0  0  0  0  0  0  0  0
  1  2  1  0
  2  3  1  0
  3  4  1  0
  3  5  1  0
  5  6  1  0
  5  7  1  0
  7  8  1  0
  8  9  1  0
  9  3  1  0
  9  7  1  0
  1 10  1  0
  1 11  1  0
  1 12  1  0
  4 13  1  0
  4 14  1  0
  4 15  1  0
  5 16  1  0
  6 17  1  0
  7 18  1  0
  9 19  1  0
M  END
