
     RDKit          3D

 21 22  0  0  0  0  0  0  0  0999 V2000
    2.9395   -0.6693    0.0612 C   0  0  0  0  0  0  0  0  0  0  0  0
    1.5936   -0.8222   -0.2142 O   0  0  0  0  0  0  0  0  0  0  0  0
    0.9506    0.3892   -0.3400 C   0  0  0  0  0  0  0  0  0  0  0  0
   -0.0965    0.4422   -1.4497 C   0  0  0  0  0  0  0  0  0  0  0  0
   -0.4686    0.5838   -0.0840 C   0  0  0  0  0  0  0  0  0  0  0  0
   -1.0815    1.7343    0.5893 C   0  0  0  0  0  0  0  0  0  0  0  0
   -2.1710    0.9063    0.9308 O   0  0  0  0  0  0  0  0  0  0  0  0
   -1.3342   -0.2213    0.7620 C   0  0  0  0  0  0  0  0  0  0  0  0
   -2.0683   -1.3848    0.1850 C   0  0  0  0  0  0  0  0  0  0  0  0
    3.4030   -1.6779    0.1512 H   0  0  0  0  0  0  0  0  0  0  0  0
    3.0153   -0.2110    1.0769 H   0  0  0  0  0  0  0  0  0  0  0  0
    3.5014   -0.1160   -0.6974 H   0  0  0  0  0  0  0  0  0  0  0  0
    1.6120    1.2722   -0.2012 H   0  0  0  0  0  0  0  0  0  0  0  0
    0.0025    1.3361   -2.0957 H   0  0  0  0  0  0  0  0  0  0  0  0
   -0.2716   -0.5067   -2.0328 H   0  0  0  0  0  0  0  0  0  0  0  0
   -0.5111    2.0433    1.5064 H   0  0  0  0  0  0  0  0  0  0  0  0
   -1.3450    2.5678   -0.0776 H   0  0  0  0  0  0  0  0  0  0  0  0
   -0.8392   -0.4663    1.7484 H   0  0  0  0  0  0  0  0  0  0  0  0
   -3.1554   -1.1897    0.0527 H   0  0  0  0  0  0  0  0  0  0  0  0
   -1.6639   -1.7543   -0.7723 H   0  0  0  0  0  0  0  0  0  0  0  0
   -2.0118   -2.2557    0.9011 H   0  0  0  0  0  0  0  0  0  0  0  0
  1  2  1  0
  2  3  1  0
  3  4  1  0
  4  5  1  0
  5  6  1  0
  6  7  1  0
  7  8  1  0
  8  9  1  0
  5  3  1  0
  8  5  1  0
  1 10  1  0
  1 11  1  0
  1 12  1  0
  3 13  1  0
  4 14  1  0
  4 15  1  0
  6 16  1  0
  6 17  1  0
  8 18  1  0
  9 19  1  0
  9 20  1  0
  9 21  1  0
M  END
