
     RDKit          3D

 23 24  0  0  0  0  0  0  0  0999 V2000
    2.4551   -0.8156    0.5309 C   0  0  0  0  0  0  0  0  0  0  0  0
    1.4185   -0.8146   -0.3437 O   0  0  0  0  0  0  0  0  0  0  0  0
    0.4054    0.0042   -0.1372 C   0  0  0  0  0  0  0  0  0  0  0  0
    0.5631    1.4866   -0.0845 C   0  0  0  0  0  0  0  0  0  0  0  0
   -0.9053    1.8843    0.1822 C   0  0  0  0  0  0  0  0  0  0  0  0
   -1.5224    0.5199    0.2171 C   0  0  0  0  0  0  0  0  0  0  0  0
   -0.5018   -0.2392    1.0794 C   0  0  0  0  0  0  0  0  0  0  0  0
   -0.8571   -0.1619   -0.9578 C   0  0  0  0  0  0  0  0  0  0  0  0
   -1.1744   -1.6146   -1.1336 C   0  0  0  0  0  0  0  0  0  0  0  0
    2.1408   -1.0802    1.5793 H   0  0  0  0  0  0  0  0  0  0  0  0
    3.1566   -1.6498    0.2383 H   0  0  0  0  0  0  0  0  0  0  0  0
    3.0723    0.0923    0.5563 H   0  0  0  0  0  0  0  0  0  0  0  0
    0.9000    1.8995   -1.0446 H   0  0  0  0  0  0  0  0  0  0  0  0
    1.2070    1.7529    0.7613 H   0  0  0  0  0  0  0  0  0  0  0  0
   -0.9836    2.4339    1.1328 H   0  0  0  0  0  0  0  0  0  0  0  0
   -1.3084    2.4854   -0.6486 H   0  0  0  0  0  0  0  0  0  0  0  0
   -2.5480    0.3738    0.4101 H   0  0  0  0  0  0  0  0  0  0  0  0
   -0.7554   -1.3016    1.2402 H   0  0  0  0  0  0  0  0  0  0  0  0
   -0.1661    0.3215    1.9716 H   0  0  0  0  0  0  0  0  0  0  0  0
   -0.8765    0.4417   -1.9041 H   0  0  0  0  0  0  0  0  0  0  0  0
   -0.4050   -2.2896   -0.6802 H   0  0  0  0  0  0  0  0  0  0  0  0
   -1.1519   -1.8268   -2.2387 H   0  0  0  0  0  0  0  0  0  0  0  0
   -2.1630   -1.9020   -0.7265 H   0  0  0  0  0  0  0  0  0  0  0  0
  1  2  1  0
  2  3  1  0
  3  4  1  0
  4  5  1  0
  5  6  1  0
  6  7  1  0
  6  8  1  0
  8  9  1  0
  7  3  1  0
  8  3  1  0
  1 10  1  0
  1 11  1  0
  1 12  1  0
  4 13  1  0
  4 14  1  0
  5 15  1  0
  5 16  1  0
  6 17  1  0
  7 18  1  0
  7 19  1  0
  8 20  1  0
  9 21  1  0
  9 22  1  0
  9 23  1  0
M  END
