
     RDKit          3D

 19 20  0  0  0  0  0  0  0  0999 V2000
    2.7977   -0.1531   -0.5597 C   0  0  0  0  0  0  0  0  0  0  0  0
    1.4405   -0.1020   -0.8703 O   0  0  0  0  0  0  0  0  0  0  0  0
    0.7573    0.1400    0.3226 C   0  0  0  0  0  0  0  0  0  0  0  0
   -0.2686   -0.9800    0.4505 C   0  0  0  0  0  0  0  0  0  0  0  0
   -1.1766   -0.5875   -0.7242 C   0  0  0  0  0  0  0  0  0  0  0  0
   -2.5127   -0.6000   -0.4555 O   0  0  0  0  0  0  0  0  0  0  0  0
   -2.4441    0.7021    0.0424 C   0  0  0  0  0  0  0  0  0  0  0  0
   -1.1128    0.9106   -0.6322 C   0  0  0  0  0  0  0  0  0  0  0  0
   -0.0679    1.2499    0.1902 O   0  0  0  0  0  0  0  0  0  0  0  0
    3.1274    0.8274   -0.1085 H   0  0  0  0  0  0  0  0  0  0  0  0
    3.4160   -0.4190   -1.4433 H   0  0  0  0  0  0  0  0  0  0  0  0
    2.9265   -0.9219    0.2237 H   0  0  0  0  0  0  0  0  0  0  0  0
    1.4037    0.2315    1.1936 H   0  0  0  0  0  0  0  0  0  0  0  0
   -0.8109   -0.9178    1.4130 H   0  0  0  0  0  0  0  0  0  0  0  0
    0.1689   -1.9738    0.3164 H   0  0  0  0  0  0  0  0  0  0  0  0
   -0.8254   -1.0085   -1.6711 H   0  0  0  0  0  0  0  0  0  0  0  0
   -2.3832    0.7658    1.1587 H   0  0  0  0  0  0  0  0  0  0  0  0
   -3.2402    1.3720   -0.3922 H   0  0  0  0  0  0  0  0  0  0  0  0
   -1.1956    1.4644   -1.5886 H   0  0  0  0  0  0  0  0  0  0  0  0
  1  2  1  0
  2  3  1  0
  3  4  1  0
  4  5  1  0
  5  6  1  0
  6  7  1  0
  7  8  1  0
  8  9  1  0
  9  3  1  0
  8  5  1  0
  1 10  1  0
  1 11  1  0
  1 12  1  0
  3 13  1  0
  4 14  1  0
  4 15  1  0
  5 16  1  0
  7 17  1  0
  7 18  1  0
  8 19  1  0
M  END
