
     RDKit          3D

 21 22  0  0  0  0  0  0  0  0999 V2000
   -3.1396    0.7935   -0.6304 C   0  0  0  0  0  0  0  0  0  0  0  0
   -1.8956    1.0706   -0.0777 O   0  0  0  0  0  0  0  0  0  0  0  0
   -1.1512   -0.0736   -0.0208 C   0  0  0  0  0  0  0  0  0  0  0  0
   -0.4454   -0.2848    1.3251 C   0  0  0  0  0  0  0  0  0  0  0  0
    0.3005   -0.0466    0.0788 C   0  0  0  0  0  0  0  0  0  0  0  0
    1.1404    1.1288   -0.1399 C   0  0  0  0  0  0  0  0  0  0  0  0
    2.4185    0.7670   -0.1097 C   0  0  0  0  0  0  0  0  0  0  0  0
    2.5138   -0.7010    0.1360 C   0  0  0  0  0  0  0  0  0  0  0  0
    1.1820   -1.1703   -0.4171 C   0  0  0  0  0  0  0  0  0  0  0  0
   -3.0261    0.3833   -1.6693 H   0  0  0  0  0  0  0  0  0  0  0  0
   -3.8238    1.6588   -0.6027 H   0  0  0  0  0  0  0  0  0  0  0  0
   -3.6644   -0.0277   -0.0591 H   0  0  0  0  0  0  0  0  0  0  0  0
   -1.6189   -1.0036   -0.4013 H   0  0  0  0  0  0  0  0  0  0  0  0
   -0.4541    0.5526    2.0524 H   0  0  0  0  0  0  0  0  0  0  0  0
   -0.4738   -1.2744    1.7891 H   0  0  0  0  0  0  0  0  0  0  0  0
    0.8192    2.1474   -0.3041 H   0  0  0  0  0  0  0  0  0  0  0  0
    3.3106    1.3909   -0.2366 H   0  0  0  0  0  0  0  0  0  0  0  0
    2.5114   -0.8777    1.2458 H   0  0  0  0  0  0  0  0  0  0  0  0
    3.3687   -1.1683   -0.3645 H   0  0  0  0  0  0  0  0  0  0  0  0
    0.8847   -2.1570   -0.0552 H   0  0  0  0  0  0  0  0  0  0  0  0
    1.2430   -1.1077   -1.5387 H   0  0  0  0  0  0  0  0  0  0  0  0
  1  2  1  0
  2  3  1  0
  3  4  1  0
  4  5  1  0
  5  6  1  0
  6  7  2  0
  7  8  1  0
  8  9  1  0
  5  3  1  0
  9  5  1  0
  1 10  1  0
  1 11  1  0
  1 12  1  0
  3 13  1  0
  4 14  1  0
  4 15  1  0
  6 16  1  0
  7 17  1  0
  8 18  1  0
  8 19  1  0
  9 20  1  0
  9 21  1  0
M  END
