
     RDKit          3D

 19 20  0  0  0  0  0  0  0  0999 V2000
    3.2221   -0.0372   -0.1924 C   0  0  0  0  0  0  0  0  0  0  0  0
    2.0777   -0.7748    0.1611 O   0  0  0  0  0  0  0  0  0  0  0  0
    0.9251   -0.0522   -0.0196 C   0  0  0  0  0  0  0  0  0  0  0  0
   -0.2235   -0.2626    0.8705 C   0  0  0  0  0  0  0  0  0  0  0  0
   -1.2681    0.7610    1.1069 C   0  0  0  0  0  0  0  0  0  0  0  0
   -2.3210    0.8338    0.3180 C   0  0  0  0  0  0  0  0  0  0  0  0
   -2.4071   -0.1360   -0.7931 C   0  0  0  0  0  0  0  0  0  0  0  0
   -1.1213   -0.1005   -1.3864 O   0  0  0  0  0  0  0  0  0  0  0  0
   -0.2740   -0.7627   -0.5137 C   0  0  0  0  0  0  0  0  0  0  0  0
    3.3230    0.8852    0.4121 H   0  0  0  0  0  0  0  0  0  0  0  0
    4.0933   -0.7038   -0.0647 H   0  0  0  0  0  0  0  0  0  0  0  0
    3.1894    0.2542   -1.2540 H   0  0  0  0  0  0  0  0  0  0  0  0
    1.0561    0.9921   -0.4116 H   0  0  0  0  0  0  0  0  0  0  0  0
   -0.1273   -0.9639    1.7380 H   0  0  0  0  0  0  0  0  0  0  0  0
   -1.1132    1.4286    1.9496 H   0  0  0  0  0  0  0  0  0  0  0  0
   -3.0705    1.5645    0.4845 H   0  0  0  0  0  0  0  0  0  0  0  0
   -3.1396    0.1283   -1.5674 H   0  0  0  0  0  0  0  0  0  0  0  0
   -2.5290   -1.1881   -0.4298 H   0  0  0  0  0  0  0  0  0  0  0  0
   -0.2921   -1.8660   -0.6320 H   0  0  0  0  0  0  0  0  0  0  0  0
  1  2  1  0
  2  3  1  0
  3  4  1  0
  4  5  1  0
  5  6  2  0
  6  7  1  0
  7  8  1  0
  8  9  1  0
  9  3  1  0
  9  4  1  0
  1 10  1  0
  1 11  1  0
  1 12  1  0
  3 13  1  0
  4 14  1  0
  5 15  1  0
  6 16  1  0
  7 17  1  0
  7 18  1  0
  9 19  1  0
M  END
