
     RDKit          3D

 20 21  0  0  0  0  0  0  0  0999 V2000
    2.7169    0.3614   -0.2147 C   0  0  0  0  0  0  0  0  0  0  0  0
    1.6059   -0.4398   -0.2763 O   0  0  0  0  0  0  0  0  0  0  0  0
    0.5026    0.0644    0.3729 C   0  0  0  0  0  0  0  0  0  0  0  0
   -0.0582   -1.0131    1.3141 C   0  0  0  0  0  0  0  0  0  0  0  0
   -0.9982   -1.3888    0.1542 C   0  0  0  0  0  0  0  0  0  0  0  0
   -0.8026   -0.0148   -0.3185 C   0  0  0  0  0  0  0  0  0  0  0  0
   -1.2842    0.6649   -1.4506 C   0  0  0  0  0  0  0  0  0  0  0  0
   -1.8232    0.9972   -0.0564 C   0  0  0  0  0  0  0  0  0  0  0  0
    3.0744    0.5614    0.8183 H   0  0  0  0  0  0  0  0  0  0  0  0
    2.5114    1.2907   -0.7817 H   0  0  0  0  0  0  0  0  0  0  0  0
    3.5503   -0.1840   -0.7184 H   0  0  0  0  0  0  0  0  0  0  0  0
    0.6750    1.0319    0.8431 H   0  0  0  0  0  0  0  0  0  0  0  0
   -0.6202   -0.5439    2.1499 H   0  0  0  0  0  0  0  0  0  0  0  0
    0.6363   -1.8128    1.5635 H   0  0  0  0  0  0  0  0  0  0  0  0
   -0.5713   -2.1916   -0.4924 H   0  0  0  0  0  0  0  0  0  0  0  0
   -2.0271   -1.6381    0.4863 H   0  0  0  0  0  0  0  0  0  0  0  0
   -0.7223    1.5004   -1.9039 H   0  0  0  0  0  0  0  0  0  0  0  0
   -2.0266    0.2022   -2.1265 H   0  0  0  0  0  0  0  0  0  0  0  0
   -2.8330    0.6261    0.2145 H   0  0  0  0  0  0  0  0  0  0  0  0
   -1.5058    1.9263    0.4226 H   0  0  0  0  0  0  0  0  0  0  0  0
  1  2  1  0
  2  3  1  0
  3  4  1  0
  4  5  1  0
  5  6  1  0
  6  7  1  0
  7  8  1  0
  6  3  1  0
  8  6  1  0
  1  9  1  0
  1 10  1  0
  1 11  1  0
  3 12  1  0
  4 13  1  0
  4 14  1  0
  5 15  1  0
  5 16  1  0
  7 17  1  0
  7 18  1  0
  8 19  1  0
  8 20  1  0
M  END
