
     RDKit          3D

 21 21  0  0  0  0  0  0  0  0999 V2000
   -2.8758   -0.2368   -0.0925 C   0  0  0  0  0  0  0  0  0  0  0  0
   -1.5468   -0.4840   -0.4175 O   0  0  0  0  0  0  0  0  0  0  0  0
   -0.7403    0.0363    0.5667 C   0  0  0  0  0  0  0  0  0  0  0  0
    0.0769   -0.9485    1.1597 O   0  0  0  0  0  0  0  0  0  0  0  0
    1.0020   -1.1576    0.1670 C   0  0  0  0  0  0  0  0  0  0  0  0
    2.2305   -1.8881    0.6204 C   0  0  0  0  0  0  0  0  0  0  0  0
    1.3553    0.2169   -0.2678 C   0  0  0  0  0  0  0  0  0  0  0  0
    0.2857    0.9658   -0.0259 C   0  0  0  0  0  0  0  0  0  0  0  0
    0.1841    2.4079   -0.3031 C   0  0  0  0  0  0  0  0  0  0  0  0
   -3.4810   -0.6836   -0.9301 H   0  0  0  0  0  0  0  0  0  0  0  0
   -3.1698   -0.6338    0.8805 H   0  0  0  0  0  0  0  0  0  0  0  0
   -3.0832    0.8666   -0.0711 H   0  0  0  0  0  0  0  0  0  0  0  0
   -1.3260    0.5119    1.3562 H   0  0  0  0  0  0  0  0  0  0  0  0
    0.5162   -1.6472   -0.7177 H   0  0  0  0  0  0  0  0  0  0  0  0
    2.0394   -2.6377    1.4128 H   0  0  0  0  0  0  0  0  0  0  0  0
    2.6018   -2.4800   -0.2644 H   0  0  0  0  0  0  0  0  0  0  0  0
    3.0550   -1.2104    0.9014 H   0  0  0  0  0  0  0  0  0  0  0  0
    2.2843    0.5894   -0.7016 H   0  0  0  0  0  0  0  0  0  0  0  0
   -0.8537    2.7655   -0.4134 H   0  0  0  0  0  0  0  0  0  0  0  0
    0.7043    2.7028   -1.2604 H   0  0  0  0  0  0  0  0  0  0  0  0
    0.7413    2.9444    0.5009 H   0  0  0  0  0  0  0  0  0  0  0  0
  1  2  1  0
  2  3  1  0
  3  4  1  0
  4  5  1  0
  5  6  1  0
  5  7  1  0
  7  8  2  0
  8  9  1  0
  8  3  1  0
  1 10  1  0
  1 11  1  0
  1 12  1  0
  3 13  1  0
  5 14  1  0
  6 15  1  0
  6 16  1  0
  6 17  1  0
  7 18  1  0
  9 19  1  0
  9 20  1  0
  9 21  1  0
M  END
