
     RDKit          3D

 21 22  0  0  0  0  0  0  0  0999 V2000
    3.0980   -0.0996    0.4385 C   0  0  0  0  0  0  0  0  0  0  0  0
    1.8013   -0.1973    0.9475 O   0  0  0  0  0  0  0  0  0  0  0  0
    0.9171   -0.1254   -0.0882 C   0  0  0  0  0  0  0  0  0  0  0  0
   -0.1056   -1.2350   -0.1914 C   0  0  0  0  0  0  0  0  0  0  0  0
   -1.1657   -0.2468   -0.4624 C   0  0  0  0  0  0  0  0  0  0  0  0
   -2.5185   -0.5523    0.1162 C   0  0  0  0  0  0  0  0  0  0  0  0
   -1.0150    1.0337   -1.1453 C   0  0  0  0  0  0  0  0  0  0  0  0
   -0.2747    0.7929    0.1024 C   0  0  0  0  0  0  0  0  0  0  0  0
   -0.5285    1.3897    1.2897 O   0  0  0  0  0  0  0  0  0  0  0  0
    3.2534   -0.9570   -0.2766 H   0  0  0  0  0  0  0  0  0  0  0  0
    3.1423    0.8425   -0.1480 H   0  0  0  0  0  0  0  0  0  0  0  0
    3.8705   -0.0711    1.2205 H   0  0  0  0  0  0  0  0  0  0  0  0
    1.4015   -0.0065   -1.1007 H   0  0  0  0  0  0  0  0  0  0  0  0
    0.1030   -2.0151   -0.9191 H   0  0  0  0  0  0  0  0  0  0  0  0
   -0.2385   -1.6798    0.8392 H   0  0  0  0  0  0  0  0  0  0  0  0
   -2.4345   -1.1970    1.0124 H   0  0  0  0  0  0  0  0  0  0  0  0
   -3.0430   -1.1923   -0.6519 H   0  0  0  0  0  0  0  0  0  0  0  0
   -3.1387    0.3322    0.2518 H   0  0  0  0  0  0  0  0  0  0  0  0
   -0.3863    1.1461   -2.0657 H   0  0  0  0  0  0  0  0  0  0  0  0
   -1.8372    1.7428   -1.1022 H   0  0  0  0  0  0  0  0  0  0  0  0
   -0.9009    2.2953    1.2422 H   0  0  0  0  0  0  0  0  0  0  0  0
  1  2  1  0
  2  3  1  0
  3  4  1  0
  4  5  1  0
  5  6  1  0
  5  7  1  0
  7  8  1  0
  8  9  1  0
  8  3  1  0
  8  5  1  0
  1 10  1  0
  1 11  1  0
  1 12  1  0
  3 13  1  0
  4 14  1  0
  4 15  1  0
  6 16  1  0
  6 17  1  0
  6 18  1  0
  7 19  1  0
  7 20  1  0
  9 21  1  0
M  END
