
     RDKit          3D

 21 21  0  0  0  0  0  0  0  0999 V2000
   -3.2362    0.1113    0.6384 C   0  0  0  0  0  0  0  0  0  0  0  0
   -2.2568   -0.3689   -0.2326 O   0  0  0  0  0  0  0  0  0  0  0  0
   -1.1011    0.3457    0.0343 C   0  0  0  0  0  0  0  0  0  0  0  0
   -0.5609    1.0045   -1.2423 C   0  0  0  0  0  0  0  0  0  0  0  0
    0.7149    1.3323   -0.8583 O   0  0  0  0  0  0  0  0  0  0  0  0
    1.2266    0.3119   -0.0930 C   0  0  0  0  0  0  0  0  0  0  0  0
    2.1748   -0.4277   -0.7829 O   0  0  0  0  0  0  0  0  0  0  0  0
    3.3681   -0.3720   -0.1002 C   0  0  0  0  0  0  0  0  0  0  0  0
    0.0696   -0.5440    0.3714 C   0  0  0  0  0  0  0  0  0  0  0  0
   -2.8776   -0.0610    1.6567 H   0  0  0  0  0  0  0  0  0  0  0  0
   -3.3807    1.2211    0.5294 H   0  0  0  0  0  0  0  0  0  0  0  0
   -4.2291   -0.3382    0.4362 H   0  0  0  0  0  0  0  0  0  0  0  0
   -1.2195    1.0845    0.8274 H   0  0  0  0  0  0  0  0  0  0  0  0
   -0.5556    0.2647   -2.0465 H   0  0  0  0  0  0  0  0  0  0  0  0
   -1.1698    1.9037   -1.4531 H   0  0  0  0  0  0  0  0  0  0  0  0
    1.6690    0.7607    0.8330 H   0  0  0  0  0  0  0  0  0  0  0  0
    4.1135   -0.9759   -0.6779 H   0  0  0  0  0  0  0  0  0  0  0  0
    3.2885   -0.8003    0.9404 H   0  0  0  0  0  0  0  0  0  0  0  0
    3.7937    0.6567   -0.0309 H   0  0  0  0  0  0  0  0  0  0  0  0
    0.0358   -1.5155   -0.2011 H   0  0  0  0  0  0  0  0  0  0  0  0
    0.1327   -0.7877    1.4516 H   0  0  0  0  0  0  0  0  0  0  0  0
  1  2  1  0
  2  3  1  0
  3  4  1  0
  4  5  1  0
  5  6  1  0
  6  7  1  0
  7  8  1  0
  6  9  1  0
  9  3  1  0
  1 10  1  0
  1 11  1  0
  1 12  1  0
  3 13  1  0
  4 14  1  0
  4 15  1  0
  6 16  1  0
  8 17  1  0
  8 18  1  0
  8 19  1  0
  9 20  1  0
  9 21  1  0
M  END
