
     RDKit          3D

 21 21  0  0  0  0  0  0  0  0999 V2000
    2.2546   -0.4335   -0.2237 C   0  0  0  0  0  0  0  0  0  0  0  0
    1.5963    0.7390    0.1243 O   0  0  0  0  0  0  0  0  0  0  0  0
    0.2259    0.6733   -0.0449 C   0  0  0  0  0  0  0  0  0  0  0  0
   -0.3020    2.0755    0.2928 C   0  0  0  0  0  0  0  0  0  0  0  0
   -0.0928    0.4117   -1.3712 O   0  0  0  0  0  0  0  0  0  0  0  0
   -1.2265   -0.3813   -1.3844 C   0  0  0  0  0  0  0  0  0  0  0  0
   -0.9280   -1.3426   -0.2234 C   0  0  0  0  0  0  0  0  0  0  0  0
   -0.4910   -0.2998    0.8160 C   0  0  0  0  0  0  0  0  0  0  0  0
    0.2191   -0.8427    1.8539 O   0  0  0  0  0  0  0  0  0  0  0  0
    3.3559   -0.3272   -0.0713 H   0  0  0  0  0  0  0  0  0  0  0  0
    2.1421   -0.6521   -1.3185 H   0  0  0  0  0  0  0  0  0  0  0  0
    1.9666   -1.3086    0.3926 H   0  0  0  0  0  0  0  0  0  0  0  0
   -1.2827    1.9957    0.8248 H   0  0  0  0  0  0  0  0  0  0  0  0
    0.4100    2.6084    0.9715 H   0  0  0  0  0  0  0  0  0  0  0  0
   -0.4971    2.6469   -0.6289 H   0  0  0  0  0  0  0  0  0  0  0  0
   -1.3531   -0.9218   -2.3164 H   0  0  0  0  0  0  0  0  0  0  0  0
   -2.0988    0.2098   -1.0633 H   0  0  0  0  0  0  0  0  0  0  0  0
   -0.1417   -2.0557   -0.4655 H   0  0  0  0  0  0  0  0  0  0  0  0
   -1.8339   -1.8625    0.1067 H   0  0  0  0  0  0  0  0  0  0  0  0
   -1.4708    0.1503    1.1590 H   0  0  0  0  0  0  0  0  0  0  0  0
   -0.4520   -1.0828    2.5698 H   0  0  0  0  0  0  0  0  0  0  0  0
  1  2  1  0
  2  3  1  0
  3  4  1  0
  3  5  1  0
  5  6  1  0
  6  7  1  0
  7  8  1  0
  8  9  1  0
  8  3  1  0
  1 10  1  0
  1 11  1  0
  1 12  1  0
  4 13  1  0
  4 14  1  0
  4 15  1  0
  6 16  1  0
  6 17  1  0
  7 18  1  0
  7 19  1  0
  8 20  1  0
  9 21  1  0
M  END
