
     RDKit          3D

 19 19  0  0  0  0  0  0  0  0999 V2000
    2.9015    0.1714    0.2240 C   0  0  0  0  0  0  0  0  0  0  0  0
    1.9766   -0.8737    0.4053 O   0  0  0  0  0  0  0  0  0  0  0  0
    0.7574   -0.4111   -0.0343 C   0  0  0  0  0  0  0  0  0  0  0  0
    0.1934   -1.2104   -1.0191 O   0  0  0  0  0  0  0  0  0  0  0  0
   -1.1562   -0.9873   -1.0450 C   0  0  0  0  0  0  0  0  0  0  0  0
   -1.5618   -0.3199    0.2373 C   0  0  0  0  0  0  0  0  0  0  0  0
   -1.8256    1.1599    0.0571 C   0  0  0  0  0  0  0  0  0  0  0  0
   -0.2960   -0.4383    1.0168 C   0  0  0  0  0  0  0  0  0  0  0  0
   -0.1499   -0.5333    2.2065 O   0  0  0  0  0  0  0  0  0  0  0  0
    2.9781    0.4697   -0.8317 H   0  0  0  0  0  0  0  0  0  0  0  0
    3.8684   -0.1897    0.6151 H   0  0  0  0  0  0  0  0  0  0  0  0
    2.5970    1.0435    0.8601 H   0  0  0  0  0  0  0  0  0  0  0  0
    0.8002    0.6413   -0.4129 H   0  0  0  0  0  0  0  0  0  0  0  0
   -1.6734   -1.9625   -1.1996 H   0  0  0  0  0  0  0  0  0  0  0  0
   -1.3882   -0.3787   -1.9416 H   0  0  0  0  0  0  0  0  0  0  0  0
   -2.3936   -0.8148    0.7553 H   0  0  0  0  0  0  0  0  0  0  0  0
   -1.3395    1.7356    0.8886 H   0  0  0  0  0  0  0  0  0  0  0  0
   -2.9043    1.3540    0.1008 H   0  0  0  0  0  0  0  0  0  0  0  0
   -1.3840    1.5443   -0.8826 H   0  0  0  0  0  0  0  0  0  0  0  0
  1  2  1  0
  2  3  1  0
  3  4  1  0
  4  5  1  0
  5  6  1  0
  6  7  1  0
  6  8  1  0
  8  9  2  0
  8  3  1  0
  1 10  1  0
  1 11  1  0
  1 12  1  0
  3 13  1  0
  5 14  1  0
  5 15  1  0
  6 16  1  0
  7 17  1  0
  7 18  1  0
  7 19  1  0
M  END
