
     RDKit          3D

 15 15  0  0  0  0  0  0  0  0999 V2000
    2.1427    0.1207    0.7110 C   0  0  0  0  0  0  0  0  0  0  0  0
    0.7775   -0.0342    0.8873 O   0  0  0  0  0  0  0  0  0  0  0  0
    0.1576   -0.1058   -0.3616 C   0  0  0  0  0  0  0  0  0  0  0  0
   -0.8959    0.9336   -0.5073 C   0  0  0  0  0  0  0  0  0  0  0  0
   -0.7666    2.0156   -1.0232 O   0  0  0  0  0  0  0  0  0  0  0  0
   -2.1013    0.3395    0.1132 C   0  0  0  0  0  0  0  0  0  0  0  0
   -1.9488   -1.0473   -0.1442 O   0  0  0  0  0  0  0  0  0  0  0  0
   -0.6418   -1.3373   -0.4948 C   0  0  0  0  0  0  0  0  0  0  0  0
   -0.2034   -2.4503   -0.8630 O   0  0  0  0  0  0  0  0  0  0  0  0
    2.5839   -0.7456    0.1385 H   0  0  0  0  0  0  0  0  0  0  0  0
    2.3924    1.0357    0.1276 H   0  0  0  0  0  0  0  0  0  0  0  0
    2.6707    0.1557    1.6849 H   0  0  0  0  0  0  0  0  0  0  0  0
    0.9429   -0.0173   -1.1409 H   0  0  0  0  0  0  0  0  0  0  0  0
   -3.0460    0.6668   -0.3387 H   0  0  0  0  0  0  0  0  0  0  0  0
   -2.0639    0.4703    1.2110 H   0  0  0  0  0  0  0  0  0  0  0  0
  1  2  1  0
  2  3  1  0
  3  4  1  0
  4  5  2  0
  4  6  1  0
  6  7  1  0
  7  8  1  0
  8  9  2  0
  8  3  1  0
  1 10  1  0
  1 11  1  0
  1 12  1  0
  3 13  1  0
  6 14  1  0
  6 15  1  0
M  END
