
     RDKit          3D

 23 24  0  0  0  0  0  0  0  0999 V2000
    1.7322    0.3354   -1.9021 C   0  0  0  0  0  0  0  0  0  0  0  0
    1.2332    1.2556   -0.9955 O   0  0  0  0  0  0  0  0  0  0  0  0
    0.7900    0.6178    0.1484 C   0  0  0  0  0  0  0  0  0  0  0  0
    1.8100   -0.2013    0.9532 C   0  0  0  0  0  0  0  0  0  0  0  0
   -0.2334    1.4055    1.0161 C   0  0  0  0  0  0  0  0  0  0  0  0
   -0.5810    0.1998    0.3046 C   0  0  0  0  0  0  0  0  0  0  0  0
   -1.5982    0.0357   -0.7347 C   0  0  0  0  0  0  0  0  0  0  0  0
   -2.3631   -0.8750    0.2383 C   0  0  0  0  0  0  0  0  0  0  0  0
   -1.0227   -1.0762    0.9523 C   0  0  0  0  0  0  0  0  0  0  0  0
    2.0735    0.9075   -2.8016 H   0  0  0  0  0  0  0  0  0  0  0  0
    0.9821   -0.3835   -2.2701 H   0  0  0  0  0  0  0  0  0  0  0  0
    2.5754   -0.2706   -1.4740 H   0  0  0  0  0  0  0  0  0  0  0  0
    2.8310    0.1311    0.7790 H   0  0  0  0  0  0  0  0  0  0  0  0
    1.5450   -0.1450    2.0289 H   0  0  0  0  0  0  0  0  0  0  0  0
    1.6273   -1.2578    0.6444 H   0  0  0  0  0  0  0  0  0  0  0  0
   -0.0210    1.4827    2.0847 H   0  0  0  0  0  0  0  0  0  0  0  0
   -0.5664    2.3813    0.5654 H   0  0  0  0  0  0  0  0  0  0  0  0
   -2.1351    0.9842   -0.9569 H   0  0  0  0  0  0  0  0  0  0  0  0
   -1.3409   -0.4776   -1.6755 H   0  0  0  0  0  0  0  0  0  0  0  0
   -3.0670   -0.2709    0.8117 H   0  0  0  0  0  0  0  0  0  0  0  0
   -2.7362   -1.7674   -0.2764 H   0  0  0  0  0  0  0  0  0  0  0  0
   -1.0830   -1.0734    2.0476 H   0  0  0  0  0  0  0  0  0  0  0  0
   -0.4518   -1.9379    0.5121 H   0  0  0  0  0  0  0  0  0  0  0  0
  1  2  1  0
  2  3  1  0
  3  4  1  0
  3  5  1  0
  5  6  1  0
  6  7  1  0
  7  8  1  0
  8  9  1  0
  6  3  1  0
  9  6  1  0
  1 10  1  0
  1 11  1  0
  1 12  1  0
  4 13  1  0
  4 14  1  0
  4 15  1  0
  5 16  1  0
  5 17  1  0
  7 18  1  0
  7 19  1  0
  8 20  1  0
  8 21  1  0
  9 22  1  0
  9 23  1  0
M  END
