
     RDKit          3D

 21 22  0  0  0  0  0  0  0  0999 V2000
    2.2886   -0.9381    0.8544 C   0  0  0  0  0  0  0  0  0  0  0  0
    0.9350   -0.8974    1.0289 O   0  0  0  0  0  0  0  0  0  0  0  0
    0.2602    0.0331    0.2249 C   0  0  0  0  0  0  0  0  0  0  0  0
   -1.2347    0.0985    0.3578 C   0  0  0  0  0  0  0  0  0  0  0  0
   -1.9935   -1.1722    0.0559 C   0  0  0  0  0  0  0  0  0  0  0  0
   -3.0455   -0.3390   -0.3928 O   0  0  0  0  0  0  0  0  0  0  0  0
   -2.0328    0.5669   -0.8066 C   0  0  0  0  0  0  0  0  0  0  0  0
    0.9488    0.5209   -0.9678 C   0  0  0  0  0  0  0  0  0  0  0  0
    0.8715    1.4539    0.2020 C   0  0  0  0  0  0  0  0  0  0  0  0
    2.8409   -0.0089    1.0520 H   0  0  0  0  0  0  0  0  0  0  0  0
    2.7090   -1.6699    1.6136 H   0  0  0  0  0  0  0  0  0  0  0  0
    2.5282   -1.4183   -0.1178 H   0  0  0  0  0  0  0  0  0  0  0  0
   -1.5043    0.5151    1.3457 H   0  0  0  0  0  0  0  0  0  0  0  0
   -2.3280   -1.7383    0.9251 H   0  0  0  0  0  0  0  0  0  0  0  0
   -1.5533   -1.8090   -0.7280 H   0  0  0  0  0  0  0  0  0  0  0  0
   -2.3564    1.6293   -0.7034 H   0  0  0  0  0  0  0  0  0  0  0  0
   -1.5897    0.2979   -1.7713 H   0  0  0  0  0  0  0  0  0  0  0  0
    0.3681    0.7297   -1.8678 H   0  0  0  0  0  0  0  0  0  0  0  0
    1.9917    0.1996   -1.2040 H   0  0  0  0  0  0  0  0  0  0  0  0
    0.1885    2.3137    0.0266 H   0  0  0  0  0  0  0  0  0  0  0  0
    1.7078    1.6328    0.8726 H   0  0  0  0  0  0  0  0  0  0  0  0
  1  2  1  0
  2  3  1  0
  3  4  1  0
  4  5  1  0
  5  6  1  0
  6  7  1  0
  3  8  1  0
  8  9  1  0
  9  3  1  0
  7  4  1  0
  1 10  1  0
  1 11  1  0
  1 12  1  0
  4 13  1  0
  5 14  1  0
  5 15  1  0
  7 16  1  0
  7 17  1  0
  8 18  1  0
  8 19  1  0
  9 20  1  0
  9 21  1  0
M  END
