
     RDKit          3D

 17 18  0  0  0  0  0  0  0  0999 V2000
    2.4965   -0.3361    0.1736 C   0  0  0  0  0  0  0  0  0  0  0  0
    1.4341    0.0132    0.9431 O   0  0  0  0  0  0  0  0  0  0  0  0
    0.2250    0.0454    0.3887 C   0  0  0  0  0  0  0  0  0  0  0  0
    0.0040    0.9377   -0.7504 C   0  0  0  0  0  0  0  0  0  0  0  0
   -1.1167    0.4712   -1.3438 C   0  0  0  0  0  0  0  0  0  0  0  0
   -1.5085   -0.7016   -0.5195 C   0  0  0  0  0  0  0  0  0  0  0  0
   -1.9715   -0.1895    0.7886 C   0  0  0  0  0  0  0  0  0  0  0  0
   -0.8599    0.2895    1.3757 C   0  0  0  0  0  0  0  0  0  0  0  0
   -0.2250   -1.1862   -0.1526 O   0  0  0  0  0  0  0  0  0  0  0  0
    3.4367   -0.3208    0.7627 H   0  0  0  0  0  0  0  0  0  0  0  0
    2.6307    0.4686   -0.6070 H   0  0  0  0  0  0  0  0  0  0  0  0
    2.4106   -1.3156   -0.3328 H   0  0  0  0  0  0  0  0  0  0  0  0
    0.5594    1.7960   -1.1073 H   0  0  0  0  0  0  0  0  0  0  0  0
   -1.5903    0.8846   -2.2185 H   0  0  0  0  0  0  0  0  0  0  0  0
   -2.1280   -1.4288   -0.9980 H   0  0  0  0  0  0  0  0  0  0  0  0
   -2.9583   -0.1699    1.2379 H   0  0  0  0  0  0  0  0  0  0  0  0
   -0.8387    0.7422    2.3594 H   0  0  0  0  0  0  0  0  0  0  0  0
  1  2  1  0
  2  3  1  0
  3  4  1  0
  4  5  2  0
  5  6  1  0
  6  7  1  0
  7  8  2  0
  6  9  1  0
  8  3  1  0
  9  3  1  0
  1 10  1  0
  1 11  1  0
  1 12  1  0
  4 13  1  0
  5 14  1  0
  6 15  1  0
  7 16  1  0
  8 17  1  0
M  END
