
     RDKit          3D

 23 24  0  0  0  0  0  0  0  0999 V2000
    2.6955    0.3224   -0.7317 C   0  0  0  0  0  0  0  0  0  0  0  0
    1.6588   -0.5030   -1.0573 O   0  0  0  0  0  0  0  0  0  0  0  0
    0.4628   -0.2817   -0.4518 C   0  0  0  0  0  0  0  0  0  0  0  0
   -0.1820    1.0365   -0.6706 C   0  0  0  0  0  0  0  0  0  0  0  0
   -1.2433    1.3092    0.3849 C   0  0  0  0  0  0  0  0  0  0  0  0
   -1.9867    0.0463    0.6886 C   0  0  0  0  0  0  0  0  0  0  0  0
   -1.0302   -1.1302    0.7286 C   0  0  0  0  0  0  0  0  0  0  0  0
   -0.5441   -1.4201   -0.6812 C   0  0  0  0  0  0  0  0  0  0  0  0
    0.3931   -0.6907    1.0285 C   0  0  0  0  0  0  0  0  0  0  0  0
    2.4746    1.3557   -0.9747 H   0  0  0  0  0  0  0  0  0  0  0  0
    2.8952    0.1865    0.3654 H   0  0  0  0  0  0  0  0  0  0  0  0
    3.6230   -0.0002   -1.2500 H   0  0  0  0  0  0  0  0  0  0  0  0
   -0.7133    1.0436   -1.6659 H   0  0  0  0  0  0  0  0  0  0  0  0
    0.5631    1.8449   -0.6150 H   0  0  0  0  0  0  0  0  0  0  0  0
   -1.9213    2.0807   -0.0690 H   0  0  0  0  0  0  0  0  0  0  0  0
   -0.8091    1.7828    1.2809 H   0  0  0  0  0  0  0  0  0  0  0  0
   -2.4449    0.1129    1.6964 H   0  0  0  0  0  0  0  0  0  0  0  0
   -2.7645   -0.0909   -0.0851 H   0  0  0  0  0  0  0  0  0  0  0  0
   -1.3827   -1.9996    1.2910 H   0  0  0  0  0  0  0  0  0  0  0  0
    0.0148   -2.3691   -0.6906 H   0  0  0  0  0  0  0  0  0  0  0  0
   -1.2566   -1.2369   -1.4834 H   0  0  0  0  0  0  0  0  0  0  0  0
    1.0173   -1.5613    1.2350 H   0  0  0  0  0  0  0  0  0  0  0  0
    0.4804    0.1619    1.7268 H   0  0  0  0  0  0  0  0  0  0  0  0
  1  2  1  0
  2  3  1  0
  3  4  1  0
  4  5  1  0
  5  6  1  0
  6  7  1  0
  7  8  1  0
  7  9  1  0
  8  3  1  0
  9  3  1  0
  1 10  1  0
  1 11  1  0
  1 12  1  0
  4 13  1  0
  4 14  1  0
  5 15  1  0
  5 16  1  0
  6 17  1  0
  6 18  1  0
  7 19  1  0
  8 20  1  0
  8 21  1  0
  9 22  1  0
  9 23  1  0
M  END
