
     RDKit          3D

 17 18  0  0  0  0  0  0  0  0999 V2000
    2.7746   -0.2048   -0.1830 C   0  0  0  0  0  0  0  0  0  0  0  0
    1.5424   -0.4458    0.4171 O   0  0  0  0  0  0  0  0  0  0  0  0
    0.5392    0.3354   -0.1303 C   0  0  0  0  0  0  0  0  0  0  0  0
   -0.2043    1.1504    0.8599 C   0  0  0  0  0  0  0  0  0  0  0  0
    0.0543    1.8289    1.8048 O   0  0  0  0  0  0  0  0  0  0  0  0
   -1.4524    0.7526    0.1551 C   0  0  0  0  0  0  0  0  0  0  0  0
   -1.8296   -0.6637    0.3258 C   0  0  0  0  0  0  0  0  0  0  0  0
   -3.0205   -1.0527   -0.2791 O   0  0  0  0  0  0  0  0  0  0  0  0
   -0.6904   -0.3784   -0.5642 C   0  0  0  0  0  0  0  0  0  0  0  0
    3.1066    0.8366   -0.0824 H   0  0  0  0  0  0  0  0  0  0  0  0
    3.5300   -0.8295    0.3563 H   0  0  0  0  0  0  0  0  0  0  0  0
    2.7730   -0.5414   -1.2285 H   0  0  0  0  0  0  0  0  0  0  0  0
    0.9105    1.0068   -0.9456 H   0  0  0  0  0  0  0  0  0  0  0  0
   -1.9517    1.4409   -0.5201 H   0  0  0  0  0  0  0  0  0  0  0  0
   -1.6882   -1.0773    1.3513 H   0  0  0  0  0  0  0  0  0  0  0  0
   -3.5469   -1.6586    0.3021 H   0  0  0  0  0  0  0  0  0  0  0  0
   -0.8468   -0.4994   -1.6392 H   0  0  0  0  0  0  0  0  0  0  0  0
  1  2  1  0
  2  3  1  0
  3  4  1  0
  4  5  2  0
  4  6  1  0
  6  7  1  0
  7  8  1  0
  7  9  1  0
  9  3  1  0
  9  6  1  0
  1 10  1  0
  1 11  1  0
  1 12  1  0
  3 13  1  0
  6 14  1  0
  7 15  1  0
  8 16  1  0
  9 17  1  0
M  END
