
     RDKit          3D

 16 19  0  0  0  0  0  0  0  0999 V2000
    2.2689    0.3978   -0.4862 C   0  0  0  0  0  0  0  0  0  0  0  0
    1.2604    0.3393    0.4327 O   0  0  0  0  0  0  0  0  0  0  0  0
    0.2219   -0.4824    0.1104 C   0  0  0  0  0  0  0  0  0  0  0  0
   -0.5561   -0.1325   -1.2480 C   0  0  0  0  0  0  0  0  0  0  0  0
   -1.9219    0.1783   -0.3818 C   0  0  0  0  0  0  0  0  0  0  0  0
   -0.8309    0.6423   -0.4067 C   0  0  0  0  0  0  0  0  0  0  0  0
   -0.8573   -0.9466    0.1338 C   0  0  0  0  0  0  0  0  0  0  0  0
   -1.1345   -0.1645    0.9743 C   0  0  0  0  0  0  0  0  0  0  0  0
    3.0583    1.0902   -0.1282 H   0  0  0  0  0  0  0  0  0  0  0  0
    2.7560   -0.5696   -0.6714 H   0  0  0  0  0  0  0  0  0  0  0  0
    1.8764    0.7743   -1.4512 H   0  0  0  0  0  0  0  0  0  0  0  0
   -0.6821   -0.9896   -1.9202 H   0  0  0  0  0  0  0  0  0  0  0  0
   -2.7296   -0.5312   -0.6171 H   0  0  0  0  0  0  0  0  0  0  0  0
   -0.3136    1.3898    0.1794 H   0  0  0  0  0  0  0  0  0  0  0  0
   -1.3991   -1.6835   -0.4518 H   0  0  0  0  0  0  0  0  0  0  0  0
   -1.0169    0.6878    1.6467 H   0  0  0  0  0  0  0  0  0  0  0  0
  1  2  1  0
  2  3  1  0
  3  4  1  0
  4  5  1  0
  5  6  1  0
  6  7  1  0
  7  8  1  0
  7  3  1  0
  8  3  1  0
  6  4  1  0
  8  5  1  0
  1  9  1  0
  1 10  1  0
  1 11  1  0
  4 12  1  0
  5 13  1  0
  6 14  1  0
  7 15  1  0
  8 16  1  0
M  END
