
     RDKit          3D

 23 23  0  0  0  0  0  0  0  0999 V2000
   -2.2209   -0.0565   -1.6184 C   0  0  0  0  0  0  0  0  0  0  0  0
   -1.4872    0.8494   -0.8602 O   0  0  0  0  0  0  0  0  0  0  0  0
   -0.9355    0.1619    0.2154 C   0  0  0  0  0  0  0  0  0  0  0  0
   -1.3683    0.7454    1.5761 C   0  0  0  0  0  0  0  0  0  0  0  0
    0.0360    0.4264    2.0476 C   0  0  0  0  0  0  0  0  0  0  0  0
    0.4607    0.6002    0.5810 C   0  0  0  0  0  0  0  0  0  0  0  0
    1.5739   -0.3124    0.2001 C   0  0  0  0  0  0  0  0  0  0  0  0
    1.6969   -0.5773   -1.2627 C   0  0  0  0  0  0  0  0  0  0  0  0
    2.7868   -1.4492   -1.4840 O   0  0  0  0  0  0  0  0  0  0  0  0
   -3.0113   -0.4600   -0.9243 H   0  0  0  0  0  0  0  0  0  0  0  0
   -2.6942    0.4509   -2.4862 H   0  0  0  0  0  0  0  0  0  0  0  0
   -1.5318   -0.8601   -1.9437 H   0  0  0  0  0  0  0  0  0  0  0  0
   -1.1528   -0.9184    0.2642 H   0  0  0  0  0  0  0  0  0  0  0  0
   -2.1790    0.2038    2.0621 H   0  0  0  0  0  0  0  0  0  0  0  0
   -1.4757    1.8511    1.5018 H   0  0  0  0  0  0  0  0  0  0  0  0
    0.4872    1.1473    2.7377 H   0  0  0  0  0  0  0  0  0  0  0  0
    0.0896   -0.6462    2.3430 H   0  0  0  0  0  0  0  0  0  0  0  0
    0.5881    1.6687    0.3159 H   0  0  0  0  0  0  0  0  0  0  0  0
    1.4649   -1.2454    0.8062 H   0  0  0  0  0  0  0  0  0  0  0  0
    2.5196    0.1571    0.5793 H   0  0  0  0  0  0  0  0  0  0  0  0
    1.9031    0.3755   -1.7886 H   0  0  0  0  0  0  0  0  0  0  0  0
    0.8185   -1.1068   -1.6381 H   0  0  0  0  0  0  0  0  0  0  0  0
    3.6314   -1.0053   -1.2241 H   0  0  0  0  0  0  0  0  0  0  0  0
  1  2  1  0
  2  3  1  0
  3  4  1  0
  4  5  1  0
  5  6  1  0
  6  7  1  0
  7  8  1  0
  8  9  1  0
  6  3  1  0
  1 10  1  0
  1 11  1  0
  1 12  1  0
  3 13  1  0
  4 14  1  0
  4 15  1  0
  5 16  1  0
  5 17  1  0
  6 18  1  0
  7 19  1  0
  7 20  1  0
  8 21  1  0
  8 22  1  0
  9 23  1  0
M  END
