
     RDKit          3D

 17 17  0  0  0  0  0  0  0  0999 V2000
    2.6555   -0.4167   -0.4150 C   0  0  0  0  0  0  0  0  0  0  0  0
    1.6671    0.3771    0.0997 O   0  0  0  0  0  0  0  0  0  0  0  0
    0.4365   -0.1586    0.2138 C   0  0  0  0  0  0  0  0  0  0  0  0
   -0.1043   -0.1791    1.5213 O   0  0  0  0  0  0  0  0  0  0  0  0
   -1.4858   -0.2466    1.4469 C   0  0  0  0  0  0  0  0  0  0  0  0
   -2.2447   -0.3392    2.4318 O   0  0  0  0  0  0  0  0  0  0  0  0
   -1.8803   -0.1898    0.0195 C   0  0  0  0  0  0  0  0  0  0  0  0
   -0.6520    0.5370   -0.5507 C   0  0  0  0  0  0  0  0  0  0  0  0
   -0.8149    1.8591   -0.1731 O   0  0  0  0  0  0  0  0  0  0  0  0
    3.5945    0.1931   -0.4327 H   0  0  0  0  0  0  0  0  0  0  0  0
    2.4760   -0.7281   -1.4724 H   0  0  0  0  0  0  0  0  0  0  0  0
    2.8863   -1.3137    0.1681 H   0  0  0  0  0  0  0  0  0  0  0  0
    0.4670   -1.2142   -0.1585 H   0  0  0  0  0  0  0  0  0  0  0  0
   -1.9381   -1.1717   -0.4546 H   0  0  0  0  0  0  0  0  0  0  0  0
   -2.7768    0.4386   -0.1454 H   0  0  0  0  0  0  0  0  0  0  0  0
   -0.5776    0.3953   -1.6408 H   0  0  0  0  0  0  0  0  0  0  0  0
   -1.7083    2.1575   -0.4579 H   0  0  0  0  0  0  0  0  0  0  0  0
  1  2  1  0
  2  3  1  0
  3  4  1  0
  4  5  1  0
  5  6  2  0
  5  7  1  0
  7  8  1  0
  8  9  1  0
  8  3  1  0
  1 10  1  0
  1 11  1  0
  1 12  1  0
  3 13  1  0
  7 14  1  0
  7 15  1  0
  8 16  1  0
  9 17  1  0
M  END
