
     RDKit          3D

 21 22  0  0  0  0  0  0  0  0999 V2000
   -1.4000    1.9573    0.1361 C   0  0  0  0  0  0  0  0  0  0  0  0
   -1.4617    0.7647   -0.5529 O   0  0  0  0  0  0  0  0  0  0  0  0
   -0.4492   -0.1094   -0.2028 C   0  0  0  0  0  0  0  0  0  0  0  0
    0.9811    0.2582   -0.3873 C   0  0  0  0  0  0  0  0  0  0  0  0
    1.6880    0.4879    0.9205 C   0  0  0  0  0  0  0  0  0  0  0  0
    1.2531   -1.0924   -1.0335 C   0  0  0  0  0  0  0  0  0  0  0  0
   -0.2340   -1.3729   -0.9149 C   0  0  0  0  0  0  0  0  0  0  0  0
   -0.7671   -1.3972    0.4559 C   0  0  0  0  0  0  0  0  0  0  0  0
   -2.0506   -1.8309    0.6404 O   0  0  0  0  0  0  0  0  0  0  0  0
   -2.2383    2.6050   -0.1945 H   0  0  0  0  0  0  0  0  0  0  0  0
   -1.4059    1.8222    1.2461 H   0  0  0  0  0  0  0  0  0  0  0  0
   -0.4625    2.5226   -0.1411 H   0  0  0  0  0  0  0  0  0  0  0  0
    1.1112    1.1059   -1.1016 H   0  0  0  0  0  0  0  0  0  0  0  0
    2.4863    1.2410    0.7637 H   0  0  0  0  0  0  0  0  0  0  0  0
    2.1464   -0.4606    1.2446 H   0  0  0  0  0  0  0  0  0  0  0  0
    0.9787    0.8169    1.7249 H   0  0  0  0  0  0  0  0  0  0  0  0
    1.6455   -1.0441   -2.0619 H   0  0  0  0  0  0  0  0  0  0  0  0
    1.8017   -1.7362   -0.3222 H   0  0  0  0  0  0  0  0  0  0  0  0
   -0.8170   -1.6318   -1.8003 H   0  0  0  0  0  0  0  0  0  0  0  0
   -0.0559   -1.6859    1.2836 H   0  0  0  0  0  0  0  0  0  0  0  0
   -2.7497   -1.2203    0.2973 H   0  0  0  0  0  0  0  0  0  0  0  0
  1  2  1  0
  2  3  1  0
  3  4  1  0
  4  5  1  0
  4  6  1  0
  6  7  1  0
  7  8  1  0
  8  9  1  0
  7  3  1  0
  8  3  1  0
  1 10  1  0
  1 11  1  0
  1 12  1  0
  4 13  1  0
  5 14  1  0
  5 15  1  0
  5 16  1  0
  6 17  1  0
  6 18  1  0
  7 19  1  0
  8 20  1  0
  9 21  1  0
M  END
