
     RDKit          3D

 20 21  0  0  0  0  0  0  0  0999 V2000
    2.8846   -0.5049    0.8022 C   0  0  0  0  0  0  0  0  0  0  0  0
    1.4958   -0.5345    1.0744 O   0  0  0  0  0  0  0  0  0  0  0  0
    0.8821    0.0977    0.0286 C   0  0  0  0  0  0  0  0  0  0  0  0
   -0.2944   -0.6156   -0.5985 C   0  0  0  0  0  0  0  0  0  0  0  0
   -0.6720    0.7593   -1.1027 C   0  0  0  0  0  0  0  0  0  0  0  0
   -0.2741    0.9922    0.3318 C   0  0  0  0  0  0  0  0  0  0  0  0
   -1.0542   -0.2671    0.6304 C   0  0  0  0  0  0  0  0  0  0  0  0
   -2.5415   -0.1756    0.3461 C   0  0  0  0  0  0  0  0  0  0  0  0
    3.0699   -1.0395   -0.1623 H   0  0  0  0  0  0  0  0  0  0  0  0
    3.2126    0.5534    0.6385 H   0  0  0  0  0  0  0  0  0  0  0  0
    3.4795   -0.9013    1.6239 H   0  0  0  0  0  0  0  0  0  0  0  0
    1.5421    0.4873   -0.7790 H   0  0  0  0  0  0  0  0  0  0  0  0
   -0.2733   -1.4617   -1.1235 H   0  0  0  0  0  0  0  0  0  0  0  0
    0.1044    1.1225   -1.7958 H   0  0  0  0  0  0  0  0  0  0  0  0
   -1.7124    0.9259   -1.3546 H   0  0  0  0  0  0  0  0  0  0  0  0
   -0.2947    1.8491    0.8379 H   0  0  0  0  0  0  0  0  0  0  0  0
   -0.7992   -0.7717    1.5646 H   0  0  0  0  0  0  0  0  0  0  0  0
   -3.1279   -0.7404    1.0961 H   0  0  0  0  0  0  0  0  0  0  0  0
   -2.7857   -0.6548   -0.6402 H   0  0  0  0  0  0  0  0  0  0  0  0
   -2.8416    0.8797    0.3943 H   0  0  0  0  0  0  0  0  0  0  0  0
  1  2  1  0
  2  3  1  0
  3  4  1  0
  4  5  1  0
  5  6  1  0
  6  7  1  0
  7  8  1  0
  6  3  1  0
  7  4  1  0
  1  9  1  0
  1 10  1  0
  1 11  1  0
  3 12  1  0
  4 13  1  0
  5 14  1  0
  5 15  1  0
  6 16  1  0
  7 17  1  0
  8 18  1  0
  8 19  1  0
  8 20  1  0
M  END
