
     RDKit          3D

 20 20  0  0  0  0  0  0  0  0999 V2000
   -2.7255    0.2419   -0.1107 C   0  0  0  0  0  0  0  0  0  0  0  0
   -1.3971    0.3620   -0.5074 O   0  0  0  0  0  0  0  0  0  0  0  0
   -0.5686   -0.1417    0.4893 C   0  0  0  0  0  0  0  0  0  0  0  0
    0.2885    0.9772    1.0661 C   0  0  0  0  0  0  0  0  0  0  0  0
    1.3548    1.3994    0.1167 C   0  0  0  0  0  0  0  0  0  0  0  0
    2.0654    0.4213   -0.4512 C   0  0  0  0  0  0  0  0  0  0  0  0
    1.7364   -0.9600   -0.0940 C   0  0  0  0  0  0  0  0  0  0  0  0
    0.2573   -1.2485   -0.0776 C   0  0  0  0  0  0  0  0  0  0  0  0
   -2.8184    0.8420    0.8408 H   0  0  0  0  0  0  0  0  0  0  0  0
   -3.4362    0.5594   -0.8706 H   0  0  0  0  0  0  0  0  0  0  0  0
   -2.8657   -0.8176    0.1963 H   0  0  0  0  0  0  0  0  0  0  0  0
   -1.2028   -0.4982    1.3216 H   0  0  0  0  0  0  0  0  0  0  0  0
   -0.3324    1.8028    1.4099 H   0  0  0  0  0  0  0  0  0  0  0  0
    0.7743    0.5344    1.9786 H   0  0  0  0  0  0  0  0  0  0  0  0
    1.5701    2.4343   -0.1238 H   0  0  0  0  0  0  0  0  0  0  0  0
    2.8643    0.6350   -1.1569 H   0  0  0  0  0  0  0  0  0  0  0  0
    2.2010   -1.2036    0.8959 H   0  0  0  0  0  0  0  0  0  0  0  0
    2.1862   -1.6394   -0.8468 H   0  0  0  0  0  0  0  0  0  0  0  0
   -0.0573   -1.5417   -1.1196 H   0  0  0  0  0  0  0  0  0  0  0  0
    0.1059   -2.1590    0.5390 H   0  0  0  0  0  0  0  0  0  0  0  0
  1  2  1  0
  2  3  1  0
  3  4  1  0
  4  5  1  0
  5  6  2  0
  6  7  1  0
  7  8  1  0
  8  3  1  0
  1  9  1  0
  1 10  1  0
  1 11  1  0
  3 12  1  0
  4 13  1  0
  4 14  1  0
  5 15  1  0
  6 16  1  0
  7 17  1  0
  7 18  1  0
  8 19  1  0
  8 20  1  0
M  END
