
     RDKit          3D

 21 22  0  0  0  0  0  0  0  0999 V2000
    2.3301    1.2251    0.0443 C   0  0  0  0  0  0  0  0  0  0  0  0
    1.0849    0.7020   -0.3051 O   0  0  0  0  0  0  0  0  0  0  0  0
    0.9154   -0.4584    0.3933 C   0  0  0  0  0  0  0  0  0  0  0  0
    0.3286   -1.5408   -0.4475 C   0  0  0  0  0  0  0  0  0  0  0  0
   -0.8233   -0.8288   -1.1485 C   0  0  0  0  0  0  0  0  0  0  0  0
   -1.4934   -0.3109    0.1385 C   0  0  0  0  0  0  0  0  0  0  0  0
   -1.8042    1.1386    0.0651 C   0  0  0  0  0  0  0  0  0  0  0  0
   -0.3941   -0.6770    1.0896 C   0  0  0  0  0  0  0  0  0  0  0  0
   -0.2255   -2.0451    0.7520 O   0  0  0  0  0  0  0  0  0  0  0  0
    3.1404    0.4842   -0.2215 H   0  0  0  0  0  0  0  0  0  0  0  0
    2.5774    2.1501   -0.5095 H   0  0  0  0  0  0  0  0  0  0  0  0
    2.3594    1.3770    1.1489 H   0  0  0  0  0  0  0  0  0  0  0  0
    1.7473   -0.7437    1.0615 H   0  0  0  0  0  0  0  0  0  0  0  0
    0.9447   -2.1875   -1.0184 H   0  0  0  0  0  0  0  0  0  0  0  0
   -0.4896    0.0263   -1.7454 H   0  0  0  0  0  0  0  0  0  0  0  0
   -1.5036   -1.5160   -1.6493 H   0  0  0  0  0  0  0  0  0  0  0  0
   -2.4098   -0.8677    0.3498 H   0  0  0  0  0  0  0  0  0  0  0  0
   -2.5401    1.2887   -0.7528 H   0  0  0  0  0  0  0  0  0  0  0  0
   -2.2961    1.4228    1.0179 H   0  0  0  0  0  0  0  0  0  0  0  0
   -0.9590    1.8085   -0.0890 H   0  0  0  0  0  0  0  0  0  0  0  0
   -0.4896   -0.4473    2.1291 H   0  0  0  0  0  0  0  0  0  0  0  0
  1  2  1  0
  2  3  1  0
  3  4  1  0
  4  5  1  0
  5  6  1  0
  6  7  1  0
  6  8  1  0
  8  9  1  0
  8  3  1  0
  9  4  1  0
  1 10  1  0
  1 11  1  0
  1 12  1  0
  3 13  1  0
  4 14  1  0
  5 15  1  0
  5 16  1  0
  6 17  1  0
  7 18  1  0
  7 19  1  0
  7 20  1  0
  8 21  1  0
M  END
