
     RDKit          3D

 21 23  0  0  0  0  0  0  0  0999 V2000
    2.6716    0.2606   -0.6934 C   0  0  0  0  0  0  0  0  0  0  0  0
    1.4011   -0.1547   -1.0808 O   0  0  0  0  0  0  0  0  0  0  0  0
    0.5266   -0.0010   -0.0398 C   0  0  0  0  0  0  0  0  0  0  0  0
    0.7267   -0.7016    1.2268 C   0  0  0  0  0  0  0  0  0  0  0  0
   -0.3514   -1.2393    0.3632 C   0  0  0  0  0  0  0  0  0  0  0  0
   -1.6938   -0.6185    0.2447 C   0  0  0  0  0  0  0  0  0  0  0  0
   -1.5856    0.7910    0.8413 C   0  0  0  0  0  0  0  0  0  0  0  0
   -0.5786    0.9819   -0.2709 C   0  0  0  0  0  0  0  0  0  0  0  0
   -1.5602    0.1290   -1.0940 C   0  0  0  0  0  0  0  0  0  0  0  0
    2.5692    1.3456   -0.4055 H   0  0  0  0  0  0  0  0  0  0  0  0
    3.3904    0.1583   -1.5331 H   0  0  0  0  0  0  0  0  0  0  0  0
    2.9729   -0.3734    0.1641 H   0  0  0  0  0  0  0  0  0  0  0  0
    0.4058   -0.3048    2.2134 H   0  0  0  0  0  0  0  0  0  0  0  0
    1.6138   -1.3490    1.3121 H   0  0  0  0  0  0  0  0  0  0  0  0
   -0.1794   -2.1035   -0.3152 H   0  0  0  0  0  0  0  0  0  0  0  0
   -2.5867   -1.1603    0.4132 H   0  0  0  0  0  0  0  0  0  0  0  0
   -2.5140    1.3404    0.6004 H   0  0  0  0  0  0  0  0  0  0  0  0
   -1.2300    0.8512    1.8615 H   0  0  0  0  0  0  0  0  0  0  0  0
   -0.3724    1.9607   -0.6260 H   0  0  0  0  0  0  0  0  0  0  0  0
   -1.1080   -0.4497   -1.8918 H   0  0  0  0  0  0  0  0  0  0  0  0
   -2.5181    0.6371   -1.2903 H   0  0  0  0  0  0  0  0  0  0  0  0
  1  2  1  0
  2  3  1  0
  3  4  1  0
  4  5  1  0
  5  6  1  0
  6  7  1  0
  7  8  1  0
  8  9  1  0
  5  3  1  0
  9  6  1  0
  8  3  1  0
  1 10  1  0
  1 11  1  0
  1 12  1  0
  4 13  1  0
  4 14  1  0
  5 15  1  0
  6 16  1  0
  7 17  1  0
  7 18  1  0
  8 19  1  0
  9 20  1  0
  9 21  1  0
M  END
