
     RDKit          3D

 23 23  0  0  0  0  0  0  0  0999 V2000
   -2.7738   -0.5169    0.7433 C   0  0  0  0  0  0  0  0  0  0  0  0
   -1.4327   -0.2324    1.0212 O   0  0  0  0  0  0  0  0  0  0  0  0
   -0.8709    0.2880   -0.1411 C   0  0  0  0  0  0  0  0  0  0  0  0
   -1.5299    1.5544   -0.6375 C   0  0  0  0  0  0  0  0  0  0  0  0
   -0.4222   -0.7514   -1.1239 C   0  0  0  0  0  0  0  0  0  0  0  0
    0.5664    0.1135   -0.4441 C   0  0  0  0  0  0  0  0  0  0  0  0
    1.4447   -0.3956    0.6529 C   0  0  0  0  0  0  0  0  0  0  0  0
    2.8924   -0.5371    0.2381 C   0  0  0  0  0  0  0  0  0  0  0  0
    3.4311    0.6835   -0.1641 O   0  0  0  0  0  0  0  0  0  0  0  0
   -2.8737   -1.2600   -0.0851 H   0  0  0  0  0  0  0  0  0  0  0  0
   -3.3273    0.3840    0.4599 H   0  0  0  0  0  0  0  0  0  0  0  0
   -3.2725   -0.9646    1.6291 H   0  0  0  0  0  0  0  0  0  0  0  0
   -2.2123    1.2659   -1.4585 H   0  0  0  0  0  0  0  0  0  0  0  0
   -0.7836    2.3091   -0.9726 H   0  0  0  0  0  0  0  0  0  0  0  0
   -2.1356    2.0175    0.1719 H   0  0  0  0  0  0  0  0  0  0  0  0
   -0.5255   -1.8302   -0.8586 H   0  0  0  0  0  0  0  0  0  0  0  0
   -0.6584   -0.5601   -2.1950 H   0  0  0  0  0  0  0  0  0  0  0  0
    1.0479    0.8779   -1.0982 H   0  0  0  0  0  0  0  0  0  0  0  0
    1.0817   -1.3352    1.1170 H   0  0  0  0  0  0  0  0  0  0  0  0
    1.4329    0.3693    1.4717 H   0  0  0  0  0  0  0  0  0  0  0  0
    3.0604   -1.3253   -0.5045 H   0  0  0  0  0  0  0  0  0  0  0  0
    3.4573   -0.8391    1.1564 H   0  0  0  0  0  0  0  0  0  0  0  0
    4.4035    0.6846   -0.1211 H   0  0  0  0  0  0  0  0  0  0  0  0
  1  2  1  0
  2  3  1  0
  3  4  1  0
  3  5  1  0
  5  6  1  0
  6  7  1  0
  7  8  1  0
  8  9  1  0
  6  3  1  0
  1 10  1  0
  1 11  1  0
  1 12  1  0
  4 13  1  0
  4 14  1  0
  4 15  1  0
  5 16  1  0
  5 17  1  0
  6 18  1  0
  7 19  1  0
  7 20  1  0
  8 21  1  0
  8 22  1  0
  9 23  1  0
M  END
