
     RDKit          3D

 19 20  0  0  0  0  0  0  0  0999 V2000
    2.3115    1.2509    0.3765 C   0  0  0  0  0  0  0  0  0  0  0  0
    1.4539    0.2460    0.8208 O   0  0  0  0  0  0  0  0  0  0  0  0
    0.6171   -0.1955   -0.2092 C   0  0  0  0  0  0  0  0  0  0  0  0
    0.7914   -1.5640   -0.3634 O   0  0  0  0  0  0  0  0  0  0  0  0
   -0.4405   -2.0894   -0.7469 C   0  0  0  0  0  0  0  0  0  0  0  0
   -1.4549   -1.2621    0.0538 C   0  0  0  0  0  0  0  0  0  0  0  0
   -1.0965   -0.9140    1.3580 O   0  0  0  0  0  0  0  0  0  0  0  0
   -0.8061   -0.0351    0.2911 C   0  0  0  0  0  0  0  0  0  0  0  0
   -1.4078    1.3316    0.3184 C   0  0  0  0  0  0  0  0  0  0  0  0
    2.9338    1.5482    1.2267 H   0  0  0  0  0  0  0  0  0  0  0  0
    1.7169    2.0985    0.0156 H   0  0  0  0  0  0  0  0  0  0  0  0
    2.9596    0.8058   -0.4085 H   0  0  0  0  0  0  0  0  0  0  0  0
    0.7960    0.3298   -1.1589 H   0  0  0  0  0  0  0  0  0  0  0  0
   -0.6061   -1.8599   -1.8260 H   0  0  0  0  0  0  0  0  0  0  0  0
   -0.5220   -3.1560   -0.5289 H   0  0  0  0  0  0  0  0  0  0  0  0
   -2.5087   -1.4967   -0.0633 H   0  0  0  0  0  0  0  0  0  0  0  0
   -1.4176    1.7084   -0.7454 H   0  0  0  0  0  0  0  0  0  0  0  0
   -0.8447    2.0149    0.9822 H   0  0  0  0  0  0  0  0  0  0  0  0
   -2.4754    1.2385    0.6072 H   0  0  0  0  0  0  0  0  0  0  0  0
  1  2  1  0
  2  3  1  0
  3  4  1  0
  4  5  1  0
  5  6  1  0
  6  7  1  0
  7  8  1  0
  8  9  1  0
  8  3  1  0
  8  6  1  0
  1 10  1  0
  1 11  1  0
  1 12  1  0
  3 13  1  0
  5 14  1  0
  5 15  1  0
  6 16  1  0
  9 17  1  0
  9 18  1  0
  9 19  1  0
M  END
