
     RDKit          3D

 19 20  0  0  0  0  0  0  0  0999 V2000
    2.5209    0.9553   -0.7735 C   0  0  0  0  0  0  0  0  0  0  0  0
    1.6750    0.7385    0.2970 O   0  0  0  0  0  0  0  0  0  0  0  0
    0.6095   -0.0539    0.0525 C   0  0  0  0  0  0  0  0  0  0  0  0
    0.5753   -1.2899    0.9563 C   0  0  0  0  0  0  0  0  0  0  0  0
   -0.6792   -1.7274    0.8997 C   0  0  0  0  0  0  0  0  0  0  0  0
   -1.4253   -0.8655    0.0295 C   0  0  0  0  0  0  0  0  0  0  0  0
   -2.0431    0.3859    0.0571 C   0  0  0  0  0  0  0  0  0  0  0  0
   -2.3711    1.0702   -1.1366 O   0  0  0  0  0  0  0  0  0  0  0  0
   -0.7218    0.4629    0.4987 C   0  0  0  0  0  0  0  0  0  0  0  0
    3.3646    1.6120   -0.4904 H   0  0  0  0  0  0  0  0  0  0  0  0
    2.9373    0.0313   -1.2047 H   0  0  0  0  0  0  0  0  0  0  0  0
    1.9117    1.4481   -1.5702 H   0  0  0  0  0  0  0  0  0  0  0  0
    0.5582   -0.4246   -0.9792 H   0  0  0  0  0  0  0  0  0  0  0  0
    1.4268   -1.6915    1.5114 H   0  0  0  0  0  0  0  0  0  0  0  0
   -1.0255   -2.5921    1.4387 H   0  0  0  0  0  0  0  0  0  0  0  0
   -1.1796   -1.1922   -1.0420 H   0  0  0  0  0  0  0  0  0  0  0  0
   -2.9098    0.5149    0.7691 H   0  0  0  0  0  0  0  0  0  0  0  0
   -2.5835    2.0193   -0.9400 H   0  0  0  0  0  0  0  0  0  0  0  0
   -0.6404    0.5987    1.6266 H   0  0  0  0  0  0  0  0  0  0  0  0
  1  2  1  0
  2  3  1  0
  3  4  1  0
  4  5  2  0
  5  6  1  0
  6  7  1  0
  7  8  1  0
  7  9  1  0
  9  3  1  0
  9  6  1  0
  1 10  1  0
  1 11  1  0
  1 12  1  0
  3 13  1  0
  4 14  1  0
  5 15  1  0
  6 16  1  0
  7 17  1  0
  8 18  1  0
  9 19  1  0
M  END
