
     RDKit          3D

 23 24  0  0  0  0  0  0  0  0999 V2000
   -2.0666    1.6010    0.2062 C   0  0  0  0  0  0  0  0  0  0  0  0
   -1.6001    0.5865   -0.5475 O   0  0  0  0  0  0  0  0  0  0  0  0
   -0.4764   -0.0482   -0.2146 C   0  0  0  0  0  0  0  0  0  0  0  0
   -0.1259   -1.1537   -1.1885 C   0  0  0  0  0  0  0  0  0  0  0  0
   -0.2291   -2.1463   -0.0328 C   0  0  0  0  0  0  0  0  0  0  0  0
   -0.3451   -0.9703    0.8962 C   0  0  0  0  0  0  0  0  0  0  0  0
    1.0198   -0.4016    1.2150 C   0  0  0  0  0  0  0  0  0  0  0  0
    0.7030    0.7460    0.2785 C   0  0  0  0  0  0  0  0  0  0  0  0
    1.7625    1.0163   -0.7613 C   0  0  0  0  0  0  0  0  0  0  0  0
   -3.0121    1.9803   -0.2577 H   0  0  0  0  0  0  0  0  0  0  0  0
   -2.3187    1.3607    1.2516 H   0  0  0  0  0  0  0  0  0  0  0  0
   -1.3913    2.4999    0.2438 H   0  0  0  0  0  0  0  0  0  0  0  0
    0.8642   -1.0946   -1.6482 H   0  0  0  0  0  0  0  0  0  0  0  0
   -0.9227   -1.3520   -1.9479 H   0  0  0  0  0  0  0  0  0  0  0  0
   -1.1192   -2.8038   -0.0866 H   0  0  0  0  0  0  0  0  0  0  0  0
    0.7217   -2.7207    0.0438 H   0  0  0  0  0  0  0  0  0  0  0  0
   -1.0557   -1.0329    1.7015 H   0  0  0  0  0  0  0  0  0  0  0  0
    1.8801   -0.9635    0.8334 H   0  0  0  0  0  0  0  0  0  0  0  0
    1.1891   -0.1187    2.2644 H   0  0  0  0  0  0  0  0  0  0  0  0
    0.3889    1.6604    0.7863 H   0  0  0  0  0  0  0  0  0  0  0  0
    2.3821    0.1413   -0.9843 H   0  0  0  0  0  0  0  0  0  0  0  0
    2.4316    1.8290   -0.3601 H   0  0  0  0  0  0  0  0  0  0  0  0
    1.3201    1.3849   -1.6912 H   0  0  0  0  0  0  0  0  0  0  0  0
  1  2  1  0
  2  3  1  0
  3  4  1  0
  4  5  1  0
  5  6  1  0
  6  7  1  0
  7  8  1  0
  8  9  1  0
  6  3  1  0
  8  3  1  0
  1 10  1  0
  1 11  1  0
  1 12  1  0
  4 13  1  0
  4 14  1  0
  5 15  1  0
  5 16  1  0
  6 17  1  0
  7 18  1  0
  7 19  1  0
  8 20  1  0
  9 21  1  0
  9 22  1  0
  9 23  1  0
M  END
