
     RDKit          3D

 19 21  0  0  0  0  0  0  0  0999 V2000
    3.2380    0.7549    0.1848 C   0  0  0  0  0  0  0  0  0  0  0  0
    1.8980    1.0914    0.3551 O   0  0  0  0  0  0  0  0  0  0  0  0
    1.0436    0.0367    0.0965 C   0  0  0  0  0  0  0  0  0  0  0  0
   -0.0680   -0.1094    1.0794 C   0  0  0  0  0  0  0  0  0  0  0  0
   -1.1847   -1.0972    0.8271 C   0  0  0  0  0  0  0  0  0  0  0  0
   -1.0561   -1.9685   -0.2674 O   0  0  0  0  0  0  0  0  0  0  0  0
   -1.4142   -0.6471   -0.4274 C   0  0  0  0  0  0  0  0  0  0  0  0
   -2.6994   -0.2457   -1.0474 C   0  0  0  0  0  0  0  0  0  0  0  0
   -0.3106    0.3813   -0.3821 C   0  0  0  0  0  0  0  0  0  0  0  0
    3.4484   -0.0733    0.8961 H   0  0  0  0  0  0  0  0  0  0  0  0
    3.4135    0.4547   -0.8586 H   0  0  0  0  0  0  0  0  0  0  0  0
    3.8803    1.6064    0.4191 H   0  0  0  0  0  0  0  0  0  0  0  0
    1.5314   -0.9100   -0.2039 H   0  0  0  0  0  0  0  0  0  0  0  0
   -0.2938    0.6570    1.8285 H   0  0  0  0  0  0  0  0  0  0  0  0
   -1.7592   -1.5088    1.6496 H   0  0  0  0  0  0  0  0  0  0  0  0
   -3.1476    0.6512   -0.5706 H   0  0  0  0  0  0  0  0  0  0  0  0
   -3.4517   -1.0711   -0.9349 H   0  0  0  0  0  0  0  0  0  0  0  0
   -2.5123   -0.0223   -2.1236 H   0  0  0  0  0  0  0  0  0  0  0  0
   -0.5555    1.4317   -0.5204 H   0  0  0  0  0  0  0  0  0  0  0  0
  1  2  1  0
  2  3  1  0
  3  4  1  0
  4  5  1  0
  5  6  1  0
  6  7  1  0
  7  8  1  0
  7  9  1  0
  9  3  1  0
  9  4  1  0
  7  5  1  0
  1 10  1  0
  1 11  1  0
  1 12  1  0
  3 13  1  0
  4 14  1  0
  5 15  1  0
  8 16  1  0
  8 17  1  0
  8 18  1  0
  9 19  1  0
M  END
