
     RDKit          3D

 20 20  0  0  0  0  0  0  0  0999 V2000
    2.0242   -0.6578    0.0303 C   0  0  0  0  0  0  0  0  0  0  0  0
    0.8261   -1.2876   -0.1797 O   0  0  0  0  0  0  0  0  0  0  0  0
   -0.2838   -0.5210   -0.1145 C   0  0  0  0  0  0  0  0  0  0  0  0
   -1.4880   -1.4108   -0.3750 C   0  0  0  0  0  0  0  0  0  0  0  0
   -0.3330    0.6141   -1.1005 C   0  0  0  0  0  0  0  0  0  0  0  0
    0.0124    1.8458   -0.3433 C   0  0  0  0  0  0  0  0  0  0  0  0
   -0.0867    1.5953    0.9436 C   0  0  0  0  0  0  0  0  0  0  0  0
   -0.5041    0.1863    1.1978 C   0  0  0  0  0  0  0  0  0  0  0  0
    2.8270   -1.4438   -0.0614 H   0  0  0  0  0  0  0  0  0  0  0  0
    2.1293   -0.2883    1.0869 H   0  0  0  0  0  0  0  0  0  0  0  0
    2.2776    0.1200   -0.7101 H   0  0  0  0  0  0  0  0  0  0  0  0
   -1.7348   -1.9507    0.5405 H   0  0  0  0  0  0  0  0  0  0  0  0
   -2.3272   -0.8550   -0.8298 H   0  0  0  0  0  0  0  0  0  0  0  0
   -1.1793   -2.1914   -1.1238 H   0  0  0  0  0  0  0  0  0  0  0  0
    0.3349    0.4631   -1.9486 H   0  0  0  0  0  0  0  0  0  0  0  0
   -1.3825    0.7399   -1.4866 H   0  0  0  0  0  0  0  0  0  0  0  0
    0.3005    2.8006   -0.7655 H   0  0  0  0  0  0  0  0  0  0  0  0
    0.1026    2.2967    1.7446 H   0  0  0  0  0  0  0  0  0  0  0  0
   -1.5791    0.2266    1.4741 H   0  0  0  0  0  0  0  0  0  0  0  0
    0.0640   -0.2818    2.0209 H   0  0  0  0  0  0  0  0  0  0  0  0
  1  2  1  0
  2  3  1  0
  3  4  1  0
  3  5  1  0
  5  6  1  0
  6  7  2  0
  7  8  1  0
  8  3  1  0
  1  9  1  0
  1 10  1  0
  1 11  1  0
  4 12  1  0
  4 13  1  0
  4 14  1  0
  5 15  1  0
  5 16  1  0
  6 17  1  0
  7 18  1  0
  8 19  1  0
  8 20  1  0
M  END
