
     RDKit          3D

 18 18  0  0  0  0  0  0  0  0999 V2000
   -2.6515    0.2358    0.2808 C   0  0  0  0  0  0  0  0  0  0  0  0
   -1.3318    0.3626    0.6633 O   0  0  0  0  0  0  0  0  0  0  0  0
   -0.5357   -0.3018   -0.2643 C   0  0  0  0  0  0  0  0  0  0  0  0
    0.2722   -1.2891    0.4708 C   0  0  0  0  0  0  0  0  0  0  0  0
    1.4884   -0.8376    0.6565 C   0  0  0  0  0  0  0  0  0  0  0  0
    1.6119    0.5103    0.0558 C   0  0  0  0  0  0  0  0  0  0  0  0
    2.8339    0.6984   -0.5699 O   0  0  0  0  0  0  0  0  0  0  0  0
    0.4408    0.6362   -0.8932 C   0  0  0  0  0  0  0  0  0  0  0  0
   -3.0047   -0.7991    0.2234 H   0  0  0  0  0  0  0  0  0  0  0  0
   -3.2581    0.8539    0.9915 H   0  0  0  0  0  0  0  0  0  0  0  0
   -2.7459    0.7336   -0.7177 H   0  0  0  0  0  0  0  0  0  0  0  0
   -1.1572   -0.7573   -1.0633 H   0  0  0  0  0  0  0  0  0  0  0  0
   -0.0712   -2.2902    0.8332 H   0  0  0  0  0  0  0  0  0  0  0  0
    2.3308   -1.3200    1.1635 H   0  0  0  0  0  0  0  0  0  0  0  0
    1.5235    1.2432    0.8848 H   0  0  0  0  0  0  0  0  0  0  0  0
    3.5265    0.3227    0.0523 H   0  0  0  0  0  0  0  0  0  0  0  0
    0.0569    1.6697   -0.8509 H   0  0  0  0  0  0  0  0  0  0  0  0
    0.6711    0.3286   -1.9167 H   0  0  0  0  0  0  0  0  0  0  0  0
  1  2  1  0
  2  3  1  0
  3  4  1  0
  4  5  2  0
  5  6  1  0
  6  7  1  0
  6  8  1  0
  8  3  1  0
  1  9  1  0
  1 10  1  0
  1 11  1  0
  3 12  1  0
  4 13  1  0
  5 14  1  0
  6 15  1  0
  7 16  1  0
  8 17  1  0
  8 18  1  0
M  END
