
     RDKit          3D

 19 20  0  0  0  0  0  0  0  0999 V2000
    2.2947    0.4472   -0.9455 C   0  0  0  0  0  0  0  0  0  0  0  0
    0.9416    0.7737   -0.8381 O   0  0  0  0  0  0  0  0  0  0  0  0
    0.3662    0.0764    0.1875 C   0  0  0  0  0  0  0  0  0  0  0  0
    0.3507   -1.4361    0.1884 C   0  0  0  0  0  0  0  0  0  0  0  0
   -1.0889   -1.4297    0.5461 C   0  0  0  0  0  0  0  0  0  0  0  0
   -1.9326   -2.2504    0.8179 O   0  0  0  0  0  0  0  0  0  0  0  0
   -1.0886    0.0458    0.4346 C   0  0  0  0  0  0  0  0  0  0  0  0
   -2.0630    0.7249   -0.4918 C   0  0  0  0  0  0  0  0  0  0  0  0
   -0.2108    0.7976    1.3332 C   0  0  0  0  0  0  0  0  0  0  0  0
    2.4110   -0.6407   -1.1436 H   0  0  0  0  0  0  0  0  0  0  0  0
    2.8145    1.0475   -1.7071 H   0  0  0  0  0  0  0  0  0  0  0  0
    2.8334    0.6313    0.0190 H   0  0  0  0  0  0  0  0  0  0  0  0
    0.5176   -1.9030   -0.8037 H   0  0  0  0  0  0  0  0  0  0  0  0
    1.0253   -1.8051    0.9899 H   0  0  0  0  0  0  0  0  0  0  0  0
   -3.0438    0.8191   -0.0078 H   0  0  0  0  0  0  0  0  0  0  0  0
   -2.2071    0.0788   -1.3907 H   0  0  0  0  0  0  0  0  0  0  0  0
   -1.6507    1.6830   -0.8105 H   0  0  0  0  0  0  0  0  0  0  0  0
   -0.2210    1.9058    1.2495 H   0  0  0  0  0  0  0  0  0  0  0  0
   -0.0485    0.4341    2.3726 H   0  0  0  0  0  0  0  0  0  0  0  0
  1  2  1  0
  2  3  1  0
  3  4  1  0
  4  5  1  0
  5  6  2  0
  5  7  1  0
  7  8  1  0
  7  9  1  0
  7  3  1  0
  9  3  1  0
  1 10  1  0
  1 11  1  0
  1 12  1  0
  4 13  1  0
  4 14  1  0
  8 15  1  0
  8 16  1  0
  8 17  1  0
  9 18  1  0
  9 19  1  0
M  END
