
     RDKit          3D

 19 20  0  0  0  0  0  0  0  0999 V2000
    2.4042    1.0004    0.4848 C   0  0  0  0  0  0  0  0  0  0  0  0
    1.0715    1.2825    0.2296 O   0  0  0  0  0  0  0  0  0  0  0  0
    0.4532    0.0964   -0.1754 C   0  0  0  0  0  0  0  0  0  0  0  0
    0.4780   -0.9189    0.8166 C   0  0  0  0  0  0  0  0  0  0  0  0
   -0.8343   -0.3542    0.6311 C   0  0  0  0  0  0  0  0  0  0  0  0
   -1.7495   -1.3404   -0.1280 C   0  0  0  0  0  0  0  0  0  0  0  0
   -1.2201    1.0286    0.1758 C   0  0  0  0  0  0  0  0  0  0  0  0
   -0.6248    0.5066   -1.1059 C   0  0  0  0  0  0  0  0  0  0  0  0
   -0.8876    0.4533   -2.2655 O   0  0  0  0  0  0  0  0  0  0  0  0
    2.4557    0.2504    1.2803 H   0  0  0  0  0  0  0  0  0  0  0  0
    2.8250    0.5660   -0.4630 H   0  0  0  0  0  0  0  0  0  0  0  0
    2.9358    1.9305    0.7731 H   0  0  0  0  0  0  0  0  0  0  0  0
    0.8648   -0.7860    1.8723 H   0  0  0  0  0  0  0  0  0  0  0  0
    0.7638   -1.9503    0.4728 H   0  0  0  0  0  0  0  0  0  0  0  0
   -1.7353   -2.3329    0.3880 H   0  0  0  0  0  0  0  0  0  0  0  0
   -2.7795   -0.9758   -0.0578 H   0  0  0  0  0  0  0  0  0  0  0  0
   -1.4208   -1.5172   -1.1499 H   0  0  0  0  0  0  0  0  0  0  0  0
   -0.7065    1.8719    0.6306 H   0  0  0  0  0  0  0  0  0  0  0  0
   -2.2935    1.1893    0.1630 H   0  0  0  0  0  0  0  0  0  0  0  0
  1  2  1  0
  2  3  1  0
  3  4  1  0
  4  5  1  0
  5  6  1  0
  5  7  1  0
  7  8  1  0
  8  9  2  0
  5  3  1  0
  8  3  1  0
  1 10  1  0
  1 11  1  0
  1 12  1  0
  4 13  1  0
  4 14  1  0
  6 15  1  0
  6 16  1  0
  6 17  1  0
  7 18  1  0
  7 19  1  0
M  END
