
     RDKit          3D

 21 21  0  0  0  0  0  0  0  0999 V2000
    2.5284    0.9315   -0.0391 C   0  0  0  0  0  0  0  0  0  0  0  0
    1.3521    0.8568    0.7106 O   0  0  0  0  0  0  0  0  0  0  0  0
    0.6965   -0.2902    0.3375 C   0  0  0  0  0  0  0  0  0  0  0  0
    0.0833   -1.0985    1.4033 C   0  0  0  0  0  0  0  0  0  0  0  0
    0.3121   -1.3217    2.5504 O   0  0  0  0  0  0  0  0  0  0  0  0
   -0.9254   -1.4932    0.4049 C   0  0  0  0  0  0  0  0  0  0  0  0
   -0.7407   -0.0750   -0.1599 C   0  0  0  0  0  0  0  0  0  0  0  0
   -0.8881    0.0402   -1.6326 C   0  0  0  0  0  0  0  0  0  0  0  0
   -1.5433    0.8798    0.6685 C   0  0  0  0  0  0  0  0  0  0  0  0
    2.2853    0.9634   -1.1254 H   0  0  0  0  0  0  0  0  0  0  0  0
    3.1663    1.7871    0.2467 H   0  0  0  0  0  0  0  0  0  0  0  0
    3.0893   -0.0365    0.0992 H   0  0  0  0  0  0  0  0  0  0  0  0
    1.2179   -0.9019   -0.4563 H   0  0  0  0  0  0  0  0  0  0  0  0
   -0.4790   -2.2515   -0.2908 H   0  0  0  0  0  0  0  0  0  0  0  0
   -1.9331   -1.7145    0.7608 H   0  0  0  0  0  0  0  0  0  0  0  0
    0.0655   -0.0576   -2.1791 H   0  0  0  0  0  0  0  0  0  0  0  0
   -1.2934    1.0700   -1.8519 H   0  0  0  0  0  0  0  0  0  0  0  0
   -1.6133   -0.6842   -2.0575 H   0  0  0  0  0  0  0  0  0  0  0  0
   -2.1852    1.4660   -0.0300 H   0  0  0  0  0  0  0  0  0  0  0  0
   -2.2589    0.3649    1.3579 H   0  0  0  0  0  0  0  0  0  0  0  0
   -0.9362    1.5652    1.2828 H   0  0  0  0  0  0  0  0  0  0  0  0
  1  2  1  0
  2  3  1  0
  3  4  1  0
  4  5  2  0
  4  6  1  0
  6  7  1  0
  7  8  1  0
  7  9  1  0
  7  3  1  0
  1 10  1  0
  1 11  1  0
  1 12  1  0
  3 13  1  0
  6 14  1  0
  6 15  1  0
  8 16  1  0
  8 17  1  0
  8 18  1  0
  9 19  1  0
  9 20  1  0
  9 21  1  0
M  END
