
     RDKit          3D

 21 22  0  0  0  0  0  0  0  0999 V2000
   -1.7973    1.2417   -0.8832 C   0  0  0  0  0  0  0  0  0  0  0  0
   -1.2845   -0.0085   -1.0770 O   0  0  0  0  0  0  0  0  0  0  0  0
   -0.4106   -0.4793   -0.1650 C   0  0  0  0  0  0  0  0  0  0  0  0
   -0.8430   -0.6228    1.2583 C   0  0  0  0  0  0  0  0  0  0  0  0
    0.2816   -1.7475   -0.6228 C   0  0  0  0  0  0  0  0  0  0  0  0
    1.5531   -0.9226   -0.7656 C   0  0  0  0  0  0  0  0  0  0  0  0
    1.5022    0.2062   -1.5475 O   0  0  0  0  0  0  0  0  0  0  0  0
    0.9434    0.2192   -0.2975 C   0  0  0  0  0  0  0  0  0  0  0  0
    1.3727    1.1746    0.7614 C   0  0  0  0  0  0  0  0  0  0  0  0
   -1.0593    2.0554   -0.8488 H   0  0  0  0  0  0  0  0  0  0  0  0
   -2.3979    1.2841    0.0533 H   0  0  0  0  0  0  0  0  0  0  0  0
   -2.5002    1.4808   -1.7082 H   0  0  0  0  0  0  0  0  0  0  0  0
   -1.7231   -1.3025    1.2755 H   0  0  0  0  0  0  0  0  0  0  0  0
   -1.0195    0.3235    1.7769 H   0  0  0  0  0  0  0  0  0  0  0  0
   -0.0290   -1.1485    1.8034 H   0  0  0  0  0  0  0  0  0  0  0  0
   -0.1036   -2.1583   -1.5931 H   0  0  0  0  0  0  0  0  0  0  0  0
    0.4172   -2.5146    0.1588 H   0  0  0  0  0  0  0  0  0  0  0  0
    2.5267   -1.3843   -0.6105 H   0  0  0  0  0  0  0  0  0  0  0  0
    0.8189    2.1312    0.6527 H   0  0  0  0  0  0  0  0  0  0  0  0
    2.4440    1.4110    0.5921 H   0  0  0  0  0  0  0  0  0  0  0  0
    1.3083    0.7613    1.7868 H   0  0  0  0  0  0  0  0  0  0  0  0
  1  2  1  0
  2  3  1  0
  3  4  1  0
  3  5  1  0
  5  6  1  0
  6  7  1  0
  7  8  1  0
  8  9  1  0
  8  3  1  0
  8  6  1  0
  1 10  1  0
  1 11  1  0
  1 12  1  0
  4 13  1  0
  4 14  1  0
  4 15  1  0
  5 16  1  0
  5 17  1  0
  6 18  1  0
  9 19  1  0
  9 20  1  0
  9 21  1  0
M  END
