
     RDKit          3D

 21 21  0  0  0  0  0  0  0  0999 V2000
    2.3976   -0.0335    0.9531 C   0  0  0  0  0  0  0  0  0  0  0  0
    1.1770    0.6200    0.9723 O   0  0  0  0  0  0  0  0  0  0  0  0
    0.2571    0.0338    0.1376 C   0  0  0  0  0  0  0  0  0  0  0  0
   -0.1004   -1.4045    0.4133 C   0  0  0  0  0  0  0  0  0  0  0  0
    0.2262    0.3943   -1.3358 C   0  0  0  0  0  0  0  0  0  0  0  0
    1.2758    1.1822   -1.7496 O   0  0  0  0  0  0  0  0  0  0  0  0
   -0.7870    0.9580   -0.4322 C   0  0  0  0  0  0  0  0  0  0  0  0
   -2.1921    0.4397   -0.3653 C   0  0  0  0  0  0  0  0  0  0  0  0
   -2.5250    0.2178    0.9777 O   0  0  0  0  0  0  0  0  0  0  0  0
    2.8755   -0.0632   -0.0312 H   0  0  0  0  0  0  0  0  0  0  0  0
    2.2306   -1.0579    1.3307 H   0  0  0  0  0  0  0  0  0  0  0  0
    3.0949    0.4537    1.6579 H   0  0  0  0  0  0  0  0  0  0  0  0
    0.8052   -2.0222    0.2355 H   0  0  0  0  0  0  0  0  0  0  0  0
   -0.8916   -1.7004   -0.3306 H   0  0  0  0  0  0  0  0  0  0  0  0
   -0.4105   -1.5899    1.4515 H   0  0  0  0  0  0  0  0  0  0  0  0
   -0.0688   -0.3821   -2.0736 H   0  0  0  0  0  0  0  0  0  0  0  0
    1.6446    1.7504   -1.0098 H   0  0  0  0  0  0  0  0  0  0  0  0
   -0.6857    2.0419   -0.2077 H   0  0  0  0  0  0  0  0  0  0  0  0
   -2.3849   -0.4548   -0.9467 H   0  0  0  0  0  0  0  0  0  0  0  0
   -2.9079    1.2440   -0.7083 H   0  0  0  0  0  0  0  0  0  0  0  0
   -3.0307   -0.6275    1.0614 H   0  0  0  0  0  0  0  0  0  0  0  0
  1  2  1  0
  2  3  1  0
  3  4  1  0
  3  5  1  0
  5  6  1  0
  5  7  1  0
  7  8  1  0
  8  9  1  0
  7  3  1  0
  1 10  1  0
  1 11  1  0
  1 12  1  0
  4 13  1  0
  4 14  1  0
  4 15  1  0
  5 16  1  0
  6 17  1  0
  7 18  1  0
  8 19  1  0
  8 20  1  0
  9 21  1  0
M  END
