
     RDKit          3D

 17 17  0  0  0  0  0  0  0  0999 V2000
    2.5391    0.2115    0.0889 C   0  0  0  0  0  0  0  0  0  0  0  0
    1.2141    0.2156    0.4582 O   0  0  0  0  0  0  0  0  0  0  0  0
    0.3294    0.2610   -0.5974 C   0  0  0  0  0  0  0  0  0  0  0  0
   -0.5020   -1.0025   -0.6013 C   0  0  0  0  0  0  0  0  0  0  0  0
   -1.5781   -1.0168    0.3790 C   0  0  0  0  0  0  0  0  0  0  0  0
   -2.0728    0.1145    0.8476 C   0  0  0  0  0  0  0  0  0  0  0  0
   -1.5302    1.3794    0.3735 C   0  0  0  0  0  0  0  0  0  0  0  0
   -2.0361    2.4419    0.8511 O   0  0  0  0  0  0  0  0  0  0  0  0
   -0.4977    1.4105   -0.5663 O   0  0  0  0  0  0  0  0  0  0  0  0
    2.8325    1.1175   -0.4938 H   0  0  0  0  0  0  0  0  0  0  0  0
    2.8243   -0.6857   -0.5251 H   0  0  0  0  0  0  0  0  0  0  0  0
    3.1441    0.1569    1.0179 H   0  0  0  0  0  0  0  0  0  0  0  0
    0.8666    0.2862   -1.5693 H   0  0  0  0  0  0  0  0  0  0  0  0
   -0.8576   -1.2084   -1.6387 H   0  0  0  0  0  0  0  0  0  0  0  0
    0.2119   -1.8398   -0.3633 H   0  0  0  0  0  0  0  0  0  0  0  0
   -1.9996   -1.9386    0.7489 H   0  0  0  0  0  0  0  0  0  0  0  0
   -2.8879    0.0969    1.5899 H   0  0  0  0  0  0  0  0  0  0  0  0
  1  2  1  0
  2  3  1  0
  3  4  1  0
  4  5  1  0
  5  6  2  0
  6  7  1  0
  7  8  2  0
  7  9  1  0
  9  3  1  0
  1 10  1  0
  1 11  1  0
  1 12  1  0
  3 13  1  0
  4 14  1  0
  4 15  1  0
  5 16  1  0
  6 17  1  0
M  END
