
     RDKit          3D

 19 20  0  0  0  0  0  0  0  0999 V2000
    2.8150   -0.3148    0.1227 C   0  0  0  0  0  0  0  0  0  0  0  0
    1.5672   -0.2662    0.7479 O   0  0  0  0  0  0  0  0  0  0  0  0
    0.5668    0.1591   -0.0882 C   0  0  0  0  0  0  0  0  0  0  0  0
   -0.4835   -0.9440   -0.2686 C   0  0  0  0  0  0  0  0  0  0  0  0
   -1.5749   -0.1655   -0.9883 C   0  0  0  0  0  0  0  0  0  0  0  0
   -2.7714   -0.8478   -1.0095 O   0  0  0  0  0  0  0  0  0  0  0  0
   -1.6485    1.0930   -0.1639 C   0  0  0  0  0  0  0  0  0  0  0  0
   -0.8193    2.1547   -0.4372 O   0  0  0  0  0  0  0  0  0  0  0  0
   -0.2617    1.2761    0.4562 C   0  0  0  0  0  0  0  0  0  0  0  0
    2.7968   -1.0228   -0.7552 H   0  0  0  0  0  0  0  0  0  0  0  0
    3.5238   -0.7552    0.8539 H   0  0  0  0  0  0  0  0  0  0  0  0
    3.1748    0.6736   -0.2017 H   0  0  0  0  0  0  0  0  0  0  0  0
    0.9479    0.3822   -1.1020 H   0  0  0  0  0  0  0  0  0  0  0  0
   -0.8383   -1.2044    0.7532 H   0  0  0  0  0  0  0  0  0  0  0  0
   -0.1013   -1.7860   -0.8433 H   0  0  0  0  0  0  0  0  0  0  0  0
   -1.2081    0.1245   -1.9946 H   0  0  0  0  0  0  0  0  0  0  0  0
   -2.8387   -1.3251   -0.1244 H   0  0  0  0  0  0  0  0  0  0  0  0
   -2.5359    1.3043    0.4329 H   0  0  0  0  0  0  0  0  0  0  0  0
   -0.3107    1.4642    1.5451 H   0  0  0  0  0  0  0  0  0  0  0  0
  1  2  1  0
  2  3  1  0
  3  4  1  0
  4  5  1  0
  5  6  1  0
  5  7  1  0
  7  8  1  0
  8  9  1  0
  9  3  1  0
  9  7  1  0
  1 10  1  0
  1 11  1  0
  1 12  1  0
  3 13  1  0
  4 14  1  0
  4 15  1  0
  5 16  1  0
  6 17  1  0
  7 18  1  0
  9 19  1  0
M  END
