
     RDKit          3D

 21 22  0  0  0  0  0  0  0  0999 V2000
    2.8181   -0.2431    0.8519 C   0  0  0  0  0  0  0  0  0  0  0  0
    1.5305    0.3334    0.9522 O   0  0  0  0  0  0  0  0  0  0  0  0
    1.0202    0.3812   -0.3223 C   0  0  0  0  0  0  0  0  0  0  0  0
    0.3860    1.6728   -0.7525 C   0  0  0  0  0  0  0  0  0  0  0  0
   -0.5639    0.8975   -1.4612 O   0  0  0  0  0  0  0  0  0  0  0  0
   -0.3756   -0.0766   -0.5290 C   0  0  0  0  0  0  0  0  0  0  0  0
   -0.8299   -1.4382   -0.5756 C   0  0  0  0  0  0  0  0  0  0  0  0
   -1.3099   -0.4360    0.5195 C   0  0  0  0  0  0  0  0  0  0  0  0
   -2.7431   -0.0111    0.3807 C   0  0  0  0  0  0  0  0  0  0  0  0
    3.3151   -0.3276    1.8177 H   0  0  0  0  0  0  0  0  0  0  0  0
    3.3709    0.3958    0.1368 H   0  0  0  0  0  0  0  0  0  0  0  0
    2.7488   -1.2488    0.3563 H   0  0  0  0  0  0  0  0  0  0  0  0
    1.6853   -0.0205   -1.1307 H   0  0  0  0  0  0  0  0  0  0  0  0
    0.9854    2.3365   -1.3869 H   0  0  0  0  0  0  0  0  0  0  0  0
   -0.0819    2.2454    0.0837 H   0  0  0  0  0  0  0  0  0  0  0  0
   -0.1295   -2.2337   -0.1839 H   0  0  0  0  0  0  0  0  0  0  0  0
   -1.5928   -1.8538   -1.2362 H   0  0  0  0  0  0  0  0  0  0  0  0
   -0.9522   -0.6411    1.5406 H   0  0  0  0  0  0  0  0  0  0  0  0
   -3.3733   -0.7640    0.8764 H   0  0  0  0  0  0  0  0  0  0  0  0
   -2.8820    1.0149    0.7662 H   0  0  0  0  0  0  0  0  0  0  0  0
   -3.0262    0.0172   -0.7038 H   0  0  0  0  0  0  0  0  0  0  0  0
  1  2  1  0
  2  3  1  0
  3  4  1  0
  4  5  1  0
  5  6  1  0
  6  7  1  0
  7  8  1  0
  8  9  1  0
  6  3  1  0
  8  6  1  0
  1 10  1  0
  1 11  1  0
  1 12  1  0
  3 13  1  0
  4 14  1  0
  4 15  1  0
  7 16  1  0
  7 17  1  0
  8 18  1  0
  9 19  1  0
  9 20  1  0
  9 21  1  0
M  END
