
     RDKit          3D

 19 20  0  0  0  0  0  0  0  0999 V2000
    2.1499    0.2290   -0.6399 C   0  0  0  0  0  0  0  0  0  0  0  0
    0.9000    0.7060   -0.7425 O   0  0  0  0  0  0  0  0  0  0  0  0
   -0.1504   -0.1737   -0.4835 C   0  0  0  0  0  0  0  0  0  0  0  0
   -1.4456    0.5951   -0.6575 C   0  0  0  0  0  0  0  0  0  0  0  0
   -1.0646    1.6192    0.4189 C   0  0  0  0  0  0  0  0  0  0  0  0
   -0.4887    0.9145    1.3890 C   0  0  0  0  0  0  0  0  0  0  0  0
   -0.4830   -0.4696    1.0138 C   0  0  0  0  0  0  0  0  0  0  0  0
    0.1639   -1.3718    0.1588 C   0  0  0  0  0  0  0  0  0  0  0  0
   -0.4902   -2.5321   -0.3356 O   0  0  0  0  0  0  0  0  0  0  0  0
    2.2968   -0.6281   -1.3589 H   0  0  0  0  0  0  0  0  0  0  0  0
    2.5313   -0.0837    0.3203 H   0  0  0  0  0  0  0  0  0  0  0  0
    2.8508    1.0410   -1.0024 H   0  0  0  0  0  0  0  0  0  0  0  0
   -1.4673    1.1448   -1.5969 H   0  0  0  0  0  0  0  0  0  0  0  0
   -2.3441    0.0478   -0.3948 H   0  0  0  0  0  0  0  0  0  0  0  0
   -1.2425    2.6865    0.3669 H   0  0  0  0  0  0  0  0  0  0  0  0
   -0.0909    1.3660    2.3214 H   0  0  0  0  0  0  0  0  0  0  0  0
   -1.5470   -0.8357    1.2410 H   0  0  0  0  0  0  0  0  0  0  0  0
    1.2511   -1.6503    0.2883 H   0  0  0  0  0  0  0  0  0  0  0  0
   -1.3295   -2.6051    0.2174 H   0  0  0  0  0  0  0  0  0  0  0  0
  1  2  1  0
  2  3  1  0
  3  4  1  0
  4  5  1  0
  5  6  2  0
  6  7  1  0
  7  8  1  0
  8  9  1  0
  7  3  1  0
  8  3  1  0
  1 10  1  0
  1 11  1  0
  1 12  1  0
  4 13  1  0
  4 14  1  0
  5 15  1  0
  6 16  1  0
  7 17  1  0
  8 18  1  0
  9 19  1  0
M  END
