
     RDKit          3D

 19 21  0  0  0  0  0  0  0  0999 V2000
    2.9339    0.8149    0.0271 C   0  0  0  0  0  0  0  0  0  0  0  0
    1.8998    0.4170   -0.8028 O   0  0  0  0  0  0  0  0  0  0  0  0
    0.7170    0.1556   -0.1074 C   0  0  0  0  0  0  0  0  0  0  0  0
   -0.1137   -0.9195   -0.6581 C   0  0  0  0  0  0  0  0  0  0  0  0
   -1.4058   -1.3531   -0.0301 C   0  0  0  0  0  0  0  0  0  0  0  0
   -1.7585   -0.3471    1.0240 C   0  0  0  0  0  0  0  0  0  0  0  0
   -1.8746    0.4874   -0.2064 C   0  0  0  0  0  0  0  0  0  0  0  0
   -2.3524   -0.6835   -0.8442 O   0  0  0  0  0  0  0  0  0  0  0  0
   -0.5014    0.5956   -0.8187 C   0  0  0  0  0  0  0  0  0  0  0  0
    3.8148    0.9939   -0.6234 H   0  0  0  0  0  0  0  0  0  0  0  0
    3.2434   -0.0113    0.7195 H   0  0  0  0  0  0  0  0  0  0  0  0
    2.7246    1.7581    0.5577 H   0  0  0  0  0  0  0  0  0  0  0  0
    0.8304    0.3173    0.9865 H   0  0  0  0  0  0  0  0  0  0  0  0
    0.2052   -1.4395   -1.5526 H   0  0  0  0  0  0  0  0  0  0  0  0
   -1.5801   -2.3935    0.1532 H   0  0  0  0  0  0  0  0  0  0  0  0
   -1.0081   -0.0916    1.7629 H   0  0  0  0  0  0  0  0  0  0  0  0
   -2.7792   -0.5741    1.4176 H   0  0  0  0  0  0  0  0  0  0  0  0
   -2.5185    1.3413   -0.2214 H   0  0  0  0  0  0  0  0  0  0  0  0
   -0.4769    0.9321   -1.8552 H   0  0  0  0  0  0  0  0  0  0  0  0
  1  2  1  0
  2  3  1  0
  3  4  1  0
  4  5  1  0
  5  6  1  0
  6  7  1  0
  7  8  1  0
  7  9  1  0
  9  3  1  0
  9  4  1  0
  8  5  1  0
  1 10  1  0
  1 11  1  0
  1 12  1  0
  3 13  1  0
  4 14  1  0
  5 15  1  0
  6 16  1  0
  6 17  1  0
  7 18  1  0
  9 19  1  0
M  END
