
     RDKit          3D

 23 24  0  0  0  0  0  0  0  0999 V2000
   -2.8785    0.1076   -0.6296 C   0  0  0  0  0  0  0  0  0  0  0  0
   -1.8150    0.9527   -0.4594 O   0  0  0  0  0  0  0  0  0  0  0  0
   -0.6887    0.4376    0.0064 C   0  0  0  0  0  0  0  0  0  0  0  0
    0.5216    1.2997    0.2194 C   0  0  0  0  0  0  0  0  0  0  0  0
    1.5045    0.2040    0.6857 C   0  0  0  0  0  0  0  0  0  0  0  0
    2.6467    0.1024   -0.2653 C   0  0  0  0  0  0  0  0  0  0  0  0
    0.5849   -0.9726    0.6863 C   0  0  0  0  0  0  0  0  0  0  0  0
   -0.1536   -0.8515   -0.6352 C   0  0  0  0  0  0  0  0  0  0  0  0
   -0.6925   -0.3713    1.2954 C   0  0  0  0  0  0  0  0  0  0  0  0
   -3.1404   -0.3408    0.3497 H   0  0  0  0  0  0  0  0  0  0  0  0
   -2.6270   -0.6789   -1.3830 H   0  0  0  0  0  0  0  0  0  0  0  0
   -3.7347    0.7223   -1.0207 H   0  0  0  0  0  0  0  0  0  0  0  0
    0.3416    1.9676    1.0683 H   0  0  0  0  0  0  0  0  0  0  0  0
    0.8808    1.7911   -0.6921 H   0  0  0  0  0  0  0  0  0  0  0  0
    1.8701    0.4449    1.7231 H   0  0  0  0  0  0  0  0  0  0  0  0
    2.5420   -0.6404   -1.0544 H   0  0  0  0  0  0  0  0  0  0  0  0
    3.6072   -0.1488    0.2743 H   0  0  0  0  0  0  0  0  0  0  0  0
    2.8689    1.0861   -0.7762 H   0  0  0  0  0  0  0  0  0  0  0  0
    0.8934   -1.9245    1.0253 H   0  0  0  0  0  0  0  0  0  0  0  0
   -0.9546   -1.6057   -0.6725 H   0  0  0  0  0  0  0  0  0  0  0  0
    0.4629   -0.7069   -1.5172 H   0  0  0  0  0  0  0  0  0  0  0  0
   -1.5287   -1.0945    1.3363 H   0  0  0  0  0  0  0  0  0  0  0  0
   -0.5111    0.2199    2.2057 H   0  0  0  0  0  0  0  0  0  0  0  0
  1  2  1  0
  2  3  1  0
  3  4  1  0
  4  5  1  0
  5  6  1  0
  5  7  1  0
  7  8  1  0
  7  9  1  0
  8  3  1  0
  9  3  1  0
  1 10  1  0
  1 11  1  0
  1 12  1  0
  4 13  1  0
  4 14  1  0
  5 15  1  0
  6 16  1  0
  6 17  1  0
  6 18  1  0
  7 19  1  0
  8 20  1  0
  8 21  1  0
  9 22  1  0
  9 23  1  0
M  END
