
     RDKit          3D

 23 23  0  0  0  0  0  0  0  0999 V2000
    3.0434    0.8587   -0.1959 C   0  0  0  0  0  0  0  0  0  0  0  0
    2.0621    0.0314   -0.6989 O   0  0  0  0  0  0  0  0  0  0  0  0
    1.2121   -0.4692    0.3213 C   0  0  0  0  0  0  0  0  0  0  0  0
    0.7101   -1.7118    0.2682 C   0  0  0  0  0  0  0  0  0  0  0  0
   -0.1736   -0.6571   -0.1087 C   0  0  0  0  0  0  0  0  0  0  0  0
   -1.1276   -1.3149   -0.9330 C   0  0  0  0  0  0  0  0  0  0  0  0
   -0.7242    0.6476    0.3029 C   0  0  0  0  0  0  0  0  0  0  0  0
   -2.1840    0.8811    0.0380 C   0  0  0  0  0  0  0  0  0  0  0  0
   -2.5905    2.1482    0.4778 O   0  0  0  0  0  0  0  0  0  0  0  0
    3.7176    1.2647   -0.9449 H   0  0  0  0  0  0  0  0  0  0  0  0
    2.5176    1.6920    0.3544 H   0  0  0  0  0  0  0  0  0  0  0  0
    3.6676    0.3624    0.5791 H   0  0  0  0  0  0  0  0  0  0  0  0
    1.5264   -0.0803    1.3173 H   0  0  0  0  0  0  0  0  0  0  0  0
    1.1340   -2.4030   -0.5029 H   0  0  0  0  0  0  0  0  0  0  0  0
    0.5459   -2.3295    1.2107 H   0  0  0  0  0  0  0  0  0  0  0  0
   -0.9832   -2.2830   -1.4535 H   0  0  0  0  0  0  0  0  0  0  0  0
   -2.0731   -1.5179   -0.3402 H   0  0  0  0  0  0  0  0  0  0  0  0
   -1.3813   -0.6453   -1.8171 H   0  0  0  0  0  0  0  0  0  0  0  0
   -0.2327    1.5390   -0.1584 H   0  0  0  0  0  0  0  0  0  0  0  0
   -0.6322    0.8509    1.4122 H   0  0  0  0  0  0  0  0  0  0  0  0
   -2.4321    0.9122   -1.0668 H   0  0  0  0  0  0  0  0  0  0  0  0
   -2.8803    0.1850    0.4655 H   0  0  0  0  0  0  0  0  0  0  0  0
   -2.7220    2.0390    1.4728 H   0  0  0  0  0  0  0  0  0  0  0  0
  1  2  1  0
  2  3  1  0
  3  4  1  0
  4  5  1  0
  5  6  1  0
  5  7  1  0
  7  8  1  0
  8  9  1  0
  5  3  1  0
  1 10  1  0
  1 11  1  0
  1 12  1  0
  3 13  1  0
  4 14  1  0
  4 15  1  0
  6 16  1  0
  6 17  1  0
  6 18  1  0
  7 19  1  0
  7 20  1  0
  8 21  1  0
  8 22  1  0
  9 23  1  0
M  END
