
     RDKit          3D

 21 22  0  0  0  0  0  0  0  0999 V2000
    3.6156    0.2132    0.1680 C   0  0  0  0  0  0  0  0  0  0  0  0
    2.3433    0.6883    0.0891 O   0  0  0  0  0  0  0  0  0  0  0  0
    1.3674   -0.3254   -0.0146 C   0  0  0  0  0  0  0  0  0  0  0  0
    0.2225   -0.1926   -0.8079 C   0  0  0  0  0  0  0  0  0  0  0  0
   -1.1196   -0.6900   -0.8930 C   0  0  0  0  0  0  0  0  0  0  0  0
   -1.8539   -0.0410    0.0000 C   0  0  0  0  0  0  0  0  0  0  0  0
   -3.2858   -0.1620    0.3204 C   0  0  0  0  0  0  0  0  0  0  0  0
   -0.9018    0.8910    0.7391 C   0  0  0  0  0  0  0  0  0  0  0  0
    0.2252   -0.1028    0.7635 C   0  0  0  0  0  0  0  0  0  0  0  0
    3.8418   -0.3859   -0.7614 H   0  0  0  0  0  0  0  0  0  0  0  0
    4.3005    1.0859    0.1934 H   0  0  0  0  0  0  0  0  0  0  0  0
    3.7123   -0.4183    1.0807 H   0  0  0  0  0  0  0  0  0  0  0  0
    1.8699   -1.3351   -0.0062 H   0  0  0  0  0  0  0  0  0  0  0  0
    0.2257    0.8126   -1.3550 H   0  0  0  0  0  0  0  0  0  0  0  0
   -1.5457   -1.4699   -1.5544 H   0  0  0  0  0  0  0  0  0  0  0  0
   -3.3767   -0.0498    1.4411 H   0  0  0  0  0  0  0  0  0  0  0  0
   -3.7291   -1.1157    0.0158 H   0  0  0  0  0  0  0  0  0  0  0  0
   -3.8619    0.7203   -0.0810 H   0  0  0  0  0  0  0  0  0  0  0  0
   -0.6029    1.7279    0.0808 H   0  0  0  0  0  0  0  0  0  0  0  0
   -1.2884    1.1747    1.7130 H   0  0  0  0  0  0  0  0  0  0  0  0
   -0.1583   -1.0253    1.3045 H   0  0  0  0  0  0  0  0  0  0  0  0
  1  2  1  0
  2  3  1  0
  3  4  1  0
  4  5  1  0
  5  6  2  0
  6  7  1  0
  6  8  1  0
  8  9  1  0
  9  3  1  0
  9  4  1  0
  1 10  1  0
  1 11  1  0
  1 12  1  0
  3 13  1  0
  4 14  1  0
  5 15  1  0
  7 16  1  0
  7 17  1  0
  7 18  1  0
  8 19  1  0
  8 20  1  0
  9 21  1  0
M  END
