
     RDKit          3D

 23 23  0  0  0  0  0  0  0  0999 V2000
    2.9862   -0.1376    0.1215 C   0  0  0  0  0  0  0  0  0  0  0  0
    1.7415   -0.3291    0.7062 O   0  0  0  0  0  0  0  0  0  0  0  0
    0.6890    0.0678   -0.0893 C   0  0  0  0  0  0  0  0  0  0  0  0
   -0.5081    0.5932    0.6866 C   0  0  0  0  0  0  0  0  0  0  0  0
   -1.2008    1.7910    0.0797 C   0  0  0  0  0  0  0  0  0  0  0  0
   -0.3621    2.8711   -0.0425 O   0  0  0  0  0  0  0  0  0  0  0  0
   -0.5761   -0.7081    0.0037 C   0  0  0  0  0  0  0  0  0  0  0  0
   -0.4853   -2.0111    0.7681 C   0  0  0  0  0  0  0  0  0  0  0  0
   -1.5250   -0.7722   -1.1758 C   0  0  0  0  0  0  0  0  0  0  0  0
    3.7408   -0.4960    0.8621 H   0  0  0  0  0  0  0  0  0  0  0  0
    3.1789    0.8827   -0.2077 H   0  0  0  0  0  0  0  0  0  0  0  0
    3.0438   -0.8817   -0.7260 H   0  0  0  0  0  0  0  0  0  0  0  0
    0.8971    0.4935   -1.0957 H   0  0  0  0  0  0  0  0  0  0  0  0
   -0.4573    0.6187    1.7872 H   0  0  0  0  0  0  0  0  0  0  0  0
   -2.0695    2.0514    0.6935 H   0  0  0  0  0  0  0  0  0  0  0  0
   -1.5947    1.5541   -0.9393 H   0  0  0  0  0  0  0  0  0  0  0  0
   -0.8772    3.6926    0.1602 H   0  0  0  0  0  0  0  0  0  0  0  0
   -0.1990   -2.7934    0.0073 H   0  0  0  0  0  0  0  0  0  0  0  0
   -1.4245   -2.2647    1.2799 H   0  0  0  0  0  0  0  0  0  0  0  0
    0.3889   -1.9659    1.4614 H   0  0  0  0  0  0  0  0  0  0  0  0
   -2.4841   -0.3318   -0.8319 H   0  0  0  0  0  0  0  0  0  0  0  0
   -1.1649   -0.1241   -2.0164 H   0  0  0  0  0  0  0  0  0  0  0  0
   -1.7378   -1.8004   -1.4928 H   0  0  0  0  0  0  0  0  0  0  0  0
  1  2  1  0
  2  3  1  0
  3  4  1  0
  4  5  1  0
  5  6  1  0
  4  7  1  0
  7  8  1  0
  7  9  1  0
  7  3  1  0
  1 10  1  0
  1 11  1  0
  1 12  1  0
  3 13  1  0
  4 14  1  0
  5 15  1  0
  5 16  1  0
  6 17  1  0
  8 18  1  0
  8 19  1  0
  8 20  1  0
  9 21  1  0
  9 22  1  0
  9 23  1  0
M  END
