
     RDKit          3D

 21 21  0  0  0  0  0  0  0  0999 V2000
    2.9175   -0.9756    0.1369 C   0  0  0  0  0  0  0  0  0  0  0  0
    2.0990    0.0210   -0.4171 O   0  0  0  0  0  0  0  0  0  0  0  0
    0.8072   -0.0838    0.0447 C   0  0  0  0  0  0  0  0  0  0  0  0
    0.1571    1.2061    0.4967 C   0  0  0  0  0  0  0  0  0  0  0  0
   -1.0967    0.7157   -0.1856 C   0  0  0  0  0  0  0  0  0  0  0  0
   -1.8449    1.6829   -0.8302 O   0  0  0  0  0  0  0  0  0  0  0  0
   -1.9436   -0.2344    0.5790 C   0  0  0  0  0  0  0  0  0  0  0  0
   -2.8152   -0.8614   -0.3329 O   0  0  0  0  0  0  0  0  0  0  0  0
   -0.1654   -0.0518   -1.1300 C   0  0  0  0  0  0  0  0  0  0  0  0
    2.8802   -0.8148    1.2362 H   0  0  0  0  0  0  0  0  0  0  0  0
    2.6105   -1.9891   -0.1592 H   0  0  0  0  0  0  0  0  0  0  0  0
    3.9610   -0.8210   -0.1766 H   0  0  0  0  0  0  0  0  0  0  0  0
    0.5835   -0.8837    0.7474 H   0  0  0  0  0  0  0  0  0  0  0  0
    0.5804    2.0519   -0.0869 H   0  0  0  0  0  0  0  0  0  0  0  0
    0.0947    1.3620    1.5763 H   0  0  0  0  0  0  0  0  0  0  0  0
   -1.8659    2.5030   -0.2870 H   0  0  0  0  0  0  0  0  0  0  0  0
   -1.4175   -1.0127    1.1223 H   0  0  0  0  0  0  0  0  0  0  0  0
   -2.6139    0.3491    1.2747 H   0  0  0  0  0  0  0  0  0  0  0  0
   -2.5124   -1.7746   -0.5484 H   0  0  0  0  0  0  0  0  0  0  0  0
    0.1588    0.6294   -1.9445 H   0  0  0  0  0  0  0  0  0  0  0  0
   -0.5744   -1.0181   -1.4229 H   0  0  0  0  0  0  0  0  0  0  0  0
  1  2  1  0
  2  3  1  0
  3  4  1  0
  4  5  1  0
  5  6  1  0
  5  7  1  0
  7  8  1  0
  5  9  1  0
  9  3  1  0
  1 10  1  0
  1 11  1  0
  1 12  1  0
  3 13  1  0
  4 14  1  0
  4 15  1  0
  6 16  1  0
  7 17  1  0
  7 18  1  0
  8 19  1  0
  9 20  1  0
  9 21  1  0
M  END
