
     RDKit          3D

 21 22  0  0  0  0  0  0  0  0999 V2000
    2.6075    0.1579    0.6800 C   0  0  0  0  0  0  0  0  0  0  0  0
    1.7581   -0.5696   -0.0979 O   0  0  0  0  0  0  0  0  0  0  0  0
    0.4577   -0.2719   -0.0193 C   0  0  0  0  0  0  0  0  0  0  0  0
   -0.1952   -0.4061    1.2998 C   0  0  0  0  0  0  0  0  0  0  0  0
   -1.5022   -0.5349    1.0803 C   0  0  0  0  0  0  0  0  0  0  0  0
   -1.7389   -0.5038   -0.3892 C   0  0  0  0  0  0  0  0  0  0  0  0
   -1.4599    0.8672   -0.9582 C   0  0  0  0  0  0  0  0  0  0  0  0
    0.0233    1.0546   -0.6023 C   0  0  0  0  0  0  0  0  0  0  0  0
   -0.4428   -1.2081   -0.8449 C   0  0  0  0  0  0  0  0  0  0  0  0
    2.5288    1.2429    0.4044 H   0  0  0  0  0  0  0  0  0  0  0  0
    2.3890    0.0619    1.7706 H   0  0  0  0  0  0  0  0  0  0  0  0
    3.6548   -0.1551    0.5255 H   0  0  0  0  0  0  0  0  0  0  0  0
    0.3470   -0.3939    2.2345 H   0  0  0  0  0  0  0  0  0  0  0  0
   -2.2079   -0.6401    1.8983 H   0  0  0  0  0  0  0  0  0  0  0  0
   -2.6285   -0.9852   -0.7313 H   0  0  0  0  0  0  0  0  0  0  0  0
   -1.5687    0.7789   -2.0570 H   0  0  0  0  0  0  0  0  0  0  0  0
   -2.0796    1.6556   -0.5158 H   0  0  0  0  0  0  0  0  0  0  0  0
    0.6066    1.3063   -1.4895 H   0  0  0  0  0  0  0  0  0  0  0  0
    0.0858    1.8055    0.2143 H   0  0  0  0  0  0  0  0  0  0  0  0
   -0.3945   -2.2345   -0.5050 H   0  0  0  0  0  0  0  0  0  0  0  0
   -0.2406   -1.0277   -1.8971 H   0  0  0  0  0  0  0  0  0  0  0  0
  1  2  1  0
  2  3  1  0
  3  4  1  0
  4  5  2  0
  5  6  1  0
  6  7  1  0
  7  8  1  0
  6  9  1  0
  8  3  1  0
  9  3  1  0
  1 10  1  0
  1 11  1  0
  1 12  1  0
  4 13  1  0
  5 14  1  0
  6 15  1  0
  7 16  1  0
  7 17  1  0
  8 18  1  0
  8 19  1  0
  9 20  1  0
  9 21  1  0
M  END
