
     RDKit          3D

 25 25  0  0  0  0  0  0  0  0999 V2000
   -3.0529    0.3031   -0.8677 C   0  0  0  0  0  0  0  0  0  0  0  0
   -2.0661   -0.6460   -1.1206 O   0  0  0  0  0  0  0  0  0  0  0  0
   -0.9985   -0.3487   -0.2504 C   0  0  0  0  0  0  0  0  0  0  0  0
   -1.4052   -0.4356    1.1901 C   0  0  0  0  0  0  0  0  0  0  0  0
   -0.2333    0.8740   -0.7604 C   0  0  0  0  0  0  0  0  0  0  0  0
    0.3845   -0.4990   -0.6835 C   0  0  0  0  0  0  0  0  0  0  0  0
    1.4939   -0.5770    0.3214 C   0  0  0  0  0  0  0  0  0  0  0  0
    1.5784    0.6777    1.1408 C   0  0  0  0  0  0  0  0  0  0  0  0
    2.8471   -0.7885   -0.3338 C   0  0  0  0  0  0  0  0  0  0  0  0
   -2.6689    1.3454   -1.0595 H   0  0  0  0  0  0  0  0  0  0  0  0
   -3.4269    0.3025    0.1677 H   0  0  0  0  0  0  0  0  0  0  0  0
   -3.9057    0.2015   -1.5971 H   0  0  0  0  0  0  0  0  0  0  0  0
   -1.6348    0.5674    1.5811 H   0  0  0  0  0  0  0  0  0  0  0  0
   -0.6768   -0.9639    1.8388 H   0  0  0  0  0  0  0  0  0  0  0  0
   -2.3780   -0.9996    1.2974 H   0  0  0  0  0  0  0  0  0  0  0  0
   -0.4065    1.2487   -1.7836 H   0  0  0  0  0  0  0  0  0  0  0  0
   -0.0554    1.6390   -0.0061 H   0  0  0  0  0  0  0  0  0  0  0  0
    0.6508   -0.9740   -1.6634 H   0  0  0  0  0  0  0  0  0  0  0  0
    1.3245   -1.4365    1.0121 H   0  0  0  0  0  0  0  0  0  0  0  0
    0.6889    0.9190    1.7364 H   0  0  0  0  0  0  0  0  0  0  0  0
    2.4170    0.5814    1.8841 H   0  0  0  0  0  0  0  0  0  0  0  0
    1.9030    1.5599    0.5238 H   0  0  0  0  0  0  0  0  0  0  0  0
    3.0520   -1.8912   -0.4023 H   0  0  0  0  0  0  0  0  0  0  0  0
    2.9603   -0.2649   -1.2819 H   0  0  0  0  0  0  0  0  0  0  0  0
    3.6087   -0.3945    0.3708 H   0  0  0  0  0  0  0  0  0  0  0  0
  1  2  1  0
  2  3  1  0
  3  4  1  0
  3  5  1  0
  5  6  1  0
  6  7  1  0
  7  8  1  0
  7  9  1  0
  6  3  1  0
  1 10  1  0
  1 11  1  0
  1 12  1  0
  4 13  1  0
  4 14  1  0
  4 15  1  0
  5 16  1  0
  5 17  1  0
  6 18  1  0
  7 19  1  0
  8 20  1  0
  8 21  1  0
  8 22  1  0
  9 23  1  0
  9 24  1  0
  9 25  1  0
M  END
