
     RDKit          3D

 21 21  0  0  0  0  0  0  0  0999 V2000
   -2.9054    0.2432    1.0405 C   0  0  0  0  0  0  0  0  0  0  0  0
   -2.0882   -0.4339    0.1503 O   0  0  0  0  0  0  0  0  0  0  0  0
   -1.0121    0.3132   -0.2865 C   0  0  0  0  0  0  0  0  0  0  0  0
   -0.4892    0.2222   -1.6600 C   0  0  0  0  0  0  0  0  0  0  0  0
    0.3070   -0.3102   -0.5080 C   0  0  0  0  0  0  0  0  0  0  0  0
    0.4317   -1.7133   -0.5105 O   0  0  0  0  0  0  0  0  0  0  0  0
    1.5795    0.3924   -0.0907 C   0  0  0  0  0  0  0  0  0  0  0  0
    2.0181   -0.0710    1.2776 C   0  0  0  0  0  0  0  0  0  0  0  0
    2.6111    0.0532   -0.9832 O   0  0  0  0  0  0  0  0  0  0  0  0
   -3.3389    1.1677    0.6018 H   0  0  0  0  0  0  0  0  0  0  0  0
   -3.7660   -0.4406    1.2584 H   0  0  0  0  0  0  0  0  0  0  0  0
   -2.3932    0.4410    2.0069 H   0  0  0  0  0  0  0  0  0  0  0  0
   -0.9864    1.3450    0.1583 H   0  0  0  0  0  0  0  0  0  0  0  0
   -0.0385    1.1165   -2.1460 H   0  0  0  0  0  0  0  0  0  0  0  0
   -0.9954   -0.4703   -2.3530 H   0  0  0  0  0  0  0  0  0  0  0  0
    0.6962   -1.9499   -1.4358 H   0  0  0  0  0  0  0  0  0  0  0  0
    1.4808    1.4808   -0.0567 H   0  0  0  0  0  0  0  0  0  0  0  0
    1.7884   -1.1616    1.4099 H   0  0  0  0  0  0  0  0  0  0  0  0
    1.5531    0.5301    2.0825 H   0  0  0  0  0  0  0  0  0  0  0  0
    3.1283    0.1071    1.3443 H   0  0  0  0  0  0  0  0  0  0  0  0
    2.4190   -0.8617   -1.3002 H   0  0  0  0  0  0  0  0  0  0  0  0
  1  2  1  0
  2  3  1  0
  3  4  1  0
  4  5  1  0
  5  6  1  0
  5  7  1  0
  7  8  1  0
  7  9  1  0
  5  3  1  0
  1 10  1  0
  1 11  1  0
  1 12  1  0
  3 13  1  0
  4 14  1  0
  4 15  1  0
  6 16  1  0
  7 17  1  0
  8 18  1  0
  8 19  1  0
  8 20  1  0
  9 21  1  0
M  END
