
     RDKit          3D

 19 19  0  0  0  0  0  0  0  0999 V2000
    2.4556   -0.8781   -0.1056 C   0  0  0  0  0  0  0  0  0  0  0  0
    1.5257   -0.0882   -0.8029 O   0  0  0  0  0  0  0  0  0  0  0  0
    0.4633    0.2652    0.0183 C   0  0  0  0  0  0  0  0  0  0  0  0
    0.3416    1.7276    0.1866 C   0  0  0  0  0  0  0  0  0  0  0  0
   -0.9314    2.0677    0.1438 C   0  0  0  0  0  0  0  0  0  0  0  0
   -1.8038    0.9175   -0.0527 C   0  0  0  0  0  0  0  0  0  0  0  0
   -3.0406    0.8058    0.1127 O   0  0  0  0  0  0  0  0  0  0  0  0
   -0.8572   -0.1593   -0.5189 C   0  0  0  0  0  0  0  0  0  0  0  0
   -1.3660   -1.4511    0.0688 C   0  0  0  0  0  0  0  0  0  0  0  0
    2.0102   -1.8052    0.2700 H   0  0  0  0  0  0  0  0  0  0  0  0
    2.8305   -0.3108    0.7808 H   0  0  0  0  0  0  0  0  0  0  0  0
    3.3210   -1.1188   -0.7191 H   0  0  0  0  0  0  0  0  0  0  0  0
    0.6053   -0.1668    1.0424 H   0  0  0  0  0  0  0  0  0  0  0  0
    1.1674    2.4551    0.3286 H   0  0  0  0  0  0  0  0  0  0  0  0
   -1.2760    3.1132    0.2477 H   0  0  0  0  0  0  0  0  0  0  0  0
   -0.8529   -0.1640   -1.6269 H   0  0  0  0  0  0  0  0  0  0  0  0
   -1.4974   -1.2923    1.1575 H   0  0  0  0  0  0  0  0  0  0  0  0
   -2.3898   -1.6080   -0.3673 H   0  0  0  0  0  0  0  0  0  0  0  0
   -0.7055   -2.3096   -0.1637 H   0  0  0  0  0  0  0  0  0  0  0  0
  1  2  1  0
  2  3  1  0
  3  4  1  0
  4  5  2  0
  5  6  1  0
  6  7  2  0
  6  8  1  0
  8  9  1  0
  8  3  1  0
  1 10  1  0
  1 11  1  0
  1 12  1  0
  3 13  1  0
  4 14  1  0
  5 15  1  0
  8 16  1  0
  9 17  1  0
  9 18  1  0
  9 19  1  0
M  END
