
     RDKit          3D

 17 18  0  0  0  0  0  0  0  0999 V2000
    2.3784    0.3173   -0.0639 C   0  0  0  0  0  0  0  0  0  0  0  0
    1.1351    0.2184   -0.6879 O   0  0  0  0  0  0  0  0  0  0  0  0
    0.2476   -0.3357    0.2219 C   0  0  0  0  0  0  0  0  0  0  0  0
   -1.1003    0.3042    0.3026 C   0  0  0  0  0  0  0  0  0  0  0  0
   -1.2593    1.6371   -0.2629 C   0  0  0  0  0  0  0  0  0  0  0  0
   -2.1273    2.3832    0.1586 O   0  0  0  0  0  0  0  0  0  0  0  0
   -1.6490   -0.8491   -0.5217 C   0  0  0  0  0  0  0  0  0  0  0  0
   -1.5755   -2.0542    0.1245 O   0  0  0  0  0  0  0  0  0  0  0  0
   -0.4244   -1.5488   -0.4237 C   0  0  0  0  0  0  0  0  0  0  0  0
    3.1480    0.7499   -0.7185 H   0  0  0  0  0  0  0  0  0  0  0  0
    2.2109    0.9228    0.8604 H   0  0  0  0  0  0  0  0  0  0  0  0
    2.6989   -0.6935    0.3048 H   0  0  0  0  0  0  0  0  0  0  0  0
    0.6785   -0.5803    1.2206 H   0  0  0  0  0  0  0  0  0  0  0  0
   -1.5322    0.2364    1.3359 H   0  0  0  0  0  0  0  0  0  0  0  0
   -0.6272    2.0041   -1.0589 H   0  0  0  0  0  0  0  0  0  0  0  0
   -2.2804   -0.6637   -1.3818 H   0  0  0  0  0  0  0  0  0  0  0  0
    0.0780   -2.0482   -1.2551 H   0  0  0  0  0  0  0  0  0  0  0  0
  1  2  1  0
  2  3  1  0
  3  4  1  0
  4  5  1  0
  5  6  2  0
  4  7  1  0
  7  8  1  0
  8  9  1  0
  9  3  1  0
  9  7  1  0
  1 10  1  0
  1 11  1  0
  1 12  1  0
  3 13  1  0
  4 14  1  0
  5 15  1  0
  7 16  1  0
  9 17  1  0
M  END
