
     RDKit          3D

 21 21  0  0  0  0  0  0  0  0999 V2000
    2.6907   -0.1907    0.0726 C   0  0  0  0  0  0  0  0  0  0  0  0
    1.4701   -0.1120   -0.6190 O   0  0  0  0  0  0  0  0  0  0  0  0
    0.4749    0.1088    0.2898 C   0  0  0  0  0  0  0  0  0  0  0  0
   -0.6028   -0.9311    0.3123 C   0  0  0  0  0  0  0  0  0  0  0  0
   -1.0207   -1.4239   -1.0322 C   0  0  0  0  0  0  0  0  0  0  0  0
   -1.7220   -0.2063    0.9829 C   0  0  0  0  0  0  0  0  0  0  0  0
   -1.5566    1.1056    0.8363 C   0  0  0  0  0  0  0  0  0  0  0  0
   -0.3062    1.3807    0.0508 C   0  0  0  0  0  0  0  0  0  0  0  0
   -0.6362    1.5615   -1.2706 O   0  0  0  0  0  0  0  0  0  0  0  0
    3.4673   -0.3695   -0.6966 H   0  0  0  0  0  0  0  0  0  0  0  0
    2.8852    0.6941    0.6888 H   0  0  0  0  0  0  0  0  0  0  0  0
    2.7008   -1.1011    0.7315 H   0  0  0  0  0  0  0  0  0  0  0  0
    0.8758    0.1709    1.3443 H   0  0  0  0  0  0  0  0  0  0  0  0
   -0.2877   -1.8222    0.9141 H   0  0  0  0  0  0  0  0  0  0  0  0
   -1.0574   -0.6711   -1.8195 H   0  0  0  0  0  0  0  0  0  0  0  0
   -2.0549   -1.8516   -0.9187 H   0  0  0  0  0  0  0  0  0  0  0  0
   -0.3987   -2.2682   -1.3979 H   0  0  0  0  0  0  0  0  0  0  0  0
   -2.5568   -0.6357    1.5156 H   0  0  0  0  0  0  0  0  0  0  0  0
   -2.1864    1.9080    1.2005 H   0  0  0  0  0  0  0  0  0  0  0  0
    0.2755    2.2089    0.4516 H   0  0  0  0  0  0  0  0  0  0  0  0
   -0.4541    2.4448   -1.6369 H   0  0  0  0  0  0  0  0  0  0  0  0
  1  2  1  0
  2  3  1  0
  3  4  1  0
  4  5  1  0
  4  6  1  0
  6  7  2  0
  7  8  1  0
  8  9  1  0
  8  3  1  0
  1 10  1  0
  1 11  1  0
  1 12  1  0
  3 13  1  0
  4 14  1  0
  5 15  1  0
  5 16  1  0
  5 17  1  0
  6 18  1  0
  7 19  1  0
  8 20  1  0
  9 21  1  0
M  END
