
     RDKit          3D

 20 20  0  0  0  0  0  0  0  0999 V2000
   -2.4179    0.0434    0.9534 C   0  0  0  0  0  0  0  0  0  0  0  0
   -1.4404    0.5150    0.0854 O   0  0  0  0  0  0  0  0  0  0  0  0
   -0.5362   -0.4471   -0.2962 C   0  0  0  0  0  0  0  0  0  0  0  0
   -0.1700   -0.4203   -1.7596 C   0  0  0  0  0  0  0  0  0  0  0  0
    1.1781   -0.6080   -1.4794 O   0  0  0  0  0  0  0  0  0  0  0  0
    0.9218   -0.0358   -0.2141 C   0  0  0  0  0  0  0  0  0  0  0  0
    1.7312   -0.7849    0.8214 C   0  0  0  0  0  0  0  0  0  0  0  0
    1.1180    1.4507   -0.1523 C   0  0  0  0  0  0  0  0  0  0  0  0
   -3.0873    0.8966    1.1934 H   0  0  0  0  0  0  0  0  0  0  0  0
   -1.9826   -0.2915    1.9273 H   0  0  0  0  0  0  0  0  0  0  0  0
   -3.0631   -0.7358    0.5030 H   0  0  0  0  0  0  0  0  0  0  0  0
   -0.6625   -1.4549    0.1011 H   0  0  0  0  0  0  0  0  0  0  0  0
   -0.3207    0.5298   -2.2788 H   0  0  0  0  0  0  0  0  0  0  0  0
   -0.6693   -1.2443   -2.2891 H   0  0  0  0  0  0  0  0  0  0  0  0
    2.7449   -0.9261    0.3903 H   0  0  0  0  0  0  0  0  0  0  0  0
    1.3102   -1.7893    1.0404 H   0  0  0  0  0  0  0  0  0  0  0  0
    1.8659   -0.1969    1.7506 H   0  0  0  0  0  0  0  0  0  0  0  0
    0.2682    1.8790    0.4539 H   0  0  0  0  0  0  0  0  0  0  0  0
    2.0416    1.7130    0.4086 H   0  0  0  0  0  0  0  0  0  0  0  0
    1.1701    1.9074   -1.1593 H   0  0  0  0  0  0  0  0  0  0  0  0
  1  2  1  0
  2  3  1  0
  3  4  1  0
  4  5  1  0
  5  6  1  0
  6  7  1  0
  6  8  1  0
  6  3  1  0
  1  9  1  0
  1 10  1  0
  1 11  1  0
  3 12  1  0
  4 13  1  0
  4 14  1  0
  7 15  1  0
  7 16  1  0
  7 17  1  0
  8 18  1  0
  8 19  1  0
  8 20  1  0
M  END
