
     RDKit          3D

 21 22  0  0  0  0  0  0  0  0999 V2000
    3.1674    0.1439    0.6164 C   0  0  0  0  0  0  0  0  0  0  0  0
    1.9361    0.5348    1.1386 O   0  0  0  0  0  0  0  0  0  0  0  0
    0.9592    0.3658    0.1992 C   0  0  0  0  0  0  0  0  0  0  0  0
    0.2906    1.5468   -0.1325 O   0  0  0  0  0  0  0  0  0  0  0  0
   -0.6939    1.0380   -1.0124 C   0  0  0  0  0  0  0  0  0  0  0  0
   -1.3154   -0.1110   -0.2644 C   0  0  0  0  0  0  0  0  0  0  0  0
   -2.7160    0.0088    0.2560 C   0  0  0  0  0  0  0  0  0  0  0  0
   -0.7217   -1.4558   -0.2826 C   0  0  0  0  0  0  0  0  0  0  0  0
   -0.1982   -0.4927    0.6967 C   0  0  0  0  0  0  0  0  0  0  0  0
    3.9912    0.2607    1.3361 H   0  0  0  0  0  0  0  0  0  0  0  0
    3.3839    0.8747   -0.2159 H   0  0  0  0  0  0  0  0  0  0  0  0
    3.1295   -0.8560    0.1396 H   0  0  0  0  0  0  0  0  0  0  0  0
    1.3802   -0.0338   -0.7309 H   0  0  0  0  0  0  0  0  0  0  0  0
   -1.3879    1.8340   -1.2704 H   0  0  0  0  0  0  0  0  0  0  0  0
   -0.1048    0.6779   -1.9073 H   0  0  0  0  0  0  0  0  0  0  0  0
   -2.7753    0.4676    1.2595 H   0  0  0  0  0  0  0  0  0  0  0  0
   -3.2702    0.7120   -0.4294 H   0  0  0  0  0  0  0  0  0  0  0  0
   -3.2564   -0.9590    0.1817 H   0  0  0  0  0  0  0  0  0  0  0  0
   -1.3314   -2.2885    0.0709 H   0  0  0  0  0  0  0  0  0  0  0  0
   -0.0618   -1.7399   -1.1452 H   0  0  0  0  0  0  0  0  0  0  0  0
   -0.4052   -0.5283    1.7685 H   0  0  0  0  0  0  0  0  0  0  0  0
  1  2  1  0
  2  3  1  0
  3  4  1  0
  4  5  1  0
  5  6  1  0
  6  7  1  0
  6  8  1  0
  8  9  1  0
  9  3  1  0
  9  6  1  0
  1 10  1  0
  1 11  1  0
  1 12  1  0
  3 13  1  0
  5 14  1  0
  5 15  1  0
  7 16  1  0
  7 17  1  0
  7 18  1  0
  8 19  1  0
  8 20  1  0
  9 21  1  0
M  END
