
     RDKit          3D

 19 20  0  0  0  0  0  0  0  0999 V2000
   -3.2133    0.2905    0.1843 C   0  0  0  0  0  0  0  0  0  0  0  0
   -2.0108    1.0305    0.2732 O   0  0  0  0  0  0  0  0  0  0  0  0
   -0.9834    0.1198    0.1705 C   0  0  0  0  0  0  0  0  0  0  0  0
    0.1409    0.2751    1.1538 C   0  0  0  0  0  0  0  0  0  0  0  0
    0.5068    1.4143    0.4633 O   0  0  0  0  0  0  0  0  0  0  0  0
    0.2369    0.5514   -0.5812 C   0  0  0  0  0  0  0  0  0  0  0  0
    0.9857   -0.4919    0.1972 C   0  0  0  0  0  0  0  0  0  0  0  0
    2.4751   -0.2911    0.3048 C   0  0  0  0  0  0  0  0  0  0  0  0
    3.1238   -1.0706   -0.6499 O   0  0  0  0  0  0  0  0  0  0  0  0
   -3.1637   -0.4218    1.0507 H   0  0  0  0  0  0  0  0  0  0  0  0
   -3.2558   -0.2368   -0.7752 H   0  0  0  0  0  0  0  0  0  0  0  0
   -4.0965    0.9321    0.3647 H   0  0  0  0  0  0  0  0  0  0  0  0
   -1.2718   -0.9444    0.0466 H   0  0  0  0  0  0  0  0  0  0  0  0
    0.0809    0.1606    2.1521 H   0  0  0  0  0  0  0  0  0  0  0  0
    0.3127    0.7365   -1.5684 H   0  0  0  0  0  0  0  0  0  0  0  0
    0.6330   -1.5094    0.0188 H   0  0  0  0  0  0  0  0  0  0  0  0
    2.7881   -0.6594    1.3027 H   0  0  0  0  0  0  0  0  0  0  0  0
    2.7065    0.7791    0.2260 H   0  0  0  0  0  0  0  0  0  0  0  0
    4.0049   -0.6643   -0.8025 H   0  0  0  0  0  0  0  0  0  0  0  0
  1  2  1  0
  2  3  1  0
  3  4  1  0
  4  5  1  0
  5  6  1  0
  6  7  1  0
  7  8  1  0
  8  9  1  0
  6  3  1  0
  7  4  1  0
  1 10  1  0
  1 11  1  0
  1 12  1  0
  3 13  1  0
  4 14  1  0
  6 15  1  0
  7 16  1  0
  8 17  1  0
  8 18  1  0
  9 19  1  0
M  END
