
     RDKit          3D

 19 19  0  0  0  0  0  0  0  0999 V2000
    2.3182   -0.4209    0.4472 C   0  0  0  0  0  0  0  0  0  0  0  0
    1.1411    0.2771    0.3602 O   0  0  0  0  0  0  0  0  0  0  0  0
    0.4671    0.1582   -0.8196 C   0  0  0  0  0  0  0  0  0  0  0  0
    0.2468    1.4937   -1.3026 O   0  0  0  0  0  0  0  0  0  0  0  0
   -0.6305    2.0516   -0.3796 C   0  0  0  0  0  0  0  0  0  0  0  0
   -0.8252    3.2912   -0.2294 O   0  0  0  0  0  0  0  0  0  0  0  0
   -1.3002    0.9708    0.3988 C   0  0  0  0  0  0  0  0  0  0  0  0
   -0.9570   -0.2306   -0.4784 C   0  0  0  0  0  0  0  0  0  0  0  0
   -1.0679   -1.5129    0.2626 C   0  0  0  0  0  0  0  0  0  0  0  0
    2.7481   -0.2263    1.4587 H   0  0  0  0  0  0  0  0  0  0  0  0
    3.0900   -0.0734   -0.2792 H   0  0  0  0  0  0  0  0  0  0  0  0
    2.1187   -1.4907    0.3727 H   0  0  0  0  0  0  0  0  0  0  0  0
    0.9280   -0.4791   -1.5773 H   0  0  0  0  0  0  0  0  0  0  0  0
   -0.7861    0.8087    1.3651 H   0  0  0  0  0  0  0  0  0  0  0  0
   -2.3787    1.1174    0.4917 H   0  0  0  0  0  0  0  0  0  0  0  0
   -1.6240   -0.1924   -1.3557 H   0  0  0  0  0  0  0  0  0  0  0  0
   -0.2094   -1.7415    0.8964 H   0  0  0  0  0  0  0  0  0  0  0  0
   -1.2501   -2.3287   -0.4864 H   0  0  0  0  0  0  0  0  0  0  0  0
   -2.0289   -1.4719    0.8549 H   0  0  0  0  0  0  0  0  0  0  0  0
  1  2  1  0
  2  3  1  0
  3  4  1  0
  4  5  1  0
  5  6  2  0
  5  7  1  0
  7  8  1  0
  8  9  1  0
  8  3  1  0
  1 10  1  0
  1 11  1  0
  1 12  1  0
  3 13  1  0
  7 14  1  0
  7 15  1  0
  8 16  1  0
  9 17  1  0
  9 18  1  0
  9 19  1  0
M  END
