
     RDKit          3D

 17 17  0  0  0  0  0  0  0  0999 V2000
    2.1424   -0.4486    0.0363 C   0  0  0  0  0  0  0  0  0  0  0  0
    1.0710   -0.3596   -0.8161 O   0  0  0  0  0  0  0  0  0  0  0  0
    0.0392    0.3724   -0.3228 C   0  0  0  0  0  0  0  0  0  0  0  0
    0.5026    1.7669   -0.0433 C   0  0  0  0  0  0  0  0  0  0  0  0
   -0.2472    2.5984    0.4562 O   0  0  0  0  0  0  0  0  0  0  0  0
   -0.5928   -0.1393    0.9110 C   0  0  0  0  0  0  0  0  0  0  0  0
   -1.7226   -0.7374    0.5848 C   0  0  0  0  0  0  0  0  0  0  0  0
   -1.8567   -0.6306   -0.8837 C   0  0  0  0  0  0  0  0  0  0  0  0
   -1.0489    0.4203   -1.2228 O   0  0  0  0  0  0  0  0  0  0  0  0
    2.9679   -1.0778   -0.4208 H   0  0  0  0  0  0  0  0  0  0  0  0
    1.7766   -0.9552    0.9597 H   0  0  0  0  0  0  0  0  0  0  0  0
    2.5942    0.5236    0.2358 H   0  0  0  0  0  0  0  0  0  0  0  0
    1.5046    2.0467   -0.2835 H   0  0  0  0  0  0  0  0  0  0  0  0
   -0.2526   -0.0776    1.9545 H   0  0  0  0  0  0  0  0  0  0  0  0
   -2.4414   -1.2309    1.2856 H   0  0  0  0  0  0  0  0  0  0  0  0
   -1.5085   -1.6089   -1.3118 H   0  0  0  0  0  0  0  0  0  0  0  0
   -2.9278   -0.4625   -1.1191 H   0  0  0  0  0  0  0  0  0  0  0  0
  1  2  1  0
  2  3  1  0
  3  4  1  0
  4  5  2  0
  3  6  1  0
  6  7  2  0
  7  8  1  0
  8  9  1  0
  9  3  1  0
  1 10  1  0
  1 11  1  0
  1 12  1  0
  4 13  1  0
  6 14  1  0
  7 15  1  0
  8 16  1  0
  8 17  1  0
M  END
