
     RDKit          3D

 18 19  0  0  0  0  0  0  0  0999 V2000
    2.4921    0.3563   -0.8288 C   0  0  0  0  0  0  0  0  0  0  0  0
    1.4665   -0.5184   -0.4805 O   0  0  0  0  0  0  0  0  0  0  0  0
    0.3178    0.1836   -0.2156 C   0  0  0  0  0  0  0  0  0  0  0  0
   -0.2812   -0.2028    1.1549 C   0  0  0  0  0  0  0  0  0  0  0  0
   -0.5791   -1.4631    0.4026 C   0  0  0  0  0  0  0  0  0  0  0  0
   -1.3793   -1.6734   -0.6215 O   0  0  0  0  0  0  0  0  0  0  0  0
   -0.9705   -0.4248   -0.6945 C   0  0  0  0  0  0  0  0  0  0  0  0
   -2.1551    0.4923   -0.3452 C   0  0  0  0  0  0  0  0  0  0  0  0
    2.7199    1.0860   -0.0160 H   0  0  0  0  0  0  0  0  0  0  0  0
    3.4240   -0.2311   -0.9735 H   0  0  0  0  0  0  0  0  0  0  0  0
    2.2453    0.9177   -1.7311 H   0  0  0  0  0  0  0  0  0  0  0  0
    0.3413    1.2622   -0.3024 H   0  0  0  0  0  0  0  0  0  0  0  0
    0.4767   -0.3145    1.9216 H   0  0  0  0  0  0  0  0  0  0  0  0
   -1.0973    0.4211    1.4801 H   0  0  0  0  0  0  0  0  0  0  0  0
    0.4146   -1.9855    0.2018 H   0  0  0  0  0  0  0  0  0  0  0  0
   -2.7786    0.4843   -1.2902 H   0  0  0  0  0  0  0  0  0  0  0  0
   -2.8040    0.0828    0.4286 H   0  0  0  0  0  0  0  0  0  0  0  0
   -1.8530    1.5274   -0.2074 H   0  0  0  0  0  0  0  0  0  0  0  0
  1  2  1  0
  2  3  1  0
  3  4  1  0
  4  5  1  0
  5  6  1  0
  6  7  1  0
  7  8  1  0
  7  3  1  0
  7  5  1  0
  1  9  1  0
  1 10  1  0
  1 11  1  0
  3 12  1  0
  4 13  1  0
  4 14  1  0
  5 15  1  0
  8 16  1  0
  8 17  1  0
  8 18  1  0
M  END
