
     RDKit          3D

 23 23  0  0  0  0  0  0  0  0999 V2000
   -1.9959    1.4312    0.8039 C   0  0  0  0  0  0  0  0  0  0  0  0
   -1.2316    1.1975   -0.3006 O   0  0  0  0  0  0  0  0  0  0  0  0
   -0.7257   -0.0777   -0.3846 C   0  0  0  0  0  0  0  0  0  0  0  0
   -1.8513   -1.0897   -0.3910 C   0  0  0  0  0  0  0  0  0  0  0  0
    0.0764   -0.1944   -1.6659 C   0  0  0  0  0  0  0  0  0  0  0  0
    1.3556    0.0323   -1.4248 C   0  0  0  0  0  0  0  0  0  0  0  0
    1.5278    0.3153   -0.0004 C   0  0  0  0  0  0  0  0  0  0  0  0
    2.7964   -0.2603    0.5764 C   0  0  0  0  0  0  0  0  0  0  0  0
    0.3246   -0.3360    0.6479 C   0  0  0  0  0  0  0  0  0  0  0  0
   -1.5069    1.3084    1.7851 H   0  0  0  0  0  0  0  0  0  0  0  0
   -2.4384    2.4709    0.8024 H   0  0  0  0  0  0  0  0  0  0  0  0
   -2.9167    0.7739    0.8145 H   0  0  0  0  0  0  0  0  0  0  0  0
   -1.9995   -1.5670    0.6020 H   0  0  0  0  0  0  0  0  0  0  0  0
   -2.8160   -0.6231   -0.7168 H   0  0  0  0  0  0  0  0  0  0  0  0
   -1.5928   -1.8509   -1.1504 H   0  0  0  0  0  0  0  0  0  0  0  0
   -0.3462   -0.4278   -2.6227 H   0  0  0  0  0  0  0  0  0  0  0  0
    2.1595    0.0094   -2.1851 H   0  0  0  0  0  0  0  0  0  0  0  0
    1.4337    1.4044    0.1852 H   0  0  0  0  0  0  0  0  0  0  0  0
    2.7148   -0.1541    1.6930 H   0  0  0  0  0  0  0  0  0  0  0  0
    3.6378    0.2989    0.1633 H   0  0  0  0  0  0  0  0  0  0  0  0
    2.8115   -1.3387    0.3630 H   0  0  0  0  0  0  0  0  0  0  0  0
    0.0737    0.1060    1.6099 H   0  0  0  0  0  0  0  0  0  0  0  0
    0.5092   -1.4285    0.7959 H   0  0  0  0  0  0  0  0  0  0  0  0
  1  2  1  0
  2  3  1  0
  3  4  1  0
  3  5  1  0
  5  6  2  0
  6  7  1  0
  7  8  1  0
  7  9  1  0
  9  3  1  0
  1 10  1  0
  1 11  1  0
  1 12  1  0
  4 13  1  0
  4 14  1  0
  4 15  1  0
  5 16  1  0
  6 17  1  0
  7 18  1  0
  8 19  1  0
  8 20  1  0
  8 21  1  0
  9 22  1  0
  9 23  1  0
M  END
