
     RDKit          3D

 23 24  0  0  0  0  0  0  0  0999 V2000
    2.6885    0.2729   -0.0589 C   0  0  0  0  0  0  0  0  0  0  0  0
    1.4160   -0.0404    0.3817 O   0  0  0  0  0  0  0  0  0  0  0  0
    0.4868   -0.1442   -0.6266 C   0  0  0  0  0  0  0  0  0  0  0  0
   -0.2567   -1.4384   -0.4417 C   0  0  0  0  0  0  0  0  0  0  0  0
   -0.8380   -1.2095    0.9624 C   0  0  0  0  0  0  0  0  0  0  0  0
   -1.6585   -0.1466    0.2230 C   0  0  0  0  0  0  0  0  0  0  0  0
   -1.6511   -1.1567   -0.9319 C   0  0  0  0  0  0  0  0  0  0  0  0
   -0.6500    0.8346   -0.2675 C   0  0  0  0  0  0  0  0  0  0  0  0
   -0.2127    1.8378    0.7437 C   0  0  0  0  0  0  0  0  0  0  0  0
    3.1099   -0.4761   -0.7603 H   0  0  0  0  0  0  0  0  0  0  0  0
    3.3416    0.2863    0.8557 H   0  0  0  0  0  0  0  0  0  0  0  0
    2.6838    1.2995   -0.4524 H   0  0  0  0  0  0  0  0  0  0  0  0
    0.8608    0.0298   -1.6283 H   0  0  0  0  0  0  0  0  0  0  0  0
    0.2073   -2.3631   -0.6390 H   0  0  0  0  0  0  0  0  0  0  0  0
   -1.4196   -2.0954    1.2464 H   0  0  0  0  0  0  0  0  0  0  0  0
   -0.1125   -0.8221    1.6762 H   0  0  0  0  0  0  0  0  0  0  0  0
   -2.5848    0.1461    0.6265 H   0  0  0  0  0  0  0  0  0  0  0  0
   -1.7423   -0.6019   -1.8736 H   0  0  0  0  0  0  0  0  0  0  0  0
   -2.3393   -1.9941   -0.7743 H   0  0  0  0  0  0  0  0  0  0  0  0
   -0.9952    1.3782   -1.1744 H   0  0  0  0  0  0  0  0  0  0  0  0
    0.3010    2.6694    0.1879 H   0  0  0  0  0  0  0  0  0  0  0  0
   -1.1021    2.2903    1.2054 H   0  0  0  0  0  0  0  0  0  0  0  0
    0.4672    1.4436    1.5202 H   0  0  0  0  0  0  0  0  0  0  0  0
  1  2  1  0
  2  3  1  0
  3  4  1  0
  4  5  1  0
  5  6  1  0
  6  7  1  0
  6  8  1  0
  8  9  1  0
  8  3  1  0
  7  4  1  0
  1 10  1  0
  1 11  1  0
  1 12  1  0
  3 13  1  0
  4 14  1  0
  5 15  1  0
  5 16  1  0
  6 17  1  0
  7 18  1  0
  7 19  1  0
  8 20  1  0
  9 21  1  0
  9 22  1  0
  9 23  1  0
M  END
