
     RDKit          3D

 18 18  0  0  0  0  0  0  0  0999 V2000
    2.6251   -0.2867    0.0179 C   0  0  0  0  0  0  0  0  0  0  0  0
    1.4788   -0.3577   -0.7282 O   0  0  0  0  0  0  0  0  0  0  0  0
    0.3680    0.2073   -0.1684 C   0  0  0  0  0  0  0  0  0  0  0  0
   -0.3110    1.2123   -0.9890 C   0  0  0  0  0  0  0  0  0  0  0  0
   -1.6008    1.2232   -0.6658 C   0  0  0  0  0  0  0  0  0  0  0  0
   -1.8814    0.2182    0.4025 C   0  0  0  0  0  0  0  0  0  0  0  0
   -0.7444   -0.7793    0.1132 C   0  0  0  0  0  0  0  0  0  0  0  0
   -0.4776   -1.5703    1.2152 O   0  0  0  0  0  0  0  0  0  0  0  0
    2.4722   -0.8126    1.0051 H   0  0  0  0  0  0  0  0  0  0  0  0
    3.4010   -0.9018   -0.5021 H   0  0  0  0  0  0  0  0  0  0  0  0
    3.0461    0.7175    0.1373 H   0  0  0  0  0  0  0  0  0  0  0  0
    0.6418    0.6342    0.8397 H   0  0  0  0  0  0  0  0  0  0  0  0
    0.0671    1.8851   -1.7538 H   0  0  0  0  0  0  0  0  0  0  0  0
   -2.4041    1.8484   -1.0773 H   0  0  0  0  0  0  0  0  0  0  0  0
   -1.6517    0.6653    1.3714 H   0  0  0  0  0  0  0  0  0  0  0  0
   -2.8628   -0.2506    0.3116 H   0  0  0  0  0  0  0  0  0  0  0  0
   -1.0608   -1.3382   -0.7794 H   0  0  0  0  0  0  0  0  0  0  0  0
   -1.1056   -2.3145    1.2500 H   0  0  0  0  0  0  0  0  0  0  0  0
  1  2  1  0
  2  3  1  0
  3  4  1  0
  4  5  2  0
  5  6  1  0
  6  7  1  0
  7  8  1  0
  7  3  1  0
  1  9  1  0
  1 10  1  0
  1 11  1  0
  3 12  1  0
  4 13  1  0
  5 14  1  0
  6 15  1  0
  6 16  1  0
  7 17  1  0
  8 18  1  0
M  END
