
     RDKit          3D

 21 21  0  0  0  0  0  0  0  0999 V2000
    2.7151    0.4331    0.4780 C   0  0  0  0  0  0  0  0  0  0  0  0
    1.4166    0.9515    0.5674 O   0  0  0  0  0  0  0  0  0  0  0  0
    0.5973    0.1066   -0.1684 C   0  0  0  0  0  0  0  0  0  0  0  0
   -0.0662    0.8227   -1.3096 C   0  0  0  0  0  0  0  0  0  0  0  0
    0.4638    1.1727   -2.3439 O   0  0  0  0  0  0  0  0  0  0  0  0
   -1.4982    1.0559   -1.0027 C   0  0  0  0  0  0  0  0  0  0  0  0
   -1.7327    0.4803    0.3681 C   0  0  0  0  0  0  0  0  0  0  0  0
   -0.5492   -0.3595    0.7035 C   0  0  0  0  0  0  0  0  0  0  0  0
   -0.7489   -1.8313    0.4249 C   0  0  0  0  0  0  0  0  0  0  0  0
    2.9652    0.4347   -0.6085 H   0  0  0  0  0  0  0  0  0  0  0  0
    3.4231    0.9822    1.0990 H   0  0  0  0  0  0  0  0  0  0  0  0
    2.7415   -0.6438    0.8039 H   0  0  0  0  0  0  0  0  0  0  0  0
    1.1507   -0.7395   -0.6292 H   0  0  0  0  0  0  0  0  0  0  0  0
   -2.1852    0.6010   -1.7375 H   0  0  0  0  0  0  0  0  0  0  0  0
   -1.6578    2.1613   -1.0416 H   0  0  0  0  0  0  0  0  0  0  0  0
   -2.6746   -0.1073    0.4207 H   0  0  0  0  0  0  0  0  0  0  0  0
   -1.7934    1.3154    1.1093 H   0  0  0  0  0  0  0  0  0  0  0  0
   -0.3031   -0.2304    1.7969 H   0  0  0  0  0  0  0  0  0  0  0  0
   -1.7892   -2.1625    0.5561 H   0  0  0  0  0  0  0  0  0  0  0  0
   -0.4288   -2.0742   -0.6101 H   0  0  0  0  0  0  0  0  0  0  0  0
   -0.0460   -2.3689    1.1239 H   0  0  0  0  0  0  0  0  0  0  0  0
  1  2  1  0
  2  3  1  0
  3  4  1  0
  4  5  2  0
  4  6  1  0
  6  7  1  0
  7  8  1  0
  8  9  1  0
  8  3  1  0
  1 10  1  0
  1 11  1  0
  1 12  1  0
  3 13  1  0
  6 14  1  0
  6 15  1  0
  7 16  1  0
  7 17  1  0
  8 18  1  0
  9 19  1  0
  9 20  1  0
  9 21  1  0
M  END
