
     RDKit          3D

 19 19  0  0  0  0  0  0  0  0999 V2000
    2.7089    0.3862    0.5834 C   0  0  0  0  0  0  0  0  0  0  0  0
    1.3376    0.6920    0.7308 O   0  0  0  0  0  0  0  0  0  0  0  0
    0.6568    0.0968   -0.3011 C   0  0  0  0  0  0  0  0  0  0  0  0
   -0.2808    0.9501   -1.0593 C   0  0  0  0  0  0  0  0  0  0  0  0
   -0.2460    2.0752   -1.4837 O   0  0  0  0  0  0  0  0  0  0  0  0
   -1.2789   -0.1378   -1.0856 C   0  0  0  0  0  0  0  0  0  0  0  0
   -2.5662    0.2688   -0.7557 O   0  0  0  0  0  0  0  0  0  0  0  0
   -0.5121   -0.7774    0.0799 C   0  0  0  0  0  0  0  0  0  0  0  0
   -1.2066   -0.4039    1.3629 C   0  0  0  0  0  0  0  0  0  0  0  0
    3.0978    0.7634   -0.3804 H   0  0  0  0  0  0  0  0  0  0  0  0
    2.7613   -0.7221    0.5408 H   0  0  0  0  0  0  0  0  0  0  0  0
    3.3103    0.7653    1.4097 H   0  0  0  0  0  0  0  0  0  0  0  0
    1.3129   -0.4841   -1.0142 H   0  0  0  0  0  0  0  0  0  0  0  0
   -1.2318   -0.7950   -1.9764 H   0  0  0  0  0  0  0  0  0  0  0  0
   -3.1195    0.1511   -1.5785 H   0  0  0  0  0  0  0  0  0  0  0  0
   -0.3928   -1.8522   -0.0583 H   0  0  0  0  0  0  0  0  0  0  0  0
   -1.5534    0.6579    1.3269 H   0  0  0  0  0  0  0  0  0  0  0  0
   -0.6413   -0.6265    2.2662 H   0  0  0  0  0  0  0  0  0  0  0  0
   -2.1561   -1.0079    1.3925 H   0  0  0  0  0  0  0  0  0  0  0  0
  1  2  1  0
  2  3  1  0
  3  4  1  0
  4  5  2  0
  4  6  1  0
  6  7  1  0
  6  8  1  0
  8  9  1  0
  8  3  1  0
  1 10  1  0
  1 11  1  0
  1 12  1  0
  3 13  1  0
  6 14  1  0
  7 15  1  0
  8 16  1  0
  9 17  1  0
  9 18  1  0
  9 19  1  0
M  END
