
     RDKit          3D

 23 24  0  0  0  0  0  0  0  0999 V2000
    3.4976    0.5645    0.7095 C   0  0  0  0  0  0  0  0  0  0  0  0
    2.4112   -0.2744    0.7608 O   0  0  0  0  0  0  0  0  0  0  0  0
    1.6339   -0.2697   -0.3776 C   0  0  0  0  0  0  0  0  0  0  0  0
    0.9830   -1.5648   -0.8330 C   0  0  0  0  0  0  0  0  0  0  0  0
    0.1777   -0.5599   -0.1437 C   0  0  0  0  0  0  0  0  0  0  0  0
   -0.7587    0.3745   -0.8741 C   0  0  0  0  0  0  0  0  0  0  0  0
   -2.1682   -0.0439   -0.5398 C   0  0  0  0  0  0  0  0  0  0  0  0
   -2.4961    0.0152    0.9312 C   0  0  0  0  0  0  0  0  0  0  0  0
   -3.1713    0.9137   -0.0465 C   0  0  0  0  0  0  0  0  0  0  0  0
    4.0398    0.4748    1.6711 H   0  0  0  0  0  0  0  0  0  0  0  0
    4.1780    0.1868   -0.0813 H   0  0  0  0  0  0  0  0  0  0  0  0
    3.2478    1.6097    0.4499 H   0  0  0  0  0  0  0  0  0  0  0  0
    1.9283    0.3802   -1.2119 H   0  0  0  0  0  0  0  0  0  0  0  0
    1.3181   -2.4399   -0.2443 H   0  0  0  0  0  0  0  0  0  0  0  0
    0.9086   -1.7776   -1.9128 H   0  0  0  0  0  0  0  0  0  0  0  0
   -0.1602   -0.7921    0.8889 H   0  0  0  0  0  0  0  0  0  0  0  0
   -0.5462    0.3700   -1.9591 H   0  0  0  0  0  0  0  0  0  0  0  0
   -0.5387    1.3988   -0.4998 H   0  0  0  0  0  0  0  0  0  0  0  0
   -2.5390   -0.8821   -1.1394 H   0  0  0  0  0  0  0  0  0  0  0  0
   -2.9731   -0.8946    1.3191 H   0  0  0  0  0  0  0  0  0  0  0  0
   -1.8020    0.4967    1.6279 H   0  0  0  0  0  0  0  0  0  0  0  0
   -2.9271    1.9984   -0.0065 H   0  0  0  0  0  0  0  0  0  0  0  0
   -4.2431    0.7156   -0.2506 H   0  0  0  0  0  0  0  0  0  0  0  0
  1  2  1  0
  2  3  1  0
  3  4  1  0
  4  5  1  0
  5  6  1  0
  6  7  1  0
  7  8  1  0
  8  9  1  0
  5  3  1  0
  9  7  1  0
  1 10  1  0
  1 11  1  0
  1 12  1  0
  3 13  1  0
  4 14  1  0
  4 15  1  0
  5 16  1  0
  6 17  1  0
  6 18  1  0
  7 19  1  0
  8 20  1  0
  8 21  1  0
  9 22  1  0
  9 23  1  0
M  END
