
     RDKit          3D

 17 18  0  0  0  0  0  0  0  0999 V2000
    2.1428   -0.2040    0.1817 C   0  0  0  0  0  0  0  0  0  0  0  0
    0.8553   -0.4495    0.6340 O   0  0  0  0  0  0  0  0  0  0  0  0
   -0.0280    0.2044   -0.2285 C   0  0  0  0  0  0  0  0  0  0  0  0
    0.1565    1.6238   -0.2472 C   0  0  0  0  0  0  0  0  0  0  0  0
   -1.0465    1.2122    0.4267 C   0  0  0  0  0  0  0  0  0  0  0  0
   -1.3041    0.0847    1.1856 O   0  0  0  0  0  0  0  0  0  0  0  0
   -1.3740   -0.5296   -0.0978 C   0  0  0  0  0  0  0  0  0  0  0  0
   -1.2517   -1.9775    0.0082 C   0  0  0  0  0  0  0  0  0  0  0  0
   -1.2903   -2.6596   -0.9947 O   0  0  0  0  0  0  0  0  0  0  0  0
    2.3346    0.8763    0.1912 H   0  0  0  0  0  0  0  0  0  0  0  0
    2.9095   -0.7849    0.7292 H   0  0  0  0  0  0  0  0  0  0  0  0
    2.1499   -0.5238   -0.9026 H   0  0  0  0  0  0  0  0  0  0  0  0
    0.8694    2.2181    0.3884 H   0  0  0  0  0  0  0  0  0  0  0  0
    0.1047    2.1101   -1.2670 H   0  0  0  0  0  0  0  0  0  0  0  0
   -1.9825    1.4097   -0.1832 H   0  0  0  0  0  0  0  0  0  0  0  0
   -2.1194   -0.1327   -0.7774 H   0  0  0  0  0  0  0  0  0  0  0  0
   -1.1264   -2.4778    0.9533 H   0  0  0  0  0  0  0  0  0  0  0  0
  1  2  1  0
  2  3  1  0
  3  4  1  0
  4  5  1  0
  5  6  1  0
  6  7  1  0
  7  8  1  0
  8  9  2  0
  5  3  1  0
  7  3  1  0
  1 10  1  0
  1 11  1  0
  1 12  1  0
  4 13  1  0
  4 14  1  0
  5 15  1  0
  7 16  1  0
  8 17  1  0
M  END
