
     RDKit          3D

 20 20  0  0  0  0  0  0  0  0999 V2000
    1.5438   -1.6606    0.0759 C   0  0  0  0  0  0  0  0  0  0  0  0
    0.6959   -0.9404    0.9110 O   0  0  0  0  0  0  0  0  0  0  0  0
    0.2197    0.2133    0.3452 C   0  0  0  0  0  0  0  0  0  0  0  0
    1.2929    1.2136   -0.0594 C   0  0  0  0  0  0  0  0  0  0  0  0
    0.7060    2.3577   -0.6270 O   0  0  0  0  0  0  0  0  0  0  0  0
   -1.0416    0.7524    0.9960 C   0  0  0  0  0  0  0  0  0  0  0  0
   -1.0442    0.2892   -0.4036 C   0  0  0  0  0  0  0  0  0  0  0  0
   -1.8723   -0.9479   -0.6837 C   0  0  0  0  0  0  0  0  0  0  0  0
    0.9863   -1.9320   -0.8321 H   0  0  0  0  0  0  0  0  0  0  0  0
    1.8413   -2.5836    0.6453 H   0  0  0  0  0  0  0  0  0  0  0  0
    2.4851   -1.1168   -0.1117 H   0  0  0  0  0  0  0  0  0  0  0  0
    1.9619    0.7312   -0.7989 H   0  0  0  0  0  0  0  0  0  0  0  0
    1.9056    1.4786    0.8140 H   0  0  0  0  0  0  0  0  0  0  0  0
    0.3276    2.8910    0.1189 H   0  0  0  0  0  0  0  0  0  0  0  0
   -1.5460    0.1163    1.7763 H   0  0  0  0  0  0  0  0  0  0  0  0
   -0.9642    1.8043    1.2822 H   0  0  0  0  0  0  0  0  0  0  0  0
   -1.1558    1.0692   -1.1681 H   0  0  0  0  0  0  0  0  0  0  0  0
   -2.9264   -0.6025   -0.7913 H   0  0  0  0  0  0  0  0  0  0  0  0
   -1.8140   -1.6903    0.1358 H   0  0  0  0  0  0  0  0  0  0  0  0
   -1.6017   -1.4428   -1.6249 H   0  0  0  0  0  0  0  0  0  0  0  0
  1  2  1  0
  2  3  1  0
  3  4  1  0
  4  5  1  0
  3  6  1  0
  6  7  1  0
  7  8  1  0
  7  3  1  0
  1  9  1  0
  1 10  1  0
  1 11  1  0
  4 12  1  0
  4 13  1  0
  5 14  1  0
  6 15  1  0
  6 16  1  0
  7 17  1  0
  8 18  1  0
  8 19  1  0
  8 20  1  0
M  END
