
     RDKit          3D

 25 25  0  0  0  0  0  0  0  0999 V2000
   -0.3960    1.9913    1.1044 C   0  0  0  0  0  0  0  0  0  0  0  0
   -0.6635    0.6677    1.1282 O   0  0  0  0  0  0  0  0  0  0  0  0
   -0.3996   -0.1088    0.0547 C   0  0  0  0  0  0  0  0  0  0  0  0
    0.9820   -0.2478   -0.4806 C   0  0  0  0  0  0  0  0  0  0  0  0
    1.6745    0.9547   -0.9666 C   0  0  0  0  0  0  0  0  0  0  0  0
    1.8135   -0.8381    0.6658 C   0  0  0  0  0  0  0  0  0  0  0  0
   -0.8852   -1.5386    0.3920 C   0  0  0  0  0  0  0  0  0  0  0  0
   -2.2281   -1.1929   -0.2078 C   0  0  0  0  0  0  0  0  0  0  0  0
   -1.4938   -0.1235   -1.0119 C   0  0  0  0  0  0  0  0  0  0  0  0
    0.6872    2.1512    0.9610 H   0  0  0  0  0  0  0  0  0  0  0  0
   -1.0025    2.5319    0.3427 H   0  0  0  0  0  0  0  0  0  0  0  0
   -0.6799    2.4961    2.0741 H   0  0  0  0  0  0  0  0  0  0  0  0
    0.9508   -1.0488   -1.2849 H   0  0  0  0  0  0  0  0  0  0  0  0
    1.0416    1.7839   -1.3390 H   0  0  0  0  0  0  0  0  0  0  0  0
    2.2561    0.6463   -1.8977 H   0  0  0  0  0  0  0  0  0  0  0  0
    2.4834    1.2713   -0.2764 H   0  0  0  0  0  0  0  0  0  0  0  0
    2.8792   -0.8785    0.4175 H   0  0  0  0  0  0  0  0  0  0  0  0
    1.6652   -0.1644    1.5248 H   0  0  0  0  0  0  0  0  0  0  0  0
    1.3618   -1.8168    0.8888 H   0  0  0  0  0  0  0  0  0  0  0  0
   -0.8832   -1.7651    1.4628 H   0  0  0  0  0  0  0  0  0  0  0  0
   -0.4084   -2.3290   -0.1955 H   0  0  0  0  0  0  0  0  0  0  0  0
   -2.6343   -1.9553   -0.8956 H   0  0  0  0  0  0  0  0  0  0  0  0
   -2.8955   -0.7930    0.5582 H   0  0  0  0  0  0  0  0  0  0  0  0
   -2.1191    0.7909   -1.0391 H   0  0  0  0  0  0  0  0  0  0  0  0
   -1.1064   -0.4845   -1.9799 H   0  0  0  0  0  0  0  0  0  0  0  0
  1  2  1  0
  2  3  1  0
  3  4  1  0
  4  5  1  0
  4  6  1  0
  3  7  1  0
  7  8  1  0
  8  9  1  0
  9  3  1  0
  1 10  1  0
  1 11  1  0
  1 12  1  0
  4 13  1  0
  5 14  1  0
  5 15  1  0
  5 16  1  0
  6 17  1  0
  6 18  1  0
  6 19  1  0
  7 20  1  0
  7 21  1  0
  8 22  1  0
  8 23  1  0
  9 24  1  0
  9 25  1  0
M  END
