
     RDKit          3D

 21 22  0  0  0  0  0  0  0  0999 V2000
    2.2753   -0.8994    0.1493 C   0  0  0  0  0  0  0  0  0  0  0  0
    1.0190   -0.7549    0.6865 O   0  0  0  0  0  0  0  0  0  0  0  0
    0.1263   -0.0238   -0.0475 C   0  0  0  0  0  0  0  0  0  0  0  0
    0.3534    1.4110   -0.4067 C   0  0  0  0  0  0  0  0  0  0  0  0
    1.4703    1.9209    0.2235 O   0  0  0  0  0  0  0  0  0  0  0  0
   -0.9117    1.8108    0.3480 C   0  0  0  0  0  0  0  0  0  0  0  0
   -1.1546    0.3442    0.6088 C   0  0  0  0  0  0  0  0  0  0  0  0
   -1.1348   -0.6119   -0.5674 C   0  0  0  0  0  0  0  0  0  0  0  0
   -1.5398   -2.0137   -0.2181 C   0  0  0  0  0  0  0  0  0  0  0  0
    2.8631   -1.5249    0.8850 H   0  0  0  0  0  0  0  0  0  0  0  0
    2.8411    0.0496    0.0538 H   0  0  0  0  0  0  0  0  0  0  0  0
    2.1735   -1.4270   -0.8188 H   0  0  0  0  0  0  0  0  0  0  0  0
    0.2466    1.6639   -1.4811 H   0  0  0  0  0  0  0  0  0  0  0  0
    1.7050    2.8386   -0.0871 H   0  0  0  0  0  0  0  0  0  0  0  0
   -1.7170    2.2201   -0.2740 H   0  0  0  0  0  0  0  0  0  0  0  0
   -0.7120    2.3434    1.2789 H   0  0  0  0  0  0  0  0  0  0  0  0
   -1.4319   -0.0082    1.6109 H   0  0  0  0  0  0  0  0  0  0  0  0
   -1.4732   -0.2231   -1.5393 H   0  0  0  0  0  0  0  0  0  0  0  0
   -2.6497   -2.0824   -0.1835 H   0  0  0  0  0  0  0  0  0  0  0  0
   -1.2137   -2.7577   -0.9951 H   0  0  0  0  0  0  0  0  0  0  0  0
   -1.1350   -2.2754    0.7740 H   0  0  0  0  0  0  0  0  0  0  0  0
  1  2  1  0
  2  3  1  0
  3  4  1  0
  4  5  1  0
  4  6  1  0
  6  7  1  0
  7  8  1  0
  8  9  1  0
  7  3  1  0
  8  3  1  0
  1 10  1  0
  1 11  1  0
  1 12  1  0
  4 13  1  0
  5 14  1  0
  6 15  1  0
  6 16  1  0
  7 17  1  0
  8 18  1  0
  9 19  1  0
  9 20  1  0
  9 21  1  0
M  END
