
     RDKit          3D

 23 23  0  0  0  0  0  0  0  0999 V2000
    2.4179   -0.7911   -0.1108 C   0  0  0  0  0  0  0  0  0  0  0  0
    1.3227   -0.7006    0.7094 O   0  0  0  0  0  0  0  0  0  0  0  0
    0.2649    0.0020    0.2053 C   0  0  0  0  0  0  0  0  0  0  0  0
    0.5904    1.4410   -0.1228 C   0  0  0  0  0  0  0  0  0  0  0  0
    1.0146    2.1731    0.9533 O   0  0  0  0  0  0  0  0  0  0  0  0
   -0.3565   -0.6239   -1.0164 C   0  0  0  0  0  0  0  0  0  0  0  0
   -1.7473   -1.0687   -0.6205 C   0  0  0  0  0  0  0  0  0  0  0  0
   -2.1215   -0.1144    0.4940 C   0  0  0  0  0  0  0  0  0  0  0  0
   -0.8330   -0.0022    1.2583 C   0  0  0  0  0  0  0  0  0  0  0  0
    2.2234   -1.2796   -1.0754 H   0  0  0  0  0  0  0  0  0  0  0  0
    3.1568   -1.4589    0.4209 H   0  0  0  0  0  0  0  0  0  0  0  0
    2.9678    0.1817   -0.2264 H   0  0  0  0  0  0  0  0  0  0  0  0
    1.3285    1.5116   -0.9474 H   0  0  0  0  0  0  0  0  0  0  0  0
   -0.3567    1.9035   -0.5079 H   0  0  0  0  0  0  0  0  0  0  0  0
    1.5047    2.9773    0.5936 H   0  0  0  0  0  0  0  0  0  0  0  0
    0.2202   -1.4608   -1.4203 H   0  0  0  0  0  0  0  0  0  0  0  0
   -0.4815    0.1082   -1.8526 H   0  0  0  0  0  0  0  0  0  0  0  0
   -2.4786   -0.9025   -1.4367 H   0  0  0  0  0  0  0  0  0  0  0  0
   -1.8045   -2.1162   -0.3232 H   0  0  0  0  0  0  0  0  0  0  0  0
   -2.4701    0.8568    0.0922 H   0  0  0  0  0  0  0  0  0  0  0  0
   -2.8678   -0.5900    1.1646 H   0  0  0  0  0  0  0  0  0  0  0  0
   -0.7273   -0.9383    1.8722 H   0  0  0  0  0  0  0  0  0  0  0  0
   -0.7671    0.8919    1.8965 H   0  0  0  0  0  0  0  0  0  0  0  0
  1  2  1  0
  2  3  1  0
  3  4  1  0
  4  5  1  0
  3  6  1  0
  6  7  1  0
  7  8  1  0
  8  9  1  0
  9  3  1  0
  1 10  1  0
  1 11  1  0
  1 12  1  0
  4 13  1  0
  4 14  1  0
  5 15  1  0
  6 16  1  0
  6 17  1  0
  7 18  1  0
  7 19  1  0
  8 20  1  0
  8 21  1  0
  9 22  1  0
  9 23  1  0
M  END
