
     RDKit          3D

 17 17  0  0  0  0  0  0  0  0999 V2000
    2.2556    0.1823    0.1345 C   0  0  0  0  0  0  0  0  0  0  0  0
    1.1280   -0.2237    0.7977 O   0  0  0  0  0  0  0  0  0  0  0  0
   -0.0569    0.0979    0.2204 C   0  0  0  0  0  0  0  0  0  0  0  0
   -0.3564    1.5308    0.0096 C   0  0  0  0  0  0  0  0  0  0  0  0
    0.3575    2.4487    0.3041 O   0  0  0  0  0  0  0  0  0  0  0  0
   -0.5118   -0.7156   -0.9555 C   0  0  0  0  0  0  0  0  0  0  0  0
   -1.8455   -0.9161   -0.2984 C   0  0  0  0  0  0  0  0  0  0  0  0
   -2.9706   -1.2351   -0.6315 O   0  0  0  0  0  0  0  0  0  0  0  0
   -1.2110   -0.5518    0.9815 C   0  0  0  0  0  0  0  0  0  0  0  0
    3.1363   -0.1649    0.7478 H   0  0  0  0  0  0  0  0  0  0  0  0
    2.3784   -0.3768   -0.8395 H   0  0  0  0  0  0  0  0  0  0  0  0
    2.3261    1.2482   -0.0786 H   0  0  0  0  0  0  0  0  0  0  0  0
   -1.3134    1.7693   -0.4556 H   0  0  0  0  0  0  0  0  0  0  0  0
    0.0435   -1.6238   -1.1878 H   0  0  0  0  0  0  0  0  0  0  0  0
   -0.6931   -0.1296   -1.9004 H   0  0  0  0  0  0  0  0  0  0  0  0
   -1.7748    0.1382    1.6364 H   0  0  0  0  0  0  0  0  0  0  0  0
   -0.8918   -1.4780    1.5152 H   0  0  0  0  0  0  0  0  0  0  0  0
  1  2  1  0
  2  3  1  0
  3  4  1  0
  4  5  2  0
  3  6  1  0
  6  7  1  0
  7  8  2  0
  7  9  1  0
  9  3  1  0
  1 10  1  0
  1 11  1  0
  1 12  1  0
  4 13  1  0
  6 14  1  0
  6 15  1  0
  9 16  1  0
  9 17  1  0
M  END
