
     RDKit          3D

 21 22  0  0  0  0  0  0  0  0999 V2000
    2.3928    0.0429   -0.5031 C   0  0  0  0  0  0  0  0  0  0  0  0
    1.4489    0.7029    0.2107 O   0  0  0  0  0  0  0  0  0  0  0  0
    0.2076    0.1835    0.2800 C   0  0  0  0  0  0  0  0  0  0  0  0
   -0.6940    1.0838    1.1310 C   0  0  0  0  0  0  0  0  0  0  0  0
   -1.7714    1.4889    0.1659 C   0  0  0  0  0  0  0  0  0  0  0  0
   -1.8080    0.5485   -0.8360 O   0  0  0  0  0  0  0  0  0  0  0  0
   -0.5847   -0.0432   -0.9518 C   0  0  0  0  0  0  0  0  0  0  0  0
   -0.5519   -1.5314   -0.6778 C   0  0  0  0  0  0  0  0  0  0  0  0
    0.0412   -1.2401    0.6888 C   0  0  0  0  0  0  0  0  0  0  0  0
    2.5890   -0.9979   -0.1231 H   0  0  0  0  0  0  0  0  0  0  0  0
    3.3566    0.5858   -0.4080 H   0  0  0  0  0  0  0  0  0  0  0  0
    2.1948   -0.0634   -1.5829 H   0  0  0  0  0  0  0  0  0  0  0  0
   -0.1403    1.9355    1.5550 H   0  0  0  0  0  0  0  0  0  0  0  0
   -1.1475    0.5125    1.9747 H   0  0  0  0  0  0  0  0  0  0  0  0
   -1.5921    2.5158   -0.1767 H   0  0  0  0  0  0  0  0  0  0  0  0
   -2.7550    1.4836    0.7118 H   0  0  0  0  0  0  0  0  0  0  0  0
   -0.1156    0.1847   -1.9230 H   0  0  0  0  0  0  0  0  0  0  0  0
    0.2096   -2.0981   -1.2751 H   0  0  0  0  0  0  0  0  0  0  0  0
   -1.5310   -2.0373   -0.6618 H   0  0  0  0  0  0  0  0  0  0  0  0
   -0.7147   -1.4522    1.4731 H   0  0  0  0  0  0  0  0  0  0  0  0
    0.9656   -1.8045    0.9285 H   0  0  0  0  0  0  0  0  0  0  0  0
  1  2  1  0
  2  3  1  0
  3  4  1  0
  4  5  1  0
  5  6  1  0
  6  7  1  0
  7  8  1  0
  8  9  1  0
  7  3  1  0
  9  3  1  0
  1 10  1  0
  1 11  1  0
  1 12  1  0
  4 13  1  0
  4 14  1  0
  5 15  1  0
  5 16  1  0
  7 17  1  0
  8 18  1  0
  8 19  1  0
  9 20  1  0
  9 21  1  0
M  END
