
     RDKit          3D

 21 21  0  0  0  0  0  0  0  0999 V2000
   -2.8668   -0.5512    0.9336 C   0  0  0  0  0  0  0  0  0  0  0  0
   -1.9112    0.4664    0.8334 O   0  0  0  0  0  0  0  0  0  0  0  0
   -0.8225   -0.0305    0.1785 C   0  0  0  0  0  0  0  0  0  0  0  0
    0.3419   -0.0223    0.9786 O   0  0  0  0  0  0  0  0  0  0  0  0
    1.2665   -0.5065    0.0296 C   0  0  0  0  0  0  0  0  0  0  0  0
    2.6695   -0.4971    0.5832 C   0  0  0  0  0  0  0  0  0  0  0  0
    1.0866    0.5396   -1.0595 C   0  0  0  0  0  0  0  0  0  0  0  0
   -0.4167    0.7205   -1.0481 C   0  0  0  0  0  0  0  0  0  0  0  0
   -0.8098    2.0359   -1.0367 O   0  0  0  0  0  0  0  0  0  0  0  0
   -2.4569   -1.4285    1.5032 H   0  0  0  0  0  0  0  0  0  0  0  0
   -3.1867   -0.8059   -0.0765 H   0  0  0  0  0  0  0  0  0  0  0  0
   -3.6915   -0.1571    1.5817 H   0  0  0  0  0  0  0  0  0  0  0  0
   -0.9515   -1.1065   -0.1145 H   0  0  0  0  0  0  0  0  0  0  0  0
    0.9646   -1.4829   -0.3511 H   0  0  0  0  0  0  0  0  0  0  0  0
    2.9149    0.4986    0.9636 H   0  0  0  0  0  0  0  0  0  0  0  0
    3.3471   -0.7609   -0.2519 H   0  0  0  0  0  0  0  0  0  0  0  0
    2.7187   -1.2939    1.3497 H   0  0  0  0  0  0  0  0  0  0  0  0
    1.6308    1.4362   -0.7433 H   0  0  0  0  0  0  0  0  0  0  0  0
    1.4738    0.1417   -2.0008 H   0  0  0  0  0  0  0  0  0  0  0  0
   -0.8332    0.2596   -1.9825 H   0  0  0  0  0  0  0  0  0  0  0  0
   -0.4676    2.5447   -0.2701 H   0  0  0  0  0  0  0  0  0  0  0  0
  1  2  1  0
  2  3  1  0
  3  4  1  0
  4  5  1  0
  5  6  1  0
  5  7  1  0
  7  8  1  0
  8  9  1  0
  8  3  1  0
  1 10  1  0
  1 11  1  0
  1 12  1  0
  3 13  1  0
  5 14  1  0
  6 15  1  0
  6 16  1  0
  6 17  1  0
  7 18  1  0
  7 19  1  0
  8 20  1  0
  9 21  1  0
M  END
