
     RDKit          3D

 25 25  0  0  0  0  0  0  0  0999 V2000
   -3.0014   -0.4439   -0.4627 C   0  0  0  0  0  0  0  0  0  0  0  0
   -1.6834   -0.4250   -0.9767 O   0  0  0  0  0  0  0  0  0  0  0  0
   -0.8453   -0.2250    0.0809 C   0  0  0  0  0  0  0  0  0  0  0  0
    0.2062    0.8661   -0.1028 C   0  0  0  0  0  0  0  0  0  0  0  0
   -0.2481    2.1468    0.5137 C   0  0  0  0  0  0  0  0  0  0  0  0
    1.0547   -0.0024    0.8347 C   0  0  0  0  0  0  0  0  0  0  0  0
    2.5245    0.0802    0.6128 C   0  0  0  0  0  0  0  0  0  0  0  0
    0.3584   -1.1781    0.1442 C   0  0  0  0  0  0  0  0  0  0  0  0
    0.8396   -1.4497   -1.2474 C   0  0  0  0  0  0  0  0  0  0  0  0
   -3.2486    0.5144    0.0395 H   0  0  0  0  0  0  0  0  0  0  0  0
   -3.0094   -1.2877    0.2722 H   0  0  0  0  0  0  0  0  0  0  0  0
   -3.7346   -0.5956   -1.2748 H   0  0  0  0  0  0  0  0  0  0  0  0
   -1.3126   -0.1202    1.0842 H   0  0  0  0  0  0  0  0  0  0  0  0
    0.6439    0.9123   -1.1095 H   0  0  0  0  0  0  0  0  0  0  0  0
   -0.7547    1.9126    1.4646 H   0  0  0  0  0  0  0  0  0  0  0  0
    0.5776    2.8794    0.6401 H   0  0  0  0  0  0  0  0  0  0  0  0
   -0.9808    2.6179   -0.1615 H   0  0  0  0  0  0  0  0  0  0  0  0
    0.7380    0.0541    1.8770 H   0  0  0  0  0  0  0  0  0  0  0  0
    3.0230   -0.9095    0.8027 H   0  0  0  0  0  0  0  0  0  0  0  0
    2.8185    0.5079   -0.3651 H   0  0  0  0  0  0  0  0  0  0  0  0
    2.9483    0.7628    1.3836 H   0  0  0  0  0  0  0  0  0  0  0  0
    0.1331   -2.0287    0.7812 H   0  0  0  0  0  0  0  0  0  0  0  0
    0.9863   -2.5472   -1.4258 H   0  0  0  0  0  0  0  0  0  0  0  0
    0.1314   -1.0667   -2.0362 H   0  0  0  0  0  0  0  0  0  0  0  0
    1.8355   -0.9750   -1.3691 H   0  0  0  0  0  0  0  0  0  0  0  0
  1  2  1  0
  2  3  1  0
  3  4  1  0
  4  5  1  0
  4  6  1  0
  6  7  1  0
  6  8  1  0
  8  9  1  0
  8  3  1  0
  1 10  1  0
  1 11  1  0
  1 12  1  0
  3 13  1  0
  4 14  1  0
  5 15  1  0
  5 16  1  0
  5 17  1  0
  6 18  1  0
  7 19  1  0
  7 20  1  0
  7 21  1  0
  8 22  1  0
  9 23  1  0
  9 24  1  0
  9 25  1  0
M  END
