
     RDKit          3D

 17 17  0  0  0  0  0  0  0  0999 V2000
    2.2401    0.6885   -0.3507 C   0  0  0  0  0  0  0  0  0  0  0  0
    0.8719    0.5153   -0.5762 O   0  0  0  0  0  0  0  0  0  0  0  0
    0.3165    0.1273    0.6460 C   0  0  0  0  0  0  0  0  0  0  0  0
   -0.4908   -1.1623    0.4939 C   0  0  0  0  0  0  0  0  0  0  0  0
   -1.2818   -1.0214   -0.7770 C   0  0  0  0  0  0  0  0  0  0  0  0
   -2.1928    0.0466   -0.5808 O   0  0  0  0  0  0  0  0  0  0  0  0
   -1.7939    1.1441    0.1720 C   0  0  0  0  0  0  0  0  0  0  0  0
   -2.4588    2.2348    0.1815 O   0  0  0  0  0  0  0  0  0  0  0  0
   -0.6493    1.1398    0.9667 O   0  0  0  0  0  0  0  0  0  0  0  0
    2.6503   -0.2732   -0.0041 H   0  0  0  0  0  0  0  0  0  0  0  0
    2.4431    1.4459    0.4299 H   0  0  0  0  0  0  0  0  0  0  0  0
    2.7880    0.9637   -1.2674 H   0  0  0  0  0  0  0  0  0  0  0  0
    1.0567    0.0549    1.4548 H   0  0  0  0  0  0  0  0  0  0  0  0
   -1.1962   -1.1653    1.3630 H   0  0  0  0  0  0  0  0  0  0  0  0
    0.1594   -2.0502    0.5201 H   0  0  0  0  0  0  0  0  0  0  0  0
   -0.6223   -0.7526   -1.6221 H   0  0  0  0  0  0  0  0  0  0  0  0
   -1.8402   -1.9360   -1.0496 H   0  0  0  0  0  0  0  0  0  0  0  0
  1  2  1  0
  2  3  1  0
  3  4  1  0
  4  5  1  0
  5  6  1  0
  6  7  1  0
  7  8  2  0
  7  9  1  0
  9  3  1  0
  1 10  1  0
  1 11  1  0
  1 12  1  0
  3 13  1  0
  4 14  1  0
  4 15  1  0
  5 16  1  0
  5 17  1  0
M  END
