
     RDKit          3D

 17 17  0  0  0  0  0  0  0  0999 V2000
    2.3665    0.0268   -0.0976 C   0  0  0  0  0  0  0  0  0  0  0  0
    1.1931   -0.5066   -0.6463 O   0  0  0  0  0  0  0  0  0  0  0  0
    0.1194    0.0325   -0.0053 C   0  0  0  0  0  0  0  0  0  0  0  0
   -0.9833    0.5906   -0.9086 C   0  0  0  0  0  0  0  0  0  0  0  0
   -0.9183    1.9384   -1.1424 O   0  0  0  0  0  0  0  0  0  0  0  0
   -1.9270    0.1305    0.1312 C   0  0  0  0  0  0  0  0  0  0  0  0
   -2.9866    0.4916    0.5598 O   0  0  0  0  0  0  0  0  0  0  0  0
   -0.9768   -0.9663    0.3976 C   0  0  0  0  0  0  0  0  0  0  0  0
   -0.8108   -1.3441    1.7062 O   0  0  0  0  0  0  0  0  0  0  0  0
    2.3928    1.1201   -0.2130 H   0  0  0  0  0  0  0  0  0  0  0  0
    3.2297   -0.4897   -0.5568 H   0  0  0  0  0  0  0  0  0  0  0  0
    2.3988   -0.1659    1.0142 H   0  0  0  0  0  0  0  0  0  0  0  0
    0.3419    0.7582    0.7938 H   0  0  0  0  0  0  0  0  0  0  0  0
   -1.0682    0.0388   -1.8820 H   0  0  0  0  0  0  0  0  0  0  0  0
   -0.2162    2.3860   -0.6212 H   0  0  0  0  0  0  0  0  0  0  0  0
   -0.9837   -1.7774   -0.3539 H   0  0  0  0  0  0  0  0  0  0  0  0
   -1.1711   -2.2633    1.8244 H   0  0  0  0  0  0  0  0  0  0  0  0
  1  2  1  0
  2  3  1  0
  3  4  1  0
  4  5  1  0
  4  6  1  0
  6  7  2  0
  6  8  1  0
  8  9  1  0
  8  3  1  0
  1 10  1  0
  1 11  1  0
  1 12  1  0
  3 13  1  0
  4 14  1  0
  5 15  1  0
  8 16  1  0
  9 17  1  0
M  END
