
     RDKit          3D

 19 20  0  0  0  0  0  0  0  0999 V2000
    2.4914    1.1047   -0.4587 C   0  0  0  0  0  0  0  0  0  0  0  0
    1.1542    0.7149   -0.5533 O   0  0  0  0  0  0  0  0  0  0  0  0
    0.9634   -0.3781    0.2697 C   0  0  0  0  0  0  0  0  0  0  0  0
    0.1964   -1.5276   -0.3144 C   0  0  0  0  0  0  0  0  0  0  0  0
   -1.0632   -0.9292   -0.8483 C   0  0  0  0  0  0  0  0  0  0  0  0
   -1.4087   -0.1173    0.1795 C   0  0  0  0  0  0  0  0  0  0  0  0
   -2.5709    0.7726    0.3439 C   0  0  0  0  0  0  0  0  0  0  0  0
   -0.2568   -0.3828    1.1190 C   0  0  0  0  0  0  0  0  0  0  0  0
   -0.2064   -1.7943    1.0169 O   0  0  0  0  0  0  0  0  0  0  0  0
    2.7152    1.9829   -1.0983 H   0  0  0  0  0  0  0  0  0  0  0  0
    2.8073    1.2974    0.5849 H   0  0  0  0  0  0  0  0  0  0  0  0
    3.1188    0.2716   -0.8565 H   0  0  0  0  0  0  0  0  0  0  0  0
    1.8428   -0.7247    0.8182 H   0  0  0  0  0  0  0  0  0  0  0  0
    0.6841   -2.2927   -0.8527 H   0  0  0  0  0  0  0  0  0  0  0  0
   -1.5602   -1.0966   -1.7901 H   0  0  0  0  0  0  0  0  0  0  0  0
   -2.2900    1.8575    0.2164 H   0  0  0  0  0  0  0  0  0  0  0  0
   -3.2818    0.5562   -0.4662 H   0  0  0  0  0  0  0  0  0  0  0  0
   -3.0551    0.6360    1.3416 H   0  0  0  0  0  0  0  0  0  0  0  0
   -0.2804    0.0498    2.0790 H   0  0  0  0  0  0  0  0  0  0  0  0
  1  2  1  0
  2  3  1  0
  3  4  1  0
  4  5  1  0
  5  6  2  0
  6  7  1  0
  6  8  1  0
  8  9  1  0
  8  3  1  0
  9  4  1  0
  1 10  1  0
  1 11  1  0
  1 12  1  0
  3 13  1  0
  4 14  1  0
  5 15  1  0
  7 16  1  0
  7 17  1  0
  7 18  1  0
  8 19  1  0
M  END
