
     RDKit          3D

 21 21  0  0  0  0  0  0  0  0999 V2000
    2.6530   -0.1796    1.0085 C   0  0  0  0  0  0  0  0  0  0  0  0
    1.3007    0.1344    0.9780 O   0  0  0  0  0  0  0  0  0  0  0  0
    0.7429   -0.0439   -0.2838 C   0  0  0  0  0  0  0  0  0  0  0  0
    0.2176    1.2819   -0.7436 C   0  0  0  0  0  0  0  0  0  0  0  0
   -1.0384    1.6052   -0.0229 C   0  0  0  0  0  0  0  0  0  0  0  0
   -1.9745    0.6705    0.0309 C   0  0  0  0  0  0  0  0  0  0  0  0
   -1.6806   -0.6218   -0.6381 C   0  0  0  0  0  0  0  0  0  0  0  0
   -2.6239   -1.5609   -0.1785 O   0  0  0  0  0  0  0  0  0  0  0  0
   -0.3331   -1.0900   -0.1620 C   0  0  0  0  0  0  0  0  0  0  0  0
    2.8501   -1.2341    0.7265 H   0  0  0  0  0  0  0  0  0  0  0  0
    3.1985    0.5069    0.3576 H   0  0  0  0  0  0  0  0  0  0  0  0
    2.9956   -0.0148    2.0535 H   0  0  0  0  0  0  0  0  0  0  0  0
    1.4923   -0.4048   -1.0255 H   0  0  0  0  0  0  0  0  0  0  0  0
    0.9559    2.0775   -0.4917 H   0  0  0  0  0  0  0  0  0  0  0  0
   -0.0125    1.3152   -1.8239 H   0  0  0  0  0  0  0  0  0  0  0  0
   -1.2076    2.5572    0.4478 H   0  0  0  0  0  0  0  0  0  0  0  0
   -2.8885    0.9013    0.5536 H   0  0  0  0  0  0  0  0  0  0  0  0
   -1.7364   -0.5685   -1.7338 H   0  0  0  0  0  0  0  0  0  0  0  0
   -2.3996   -1.8797    0.7332 H   0  0  0  0  0  0  0  0  0  0  0  0
   -0.0324   -2.0319   -0.6932 H   0  0  0  0  0  0  0  0  0  0  0  0
   -0.4792   -1.4201    0.9077 H   0  0  0  0  0  0  0  0  0  0  0  0
  1  2  1  0
  2  3  1  0
  3  4  1  0
  4  5  1  0
  5  6  2  0
  6  7  1  0
  7  8  1  0
  7  9  1  0
  9  3  1  0
  1 10  1  0
  1 11  1  0
  1 12  1  0
  3 13  1  0
  4 14  1  0
  4 15  1  0
  5 16  1  0
  6 17  1  0
  7 18  1  0
  8 19  1  0
  9 20  1  0
  9 21  1  0
M  END
