
     RDKit          3D

 23 23  0  0  0  0  0  0  0  0999 V2000
   -2.0145    1.6814   -0.3792 C   0  0  0  0  0  0  0  0  0  0  0  0
   -1.2449    0.8329   -1.1769 O   0  0  0  0  0  0  0  0  0  0  0  0
   -0.7221   -0.1371   -0.3513 C   0  0  0  0  0  0  0  0  0  0  0  0
   -1.8228   -0.9303    0.3302 C   0  0  0  0  0  0  0  0  0  0  0  0
    0.3328   -1.0273   -0.9534 C   0  0  0  0  0  0  0  0  0  0  0  0
    1.1470   -0.8670    0.2808 C   0  0  0  0  0  0  0  0  0  0  0  0
    2.5921   -0.4675    0.0924 C   0  0  0  0  0  0  0  0  0  0  0  0
    2.6883    0.7602   -0.5628 O   0  0  0  0  0  0  0  0  0  0  0  0
    0.3288    0.3864    0.6008 C   0  0  0  0  0  0  0  0  0  0  0  0
   -1.4079    2.1630    0.4216 H   0  0  0  0  0  0  0  0  0  0  0  0
   -2.4416    2.5087   -1.0018 H   0  0  0  0  0  0  0  0  0  0  0  0
   -2.8493    1.1702    0.1164 H   0  0  0  0  0  0  0  0  0  0  0  0
   -2.1667   -0.3984    1.2292 H   0  0  0  0  0  0  0  0  0  0  0  0
   -2.6327   -1.0230   -0.4506 H   0  0  0  0  0  0  0  0  0  0  0  0
   -1.4383   -1.9283    0.6339 H   0  0  0  0  0  0  0  0  0  0  0  0
    0.7740   -0.6723   -1.9022 H   0  0  0  0  0  0  0  0  0  0  0  0
   -0.0768   -2.0516   -1.1105 H   0  0  0  0  0  0  0  0  0  0  0  0
    0.9821   -1.6641    1.0177 H   0  0  0  0  0  0  0  0  0  0  0  0
    3.0274   -0.3579    1.1089 H   0  0  0  0  0  0  0  0  0  0  0  0
    3.1807   -1.2350   -0.4301 H   0  0  0  0  0  0  0  0  0  0  0  0
    2.9569    1.4992    0.0485 H   0  0  0  0  0  0  0  0  0  0  0  0
    0.0374    0.4393    1.6527 H   0  0  0  0  0  0  0  0  0  0  0  0
    0.7701    1.3186    0.1619 H   0  0  0  0  0  0  0  0  0  0  0  0
  1  2  1  0
  2  3  1  0
  3  4  1  0
  3  5  1  0
  5  6  1  0
  6  7  1  0
  7  8  1  0
  6  9  1  0
  9  3  1  0
  1 10  1  0
  1 11  1  0
  1 12  1  0
  4 13  1  0
  4 14  1  0
  4 15  1  0
  5 16  1  0
  5 17  1  0
  6 18  1  0
  7 19  1  0
  7 20  1  0
  8 21  1  0
  9 22  1  0
  9 23  1  0
M  END
