
     RDKit          3D

 21 22  0  0  0  0  0  0  0  0999 V2000
    2.8079   -0.5349    0.6587 C   0  0  0  0  0  0  0  0  0  0  0  0
    1.4240   -0.6875    0.6580 O   0  0  0  0  0  0  0  0  0  0  0  0
    0.7989    0.1077   -0.2723 C   0  0  0  0  0  0  0  0  0  0  0  0
   -0.3125   -0.4944   -1.0476 C   0  0  0  0  0  0  0  0  0  0  0  0
   -0.9129   -1.7174   -0.4746 C   0  0  0  0  0  0  0  0  0  0  0  0
   -1.6009   -1.4048    0.6016 C   0  0  0  0  0  0  0  0  0  0  0  0
   -1.5380    0.0613    0.8689 C   0  0  0  0  0  0  0  0  0  0  0  0
   -0.5726    0.6221   -0.1024 C   0  0  0  0  0  0  0  0  0  0  0  0
   -0.8842    2.0105   -0.6277 C   0  0  0  0  0  0  0  0  0  0  0  0
    3.2218   -1.2071    1.4315 H   0  0  0  0  0  0  0  0  0  0  0  0
    3.2589   -0.8314   -0.3317 H   0  0  0  0  0  0  0  0  0  0  0  0
    3.1000    0.4856    0.9125 H   0  0  0  0  0  0  0  0  0  0  0  0
    1.4888    0.7392   -0.8696 H   0  0  0  0  0  0  0  0  0  0  0  0
   -0.4430   -0.2721   -2.1269 H   0  0  0  0  0  0  0  0  0  0  0  0
   -0.8059   -2.6985   -0.8702 H   0  0  0  0  0  0  0  0  0  0  0  0
   -2.1667   -2.0850    1.2573 H   0  0  0  0  0  0  0  0  0  0  0  0
   -2.5615    0.4577    0.6104 H   0  0  0  0  0  0  0  0  0  0  0  0
   -1.3241    0.2919    1.9296 H   0  0  0  0  0  0  0  0  0  0  0  0
   -1.3961    2.6061    0.1723 H   0  0  0  0  0  0  0  0  0  0  0  0
   -1.6107    1.9758   -1.4743 H   0  0  0  0  0  0  0  0  0  0  0  0
    0.0287    2.5753   -0.9036 H   0  0  0  0  0  0  0  0  0  0  0  0
  1  2  1  0
  2  3  1  0
  3  4  1  0
  4  5  1  0
  5  6  2  0
  6  7  1  0
  7  8  1  0
  8  9  1  0
  8  3  1  0
  8  4  1  0
  1 10  1  0
  1 11  1  0
  1 12  1  0
  3 13  1  0
  4 14  1  0
  5 15  1  0
  6 16  1  0
  7 17  1  0
  7 18  1  0
  9 19  1  0
  9 20  1  0
  9 21  1  0
M  END
