
     RDKit          3D

 21 22  0  0  0  0  0  0  0  0999 V2000
   -2.9739    0.9442   -1.4566 C   0  0  0  0  0  0  0  0  0  0  0  0
   -2.2765    0.6584   -0.2848 O   0  0  0  0  0  0  0  0  0  0  0  0
   -1.2288   -0.2102   -0.4801 C   0  0  0  0  0  0  0  0  0  0  0  0
   -0.9505   -1.3066    0.5313 C   0  0  0  0  0  0  0  0  0  0  0  0
   -0.0240   -0.1739    0.4062 C   0  0  0  0  0  0  0  0  0  0  0  0
    1.2906   -0.3668   -0.3229 C   0  0  0  0  0  0  0  0  0  0  0  0
    2.4697   -0.3237    0.6005 C   0  0  0  0  0  0  0  0  0  0  0  0
    2.7455    0.8302    1.3802 C   0  0  0  0  0  0  0  0  0  0  0  0
    2.0950   -0.3645    1.9761 O   0  0  0  0  0  0  0  0  0  0  0  0
   -2.3174    1.4134   -2.2284 H   0  0  0  0  0  0  0  0  0  0  0  0
   -3.7215    1.7265   -1.1943 H   0  0  0  0  0  0  0  0  0  0  0  0
   -3.4622    0.0305   -1.8104 H   0  0  0  0  0  0  0  0  0  0  0  0
   -1.1074   -0.5419   -1.5318 H   0  0  0  0  0  0  0  0  0  0  0  0
   -1.6576   -1.4168    1.3661 H   0  0  0  0  0  0  0  0  0  0  0  0
   -0.5890   -2.2993    0.1514 H   0  0  0  0  0  0  0  0  0  0  0  0
    0.0497    0.6103    1.2009 H   0  0  0  0  0  0  0  0  0  0  0  0
    1.3697    0.4468   -1.0710 H   0  0  0  0  0  0  0  0  0  0  0  0
    1.2415   -1.3387   -0.8575 H   0  0  0  0  0  0  0  0  0  0  0  0
    3.2900   -1.0216    0.3307 H   0  0  0  0  0  0  0  0  0  0  0  0
    3.6866    1.0047    1.9212 H   0  0  0  0  0  0  0  0  0  0  0  0
    2.0706    1.6988    1.3732 H   0  0  0  0  0  0  0  0  0  0  0  0
  1  2  1  0
  2  3  1  0
  3  4  1  0
  4  5  1  0
  5  6  1  0
  6  7  1  0
  7  8  1  0
  8  9  1  0
  5  3  1  0
  9  7  1  0
  1 10  1  0
  1 11  1  0
  1 12  1  0
  3 13  1  0
  4 14  1  0
  4 15  1  0
  5 16  1  0
  6 17  1  0
  6 18  1  0
  7 19  1  0
  8 20  1  0
  8 21  1  0
M  END
