
     RDKit          3D

 21 22  0  0  0  0  0  0  0  0999 V2000
    3.0129   -0.5063    0.3317 C   0  0  0  0  0  0  0  0  0  0  0  0
    1.7727   -0.5062    0.9325 O   0  0  0  0  0  0  0  0  0  0  0  0
    0.8364   -0.0031    0.0322 C   0  0  0  0  0  0  0  0  0  0  0  0
   -0.2501    0.9288    0.5946 C   0  0  0  0  0  0  0  0  0  0  0  0
   -0.6549    2.1168   -0.2498 C   0  0  0  0  0  0  0  0  0  0  0  0
   -0.5365   -0.4381    0.2267 C   0  0  0  0  0  0  0  0  0  0  0  0
   -1.4577   -0.9038   -0.8213 C   0  0  0  0  0  0  0  0  0  0  0  0
   -2.1726   -1.4427    0.4270 C   0  0  0  0  0  0  0  0  0  0  0  0
   -0.9280   -1.4294    1.0993 O   0  0  0  0  0  0  0  0  0  0  0  0
    3.7408   -0.9136    1.0752 H   0  0  0  0  0  0  0  0  0  0  0  0
    3.0048   -1.2003   -0.5350 H   0  0  0  0  0  0  0  0  0  0  0  0
    3.2460    0.5326    0.0365 H   0  0  0  0  0  0  0  0  0  0  0  0
    1.2070    0.3051   -0.9768 H   0  0  0  0  0  0  0  0  0  0  0  0
   -0.0803    1.2032    1.6615 H   0  0  0  0  0  0  0  0  0  0  0  0
   -1.6684    2.4414    0.0350 H   0  0  0  0  0  0  0  0  0  0  0  0
   -0.5549    1.9031   -1.3398 H   0  0  0  0  0  0  0  0  0  0  0  0
    0.0328    2.9621   -0.0372 H   0  0  0  0  0  0  0  0  0  0  0  0
   -1.0874   -1.7740   -1.4057 H   0  0  0  0  0  0  0  0  0  0  0  0
   -2.0447   -0.1712   -1.3892 H   0  0  0  0  0  0  0  0  0  0  0  0
   -2.6114   -2.4429    0.3006 H   0  0  0  0  0  0  0  0  0  0  0  0
   -2.8065   -0.6617    0.8680 H   0  0  0  0  0  0  0  0  0  0  0  0
  1  2  1  0
  2  3  1  0
  3  4  1  0
  4  5  1  0
  4  6  1  0
  6  7  1  0
  7  8  1  0
  8  9  1  0
  6  3  1  0
  9  6  1  0
  1 10  1  0
  1 11  1  0
  1 12  1  0
  3 13  1  0
  4 14  1  0
  5 15  1  0
  5 16  1  0
  5 17  1  0
  7 18  1  0
  7 19  1  0
  8 20  1  0
  8 21  1  0
M  END
