
     RDKit          3D

 21 21  0  0  0  0  0  0  0  0999 V2000
    2.0305   -0.8973    0.9674 C   0  0  0  0  0  0  0  0  0  0  0  0
    0.8533   -1.0602    0.3091 O   0  0  0  0  0  0  0  0  0  0  0  0
    0.3359    0.0507   -0.3420 C   0  0  0  0  0  0  0  0  0  0  0  0
   -0.9704   -0.2476   -1.0217 C   0  0  0  0  0  0  0  0  0  0  0  0
   -2.0202   -0.7416   -0.0888 C   0  0  0  0  0  0  0  0  0  0  0  0
   -2.4095    0.1583    1.0005 C   0  0  0  0  0  0  0  0  0  0  0  0
   -1.9879    1.2594    1.2269 O   0  0  0  0  0  0  0  0  0  0  0  0
    1.3398    0.8516   -1.1855 C   0  0  0  0  0  0  0  0  0  0  0  0
    0.7758    1.3864    0.0729 C   0  0  0  0  0  0  0  0  0  0  0  0
    2.0465   -0.1496    1.7838 H   0  0  0  0  0  0  0  0  0  0  0  0
    2.2346   -1.8854    1.4896 H   0  0  0  0  0  0  0  0  0  0  0  0
    2.8842   -0.7586    0.2623 H   0  0  0  0  0  0  0  0  0  0  0  0
   -0.7570   -1.0765   -1.7557 H   0  0  0  0  0  0  0  0  0  0  0  0
   -1.3561    0.6087   -1.6093 H   0  0  0  0  0  0  0  0  0  0  0  0
   -1.6388   -1.6864    0.4157 H   0  0  0  0  0  0  0  0  0  0  0  0
   -2.9420   -1.0602   -0.6528 H   0  0  0  0  0  0  0  0  0  0  0  0
   -3.1729   -0.2102    1.6917 H   0  0  0  0  0  0  0  0  0  0  0  0
    0.9501    1.2469   -2.1536 H   0  0  0  0  0  0  0  0  0  0  0  0
    2.3160    0.3904   -1.2902 H   0  0  0  0  0  0  0  0  0  0  0  0
    1.3992    1.5596    0.9645 H   0  0  0  0  0  0  0  0  0  0  0  0
    0.0888    2.2614   -0.0849 H   0  0  0  0  0  0  0  0  0  0  0  0
  1  2  1  0
  2  3  1  0
  3  4  1  0
  4  5  1  0
  5  6  1  0
  6  7  2  0
  3  8  1  0
  8  9  1  0
  9  3  1  0
  1 10  1  0
  1 11  1  0
  1 12  1  0
  4 13  1  0
  4 14  1  0
  5 15  1  0
  5 16  1  0
  6 17  1  0
  8 18  1  0
  8 19  1  0
  9 20  1  0
  9 21  1  0
M  END
