
     RDKit          3D

 21 21  0  0  0  0  0  0  0  0999 V2000
   -1.8557    1.5104    0.4805 C   0  0  0  0  0  0  0  0  0  0  0  0
   -0.8657    0.5750    0.7238 O   0  0  0  0  0  0  0  0  0  0  0  0
   -0.5285   -0.1666   -0.3925 C   0  0  0  0  0  0  0  0  0  0  0  0
   -0.5096   -1.6531   -0.0061 C   0  0  0  0  0  0  0  0  0  0  0  0
   -1.4839   -1.9961    0.8888 O   0  0  0  0  0  0  0  0  0  0  0  0
    0.8595   -1.3309    0.6119 C   0  0  0  0  0  0  0  0  0  0  0  0
    0.9782   -0.3225   -0.5355 C   0  0  0  0  0  0  0  0  0  0  0  0
    1.7652    0.9122   -0.1964 C   0  0  0  0  0  0  0  0  0  0  0  0
    1.5766    1.3364    1.0991 O   0  0  0  0  0  0  0  0  0  0  0  0
   -2.0383    2.0400    1.4482 H   0  0  0  0  0  0  0  0  0  0  0  0
   -2.8107    1.0755    0.1423 H   0  0  0  0  0  0  0  0  0  0  0  0
   -1.4591    2.2410   -0.2527 H   0  0  0  0  0  0  0  0  0  0  0  0
   -1.0641    0.0596   -1.3168 H   0  0  0  0  0  0  0  0  0  0  0  0
   -0.3543   -2.3323   -0.8671 H   0  0  0  0  0  0  0  0  0  0  0  0
   -1.6030   -2.9772    0.8670 H   0  0  0  0  0  0  0  0  0  0  0  0
    1.5778   -2.1470    0.5912 H   0  0  0  0  0  0  0  0  0  0  0  0
    0.7050   -0.7906    1.5510 H   0  0  0  0  0  0  0  0  0  0  0  0
    1.2507   -0.7495   -1.5018 H   0  0  0  0  0  0  0  0  0  0  0  0
    1.4619    1.6987   -0.9338 H   0  0  0  0  0  0  0  0  0  0  0  0
    2.8328    0.6820   -0.3900 H   0  0  0  0  0  0  0  0  0  0  0  0
    1.5652    2.3350    1.0854 H   0  0  0  0  0  0  0  0  0  0  0  0
  1  2  1  0
  2  3  1  0
  3  4  1  0
  4  5  1  0
  4  6  1  0
  6  7  1  0
  7  8  1  0
  8  9  1  0
  7  3  1  0
  1 10  1  0
  1 11  1  0
  1 12  1  0
  3 13  1  0
  4 14  1  0
  5 15  1  0
  6 16  1  0
  6 17  1  0
  7 18  1  0
  8 19  1  0
  8 20  1  0
  9 21  1  0
M  END
