
     RDKit          3D

 21 22  0  0  0  0  0  0  0  0999 V2000
    2.9171    0.7011    0.3375 C   0  0  0  0  0  0  0  0  0  0  0  0
    2.0888   -0.2312   -0.3050 O   0  0  0  0  0  0  0  0  0  0  0  0
    0.7935   -0.0771    0.2023 C   0  0  0  0  0  0  0  0  0  0  0  0
    0.1045   -1.3391    0.6138 C   0  0  0  0  0  0  0  0  0  0  0  0
   -0.9807   -1.0467   -0.3956 C   0  0  0  0  0  0  0  0  0  0  0  0
   -2.1960   -0.3463    0.1562 C   0  0  0  0  0  0  0  0  0  0  0  0
   -1.7479    1.0904    0.2707 C   0  0  0  0  0  0  0  0  0  0  0  0
   -0.9044    1.2464   -0.8177 O   0  0  0  0  0  0  0  0  0  0  0  0
   -0.1716    0.0835   -0.9502 C   0  0  0  0  0  0  0  0  0  0  0  0
    2.5584    1.7531    0.1469 H   0  0  0  0  0  0  0  0  0  0  0  0
    2.8473    0.5308    1.4456 H   0  0  0  0  0  0  0  0  0  0  0  0
    3.9636    0.5657   -0.0003 H   0  0  0  0  0  0  0  0  0  0  0  0
    0.7119    0.7195    0.9725 H   0  0  0  0  0  0  0  0  0  0  0  0
    0.6682   -2.2787    0.4518 H   0  0  0  0  0  0  0  0  0  0  0  0
   -0.3320   -1.3029    1.6417 H   0  0  0  0  0  0  0  0  0  0  0  0
   -1.2192   -1.8612   -1.0951 H   0  0  0  0  0  0  0  0  0  0  0  0
   -2.9729   -0.3782   -0.6362 H   0  0  0  0  0  0  0  0  0  0  0  0
   -2.5154   -0.7858    1.1019 H   0  0  0  0  0  0  0  0  0  0  0  0
   -1.2411    1.3010    1.2435 H   0  0  0  0  0  0  0  0  0  0  0  0
   -2.5819    1.8066    0.1391 H   0  0  0  0  0  0  0  0  0  0  0  0
    0.2096   -0.1509   -1.9439 H   0  0  0  0  0  0  0  0  0  0  0  0
  1  2  1  0
  2  3  1  0
  3  4  1  0
  4  5  1  0
  5  6  1  0
  6  7  1  0
  7  8  1  0
  8  9  1  0
  9  3  1  0
  9  5  1  0
  1 10  1  0
  1 11  1  0
  1 12  1  0
  3 13  1  0
  4 14  1  0
  4 15  1  0
  5 16  1  0
  6 17  1  0
  6 18  1  0
  7 19  1  0
  7 20  1  0
  9 21  1  0
M  END
