
     RDKit          3D

 19 20  0  0  0  0  0  0  0  0999 V2000
   -3.4475   -0.1480   -0.0184 C   0  0  0  0  0  0  0  0  0  0  0  0
   -2.1855   -0.6667    0.0360 O   0  0  0  0  0  0  0  0  0  0  0  0
   -1.1645    0.2959   -0.0485 C   0  0  0  0  0  0  0  0  0  0  0  0
   -0.0304    0.0995    0.7668 C   0  0  0  0  0  0  0  0  0  0  0  0
    0.9072   -0.8696    0.8890 O   0  0  0  0  0  0  0  0  0  0  0  0
    1.8978   -0.4246   -0.0231 C   0  0  0  0  0  0  0  0  0  0  0  0
    3.0678    0.1699    0.6911 C   0  0  0  0  0  0  0  0  0  0  0  0
    1.2571    0.5230   -0.8634 O   0  0  0  0  0  0  0  0  0  0  0  0
   -0.0134    0.0330   -0.8169 C   0  0  0  0  0  0  0  0  0  0  0  0
   -4.1627   -0.9792    0.0554 H   0  0  0  0  0  0  0  0  0  0  0  0
   -3.5634    0.5792    0.8218 H   0  0  0  0  0  0  0  0  0  0  0  0
   -3.6164    0.3345   -1.0076 H   0  0  0  0  0  0  0  0  0  0  0  0
   -1.6170    1.3224   -0.1457 H   0  0  0  0  0  0  0  0  0  0  0  0
    0.3968    1.0529    1.2126 H   0  0  0  0  0  0  0  0  0  0  0  0
    2.2268   -1.3011   -0.6104 H   0  0  0  0  0  0  0  0  0  0  0  0
    3.6548   -0.6368    1.1353 H   0  0  0  0  0  0  0  0  0  0  0  0
    2.6862    0.8943    1.4667 H   0  0  0  0  0  0  0  0  0  0  0  0
    3.6789    0.7387   -0.0038 H   0  0  0  0  0  0  0  0  0  0  0  0
    0.0275   -1.0173   -1.2511 H   0  0  0  0  0  0  0  0  0  0  0  0
  1  2  1  0
  2  3  1  0
  3  4  1  0
  4  5  1  0
  5  6  1  0
  6  7  1  0
  6  8  1  0
  8  9  1  0
  9  3  1  0
  9  4  1  0
  1 10  1  0
  1 11  1  0
  1 12  1  0
  3 13  1  0
  4 14  1  0
  6 15  1  0
  7 16  1  0
  7 17  1  0
  7 18  1  0
  9 19  1  0
M  END
