
     RDKit          3D

 25 25  0  0  0  0  0  0  0  0999 V2000
    3.0461    0.2928    0.2923 C   0  0  0  0  0  0  0  0  0  0  0  0
    1.7093    0.6806    0.4702 O   0  0  0  0  0  0  0  0  0  0  0  0
    0.9181    0.0691   -0.4782 C   0  0  0  0  0  0  0  0  0  0  0  0
   -0.0038    1.1199   -1.1118 C   0  0  0  0  0  0  0  0  0  0  0  0
   -0.8892    0.9075    0.1165 C   0  0  0  0  0  0  0  0  0  0  0  0
   -2.3435    1.0511   -0.0986 C   0  0  0  0  0  0  0  0  0  0  0  0
   -0.3366   -0.4930    0.1790 C   0  0  0  0  0  0  0  0  0  0  0  0
   -0.1555   -1.0272    1.5592 C   0  0  0  0  0  0  0  0  0  0  0  0
   -0.9952   -1.4925   -0.7331 C   0  0  0  0  0  0  0  0  0  0  0  0
    3.3687    0.6021   -0.7266 H   0  0  0  0  0  0  0  0  0  0  0  0
    3.1302   -0.7932    0.3770 H   0  0  0  0  0  0  0  0  0  0  0  0
    3.6318    0.8038    1.0847 H   0  0  0  0  0  0  0  0  0  0  0  0
    1.4070   -0.5951   -1.1977 H   0  0  0  0  0  0  0  0  0  0  0  0
    0.4844    2.0949   -1.1717 H   0  0  0  0  0  0  0  0  0  0  0  0
   -0.4713    0.7733   -2.0655 H   0  0  0  0  0  0  0  0  0  0  0  0
   -0.4900    1.5110    0.9442 H   0  0  0  0  0  0  0  0  0  0  0  0
   -2.5267    1.8571   -0.8343 H   0  0  0  0  0  0  0  0  0  0  0  0
   -2.8840    0.1284   -0.3570 H   0  0  0  0  0  0  0  0  0  0  0  0
   -2.7980    1.4285    0.8636 H   0  0  0  0  0  0  0  0  0  0  0  0
   -0.1942   -2.1482    1.5413 H   0  0  0  0  0  0  0  0  0  0  0  0
    0.8095   -0.7298    1.9633 H   0  0  0  0  0  0  0  0  0  0  0  0
   -1.0231   -0.6698    2.1719 H   0  0  0  0  0  0  0  0  0  0  0  0
   -1.1591   -1.1339   -1.7525 H   0  0  0  0  0  0  0  0  0  0  0  0
   -0.3189   -2.3846   -0.8038 H   0  0  0  0  0  0  0  0  0  0  0  0
   -1.9162   -1.8525   -0.2324 H   0  0  0  0  0  0  0  0  0  0  0  0
  1  2  1  0
  2  3  1  0
  3  4  1  0
  4  5  1  0
  5  6  1  0
  5  7  1  0
  7  8  1  0
  7  9  1  0
  7  3  1  0
  1 10  1  0
  1 11  1  0
  1 12  1  0
  3 13  1  0
  4 14  1  0
  4 15  1  0
  5 16  1  0
  6 17  1  0
  6 18  1  0
  6 19  1  0
  8 20  1  0
  8 21  1  0
  8 22  1  0
  9 23  1  0
  9 24  1  0
  9 25  1  0
M  END
