
     RDKit          3D

 18 19  0  0  0  0  0  0  0  0999 V2000
    2.2828   -0.7575    0.3395 C   0  0  0  0  0  0  0  0  0  0  0  0
    1.2063   -0.1688   -0.2753 O   0  0  0  0  0  0  0  0  0  0  0  0
    0.2568    0.3415    0.5607 C   0  0  0  0  0  0  0  0  0  0  0  0
   -1.1271   -0.1262    0.1430 C   0  0  0  0  0  0  0  0  0  0  0  0
   -1.1772   -1.1943   -0.8841 C   0  0  0  0  0  0  0  0  0  0  0  0
   -1.3726    1.2862   -0.3240 C   0  0  0  0  0  0  0  0  0  0  0  0
   -1.4305    2.1885    0.7170 O   0  0  0  0  0  0  0  0  0  0  0  0
   -0.2058    1.7458    0.2854 C   0  0  0  0  0  0  0  0  0  0  0  0
    1.9612   -1.6190    0.9844 H   0  0  0  0  0  0  0  0  0  0  0  0
    2.9735   -1.1070   -0.4704 H   0  0  0  0  0  0  0  0  0  0  0  0
    2.9018   -0.0324    0.9395 H   0  0  0  0  0  0  0  0  0  0  0  0
    0.4629    0.2224    1.6572 H   0  0  0  0  0  0  0  0  0  0  0  0
   -1.7995   -0.3537    0.9990 H   0  0  0  0  0  0  0  0  0  0  0  0
   -1.3099   -2.1677   -0.3383 H   0  0  0  0  0  0  0  0  0  0  0  0
   -2.1045   -1.0386   -1.4929 H   0  0  0  0  0  0  0  0  0  0  0  0
   -0.2832   -1.2608   -1.5345 H   0  0  0  0  0  0  0  0  0  0  0  0
   -1.7341    1.5079   -1.3185 H   0  0  0  0  0  0  0  0  0  0  0  0
    0.4990    2.5337    0.0121 H   0  0  0  0  0  0  0  0  0  0  0  0
  1  2  1  0
  2  3  1  0
  3  4  1  0
  4  5  1  0
  4  6  1  0
  6  7  1  0
  7  8  1  0
  8  3  1  0
  8  6  1  0
  1  9  1  0
  1 10  1  0
  1 11  1  0
  3 12  1  0
  4 13  1  0
  5 14  1  0
  5 15  1  0
  5 16  1  0
  6 17  1  0
  8 18  1  0
M  END
