
     RDKit          3D

 17 17  0  0  0  0  0  0  0  0999 V2000
    1.9660   -0.3518    0.2887 C   0  0  0  0  0  0  0  0  0  0  0  0
    0.7694   -0.2254    0.9851 O   0  0  0  0  0  0  0  0  0  0  0  0
   -0.2915    0.1291    0.1686 C   0  0  0  0  0  0  0  0  0  0  0  0
   -0.6207   -0.8099   -0.9387 C   0  0  0  0  0  0  0  0  0  0  0  0
   -0.9502   -2.0587   -0.4259 O   0  0  0  0  0  0  0  0  0  0  0  0
   -0.3143    1.6002   -0.1818 C   0  0  0  0  0  0  0  0  0  0  0  0
   -0.8135    1.7723    1.1539 O   0  0  0  0  0  0  0  0  0  0  0  0
   -1.4522    0.5575    0.9813 C   0  0  0  0  0  0  0  0  0  0  0  0
   -2.5435    0.1098    1.3819 O   0  0  0  0  0  0  0  0  0  0  0  0
    2.7361   -0.6384    1.0536 H   0  0  0  0  0  0  0  0  0  0  0  0
    2.1858    0.6227   -0.1785 H   0  0  0  0  0  0  0  0  0  0  0  0
    1.9548   -1.1854   -0.4381 H   0  0  0  0  0  0  0  0  0  0  0  0
    0.2367   -0.9244   -1.6175 H   0  0  0  0  0  0  0  0  0  0  0  0
   -1.4470   -0.3764   -1.5293 H   0  0  0  0  0  0  0  0  0  0  0  0
   -0.9228   -2.0930    0.5649 H   0  0  0  0  0  0  0  0  0  0  0  0
    0.6488    2.0659   -0.3804 H   0  0  0  0  0  0  0  0  0  0  0  0
   -1.1419    1.8058   -0.8876 H   0  0  0  0  0  0  0  0  0  0  0  0
  1  2  1  0
  2  3  1  0
  3  4  1  0
  4  5  1  0
  3  6  1  0
  6  7  1  0
  7  8  1  0
  8  9  2  0
  8  3  1  0
  1 10  1  0
  1 11  1  0
  1 12  1  0
  4 13  1  0
  4 14  1  0
  5 15  1  0
  6 16  1  0
  6 17  1  0
M  END
