
     RDKit          3D

 15 15  0  0  0  0  0  0  0  0999 V2000
   -1.7214    0.1996   -0.8404 C   0  0  0  0  0  0  0  0  0  0  0  0
   -0.4190    0.5811   -1.0680 O   0  0  0  0  0  0  0  0  0  0  0  0
    0.3949    0.2592   -0.0142 C   0  0  0  0  0  0  0  0  0  0  0  0
    0.0372    0.8830    1.2846 C   0  0  0  0  0  0  0  0  0  0  0  0
    0.6911    0.6525    2.2868 O   0  0  0  0  0  0  0  0  0  0  0  0
    0.6857   -1.2258    0.0682 C   0  0  0  0  0  0  0  0  0  0  0  0
    1.6682   -0.9596   -0.9476 O   0  0  0  0  0  0  0  0  0  0  0  0
    1.8400    0.2590   -0.3331 C   0  0  0  0  0  0  0  0  0  0  0  0
    2.7894    1.0275   -0.1311 O   0  0  0  0  0  0  0  0  0  0  0  0
   -1.7932   -0.9005   -0.6839 H   0  0  0  0  0  0  0  0  0  0  0  0
   -2.3879    0.4287   -1.7064 H   0  0  0  0  0  0  0  0  0  0  0  0
   -2.1318    0.6858    0.0665 H   0  0  0  0  0  0  0  0  0  0  0  0
   -0.8123    1.5451    1.3269 H   0  0  0  0  0  0  0  0  0  0  0  0
    1.2366   -1.5321    0.9849 H   0  0  0  0  0  0  0  0  0  0  0  0
   -0.0775   -1.9035   -0.2929 H   0  0  0  0  0  0  0  0  0  0  0  0
  1  2  1  0
  2  3  1  0
  3  4  1  0
  4  5  2  0
  3  6  1  0
  6  7  1  0
  7  8  1  0
  8  9  2  0
  8  3  1  0
  1 10  1  0
  1 11  1  0
  1 12  1  0
  4 13  1  0
  6 14  1  0
  6 15  1  0
M  END
