
     RDKit          3D

 17 17  0  0  0  0  0  0  0  0999 V2000
   -0.5579    1.9889    0.2882 C   0  0  0  0  0  0  0  0  0  0  0  0
   -0.7451    0.9957   -0.5398 O   0  0  0  0  0  0  0  0  0  0  0  0
   -0.2984   -0.2491   -0.5407 C   0  0  0  0  0  0  0  0  0  0  0  0
    1.1499   -0.4891   -0.6650 C   0  0  0  0  0  0  0  0  0  0  0  0
    1.5045   -1.1988   -1.7055 O   0  0  0  0  0  0  0  0  0  0  0  0
    2.2237   -0.0860    0.2068 C   0  0  0  0  0  0  0  0  0  0  0  0
    2.0006    0.5191    1.3353 O   0  0  0  0  0  0  0  0  0  0  0  0
   -0.8338   -1.1188    0.6191 C   0  0  0  0  0  0  0  0  0  0  0  0
   -1.2357   -1.4330   -0.7924 C   0  0  0  0  0  0  0  0  0  0  0  0
   -0.9449    1.8442    1.3505 H   0  0  0  0  0  0  0  0  0  0  0  0
   -1.2400    2.8572   -0.0493 H   0  0  0  0  0  0  0  0  0  0  0  0
    0.4418    2.5201    0.3188 H   0  0  0  0  0  0  0  0  0  0  0  0
    3.2886   -0.2480   -0.0038 H   0  0  0  0  0  0  0  0  0  0  0  0
   -1.5115   -0.5871    1.3218 H   0  0  0  0  0  0  0  0  0  0  0  0
   -0.0836   -1.7569    1.0820 H   0  0  0  0  0  0  0  0  0  0  0  0
   -2.3153   -1.1849   -0.9813 H   0  0  0  0  0  0  0  0  0  0  0  0
   -0.8429   -2.3736   -1.2445 H   0  0  0  0  0  0  0  0  0  0  0  0
  1  2  1  0
  2  3  1  0
  3  4  1  0
  4  5  2  0
  4  6  1  0
  6  7  2  0
  3  8  1  0
  8  9  1  0
  9  3  1  0
  1 10  1  0
  1 11  1  0
  1 12  1  0
  6 13  1  0
  8 14  1  0
  8 15  1  0
  9 16  1  0
  9 17  1  0
M  END
