
     RDKit          3D

 19 20  0  0  0  0  0  0  0  0999 V2000
    2.8863   -0.2193   -0.1644 C   0  0  0  0  0  0  0  0  0  0  0  0
    1.6428   -0.3155   -0.7857 O   0  0  0  0  0  0  0  0  0  0  0  0
    0.6374    0.2159    0.0315 C   0  0  0  0  0  0  0  0  0  0  0  0
   -0.0129    1.3866   -0.5680 C   0  0  0  0  0  0  0  0  0  0  0  0
   -1.3036    1.2254   -0.6038 C   0  0  0  0  0  0  0  0  0  0  0  0
   -1.7293   -0.0408   -0.0523 C   0  0  0  0  0  0  0  0  0  0  0  0
   -2.7587    0.0065    0.9115 O   0  0  0  0  0  0  0  0  0  0  0  0
   -1.3315   -1.3462   -0.6287 C   0  0  0  0  0  0  0  0  0  0  0  0
   -0.4291   -0.7392    0.3584 C   0  0  0  0  0  0  0  0  0  0  0  0
    3.1693    0.8311    0.0639 H   0  0  0  0  0  0  0  0  0  0  0  0
    2.9469   -0.7738    0.7824 H   0  0  0  0  0  0  0  0  0  0  0  0
    3.6365   -0.6571   -0.8530 H   0  0  0  0  0  0  0  0  0  0  0  0
    1.1285    0.5812    0.9860 H   0  0  0  0  0  0  0  0  0  0  0  0
    0.5207    2.2969   -0.9451 H   0  0  0  0  0  0  0  0  0  0  0  0
   -2.0167    1.9705   -1.0109 H   0  0  0  0  0  0  0  0  0  0  0  0
   -3.5520    0.3597    0.4209 H   0  0  0  0  0  0  0  0  0  0  0  0
   -1.0648   -1.4204   -1.7004 H   0  0  0  0  0  0  0  0  0  0  0  0
   -1.9183   -2.2247   -0.2769 H   0  0  0  0  0  0  0  0  0  0  0  0
   -0.4515   -1.1368    1.4117 H   0  0  0  0  0  0  0  0  0  0  0  0
  1  2  1  0
  2  3  1  0
  3  4  1  0
  4  5  2  0
  5  6  1  0
  6  7  1  0
  6  8  1  0
  8  9  1  0
  9  3  1  0
  9  6  1  0
  1 10  1  0
  1 11  1  0
  1 12  1  0
  3 13  1  0
  4 14  1  0
  5 15  1  0
  7 16  1  0
  8 17  1  0
  8 18  1  0
  9 19  1  0
M  END
