
     RDKit          3D

 19 19  0  0  0  0  0  0  0  0999 V2000
   -1.5861   -2.2141    0.5654 C   0  0  0  0  0  0  0  0  0  0  0  0
   -0.7863   -1.1581    0.9443 O   0  0  0  0  0  0  0  0  0  0  0  0
   -0.7084   -0.2147   -0.0608 C   0  0  0  0  0  0  0  0  0  0  0  0
   -0.5226    1.2076    0.4238 C   0  0  0  0  0  0  0  0  0  0  0  0
   -1.3371    2.2040   -0.2919 C   0  0  0  0  0  0  0  0  0  0  0  0
   -1.9041    3.1385    0.2822 O   0  0  0  0  0  0  0  0  0  0  0  0
    0.6089    0.5149   -0.2464 C   0  0  0  0  0  0  0  0  0  0  0  0
    1.6470    0.0144    0.5079 O   0  0  0  0  0  0  0  0  0  0  0  0
    2.8391    0.0320   -0.2361 C   0  0  0  0  0  0  0  0  0  0  0  0
   -1.1555   -2.6943   -0.3489 H   0  0  0  0  0  0  0  0  0  0  0  0
   -2.6371   -1.9041    0.3773 H   0  0  0  0  0  0  0  0  0  0  0  0
   -1.5975   -2.9388    1.4161 H   0  0  0  0  0  0  0  0  0  0  0  0
   -1.2592   -0.3993   -0.9944 H   0  0  0  0  0  0  0  0  0  0  0  0
   -0.4717    1.3827    1.5266 H   0  0  0  0  0  0  0  0  0  0  0  0
   -1.4491    2.1216   -1.3677 H   0  0  0  0  0  0  0  0  0  0  0  0
    0.8777    0.8398   -1.2868 H   0  0  0  0  0  0  0  0  0  0  0  0
    2.7574   -0.5822   -1.1561 H   0  0  0  0  0  0  0  0  0  0  0  0
    3.0555    1.0953   -0.4364 H   0  0  0  0  0  0  0  0  0  0  0  0
    3.6290   -0.4452    0.3819 H   0  0  0  0  0  0  0  0  0  0  0  0
  1  2  1  0
  2  3  1  0
  3  4  1  0
  4  5  1  0
  5  6  2  0
  4  7  1  0
  7  8  1  0
  8  9  1  0
  7  3  1  0
  1 10  1  0
  1 11  1  0
  1 12  1  0
  3 13  1  0
  4 14  1  0
  5 15  1  0
  7 16  1  0
  9 17  1  0
  9 18  1  0
  9 19  1  0
M  END
