
     RDKit          3D

 21 22  0  0  0  0  0  0  0  0999 V2000
    2.5772   -0.7215    0.5204 C   0  0  0  0  0  0  0  0  0  0  0  0
    1.4817    0.1439    0.7467 O   0  0  0  0  0  0  0  0  0  0  0  0
    0.5817   -0.1099   -0.2523 C   0  0  0  0  0  0  0  0  0  0  0  0
    0.1425    1.1661   -0.9743 C   0  0  0  0  0  0  0  0  0  0  0  0
   -0.3236    2.0011    0.1430 C   0  0  0  0  0  0  0  0  0  0  0  0
   -1.0420    1.1306    0.8972 C   0  0  0  0  0  0  0  0  0  0  0  0
   -0.8764   -0.1423    0.1451 C   0  0  0  0  0  0  0  0  0  0  0  0
   -1.5001   -1.3520    0.5821 C   0  0  0  0  0  0  0  0  0  0  0  0
   -1.1171    0.3522   -1.2904 C   0  0  0  0  0  0  0  0  0  0  0  0
    2.9696   -0.4576   -0.4894 H   0  0  0  0  0  0  0  0  0  0  0  0
    3.3548   -0.6111    1.2885 H   0  0  0  0  0  0  0  0  0  0  0  0
    2.1350   -1.7399    0.4774 H   0  0  0  0  0  0  0  0  0  0  0  0
    0.8395   -0.8773   -0.9980 H   0  0  0  0  0  0  0  0  0  0  0  0
    0.7224    1.5382   -1.7610 H   0  0  0  0  0  0  0  0  0  0  0  0
   -0.1837    3.0463    0.3890 H   0  0  0  0  0  0  0  0  0  0  0  0
   -1.5905    1.2999    1.8003 H   0  0  0  0  0  0  0  0  0  0  0  0
   -2.1837   -1.7588   -0.2198 H   0  0  0  0  0  0  0  0  0  0  0  0
   -2.1899   -1.1939    1.4629 H   0  0  0  0  0  0  0  0  0  0  0  0
   -0.8360   -2.1989    0.9101 H   0  0  0  0  0  0  0  0  0  0  0  0
   -0.9321   -0.4502   -2.0056 H   0  0  0  0  0  0  0  0  0  0  0  0
   -2.0293    0.9352   -1.3720 H   0  0  0  0  0  0  0  0  0  0  0  0
  1  2  1  0
  2  3  1  0
  3  4  1  0
  4  5  1  0
  5  6  2  0
  6  7  1  0
  7  8  1  0
  7  9  1  0
  7  3  1  0
  9  4  1  0
  1 10  1  0
  1 11  1  0
  1 12  1  0
  3 13  1  0
  4 14  1  0
  5 15  1  0
  6 16  1  0
  8 17  1  0
  8 18  1  0
  8 19  1  0
  9 20  1  0
  9 21  1  0
M  END
