
     RDKit          3D

 21 22  0  0  0  0  0  0  0  0999 V2000
   -2.7795    0.4402    0.0338 C   0  0  0  0  0  0  0  0  0  0  0  0
   -2.1113   -0.7484   -0.0787 O   0  0  0  0  0  0  0  0  0  0  0  0
   -0.7577   -0.6738   -0.2733 C   0  0  0  0  0  0  0  0  0  0  0  0
   -0.2121    0.0246   -1.4771 C   0  0  0  0  0  0  0  0  0  0  0  0
    1.1219    0.5575   -1.0836 C   0  0  0  0  0  0  0  0  0  0  0  0
    1.3410    0.3556    0.2011 C   0  0  0  0  0  0  0  0  0  0  0  0
    2.5460    0.7431    0.9526 C   0  0  0  0  0  0  0  0  0  0  0  0
    0.1823   -0.3347    0.8135 C   0  0  0  0  0  0  0  0  0  0  0  0
    0.0293   -1.7729    0.3514 C   0  0  0  0  0  0  0  0  0  0  0  0
   -2.6792    1.0741   -0.8623 H   0  0  0  0  0  0  0  0  0  0  0  0
   -3.8710    0.1930    0.1066 H   0  0  0  0  0  0  0  0  0  0  0  0
   -2.5318    1.0126    0.9499 H   0  0  0  0  0  0  0  0  0  0  0  0
   -0.8418    0.9052   -1.7076 H   0  0  0  0  0  0  0  0  0  0  0  0
   -0.1051   -0.6423   -2.3650 H   0  0  0  0  0  0  0  0  0  0  0  0
    1.8211    1.0414   -1.7403 H   0  0  0  0  0  0  0  0  0  0  0  0
    2.3079    1.4806    1.7546 H   0  0  0  0  0  0  0  0  0  0  0  0
    3.3254    1.2037    0.2816 H   0  0  0  0  0  0  0  0  0  0  0  0
    3.0101   -0.1482    1.4619 H   0  0  0  0  0  0  0  0  0  0  0  0
   -0.1516   -0.0499    1.8233 H   0  0  0  0  0  0  0  0  0  0  0  0
    0.8150   -2.2440   -0.2377 H   0  0  0  0  0  0  0  0  0  0  0  0
   -0.4589   -2.4176    1.0952 H   0  0  0  0  0  0  0  0  0  0  0  0
  1  2  1  0
  2  3  1  0
  3  4  1  0
  4  5  1  0
  5  6  2  0
  6  7  1  0
  6  8  1  0
  8  9  1  0
  8  3  1  0
  9  3  1  0
  1 10  1  0
  1 11  1  0
  1 12  1  0
  4 13  1  0
  4 14  1  0
  5 15  1  0
  7 16  1  0
  7 17  1  0
  7 18  1  0
  8 19  1  0
  9 20  1  0
  9 21  1  0
M  END
