
     RDKit          3D

 21 22  0  0  0  0  0  0  0  0999 V2000
    2.8658    0.5280   -0.1268 C   0  0  0  0  0  0  0  0  0  0  0  0
    1.9600   -0.4687    0.0982 O   0  0  0  0  0  0  0  0  0  0  0  0
    0.7273   -0.2725    0.0224 C   0  0  0  0  0  0  0  0  0  0  0  0
   -0.1146    0.6854    0.8251 C   0  0  0  0  0  0  0  0  0  0  0  0
   -1.1034    0.0552   -0.1583 C   0  0  0  0  0  0  0  0  0  0  0  0
   -2.4395    0.2869   -0.2317 C   0  0  0  0  0  0  0  0  0  0  0  0
   -0.0299    0.2794   -1.1821 C   0  0  0  0  0  0  0  0  0  0  0  0
   -0.3882   -1.2453    0.1476 C   0  0  0  0  0  0  0  0  0  0  0  0
   -0.6313   -1.7785    1.3880 O   0  0  0  0  0  0  0  0  0  0  0  0
    2.7206    0.9044   -1.1714 H   0  0  0  0  0  0  0  0  0  0  0  0
    3.9068    0.1291   -0.0384 H   0  0  0  0  0  0  0  0  0  0  0  0
    2.7022    1.3226    0.6313 H   0  0  0  0  0  0  0  0  0  0  0  0
   -0.2770    0.4481    1.8714 H   0  0  0  0  0  0  0  0  0  0  0  0
    0.1055    1.7190    0.5406 H   0  0  0  0  0  0  0  0  0  0  0  0
   -3.1006   -0.6250   -0.1179 H   0  0  0  0  0  0  0  0  0  0  0  0
   -2.8561    0.9950    0.5475 H   0  0  0  0  0  0  0  0  0  0  0  0
   -2.8049    0.7405   -1.2016 H   0  0  0  0  0  0  0  0  0  0  0  0
   -0.0277   -0.3880   -2.0503 H   0  0  0  0  0  0  0  0  0  0  0  0
    0.1811    1.3377   -1.3367 H   0  0  0  0  0  0  0  0  0  0  0  0
   -0.3748   -1.9735   -0.7086 H   0  0  0  0  0  0  0  0  0  0  0  0
   -1.0212   -2.6796    1.3190 H   0  0  0  0  0  0  0  0  0  0  0  0
  1  2  1  0
  2  3  1  0
  3  4  1  0
  4  5  1  0
  5  6  1  0
  5  7  1  0
  5  8  1  0
  8  9  1  0
  7  3  1  0
  8  3  1  0
  1 10  1  0
  1 11  1  0
  1 12  1  0
  4 13  1  0
  4 14  1  0
  6 15  1  0
  6 16  1  0
  6 17  1  0
  7 18  1  0
  7 19  1  0
  8 20  1  0
  9 21  1  0
M  END
