
     RDKit          3D

 21 21  0  0  0  0  0  0  0  0999 V2000
    2.0369   -1.3236   -0.0433 C   0  0  0  0  0  0  0  0  0  0  0  0
    0.9163   -0.8009    0.4762 O   0  0  0  0  0  0  0  0  0  0  0  0
    0.2613    0.1895   -0.1279 C   0  0  0  0  0  0  0  0  0  0  0  0
   -0.9726    0.6191    0.6375 C   0  0  0  0  0  0  0  0  0  0  0  0
   -1.9545   -0.5178    0.7976 C   0  0  0  0  0  0  0  0  0  0  0  0
   -3.0775   -0.0925    1.5047 O   0  0  0  0  0  0  0  0  0  0  0  0
    1.1720    1.4123   -0.2999 C   0  0  0  0  0  0  0  0  0  0  0  0
    1.2293    1.2201   -1.6777 O   0  0  0  0  0  0  0  0  0  0  0  0
    0.1498    0.3321   -1.5848 C   0  0  0  0  0  0  0  0  0  0  0  0
    2.8906   -0.6536   -0.1911 H   0  0  0  0  0  0  0  0  0  0  0  0
    1.8097   -1.7564   -1.0616 H   0  0  0  0  0  0  0  0  0  0  0  0
    2.3824   -2.1637    0.5958 H   0  0  0  0  0  0  0  0  0  0  0  0
   -1.4336    1.4866    0.1613 H   0  0  0  0  0  0  0  0  0  0  0  0
   -0.6168    0.9195    1.6550 H   0  0  0  0  0  0  0  0  0  0  0  0
   -2.3210   -0.7689   -0.2314 H   0  0  0  0  0  0  0  0  0  0  0  0
   -1.5056   -1.4132    1.2224 H   0  0  0  0  0  0  0  0  0  0  0  0
   -3.3711   -0.7492    2.1840 H   0  0  0  0  0  0  0  0  0  0  0  0
    0.7100    2.3691   -0.0704 H   0  0  0  0  0  0  0  0  0  0  0  0
    2.1596    1.3091    0.1900 H   0  0  0  0  0  0  0  0  0  0  0  0
    0.3033   -0.5142   -2.2405 H   0  0  0  0  0  0  0  0  0  0  0  0
   -0.7684    0.8967   -1.8960 H   0  0  0  0  0  0  0  0  0  0  0  0
  1  2  1  0
  2  3  1  0
  3  4  1  0
  4  5  1  0
  5  6  1  0
  3  7  1  0
  7  8  1  0
  8  9  1  0
  9  3  1  0
  1 10  1  0
  1 11  1  0
  1 12  1  0
  4 13  1  0
  4 14  1  0
  5 15  1  0
  5 16  1  0
  6 17  1  0
  7 18  1  0
  7 19  1  0
  9 20  1  0
  9 21  1  0
M  END
