
     RDKit          3D

 19 20  0  0  0  0  0  0  0  0999 V2000
    2.9269   -0.7095    0.4108 C   0  0  0  0  0  0  0  0  0  0  0  0
    2.1096    0.2436   -0.1866 O   0  0  0  0  0  0  0  0  0  0  0  0
    0.7722    0.0062   -0.0045 C   0  0  0  0  0  0  0  0  0  0  0  0
   -0.0843    1.1650    0.2903 C   0  0  0  0  0  0  0  0  0  0  0  0
   -1.5666    1.0870    0.3980 C   0  0  0  0  0  0  0  0  0  0  0  0
   -1.6609    0.0717   -0.7142 C   0  0  0  0  0  0  0  0  0  0  0  0
   -1.9683   -1.2667   -0.1741 C   0  0  0  0  0  0  0  0  0  0  0  0
   -2.9191   -1.8878   -0.5900 O   0  0  0  0  0  0  0  0  0  0  0  0
   -0.2192    0.3463   -1.0337 C   0  0  0  0  0  0  0  0  0  0  0  0
    3.9837   -0.4400    0.2141 H   0  0  0  0  0  0  0  0  0  0  0  0
    2.6529   -1.7012    0.0412 H   0  0  0  0  0  0  0  0  0  0  0  0
    2.7930   -0.6318    1.5190 H   0  0  0  0  0  0  0  0  0  0  0  0
    0.5556   -0.9133    0.5935 H   0  0  0  0  0  0  0  0  0  0  0  0
    0.3588    2.1665    0.1994 H   0  0  0  0  0  0  0  0  0  0  0  0
   -1.9988    0.7984    1.3569 H   0  0  0  0  0  0  0  0  0  0  0  0
   -2.0510    2.0437    0.0557 H   0  0  0  0  0  0  0  0  0  0  0  0
   -2.3375    0.3726   -1.5644 H   0  0  0  0  0  0  0  0  0  0  0  0
   -1.3361   -1.6791    0.5916 H   0  0  0  0  0  0  0  0  0  0  0  0
   -0.0109    0.9284   -1.9291 H   0  0  0  0  0  0  0  0  0  0  0  0
  1  2  1  0
  2  3  1  0
  3  4  1  0
  4  5  1  0
  5  6  1  0
  6  7  1  0
  7  8  2  0
  6  9  1  0
  9  3  1  0
  9  4  1  0
  1 10  1  0
  1 11  1  0
  1 12  1  0
  3 13  1  0
  4 14  1  0
  5 15  1  0
  5 16  1  0
  6 17  1  0
  7 18  1  0
  9 19  1  0
M  END
