
     RDKit          3D

 19 20  0  0  0  0  0  0  0  0999 V2000
    2.8170    0.0492   -0.1129 C   0  0  0  0  0  0  0  0  0  0  0  0
    1.6426   -0.7091    0.1094 O   0  0  0  0  0  0  0  0  0  0  0  0
    0.5925    0.0422   -0.3440 C   0  0  0  0  0  0  0  0  0  0  0  0
   -0.0561   -0.6286   -1.4157 O   0  0  0  0  0  0  0  0  0  0  0  0
   -1.3584   -0.6750   -1.0030 C   0  0  0  0  0  0  0  0  0  0  0  0
   -1.6207    0.7076   -0.3806 C   0  0  0  0  0  0  0  0  0  0  0  0
   -0.5371    0.2136    0.5937 C   0  0  0  0  0  0  0  0  0  0  0  0
   -0.4356    0.7766    1.7759 O   0  0  0  0  0  0  0  0  0  0  0  0
   -1.2630   -1.1334    0.4602 C   0  0  0  0  0  0  0  0  0  0  0  0
    2.8775    0.2300   -1.1990 H   0  0  0  0  0  0  0  0  0  0  0  0
    2.7198    1.0363    0.4249 H   0  0  0  0  0  0  0  0  0  0  0  0
    3.6939   -0.4600    0.3137 H   0  0  0  0  0  0  0  0  0  0  0  0
    0.8883    1.0270   -0.7621 H   0  0  0  0  0  0  0  0  0  0  0  0
   -2.1268   -1.0934   -1.5976 H   0  0  0  0  0  0  0  0  0  0  0  0
   -1.2114    1.5393   -0.9592 H   0  0  0  0  0  0  0  0  0  0  0  0
   -2.6075    0.8237    0.0630 H   0  0  0  0  0  0  0  0  0  0  0  0
   -1.1602    1.4077    2.0572 H   0  0  0  0  0  0  0  0  0  0  0  0
   -0.6211   -2.0070    0.5675 H   0  0  0  0  0  0  0  0  0  0  0  0
   -2.2336   -1.1465    0.9663 H   0  0  0  0  0  0  0  0  0  0  0  0
  1  2  1  0
  2  3  1  0
  3  4  1  0
  4  5  1  0
  5  6  1  0
  6  7  1  0
  7  8  1  0
  7  9  1  0
  7  3  1  0
  9  5  1  0
  1 10  1  0
  1 11  1  0
  1 12  1  0
  3 13  1  0
  5 14  1  0
  6 15  1  0
  6 16  1  0
  8 17  1  0
  9 18  1  0
  9 19  1  0
M  END
