
     RDKit          3D

 18 19  0  0  0  0  0  0  0  0999 V2000
    2.7919   -0.1464    0.4800 C   0  0  0  0  0  0  0  0  0  0  0  0
    1.4047   -0.3732    0.5904 O   0  0  0  0  0  0  0  0  0  0  0  0
    0.7906    0.3206   -0.4323 C   0  0  0  0  0  0  0  0  0  0  0  0
   -0.3045   -0.3765   -1.1656 C   0  0  0  0  0  0  0  0  0  0  0  0
   -0.8173    0.8833   -1.4449 O   0  0  0  0  0  0  0  0  0  0  0  0
   -0.4939    1.0089   -0.1007 C   0  0  0  0  0  0  0  0  0  0  0  0
   -1.1120   -0.3377    0.0917 C   0  0  0  0  0  0  0  0  0  0  0  0
   -2.5980   -0.3451   -0.1577 C   0  0  0  0  0  0  0  0  0  0  0  0
    3.1137   -0.5210   -0.5141 H   0  0  0  0  0  0  0  0  0  0  0  0
    3.0042    0.9473    0.4717 H   0  0  0  0  0  0  0  0  0  0  0  0
    3.3630   -0.6806    1.2463 H   0  0  0  0  0  0  0  0  0  0  0  0
    1.4738    0.8880   -1.1014 H   0  0  0  0  0  0  0  0  0  0  0  0
   -0.2204   -1.1454   -1.8122 H   0  0  0  0  0  0  0  0  0  0  0  0
   -0.6182    1.8269    0.4733 H   0  0  0  0  0  0  0  0  0  0  0  0
   -0.7545   -0.9410    0.9355 H   0  0  0  0  0  0  0  0  0  0  0  0
   -2.8507   -0.7216   -1.1875 H   0  0  0  0  0  0  0  0  0  0  0  0
   -3.1300   -0.9646    0.5937 H   0  0  0  0  0  0  0  0  0  0  0  0
   -3.0424    0.6782   -0.0750 H   0  0  0  0  0  0  0  0  0  0  0  0
  1  2  1  0
  2  3  1  0
  3  4  1  0
  4  5  1  0
  5  6  1  0
  6  7  1  0
  7  8  1  0
  6  3  1  0
  7  4  1  0
  1  9  1  0
  1 10  1  0
  1 11  1  0
  3 12  1  0
  4 13  1  0
  6 14  1  0
  7 15  1  0
  8 16  1  0
  8 17  1  0
  8 18  1  0
M  END
