
     RDKit          3D

 21 22  0  0  0  0  0  0  0  0999 V2000
    2.9874   -0.1388    0.4023 C   0  0  0  0  0  0  0  0  0  0  0  0
    1.6586   -0.0589    0.8248 O   0  0  0  0  0  0  0  0  0  0  0  0
    0.7720   -0.3329   -0.2240 C   0  0  0  0  0  0  0  0  0  0  0  0
   -0.2117   -1.4124    0.2290 C   0  0  0  0  0  0  0  0  0  0  0  0
   -1.3512   -0.4896   -0.1064 C   0  0  0  0  0  0  0  0  0  0  0  0
   -2.3321   -0.2250    0.9924 C   0  0  0  0  0  0  0  0  0  0  0  0
   -0.3467    0.6253   -0.2408 C   0  0  0  0  0  0  0  0  0  0  0  0
   -0.5847    1.7782   -0.9218 C   0  0  0  0  0  0  0  0  0  0  0  0
   -0.4091    1.7339    0.5623 O   0  0  0  0  0  0  0  0  0  0  0  0
    3.2482   -1.1418    0.0141 H   0  0  0  0  0  0  0  0  0  0  0  0
    3.1347    0.6383   -0.3705 H   0  0  0  0  0  0  0  0  0  0  0  0
    3.6073    0.1442    1.2789 H   0  0  0  0  0  0  0  0  0  0  0  0
    1.2619   -0.5625   -1.1931 H   0  0  0  0  0  0  0  0  0  0  0  0
   -0.1060   -2.3042   -0.4202 H   0  0  0  0  0  0  0  0  0  0  0  0
   -0.1764   -1.6407    1.2959 H   0  0  0  0  0  0  0  0  0  0  0  0
   -1.8489   -0.7836   -1.0477 H   0  0  0  0  0  0  0  0  0  0  0  0
   -3.2006    0.3155    0.5304 H   0  0  0  0  0  0  0  0  0  0  0  0
   -1.9426    0.4213    1.7950 H   0  0  0  0  0  0  0  0  0  0  0  0
   -2.7423   -1.1585    1.4028 H   0  0  0  0  0  0  0  0  0  0  0  0
    0.1916    2.4447   -1.3961 H   0  0  0  0  0  0  0  0  0  0  0  0
   -1.6094    2.1476   -1.1413 H   0  0  0  0  0  0  0  0  0  0  0  0
  1  2  1  0
  2  3  1  0
  3  4  1  0
  4  5  1  0
  5  6  1  0
  5  7  1  0
  7  8  1  0
  8  9  1  0
  7  3  1  0
  9  7  1  0
  1 10  1  0
  1 11  1  0
  1 12  1  0
  3 13  1  0
  4 14  1  0
  4 15  1  0
  5 16  1  0
  6 17  1  0
  6 18  1  0
  6 19  1  0
  8 20  1  0
  8 21  1  0
M  END
