
     RDKit          3D

 21 22  0  0  0  0  0  0  0  0999 V2000
   -2.6768   -0.3231    0.6302 C   0  0  0  0  0  0  0  0  0  0  0  0
   -1.5124   -0.9902    1.0063 O   0  0  0  0  0  0  0  0  0  0  0  0
   -0.5024   -0.6260    0.2484 C   0  0  0  0  0  0  0  0  0  0  0  0
   -0.4987   -0.8199   -1.2383 C   0  0  0  0  0  0  0  0  0  0  0  0
    0.7878   -0.3007   -1.5420 O   0  0  0  0  0  0  0  0  0  0  0  0
    1.2284    0.1836   -0.3412 C   0  0  0  0  0  0  0  0  0  0  0  0
    2.4954    0.8582   -0.2002 C   0  0  0  0  0  0  0  0  0  0  0  0
    0.9177   -0.9808    0.6144 C   0  0  0  0  0  0  0  0  0  0  0  0
   -0.0120    0.8301    0.3012 C   0  0  0  0  0  0  0  0  0  0  0  0
   -3.5466   -0.6085    1.2505 H   0  0  0  0  0  0  0  0  0  0  0  0
   -2.5257    0.7771    0.5761 H   0  0  0  0  0  0  0  0  0  0  0  0
   -2.9185   -0.6880   -0.4044 H   0  0  0  0  0  0  0  0  0  0  0  0
   -0.6208   -1.8415   -1.5733 H   0  0  0  0  0  0  0  0  0  0  0  0
   -1.2143   -0.0912   -1.6786 H   0  0  0  0  0  0  0  0  0  0  0  0
    2.4812    1.8317    0.3489 H   0  0  0  0  0  0  0  0  0  0  0  0
    3.2422    0.2227    0.3554 H   0  0  0  0  0  0  0  0  0  0  0  0
    2.9679    1.0419   -1.2027 H   0  0  0  0  0  0  0  0  0  0  0  0
    1.2495   -1.9539    0.2557 H   0  0  0  0  0  0  0  0  0  0  0  0
    1.1076   -0.7670    1.6685 H   0  0  0  0  0  0  0  0  0  0  0  0
   -0.6172    1.4276   -0.3837 H   0  0  0  0  0  0  0  0  0  0  0  0
    0.1677    1.2100    1.3090 H   0  0  0  0  0  0  0  0  0  0  0  0
  1  2  1  0
  2  3  1  0
  3  4  1  0
  4  5  1  0
  5  6  1  0
  6  7  1  0
  6  8  1  0
  6  9  1  0
  8  3  1  0
  9  3  1  0
  1 10  1  0
  1 11  1  0
  1 12  1  0
  4 13  1  0
  4 14  1  0
  7 15  1  0
  7 16  1  0
  7 17  1  0
  8 18  1  0
  8 19  1  0
  9 20  1  0
  9 21  1  0
M  END
