
     RDKit          3D

 17 18  0  0  0  0  0  0  0  0999 V2000
    2.1255   -0.6844    0.2014 C   0  0  0  0  0  0  0  0  0  0  0  0
    1.1499   -0.1383   -0.6318 O   0  0  0  0  0  0  0  0  0  0  0  0
    0.2313    0.5258    0.1364 C   0  0  0  0  0  0  0  0  0  0  0  0
   -0.5622   -0.1714    1.1869 C   0  0  0  0  0  0  0  0  0  0  0  0
   -1.1950    0.2652   -0.0709 C   0  0  0  0  0  0  0  0  0  0  0  0
   -1.6837   -0.6812   -1.1097 C   0  0  0  0  0  0  0  0  0  0  0  0
   -1.3927    1.6276   -0.2602 O   0  0  0  0  0  0  0  0  0  0  0  0
   -0.0430    1.9544   -0.0306 C   0  0  0  0  0  0  0  0  0  0  0  0
    0.6665    2.9895    0.0206 O   0  0  0  0  0  0  0  0  0  0  0  0
    2.8854   -1.2315   -0.4084 H   0  0  0  0  0  0  0  0  0  0  0  0
    2.6981    0.1661    0.6645 H   0  0  0  0  0  0  0  0  0  0  0  0
    1.7174   -1.2746    1.0290 H   0  0  0  0  0  0  0  0  0  0  0  0
   -0.2893   -1.2038    1.3978 H   0  0  0  0  0  0  0  0  0  0  0  0
   -0.7959    0.4492    2.0813 H   0  0  0  0  0  0  0  0  0  0  0  0
   -1.1582   -0.4327   -2.0733 H   0  0  0  0  0  0  0  0  0  0  0  0
   -1.5872   -1.7280   -0.8261 H   0  0  0  0  0  0  0  0  0  0  0  0
   -2.7670   -0.4319   -1.3069 H   0  0  0  0  0  0  0  0  0  0  0  0
  1  2  1  0
  2  3  1  0
  3  4  1  0
  4  5  1  0
  5  6  1  0
  5  7  1  0
  7  8  1  0
  8  9  2  0
  5  3  1  0
  8  3  1  0
  1 10  1  0
  1 11  1  0
  1 12  1  0
  4 13  1  0
  4 14  1  0
  6 15  1  0
  6 16  1  0
  6 17  1  0
M  END
