
     RDKit          3D

 21 21  0  0  0  0  0  0  0  0999 V2000
    2.5872   -0.0981   -0.4803 C   0  0  0  0  0  0  0  0  0  0  0  0
    1.2615   -0.3035   -0.8303 O   0  0  0  0  0  0  0  0  0  0  0  0
    0.4596   -0.5445    0.2951 C   0  0  0  0  0  0  0  0  0  0  0  0
   -0.1189   -1.7785    0.2648 O   0  0  0  0  0  0  0  0  0  0  0  0
   -1.4804   -1.8125    0.1453 C   0  0  0  0  0  0  0  0  0  0  0  0
   -2.0076   -0.7795   -0.8230 C   0  0  0  0  0  0  0  0  0  0  0  0
   -1.5238    0.4523   -0.6429 C   0  0  0  0  0  0  0  0  0  0  0  0
   -0.5552    0.5739    0.4798 C   0  0  0  0  0  0  0  0  0  0  0  0
    0.1170    1.9091    0.5170 C   0  0  0  0  0  0  0  0  0  0  0  0
    3.1664    0.0840   -1.3857 H   0  0  0  0  0  0  0  0  0  0  0  0
    2.6861    0.7895    0.1738 H   0  0  0  0  0  0  0  0  0  0  0  0
    2.9974   -0.9939    0.0442 H   0  0  0  0  0  0  0  0  0  0  0  0
    1.1333   -0.5018    1.1825 H   0  0  0  0  0  0  0  0  0  0  0  0
   -1.7786   -2.7954   -0.2642 H   0  0  0  0  0  0  0  0  0  0  0  0
   -1.9902   -1.5911    1.1175 H   0  0  0  0  0  0  0  0  0  0  0  0
   -2.7107   -1.0149   -1.5901 H   0  0  0  0  0  0  0  0  0  0  0  0
   -1.8299    1.2744   -1.2773 H   0  0  0  0  0  0  0  0  0  0  0  0
   -1.1089    0.3645    1.4114 H   0  0  0  0  0  0  0  0  0  0  0  0
   -0.6728    2.6584    0.8175 H   0  0  0  0  0  0  0  0  0  0  0  0
    0.8874    1.8977    1.3116 H   0  0  0  0  0  0  0  0  0  0  0  0
    0.4812    2.2098   -0.4668 H   0  0  0  0  0  0  0  0  0  0  0  0
  1  2  1  0
  2  3  1  0
  3  4  1  0
  4  5  1  0
  5  6  1  0
  6  7  2  0
  7  8  1  0
  8  9  1  0
  8  3  1  0
  1 10  1  0
  1 11  1  0
  1 12  1  0
  3 13  1  0
  5 14  1  0
  5 15  1  0
  6 16  1  0
  7 17  1  0
  8 18  1  0
  9 19  1  0
  9 20  1  0
  9 21  1  0
M  END
