
     RDKit          3D

 19 21  0  0  0  0  0  0  0  0999 V2000
    3.2278   -0.0537    0.1463 C   0  0  0  0  0  0  0  0  0  0  0  0
    2.0470    0.6672    0.2171 O   0  0  0  0  0  0  0  0  0  0  0  0
    0.9195   -0.1051    0.1280 C   0  0  0  0  0  0  0  0  0  0  0  0
   -0.2311    0.2581    1.0232 C   0  0  0  0  0  0  0  0  0  0  0  0
   -0.2818    1.4759    0.3310 O   0  0  0  0  0  0  0  0  0  0  0  0
   -0.2075    0.5159   -0.6567 C   0  0  0  0  0  0  0  0  0  0  0  0
   -1.1491   -0.3045    0.1022 C   0  0  0  0  0  0  0  0  0  0  0  0
   -2.4644   -0.1067    0.7133 C   0  0  0  0  0  0  0  0  0  0  0  0
   -2.3323   -0.3609   -0.6619 C   0  0  0  0  0  0  0  0  0  0  0  0
    3.3257   -0.6201   -0.8179 H   0  0  0  0  0  0  0  0  0  0  0  0
    3.3108   -0.7531    0.9812 H   0  0  0  0  0  0  0  0  0  0  0  0
    4.0679    0.6865    0.1336 H   0  0  0  0  0  0  0  0  0  0  0  0
    1.0517   -1.1885    0.0125 H   0  0  0  0  0  0  0  0  0  0  0  0
   -0.1726    0.2290    2.0531 H   0  0  0  0  0  0  0  0  0  0  0  0
   -0.1669    0.6996   -1.6642 H   0  0  0  0  0  0  0  0  0  0  0  0
   -2.8453    0.8686    1.0771 H   0  0  0  0  0  0  0  0  0  0  0  0
   -2.7539   -0.9397    1.3966 H   0  0  0  0  0  0  0  0  0  0  0  0
   -2.7702    0.4096   -1.3695 H   0  0  0  0  0  0  0  0  0  0  0  0
   -2.5752   -1.3779   -1.1084 H   0  0  0  0  0  0  0  0  0  0  0  0
  1  2  1  0
  2  3  1  0
  3  4  1  0
  4  5  1  0
  5  6  1  0
  6  7  1  0
  7  8  1  0
  8  9  1  0
  6  3  1  0
  9  7  1  0
  7  4  1  0
  1 10  1  0
  1 11  1  0
  1 12  1  0
  3 13  1  0
  4 14  1  0
  6 15  1  0
  8 16  1  0
  8 17  1  0
  9 18  1  0
  9 19  1  0
M  END
