
     RDKit          3D

 23 24  0  0  0  0  0  0  0  0999 V2000
    2.7661   -0.2971   -0.9908 C   0  0  0  0  0  0  0  0  0  0  0  0
    1.6218   -0.6616   -0.2980 O   0  0  0  0  0  0  0  0  0  0  0  0
    1.0883    0.4331    0.3598 C   0  0  0  0  0  0  0  0  0  0  0  0
    0.6883    0.1423    1.8093 C   0  0  0  0  0  0  0  0  0  0  0  0
   -0.4908    1.0619    1.5660 C   0  0  0  0  0  0  0  0  0  0  0  0
   -0.4101    0.6484    0.1099 C   0  0  0  0  0  0  0  0  0  0  0  0
   -1.1438   -0.6382   -0.1855 C   0  0  0  0  0  0  0  0  0  0  0  0
   -2.6056   -0.5080   -0.4390 C   0  0  0  0  0  0  0  0  0  0  0  0
   -1.6770   -0.7809   -1.6151 C   0  0  0  0  0  0  0  0  0  0  0  0
    2.4987    0.4807   -1.7272 H   0  0  0  0  0  0  0  0  0  0  0  0
    3.1399   -1.1743   -1.5536 H   0  0  0  0  0  0  0  0  0  0  0  0
    3.5899    0.0267   -0.3213 H   0  0  0  0  0  0  0  0  0  0  0  0
    1.6083    1.3839    0.2528 H   0  0  0  0  0  0  0  0  0  0  0  0
    1.4634    0.5325    2.4797 H   0  0  0  0  0  0  0  0  0  0  0  0
    0.4345   -0.9017    2.0127 H   0  0  0  0  0  0  0  0  0  0  0  0
   -0.1629    2.1319    1.6709 H   0  0  0  0  0  0  0  0  0  0  0  0
   -1.4136    0.8077    2.0907 H   0  0  0  0  0  0  0  0  0  0  0  0
   -0.6389    1.4717   -0.5666 H   0  0  0  0  0  0  0  0  0  0  0  0
   -0.7994   -1.5617    0.2933 H   0  0  0  0  0  0  0  0  0  0  0  0
   -3.0954    0.4891   -0.3964 H   0  0  0  0  0  0  0  0  0  0  0  0
   -3.2939   -1.3550   -0.1789 H   0  0  0  0  0  0  0  0  0  0  0  0
   -1.6967   -1.7928   -2.0545 H   0  0  0  0  0  0  0  0  0  0  0  0
   -1.4713    0.0615   -2.3182 H   0  0  0  0  0  0  0  0  0  0  0  0
  1  2  1  0
  2  3  1  0
  3  4  1  0
  4  5  1  0
  5  6  1  0
  6  7  1  0
  7  8  1  0
  8  9  1  0
  6  3  1  0
  9  7  1  0
  1 10  1  0
  1 11  1  0
  1 12  1  0
  3 13  1  0
  4 14  1  0
  4 15  1  0
  5 16  1  0
  5 17  1  0
  6 18  1  0
  7 19  1  0
  8 20  1  0
  8 21  1  0
  9 22  1  0
  9 23  1  0
M  END
