
     RDKit          3D

 19 20  0  0  0  0  0  0  0  0999 V2000
    2.7191    0.4914   -0.2594 C   0  0  0  0  0  0  0  0  0  0  0  0
    1.8149   -0.3889    0.3278 O   0  0  0  0  0  0  0  0  0  0  0  0
    0.4926    0.0488    0.1730 C   0  0  0  0  0  0  0  0  0  0  0  0
    0.2041    1.3716    0.7718 C   0  0  0  0  0  0  0  0  0  0  0  0
   -0.9077    1.8426    0.6999 O   0  0  0  0  0  0  0  0  0  0  0  0
   -0.4923   -1.0434    0.5675 C   0  0  0  0  0  0  0  0  0  0  0  0
   -1.9532   -0.6781    0.6514 C   0  0  0  0  0  0  0  0  0  0  0  0
   -1.8599   -0.2341   -0.7734 C   0  0  0  0  0  0  0  0  0  0  0  0
   -0.3754   -0.5005   -0.8563 C   0  0  0  0  0  0  0  0  0  0  0  0
    2.4383    0.5238   -1.3517 H   0  0  0  0  0  0  0  0  0  0  0  0
    2.7543    1.4743    0.2008 H   0  0  0  0  0  0  0  0  0  0  0  0
    3.7231    0.0198   -0.2421 H   0  0  0  0  0  0  0  0  0  0  0  0
    0.9484    1.9697    1.2896 H   0  0  0  0  0  0  0  0  0  0  0  0
   -0.1649   -2.0694    0.6919 H   0  0  0  0  0  0  0  0  0  0  0  0
   -2.2489    0.0736    1.3878 H   0  0  0  0  0  0  0  0  0  0  0  0
   -2.5446   -1.6160    0.8157 H   0  0  0  0  0  0  0  0  0  0  0  0
   -2.4590   -0.9036   -1.4765 H   0  0  0  0  0  0  0  0  0  0  0  0
   -2.0755    0.8321   -0.9837 H   0  0  0  0  0  0  0  0  0  0  0  0
   -0.0133   -1.2138   -1.6340 H   0  0  0  0  0  0  0  0  0  0  0  0
  1  2  1  0
  2  3  1  0
  3  4  1  0
  4  5  2  0
  3  6  1  0
  6  7  1  0
  7  8  1  0
  8  9  1  0
  9  3  1  0
  9  6  1  0
  1 10  1  0
  1 11  1  0
  1 12  1  0
  4 13  1  0
  6 14  1  0
  7 15  1  0
  7 16  1  0
  8 17  1  0
  8 18  1  0
  9 19  1  0
M  END
