
     RDKit          3D

 18 19  0  0  0  0  0  0  0  0999 V2000
    2.7742    0.0795    0.1901 C   0  0  0  0  0  0  0  0  0  0  0  0
    1.5198   -0.4646    0.5263 O   0  0  0  0  0  0  0  0  0  0  0  0
    0.5433   -0.0335   -0.3417 C   0  0  0  0  0  0  0  0  0  0  0  0
   -0.4130   -1.1512   -0.8704 C   0  0  0  0  0  0  0  0  0  0  0  0
   -0.8677   -0.0568   -0.0546 C   0  0  0  0  0  0  0  0  0  0  0  0
   -1.8780    0.9489   -0.3599 C   0  0  0  0  0  0  0  0  0  0  0  0
   -2.7252    0.3355    0.5944 O   0  0  0  0  0  0  0  0  0  0  0  0
   -1.5450   -0.1089    1.2350 C   0  0  0  0  0  0  0  0  0  0  0  0
    3.0535   -0.2365   -0.8471 H   0  0  0  0  0  0  0  0  0  0  0  0
    3.5343   -0.2771    0.9073 H   0  0  0  0  0  0  0  0  0  0  0  0
    2.7546    1.1960    0.2511 H   0  0  0  0  0  0  0  0  0  0  0  0
    0.9034    0.6522   -1.1384 H   0  0  0  0  0  0  0  0  0  0  0  0
   -0.5957   -1.1594   -1.9540 H   0  0  0  0  0  0  0  0  0  0  0  0
   -0.2737   -2.1534   -0.3851 H   0  0  0  0  0  0  0  0  0  0  0  0
   -2.2425    0.9233   -1.3828 H   0  0  0  0  0  0  0  0  0  0  0  0
   -1.6938    2.0035   -0.0121 H   0  0  0  0  0  0  0  0  0  0  0  0
   -1.6283   -1.1308    1.6549 H   0  0  0  0  0  0  0  0  0  0  0  0
   -1.2203    0.6332    1.9869 H   0  0  0  0  0  0  0  0  0  0  0  0
  1  2  1  0
  2  3  1  0
  3  4  1  0
  4  5  1  0
  5  6  1  0
  6  7  1  0
  7  8  1  0
  5  3  1  0
  8  5  1  0
  1  9  1  0
  1 10  1  0
  1 11  1  0
  3 12  1  0
  4 13  1  0
  4 14  1  0
  6 15  1  0
  6 16  1  0
  8 17  1  0
  8 18  1  0
M  END
