
     RDKit          3D

 21 22  0  0  0  0  0  0  0  0999 V2000
    1.9511   -0.5392    1.2464 C   0  0  0  0  0  0  0  0  0  0  0  0
    0.9746   -0.9053    0.3388 O   0  0  0  0  0  0  0  0  0  0  0  0
    0.5736    0.2280   -0.3707 C   0  0  0  0  0  0  0  0  0  0  0  0
   -0.0025    1.2839    0.4600 C   0  0  0  0  0  0  0  0  0  0  0  0
   -1.2364    0.6377    1.0674 C   0  0  0  0  0  0  0  0  0  0  0  0
   -1.8432   -0.4065    0.5135 C   0  0  0  0  0  0  0  0  0  0  0  0
   -1.3744   -1.0456   -0.7555 C   0  0  0  0  0  0  0  0  0  0  0  0
   -0.5797    0.0016   -1.4213 C   0  0  0  0  0  0  0  0  0  0  0  0
    0.7779    0.1416   -1.7900 C   0  0  0  0  0  0  0  0  0  0  0  0
    2.8434   -0.0773    0.7526 H   0  0  0  0  0  0  0  0  0  0  0  0
    2.3887   -1.4582    1.7405 H   0  0  0  0  0  0  0  0  0  0  0  0
    1.6271    0.1616    2.0341 H   0  0  0  0  0  0  0  0  0  0  0  0
    0.5799    1.6582    1.2963 H   0  0  0  0  0  0  0  0  0  0  0  0
   -0.4384    2.1158   -0.1601 H   0  0  0  0  0  0  0  0  0  0  0  0
   -1.6385    1.0526    1.9993 H   0  0  0  0  0  0  0  0  0  0  0  0
   -2.7337   -0.8090    1.0266 H   0  0  0  0  0  0  0  0  0  0  0  0
   -0.7570   -1.9330   -0.4878 H   0  0  0  0  0  0  0  0  0  0  0  0
   -2.2911   -1.3365   -1.3162 H   0  0  0  0  0  0  0  0  0  0  0  0
   -1.2392    0.8994   -1.6336 H   0  0  0  0  0  0  0  0  0  0  0  0
    1.3186   -0.7319   -2.2052 H   0  0  0  0  0  0  0  0  0  0  0  0
    1.0993    1.0621   -2.3352 H   0  0  0  0  0  0  0  0  0  0  0  0
  1  2  1  0
  2  3  1  0
  3  4  1  0
  4  5  1  0
  5  6  2  0
  6  7  1  0
  7  8  1  0
  8  9  1  0
  8  3  1  0
  9  3  1  0
  1 10  1  0
  1 11  1  0
  1 12  1  0
  4 13  1  0
  4 14  1  0
  5 15  1  0
  6 16  1  0
  7 17  1  0
  7 18  1  0
  8 19  1  0
  9 20  1  0
  9 21  1  0
M  END
