
     RDKit          3D

 21 22  0  0  0  0  0  0  0  0999 V2000
    3.1624   -0.8279    0.3605 C   0  0  0  0  0  0  0  0  0  0  0  0
    1.9028   -0.8188   -0.1757 O   0  0  0  0  0  0  0  0  0  0  0  0
    1.1050    0.2321    0.2769 C   0  0  0  0  0  0  0  0  0  0  0  0
    0.2838    0.9726   -0.6159 C   0  0  0  0  0  0  0  0  0  0  0  0
   -0.9084    1.8160   -0.5041 C   0  0  0  0  0  0  0  0  0  0  0  0
   -1.9508    0.8790   -0.6838 O   0  0  0  0  0  0  0  0  0  0  0  0
   -1.4160   -0.3937   -0.3639 C   0  0  0  0  0  0  0  0  0  0  0  0
   -2.4533   -1.1594    0.4097 C   0  0  0  0  0  0  0  0  0  0  0  0
   -0.2562   -0.0305    0.4882 C   0  0  0  0  0  0  0  0  0  0  0  0
    3.0897   -0.9204    1.4824 H   0  0  0  0  0  0  0  0  0  0  0  0
    3.7589   -1.6902    0.0281 H   0  0  0  0  0  0  0  0  0  0  0  0
    3.7283    0.1291    0.1656 H   0  0  0  0  0  0  0  0  0  0  0  0
    1.6836    0.8698    1.0117 H   0  0  0  0  0  0  0  0  0  0  0  0
    0.3107    0.5507   -1.6711 H   0  0  0  0  0  0  0  0  0  0  0  0
   -0.9633    2.6485   -1.2029 H   0  0  0  0  0  0  0  0  0  0  0  0
   -1.0768    2.2236    0.5294 H   0  0  0  0  0  0  0  0  0  0  0  0
   -1.0582   -0.9195   -1.2651 H   0  0  0  0  0  0  0  0  0  0  0  0
   -3.1568   -1.6808   -0.2915 H   0  0  0  0  0  0  0  0  0  0  0  0
   -2.0290   -1.8912    1.1176 H   0  0  0  0  0  0  0  0  0  0  0  0
   -3.0727   -0.4530    0.9975 H   0  0  0  0  0  0  0  0  0  0  0  0
   -0.6839    0.4639    1.4184 H   0  0  0  0  0  0  0  0  0  0  0  0
  1  2  1  0
  2  3  1  0
  3  4  1  0
  4  5  1  0
  5  6  1  0
  6  7  1  0
  7  8  1  0
  7  9  1  0
  9  3  1  0
  9  4  1  0
  1 10  1  0
  1 11  1  0
  1 12  1  0
  3 13  1  0
  4 14  1  0
  5 15  1  0
  5 16  1  0
  7 17  1  0
  8 18  1  0
  8 19  1  0
  8 20  1  0
  9 21  1  0
M  END
