
     RDKit          3D

 23 23  0  0  0  0  0  0  0  0999 V2000
    2.4932    0.7645    0.3482 C   0  0  0  0  0  0  0  0  0  0  0  0
    1.1424    1.0575    0.2700 O   0  0  0  0  0  0  0  0  0  0  0  0
    0.3300   -0.0298    0.1428 C   0  0  0  0  0  0  0  0  0  0  0  0
    0.5824   -0.8779   -1.0883 C   0  0  0  0  0  0  0  0  0  0  0  0
    0.0991   -0.8684    1.3717 C   0  0  0  0  0  0  0  0  0  0  0  0
   -1.3744   -0.8691    1.0027 C   0  0  0  0  0  0  0  0  0  0  0  0
   -1.1249    0.4093    0.2826 C   0  0  0  0  0  0  0  0  0  0  0  0
   -1.7292    0.5701   -1.0752 C   0  0  0  0  0  0  0  0  0  0  0  0
   -1.2854    1.5296    1.0828 O   0  0  0  0  0  0  0  0  0  0  0  0
    2.7604    0.1235    1.2041 H   0  0  0  0  0  0  0  0  0  0  0  0
    3.0568    1.7197    0.3546 H   0  0  0  0  0  0  0  0  0  0  0  0
    2.7531    0.1965   -0.5706 H   0  0  0  0  0  0  0  0  0  0  0  0
   -0.1973   -1.6646   -1.1563 H   0  0  0  0  0  0  0  0  0  0  0  0
    1.5430   -1.4012   -0.9506 H   0  0  0  0  0  0  0  0  0  0  0  0
    0.5530   -0.3048   -2.0172 H   0  0  0  0  0  0  0  0  0  0  0  0
    0.5502   -1.8784    1.3530 H   0  0  0  0  0  0  0  0  0  0  0  0
    0.2463   -0.2754    2.2853 H   0  0  0  0  0  0  0  0  0  0  0  0
   -1.6875   -1.7422    0.3736 H   0  0  0  0  0  0  0  0  0  0  0  0
   -2.0255   -0.7452    1.9011 H   0  0  0  0  0  0  0  0  0  0  0  0
   -2.7762    0.9364   -1.0527 H   0  0  0  0  0  0  0  0  0  0  0  0
   -1.6755   -0.3539   -1.6642 H   0  0  0  0  0  0  0  0  0  0  0  0
   -1.1002    1.3324   -1.6059 H   0  0  0  0  0  0  0  0  0  0  0  0
   -1.1341    2.3715    0.6103 H   0  0  0  0  0  0  0  0  0  0  0  0
  1  2  1  0
  2  3  1  0
  3  4  1  0
  3  5  1  0
  5  6  1  0
  6  7  1  0
  7  8  1  0
  7  9  1  0
  7  3  1  0
  1 10  1  0
  1 11  1  0
  1 12  1  0
  4 13  1  0
  4 14  1  0
  4 15  1  0
  5 16  1  0
  5 17  1  0
  6 18  1  0
  6 19  1  0
  8 20  1  0
  8 21  1  0
  8 22  1  0
  9 23  1  0
M  END
