
     RDKit          3D

 19 20  0  0  0  0  0  0  0  0999 V2000
   -2.9537   -0.2371   -0.9063 C   0  0  0  0  0  0  0  0  0  0  0  0
   -1.6515    0.2708   -1.0766 O   0  0  0  0  0  0  0  0  0  0  0  0
   -0.8020   -0.3903   -0.2405 C   0  0  0  0  0  0  0  0  0  0  0  0
    0.4482   -0.9248   -0.8093 C   0  0  0  0  0  0  0  0  0  0  0  0
    0.7457   -1.5981   -1.8029 O   0  0  0  0  0  0  0  0  0  0  0  0
    1.2981   -0.3600    0.2628 C   0  0  0  0  0  0  0  0  0  0  0  0
    2.5647    0.3580   -0.0828 C   0  0  0  0  0  0  0  0  0  0  0  0
    0.8262   -0.2587    1.6527 C   0  0  0  0  0  0  0  0  0  0  0  0
    0.0683    0.4995    0.6561 C   0  0  0  0  0  0  0  0  0  0  0  0
   -3.2923   -0.0951    0.1486 H   0  0  0  0  0  0  0  0  0  0  0  0
   -2.8804   -1.3409   -1.0663 H   0  0  0  0  0  0  0  0  0  0  0  0
   -3.6620    0.1980   -1.6417 H   0  0  0  0  0  0  0  0  0  0  0  0
   -1.3035   -1.1703    0.3828 H   0  0  0  0  0  0  0  0  0  0  0  0
    3.0717   -0.0531   -0.9816 H   0  0  0  0  0  0  0  0  0  0  0  0
    2.3798    1.4582   -0.2226 H   0  0  0  0  0  0  0  0  0  0  0  0
    3.2455    0.3004    0.8164 H   0  0  0  0  0  0  0  0  0  0  0  0
    1.4430    0.2851    2.3595 H   0  0  0  0  0  0  0  0  0  0  0  0
    0.2520   -1.1024    2.1386 H   0  0  0  0  0  0  0  0  0  0  0  0
    0.2022    1.5439    0.4128 H   0  0  0  0  0  0  0  0  0  0  0  0
  1  2  1  0
  2  3  1  0
  3  4  1  0
  4  5  2  0
  4  6  1  0
  6  7  1  0
  6  8  1  0
  8  9  1  0
  9  3  1  0
  9  6  1  0
  1 10  1  0
  1 11  1  0
  1 12  1  0
  3 13  1  0
  7 14  1  0
  7 15  1  0
  7 16  1  0
  8 17  1  0
  8 18  1  0
  9 19  1  0
M  END
