
     RDKit          3D

 23 23  0  0  0  0  0  0  0  0999 V2000
    3.4767    0.1600   -0.3501 C   0  0  0  0  0  0  0  0  0  0  0  0
    2.2405    0.3236   -0.9700 O   0  0  0  0  0  0  0  0  0  0  0  0
    1.1808    0.1871   -0.0799 C   0  0  0  0  0  0  0  0  0  0  0  0
    0.2978   -0.9242   -0.6133 C   0  0  0  0  0  0  0  0  0  0  0  0
   -1.1303   -0.4150   -0.3802 C   0  0  0  0  0  0  0  0  0  0  0  0
   -1.8825   -1.4820    0.3529 C   0  0  0  0  0  0  0  0  0  0  0  0
   -0.8522    0.8064    0.4757 C   0  0  0  0  0  0  0  0  0  0  0  0
   -1.9971    1.7485    0.3434 C   0  0  0  0  0  0  0  0  0  0  0  0
    0.3316    1.2739   -0.0897 O   0  0  0  0  0  0  0  0  0  0  0  0
    3.5797   -0.8438    0.1159 H   0  0  0  0  0  0  0  0  0  0  0  0
    4.2348    0.1799   -1.1817 H   0  0  0  0  0  0  0  0  0  0  0  0
    3.6936    0.9852    0.3576 H   0  0  0  0  0  0  0  0  0  0  0  0
    1.5496   -0.0246    0.9416 H   0  0  0  0  0  0  0  0  0  0  0  0
    0.4967   -1.8224    0.0003 H   0  0  0  0  0  0  0  0  0  0  0  0
    0.4207   -1.1023   -1.6839 H   0  0  0  0  0  0  0  0  0  0  0  0
   -1.6029   -0.1022   -1.3301 H   0  0  0  0  0  0  0  0  0  0  0  0
   -2.0207   -1.2484    1.4241 H   0  0  0  0  0  0  0  0  0  0  0  0
   -2.8630   -1.6154   -0.1705 H   0  0  0  0  0  0  0  0  0  0  0  0
   -1.3739   -2.4727    0.3140 H   0  0  0  0  0  0  0  0  0  0  0  0
   -0.7341    0.4841    1.5237 H   0  0  0  0  0  0  0  0  0  0  0  0
   -2.9444    1.1482    0.4395 H   0  0  0  0  0  0  0  0  0  0  0  0
   -2.0627    2.4958    1.1815 H   0  0  0  0  0  0  0  0  0  0  0  0
   -2.0386    2.2604   -0.6208 H   0  0  0  0  0  0  0  0  0  0  0  0
  1  2  1  0
  2  3  1  0
  3  4  1  0
  4  5  1  0
  5  6  1  0
  5  7  1  0
  7  8  1  0
  7  9  1  0
  9  3  1  0
  1 10  1  0
  1 11  1  0
  1 12  1  0
  3 13  1  0
  4 14  1  0
  4 15  1  0
  5 16  1  0
  6 17  1  0
  6 18  1  0
  6 19  1  0
  7 20  1  0
  8 21  1  0
  8 22  1  0
  8 23  1  0
M  END
