
     RDKit          3D

 18 18  0  0  0  0  0  0  0  0999 V2000
    2.7045   -0.0962    0.2490 C   0  0  0  0  0  0  0  0  0  0  0  0
    1.4502    0.3997    0.5718 O   0  0  0  0  0  0  0  0  0  0  0  0
    0.4145   -0.3039    0.0135 C   0  0  0  0  0  0  0  0  0  0  0  0
   -0.3374    0.6464   -0.9273 C   0  0  0  0  0  0  0  0  0  0  0  0
   -1.7114    0.8026   -0.3638 C   0  0  0  0  0  0  0  0  0  0  0  0
   -1.9414   -0.4931    0.3773 C   0  0  0  0  0  0  0  0  0  0  0  0
   -0.6137   -0.7415    0.9864 C   0  0  0  0  0  0  0  0  0  0  0  0
   -0.4094   -1.2165    2.0816 O   0  0  0  0  0  0  0  0  0  0  0  0
    2.8451   -0.0659   -0.8632 H   0  0  0  0  0  0  0  0  0  0  0  0
    2.8896   -1.1142    0.6122 H   0  0  0  0  0  0  0  0  0  0  0  0
    3.4504    0.5969    0.6935 H   0  0  0  0  0  0  0  0  0  0  0  0
    0.7482   -1.1618   -0.6105 H   0  0  0  0  0  0  0  0  0  0  0  0
    0.1368    1.6510   -0.9452 H   0  0  0  0  0  0  0  0  0  0  0  0
   -0.4032    0.2431   -1.9459 H   0  0  0  0  0  0  0  0  0  0  0  0
   -2.5024    0.9190   -1.1280 H   0  0  0  0  0  0  0  0  0  0  0  0
   -1.7560    1.6266    0.3935 H   0  0  0  0  0  0  0  0  0  0  0  0
   -2.2185   -1.3134   -0.3207 H   0  0  0  0  0  0  0  0  0  0  0  0
   -2.7462   -0.3786    1.1258 H   0  0  0  0  0  0  0  0  0  0  0  0
  1  2  1  0
  2  3  1  0
  3  4  1  0
  4  5  1  0
  5  6  1  0
  6  7  1  0
  7  8  2  0
  7  3  1  0
  1  9  1  0
  1 10  1  0
  1 11  1  0
  3 12  1  0
  4 13  1  0
  4 14  1  0
  5 15  1  0
  5 16  1  0
  6 17  1  0
  6 18  1  0
M  END
