
     RDKit          3D

 17 18  0  0  0  0  0  0  0  0999 V2000
    2.3433   -0.6071    0.2370 C   0  0  0  0  0  0  0  0  0  0  0  0
    1.2578    0.2409    0.3884 O   0  0  0  0  0  0  0  0  0  0  0  0
    0.3658    0.1683   -0.6781 C   0  0  0  0  0  0  0  0  0  0  0  0
   -0.1148    1.5003   -1.1555 C   0  0  0  0  0  0  0  0  0  0  0  0
    0.2623    2.2970   -1.9881 O   0  0  0  0  0  0  0  0  0  0  0  0
   -1.2307    1.3668   -0.1494 C   0  0  0  0  0  0  0  0  0  0  0  0
   -1.0120   -0.0890   -0.1512 C   0  0  0  0  0  0  0  0  0  0  0  0
   -1.8278   -1.1598   -0.3478 C   0  0  0  0  0  0  0  0  0  0  0  0
   -1.1601   -0.8852    0.9520 O   0  0  0  0  0  0  0  0  0  0  0  0
    2.9486   -0.4212   -0.6442 H   0  0  0  0  0  0  0  0  0  0  0  0
    2.9643   -0.5112    1.1469 H   0  0  0  0  0  0  0  0  0  0  0  0
    1.9439   -1.6451    0.2453 H   0  0  0  0  0  0  0  0  0  0  0  0
    0.6464   -0.5429   -1.4789 H   0  0  0  0  0  0  0  0  0  0  0  0
   -2.1887    1.7615   -0.5052 H   0  0  0  0  0  0  0  0  0  0  0  0
   -0.8548    1.8282    0.8103 H   0  0  0  0  0  0  0  0  0  0  0  0
   -1.4272   -2.1480   -0.6991 H   0  0  0  0  0  0  0  0  0  0  0  0
   -2.9165   -1.1535   -0.2735 H   0  0  0  0  0  0  0  0  0  0  0  0
  1  2  1  0
  2  3  1  0
  3  4  1  0
  4  5  2  0
  4  6  1  0
  6  7  1  0
  7  8  1  0
  8  9  1  0
  7  3  1  0
  9  7  1  0
  1 10  1  0
  1 11  1  0
  1 12  1  0
  3 13  1  0
  6 14  1  0
  6 15  1  0
  8 16  1  0
  8 17  1  0
M  END
