
     RDKit          3D

 19 20  0  0  0  0  0  0  0  0999 V2000
    2.9382    0.0566   -0.4621 C   0  0  0  0  0  0  0  0  0  0  0  0
    1.9412    0.2440    0.4991 O   0  0  0  0  0  0  0  0  0  0  0  0
    0.6899   -0.0061   -0.0433 C   0  0  0  0  0  0  0  0  0  0  0  0
    0.0294   -1.0900    0.7831 C   0  0  0  0  0  0  0  0  0  0  0  0
   -1.2293   -1.3849    0.3456 O   0  0  0  0  0  0  0  0  0  0  0  0
   -1.9703   -0.3530   -0.1291 C   0  0  0  0  0  0  0  0  0  0  0  0
   -2.3516    0.7433    0.8219 C   0  0  0  0  0  0  0  0  0  0  0  0
   -1.3575    0.9394   -0.3196 C   0  0  0  0  0  0  0  0  0  0  0  0
   -0.0693    1.1305    0.0779 O   0  0  0  0  0  0  0  0  0  0  0  0
    2.8556   -1.0154   -0.7915 H   0  0  0  0  0  0  0  0  0  0  0  0
    2.7524    0.7636   -1.2885 H   0  0  0  0  0  0  0  0  0  0  0  0
    3.9117    0.2124    0.0456 H   0  0  0  0  0  0  0  0  0  0  0  0
    0.7352   -0.2980   -1.1086 H   0  0  0  0  0  0  0  0  0  0  0  0
    0.6822   -2.0044    0.6838 H   0  0  0  0  0  0  0  0  0  0  0  0
    0.0867   -0.7900    1.8516 H   0  0  0  0  0  0  0  0  0  0  0  0
   -2.7261   -0.6611   -0.9123 H   0  0  0  0  0  0  0  0  0  0  0  0
   -3.2902    1.2966    0.6964 H   0  0  0  0  0  0  0  0  0  0  0  0
   -1.9502    0.6376    1.8537 H   0  0  0  0  0  0  0  0  0  0  0  0
   -1.6780    1.5789   -1.1758 H   0  0  0  0  0  0  0  0  0  0  0  0
  1  2  1  0
  2  3  1  0
  3  4  1  0
  4  5  1  0
  5  6  1  0
  6  7  1  0
  7  8  1  0
  8  9  1  0
  9  3  1  0
  8  6  1  0
  1 10  1  0
  1 11  1  0
  1 12  1  0
  3 13  1  0
  4 14  1  0
  4 15  1  0
  6 16  1  0
  7 17  1  0
  7 18  1  0
  8 19  1  0
M  END
