
     RDKit          3D

 21 21  0  0  0  0  0  0  0  0999 V2000
    2.6517    0.1490   -0.3892 C   0  0  0  0  0  0  0  0  0  0  0  0
    1.6443   -0.7343   -0.6008 O   0  0  0  0  0  0  0  0  0  0  0  0
    0.4317   -0.4836   -0.0796 C   0  0  0  0  0  0  0  0  0  0  0  0
    0.3516   -0.3896    1.4196 C   0  0  0  0  0  0  0  0  0  0  0  0
   -0.2696    0.7350   -0.6581 C   0  0  0  0  0  0  0  0  0  0  0  0
   -1.7196    0.3315   -0.5895 C   0  0  0  0  0  0  0  0  0  0  0  0
   -2.3173    1.0344    0.4399 O   0  0  0  0  0  0  0  0  0  0  0  0
   -1.6977   -1.1384   -0.2815 C   0  0  0  0  0  0  0  0  0  0  0  0
   -0.3984   -1.5517   -0.4550 O   0  0  0  0  0  0  0  0  0  0  0  0
    2.3910    1.1571   -0.8036 H   0  0  0  0  0  0  0  0  0  0  0  0
    2.9615    0.3038    0.6488 H   0  0  0  0  0  0  0  0  0  0  0  0
    3.5433   -0.1837   -0.9606 H   0  0  0  0  0  0  0  0  0  0  0  0
   -0.7057   -0.1614    1.6751 H   0  0  0  0  0  0  0  0  0  0  0  0
    0.5743   -1.3816    1.8893 H   0  0  0  0  0  0  0  0  0  0  0  0
    0.9528    0.4272    1.8431 H   0  0  0  0  0  0  0  0  0  0  0  0
    0.0822    0.8631   -1.7011 H   0  0  0  0  0  0  0  0  0  0  0  0
   -0.0537    1.6572   -0.1121 H   0  0  0  0  0  0  0  0  0  0  0  0
   -2.1914    0.5450   -1.5735 H   0  0  0  0  0  0  0  0  0  0  0  0
   -1.8377    1.8959    0.5502 H   0  0  0  0  0  0  0  0  0  0  0  0
   -2.0659   -1.3677    0.7490 H   0  0  0  0  0  0  0  0  0  0  0  0
   -2.3273   -1.7072   -1.0104 H   0  0  0  0  0  0  0  0  0  0  0  0
  1  2  1  0
  2  3  1  0
  3  4  1  0
  3  5  1  0
  5  6  1  0
  6  7  1  0
  6  8  1  0
  8  9  1  0
  9  3  1  0
  1 10  1  0
  1 11  1  0
  1 12  1  0
  4 13  1  0
  4 14  1  0
  4 15  1  0
  5 16  1  0
  5 17  1  0
  6 18  1  0
  7 19  1  0
  8 20  1  0
  8 21  1  0
M  END
