
     RDKit          3D

 23 23  0  0  0  0  0  0  0  0999 V2000
   -2.2243   -1.1636   -0.4176 C   0  0  0  0  0  0  0  0  0  0  0  0
   -1.9617   -0.2805    0.5556 O   0  0  0  0  0  0  0  0  0  0  0  0
   -0.8650    0.5296    0.4292 C   0  0  0  0  0  0  0  0  0  0  0  0
    0.5342    0.0392    0.4276 C   0  0  0  0  0  0  0  0  0  0  0  0
    1.0023   -0.9077   -0.5924 C   0  0  0  0  0  0  0  0  0  0  0  0
    2.5154   -1.1973   -0.4282 C   0  0  0  0  0  0  0  0  0  0  0  0
    3.2553   -0.0465   -0.5508 O   0  0  0  0  0  0  0  0  0  0  0  0
   -0.9943    1.8651    1.2548 C   0  0  0  0  0  0  0  0  0  0  0  0
   -1.1616    1.8461   -0.2399 C   0  0  0  0  0  0  0  0  0  0  0  0
   -2.3214   -0.5990   -1.3904 H   0  0  0  0  0  0  0  0  0  0  0  0
   -1.5713   -2.0178   -0.5280 H   0  0  0  0  0  0  0  0  0  0  0  0
   -3.2743   -1.5777   -0.2002 H   0  0  0  0  0  0  0  0  0  0  0  0
    1.2689    0.9127    0.4366 H   0  0  0  0  0  0  0  0  0  0  0  0
    0.7071   -0.3963    1.4690 H   0  0  0  0  0  0  0  0  0  0  0  0
    0.5839   -1.9447   -0.3905 H   0  0  0  0  0  0  0  0  0  0  0  0
    0.7757   -0.6851   -1.6382 H   0  0  0  0  0  0  0  0  0  0  0  0
    2.7836   -1.8697   -1.2769 H   0  0  0  0  0  0  0  0  0  0  0  0
    2.6260   -1.6747    0.5494 H   0  0  0  0  0  0  0  0  0  0  0  0
    2.8545    0.5989   -1.1820 H   0  0  0  0  0  0  0  0  0  0  0  0
   -1.8925    1.9338    1.8989 H   0  0  0  0  0  0  0  0  0  0  0  0
   -0.0813    2.3054    1.6462 H   0  0  0  0  0  0  0  0  0  0  0  0
   -0.3772    2.3321   -0.8605 H   0  0  0  0  0  0  0  0  0  0  0  0
   -2.1820    1.9976   -0.6326 H   0  0  0  0  0  0  0  0  0  0  0  0
  1  2  1  0
  2  3  1  0
  3  4  1  0
  4  5  1  0
  5  6  1  0
  6  7  1  0
  3  8  1  0
  8  9  1  0
  9  3  1  0
  1 10  1  0
  1 11  1  0
  1 12  1  0
  4 13  1  0
  4 14  1  0
  5 15  1  0
  5 16  1  0
  6 17  1  0
  6 18  1  0
  7 19  1  0
  8 20  1  0
  8 21  1  0
  9 22  1  0
  9 23  1  0
M  END
