
     RDKit          3D

 19 20  0  0  0  0  0  0  0  0999 V2000
    2.1558   -1.1175   -0.6244 C   0  0  0  0  0  0  0  0  0  0  0  0
    1.0450   -0.6006   -1.3218 O   0  0  0  0  0  0  0  0  0  0  0  0
    0.2184   -0.0266   -0.3838 C   0  0  0  0  0  0  0  0  0  0  0  0
    0.7367    1.0896    0.4522 C   0  0  0  0  0  0  0  0  0  0  0  0
   -0.5429    1.8483    0.3120 C   0  0  0  0  0  0  0  0  0  0  0  0
   -1.1300    2.7840    0.7944 O   0  0  0  0  0  0  0  0  0  0  0  0
   -0.8834    0.9097   -0.7863 C   0  0  0  0  0  0  0  0  0  0  0  0
   -1.1821   -0.4763   -0.3513 C   0  0  0  0  0  0  0  0  0  0  0  0
   -1.8589   -0.7320    0.9797 C   0  0  0  0  0  0  0  0  0  0  0  0
    1.8474   -1.8720    0.1163 H   0  0  0  0  0  0  0  0  0  0  0  0
    2.6873   -0.2580   -0.1825 H   0  0  0  0  0  0  0  0  0  0  0  0
    2.8679   -1.6242   -1.3187 H   0  0  0  0  0  0  0  0  0  0  0  0
    1.0426    0.8594    1.4818 H   0  0  0  0  0  0  0  0  0  0  0  0
    1.5229    1.6591   -0.1252 H   0  0  0  0  0  0  0  0  0  0  0  0
   -1.0011    1.2574   -1.8082 H   0  0  0  0  0  0  0  0  0  0  0  0
   -1.5169   -1.1429   -1.1616 H   0  0  0  0  0  0  0  0  0  0  0  0
   -1.9018   -1.8447    1.1169 H   0  0  0  0  0  0  0  0  0  0  0  0
   -2.8939   -0.3775    1.0195 H   0  0  0  0  0  0  0  0  0  0  0  0
   -1.2129   -0.3351    1.7908 H   0  0  0  0  0  0  0  0  0  0  0  0
  1  2  1  0
  2  3  1  0
  3  4  1  0
  4  5  1  0
  5  6  2  0
  5  7  1  0
  7  8  1  0
  8  9  1  0
  7  3  1  0
  8  3  1  0
  1 10  1  0
  1 11  1  0
  1 12  1  0
  4 13  1  0
  4 14  1  0
  7 15  1  0
  8 16  1  0
  9 17  1  0
  9 18  1  0
  9 19  1  0
M  END
