
     RDKit          3D

 19 20  0  0  0  0  0  0  0  0999 V2000
    2.2667   -0.7739   -0.4077 C   0  0  0  0  0  0  0  0  0  0  0  0
    1.7005    0.4310   -0.0499 O   0  0  0  0  0  0  0  0  0  0  0  0
    0.3308    0.4269   -0.0096 C   0  0  0  0  0  0  0  0  0  0  0  0
   -0.0996    1.8489    0.3788 C   0  0  0  0  0  0  0  0  0  0  0  0
   -0.2838    0.1187   -1.2017 O   0  0  0  0  0  0  0  0  0  0  0  0
   -1.5755   -0.2415   -0.9091 C   0  0  0  0  0  0  0  0  0  0  0  0
   -1.5221   -1.0446    0.3476 C   0  0  0  0  0  0  0  0  0  0  0  0
   -0.4422   -1.8520    0.6404 O   0  0  0  0  0  0  0  0  0  0  0  0
   -0.2452   -0.5366    1.0037 C   0  0  0  0  0  0  0  0  0  0  0  0
    2.0164   -1.6058    0.2728 H   0  0  0  0  0  0  0  0  0  0  0  0
    2.0809   -1.0598   -1.4629 H   0  0  0  0  0  0  0  0  0  0  0  0
    3.3814   -0.6398   -0.3181 H   0  0  0  0  0  0  0  0  0  0  0  0
   -1.1748    1.9955    0.2932 H   0  0  0  0  0  0  0  0  0  0  0  0
    0.4006    2.5093   -0.3743 H   0  0  0  0  0  0  0  0  0  0  0  0
    0.2628    2.0374    1.3948 H   0  0  0  0  0  0  0  0  0  0  0  0
   -2.2635    0.6103   -0.7418 H   0  0  0  0  0  0  0  0  0  0  0  0
   -2.0192   -0.8195   -1.7638 H   0  0  0  0  0  0  0  0  0  0  0  0
   -2.4117   -1.2034    0.9667 H   0  0  0  0  0  0  0  0  0  0  0  0
   -0.4027   -0.2011    2.0414 H   0  0  0  0  0  0  0  0  0  0  0  0
  1  2  1  0
  2  3  1  0
  3  4  1  0
  3  5  1  0
  5  6  1  0
  6  7  1  0
  7  8  1  0
  8  9  1  0
  9  3  1  0
  9  7  1  0
  1 10  1  0
  1 11  1  0
  1 12  1  0
  4 13  1  0
  4 14  1  0
  4 15  1  0
  6 16  1  0
  6 17  1  0
  7 18  1  0
  9 19  1  0
M  END
