
     RDKit          3D

 23 24  0  0  0  0  0  0  0  0999 V2000
   -0.4258    2.6718    0.4030 C   0  0  0  0  0  0  0  0  0  0  0  0
    0.4233    1.7794   -0.2937 O   0  0  0  0  0  0  0  0  0  0  0  0
    0.0480    0.5052    0.1229 C   0  0  0  0  0  0  0  0  0  0  0  0
   -1.3660    0.1436   -0.1603 C   0  0  0  0  0  0  0  0  0  0  0  0
   -0.9510   -1.2197   -0.6849 C   0  0  0  0  0  0  0  0  0  0  0  0
   -1.1976   -2.3188    0.3105 C   0  0  0  0  0  0  0  0  0  0  0  0
    0.4682   -0.6896   -0.7262 C   0  0  0  0  0  0  0  0  0  0  0  0
    1.0681   -0.4193    0.5974 C   0  0  0  0  0  0  0  0  0  0  0  0
    2.5039    0.0980    0.5560 C   0  0  0  0  0  0  0  0  0  0  0  0
   -1.4501    2.4085    0.1050 H   0  0  0  0  0  0  0  0  0  0  0  0
   -0.1831    3.7171    0.2058 H   0  0  0  0  0  0  0  0  0  0  0  0
   -0.2925    2.5272    1.5157 H   0  0  0  0  0  0  0  0  0  0  0  0
   -1.7860    0.7316   -1.0241 H   0  0  0  0  0  0  0  0  0  0  0  0
   -2.0839    0.1485    0.6579 H   0  0  0  0  0  0  0  0  0  0  0  0
   -1.2838   -1.4549   -1.7083 H   0  0  0  0  0  0  0  0  0  0  0  0
   -1.7447   -3.1663   -0.1633 H   0  0  0  0  0  0  0  0  0  0  0  0
   -0.2889   -2.6929    0.7915 H   0  0  0  0  0  0  0  0  0  0  0  0
   -1.8485   -1.9144    1.1324 H   0  0  0  0  0  0  0  0  0  0  0  0
    0.9326   -0.4064   -1.6681 H   0  0  0  0  0  0  0  0  0  0  0  0
    0.8839   -1.1039    1.4329 H   0  0  0  0  0  0  0  0  0  0  0  0
    2.4676    1.1901    0.6947 H   0  0  0  0  0  0  0  0  0  0  0  0
    3.1498   -0.4167    1.2915 H   0  0  0  0  0  0  0  0  0  0  0  0
    2.9565   -0.1182   -0.4515 H   0  0  0  0  0  0  0  0  0  0  0  0
  1  2  1  0
  2  3  1  0
  3  4  1  0
  4  5  1  0
  5  6  1  0
  5  7  1  0
  7  8  1  0
  8  9  1  0
  7  3  1  0
  8  3  1  0
  1 10  1  0
  1 11  1  0
  1 12  1  0
  4 13  1  0
  4 14  1  0
  5 15  1  0
  6 16  1  0
  6 17  1  0
  6 18  1  0
  7 19  1  0
  8 20  1  0
  9 21  1  0
  9 22  1  0
  9 23  1  0
M  END
