
     RDKit          3D

 23 23  0  0  0  0  0  0  0  0999 V2000
    2.4417   -0.0795   -0.7414 C   0  0  0  0  0  0  0  0  0  0  0  0
    1.1163   -0.5016   -0.6009 O   0  0  0  0  0  0  0  0  0  0  0  0
    0.5220   -0.0233    0.5384 C   0  0  0  0  0  0  0  0  0  0  0  0
    0.0526   -1.2434    1.3386 C   0  0  0  0  0  0  0  0  0  0  0  0
   -0.9663   -1.9279    0.4883 C   0  0  0  0  0  0  0  0  0  0  0  0
   -1.5937   -1.3539   -0.5169 C   0  0  0  0  0  0  0  0  0  0  0  0
   -1.3835    0.0542   -0.9543 C   0  0  0  0  0  0  0  0  0  0  0  0
   -0.7525    0.7551    0.2401 C   0  0  0  0  0  0  0  0  0  0  0  0
   -0.4873    2.1963    0.0008 C   0  0  0  0  0  0  0  0  0  0  0  0
    2.4848    1.0227   -0.7835 H   0  0  0  0  0  0  0  0  0  0  0  0
    2.8766   -0.4514   -1.6839 H   0  0  0  0  0  0  0  0  0  0  0  0
    3.0853   -0.4741    0.0946 H   0  0  0  0  0  0  0  0  0  0  0  0
    1.1867    0.6168    1.1584 H   0  0  0  0  0  0  0  0  0  0  0  0
   -0.3865   -0.8721    2.2857 H   0  0  0  0  0  0  0  0  0  0  0  0
    0.9446   -1.8799    1.5124 H   0  0  0  0  0  0  0  0  0  0  0  0
   -1.1856   -2.9587    0.7326 H   0  0  0  0  0  0  0  0  0  0  0  0
   -2.3147   -1.9516   -1.0638 H   0  0  0  0  0  0  0  0  0  0  0  0
   -0.6357    0.1030   -1.7941 H   0  0  0  0  0  0  0  0  0  0  0  0
   -2.2850    0.5454   -1.3156 H   0  0  0  0  0  0  0  0  0  0  0  0
   -1.4907    0.6290    1.0823 H   0  0  0  0  0  0  0  0  0  0  0  0
   -1.2151    2.6963   -0.6512 H   0  0  0  0  0  0  0  0  0  0  0  0
   -0.5636    2.7200    0.9990 H   0  0  0  0  0  0  0  0  0  0  0  0
    0.5496    2.3786   -0.3654 H   0  0  0  0  0  0  0  0  0  0  0  0
  1  2  1  0
  2  3  1  0
  3  4  1  0
  4  5  1  0
  5  6  2  0
  6  7  1  0
  7  8  1  0
  8  9  1  0
  8  3  1  0
  1 10  1  0
  1 11  1  0
  1 12  1  0
  3 13  1  0
  4 14  1  0
  4 15  1  0
  5 16  1  0
  6 17  1  0
  7 18  1  0
  7 19  1  0
  8 20  1  0
  9 21  1  0
  9 22  1  0
  9 23  1  0
M  END
