
     RDKit          3D

 23 23  0  0  0  0  0  0  0  0999 V2000
   -2.1432   -1.1701   -0.7012 C   0  0  0  0  0  0  0  0  0  0  0  0
   -1.4954   -0.6936    0.4249 O   0  0  0  0  0  0  0  0  0  0  0  0
   -0.8108    0.4815    0.2185 C   0  0  0  0  0  0  0  0  0  0  0  0
   -1.6511    1.6003   -0.2982 C   0  0  0  0  0  0  0  0  0  0  0  0
    0.4020    0.2913   -0.6796 C   0  0  0  0  0  0  0  0  0  0  0  0
    1.2279   -0.5861    0.2705 C   0  0  0  0  0  0  0  0  0  0  0  0
    2.6577   -0.5509   -0.1337 C   0  0  0  0  0  0  0  0  0  0  0  0
    0.9354    0.1119    1.5690 C   0  0  0  0  0  0  0  0  0  0  0  0
   -0.2125    0.8438    1.4204 O   0  0  0  0  0  0  0  0  0  0  0  0
   -2.6521   -2.1229   -0.3827 H   0  0  0  0  0  0  0  0  0  0  0  0
   -1.4387   -1.4627   -1.4978 H   0  0  0  0  0  0  0  0  0  0  0  0
   -2.9225   -0.5058   -1.0860 H   0  0  0  0  0  0  0  0  0  0  0  0
   -1.1943    2.5666    0.0586 H   0  0  0  0  0  0  0  0  0  0  0  0
   -2.6750    1.5956    0.1287 H   0  0  0  0  0  0  0  0  0  0  0  0
   -1.6471    1.6637   -1.4031 H   0  0  0  0  0  0  0  0  0  0  0  0
    0.1801   -0.1966   -1.6182 H   0  0  0  0  0  0  0  0  0  0  0  0
    0.9189    1.2544   -0.7379 H   0  0  0  0  0  0  0  0  0  0  0  0
    0.8078   -1.6060    0.3323 H   0  0  0  0  0  0  0  0  0  0  0  0
    2.8898   -1.5444   -0.6152 H   0  0  0  0  0  0  0  0  0  0  0  0
    3.3757   -0.4312    0.6901 H   0  0  0  0  0  0  0  0  0  0  0  0
    2.8313    0.1973   -0.9555 H   0  0  0  0  0  0  0  0  0  0  0  0
    1.7720    0.8245    1.8197 H   0  0  0  0  0  0  0  0  0  0  0  0
    0.8440   -0.5608    2.4254 H   0  0  0  0  0  0  0  0  0  0  0  0
  1  2  1  0
  2  3  1  0
  3  4  1  0
  3  5  1  0
  5  6  1  0
  6  7  1  0
  6  8  1  0
  8  9  1  0
  9  3  1  0
  1 10  1  0
  1 11  1  0
  1 12  1  0
  4 13  1  0
  4 14  1  0
  4 15  1  0
  5 16  1  0
  5 17  1  0
  6 18  1  0
  7 19  1  0
  7 20  1  0
  7 21  1  0
  8 22  1  0
  8 23  1  0
M  END
