
     RDKit          3D

 23 24  0  0  0  0  0  0  0  0999 V2000
    3.2269    0.3562   -0.2847 C   0  0  0  0  0  0  0  0  0  0  0  0
    1.8820    0.4670   -0.7071 O   0  0  0  0  0  0  0  0  0  0  0  0
    1.1182   -0.1962    0.2149 C   0  0  0  0  0  0  0  0  0  0  0  0
    0.1304   -1.2172   -0.3717 C   0  0  0  0  0  0  0  0  0  0  0  0
   -0.7654   -0.8457    0.8029 C   0  0  0  0  0  0  0  0  0  0  0  0
   -2.2035   -0.6201    0.4461 C   0  0  0  0  0  0  0  0  0  0  0  0
   -2.1850    0.4563   -0.5950 C   0  0  0  0  0  0  0  0  0  0  0  0
   -0.8997    1.2225   -0.4048 C   0  0  0  0  0  0  0  0  0  0  0  0
   -0.1309    0.5479    0.6903 C   0  0  0  0  0  0  0  0  0  0  0  0
    3.2951    0.8231    0.7166 H   0  0  0  0  0  0  0  0  0  0  0  0
    3.4538   -0.7270   -0.2162 H   0  0  0  0  0  0  0  0  0  0  0  0
    3.9164    0.8652   -0.9573 H   0  0  0  0  0  0  0  0  0  0  0  0
    1.6293   -0.6685    1.0639 H   0  0  0  0  0  0  0  0  0  0  0  0
    0.5426   -2.2272   -0.3491 H   0  0  0  0  0  0  0  0  0  0  0  0
   -0.3355   -0.8695   -1.3047 H   0  0  0  0  0  0  0  0  0  0  0  0
   -0.5465   -1.3427    1.7458 H   0  0  0  0  0  0  0  0  0  0  0  0
   -2.7160   -0.2400    1.3488 H   0  0  0  0  0  0  0  0  0  0  0  0
   -2.7231   -1.5229    0.0965 H   0  0  0  0  0  0  0  0  0  0  0  0
   -2.1885   -0.0345   -1.5904 H   0  0  0  0  0  0  0  0  0  0  0  0
   -3.0519    1.1339   -0.4753 H   0  0  0  0  0  0  0  0  0  0  0  0
   -1.0933    2.2908   -0.1320 H   0  0  0  0  0  0  0  0  0  0  0  0
   -0.3337    1.2652   -1.3674 H   0  0  0  0  0  0  0  0  0  0  0  0
   -0.0218    1.0833    1.6299 H   0  0  0  0  0  0  0  0  0  0  0  0
  1  2  1  0
  2  3  1  0
  3  4  1  0
  4  5  1  0
  5  6  1  0
  6  7  1  0
  7  8  1  0
  8  9  1  0
  9  3  1  0
  9  5  1  0
  1 10  1  0
  1 11  1  0
  1 12  1  0
  3 13  1  0
  4 14  1  0
  4 15  1  0
  5 16  1  0
  6 17  1  0
  6 18  1  0
  7 19  1  0
  7 20  1  0
  8 21  1  0
  8 22  1  0
  9 23  1  0
M  END
