
     RDKit          3D

 19 20  0  0  0  0  0  0  0  0999 V2000
    2.0838    0.8577    0.7469 C   0  0  0  0  0  0  0  0  0  0  0  0
    0.7283    0.8228    0.6011 O   0  0  0  0  0  0  0  0  0  0  0  0
    0.3852   -0.0710   -0.4534 C   0  0  0  0  0  0  0  0  0  0  0  0
    0.7867   -1.3958   -0.2573 C   0  0  0  0  0  0  0  0  0  0  0  0
   -0.6014   -1.2415   -0.0387 C   0  0  0  0  0  0  0  0  0  0  0  0
   -1.4335   -0.3492    0.8065 C   0  0  0  0  0  0  0  0  0  0  0  0
   -1.7302    0.7545   -0.2403 C   0  0  0  0  0  0  0  0  0  0  0  0
   -0.6256    0.5928   -1.2613 C   0  0  0  0  0  0  0  0  0  0  0  0
   -0.6884    0.9599   -2.4124 O   0  0  0  0  0  0  0  0  0  0  0  0
    2.5589   -0.0858    0.9890 H   0  0  0  0  0  0  0  0  0  0  0  0
    2.3270    1.5810    1.5566 H   0  0  0  0  0  0  0  0  0  0  0  0
    2.5446    1.2485   -0.1980 H   0  0  0  0  0  0  0  0  0  0  0  0
    1.3920   -1.6912    0.6308 H   0  0  0  0  0  0  0  0  0  0  0  0
    1.1437   -1.9846   -1.1428 H   0  0  0  0  0  0  0  0  0  0  0  0
   -1.2605   -1.6411   -0.8711 H   0  0  0  0  0  0  0  0  0  0  0  0
   -0.9429    0.0643    1.6885 H   0  0  0  0  0  0  0  0  0  0  0  0
   -2.4152   -0.8076    1.0273 H   0  0  0  0  0  0  0  0  0  0  0  0
   -2.7167    0.6440   -0.6717 H   0  0  0  0  0  0  0  0  0  0  0  0
   -1.5361    1.7421    0.2399 H   0  0  0  0  0  0  0  0  0  0  0  0
  1  2  1  0
  2  3  1  0
  3  4  1  0
  4  5  1  0
  5  6  1  0
  6  7  1  0
  7  8  1  0
  8  9  2  0
  5  3  1  0
  8  3  1  0
  1 10  1  0
  1 11  1  0
  1 12  1  0
  4 13  1  0
  4 14  1  0
  5 15  1  0
  6 16  1  0
  6 17  1  0
  7 18  1  0
  7 19  1  0
M  END
