
     RDKit          3D

 23 23  0  0  0  0  0  0  0  0999 V2000
    3.1307   -0.8256   -0.2769 C   0  0  0  0  0  0  0  0  0  0  0  0
    1.9366   -1.1963    0.3753 O   0  0  0  0  0  0  0  0  0  0  0  0
    1.0144   -0.2105    0.1111 C   0  0  0  0  0  0  0  0  0  0  0  0
    0.3555    0.3350    1.3662 C   0  0  0  0  0  0  0  0  0  0  0  0
   -0.7165    1.2030    0.7382 C   0  0  0  0  0  0  0  0  0  0  0  0
   -1.2078    0.3651   -0.4077 C   0  0  0  0  0  0  0  0  0  0  0  0
   -2.5505   -0.2577   -0.0930 C   0  0  0  0  0  0  0  0  0  0  0  0
   -1.2593    1.0942   -1.6030 O   0  0  0  0  0  0  0  0  0  0  0  0
   -0.2240   -0.7532   -0.6103 C   0  0  0  0  0  0  0  0  0  0  0  0
    2.8707   -0.7628   -1.3534 H   0  0  0  0  0  0  0  0  0  0  0  0
    3.9547   -1.5136   -0.0693 H   0  0  0  0  0  0  0  0  0  0  0  0
    3.3555    0.2064    0.0607 H   0  0  0  0  0  0  0  0  0  0  0  0
    1.3970    0.6056   -0.5186 H   0  0  0  0  0  0  0  0  0  0  0  0
    1.0482    0.8998    1.9983 H   0  0  0  0  0  0  0  0  0  0  0  0
   -0.1327   -0.5208    1.8691 H   0  0  0  0  0  0  0  0  0  0  0  0
   -0.1874    2.1104    0.3516 H   0  0  0  0  0  0  0  0  0  0  0  0
   -1.5175    1.4752    1.4519 H   0  0  0  0  0  0  0  0  0  0  0  0
   -2.6969   -0.3947    0.9825 H   0  0  0  0  0  0  0  0  0  0  0  0
   -3.3436    0.4046   -0.5001 H   0  0  0  0  0  0  0  0  0  0  0  0
   -2.6086   -1.2496   -0.5841 H   0  0  0  0  0  0  0  0  0  0  0  0
   -2.0874    1.6251   -1.6117 H   0  0  0  0  0  0  0  0  0  0  0  0
   -0.0127   -0.9761   -1.6566 H   0  0  0  0  0  0  0  0  0  0  0  0
   -0.5185   -1.6636   -0.0205 H   0  0  0  0  0  0  0  0  0  0  0  0
  1  2  1  0
  2  3  1  0
  3  4  1  0
  4  5  1  0
  5  6  1  0
  6  7  1  0
  6  8  1  0
  6  9  1  0
  9  3  1  0
  1 10  1  0
  1 11  1  0
  1 12  1  0
  3 13  1  0
  4 14  1  0
  4 15  1  0
  5 16  1  0
  5 17  1  0
  7 18  1  0
  7 19  1  0
  7 20  1  0
  8 21  1  0
  9 22  1  0
  9 23  1  0
M  END
