
     RDKit          3D

 20 20  0  0  0  0  0  0  0  0999 V2000
   -3.0937    0.3291    0.2594 C   0  0  0  0  0  0  0  0  0  0  0  0
   -1.8818   -0.2302    0.6324 O   0  0  0  0  0  0  0  0  0  0  0  0
   -0.8483    0.0977   -0.2207 C   0  0  0  0  0  0  0  0  0  0  0  0
   -0.1848   -1.1398   -0.7986 C   0  0  0  0  0  0  0  0  0  0  0  0
    1.2394   -1.0511   -0.2333 C   0  0  0  0  0  0  0  0  0  0  0  0
    1.3516    0.4592   -0.0379 C   0  0  0  0  0  0  0  0  0  0  0  0
    2.4557    0.8333    0.8977 C   0  0  0  0  0  0  0  0  0  0  0  0
    0.1149    0.7742    0.4993 O   0  0  0  0  0  0  0  0  0  0  0  0
   -3.4347    0.0230   -0.7355 H   0  0  0  0  0  0  0  0  0  0  0  0
   -3.0145    1.4367    0.3172 H   0  0  0  0  0  0  0  0  0  0  0  0
   -3.8372    0.0161    1.0444 H   0  0  0  0  0  0  0  0  0  0  0  0
   -1.1623    0.7504   -1.0563 H   0  0  0  0  0  0  0  0  0  0  0  0
   -0.0559   -1.0201   -1.9088 H   0  0  0  0  0  0  0  0  0  0  0  0
   -0.6828   -2.0701   -0.5247 H   0  0  0  0  0  0  0  0  0  0  0  0
    1.9873   -1.4067   -0.9684 H   0  0  0  0  0  0  0  0  0  0  0  0
    1.2983   -1.5908    0.7406 H   0  0  0  0  0  0  0  0  0  0  0  0
    1.4580    0.8974   -1.0447 H   0  0  0  0  0  0  0  0  0  0  0  0
    2.9149   -0.0459    1.3996 H   0  0  0  0  0  0  0  0  0  0  0  0
    3.2587    1.3323    0.2838 H   0  0  0  0  0  0  0  0  0  0  0  0
    2.1170    1.6052    1.6158 H   0  0  0  0  0  0  0  0  0  0  0  0
  1  2  1  0
  2  3  1  0
  3  4  1  0
  4  5  1  0
  5  6  1  0
  6  7  1  0
  6  8  1  0
  8  3  1  0
  1  9  1  0
  1 10  1  0
  1 11  1  0
  3 12  1  0
  4 13  1  0
  4 14  1  0
  5 15  1  0
  5 16  1  0
  6 17  1  0
  7 18  1  0
  7 19  1  0
  7 20  1  0
M  END
