
     RDKit          3D

 23 24  0  0  0  0  0  0  0  0999 V2000
   -2.1588    1.3122   -0.5933 C   0  0  0  0  0  0  0  0  0  0  0  0
   -1.1040    1.2223    0.2812 O   0  0  0  0  0  0  0  0  0  0  0  0
   -0.6632   -0.0814    0.4757 C   0  0  0  0  0  0  0  0  0  0  0  0
   -1.7210   -0.9742    1.0287 C   0  0  0  0  0  0  0  0  0  0  0  0
    0.6698   -0.1881    1.1900 C   0  0  0  0  0  0  0  0  0  0  0  0
    1.3103   -0.2017   -0.1302 C   0  0  0  0  0  0  0  0  0  0  0  0
    2.6417   -0.5714   -0.4811 C   0  0  0  0  0  0  0  0  0  0  0  0
    2.1518    0.8837   -0.5833 C   0  0  0  0  0  0  0  0  0  0  0  0
    0.0456   -0.6445   -0.7623 C   0  0  0  0  0  0  0  0  0  0  0  0
   -2.4408    2.3811   -0.6859 H   0  0  0  0  0  0  0  0  0  0  0  0
   -1.9129    0.9791   -1.6315 H   0  0  0  0  0  0  0  0  0  0  0  0
   -3.0188    0.7431   -0.1782 H   0  0  0  0  0  0  0  0  0  0  0  0
   -2.2508   -0.4290    1.8269 H   0  0  0  0  0  0  0  0  0  0  0  0
   -2.4728   -1.2129    0.2359 H   0  0  0  0  0  0  0  0  0  0  0  0
   -1.3298   -1.9146    1.4465 H   0  0  0  0  0  0  0  0  0  0  0  0
    0.7493   -1.0988    1.8183 H   0  0  0  0  0  0  0  0  0  0  0  0
    0.8353    0.7156    1.8327 H   0  0  0  0  0  0  0  0  0  0  0  0
    2.8596   -1.0304   -1.4658 H   0  0  0  0  0  0  0  0  0  0  0  0
    3.3947   -0.8093    0.2909 H   0  0  0  0  0  0  0  0  0  0  0  0
    2.0264    1.3127   -1.5880 H   0  0  0  0  0  0  0  0  0  0  0  0
    2.6411    1.5572    0.1660 H   0  0  0  0  0  0  0  0  0  0  0  0
   -0.0123   -1.7645   -0.7851 H   0  0  0  0  0  0  0  0  0  0  0  0
   -0.2404   -0.1862   -1.7081 H   0  0  0  0  0  0  0  0  0  0  0  0
  1  2  1  0
  2  3  1  0
  3  4  1  0
  3  5  1  0
  5  6  1  0
  6  7  1  0
  7  8  1  0
  6  9  1  0
  9  3  1  0
  8  6  1  0
  1 10  1  0
  1 11  1  0
  1 12  1  0
  4 13  1  0
  4 14  1  0
  4 15  1  0
  5 16  1  0
  5 17  1  0
  7 18  1  0
  7 19  1  0
  8 20  1  0
  8 21  1  0
  9 22  1  0
  9 23  1  0
M  END
