
     RDKit          3D

 21 21  0  0  0  0  0  0  0  0999 V2000
    2.9394   -0.9828   -0.3261 C   0  0  0  0  0  0  0  0  0  0  0  0
    1.7204   -0.5954   -0.8334 O   0  0  0  0  0  0  0  0  0  0  0  0
    0.7804   -0.2655    0.1026 C   0  0  0  0  0  0  0  0  0  0  0  0
   -0.5187   -1.0210   -0.0429 C   0  0  0  0  0  0  0  0  0  0  0  0
   -1.5736    0.0115    0.2323 C   0  0  0  0  0  0  0  0  0  0  0  0
   -2.9973   -0.2778    0.5662 C   0  0  0  0  0  0  0  0  0  0  0  0
   -1.0862    1.2254    0.1429 C   0  0  0  0  0  0  0  0  0  0  0  0
    0.3353    1.1538   -0.1986 C   0  0  0  0  0  0  0  0  0  0  0  0
    1.1145    2.0517    0.5204 O   0  0  0  0  0  0  0  0  0  0  0  0
    3.5944   -1.2179   -1.2036 H   0  0  0  0  0  0  0  0  0  0  0  0
    3.4390   -0.2248    0.2765 H   0  0  0  0  0  0  0  0  0  0  0  0
    2.8729   -1.9414    0.2559 H   0  0  0  0  0  0  0  0  0  0  0  0
    1.1522   -0.3626    1.1516 H   0  0  0  0  0  0  0  0  0  0  0  0
   -0.6571   -1.7990    0.7186 H   0  0  0  0  0  0  0  0  0  0  0  0
   -0.6412   -1.3484   -1.0752 H   0  0  0  0  0  0  0  0  0  0  0  0
   -3.1831   -1.3209    0.8290 H   0  0  0  0  0  0  0  0  0  0  0  0
   -3.2937    0.3717    1.4245 H   0  0  0  0  0  0  0  0  0  0  0  0
   -3.6439    0.0327   -0.3035 H   0  0  0  0  0  0  0  0  0  0  0  0
   -1.6303    2.1665    0.2941 H   0  0  0  0  0  0  0  0  0  0  0  0
    0.5083    1.3879   -1.2789 H   0  0  0  0  0  0  0  0  0  0  0  0
    0.7681    2.9565    0.3388 H   0  0  0  0  0  0  0  0  0  0  0  0
  1  2  1  0
  2  3  1  0
  3  4  1  0
  4  5  1  0
  5  6  1  0
  5  7  2  0
  7  8  1  0
  8  9  1  0
  8  3  1  0
  1 10  1  0
  1 11  1  0
  1 12  1  0
  3 13  1  0
  4 14  1  0
  4 15  1  0
  6 16  1  0
  6 17  1  0
  6 18  1  0
  7 19  1  0
  8 20  1  0
  9 21  1  0
M  END
