
     RDKit          3D

 19 20  0  0  0  0  0  0  0  0999 V2000
    3.1513   -0.2845   -0.1934 C   0  0  0  0  0  0  0  0  0  0  0  0
    1.9987    0.4800   -0.2524 O   0  0  0  0  0  0  0  0  0  0  0  0
    0.9104   -0.3329    0.0450 C   0  0  0  0  0  0  0  0  0  0  0  0
   -0.1304    0.1143    0.9215 C   0  0  0  0  0  0  0  0  0  0  0  0
   -1.6209   -0.1253    0.8490 C   0  0  0  0  0  0  0  0  0  0  0  0
   -2.0517   -1.3601    0.4732 O   0  0  0  0  0  0  0  0  0  0  0  0
   -1.4377    0.9032   -0.2899 C   0  0  0  0  0  0  0  0  0  0  0  0
   -2.4609    0.9102   -1.1881 O   0  0  0  0  0  0  0  0  0  0  0  0
   -0.3155   -0.0563   -0.6471 C   0  0  0  0  0  0  0  0  0  0  0  0
    3.2558   -0.7093    0.8478 H   0  0  0  0  0  0  0  0  0  0  0  0
    4.0709    0.3103   -0.3501 H   0  0  0  0  0  0  0  0  0  0  0  0
    3.1568   -1.1162   -0.9370 H   0  0  0  0  0  0  0  0  0  0  0  0
    1.2499   -1.3923    0.2543 H   0  0  0  0  0  0  0  0  0  0  0  0
   -0.0003    1.2030    1.2273 H   0  0  0  0  0  0  0  0  0  0  0  0
   -2.1527    0.2632    1.7219 H   0  0  0  0  0  0  0  0  0  0  0  0
   -2.7144   -1.3821   -0.2398 H   0  0  0  0  0  0  0  0  0  0  0  0
   -1.0853    1.8484    0.1187 H   0  0  0  0  0  0  0  0  0  0  0  0
   -2.9897    1.7419   -1.2029 H   0  0  0  0  0  0  0  0  0  0  0  0
   -0.8343   -1.0157   -0.9569 H   0  0  0  0  0  0  0  0  0  0  0  0
  1  2  1  0
  2  3  1  0
  3  4  1  0
  4  5  1  0
  5  6  1  0
  5  7  1  0
  7  8  1  0
  7  9  1  0
  9  3  1  0
  9  4  1  0
  1 10  1  0
  1 11  1  0
  1 12  1  0
  3 13  1  0
  4 14  1  0
  5 15  1  0
  6 16  1  0
  7 17  1  0
  8 18  1  0
  9 19  1  0
M  END
