
     RDKit          3D

 18 19  0  0  0  0  0  0  0  0999 V2000
   -2.8754   -0.0085    0.6429 C   0  0  0  0  0  0  0  0  0  0  0  0
   -1.5472   -0.0887    1.1207 O   0  0  0  0  0  0  0  0  0  0  0  0
   -0.6352    0.0904    0.1080 C   0  0  0  0  0  0  0  0  0  0  0  0
    0.3925   -1.0492    0.0445 C   0  0  0  0  0  0  0  0  0  0  0  0
    1.4301   -0.0720    0.4572 C   0  0  0  0  0  0  0  0  0  0  0  0
    2.7804   -0.0031    0.1164 C   0  0  0  0  0  0  0  0  0  0  0  0
    2.3018   -0.3050    1.4870 O   0  0  0  0  0  0  0  0  0  0  0  0
    0.4578    1.0707    0.4922 C   0  0  0  0  0  0  0  0  0  0  0  0
   -3.0386   -0.8029   -0.1279 H   0  0  0  0  0  0  0  0  0  0  0  0
   -3.0333    1.0087    0.2561 H   0  0  0  0  0  0  0  0  0  0  0  0
   -3.5766   -0.2519    1.4675 H   0  0  0  0  0  0  0  0  0  0  0  0
   -1.0631    0.2642   -0.8935 H   0  0  0  0  0  0  0  0  0  0  0  0
    0.1922   -1.8759    0.7455 H   0  0  0  0  0  0  0  0  0  0  0  0
    0.5516   -1.4478   -0.9717 H   0  0  0  0  0  0  0  0  0  0  0  0
    3.3048    0.9752    0.0542 H   0  0  0  0  0  0  0  0  0  0  0  0
    3.3316   -0.8542   -0.3401 H   0  0  0  0  0  0  0  0  0  0  0  0
    0.3225    1.5337    1.4824 H   0  0  0  0  0  0  0  0  0  0  0  0
    0.7042    1.8163   -0.3152 H   0  0  0  0  0  0  0  0  0  0  0  0
  1  2  1  0
  2  3  1  0
  3  4  1  0
  4  5  1  0
  5  6  1  0
  6  7  1  0
  5  8  1  0
  8  3  1  0
  7  5  1  0
  1  9  1  0
  1 10  1  0
  1 11  1  0
  3 12  1  0
  4 13  1  0
  4 14  1  0
  6 15  1  0
  6 16  1  0
  8 17  1  0
  8 18  1  0
M  END
