
     RDKit          3D

 21 22  0  0  0  0  0  0  0  0999 V2000
    2.5422   -0.9869   -0.5005 C   0  0  0  0  0  0  0  0  0  0  0  0
    1.3092   -0.5913   -1.0500 O   0  0  0  0  0  0  0  0  0  0  0  0
    0.6092    0.1146   -0.1035 C   0  0  0  0  0  0  0  0  0  0  0  0
    0.2242    1.5183   -0.5564 C   0  0  0  0  0  0  0  0  0  0  0  0
   -1.0966    1.2967    0.1571 C   0  0  0  0  0  0  0  0  0  0  0  0
   -1.0537    1.8880    1.4169 O   0  0  0  0  0  0  0  0  0  0  0  0
   -0.8069   -0.1678    0.1118 C   0  0  0  0  0  0  0  0  0  0  0  0
   -1.6290   -1.1607   -0.5346 C   0  0  0  0  0  0  0  0  0  0  0  0
   -1.3953   -1.1518    0.9979 C   0  0  0  0  0  0  0  0  0  0  0  0
    3.1537   -0.1361   -0.1854 H   0  0  0  0  0  0  0  0  0  0  0  0
    3.1420   -1.5714   -1.2265 H   0  0  0  0  0  0  0  0  0  0  0  0
    2.2949   -1.6289    0.3631 H   0  0  0  0  0  0  0  0  0  0  0  0
    1.1613    0.2183    0.8770 H   0  0  0  0  0  0  0  0  0  0  0  0
    0.0381    1.5802   -1.6650 H   0  0  0  0  0  0  0  0  0  0  0  0
    0.8474    2.3279   -0.1575 H   0  0  0  0  0  0  0  0  0  0  0  0
   -1.9970    1.5296   -0.4475 H   0  0  0  0  0  0  0  0  0  0  0  0
   -0.3663    2.5954    1.4869 H   0  0  0  0  0  0  0  0  0  0  0  0
   -1.2016   -1.9945   -1.1026 H   0  0  0  0  0  0  0  0  0  0  0  0
   -2.6558   -0.8467   -0.8633 H   0  0  0  0  0  0  0  0  0  0  0  0
   -0.8499   -2.0195    1.3614 H   0  0  0  0  0  0  0  0  0  0  0  0
   -2.2701   -0.8133    1.6205 H   0  0  0  0  0  0  0  0  0  0  0  0
  1  2  1  0
  2  3  1  0
  3  4  1  0
  4  5  1  0
  5  6  1  0
  5  7  1  0
  7  8  1  0
  8  9  1  0
  7  3  1  0
  9  7  1  0
  1 10  1  0
  1 11  1  0
  1 12  1  0
  3 13  1  0
  4 14  1  0
  4 15  1  0
  5 16  1  0
  6 17  1  0
  8 18  1  0
  8 19  1  0
  9 20  1  0
  9 21  1  0
M  END
