
     RDKit          3D

 23 23  0  0  0  0  0  0  0  0999 V2000
    2.4177   -1.1331   -0.7505 C   0  0  0  0  0  0  0  0  0  0  0  0
    1.1881   -0.6226   -1.1350 O   0  0  0  0  0  0  0  0  0  0  0  0
    0.4374   -0.1371   -0.0949 C   0  0  0  0  0  0  0  0  0  0  0  0
   -0.1238    1.2494   -0.2819 C   0  0  0  0  0  0  0  0  0  0  0  0
    0.4843    2.3224    0.5675 C   0  0  0  0  0  0  0  0  0  0  0  0
   -1.4170    0.7386    0.3324 C   0  0  0  0  0  0  0  0  0  0  0  0
   -0.9905   -0.6402   -0.1717 C   0  0  0  0  0  0  0  0  0  0  0  0
   -1.3049   -1.7673    0.7728 C   0  0  0  0  0  0  0  0  0  0  0  0
   -1.4096   -0.8012   -1.4721 O   0  0  0  0  0  0  0  0  0  0  0  0
    2.2738   -1.9692   -0.0389 H   0  0  0  0  0  0  0  0  0  0  0  0
    3.1238   -0.3622   -0.3896 H   0  0  0  0  0  0  0  0  0  0  0  0
    2.8900   -1.5819   -1.6546 H   0  0  0  0  0  0  0  0  0  0  0  0
    0.9154   -0.2202    0.9003 H   0  0  0  0  0  0  0  0  0  0  0  0
   -0.2185    1.4890   -1.3448 H   0  0  0  0  0  0  0  0  0  0  0  0
    0.1958    2.1943    1.6424 H   0  0  0  0  0  0  0  0  0  0  0  0
    0.0447    3.2898    0.2472 H   0  0  0  0  0  0  0  0  0  0  0  0
    1.5723    2.3775    0.4431 H   0  0  0  0  0  0  0  0  0  0  0  0
   -1.4689    0.8398    1.4173 H   0  0  0  0  0  0  0  0  0  0  0  0
   -2.3082    1.1491   -0.1989 H   0  0  0  0  0  0  0  0  0  0  0  0
   -2.3432   -2.0868    0.5968 H   0  0  0  0  0  0  0  0  0  0  0  0
   -0.6536   -2.6222    0.5068 H   0  0  0  0  0  0  0  0  0  0  0  0
   -1.0928   -1.4440    1.7940 H   0  0  0  0  0  0  0  0  0  0  0  0
   -2.2123   -0.2619   -1.6877 H   0  0  0  0  0  0  0  0  0  0  0  0
  1  2  1  0
  2  3  1  0
  3  4  1  0
  4  5  1  0
  4  6  1  0
  6  7  1  0
  7  8  1  0
  7  9  1  0
  7  3  1  0
  1 10  1  0
  1 11  1  0
  1 12  1  0
  3 13  1  0
  4 14  1  0
  5 15  1  0
  5 16  1  0
  5 17  1  0
  6 18  1  0
  6 19  1  0
  8 20  1  0
  8 21  1  0
  8 22  1  0
  9 23  1  0
M  END
