
     RDKit          3D

 21 21  0  0  0  0  0  0  0  0999 V2000
   -1.7009   -2.0060   -0.1403 C   0  0  0  0  0  0  0  0  0  0  0  0
   -1.2079   -0.8289   -0.7029 O   0  0  0  0  0  0  0  0  0  0  0  0
   -0.5121   -0.1430    0.2998 C   0  0  0  0  0  0  0  0  0  0  0  0
   -1.1706    1.1984    0.5486 C   0  0  0  0  0  0  0  0  0  0  0  0
   -0.3723    2.1113   -0.3237 C   0  0  0  0  0  0  0  0  0  0  0  0
    0.9536    1.4597   -0.4994 C   0  0  0  0  0  0  0  0  0  0  0  0
    0.8816    0.1825   -0.1480 C   0  0  0  0  0  0  0  0  0  0  0  0
    2.0281   -0.7584   -0.2014 C   0  0  0  0  0  0  0  0  0  0  0  0
    2.2267   -1.2203    1.1092 O   0  0  0  0  0  0  0  0  0  0  0  0
   -2.3701   -1.6957    0.6932 H   0  0  0  0  0  0  0  0  0  0  0  0
   -2.2126   -2.6387   -0.8883 H   0  0  0  0  0  0  0  0  0  0  0  0
   -0.8058   -2.5293    0.2997 H   0  0  0  0  0  0  0  0  0  0  0  0
   -0.5224   -0.6836    1.2627 H   0  0  0  0  0  0  0  0  0  0  0  0
   -1.1686    1.4793    1.6151 H   0  0  0  0  0  0  0  0  0  0  0  0
   -2.2172    1.1664    0.1946 H   0  0  0  0  0  0  0  0  0  0  0  0
   -0.2730    3.1209    0.1475 H   0  0  0  0  0  0  0  0  0  0  0  0
   -0.8425    2.2036   -1.3309 H   0  0  0  0  0  0  0  0  0  0  0  0
    1.8381    1.9791   -0.8651 H   0  0  0  0  0  0  0  0  0  0  0  0
    2.9364   -0.2320   -0.5312 H   0  0  0  0  0  0  0  0  0  0  0  0
    1.7563   -1.6113   -0.8514 H   0  0  0  0  0  0  0  0  0  0  0  0
    2.7553   -0.5540    1.6085 H   0  0  0  0  0  0  0  0  0  0  0  0
  1  2  1  0
  2  3  1  0
  3  4  1  0
  4  5  1  0
  5  6  1  0
  6  7  2  0
  7  8  1  0
  8  9  1  0
  7  3  1  0
  1 10  1  0
  1 11  1  0
  1 12  1  0
  3 13  1  0
  4 14  1  0
  4 15  1  0
  5 16  1  0
  5 17  1  0
  6 18  1  0
  8 19  1  0
  8 20  1  0
  9 21  1  0
M  END
