
     RDKit          3D

 19 20  0  0  0  0  0  0  0  0999 V2000
    2.2689   -0.5082    0.4989 C   0  0  0  0  0  0  0  0  0  0  0  0
    1.0374   -0.3355    1.1133 O   0  0  0  0  0  0  0  0  0  0  0  0
    0.1202    0.0538    0.1874 C   0  0  0  0  0  0  0  0  0  0  0  0
   -0.2018   -0.8196   -0.9676 C   0  0  0  0  0  0  0  0  0  0  0  0
   -1.3330   -1.5254   -0.4975 O   0  0  0  0  0  0  0  0  0  0  0  0
   -2.1468   -0.5350    0.0298 C   0  0  0  0  0  0  0  0  0  0  0  0
   -1.2409    0.4545    0.6952 C   0  0  0  0  0  0  0  0  0  0  0  0
   -1.1256    1.6331   -0.0767 O   0  0  0  0  0  0  0  0  0  0  0  0
    0.2550    1.5309   -0.1226 C   0  0  0  0  0  0  0  0  0  0  0  0
    2.2611   -1.2712   -0.2891 H   0  0  0  0  0  0  0  0  0  0  0  0
    3.0393   -0.7655    1.2587 H   0  0  0  0  0  0  0  0  0  0  0  0
    2.5302    0.4630   -0.0101 H   0  0  0  0  0  0  0  0  0  0  0  0
   -0.5142   -0.1693   -1.8143 H   0  0  0  0  0  0  0  0  0  0  0  0
    0.5245   -1.5769   -1.2421 H   0  0  0  0  0  0  0  0  0  0  0  0
   -2.6677   -0.0627   -0.8495 H   0  0  0  0  0  0  0  0  0  0  0  0
   -2.9038   -0.9764    0.7193 H   0  0  0  0  0  0  0  0  0  0  0  0
   -1.3451    0.6064    1.7661 H   0  0  0  0  0  0  0  0  0  0  0  0
    0.7263    2.0715    0.7171 H   0  0  0  0  0  0  0  0  0  0  0  0
    0.7161    1.7325   -1.1163 H   0  0  0  0  0  0  0  0  0  0  0  0
  1  2  1  0
  2  3  1  0
  3  4  1  0
  4  5  1  0
  5  6  1  0
  6  7  1  0
  7  8  1  0
  8  9  1  0
  7  3  1  0
  9  3  1  0
  1 10  1  0
  1 11  1  0
  1 12  1  0
  4 13  1  0
  4 14  1  0
  6 15  1  0
  6 16  1  0
  7 17  1  0
  9 18  1  0
  9 19  1  0
M  END
