
     RDKit          3D

 19 19  0  0  0  0  0  0  0  0999 V2000
    2.9164    0.2855    0.3423 C   0  0  0  0  0  0  0  0  0  0  0  0
    1.6270    0.0005    0.7587 O   0  0  0  0  0  0  0  0  0  0  0  0
    0.8107   -0.0602   -0.3561 C   0  0  0  0  0  0  0  0  0  0  0  0
   -0.4140    0.8169   -0.2286 C   0  0  0  0  0  0  0  0  0  0  0  0
   -1.4404   -0.0402    0.4655 C   0  0  0  0  0  0  0  0  0  0  0  0
   -2.7380   -0.0610   -0.3225 C   0  0  0  0  0  0  0  0  0  0  0  0
   -0.8852   -1.3440    0.5194 O   0  0  0  0  0  0  0  0  0  0  0  0
    0.1811   -1.4239   -0.3899 C   0  0  0  0  0  0  0  0  0  0  0  0
    0.5626   -2.3736   -1.0876 O   0  0  0  0  0  0  0  0  0  0  0  0
    3.3242   -0.4821   -0.3484 H   0  0  0  0  0  0  0  0  0  0  0  0
    3.5762    0.3879    1.2498 H   0  0  0  0  0  0  0  0  0  0  0  0
    2.9009    1.2778   -0.1718 H   0  0  0  0  0  0  0  0  0  0  0  0
    1.3783    0.1299   -1.2824 H   0  0  0  0  0  0  0  0  0  0  0  0
   -0.7799    1.0051   -1.2654 H   0  0  0  0  0  0  0  0  0  0  0  0
   -0.2230    1.7694    0.2623 H   0  0  0  0  0  0  0  0  0  0  0  0
   -1.6589    0.3000    1.4973 H   0  0  0  0  0  0  0  0  0  0  0  0
   -2.5478    0.3985   -1.3140 H   0  0  0  0  0  0  0  0  0  0  0  0
   -3.0547   -1.1219   -0.5005 H   0  0  0  0  0  0  0  0  0  0  0  0
   -3.5354    0.5355    0.1568 H   0  0  0  0  0  0  0  0  0  0  0  0
  1  2  1  0
  2  3  1  0
  3  4  1  0
  4  5  1  0
  5  6  1  0
  5  7  1  0
  7  8  1  0
  8  9  2  0
  8  3  1  0
  1 10  1  0
  1 11  1  0
  1 12  1  0
  3 13  1  0
  4 14  1  0
  4 15  1  0
  5 16  1  0
  6 17  1  0
  6 18  1  0
  6 19  1  0
M  END
