
     RDKit          3D

 21 22  0  0  0  0  0  0  0  0999 V2000
    2.5997   -0.3478   -0.6582 C   0  0  0  0  0  0  0  0  0  0  0  0
    1.5768    0.6237   -0.7321 O   0  0  0  0  0  0  0  0  0  0  0  0
    0.6551    0.2924    0.2456 C   0  0  0  0  0  0  0  0  0  0  0  0
   -0.0150   -1.0356    0.1801 C   0  0  0  0  0  0  0  0  0  0  0  0
   -1.3802   -0.4111    0.3979 C   0  0  0  0  0  0  0  0  0  0  0  0
   -2.3569   -0.9328   -0.5987 C   0  0  0  0  0  0  0  0  0  0  0  0
   -0.7568    0.9220    0.1283 C   0  0  0  0  0  0  0  0  0  0  0  0
    0.2442    1.3669    1.1595 C   0  0  0  0  0  0  0  0  0  0  0  0
    0.7644    2.6267    0.9479 O   0  0  0  0  0  0  0  0  0  0  0  0
    3.0562   -0.3139    0.3550 H   0  0  0  0  0  0  0  0  0  0  0  0
    3.4096   -0.1173   -1.3784 H   0  0  0  0  0  0  0  0  0  0  0  0
    2.2007   -1.3633   -0.8345 H   0  0  0  0  0  0  0  0  0  0  0  0
    0.2795   -1.7983    0.9122 H   0  0  0  0  0  0  0  0  0  0  0  0
    0.1050   -1.4646   -0.8580 H   0  0  0  0  0  0  0  0  0  0  0  0
   -1.7160   -0.4912    1.4385 H   0  0  0  0  0  0  0  0  0  0  0  0
   -1.9839   -0.8155   -1.6257 H   0  0  0  0  0  0  0  0  0  0  0  0
   -3.3890   -0.5594   -0.4499 H   0  0  0  0  0  0  0  0  0  0  0  0
   -2.4286   -2.0485   -0.4299 H   0  0  0  0  0  0  0  0  0  0  0  0
   -0.9598    1.4991   -0.7642 H   0  0  0  0  0  0  0  0  0  0  0  0
   -0.0740    1.1826    2.2047 H   0  0  0  0  0  0  0  0  0  0  0  0
    0.1692    3.1857    0.3600 H   0  0  0  0  0  0  0  0  0  0  0  0
  1  2  1  0
  2  3  1  0
  3  4  1  0
  4  5  1  0
  5  6  1  0
  5  7  1  0
  7  8  1  0
  8  9  1  0
  7  3  1  0
  8  3  1  0
  1 10  1  0
  1 11  1  0
  1 12  1  0
  4 13  1  0
  4 14  1  0
  5 15  1  0
  6 16  1  0
  6 17  1  0
  6 18  1  0
  7 19  1  0
  8 20  1  0
  9 21  1  0
M  END
