
     RDKit          3D

 19 20  0  0  0  0  0  0  0  0999 V2000
    2.6384   -0.0937   -0.2353 C   0  0  0  0  0  0  0  0  0  0  0  0
    1.3282   -0.2493   -0.6946 O   0  0  0  0  0  0  0  0  0  0  0  0
    0.4015   -0.0429    0.3198 C   0  0  0  0  0  0  0  0  0  0  0  0
   -0.4105   -1.2789    0.5859 C   0  0  0  0  0  0  0  0  0  0  0  0
   -1.8168   -1.0125    0.1602 C   0  0  0  0  0  0  0  0  0  0  0  0
   -2.5593   -0.0019    0.7415 O   0  0  0  0  0  0  0  0  0  0  0  0
   -1.8503    0.3412   -0.4321 C   0  0  0  0  0  0  0  0  0  0  0  0
   -0.5428    1.0318   -0.1255 C   0  0  0  0  0  0  0  0  0  0  0  0
   -0.6827    1.9309    0.9488 O   0  0  0  0  0  0  0  0  0  0  0  0
    2.8151   -0.8344    0.5711 H   0  0  0  0  0  0  0  0  0  0  0  0
    2.8506    0.9434    0.0867 H   0  0  0  0  0  0  0  0  0  0  0  0
    3.2891   -0.3004   -1.1317 H   0  0  0  0  0  0  0  0  0  0  0  0
    0.9637    0.1931    1.2329 H   0  0  0  0  0  0  0  0  0  0  0  0
   -0.0141   -2.0939   -0.0697 H   0  0  0  0  0  0  0  0  0  0  0  0
   -0.3103   -1.6254    1.6330 H   0  0  0  0  0  0  0  0  0  0  0  0
   -2.4094   -1.7955   -0.3193 H   0  0  0  0  0  0  0  0  0  0  0  0
   -2.3972    0.5451   -1.3504 H   0  0  0  0  0  0  0  0  0  0  0  0
   -0.2064    1.5547   -1.0408 H   0  0  0  0  0  0  0  0  0  0  0  0
   -1.0867    2.7886    0.6561 H   0  0  0  0  0  0  0  0  0  0  0  0
  1  2  1  0
  2  3  1  0
  3  4  1  0
  4  5  1  0
  5  6  1  0
  6  7  1  0
  7  8  1  0
  8  9  1  0
  8  3  1  0
  7  5  1  0
  1 10  1  0
  1 11  1  0
  1 12  1  0
  3 13  1  0
  4 14  1  0
  4 15  1  0
  5 16  1  0
  7 17  1  0
  8 18  1  0
  9 19  1  0
M  END
