
     RDKit          3D

 21 22  0  0  0  0  0  0  0  0999 V2000
    2.9854   -0.0386   -0.1369 C   0  0  0  0  0  0  0  0  0  0  0  0
    1.8902   -0.8728    0.0811 O   0  0  0  0  0  0  0  0  0  0  0  0
    0.7706   -0.1539    0.2756 C   0  0  0  0  0  0  0  0  0  0  0  0
    0.1184   -0.3473    1.6208 C   0  0  0  0  0  0  0  0  0  0  0  0
   -1.0453    0.4217    1.7440 O   0  0  0  0  0  0  0  0  0  0  0  0
   -1.9068   -0.0366    0.8102 C   0  0  0  0  0  0  0  0  0  0  0  0
   -2.6995    0.5569   -0.1964 C   0  0  0  0  0  0  0  0  0  0  0  0
   -1.3269    0.6241   -0.4938 C   0  0  0  0  0  0  0  0  0  0  0  0
   -0.2813   -0.3420   -0.8351 C   0  0  0  0  0  0  0  0  0  0  0  0
    3.0770    0.5928    0.7850 H   0  0  0  0  0  0  0  0  0  0  0  0
    3.9157   -0.5905   -0.3431 H   0  0  0  0  0  0  0  0  0  0  0  0
    2.8142    0.6718   -0.9772 H   0  0  0  0  0  0  0  0  0  0  0  0
    1.0121    0.9412    0.2112 H   0  0  0  0  0  0  0  0  0  0  0  0
   -0.2473   -1.4174    1.6284 H   0  0  0  0  0  0  0  0  0  0  0  0
    0.7958   -0.2401    2.4541 H   0  0  0  0  0  0  0  0  0  0  0  0
   -1.9311   -1.1692    0.8262 H   0  0  0  0  0  0  0  0  0  0  0  0
   -3.3973   -0.0899   -0.7999 H   0  0  0  0  0  0  0  0  0  0  0  0
   -3.2623    1.4991    0.0649 H   0  0  0  0  0  0  0  0  0  0  0  0
   -0.8641    1.6531   -0.3604 H   0  0  0  0  0  0  0  0  0  0  0  0
   -0.5869   -1.4237   -0.7383 H   0  0  0  0  0  0  0  0  0  0  0  0
    0.1693   -0.2387   -1.8170 H   0  0  0  0  0  0  0  0  0  0  0  0
  1  2  1  0
  2  3  1  0
  3  4  1  0
  4  5  1  0
  5  6  1  0
  6  7  1  0
  7  8  1  0
  8  9  1  0
  9  3  1  0
  8  6  1  0
  1 10  1  0
  1 11  1  0
  1 12  1  0
  3 13  1  0
  4 14  1  0
  4 15  1  0
  6 16  1  0
  7 17  1  0
  7 18  1  0
  8 19  1  0
  9 20  1  0
  9 21  1  0
M  END
