
     RDKit          3D

 21 22  0  0  0  0  0  0  0  0999 V2000
    2.1937    0.8805   -0.0181 C   0  0  0  0  0  0  0  0  0  0  0  0
    1.6161   -0.2174    0.5748 O   0  0  0  0  0  0  0  0  0  0  0  0
    0.3963   -0.5445    0.2098 C   0  0  0  0  0  0  0  0  0  0  0  0
    0.0301   -0.9014   -1.1930 C   0  0  0  0  0  0  0  0  0  0  0  0
   -1.3726   -1.0505   -1.0445 O   0  0  0  0  0  0  0  0  0  0  0  0
   -1.5655   -0.9013    0.3078 C   0  0  0  0  0  0  0  0  0  0  0  0
   -0.3695   -1.6052    0.9777 C   0  0  0  0  0  0  0  0  0  0  0  0
   -0.7760    0.3570    0.6246 C   0  0  0  0  0  0  0  0  0  0  0  0
   -1.0241    1.5283   -0.2478 C   0  0  0  0  0  0  0  0  0  0  0  0
    2.2445    0.7023   -1.1088 H   0  0  0  0  0  0  0  0  0  0  0  0
    1.6635    1.8309    0.2324 H   0  0  0  0  0  0  0  0  0  0  0  0
    3.2289    0.9727    0.4245 H   0  0  0  0  0  0  0  0  0  0  0  0
    0.2954   -0.1734   -1.9534 H   0  0  0  0  0  0  0  0  0  0  0  0
    0.4928   -1.8708   -1.4440 H   0  0  0  0  0  0  0  0  0  0  0  0
   -2.5180   -1.0362    0.7523 H   0  0  0  0  0  0  0  0  0  0  0  0
   -0.4077   -1.4567    2.0557 H   0  0  0  0  0  0  0  0  0  0  0  0
   -0.2439   -2.6376    0.6055 H   0  0  0  0  0  0  0  0  0  0  0  0
   -0.6660    0.5689    1.7062 H   0  0  0  0  0  0  0  0  0  0  0  0
   -2.0444    1.5294   -0.7069 H   0  0  0  0  0  0  0  0  0  0  0  0
   -0.3167    1.5730   -1.0978 H   0  0  0  0  0  0  0  0  0  0  0  0
   -0.8567    2.4519    0.3429 H   0  0  0  0  0  0  0  0  0  0  0  0
  1  2  1  0
  2  3  1  0
  3  4  1  0
  4  5  1  0
  5  6  1  0
  6  7  1  0
  6  8  1  0
  8  9  1  0
  7  3  1  0
  8  3  1  0
  1 10  1  0
  1 11  1  0
  1 12  1  0
  4 13  1  0
  4 14  1  0
  6 15  1  0
  7 16  1  0
  7 17  1  0
  8 18  1  0
  9 19  1  0
  9 20  1  0
  9 21  1  0
M  END
