
     RDKit          3D

 22 22  0  0  0  0  0  0  0  0999 V2000
   -2.4048    1.1099    0.3543 C   0  0  0  0  0  0  0  0  0  0  0  0
   -1.0964    0.9962    0.6548 O   0  0  0  0  0  0  0  0  0  0  0  0
   -0.3630    0.0118    0.0834 C   0  0  0  0  0  0  0  0  0  0  0  0
    1.1044    0.0386    0.5362 C   0  0  0  0  0  0  0  0  0  0  0  0
    1.9174   -1.0336   -0.0816 C   0  0  0  0  0  0  0  0  0  0  0  0
    1.7399    1.3671    0.1725 C   0  0  0  0  0  0  0  0  0  0  0  0
   -0.7377   -0.6871   -1.1592 C   0  0  0  0  0  0  0  0  0  0  0  0
   -1.0385   -1.3731    0.1526 C   0  0  0  0  0  0  0  0  0  0  0  0
   -2.7978    1.9954    0.9430 H   0  0  0  0  0  0  0  0  0  0  0  0
   -2.5063    1.4308   -0.7097 H   0  0  0  0  0  0  0  0  0  0  0  0
   -3.0768    0.2927    0.6167 H   0  0  0  0  0  0  0  0  0  0  0  0
    1.1074    0.0049    1.6606 H   0  0  0  0  0  0  0  0  0  0  0  0
    2.6785   -1.3680    0.6789 H   0  0  0  0  0  0  0  0  0  0  0  0
    2.5384   -0.6749   -0.9529 H   0  0  0  0  0  0  0  0  0  0  0  0
    1.3980   -1.9232   -0.4126 H   0  0  0  0  0  0  0  0  0  0  0  0
    2.8100    1.3097    0.3553 H   0  0  0  0  0  0  0  0  0  0  0  0
    1.2165    2.1927    0.6855 H   0  0  0  0  0  0  0  0  0  0  0  0
    1.5594    1.5092   -0.9259 H   0  0  0  0  0  0  0  0  0  0  0  0
    0.0273   -1.2110   -1.7435 H   0  0  0  0  0  0  0  0  0  0  0  0
   -1.5766   -0.3099   -1.7807 H   0  0  0  0  0  0  0  0  0  0  0  0
   -2.0944   -1.4624    0.3817 H   0  0  0  0  0  0  0  0  0  0  0  0
   -0.4048   -2.2157    0.4908 H   0  0  0  0  0  0  0  0  0  0  0  0
  1  2  1  0
  2  3  1  0
  3  4  1  0
  4  5  1  0
  4  6  1  0
  3  7  1  0
  7  8  1  0
  8  3  1  0
  1  9  1  0
  1 10  1  0
  1 11  1  0
  4 12  1  0
  5 13  1  0
  5 14  1  0
  5 15  1  0
  6 16  1  0
  6 17  1  0
  6 18  1  0
  7 19  1  0
  7 20  1  0
  8 21  1  0
  8 22  1  0
M  END
