
     RDKit          3D

 21 21  0  0  0  0  0  0  0  0999 V2000
    2.8209   -0.9175    0.4260 C   0  0  0  0  0  0  0  0  0  0  0  0
    2.0087   -0.1638   -0.4026 O   0  0  0  0  0  0  0  0  0  0  0  0
    0.7125   -0.0351    0.0842 C   0  0  0  0  0  0  0  0  0  0  0  0
    0.4447    1.4127    0.2520 C   0  0  0  0  0  0  0  0  0  0  0  0
   -0.8176    1.7980    0.2946 C   0  0  0  0  0  0  0  0  0  0  0  0
   -1.9326    0.8640    0.1835 C   0  0  0  0  0  0  0  0  0  0  0  0
   -1.6658   -0.3330   -0.6733 C   0  0  0  0  0  0  0  0  0  0  0  0
   -2.2455   -1.4830   -0.1422 O   0  0  0  0  0  0  0  0  0  0  0  0
   -0.2175   -0.5732   -0.9685 C   0  0  0  0  0  0  0  0  0  0  0  0
    3.8225   -0.9576   -0.0500 H   0  0  0  0  0  0  0  0  0  0  0  0
    2.4847   -1.9678    0.5252 H   0  0  0  0  0  0  0  0  0  0  0  0
    2.9564   -0.4097    1.4026 H   0  0  0  0  0  0  0  0  0  0  0  0
    0.5849   -0.5696    1.0538 H   0  0  0  0  0  0  0  0  0  0  0  0
    1.2619    2.1321    0.3371 H   0  0  0  0  0  0  0  0  0  0  0  0
   -1.0540    2.8670    0.4205 H   0  0  0  0  0  0  0  0  0  0  0  0
   -2.1706    0.4967    1.2241 H   0  0  0  0  0  0  0  0  0  0  0  0
   -2.8316    1.4253   -0.1438 H   0  0  0  0  0  0  0  0  0  0  0  0
   -2.1736   -0.1582   -1.6451 H   0  0  0  0  0  0  0  0  0  0  0  0
   -2.0510   -1.6111    0.8094 H   0  0  0  0  0  0  0  0  0  0  0  0
   -0.0303   -1.6690   -1.0414 H   0  0  0  0  0  0  0  0  0  0  0  0
    0.0930   -0.1471   -1.9462 H   0  0  0  0  0  0  0  0  0  0  0  0
  1  2  1  0
  2  3  1  0
  3  4  1  0
  4  5  2  0
  5  6  1  0
  6  7  1  0
  7  8  1  0
  7  9  1  0
  9  3  1  0
  1 10  1  0
  1 11  1  0
  1 12  1  0
  3 13  1  0
  4 14  1  0
  5 15  1  0
  6 16  1  0
  6 17  1  0
  7 18  1  0
  8 19  1  0
  9 20  1  0
  9 21  1  0
M  END
