
     RDKit          3D

 23 23  0  0  0  0  0  0  0  0999 V2000
   -2.6213   -0.3061   -0.1185 C   0  0  0  0  0  0  0  0  0  0  0  0
   -1.3870   -0.8458   -0.4085 O   0  0  0  0  0  0  0  0  0  0  0  0
   -0.3130   -0.0754   -0.0831 C   0  0  0  0  0  0  0  0  0  0  0  0
   -0.2301    0.2476    1.3833 C   0  0  0  0  0  0  0  0  0  0  0  0
    0.9417   -0.6843   -0.6805 C   0  0  0  0  0  0  0  0  0  0  0  0
    1.6601   -1.6271    0.2190 C   0  0  0  0  0  0  0  0  0  0  0  0
    1.4658    0.7045   -0.8088 C   0  0  0  0  0  0  0  0  0  0  0  0
   -0.0023    1.1339   -0.9111 C   0  0  0  0  0  0  0  0  0  0  0  0
   -0.1430    2.3571   -0.2395 O   0  0  0  0  0  0  0  0  0  0  0  0
   -2.7376   -0.0992    0.9693 H   0  0  0  0  0  0  0  0  0  0  0  0
   -2.9075    0.5449   -0.7581 H   0  0  0  0  0  0  0  0  0  0  0  0
   -3.3763   -1.1110   -0.3421 H   0  0  0  0  0  0  0  0  0  0  0  0
    0.7639    0.4913    1.7431 H   0  0  0  0  0  0  0  0  0  0  0  0
   -0.8969    1.1275    1.5555 H   0  0  0  0  0  0  0  0  0  0  0  0
   -0.6535   -0.5676    2.0107 H   0  0  0  0  0  0  0  0  0  0  0  0
    0.7322   -1.1498   -1.6566 H   0  0  0  0  0  0  0  0  0  0  0  0
    0.9990   -2.5395    0.3099 H   0  0  0  0  0  0  0  0  0  0  0  0
    2.5748   -1.9797   -0.2942 H   0  0  0  0  0  0  0  0  0  0  0  0
    1.8444   -1.2731    1.2311 H   0  0  0  0  0  0  0  0  0  0  0  0
    1.9842    1.1140    0.0838 H   0  0  0  0  0  0  0  0  0  0  0  0
    2.0408    0.9391   -1.7078 H   0  0  0  0  0  0  0  0  0  0  0  0
   -0.2978    1.1242   -1.9585 H   0  0  0  0  0  0  0  0  0  0  0  0
    0.5594    2.4744    0.4616 H   0  0  0  0  0  0  0  0  0  0  0  0
  1  2  1  0
  2  3  1  0
  3  4  1  0
  3  5  1  0
  5  6  1  0
  5  7  1  0
  7  8  1  0
  8  9  1  0
  8  3  1  0
  1 10  1  0
  1 11  1  0
  1 12  1  0
  4 13  1  0
  4 14  1  0
  4 15  1  0
  5 16  1  0
  6 17  1  0
  6 18  1  0
  6 19  1  0
  7 20  1  0
  7 21  1  0
  8 22  1  0
  9 23  1  0
M  END
