
     RDKit          3D

 21 22  0  0  0  0  0  0  0  0999 V2000
    2.8986    0.1476    0.4383 C   0  0  0  0  0  0  0  0  0  0  0  0
    1.6671    0.6724    0.8950 O   0  0  0  0  0  0  0  0  0  0  0  0
    0.6804    0.0663    0.1667 C   0  0  0  0  0  0  0  0  0  0  0  0
    0.5405   -1.4313    0.2255 C   0  0  0  0  0  0  0  0  0  0  0  0
   -0.5266   -0.5268    0.7071 C   0  0  0  0  0  0  0  0  0  0  0  0
   -1.3373    0.1163   -0.4163 C   0  0  0  0  0  0  0  0  0  0  0  0
   -2.4462    0.9896    0.0758 C   0  0  0  0  0  0  0  0  0  0  0  0
   -1.7290   -0.8996   -1.3029 O   0  0  0  0  0  0  0  0  0  0  0  0
   -0.0946    0.8168   -0.8823 C   0  0  0  0  0  0  0  0  0  0  0  0
    3.0364    0.3614   -0.6547 H   0  0  0  0  0  0  0  0  0  0  0  0
    3.7426    0.5925    0.9832 H   0  0  0  0  0  0  0  0  0  0  0  0
    2.9378   -0.9440    0.5394 H   0  0  0  0  0  0  0  0  0  0  0  0
    0.4178   -1.9039   -0.7742 H   0  0  0  0  0  0  0  0  0  0  0  0
    1.1601   -1.9256    0.9879 H   0  0  0  0  0  0  0  0  0  0  0  0
   -0.8785   -0.4825    1.7300 H   0  0  0  0  0  0  0  0  0  0  0  0
   -2.6951    1.7955   -0.6554 H   0  0  0  0  0  0  0  0  0  0  0  0
   -2.1566    1.4355    1.0415 H   0  0  0  0  0  0  0  0  0  0  0  0
   -3.3359    0.3213    0.2423 H   0  0  0  0  0  0  0  0  0  0  0  0
   -2.0882   -1.6328   -0.7607 H   0  0  0  0  0  0  0  0  0  0  0  0
   -0.0699    1.9133   -0.6922 H   0  0  0  0  0  0  0  0  0  0  0  0
    0.2765    0.5179   -1.8940 H   0  0  0  0  0  0  0  0  0  0  0  0
  1  2  1  0
  2  3  1  0
  3  4  1  0
  4  5  1  0
  5  6  1  0
  6  7  1  0
  6  8  1  0
  6  9  1  0
  5  3  1  0
  9  3  1  0
  1 10  1  0
  1 11  1  0
  1 12  1  0
  4 13  1  0
  4 14  1  0
  5 15  1  0
  7 16  1  0
  7 17  1  0
  7 18  1  0
  8 19  1  0
  9 20  1  0
  9 21  1  0
M  END
