
     RDKit          3D

 17 17  0  0  0  0  0  0  0  0999 V2000
    2.6357    0.0952   -0.0269 C   0  0  0  0  0  0  0  0  0  0  0  0
    1.5323    0.1897   -0.8698 O   0  0  0  0  0  0  0  0  0  0  0  0
    0.3981    0.2219   -0.1016 C   0  0  0  0  0  0  0  0  0  0  0  0
   -0.5111   -0.9855   -0.3684 C   0  0  0  0  0  0  0  0  0  0  0  0
   -1.7647   -0.4769    0.3373 C   0  0  0  0  0  0  0  0  0  0  0  0
   -1.7078    0.9813   -0.0644 C   0  0  0  0  0  0  0  0  0  0  0  0
   -0.4047    1.3121   -0.2984 O   0  0  0  0  0  0  0  0  0  0  0  0
    3.5923    0.0645   -0.5844 H   0  0  0  0  0  0  0  0  0  0  0  0
    2.6658    1.0245    0.6122 H   0  0  0  0  0  0  0  0  0  0  0  0
    2.5416   -0.7426    0.7024 H   0  0  0  0  0  0  0  0  0  0  0  0
    0.6348    0.1655    0.9858 H   0  0  0  0  0  0  0  0  0  0  0  0
   -0.7641   -1.0565   -1.4474 H   0  0  0  0  0  0  0  0  0  0  0  0
   -0.1186   -1.9024    0.0587 H   0  0  0  0  0  0  0  0  0  0  0  0
   -2.6770   -0.9806   -0.0273 H   0  0  0  0  0  0  0  0  0  0  0  0
   -1.5904   -0.6204    1.4232 H   0  0  0  0  0  0  0  0  0  0  0  0
   -2.2731    1.0735   -1.0180 H   0  0  0  0  0  0  0  0  0  0  0  0
   -2.1890    1.6365    0.6870 H   0  0  0  0  0  0  0  0  0  0  0  0
  1  2  1  0
  2  3  1  0
  3  4  1  0
  4  5  1  0
  5  6  1  0
  6  7  1  0
  7  3  1  0
  1  8  1  0
  1  9  1  0
  1 10  1  0
  3 11  1  0
  4 12  1  0
  4 13  1  0
  5 14  1  0
  5 15  1  0
  6 16  1  0
  6 17  1  0
M  END
