
     RDKit          3D

 19 19  0  0  0  0  0  0  0  0999 V2000
   -1.9699   -1.1157    0.1572 C   0  0  0  0  0  0  0  0  0  0  0  0
   -0.6227   -0.9779    0.3860 O   0  0  0  0  0  0  0  0  0  0  0  0
   -0.1281    0.2000   -0.0942 C   0  0  0  0  0  0  0  0  0  0  0  0
   -0.6867    1.4793    0.4413 C   0  0  0  0  0  0  0  0  0  0  0  0
   -0.0805    0.1477   -1.5990 C   0  0  0  0  0  0  0  0  0  0  0  0
   -0.9649    0.2601   -2.4677 O   0  0  0  0  0  0  0  0  0  0  0  0
    1.2908   -0.0668   -1.5979 O   0  0  0  0  0  0  0  0  0  0  0  0
    1.3678    0.2716   -0.2309 C   0  0  0  0  0  0  0  0  0  0  0  0
    2.1614   -0.6758    0.6073 C   0  0  0  0  0  0  0  0  0  0  0  0
   -2.2305   -1.0893   -0.9333 H   0  0  0  0  0  0  0  0  0  0  0  0
   -2.3551   -2.1135    0.5026 H   0  0  0  0  0  0  0  0  0  0  0  0
   -2.5330   -0.3709    0.7495 H   0  0  0  0  0  0  0  0  0  0  0  0
   -1.5552    1.3808    1.0853 H   0  0  0  0  0  0  0  0  0  0  0  0
    0.1154    1.9545    1.0746 H   0  0  0  0  0  0  0  0  0  0  0  0
   -0.8646    2.1673   -0.4330 H   0  0  0  0  0  0  0  0  0  0  0  0
    1.7685    1.3246   -0.1475 H   0  0  0  0  0  0  0  0  0  0  0  0
    3.1209   -0.1878    0.9515 H   0  0  0  0  0  0  0  0  0  0  0  0
    1.6446   -1.0120    1.5189 H   0  0  0  0  0  0  0  0  0  0  0  0
    2.5216   -1.5761    0.0293 H   0  0  0  0  0  0  0  0  0  0  0  0
  1  2  1  0
  2  3  1  0
  3  4  1  0
  3  5  1  0
  5  6  2  0
  5  7  1  0
  7  8  1  0
  8  9  1  0
  8  3  1  0
  1 10  1  0
  1 11  1  0
  1 12  1  0
  4 13  1  0
  4 14  1  0
  4 15  1  0
  8 16  1  0
  9 17  1  0
  9 18  1  0
  9 19  1  0
M  END
