
     RDKit          3D

 21 22  0  0  0  0  0  0  0  0999 V2000
    2.9320    0.3267   -0.1888 C   0  0  0  0  0  0  0  0  0  0  0  0
    1.8897    0.5816    0.6443 O   0  0  0  0  0  0  0  0  0  0  0  0
    0.7155    0.0751    0.3523 C   0  0  0  0  0  0  0  0  0  0  0  0
    0.5007   -1.3928    0.2398 C   0  0  0  0  0  0  0  0  0  0  0  0
   -0.8284   -1.4702   -0.0217 C   0  0  0  0  0  0  0  0  0  0  0  0
   -1.2457   -0.0509   -0.0106 C   0  0  0  0  0  0  0  0  0  0  0  0
   -2.5899    0.3547   -0.2640 C   0  0  0  0  0  0  0  0  0  0  0  0
   -0.4879    0.4728    1.2006 C   0  0  0  0  0  0  0  0  0  0  0  0
   -0.0973    0.5763   -0.8205 C   0  0  0  0  0  0  0  0  0  0  0  0
    3.0791   -0.7895   -0.2234 H   0  0  0  0  0  0  0  0  0  0  0  0
    3.8699    0.7130    0.2952 H   0  0  0  0  0  0  0  0  0  0  0  0
    2.8045    0.7288   -1.2188 H   0  0  0  0  0  0  0  0  0  0  0  0
    1.2194   -2.1955    0.3406 H   0  0  0  0  0  0  0  0  0  0  0  0
   -1.4149   -2.3635   -0.1926 H   0  0  0  0  0  0  0  0  0  0  0  0
   -3.1650   -0.4107   -0.8153 H   0  0  0  0  0  0  0  0  0  0  0  0
   -3.1521    0.5268    0.6999 H   0  0  0  0  0  0  0  0  0  0  0  0
   -2.6479    1.3240   -0.8000 H   0  0  0  0  0  0  0  0  0  0  0  0
   -0.5839    1.5463    1.3909 H   0  0  0  0  0  0  0  0  0  0  0  0
   -0.6562   -0.1912    2.0665 H   0  0  0  0  0  0  0  0  0  0  0  0
   -0.1671    1.6559   -0.9433 H   0  0  0  0  0  0  0  0  0  0  0  0
    0.0255   -0.0180   -1.7401 H   0  0  0  0  0  0  0  0  0  0  0  0
  1  2  1  0
  2  3  1  0
  3  4  1  0
  4  5  2  0
  5  6  1  0
  6  7  1  0
  6  8  1  0
  6  9  1  0
  8  3  1  0
  9  3  1  0
  1 10  1  0
  1 11  1  0
  1 12  1  0
  4 13  1  0
  5 14  1  0
  7 15  1  0
  7 16  1  0
  7 17  1  0
  8 18  1  0
  8 19  1  0
  9 20  1  0
  9 21  1  0
M  END
