
     RDKit          3D

 18 18  0  0  0  0  0  0  0  0999 V2000
   -2.9766    0.1193   -0.2864 C   0  0  0  0  0  0  0  0  0  0  0  0
   -1.9230   -0.0972    0.5900 O   0  0  0  0  0  0  0  0  0  0  0  0
   -0.7485   -0.1148   -0.1116 C   0  0  0  0  0  0  0  0  0  0  0  0
    0.1478   -1.3299    0.2963 C   0  0  0  0  0  0  0  0  0  0  0  0
    0.5721    0.1030    0.5015 C   0  0  0  0  0  0  0  0  0  0  0  0
    1.6697    0.5488   -0.4562 C   0  0  0  0  0  0  0  0  0  0  0  0
    2.9163    0.7190    0.3085 C   0  0  0  0  0  0  0  0  0  0  0  0
    3.5703   -0.2454    0.6151 O   0  0  0  0  0  0  0  0  0  0  0  0
   -3.0345   -0.6974   -1.0668 H   0  0  0  0  0  0  0  0  0  0  0  0
   -3.9724    0.0842    0.2168 H   0  0  0  0  0  0  0  0  0  0  0  0
   -2.8704    1.0608   -0.8701 H   0  0  0  0  0  0  0  0  0  0  0  0
   -0.8476    0.0444   -1.2070 H   0  0  0  0  0  0  0  0  0  0  0  0
   -0.0971   -1.8607    1.2144 H   0  0  0  0  0  0  0  0  0  0  0  0
    0.5631   -1.9012   -0.5598 H   0  0  0  0  0  0  0  0  0  0  0  0
    0.6353    0.4899    1.5437 H   0  0  0  0  0  0  0  0  0  0  0  0
    1.3814    1.5325   -0.9104 H   0  0  0  0  0  0  0  0  0  0  0  0
    1.7708   -0.1521   -1.3084 H   0  0  0  0  0  0  0  0  0  0  0  0
    3.2435    1.6968    0.5936 H   0  0  0  0  0  0  0  0  0  0  0  0
  1  2  1  0
  2  3  1  0
  3  4  1  0
  4  5  1  0
  5  6  1  0
  6  7  1  0
  7  8  2  0
  5  3  1  0
  1  9  1  0
  1 10  1  0
  1 11  1  0
  3 12  1  0
  4 13  1  0
  4 14  1  0
  5 15  1  0
  6 16  1  0
  6 17  1  0
  7 18  1  0
M  END
