
     RDKit          3D

 21 22  0  0  0  0  0  0  0  0999 V2000
    2.3600   -0.6768    0.5796 C   0  0  0  0  0  0  0  0  0  0  0  0
    1.7805    0.5101    0.2370 O   0  0  0  0  0  0  0  0  0  0  0  0
    0.4700    0.4630   -0.1934 C   0  0  0  0  0  0  0  0  0  0  0  0
    0.0596    1.8924   -0.4794 C   0  0  0  0  0  0  0  0  0  0  0  0
    0.3096   -0.3403   -1.3490 O   0  0  0  0  0  0  0  0  0  0  0  0
   -0.8642   -1.0817   -1.1892 C   0  0  0  0  0  0  0  0  0  0  0  0
   -1.6239   -0.2436   -0.2360 C   0  0  0  0  0  0  0  0  0  0  0  0
   -1.7407   -0.1354    1.1536 C   0  0  0  0  0  0  0  0  0  0  0  0
   -0.3925   -0.2321    0.7687 C   0  0  0  0  0  0  0  0  0  0  0  0
    2.3781   -1.4285   -0.2641 H   0  0  0  0  0  0  0  0  0  0  0  0
    3.4691   -0.4430    0.6953 H   0  0  0  0  0  0  0  0  0  0  0  0
    1.9848   -1.1694    1.4823 H   0  0  0  0  0  0  0  0  0  0  0  0
   -0.1870    1.9522   -1.5557 H   0  0  0  0  0  0  0  0  0  0  0  0
    0.8819    2.6196   -0.3120 H   0  0  0  0  0  0  0  0  0  0  0  0
   -0.7749    2.2227    0.1715 H   0  0  0  0  0  0  0  0  0  0  0  0
   -0.6755   -2.1188   -0.8701 H   0  0  0  0  0  0  0  0  0  0  0  0
   -1.3796   -1.1298   -2.1837 H   0  0  0  0  0  0  0  0  0  0  0  0
   -1.8032    0.7406   -0.7804 H   0  0  0  0  0  0  0  0  0  0  0  0
   -2.0657    0.8308    1.6425 H   0  0  0  0  0  0  0  0  0  0  0  0
   -2.2432   -0.9732    1.7132 H   0  0  0  0  0  0  0  0  0  0  0  0
    0.0567   -1.2589    0.9695 H   0  0  0  0  0  0  0  0  0  0  0  0
  1  2  1  0
  2  3  1  0
  3  4  1  0
  3  5  1  0
  5  6  1  0
  6  7  1  0
  7  8  1  0
  8  9  1  0
  9  3  1  0
  9  7  1  0
  1 10  1  0
  1 11  1  0
  1 12  1  0
  4 13  1  0
  4 14  1  0
  4 15  1  0
  6 16  1  0
  6 17  1  0
  7 18  1  0
  8 19  1  0
  8 20  1  0
  9 21  1  0
M  END
