
     RDKit          3D

 22 22  0  0  0  0  0  0  0  0999 V2000
    3.0214   -0.0301    0.0280 C   0  0  0  0  0  0  0  0  0  0  0  0
    1.7988    0.0117    0.6972 O   0  0  0  0  0  0  0  0  0  0  0  0
    0.7276   -0.0623   -0.1955 C   0  0  0  0  0  0  0  0  0  0  0  0
    0.0027    1.2518   -0.1032 C   0  0  0  0  0  0  0  0  0  0  0  0
   -1.3052    1.2173   -0.8307 C   0  0  0  0  0  0  0  0  0  0  0  0
   -2.1603    0.1606   -0.1835 C   0  0  0  0  0  0  0  0  0  0  0  0
   -1.5355   -1.1840   -0.1282 C   0  0  0  0  0  0  0  0  0  0  0  0
   -0.0935   -1.2492    0.1241 C   0  0  0  0  0  0  0  0  0  0  0  0
    3.0997    0.8168   -0.6736 H   0  0  0  0  0  0  0  0  0  0  0  0
    3.0518   -1.0090   -0.5020 H   0  0  0  0  0  0  0  0  0  0  0  0
    3.8339    0.0300    0.7489 H   0  0  0  0  0  0  0  0  0  0  0  0
    1.1581   -0.1361   -1.2200 H   0  0  0  0  0  0  0  0  0  0  0  0
    0.6582    2.0352   -0.5156 H   0  0  0  0  0  0  0  0  0  0  0  0
   -0.1762    1.4684    0.9521 H   0  0  0  0  0  0  0  0  0  0  0  0
   -1.8193    2.1879   -0.6855 H   0  0  0  0  0  0  0  0  0  0  0  0
   -1.2132    1.0270   -1.9028 H   0  0  0  0  0  0  0  0  0  0  0  0
   -3.1106    0.1267   -0.7849 H   0  0  0  0  0  0  0  0  0  0  0  0
   -2.4576    0.4943    0.8278 H   0  0  0  0  0  0  0  0  0  0  0  0
   -1.8030   -1.7205   -1.0868 H   0  0  0  0  0  0  0  0  0  0  0  0
   -2.0961   -1.7748    0.6572 H   0  0  0  0  0  0  0  0  0  0  0  0
    0.3334   -2.1240   -0.4514 H   0  0  0  0  0  0  0  0  0  0  0  0
    0.0847   -1.5375    1.2009 H   0  0  0  0  0  0  0  0  0  0  0  0
  1  2  1  0
  2  3  1  0
  3  4  1  0
  4  5  1  0
  5  6  1  0
  6  7  1  0
  7  8  1  0
  8  3  1  0
  1  9  1  0
  1 10  1  0
  1 11  1  0
  3 12  1  0
  4 13  1  0
  4 14  1  0
  5 15  1  0
  5 16  1  0
  6 17  1  0
  6 18  1  0
  7 19  1  0
  7 20  1  0
  8 21  1  0
  8 22  1  0
M  END
