
     RDKit          3D

  8  7  0  0  0  0  0  0  0  0999 V2000
   -1.0661   -0.0232   -0.0417 C   0  0  0  0  0  0  0  0  0  0  0  0
    0.1298   -0.7183   -0.3740 O   0  0  0  0  0  0  0  0  0  0  0  0
    1.3156   -0.1338   -0.0232 C   0  0  0  0  0  0  0  0  0  0  0  0
    1.4250    0.9749    0.5725 O   0  0  0  0  0  0  0  0  0  0  0  0
   -1.3038   -0.3119    1.0025 H   0  0  0  0  0  0  0  0  0  0  0  0
   -0.8795    1.0825   -0.1218 H   0  0  0  0  0  0  0  0  0  0  0  0
   -1.8715   -0.2405   -0.7566 H   0  0  0  0  0  0  0  0  0  0  0  0
    2.2505   -0.6297   -0.2576 H   0  0  0  0  0  0  0  0  0  0  0  0
  1  2  1  0
  2  3  1  0
  3  4  2  0
  1  5  1  0
  1  6  1  0
  1  7  1  0
  3  8  1  0
M  END
