
     RDKit          3D

 15 14  0  0  0  0  0  0  0  0999 V2000
   -2.6050    1.0877   -0.1024 C   0  0  0  0  0  0  0  0  0  0  0  0
   -2.8695   -0.2602   -0.2502 O   0  0  0  0  0  0  0  0  0  0  0  0
   -2.0282   -0.9800    0.5796 C   0  0  0  0  0  0  0  0  0  0  0  0
   -0.6132   -0.7503    0.2662 C   0  0  0  0  0  0  0  0  0  0  0  0
    0.5588   -0.5588    0.0175 C   0  0  0  0  0  0  0  0  0  0  0  0
    1.9297   -0.3109   -0.2749 C   0  0  0  0  0  0  0  0  0  0  0  0
    3.1014   -0.1107   -0.5113 C   0  0  0  0  0  0  0  0  0  0  0  0
    4.4964    0.1164   -0.7820 C   0  0  0  0  0  0  0  0  0  0  0  0
    5.0340   -0.6260   -1.6472 O   0  0  0  0  0  0  0  0  0  0  0  0
   -1.5543    1.3456   -0.3646 H   0  0  0  0  0  0  0  0  0  0  0  0
   -3.3129    1.6288   -0.7763 H   0  0  0  0  0  0  0  0  0  0  0  0
   -2.7738    1.3406    0.9636 H   0  0  0  0  0  0  0  0  0  0  0  0
   -2.2872   -2.0630    0.4230 H   0  0  0  0  0  0  0  0  0  0  0  0
   -2.1565   -0.7423    1.6525 H   0  0  0  0  0  0  0  0  0  0  0  0
    5.0803    0.8831   -0.2795 H   0  0  0  0  0  0  0  0  0  0  0  0
  1  2  1  0
  2  3  1  0
  3  4  1  0
  4  5  3  0
  5  6  1  0
  6  7  3  0
  7  8  1  0
  8  9  2  0
  1 10  1  0
  1 11  1  0
  1 12  1  0
  3 13  1  0
  3 14  1  0
  8 15  1  0
M  END
