
     RDKit          3D

 14 14  0  0  0  0  0  0  0  0999 V2000
   -2.3169    0.1804   -0.0882 C   0  0  0  0  0  0  0  0  0  0  0  0
   -1.0900    0.3783   -0.7191 O   0  0  0  0  0  0  0  0  0  0  0  0
   -0.1491   -0.3762   -0.0087 C   0  0  0  0  0  0  0  0  0  0  0  0
    1.1879   -0.1944   -0.6517 C   0  0  0  0  0  0  0  0  0  0  0  0
    2.2610    0.5278   -0.0142 C   0  0  0  0  0  0  0  0  0  0  0  0
    2.2122   -0.9286    0.0069 O   0  0  0  0  0  0  0  0  0  0  0  0
   -3.0731    0.7796   -0.6495 H   0  0  0  0  0  0  0  0  0  0  0  0
   -2.5356   -0.9158   -0.1899 H   0  0  0  0  0  0  0  0  0  0  0  0
   -2.2910    0.4232    0.9918 H   0  0  0  0  0  0  0  0  0  0  0  0
   -0.1841    0.0073    1.0390 H   0  0  0  0  0  0  0  0  0  0  0  0
   -0.4617   -1.4443    0.0607 H   0  0  0  0  0  0  0  0  0  0  0  0
    1.1617   -0.2760   -1.7716 H   0  0  0  0  0  0  0  0  0  0  0  0
    3.1363    0.8278   -0.6484 H   0  0  0  0  0  0  0  0  0  0  0  0
    2.1424    1.0108    0.9746 H   0  0  0  0  0  0  0  0  0  0  0  0
  1  2  1  0
  2  3  1  0
  3  4  1  0
  4  5  1  0
  5  6  1  0
  6  4  1  0
  1  7  1  0
  1  8  1  0
  1  9  1  0
  3 10  1  0
  3 11  1  0
  4 12  1  0
  5 13  1  0
  5 14  1  0
M  END
