
     RDKit          3D

 20 20  0  0  0  0  0  0  0  0999 V2000
    2.9129    0.6730    0.5350 C   0  0  0  0  0  0  0  0  0  0  0  0
    1.8073   -0.1417    0.4048 O   0  0  0  0  0  0  0  0  0  0  0  0
    1.0580    0.1757   -0.7289 C   0  0  0  0  0  0  0  0  0  0  0  0
   -0.1456   -0.7255   -0.8536 C   0  0  0  0  0  0  0  0  0  0  0  0
   -1.0702   -0.6247    0.3231 C   0  0  0  0  0  0  0  0  0  0  0  0
   -1.6289    0.7478    0.5492 C   0  0  0  0  0  0  0  0  0  0  0  0
   -2.4918    0.5100   -0.5386 O   0  0  0  0  0  0  0  0  0  0  0  0
   -2.5064   -0.8372   -0.1065 C   0  0  0  0  0  0  0  0  0  0  0  0
    3.5510    0.5362   -0.3761 H   0  0  0  0  0  0  0  0  0  0  0  0
    3.5307    0.3282    1.3829 H   0  0  0  0  0  0  0  0  0  0  0  0
    2.6661    1.7363    0.6259 H   0  0  0  0  0  0  0  0  0  0  0  0
    1.7141   -0.0334   -1.6038 H   0  0  0  0  0  0  0  0  0  0  0  0
    0.8217    1.2396   -0.7062 H   0  0  0  0  0  0  0  0  0  0  0  0
   -0.7144   -0.4483   -1.7640 H   0  0  0  0  0  0  0  0  0  0  0  0
    0.2169   -1.7604   -1.0159 H   0  0  0  0  0  0  0  0  0  0  0  0
   -0.8048   -1.2100    1.2173 H   0  0  0  0  0  0  0  0  0  0  0  0
   -2.2292    0.8152    1.4776 H   0  0  0  0  0  0  0  0  0  0  0  0
   -0.8758    1.5158    0.3904 H   0  0  0  0  0  0  0  0  0  0  0  0
   -3.1987   -0.9344    0.7357 H   0  0  0  0  0  0  0  0  0  0  0  0
   -2.6129   -1.5623   -0.9348 H   0  0  0  0  0  0  0  0  0  0  0  0
  1  2  1  0
  2  3  1  0
  3  4  1  0
  4  5  1  0
  5  6  1  0
  6  7  1  0
  7  8  1  0
  8  5  1  0
  1  9  1  0
  1 10  1  0
  1 11  1  0
  3 12  1  0
  3 13  1  0
  4 14  1  0
  4 15  1  0
  5 16  1  0
  6 17  1  0
  6 18  1  0
  8 19  1  0
  8 20  1  0
M  END
