
     RDKit          3D

 21 20  0  0  0  0  0  0  0  0999 V2000
    3.0421    0.9803   -0.1251 C   0  0  0  0  0  0  0  0  0  0  0  0
    1.7313    0.7750    0.2600 O   0  0  0  0  0  0  0  0  0  0  0  0
    1.2487   -0.4649   -0.1163 C   0  0  0  0  0  0  0  0  0  0  0  0
   -0.1895   -0.5791    0.3554 C   0  0  0  0  0  0  0  0  0  0  0  0
   -0.7835   -1.9227   -0.0264 C   0  0  0  0  0  0  0  0  0  0  0  0
   -1.0015    0.5487   -0.1896 C   0  0  0  0  0  0  0  0  0  0  0  0
   -0.5490    1.4052   -0.8964 O   0  0  0  0  0  0  0  0  0  0  0  0
   -2.4475    0.6112    0.1641 C   0  0  0  0  0  0  0  0  0  0  0  0
   -3.0620    1.7057   -0.4124 O   0  0  0  0  0  0  0  0  0  0  0  0
    3.7284    0.2245    0.3232 H   0  0  0  0  0  0  0  0  0  0  0  0
    3.1105    1.0477   -1.2130 H   0  0  0  0  0  0  0  0  0  0  0  0
    3.3427    1.9792    0.3030 H   0  0  0  0  0  0  0  0  0  0  0  0
    1.8306   -1.2883    0.3289 H   0  0  0  0  0  0  0  0  0  0  0  0
    1.3259   -0.5305   -1.2177 H   0  0  0  0  0  0  0  0  0  0  0  0
   -0.1797   -0.5464    1.4643 H   0  0  0  0  0  0  0  0  0  0  0  0
   -0.0160   -2.7103    0.0902 H   0  0  0  0  0  0  0  0  0  0  0  0
   -1.6357   -2.1258    0.6788 H   0  0  0  0  0  0  0  0  0  0  0  0
   -1.2339   -1.9111   -1.0382 H   0  0  0  0  0  0  0  0  0  0  0  0
   -2.8930   -0.3563   -0.1396 H   0  0  0  0  0  0  0  0  0  0  0  0
   -2.5185    0.6488    1.2794 H   0  0  0  0  0  0  0  0  0  0  0  0
   -2.8504    2.5091    0.1273 H   0  0  0  0  0  0  0  0  0  0  0  0
  1  2  1  0
  2  3  1  0
  3  4  1  0
  4  5  1  0
  4  6  1  0
  6  7  2  0
  6  8  1  0
  8  9  1  0
  1 10  1  0
  1 11  1  0
  1 12  1  0
  3 13  1  0
  3 14  1  0
  4 15  1  0
  5 16  1  0
  5 17  1  0
  5 18  1  0
  8 19  1  0
  8 20  1  0
  9 21  1  0
M  END
