
     RDKit          3D

 25 24  0  0  0  0  0  0  0  0999 V2000
    3.6194   -0.9744    0.6909 C   0  0  0  0  0  0  0  0  0  0  0  0
    2.2643   -0.8884    0.4104 O   0  0  0  0  0  0  0  0  0  0  0  0
    2.0016    0.1330   -0.5281 C   0  0  0  0  0  0  0  0  0  0  0  0
    0.5180    0.1790   -0.7928 C   0  0  0  0  0  0  0  0  0  0  0  0
   -0.2894    0.4622    0.4456 C   0  0  0  0  0  0  0  0  0  0  0  0
   -1.7571    0.4755    0.0112 C   0  0  0  0  0  0  0  0  0  0  0  0
   -2.6683    0.7513    1.1746 C   0  0  0  0  0  0  0  0  0  0  0  0
   -2.0720   -0.8582   -0.5679 C   0  0  0  0  0  0  0  0  0  0  0  0
   -1.8829    1.5268   -0.8905 O   0  0  0  0  0  0  0  0  0  0  0  0
    3.7465   -1.7909    1.4286 H   0  0  0  0  0  0  0  0  0  0  0  0
    4.2409   -1.2301   -0.1786 H   0  0  0  0  0  0  0  0  0  0  0  0
    3.9777   -0.0401    1.2037 H   0  0  0  0  0  0  0  0  0  0  0  0
    2.4233    1.1021   -0.2126 H   0  0  0  0  0  0  0  0  0  0  0  0
    2.5296   -0.1789   -1.4519 H   0  0  0  0  0  0  0  0  0  0  0  0
    0.2180   -0.7881   -1.2278 H   0  0  0  0  0  0  0  0  0  0  0  0
    0.3199    0.9667   -1.5445 H   0  0  0  0  0  0  0  0  0  0  0  0
   -0.2099   -0.3398    1.1999 H   0  0  0  0  0  0  0  0  0  0  0  0
   -0.0928    1.4308    0.8929 H   0  0  0  0  0  0  0  0  0  0  0  0
   -3.6741    0.9743    0.7550 H   0  0  0  0  0  0  0  0  0  0  0  0
   -2.3137    1.6551    1.7480 H   0  0  0  0  0  0  0  0  0  0  0  0
   -2.7111   -0.1311    1.8415 H   0  0  0  0  0  0  0  0  0  0  0  0
   -2.0824   -0.8725   -1.6782 H   0  0  0  0  0  0  0  0  0  0  0  0
   -1.3503   -1.6567   -0.2445 H   0  0  0  0  0  0  0  0  0  0  0  0
   -3.0733   -1.1857   -0.2187 H   0  0  0  0  0  0  0  0  0  0  0  0
   -1.6818    1.2780   -1.8174 H   0  0  0  0  0  0  0  0  0  0  0  0
  1  2  1  0
  2  3  1  0
  3  4  1  0
  4  5  1  0
  5  6  1  0
  6  7  1  0
  6  8  1  0
  6  9  1  0
  1 10  1  0
  1 11  1  0
  1 12  1  0
  3 13  1  0
  3 14  1  0
  4 15  1  0
  4 16  1  0
  5 17  1  0
  5 18  1  0
  7 19  1  0
  7 20  1  0
  7 21  1  0
  8 22  1  0
  8 23  1  0
  8 24  1  0
  9 25  1  0
M  END
