
     RDKit          3D

 20 21  0  0  0  0  0  0  0  0999 V2000
    3.0026   -0.4132   -0.3530 C   0  0  0  0  0  0  0  0  0  0  0  0
    1.9394    0.0947    0.3964 O   0  0  0  0  0  0  0  0  0  0  0  0
    0.8114    0.2863   -0.4376 C   0  0  0  0  0  0  0  0  0  0  0  0
   -0.2771    0.8107    0.3502 C   0  0  0  0  0  0  0  0  0  0  0  0
   -0.8386    0.0527    1.5263 C   0  0  0  0  0  0  0  0  0  0  0  0
   -1.5273   -0.7748    0.4709 C   0  0  0  0  0  0  0  0  0  0  0  0
   -2.4339   -0.4001   -0.5715 C   0  0  0  0  0  0  0  0  0  0  0  0
   -1.6963    0.6953   -0.0878 C   0  0  0  0  0  0  0  0  0  0  0  0
    3.2301    0.3164   -1.1371 H   0  0  0  0  0  0  0  0  0  0  0  0
    3.8416   -0.5568    0.3656 H   0  0  0  0  0  0  0  0  0  0  0  0
    2.7401   -1.3878   -0.7991 H   0  0  0  0  0  0  0  0  0  0  0  0
    0.7269   -0.5811   -1.0591 H   0  0  0  0  0  0  0  0  0  0  0  0
    1.1569    1.1166   -1.1289 H   0  0  0  0  0  0  0  0  0  0  0  0
   -0.0119    1.8489    0.7077 H   0  0  0  0  0  0  0  0  0  0  0  0
   -1.5993    0.6950    2.0377 H   0  0  0  0  0  0  0  0  0  0  0  0
   -0.1627   -0.4919    2.1639 H   0  0  0  0  0  0  0  0  0  0  0  0
   -0.7412   -1.4261    0.0338 H   0  0  0  0  0  0  0  0  0  0  0  0
   -2.3083   -0.6327   -1.6763 H   0  0  0  0  0  0  0  0  0  0  0  0
   -3.5270   -0.5837   -0.3324 H   0  0  0  0  0  0  0  0  0  0  0  0
   -2.3254    1.3315    0.6259 H   0  0  0  0  0  0  0  0  0  0  0  0
  1  2  1  0
  2  3  1  0
  3  4  1  0
  4  5  1  0
  5  6  1  0
  6  7  1  0
  7  8  1  0
  8  4  1  0
  8  6  1  0
  1  9  1  0
  1 10  1  0
  1 11  1  0
  3 12  1  0
  3 13  1  0
  4 14  1  0
  5 15  1  0
  5 16  1  0
  6 17  1  0
  7 18  1  0
  7 19  1  0
  8 20  1  0
M  END
