
     RDKit          3D

 23 23  0  0  0  0  0  0  0  0999 V2000
    3.4075   -0.3014    0.6176 C   0  0  0  0  0  0  0  0  0  0  0  0
    2.0480   -0.0455    0.7448 O   0  0  0  0  0  0  0  0  0  0  0  0
    1.4730    0.1204   -0.5155 C   0  0  0  0  0  0  0  0  0  0  0  0
    0.0245    0.3896   -0.2987 C   0  0  0  0  0  0  0  0  0  0  0  0
   -0.6650    1.4549   -0.6554 C   0  0  0  0  0  0  0  0  0  0  0  0
   -2.0619    1.2602   -0.2254 C   0  0  0  0  0  0  0  0  0  0  0  0
   -1.8776    0.4148    1.0119 C   0  0  0  0  0  0  0  0  0  0  0  0
   -0.8745   -0.5938    0.4181 C   0  0  0  0  0  0  0  0  0  0  0  0
   -1.5054   -1.4706   -0.6099 C   0  0  0  0  0  0  0  0  0  0  0  0
    3.5852   -1.2235    0.0277 H   0  0  0  0  0  0  0  0  0  0  0  0
    3.9576    0.5561    0.1732 H   0  0  0  0  0  0  0  0  0  0  0  0
    3.8150   -0.4471    1.6411 H   0  0  0  0  0  0  0  0  0  0  0  0
    1.9624    0.9753   -1.0090 H   0  0  0  0  0  0  0  0  0  0  0  0
    1.5819   -0.8228   -1.1057 H   0  0  0  0  0  0  0  0  0  0  0  0
   -0.2268    2.3207   -1.1843 H   0  0  0  0  0  0  0  0  0  0  0  0
   -2.5629    0.6761   -1.0395 H   0  0  0  0  0  0  0  0  0  0  0  0
   -2.5923    2.2076   -0.0146 H   0  0  0  0  0  0  0  0  0  0  0  0
   -2.7771   -0.0727    1.3655 H   0  0  0  0  0  0  0  0  0  0  0  0
   -1.3348    1.0128    1.7578 H   0  0  0  0  0  0  0  0  0  0  0  0
   -0.3514   -1.1566    1.1846 H   0  0  0  0  0  0  0  0  0  0  0  0
   -2.5967   -1.3382   -0.7177 H   0  0  0  0  0  0  0  0  0  0  0  0
   -1.0655   -1.3736   -1.6192 H   0  0  0  0  0  0  0  0  0  0  0  0
   -1.3631   -2.5428   -0.3079 H   0  0  0  0  0  0  0  0  0  0  0  0
  1  2  1  0
  2  3  1  0
  3  4  1  0
  4  5  2  0
  5  6  1  0
  6  7  1  0
  7  8  1  0
  8  9  1  0
  8  4  1  0
  1 10  1  0
  1 11  1  0
  1 12  1  0
  3 13  1  0
  3 14  1  0
  5 15  1  0
  6 16  1  0
  6 17  1  0
  7 18  1  0
  7 19  1  0
  8 20  1  0
  9 21  1  0
  9 22  1  0
  9 23  1  0
M  END
