
     RDKit          3D

 23 23  0  0  0  0  0  0  0  0999 V2000
    2.8506    1.2574    0.0862 C   0  0  0  0  0  0  0  0  0  0  0  0
    2.9164    0.0525   -0.5749 O   0  0  0  0  0  0  0  0  0  0  0  0
    2.0452   -0.9188   -0.1173 C   0  0  0  0  0  0  0  0  0  0  0  0
    0.6440   -0.4435   -0.2693 C   0  0  0  0  0  0  0  0  0  0  0  0
   -0.3731   -1.4724    0.2082 C   0  0  0  0  0  0  0  0  0  0  0  0
   -1.7472   -0.8276   -0.0174 C   0  0  0  0  0  0  0  0  0  0  0  0
   -1.8061    0.4644    0.8063 C   0  0  0  0  0  0  0  0  0  0  0  0
   -3.0774    1.2729    0.7372 C   0  0  0  0  0  0  0  0  0  0  0  0
   -1.9054    1.6492    0.0654 O   0  0  0  0  0  0  0  0  0  0  0  0
    1.8981    1.7842    0.0576 H   0  0  0  0  0  0  0  0  0  0  0  0
    3.1417    1.1562    1.1658 H   0  0  0  0  0  0  0  0  0  0  0  0
    3.6275    1.9138   -0.4061 H   0  0  0  0  0  0  0  0  0  0  0  0
    2.1652   -1.8208   -0.7727 H   0  0  0  0  0  0  0  0  0  0  0  0
    2.2954   -1.2453    0.9135 H   0  0  0  0  0  0  0  0  0  0  0  0
    0.4473   -0.3255   -1.3679 H   0  0  0  0  0  0  0  0  0  0  0  0
    0.3905    0.4871    0.2451 H   0  0  0  0  0  0  0  0  0  0  0  0
   -0.2994   -1.6756    1.2816 H   0  0  0  0  0  0  0  0  0  0  0  0
   -0.2959   -2.4264   -0.3386 H   0  0  0  0  0  0  0  0  0  0  0  0
   -1.9215   -0.6187   -1.0928 H   0  0  0  0  0  0  0  0  0  0  0  0
   -2.5662   -1.4982    0.3138 H   0  0  0  0  0  0  0  0  0  0  0  0
   -1.1786    0.5147    1.7284 H   0  0  0  0  0  0  0  0  0  0  0  0
   -3.3430    1.8534    1.6668 H   0  0  0  0  0  0  0  0  0  0  0  0
   -3.9083    0.8671    0.1251 H   0  0  0  0  0  0  0  0  0  0  0  0
  1  2  1  0
  2  3  1  0
  3  4  1  0
  4  5  1  0
  5  6  1  0
  6  7  1  0
  7  8  1  0
  8  9  1  0
  9  7  1  0
  1 10  1  0
  1 11  1  0
  1 12  1  0
  3 13  1  0
  3 14  1  0
  4 15  1  0
  4 16  1  0
  5 17  1  0
  5 18  1  0
  6 19  1  0
  6 20  1  0
  7 21  1  0
  8 22  1  0
  8 23  1  0
M  END
