
     RDKit          3D

 21 22  0  0  0  0  0  0  0  0999 V2000
    2.8963   -0.4832    0.4876 C   0  0  0  0  0  0  0  0  0  0  0  0
    1.5097   -0.4183    0.3944 O   0  0  0  0  0  0  0  0  0  0  0  0
    1.1650    0.5682   -0.5034 C   0  0  0  0  0  0  0  0  0  0  0  0
   -0.3057    0.7310   -0.6870 C   0  0  0  0  0  0  0  0  0  0  0  0
   -1.0452    1.0894    0.5715 C   0  0  0  0  0  0  0  0  0  0  0  0
   -2.3567    0.8928    0.1971 O   0  0  0  0  0  0  0  0  0  0  0  0
   -2.4399   -0.2055   -0.6081 C   0  0  0  0  0  0  0  0  0  0  0  0
   -1.7137   -1.4092   -0.2150 C   0  0  0  0  0  0  0  0  0  0  0  0
   -1.0259   -0.4848   -1.1368 C   0  0  0  0  0  0  0  0  0  0  0  0
    3.3719   -0.7196   -0.4962 H   0  0  0  0  0  0  0  0  0  0  0  0
    3.2326   -1.2629    1.1903 H   0  0  0  0  0  0  0  0  0  0  0  0
    3.3174    0.4876    0.8608 H   0  0  0  0  0  0  0  0  0  0  0  0
    1.5604    1.5309   -0.0965 H   0  0  0  0  0  0  0  0  0  0  0  0
    1.6241    0.4523   -1.5029 H   0  0  0  0  0  0  0  0  0  0  0  0
   -0.4799    1.5434   -1.4169 H   0  0  0  0  0  0  0  0  0  0  0  0
   -0.9085    2.1499    0.8391 H   0  0  0  0  0  0  0  0  0  0  0  0
   -0.7702    0.3965    1.4034 H   0  0  0  0  0  0  0  0  0  0  0  0
   -3.2564   -0.2215   -1.3649 H   0  0  0  0  0  0  0  0  0  0  0  0
   -2.0366   -2.3769   -0.6631 H   0  0  0  0  0  0  0  0  0  0  0  0
   -1.4353   -1.5021    0.8519 H   0  0  0  0  0  0  0  0  0  0  0  0
   -0.9033   -0.7581   -2.1868 H   0  0  0  0  0  0  0  0  0  0  0  0
  1  2  1  0
  2  3  1  0
  3  4  1  0
  4  5  1  0
  5  6  1  0
  6  7  1  0
  7  8  1  0
  8  9  1  0
  9  4  1  0
  9  7  1  0
  1 10  1  0
  1 11  1  0
  1 12  1  0
  3 13  1  0
  3 14  1  0
  4 15  1  0
  5 16  1  0
  5 17  1  0
  7 18  1  0
  8 19  1  0
  8 20  1  0
  9 21  1  0
M  END
