
     RDKit          3D

 21 22  0  0  0  0  0  0  0  0999 V2000
    2.9213    0.5102    0.4664 C   0  0  0  0  0  0  0  0  0  0  0  0
    1.6982    0.3212   -0.1561 O   0  0  0  0  0  0  0  0  0  0  0  0
    1.0020   -0.7676    0.3286 C   0  0  0  0  0  0  0  0  0  0  0  0
   -0.2944   -0.8697   -0.4153 C   0  0  0  0  0  0  0  0  0  0  0  0
   -0.5670    0.1002   -1.5047 C   0  0  0  0  0  0  0  0  0  0  0  0
   -1.3699    0.1175   -0.2852 C   0  0  0  0  0  0  0  0  0  0  0  0
   -1.3439    1.2264    0.7147 C   0  0  0  0  0  0  0  0  0  0  0  0
   -2.3078   -1.0371   -0.0682 C   0  0  0  0  0  0  0  0  0  0  0  0
   -1.1796   -1.8845   -0.1151 O   0  0  0  0  0  0  0  0  0  0  0  0
    3.3934    1.4034    0.0053 H   0  0  0  0  0  0  0  0  0  0  0  0
    3.6270   -0.3249    0.3201 H   0  0  0  0  0  0  0  0  0  0  0  0
    2.7668    0.7601    1.5448 H   0  0  0  0  0  0  0  0  0  0  0  0
    1.5908   -1.6970    0.1152 H   0  0  0  0  0  0  0  0  0  0  0  0
    0.8635   -0.7508    1.4326 H   0  0  0  0  0  0  0  0  0  0  0  0
    0.2439    0.8134   -1.7182 H   0  0  0  0  0  0  0  0  0  0  0  0
   -1.0993   -0.2350   -2.4420 H   0  0  0  0  0  0  0  0  0  0  0  0
   -0.8530    0.9475    1.6785 H   0  0  0  0  0  0  0  0  0  0  0  0
   -0.8951    2.1438    0.3428 H   0  0  0  0  0  0  0  0  0  0  0  0
   -2.4165    1.4749    0.9688 H   0  0  0  0  0  0  0  0  0  0  0  0
   -2.9321   -1.1827   -0.9771 H   0  0  0  0  0  0  0  0  0  0  0  0
   -2.8482   -1.0692    0.8810 H   0  0  0  0  0  0  0  0  0  0  0  0
  1  2  1  0
  2  3  1  0
  3  4  1  0
  4  5  1  0
  5  6  1  0
  6  7  1  0
  6  8  1  0
  8  9  1  0
  6  4  1  0
  9  4  1  0
  1 10  1  0
  1 11  1  0
  1 12  1  0
  3 13  1  0
  3 14  1  0
  5 15  1  0
  5 16  1  0
  7 17  1  0
  7 18  1  0
  7 19  1  0
  8 20  1  0
  8 21  1  0
M  END
