
     RDKit          3D

 21 20  0  0  0  0  0  0  0  0999 V2000
    2.8135    0.7313    0.6106 C   0  0  0  0  0  0  0  0  0  0  0  0
    1.4860    1.0756    0.2669 O   0  0  0  0  0  0  0  0  0  0  0  0
    0.8526   -0.0978   -0.0748 C   0  0  0  0  0  0  0  0  0  0  0  0
   -0.5762    0.0658   -0.4721 C   0  0  0  0  0  0  0  0  0  0  0  0
   -0.7076    0.9020   -1.5776 O   0  0  0  0  0  0  0  0  0  0  0  0
   -1.0932   -1.3437   -0.7986 C   0  0  0  0  0  0  0  0  0  0  0  0
   -0.9090   -2.0831    0.3803 O   0  0  0  0  0  0  0  0  0  0  0  0
   -1.4450    0.5999    0.6210 C   0  0  0  0  0  0  0  0  0  0  0  0
   -1.1365    1.8739    1.0257 O   0  0  0  0  0  0  0  0  0  0  0  0
    2.7840    0.0243    1.4656 H   0  0  0  0  0  0  0  0  0  0  0  0
    3.1831    0.1301   -0.2584 H   0  0  0  0  0  0  0  0  0  0  0  0
    3.4294    1.6040    0.8269 H   0  0  0  0  0  0  0  0  0  0  0  0
    0.9087   -0.8830    0.7051 H   0  0  0  0  0  0  0  0  0  0  0  0
    1.3976   -0.5114   -0.9647 H   0  0  0  0  0  0  0  0  0  0  0  0
   -0.8105    0.3389   -2.3706 H   0  0  0  0  0  0  0  0  0  0  0  0
   -0.3683   -1.7538   -1.5301 H   0  0  0  0  0  0  0  0  0  0  0  0
   -2.1288   -1.3332   -1.1382 H   0  0  0  0  0  0  0  0  0  0  0  0
   -1.8054   -2.3451    0.6934 H   0  0  0  0  0  0  0  0  0  0  0  0
   -2.4993    0.6075    0.2235 H   0  0  0  0  0  0  0  0  0  0  0  0
   -1.4698   -0.1128    1.4732 H   0  0  0  0  0  0  0  0  0  0  0  0
   -1.9054    2.5103    0.8928 H   0  0  0  0  0  0  0  0  0  0  0  0
  1  2  1  0
  2  3  1  0
  3  4  1  0
  4  5  1  0
  4  6  1  0
  6  7  1  0
  4  8  1  0
  8  9  1  0
  1 10  1  0
  1 11  1  0
  1 12  1  0
  3 13  1  0
  3 14  1  0
  5 15  1  0
  6 16  1  0
  6 17  1  0
  7 18  1  0
  8 19  1  0
  8 20  1  0
  9 21  1  0
M  END
