
     RDKit          3D

 21 21  0  0  0  0  0  0  0  0999 V2000
    2.8709    0.8156    0.6605 C   0  0  0  0  0  0  0  0  0  0  0  0
    1.5181    0.6083    0.3057 O   0  0  0  0  0  0  0  0  0  0  0  0
    1.3940   -0.7509    0.0560 C   0  0  0  0  0  0  0  0  0  0  0  0
    0.0092   -1.1640   -0.3397 C   0  0  0  0  0  0  0  0  0  0  0  0
   -0.6349   -0.5941   -1.5527 C   0  0  0  0  0  0  0  0  0  0  0  0
    0.0987    0.3296   -2.3125 O   0  0  0  0  0  0  0  0  0  0  0  0
   -1.1294   -0.1558   -0.2211 C   0  0  0  0  0  0  0  0  0  0  0  0
   -2.2735   -0.6801    0.3259 O   0  0  0  0  0  0  0  0  0  0  0  0
   -2.9358    0.1621    1.1858 C   0  0  0  0  0  0  0  0  0  0  0  0
    3.0839    1.8682    0.8817 H   0  0  0  0  0  0  0  0  0  0  0  0
    3.4779    0.5551   -0.2498 H   0  0  0  0  0  0  0  0  0  0  0  0
    3.1502    0.1298    1.4991 H   0  0  0  0  0  0  0  0  0  0  0  0
    1.6151   -1.2649    1.0360 H   0  0  0  0  0  0  0  0  0  0  0  0
    2.1749   -1.1271   -0.6401 H   0  0  0  0  0  0  0  0  0  0  0  0
   -0.2205   -2.2408   -0.1566 H   0  0  0  0  0  0  0  0  0  0  0  0
   -1.3307   -1.2322   -2.1447 H   0  0  0  0  0  0  0  0  0  0  0  0
   -0.4863    1.0168   -2.7212 H   0  0  0  0  0  0  0  0  0  0  0  0
   -0.8532    0.8729    0.0748 H   0  0  0  0  0  0  0  0  0  0  0  0
   -2.3396    0.4766    2.0601 H   0  0  0  0  0  0  0  0  0  0  0  0
   -3.8176   -0.4024    1.5830 H   0  0  0  0  0  0  0  0  0  0  0  0
   -3.3714    1.0492    0.6698 H   0  0  0  0  0  0  0  0  0  0  0  0
  1  2  1  0
  2  3  1  0
  3  4  1  0
  4  5  1  0
  5  6  1  0
  5  7  1  0
  7  8  1  0
  8  9  1  0
  7  4  1  0
  1 10  1  0
  1 11  1  0
  1 12  1  0
  3 13  1  0
  3 14  1  0
  4 15  1  0
  5 16  1  0
  6 17  1  0
  7 18  1  0
  9 19  1  0
  9 20  1  0
  9 21  1  0
M  END
