
     RDKit          3D

 21 20  0  0  0  0  0  0  0  0999 V2000
    3.0457   -1.4517    1.6526 C   0  0  0  0  0  0  0  0  0  0  0  0
    2.0456   -0.4401    1.3808 O   0  0  0  0  0  0  0  0  0  0  0  0
    2.3214   -0.0063    0.0701 C   0  0  0  0  0  0  0  0  0  0  0  0
    1.3356    1.0136   -0.3659 C   0  0  0  0  0  0  0  0  0  0  0  0
    0.0828    0.5254   -0.3952 C   0  0  0  0  0  0  0  0  0  0  0  0
   -1.4625   -0.0472   -0.4233 C   0  0  0  0  0  0  0  0  0  0  0  0
   -2.6055   -0.4610   -0.4246 C   0  0  0  0  0  0  0  0  0  0  0  0
   -3.3308    0.8144    0.4089 C   0  0  0  0  0  0  0  0  0  0  0  0
   -3.3164   -0.4559   -1.6394 O   0  0  0  0  0  0  0  0  0  0  0  0
    2.9859   -2.2652    0.9283 H   0  0  0  0  0  0  0  0  0  0  0  0
    4.0129   -0.8775    1.4215 H   0  0  0  0  0  0  0  0  0  0  0  0
    2.9504   -1.7394    2.6798 H   0  0  0  0  0  0  0  0  0  0  0  0
    2.4672   -0.8845   -0.6264 H   0  0  0  0  0  0  0  0  0  0  0  0
    3.3030    0.5295    0.1461 H   0  0  0  0  0  0  0  0  0  0  0  0
    1.5930    1.3333   -1.4799 H   0  0  0  0  0  0  0  0  0  0  0  0
    1.3947    1.9886    0.1723 H   0  0  0  0  0  0  0  0  0  0  0  0
   -2.9075   -1.3436    0.1958 H   0  0  0  0  0  0  0  0  0  0  0  0
   -3.4618    0.4833    1.4005 H   0  0  0  0  0  0  0  0  0  0  0  0
   -2.5596    1.6611    0.3655 H   0  0  0  0  0  0  0  0  0  0  0  0
   -4.1348    1.1489   -0.2167 H   0  0  0  0  0  0  0  0  0  0  0  0
   -3.7592    0.4742   -1.7065 H   0  0  0  0  0  0  0  0  0  0  0  0
  1  2  1  0
  2  3  1  0
  3  4  1  0
  4  5  1  0
  5  6  3  0
  6  7  1  0
  7  8  1  0
  7  9  1  0
  1 10  1  0
  1 11  1  0
  1 12  1  0
  3 13  1  0
  3 14  1  0
  4 15  1  0
  4 16  1  0
  7 17  1  0
  8 18  1  0
  8 19  1  0
  8 20  1  0
  9 21  1  0
M  END
