
     RDKit          3D

 20 19  0  0  0  0  0  0  0  0999 V2000
    2.5248    0.0796   -0.3765 C   0  0  0  0  0  0  0  0  0  0  0  0
    1.8604   -0.9182    0.3023 O   0  0  0  0  0  0  0  0  0  0  0  0
    0.7770   -0.4895    1.0556 C   0  0  0  0  0  0  0  0  0  0  0  0
   -0.2371    0.1620    0.1752 C   0  0  0  0  0  0  0  0  0  0  0  0
   -0.7024   -0.8412   -0.8555 C   0  0  0  0  0  0  0  0  0  0  0  0
   -1.6534   -0.1840   -1.6591 O   0  0  0  0  0  0  0  0  0  0  0  0
   -1.4568    0.6344    0.9346 C   0  0  0  0  0  0  0  0  0  0  0  0
   -2.3222    1.2205    0.0074 O   0  0  0  0  0  0  0  0  0  0  0  0
    3.3682   -0.4439   -0.9202 H   0  0  0  0  0  0  0  0  0  0  0  0
    1.8919    0.4635   -1.2312 H   0  0  0  0  0  0  0  0  0  0  0  0
    2.8892    0.8938    0.2680 H   0  0  0  0  0  0  0  0  0  0  0  0
    0.3532   -1.4106    1.5286 H   0  0  0  0  0  0  0  0  0  0  0  0
    1.1196    0.1808    1.8874 H   0  0  0  0  0  0  0  0  0  0  0  0
    0.1734    1.0438   -0.3398 H   0  0  0  0  0  0  0  0  0  0  0  0
   -1.1840   -1.7162   -0.3610 H   0  0  0  0  0  0  0  0  0  0  0  0
    0.1625   -1.1884   -1.4244 H   0  0  0  0  0  0  0  0  0  0  0  0
   -2.5188   -0.6483   -1.5799 H   0  0  0  0  0  0  0  0  0  0  0  0
   -1.9808   -0.1616    1.4642 H   0  0  0  0  0  0  0  0  0  0  0  0
   -1.2087    1.4271    1.6701 H   0  0  0  0  0  0  0  0  0  0  0  0
   -1.8560    1.8964   -0.5457 H   0  0  0  0  0  0  0  0  0  0  0  0
  1  2  1  0
  2  3  1  0
  3  4  1  0
  4  5  1  0
  5  6  1  0
  4  7  1  0
  7  8  1  0
  1  9  1  0
  1 10  1  0
  1 11  1  0
  3 12  1  0
  3 13  1  0
  4 14  1  0
  5 15  1  0
  5 16  1  0
  6 17  1  0
  7 18  1  0
  7 19  1  0
  8 20  1  0
M  END
