
     RDKit          3D

 21 21  0  0  0  0  0  0  0  0999 V2000
    3.0077   -0.7977    0.2412 C   0  0  0  0  0  0  0  0  0  0  0  0
    1.7917   -0.3550   -0.2589 O   0  0  0  0  0  0  0  0  0  0  0  0
    0.8369   -0.1657    0.7391 C   0  0  0  0  0  0  0  0  0  0  0  0
   -0.4212    0.3127    0.0415 C   0  0  0  0  0  0  0  0  0  0  0  0
   -0.1434    1.5039   -0.8435 C   0  0  0  0  0  0  0  0  0  0  0  0
   -0.9072   -0.8689   -0.7648 C   0  0  0  0  0  0  0  0  0  0  0  0
   -2.2310   -0.8281   -0.6864 C   0  0  0  0  0  0  0  0  0  0  0  0
   -2.5768    0.3482    0.1466 C   0  0  0  0  0  0  0  0  0  0  0  0
   -1.4654    0.5420    0.9372 O   0  0  0  0  0  0  0  0  0  0  0  0
    2.8267   -1.7758    0.7590 H   0  0  0  0  0  0  0  0  0  0  0  0
    3.5188   -0.0730    0.8743 H   0  0  0  0  0  0  0  0  0  0  0  0
    3.6581   -0.9991   -0.6359 H   0  0  0  0  0  0  0  0  0  0  0  0
    0.5605   -1.1222    1.2463 H   0  0  0  0  0  0  0  0  0  0  0  0
    1.1373    0.6152    1.4622 H   0  0  0  0  0  0  0  0  0  0  0  0
    0.8010    1.9749   -0.4442 H   0  0  0  0  0  0  0  0  0  0  0  0
    0.0153    1.1654   -1.9084 H   0  0  0  0  0  0  0  0  0  0  0  0
   -0.9557    2.2557   -0.7988 H   0  0  0  0  0  0  0  0  0  0  0  0
   -0.3170   -1.5965   -1.2948 H   0  0  0  0  0  0  0  0  0  0  0  0
   -2.9343   -1.5393   -1.1555 H   0  0  0  0  0  0  0  0  0  0  0  0
   -3.5041    0.1774    0.7411 H   0  0  0  0  0  0  0  0  0  0  0  0
   -2.6977    1.2260   -0.5424 H   0  0  0  0  0  0  0  0  0  0  0  0
  1  2  1  0
  2  3  1  0
  3  4  1  0
  4  5  1  0
  4  6  1  0
  6  7  2  0
  7  8  1  0
  8  9  1  0
  9  4  1  0
  1 10  1  0
  1 11  1  0
  1 12  1  0
  3 13  1  0
  3 14  1  0
  5 15  1  0
  5 16  1  0
  5 17  1  0
  6 18  1  0
  7 19  1  0
  8 20  1  0
  8 21  1  0
M  END
