
     RDKit          3D

 25 25  0  0  0  0  0  0  0  0999 V2000
    2.8390    0.9991   -0.2327 C   0  0  0  0  0  0  0  0  0  0  0  0
    2.7002   -0.1697   -0.9731 O   0  0  0  0  0  0  0  0  0  0  0  0
    2.2845   -1.2620   -0.2390 C   0  0  0  0  0  0  0  0  0  0  0  0
    0.9335   -1.0100    0.3960 C   0  0  0  0  0  0  0  0  0  0  0  0
   -0.1211   -0.7242   -0.6532 C   0  0  0  0  0  0  0  0  0  0  0  0
   -1.4638   -0.4711   -0.0545 C   0  0  0  0  0  0  0  0  0  0  0  0
   -1.5785    0.6788    0.8893 C   0  0  0  0  0  0  0  0  0  0  0  0
   -2.7821    1.2008    0.1451 C   0  0  0  0  0  0  0  0  0  0  0  0
   -2.3701    0.2956   -1.0197 C   0  0  0  0  0  0  0  0  0  0  0  0
    3.5868    0.8154    0.5663 H   0  0  0  0  0  0  0  0  0  0  0  0
    3.2405    1.7809   -0.9379 H   0  0  0  0  0  0  0  0  0  0  0  0
    1.8503    1.3253    0.1232 H   0  0  0  0  0  0  0  0  0  0  0  0
    3.0451   -1.5332    0.5491 H   0  0  0  0  0  0  0  0  0  0  0  0
    2.2457   -2.1257   -0.9371 H   0  0  0  0  0  0  0  0  0  0  0  0
    0.9454   -0.1763    1.1180 H   0  0  0  0  0  0  0  0  0  0  0  0
    0.6330   -1.9082    1.0063 H   0  0  0  0  0  0  0  0  0  0  0  0
   -0.2169   -1.6648   -1.2719 H   0  0  0  0  0  0  0  0  0  0  0  0
    0.2144    0.0486   -1.3723 H   0  0  0  0  0  0  0  0  0  0  0  0
   -1.9149   -1.4243    0.3035 H   0  0  0  0  0  0  0  0  0  0  0  0
   -1.8801    0.3238    1.8981 H   0  0  0  0  0  0  0  0  0  0  0  0
   -0.7169    1.3621    0.9464 H   0  0  0  0  0  0  0  0  0  0  0  0
   -3.7615    0.8559    0.5307 H   0  0  0  0  0  0  0  0  0  0  0  0
   -2.7146    2.2734   -0.0594 H   0  0  0  0  0  0  0  0  0  0  0  0
   -3.1749   -0.3658   -1.3835 H   0  0  0  0  0  0  0  0  0  0  0  0
   -1.8228    0.8755   -1.7845 H   0  0  0  0  0  0  0  0  0  0  0  0
  1  2  1  0
  2  3  1  0
  3  4  1  0
  4  5  1  0
  5  6  1  0
  6  7  1  0
  7  8  1  0
  8  9  1  0
  9  6  1  0
  1 10  1  0
  1 11  1  0
  1 12  1  0
  3 13  1  0
  3 14  1  0
  4 15  1  0
  4 16  1  0
  5 17  1  0
  5 18  1  0
  6 19  1  0
  7 20  1  0
  7 21  1  0
  8 22  1  0
  8 23  1  0
  9 24  1  0
  9 25  1  0
M  END
