
     RDKit          3D

 21 20  0  0  0  0  0  0  0  0999 V2000
    2.5560   -0.0835    1.1105 C   0  0  0  0  0  0  0  0  0  0  0  0
    1.2174   -0.3603    0.8357 O   0  0  0  0  0  0  0  0  0  0  0  0
    0.8667    0.3261   -0.2935 C   0  0  0  0  0  0  0  0  0  0  0  0
   -0.5385    0.1599   -0.7564 C   0  0  0  0  0  0  0  0  0  0  0  0
   -0.8374   -1.2553   -1.1678 C   0  0  0  0  0  0  0  0  0  0  0  0
   -0.6803    0.9458   -1.9264 O   0  0  0  0  0  0  0  0  0  0  0  0
   -1.5139    0.7142    0.2295 C   0  0  0  0  0  0  0  0  0  0  0  0
   -1.4770    0.1028    1.5619 C   0  0  0  0  0  0  0  0  0  0  0  0
   -2.2726    0.5656    2.3866 O   0  0  0  0  0  0  0  0  0  0  0  0
    3.2032   -0.4071    0.2521 H   0  0  0  0  0  0  0  0  0  0  0  0
    2.9336   -0.6783    1.9890 H   0  0  0  0  0  0  0  0  0  0  0  0
    2.7462    0.9971    1.2278 H   0  0  0  0  0  0  0  0  0  0  0  0
    1.0288    1.4130   -0.0819 H   0  0  0  0  0  0  0  0  0  0  0  0
    1.6169    0.0841   -1.0879 H   0  0  0  0  0  0  0  0  0  0  0  0
   -1.8702   -1.3272   -1.5453 H   0  0  0  0  0  0  0  0  0  0  0  0
   -0.5955   -2.0000   -0.3850 H   0  0  0  0  0  0  0  0  0  0  0  0
   -0.1724   -1.5019   -2.0324 H   0  0  0  0  0  0  0  0  0  0  0  0
   -1.4824    0.5663   -2.3851 H   0  0  0  0  0  0  0  0  0  0  0  0
   -2.5634    0.6270   -0.1533 H   0  0  0  0  0  0  0  0  0  0  0  0
   -1.3355    1.8135    0.3365 H   0  0  0  0  0  0  0  0  0  0  0  0
   -0.8296   -0.7020    1.8853 H   0  0  0  0  0  0  0  0  0  0  0  0
  1  2  1  0
  2  3  1  0
  3  4  1  0
  4  5  1  0
  4  6  1  0
  4  7  1  0
  7  8  1  0
  8  9  2  0
  1 10  1  0
  1 11  1  0
  1 12  1  0
  3 13  1  0
  3 14  1  0
  5 15  1  0
  5 16  1  0
  5 17  1  0
  6 18  1  0
  7 19  1  0
  7 20  1  0
  8 21  1  0
M  END
