
     RDKit          3D

 23 24  0  0  0  0  0  0  0  0999 V2000
    3.2132    0.0899   -0.6739 C   0  0  0  0  0  0  0  0  0  0  0  0
    1.8961   -0.3513   -0.8066 O   0  0  0  0  0  0  0  0  0  0  0  0
    1.1736    0.2686    0.1736 C   0  0  0  0  0  0  0  0  0  0  0  0
   -0.2644   -0.0427    0.2370 C   0  0  0  0  0  0  0  0  0  0  0  0
   -0.6448   -1.4800    0.4638 C   0  0  0  0  0  0  0  0  0  0  0  0
   -1.7122   -1.3168   -0.5966 C   0  0  0  0  0  0  0  0  0  0  0  0
   -1.1094    0.0106   -0.9584 C   0  0  0  0  0  0  0  0  0  0  0  0
   -1.8916    1.1519   -0.3955 C   0  0  0  0  0  0  0  0  0  0  0  0
   -1.1340    0.9685    0.9118 C   0  0  0  0  0  0  0  0  0  0  0  0
    3.1652    1.2111   -0.8090 H   0  0  0  0  0  0  0  0  0  0  0  0
    3.9180   -0.3968   -1.3363 H   0  0  0  0  0  0  0  0  0  0  0  0
    3.4671   -0.0345    0.4149 H   0  0  0  0  0  0  0  0  0  0  0  0
    1.6310   -0.0006    1.1684 H   0  0  0  0  0  0  0  0  0  0  0  0
    1.3013    1.3668    0.0836 H   0  0  0  0  0  0  0  0  0  0  0  0
   -1.0300   -1.5963    1.5013 H   0  0  0  0  0  0  0  0  0  0  0  0
    0.1549   -2.1526    0.1572 H   0  0  0  0  0  0  0  0  0  0  0  0
   -1.6318   -2.0453   -1.4052 H   0  0  0  0  0  0  0  0  0  0  0  0
   -2.7478   -1.2503   -0.1968 H   0  0  0  0  0  0  0  0  0  0  0  0
   -0.6761    0.1144   -1.9449 H   0  0  0  0  0  0  0  0  0  0  0  0
   -1.7216    2.1343   -0.8822 H   0  0  0  0  0  0  0  0  0  0  0  0
   -2.9724    0.9754   -0.2151 H   0  0  0  0  0  0  0  0  0  0  0  0
   -1.7315    0.4666    1.7112 H   0  0  0  0  0  0  0  0  0  0  0  0
   -0.6526    1.9091    1.2115 H   0  0  0  0  0  0  0  0  0  0  0  0
  1  2  1  0
  2  3  1  0
  3  4  1  0
  4  5  1  0
  5  6  1  0
  6  7  1  0
  7  8  1  0
  8  9  1  0
  7  4  1  0
  9  4  1  0
  1 10  1  0
  1 11  1  0
  1 12  1  0
  3 13  1  0
  3 14  1  0
  5 15  1  0
  5 16  1  0
  6 17  1  0
  6 18  1  0
  7 19  1  0
  8 20  1  0
  8 21  1  0
  9 22  1  0
  9 23  1  0
M  END
