
     RDKit          3D

 21 22  0  0  0  0  0  0  0  0999 V2000
    3.0326   -0.8344    0.5210 C   0  0  0  0  0  0  0  0  0  0  0  0
    2.0190   -1.2453   -0.3036 O   0  0  0  0  0  0  0  0  0  0  0  0
    1.0806   -0.3086   -0.6374 C   0  0  0  0  0  0  0  0  0  0  0  0
    0.3243    0.2861    0.5009 C   0  0  0  0  0  0  0  0  0  0  0  0
   -0.6975    1.3014    0.1676 C   0  0  0  0  0  0  0  0  0  0  0  0
   -1.5676    1.0436   -1.0317 C   0  0  0  0  0  0  0  0  0  0  0  0
   -2.1151   -0.1733   -0.2990 C   0  0  0  0  0  0  0  0  0  0  0  0
   -2.0828   -1.3019   -1.0739 O   0  0  0  0  0  0  0  0  0  0  0  0
   -1.0856   -0.0652    0.7815 C   0  0  0  0  0  0  0  0  0  0  0  0
    2.6999   -0.4665    1.5034 H   0  0  0  0  0  0  0  0  0  0  0  0
    3.6656   -1.7398    0.7262 H   0  0  0  0  0  0  0  0  0  0  0  0
    3.6717   -0.0364    0.0762 H   0  0  0  0  0  0  0  0  0  0  0  0
    0.3266   -0.8351   -1.2901 H   0  0  0  0  0  0  0  0  0  0  0  0
    1.4874    0.5012   -1.2934 H   0  0  0  0  0  0  0  0  0  0  0  0
    0.9355    0.5259    1.3934 H   0  0  0  0  0  0  0  0  0  0  0  0
   -0.8107    2.1894    0.7828 H   0  0  0  0  0  0  0  0  0  0  0  0
   -0.9941    0.7403   -1.9286 H   0  0  0  0  0  0  0  0  0  0  0  0
   -2.2919    1.8496   -1.1950 H   0  0  0  0  0  0  0  0  0  0  0  0
   -3.1453    0.0570    0.0579 H   0  0  0  0  0  0  0  0  0  0  0  0
   -2.9879   -1.4867   -1.4187 H   0  0  0  0  0  0  0  0  0  0  0  0
   -1.4648   -0.0014    1.8213 H   0  0  0  0  0  0  0  0  0  0  0  0
  1  2  1  0
  2  3  1  0
  3  4  1  0
  4  5  1  0
  5  6  1  0
  6  7  1  0
  7  8  1  0
  7  9  1  0
  9  4  1  0
  9  5  1  0
  1 10  1  0
  1 11  1  0
  1 12  1  0
  3 13  1  0
  3 14  1  0
  4 15  1  0
  5 16  1  0
  6 17  1  0
  6 18  1  0
  7 19  1  0
  8 20  1  0
  9 21  1  0
M  END
