
     RDKit          3D

 21 21  0  0  0  0  0  0  0  0999 V2000
   -2.8019    0.2131   -0.1512 C   0  0  0  0  0  0  0  0  0  0  0  0
   -2.3625   -1.0905   -0.2416 O   0  0  0  0  0  0  0  0  0  0  0  0
   -1.0449   -1.2640    0.1023 C   0  0  0  0  0  0  0  0  0  0  0  0
   -0.1603   -0.4850   -0.7941 C   0  0  0  0  0  0  0  0  0  0  0  0
    1.3117   -0.6446   -0.4939 C   0  0  0  0  0  0  0  0  0  0  0  0
    2.0513    0.1259   -1.3903 O   0  0  0  0  0  0  0  0  0  0  0  0
    2.0111    1.1642   -0.4648 C   0  0  0  0  0  0  0  0  0  0  0  0
    1.8682    0.1551    0.6214 C   0  0  0  0  0  0  0  0  0  0  0  0
    1.0067    0.4798    1.6566 O   0  0  0  0  0  0  0  0  0  0  0  0
   -2.6344    0.5322    0.9115 H   0  0  0  0  0  0  0  0  0  0  0  0
   -2.3418    0.9271   -0.8456 H   0  0  0  0  0  0  0  0  0  0  0  0
   -3.9292    0.2231   -0.2641 H   0  0  0  0  0  0  0  0  0  0  0  0
   -0.8088   -2.3520    0.1329 H   0  0  0  0  0  0  0  0  0  0  0  0
   -0.9719   -0.9230    1.1823 H   0  0  0  0  0  0  0  0  0  0  0  0
   -0.4315    0.5849   -0.7477 H   0  0  0  0  0  0  0  0  0  0  0  0
   -0.3262   -0.8198   -1.8362 H   0  0  0  0  0  0  0  0  0  0  0  0
    1.6394   -1.7035   -0.5283 H   0  0  0  0  0  0  0  0  0  0  0  0
    2.9380    1.7760   -0.4385 H   0  0  0  0  0  0  0  0  0  0  0  0
    1.1476    1.8579   -0.5597 H   0  0  0  0  0  0  0  0  0  0  0  0
    2.8563   -0.2356    0.9377 H   0  0  0  0  0  0  0  0  0  0  0  0
    0.9831    1.4789    1.7487 H   0  0  0  0  0  0  0  0  0  0  0  0
  1  2  1  0
  2  3  1  0
  3  4  1  0
  4  5  1  0
  5  6  1  0
  6  7  1  0
  7  8  1  0
  8  9  1  0
  8  5  1  0
  1 10  1  0
  1 11  1  0
  1 12  1  0
  3 13  1  0
  3 14  1  0
  4 15  1  0
  4 16  1  0
  5 17  1  0
  7 18  1  0
  7 19  1  0
  8 20  1  0
  9 21  1  0
M  END
