
     RDKit          3D

 21 21  0  0  0  0  0  0  0  0999 V2000
    2.5481    0.1774   -0.3637 C   0  0  0  0  0  0  0  0  0  0  0  0
    2.0930   -1.0338    0.0754 O   0  0  0  0  0  0  0  0  0  0  0  0
    0.8556   -1.0525    0.6638 C   0  0  0  0  0  0  0  0  0  0  0  0
   -0.2769   -0.5926   -0.1910 C   0  0  0  0  0  0  0  0  0  0  0  0
   -0.4340   -1.3636   -1.3602 O   0  0  0  0  0  0  0  0  0  0  0  0
   -1.5603   -0.5402    0.6215 C   0  0  0  0  0  0  0  0  0  0  0  0
   -1.9210    0.7286   -0.0854 C   0  0  0  0  0  0  0  0  0  0  0  0
   -2.3374    1.7829    0.7098 O   0  0  0  0  0  0  0  0  0  0  0  0
   -0.4439    0.8507   -0.4702 C   0  0  0  0  0  0  0  0  0  0  0  0
    1.9065    0.6309   -1.1204 H   0  0  0  0  0  0  0  0  0  0  0  0
    2.7334    0.9117    0.4507 H   0  0  0  0  0  0  0  0  0  0  0  0
    3.5350   -0.0163   -0.8699 H   0  0  0  0  0  0  0  0  0  0  0  0
    0.6474   -2.1358    0.9128 H   0  0  0  0  0  0  0  0  0  0  0  0
    0.8225   -0.5353    1.6450 H   0  0  0  0  0  0  0  0  0  0  0  0
    0.2171   -0.9745   -2.0143 H   0  0  0  0  0  0  0  0  0  0  0  0
   -1.3868   -0.4577    1.7131 H   0  0  0  0  0  0  0  0  0  0  0  0
   -2.1591   -1.4317    0.3994 H   0  0  0  0  0  0  0  0  0  0  0  0
   -2.5827    0.5487   -0.9425 H   0  0  0  0  0  0  0  0  0  0  0  0
   -1.9256    1.7933    1.5947 H   0  0  0  0  0  0  0  0  0  0  0  0
   -0.3978    1.1431   -1.5512 H   0  0  0  0  0  0  0  0  0  0  0  0
    0.0668    1.5668    0.1826 H   0  0  0  0  0  0  0  0  0  0  0  0
  1  2  1  0
  2  3  1  0
  3  4  1  0
  4  5  1  0
  4  6  1  0
  6  7  1  0
  7  8  1  0
  7  9  1  0
  9  4  1  0
  1 10  1  0
  1 11  1  0
  1 12  1  0
  3 13  1  0
  3 14  1  0
  5 15  1  0
  6 16  1  0
  6 17  1  0
  7 18  1  0
  8 19  1  0
  9 20  1  0
  9 21  1  0
M  END
