
     RDKit          3D

 21 22  0  0  0  0  0  0  0  0999 V2000
    3.3666    0.6348    0.3232 C   0  0  0  0  0  0  0  0  0  0  0  0
    2.0822    1.0433   -0.0391 O   0  0  0  0  0  0  0  0  0  0  0  0
    1.2769   -0.0891   -0.0095 C   0  0  0  0  0  0  0  0  0  0  0  0
   -0.1416    0.2699   -0.3927 C   0  0  0  0  0  0  0  0  0  0  0  0
   -1.1862   -0.8882   -0.4118 C   0  0  0  0  0  0  0  0  0  0  0  0
   -1.8108   -1.4718    0.8062 C   0  0  0  0  0  0  0  0  0  0  0  0
   -1.0904   -0.6446    1.6629 O   0  0  0  0  0  0  0  0  0  0  0  0
   -1.1455    0.1563    0.5394 C   0  0  0  0  0  0  0  0  0  0  0  0
   -2.3078    1.1459    0.5673 C   0  0  0  0  0  0  0  0  0  0  0  0
    3.6706   -0.1297   -0.4443 H   0  0  0  0  0  0  0  0  0  0  0  0
    4.0804    1.4790    0.3539 H   0  0  0  0  0  0  0  0  0  0  0  0
    3.3131    0.0864    1.2893 H   0  0  0  0  0  0  0  0  0  0  0  0
    1.6893   -0.8172   -0.7555 H   0  0  0  0  0  0  0  0  0  0  0  0
    1.3084   -0.4949    1.0219 H   0  0  0  0  0  0  0  0  0  0  0  0
   -0.2484    0.8755   -1.3208 H   0  0  0  0  0  0  0  0  0  0  0  0
   -0.6897   -1.6272   -0.9673 H   0  0  0  0  0  0  0  0  0  0  0  0
   -2.9126   -1.2749    0.7995 H   0  0  0  0  0  0  0  0  0  0  0  0
   -1.6377   -2.5131    1.0595 H   0  0  0  0  0  0  0  0  0  0  0  0
   -1.8607    2.1074    0.9327 H   0  0  0  0  0  0  0  0  0  0  0  0
   -3.0724    0.8414    1.2894 H   0  0  0  0  0  0  0  0  0  0  0  0
   -2.6837    1.3111   -0.4521 H   0  0  0  0  0  0  0  0  0  0  0  0
  1  2  1  0
  2  3  1  0
  3  4  1  0
  4  5  1  0
  5  6  1  0
  6  7  1  0
  7  8  1  0
  8  9  1  0
  8  4  1  0
  8  5  1  0
  1 10  1  0
  1 11  1  0
  1 12  1  0
  3 13  1  0
  3 14  1  0
  4 15  1  0
  5 16  1  0
  6 17  1  0
  6 18  1  0
  9 19  1  0
  9 20  1  0
  9 21  1  0
M  END
