
     RDKit          3D

 19 19  0  0  0  0  0  0  0  0999 V2000
    2.9449    0.5290    0.5047 C   0  0  0  0  0  0  0  0  0  0  0  0
    1.7494    0.4899   -0.2300 O   0  0  0  0  0  0  0  0  0  0  0  0
    0.8382   -0.3887    0.4019 C   0  0  0  0  0  0  0  0  0  0  0  0
   -0.4020   -0.3569   -0.4617 C   0  0  0  0  0  0  0  0  0  0  0  0
   -1.5370   -1.2074   -0.0174 C   0  0  0  0  0  0  0  0  0  0  0  0
   -2.0046   -0.0841    0.8398 C   0  0  0  0  0  0  0  0  0  0  0  0
   -2.6832    0.0509    1.8203 O   0  0  0  0  0  0  0  0  0  0  0  0
   -1.2538    0.8394   -0.0558 C   0  0  0  0  0  0  0  0  0  0  0  0
   -1.9575    1.3047   -1.1452 O   0  0  0  0  0  0  0  0  0  0  0  0
    3.6119    1.2299   -0.0391 H   0  0  0  0  0  0  0  0  0  0  0  0
    3.3400   -0.5157    0.4872 H   0  0  0  0  0  0  0  0  0  0  0  0
    2.6940    0.8659    1.5223 H   0  0  0  0  0  0  0  0  0  0  0  0
    1.2878   -1.3815    0.4889 H   0  0  0  0  0  0  0  0  0  0  0  0
    0.6593    0.0594    1.4033 H   0  0  0  0  0  0  0  0  0  0  0  0
   -0.2063   -0.4403   -1.5311 H   0  0  0  0  0  0  0  0  0  0  0  0
   -1.2907   -2.1362    0.5154 H   0  0  0  0  0  0  0  0  0  0  0  0
   -2.2712   -1.3345   -0.8586 H   0  0  0  0  0  0  0  0  0  0  0  0
   -0.6803    1.6280    0.5068 H   0  0  0  0  0  0  0  0  0  0  0  0
   -2.8390    0.8481   -1.2468 H   0  0  0  0  0  0  0  0  0  0  0  0
  1  2  1  0
  2  3  1  0
  3  4  1  0
  4  5  1  0
  5  6  1  0
  6  7  2  0
  6  8  1  0
  8  9  1  0
  8  4  1  0
  1 10  1  0
  1 11  1  0
  1 12  1  0
  3 13  1  0
  3 14  1  0
  4 15  1  0
  5 16  1  0
  5 17  1  0
  8 18  1  0
  9 19  1  0
M  END
