
     RDKit          3D

 20 20  0  0  0  0  0  0  0  0999 V2000
   -3.2732   -0.1879   -0.2570 C   0  0  0  0  0  0  0  0  0  0  0  0
   -2.0903   -0.3496    0.4654 O   0  0  0  0  0  0  0  0  0  0  0  0
   -1.1574    0.5532   -0.0212 C   0  0  0  0  0  0  0  0  0  0  0  0
    0.1533    0.4610    0.6901 C   0  0  0  0  0  0  0  0  0  0  0  0
    0.8012   -0.8801    0.5861 C   0  0  0  0  0  0  0  0  0  0  0  0
    2.0130   -1.1307    1.1852 O   0  0  0  0  0  0  0  0  0  0  0  0
    2.0781   -0.9047   -0.2181 C   0  0  0  0  0  0  0  0  0  0  0  0
    2.7470    0.3815   -0.5704 C   0  0  0  0  0  0  0  0  0  0  0  0
   -3.5967    0.8584   -0.0951 H   0  0  0  0  0  0  0  0  0  0  0  0
   -4.0567   -0.9005    0.1069 H   0  0  0  0  0  0  0  0  0  0  0  0
   -3.1308   -0.4271   -1.3298 H   0  0  0  0  0  0  0  0  0  0  0  0
   -1.0807    0.4217   -1.1131 H   0  0  0  0  0  0  0  0  0  0  0  0
   -1.5689    1.5798    0.1858 H   0  0  0  0  0  0  0  0  0  0  0  0
   -0.0302    0.7098    1.7558 H   0  0  0  0  0  0  0  0  0  0  0  0
    0.8177    1.2509    0.2874 H   0  0  0  0  0  0  0  0  0  0  0  0
    0.1253   -1.7737    0.4970 H   0  0  0  0  0  0  0  0  0  0  0  0
    2.3099   -1.8063   -0.8095 H   0  0  0  0  0  0  0  0  0  0  0  0
    3.8003    0.1551   -0.8880 H   0  0  0  0  0  0  0  0  0  0  0  0
    2.8491    1.0650    0.2980 H   0  0  0  0  0  0  0  0  0  0  0  0
    2.2900    0.9244   -1.4131 H   0  0  0  0  0  0  0  0  0  0  0  0
  1  2  1  0
  2  3  1  0
  3  4  1  0
  4  5  1  0
  5  6  1  0
  6  7  1  0
  7  8  1  0
  7  5  1  0
  1  9  1  0
  1 10  1  0
  1 11  1  0
  3 12  1  0
  3 13  1  0
  4 14  1  0
  4 15  1  0
  5 16  1  0
  7 17  1  0
  8 18  1  0
  8 19  1  0
  8 20  1  0
M  END
