
     RDKit          3D

 23 23  0  0  0  0  0  0  0  0999 V2000
    3.4807    0.0815   -0.1098 C   0  0  0  0  0  0  0  0  0  0  0  0
    2.1610    0.0650   -0.5270 O   0  0  0  0  0  0  0  0  0  0  0  0
    1.2805    0.3807    0.5100 C   0  0  0  0  0  0  0  0  0  0  0  0
   -0.1173    0.3255   -0.0833 C   0  0  0  0  0  0  0  0  0  0  0  0
   -1.0760    0.6738    1.0643 C   0  0  0  0  0  0  0  0  0  0  0  0
   -2.4575    0.7354    0.4594 C   0  0  0  0  0  0  0  0  0  0  0  0
   -2.4924    0.2145   -0.8136 O   0  0  0  0  0  0  0  0  0  0  0  0
   -1.9491   -1.0420   -0.9283 C   0  0  0  0  0  0  0  0  0  0  0  0
   -0.4791   -1.0826   -0.5060 C   0  0  0  0  0  0  0  0  0  0  0  0
    4.0997   -0.1803   -0.9992 H   0  0  0  0  0  0  0  0  0  0  0  0
    3.5996   -0.6594    0.6996 H   0  0  0  0  0  0  0  0  0  0  0  0
    3.7410    1.1136    0.1888 H   0  0  0  0  0  0  0  0  0  0  0  0
    1.4781    1.4222    0.8329 H   0  0  0  0  0  0  0  0  0  0  0  0
    1.3723   -0.3325    1.3503 H   0  0  0  0  0  0  0  0  0  0  0  0
   -0.2259    1.0125   -0.9233 H   0  0  0  0  0  0  0  0  0  0  0  0
   -1.0224   -0.2027    1.7625 H   0  0  0  0  0  0  0  0  0  0  0  0
   -0.7497    1.6124    1.5234 H   0  0  0  0  0  0  0  0  0  0  0  0
   -2.7183    1.8196    0.3774 H   0  0  0  0  0  0  0  0  0  0  0  0
   -3.1732    0.2661    1.1470 H   0  0  0  0  0  0  0  0  0  0  0  0
   -1.9771   -1.3518   -1.9802 H   0  0  0  0  0  0  0  0  0  0  0  0
   -2.5503   -1.7396   -0.3192 H   0  0  0  0  0  0  0  0  0  0  0  0
   -0.4018   -1.7106    0.4138 H   0  0  0  0  0  0  0  0  0  0  0  0
    0.1773   -1.4213   -1.3106 H   0  0  0  0  0  0  0  0  0  0  0  0
  1  2  1  0
  2  3  1  0
  3  4  1  0
  4  5  1  0
  5  6  1  0
  6  7  1  0
  7  8  1  0
  8  9  1  0
  9  4  1  0
  1 10  1  0
  1 11  1  0
  1 12  1  0
  3 13  1  0
  3 14  1  0
  4 15  1  0
  5 16  1  0
  5 17  1  0
  6 18  1  0
  6 19  1  0
  8 20  1  0
  8 21  1  0
  9 22  1  0
  9 23  1  0
M  END
