
     RDKit          3D

 23 23  0  0  0  0  0  0  0  0999 V2000
    3.0909    0.1715   -0.4255 C   0  0  0  0  0  0  0  0  0  0  0  0
    2.3046   -0.8256    0.1098 O   0  0  0  0  0  0  0  0  0  0  0  0
    1.1335   -0.3413    0.6843 C   0  0  0  0  0  0  0  0  0  0  0  0
    0.3516    0.3627   -0.3931 C   0  0  0  0  0  0  0  0  0  0  0  0
   -0.0042   -0.5647   -1.5375 C   0  0  0  0  0  0  0  0  0  0  0  0
   -1.3149    0.2086   -1.6312 C   0  0  0  0  0  0  0  0  0  0  0  0
   -1.1539    0.4378   -0.1197 C   0  0  0  0  0  0  0  0  0  0  0  0
   -1.6499   -0.6518    0.5558 O   0  0  0  0  0  0  0  0  0  0  0  0
   -2.5330   -0.2436    1.5613 C   0  0  0  0  0  0  0  0  0  0  0  0
    2.6252    0.7621   -1.2170 H   0  0  0  0  0  0  0  0  0  0  0  0
    3.4419    0.8959    0.3651 H   0  0  0  0  0  0  0  0  0  0  0  0
    4.0207   -0.2719   -0.8331 H   0  0  0  0  0  0  0  0  0  0  0  0
    0.5318   -1.2576    0.9537 H   0  0  0  0  0  0  0  0  0  0  0  0
    1.3017    0.2634    1.5743 H   0  0  0  0  0  0  0  0  0  0  0  0
    0.7272    1.3204   -0.7388 H   0  0  0  0  0  0  0  0  0  0  0  0
   -0.1932   -1.5689   -1.1482 H   0  0  0  0  0  0  0  0  0  0  0  0
    0.6402   -0.4916   -2.4276 H   0  0  0  0  0  0  0  0  0  0  0  0
   -2.1854   -0.4264   -1.8761 H   0  0  0  0  0  0  0  0  0  0  0  0
   -1.2382    1.1593   -2.1911 H   0  0  0  0  0  0  0  0  0  0  0  0
   -1.5035    1.4278    0.2089 H   0  0  0  0  0  0  0  0  0  0  0  0
   -2.0104    0.4085    2.2775 H   0  0  0  0  0  0  0  0  0  0  0  0
   -3.3845    0.3447    1.1358 H   0  0  0  0  0  0  0  0  0  0  0  0
   -2.9980   -1.1191    2.0564 H   0  0  0  0  0  0  0  0  0  0  0  0
  1  2  1  0
  2  3  1  0
  3  4  1  0
  4  5  1  0
  5  6  1  0
  6  7  1  0
  7  8  1  0
  8  9  1  0
  7  4  1  0
  1 10  1  0
  1 11  1  0
  1 12  1  0
  3 13  1  0
  3 14  1  0
  4 15  1  0
  5 16  1  0
  5 17  1  0
  6 18  1  0
  6 19  1  0
  7 20  1  0
  9 21  1  0
  9 22  1  0
  9 23  1  0
M  END
