
     RDKit          3D

 21 21  0  0  0  0  0  0  0  0999 V2000
    3.0344    0.3013    0.4816 C   0  0  0  0  0  0  0  0  0  0  0  0
    1.6454    0.2407    0.4844 O   0  0  0  0  0  0  0  0  0  0  0  0
    1.2485   -0.5248   -0.5908 C   0  0  0  0  0  0  0  0  0  0  0  0
   -0.2048   -0.6931   -0.7365 C   0  0  0  0  0  0  0  0  0  0  0  0
   -0.5864   -1.3913   -1.6716 O   0  0  0  0  0  0  0  0  0  0  0  0
   -1.2240   -0.0997    0.1365 C   0  0  0  0  0  0  0  0  0  0  0  0
   -2.6795   -0.2603   -0.3154 C   0  0  0  0  0  0  0  0  0  0  0  0
   -1.0010    1.2159    0.8392 C   0  0  0  0  0  0  0  0  0  0  0  0
   -0.9432   -0.0178    1.6376 C   0  0  0  0  0  0  0  0  0  0  0  0
    3.4335    0.9026    1.3269 H   0  0  0  0  0  0  0  0  0  0  0  0
    3.3746    0.6936   -0.5178 H   0  0  0  0  0  0  0  0  0  0  0  0
    3.4041   -0.7405    0.6143 H   0  0  0  0  0  0  0  0  0  0  0  0
    1.6942   -1.5477   -0.5243 H   0  0  0  0  0  0  0  0  0  0  0  0
    1.6871   -0.0579   -1.5211 H   0  0  0  0  0  0  0  0  0  0  0  0
   -3.3109   -0.2816    0.6144 H   0  0  0  0  0  0  0  0  0  0  0  0
   -2.7791   -1.2117   -0.8570 H   0  0  0  0  0  0  0  0  0  0  0  0
   -2.9881    0.6228   -0.9047 H   0  0  0  0  0  0  0  0  0  0  0  0
   -1.8816    1.8894    1.0254 H   0  0  0  0  0  0  0  0  0  0  0  0
   -0.0952    1.7581    0.5098 H   0  0  0  0  0  0  0  0  0  0  0  0
   -1.8339   -0.2943    2.2378 H   0  0  0  0  0  0  0  0  0  0  0  0
    0.0059   -0.5037    1.9397 H   0  0  0  0  0  0  0  0  0  0  0  0
  1  2  1  0
  2  3  1  0
  3  4  1  0
  4  5  2  0
  4  6  1  0
  6  7  1  0
  6  8  1  0
  8  9  1  0
  9  6  1  0
  1 10  1  0
  1 11  1  0
  1 12  1  0
  3 13  1  0
  3 14  1  0
  7 15  1  0
  7 16  1  0
  7 17  1  0
  8 18  1  0
  8 19  1  0
  9 20  1  0
  9 21  1  0
M  END
