
     RDKit          3D

 23 23  0  0  0  0  0  0  0  0999 V2000
    2.9603   -0.6713   -0.4204 C   0  0  0  0  0  0  0  0  0  0  0  0
    1.6028   -0.7957   -0.1219 O   0  0  0  0  0  0  0  0  0  0  0  0
    1.0245    0.4352   -0.2494 C   0  0  0  0  0  0  0  0  0  0  0  0
   -0.4279    0.5228    0.0261 C   0  0  0  0  0  0  0  0  0  0  0  0
   -0.9707    1.9520   -0.1466 C   0  0  0  0  0  0  0  0  0  0  0  0
   -2.3466    1.9023    0.1409 O   0  0  0  0  0  0  0  0  0  0  0  0
   -0.8316   -0.1449    1.3595 C   0  0  0  0  0  0  0  0  0  0  0  0
   -1.3865   -0.5549    0.0069 C   0  0  0  0  0  0  0  0  0  0  0  0
   -1.1575   -1.9405   -0.4811 C   0  0  0  0  0  0  0  0  0  0  0  0
    3.4646    0.0471    0.2743 H   0  0  0  0  0  0  0  0  0  0  0  0
    3.0350   -0.1972   -1.4377 H   0  0  0  0  0  0  0  0  0  0  0  0
    3.5045   -1.6233   -0.3717 H   0  0  0  0  0  0  0  0  0  0  0  0
    1.2804    0.8194   -1.2697 H   0  0  0  0  0  0  0  0  0  0  0  0
    1.5761    1.1320    0.4489 H   0  0  0  0  0  0  0  0  0  0  0  0
   -0.4367    2.6675    0.4922 H   0  0  0  0  0  0  0  0  0  0  0  0
   -0.9021    2.2476   -1.2123 H   0  0  0  0  0  0  0  0  0  0  0  0
   -2.4936    1.9184    1.1215 H   0  0  0  0  0  0  0  0  0  0  0  0
   -1.4199    0.4524    2.0501 H   0  0  0  0  0  0  0  0  0  0  0  0
   -0.1396   -0.8945    1.7770 H   0  0  0  0  0  0  0  0  0  0  0  0
   -2.4755   -0.2577   -0.0841 H   0  0  0  0  0  0  0  0  0  0  0  0
   -1.7464   -2.0618   -1.4333 H   0  0  0  0  0  0  0  0  0  0  0  0
   -0.1377   -2.2344   -0.6913 H   0  0  0  0  0  0  0  0  0  0  0  0
   -1.5759   -2.7205    0.2220 H   0  0  0  0  0  0  0  0  0  0  0  0
  1  2  1  0
  2  3  1  0
  3  4  1  0
  4  5  1  0
  5  6  1  0
  4  7  1  0
  7  8  1  0
  8  9  1  0
  8  4  1  0
  1 10  1  0
  1 11  1  0
  1 12  1  0
  3 13  1  0
  3 14  1  0
  5 15  1  0
  5 16  1  0
  6 17  1  0
  7 18  1  0
  7 19  1  0
  8 20  1  0
  9 21  1  0
  9 22  1  0
  9 23  1  0
M  END
