
     RDKit          3D

 21 21  0  0  0  0  0  0  0  0999 V2000
    3.0267    0.7637   -0.1353 C   0  0  0  0  0  0  0  0  0  0  0  0
    1.9105    0.2026   -0.7788 O   0  0  0  0  0  0  0  0  0  0  0  0
    1.0514   -0.2725    0.1791 C   0  0  0  0  0  0  0  0  0  0  0  0
   -0.1669   -0.8873   -0.4305 C   0  0  0  0  0  0  0  0  0  0  0  0
   -1.1320   -1.4188    0.5680 C   0  0  0  0  0  0  0  0  0  0  0  0
   -1.0594   -1.9525    1.6438 O   0  0  0  0  0  0  0  0  0  0  0  0
   -2.2294   -0.9872   -0.3743 C   0  0  0  0  0  0  0  0  0  0  0  0
   -1.2389    0.0674   -0.8879 C   0  0  0  0  0  0  0  0  0  0  0  0
   -1.3905    1.3135   -0.0473 C   0  0  0  0  0  0  0  0  0  0  0  0
    3.5319   -0.0350    0.4822 H   0  0  0  0  0  0  0  0  0  0  0  0
    2.7176    1.5478    0.5601 H   0  0  0  0  0  0  0  0  0  0  0  0
    3.7931    1.0918   -0.8750 H   0  0  0  0  0  0  0  0  0  0  0  0
    0.8348    0.5002    0.9266 H   0  0  0  0  0  0  0  0  0  0  0  0
    1.5917   -1.0947    0.7295 H   0  0  0  0  0  0  0  0  0  0  0  0
    0.0813   -1.6062   -1.2124 H   0  0  0  0  0  0  0  0  0  0  0  0
   -2.4547   -1.7777   -1.1112 H   0  0  0  0  0  0  0  0  0  0  0  0
   -3.1093   -0.5585    0.1427 H   0  0  0  0  0  0  0  0  0  0  0  0
   -1.2828    0.2230   -1.9680 H   0  0  0  0  0  0  0  0  0  0  0  0
   -2.2190    1.9043   -0.5064 H   0  0  0  0  0  0  0  0  0  0  0  0
   -1.7531    1.0335    0.9781 H   0  0  0  0  0  0  0  0  0  0  0  0
   -0.5031    1.9426   -0.0356 H   0  0  0  0  0  0  0  0  0  0  0  0
  1  2  1  0
  2  3  1  0
  3  4  1  0
  4  5  1  0
  5  6  2  0
  5  7  1  0
  7  8  1  0
  8  9  1  0
  8  4  1  0
  1 10  1  0
  1 11  1  0
  1 12  1  0
  3 13  1  0
  3 14  1  0
  4 15  1  0
  7 16  1  0
  7 17  1  0
  8 18  1  0
  9 19  1  0
  9 20  1  0
  9 21  1  0
M  END
