
     RDKit          3D

 23 23  0  0  0  0  0  0  0  0999 V2000
    2.8821    0.7805   -0.7714 C   0  0  0  0  0  0  0  0  0  0  0  0
    2.4956   -0.5219   -1.0555 O   0  0  0  0  0  0  0  0  0  0  0  0
    2.0702   -1.2235    0.0392 C   0  0  0  0  0  0  0  0  0  0  0  0
    0.8635   -0.6031    0.7362 C   0  0  0  0  0  0  0  0  0  0  0  0
   -0.2568   -0.5500   -0.2515 C   0  0  0  0  0  0  0  0  0  0  0  0
   -1.5186    0.0374    0.2862 C   0  0  0  0  0  0  0  0  0  0  0  0
   -2.5896    0.0415   -0.8041 C   0  0  0  0  0  0  0  0  0  0  0  0
   -2.9862    1.2373    0.0416 C   0  0  0  0  0  0  0  0  0  0  0  0
   -1.6055    1.4334    0.2589 O   0  0  0  0  0  0  0  0  0  0  0  0
    3.7273    0.8125   -0.0350 H   0  0  0  0  0  0  0  0  0  0  0  0
    3.2519    1.3156   -1.6655 H   0  0  0  0  0  0  0  0  0  0  0  0
    2.0542    1.3567   -0.3273 H   0  0  0  0  0  0  0  0  0  0  0  0
    2.9267   -1.3183    0.7617 H   0  0  0  0  0  0  0  0  0  0  0  0
    1.8527   -2.2624   -0.2836 H   0  0  0  0  0  0  0  0  0  0  0  0
    1.0950    0.3672    1.1677 H   0  0  0  0  0  0  0  0  0  0  0  0
    0.5630   -1.3182    1.5473 H   0  0  0  0  0  0  0  0  0  0  0  0
    0.0260    0.0041   -1.1602 H   0  0  0  0  0  0  0  0  0  0  0  0
   -0.4806   -1.5966   -0.5655 H   0  0  0  0  0  0  0  0  0  0  0  0
   -1.9081   -0.3555    1.2259 H   0  0  0  0  0  0  0  0  0  0  0  0
   -3.2757   -0.8128   -0.7767 H   0  0  0  0  0  0  0  0  0  0  0  0
   -2.1772    0.3174   -1.7994 H   0  0  0  0  0  0  0  0  0  0  0  0
   -3.4762    1.9834   -0.5751 H   0  0  0  0  0  0  0  0  0  0  0  0
   -3.5335    0.8755    0.9383 H   0  0  0  0  0  0  0  0  0  0  0  0
  1  2  1  0
  2  3  1  0
  3  4  1  0
  4  5  1  0
  5  6  1  0
  6  7  1  0
  7  8  1  0
  8  9  1  0
  9  6  1  0
  1 10  1  0
  1 11  1  0
  1 12  1  0
  3 13  1  0
  3 14  1  0
  4 15  1  0
  4 16  1  0
  5 17  1  0
  5 18  1  0
  6 19  1  0
  7 20  1  0
  7 21  1  0
  8 22  1  0
  8 23  1  0
M  END
