
     RDKit          3D

 21 22  0  0  0  0  0  0  0  0999 V2000
   -3.3809    0.1220    0.0836 C   0  0  0  0  0  0  0  0  0  0  0  0
   -2.0081    0.3292    0.0349 O   0  0  0  0  0  0  0  0  0  0  0  0
   -1.3481   -0.8762   -0.0571 C   0  0  0  0  0  0  0  0  0  0  0  0
    0.1454   -0.6741   -0.1114 C   0  0  0  0  0  0  0  0  0  0  0  0
    0.6846   -0.0309    0.9916 O   0  0  0  0  0  0  0  0  0  0  0  0
    1.6360    0.5123    0.1117 C   0  0  0  0  0  0  0  0  0  0  0  0
    2.9447   -0.1832   -0.0673 C   0  0  0  0  0  0  0  0  0  0  0  0
    1.1919    1.6474   -0.6829 C   0  0  0  0  0  0  0  0  0  0  0  0
    0.6459    0.3414   -1.0704 C   0  0  0  0  0  0  0  0  0  0  0  0
   -3.9175    1.0897    0.1577 H   0  0  0  0  0  0  0  0  0  0  0  0
   -3.6575   -0.4608   -0.8200 H   0  0  0  0  0  0  0  0  0  0  0  0
   -3.6542   -0.5104    0.9635 H   0  0  0  0  0  0  0  0  0  0  0  0
   -1.7133   -1.4460   -0.9343 H   0  0  0  0  0  0  0  0  0  0  0  0
   -1.5992   -1.4906    0.8344 H   0  0  0  0  0  0  0  0  0  0  0  0
    0.6461   -1.6727   -0.2246 H   0  0  0  0  0  0  0  0  0  0  0  0
    3.4005    0.1581   -1.0278 H   0  0  0  0  0  0  0  0  0  0  0  0
    2.7705   -1.2873   -0.1787 H   0  0  0  0  0  0  0  0  0  0  0  0
    3.5741   -0.0187    0.8049 H   0  0  0  0  0  0  0  0  0  0  0  0
    0.5860    2.4223   -0.1525 H   0  0  0  0  0  0  0  0  0  0  0  0
    1.9652    2.1276   -1.3370 H   0  0  0  0  0  0  0  0  0  0  0  0
    1.0880   -0.0994   -2.0101 H   0  0  0  0  0  0  0  0  0  0  0  0
  1  2  1  0
  2  3  1  0
  3  4  1  0
  4  5  1  0
  5  6  1  0
  6  7  1  0
  6  8  1  0
  8  9  1  0
  9  4  1  0
  9  6  1  0
  1 10  1  0
  1 11  1  0
  1 12  1  0
  3 13  1  0
  3 14  1  0
  4 15  1  0
  7 16  1  0
  7 17  1  0
  7 18  1  0
  8 19  1  0
  8 20  1  0
  9 21  1  0
M  END
