
     RDKit          3D

 21 21  0  0  0  0  0  0  0  0999 V2000
    2.5796    0.2158    0.4893 C   0  0  0  0  0  0  0  0  0  0  0  0
    1.8260   -0.8879    0.8068 O   0  0  0  0  0  0  0  0  0  0  0  0
    1.1436   -1.3496   -0.3016 C   0  0  0  0  0  0  0  0  0  0  0  0
    0.2010   -0.3603   -0.8968 C   0  0  0  0  0  0  0  0  0  0  0  0
   -0.8697    0.0936    0.0743 C   0  0  0  0  0  0  0  0  0  0  0  0
   -1.8274    1.0880   -0.5040 C   0  0  0  0  0  0  0  0  0  0  0  0
   -1.4607    2.4070   -0.2365 O   0  0  0  0  0  0  0  0  0  0  0  0
   -1.4944   -0.9590    0.9615 C   0  0  0  0  0  0  0  0  0  0  0  0
   -0.6352    0.0372    1.4226 O   0  0  0  0  0  0  0  0  0  0  0  0
    3.1567    0.5946    1.3900 H   0  0  0  0  0  0  0  0  0  0  0  0
    3.2584    0.0959   -0.3571 H   0  0  0  0  0  0  0  0  0  0  0  0
    1.8883    1.0886    0.2802 H   0  0  0  0  0  0  0  0  0  0  0  0
    0.6273   -2.3250   -0.0666 H   0  0  0  0  0  0  0  0  0  0  0  0
    1.9332   -1.5419   -1.0872 H   0  0  0  0  0  0  0  0  0  0  0  0
    0.7609    0.5089   -1.2718 H   0  0  0  0  0  0  0  0  0  0  0  0
   -0.3445   -0.7679   -1.7794 H   0  0  0  0  0  0  0  0  0  0  0  0
   -1.9129    1.0060   -1.6028 H   0  0  0  0  0  0  0  0  0  0  0  0
   -2.8402    0.9383   -0.0783 H   0  0  0  0  0  0  0  0  0  0  0  0
   -2.3062    2.9483   -0.3500 H   0  0  0  0  0  0  0  0  0  0  0  0
   -2.5825   -0.8469    1.2395 H   0  0  0  0  0  0  0  0  0  0  0  0
   -1.1012   -1.9838    0.9671 H   0  0  0  0  0  0  0  0  0  0  0  0
  1  2  1  0
  2  3  1  0
  3  4  1  0
  4  5  1  0
  5  6  1  0
  6  7  1  0
  5  8  1  0
  8  9  1  0
  9  5  1  0
  1 10  1  0
  1 11  1  0
  1 12  1  0
  3 13  1  0
  3 14  1  0
  4 15  1  0
  4 16  1  0
  6 17  1  0
  6 18  1  0
  7 19  1  0
  8 20  1  0
  8 21  1  0
M  END
