
     RDKit          3D

 19 20  0  0  0  0  0  0  0  0999 V2000
    2.8056    0.6164    0.1574 C   0  0  0  0  0  0  0  0  0  0  0  0
    1.9004   -0.3643   -0.2433 O   0  0  0  0  0  0  0  0  0  0  0  0
    0.6728   -0.0529    0.3851 C   0  0  0  0  0  0  0  0  0  0  0  0
   -0.3656   -1.0742   -0.0005 C   0  0  0  0  0  0  0  0  0  0  0  0
   -1.6800   -0.7401    0.6729 C   0  0  0  0  0  0  0  0  0  0  0  0
   -1.8594    0.7064    0.3550 C   0  0  0  0  0  0  0  0  0  0  0  0
   -1.5722    0.7119   -0.9706 C   0  0  0  0  0  0  0  0  0  0  0  0
   -1.2265   -0.7467   -1.1601 C   0  0  0  0  0  0  0  0  0  0  0  0
   -2.2906   -1.3297   -0.4310 O   0  0  0  0  0  0  0  0  0  0  0  0
    2.3925    1.6022   -0.1855 H   0  0  0  0  0  0  0  0  0  0  0  0
    3.8163    0.4407   -0.2587 H   0  0  0  0  0  0  0  0  0  0  0  0
    2.8059    0.6734    1.2729 H   0  0  0  0  0  0  0  0  0  0  0  0
    0.8543   -0.1597    1.4749 H   0  0  0  0  0  0  0  0  0  0  0  0
    0.4227    0.9605    0.0757 H   0  0  0  0  0  0  0  0  0  0  0  0
   -0.0388   -2.1067    0.0395 H   0  0  0  0  0  0  0  0  0  0  0  0
   -1.8779   -1.0938    1.6452 H   0  0  0  0  0  0  0  0  0  0  0  0
   -2.1394    1.5376    0.9861 H   0  0  0  0  0  0  0  0  0  0  0  0
   -1.5851    1.5135   -1.6799 H   0  0  0  0  0  0  0  0  0  0  0  0
   -1.0349   -1.0944   -2.1349 H   0  0  0  0  0  0  0  0  0  0  0  0
  1  2  1  0
  2  3  1  0
  3  4  1  0
  4  5  1  0
  5  6  1  0
  6  7  2  0
  7  8  1  0
  8  9  1  0
  8  4  1  0
  9  5  1  0
  1 10  1  0
  1 11  1  0
  1 12  1  0
  3 13  1  0
  3 14  1  0
  4 15  1  0
  5 16  1  0
  6 17  1  0
  7 18  1  0
  8 19  1  0
M  END
