
     RDKit          3D

 20 19  0  0  0  0  0  0  0  0999 V2000
    2.9765    0.3863    0.5125 C   0  0  0  0  0  0  0  0  0  0  0  0
    1.9709   -0.2607   -0.1749 O   0  0  0  0  0  0  0  0  0  0  0  0
    0.7235    0.2771    0.0203 C   0  0  0  0  0  0  0  0  0  0  0  0
   -0.2599   -0.5555   -0.8083 C   0  0  0  0  0  0  0  0  0  0  0  0
    0.0826   -0.5040   -2.1577 O   0  0  0  0  0  0  0  0  0  0  0  0
   -1.6459   -0.0134   -0.5438 C   0  0  0  0  0  0  0  0  0  0  0  0
   -1.8758   -0.0492    0.9464 C   0  0  0  0  0  0  0  0  0  0  0  0
   -2.6195   -0.7187   -1.2226 O   0  0  0  0  0  0  0  0  0  0  0  0
    2.9854    1.4472    0.1536 H   0  0  0  0  0  0  0  0  0  0  0  0
    3.9502   -0.0410    0.1794 H   0  0  0  0  0  0  0  0  0  0  0  0
    2.8718    0.3367    1.6099 H   0  0  0  0  0  0  0  0  0  0  0  0
    0.6978    1.3345   -0.3466 H   0  0  0  0  0  0  0  0  0  0  0  0
    0.3834    0.3075    1.0624 H   0  0  0  0  0  0  0  0  0  0  0  0
   -0.1883   -1.6075   -0.4763 H   0  0  0  0  0  0  0  0  0  0  0  0
    0.9181   -1.0328   -2.2563 H   0  0  0  0  0  0  0  0  0  0  0  0
   -1.7085    1.0464   -0.8643 H   0  0  0  0  0  0  0  0  0  0  0  0
   -1.6490    0.9110    1.4430 H   0  0  0  0  0  0  0  0  0  0  0  0
   -1.2653   -0.8276    1.4585 H   0  0  0  0  0  0  0  0  0  0  0  0
   -2.9397   -0.3326    1.1169 H   0  0  0  0  0  0  0  0  0  0  0  0
   -3.4084   -0.1037   -1.3267 H   0  0  0  0  0  0  0  0  0  0  0  0
  1  2  1  0
  2  3  1  0
  3  4  1  0
  4  5  1  0
  4  6  1  0
  6  7  1  0
  6  8  1  0
  1  9  1  0
  1 10  1  0
  1 11  1  0
  3 12  1  0
  3 13  1  0
  4 14  1  0
  5 15  1  0
  6 16  1  0
  7 17  1  0
  7 18  1  0
  7 19  1  0
  8 20  1  0
M  END
