
     RDKit          3D

 21 20  0  0  0  0  0  0  0  0999 V2000
    3.5725    0.3708   -0.3841 C   0  0  0  0  0  0  0  0  0  0  0  0
    2.3656   -0.1504   -0.8021 O   0  0  0  0  0  0  0  0  0  0  0  0
    1.3381    0.1065    0.0967 C   0  0  0  0  0  0  0  0  0  0  0  0
    0.0444   -0.4618   -0.3681 C   0  0  0  0  0  0  0  0  0  0  0  0
    0.0332   -1.0518   -1.4198 O   0  0  0  0  0  0  0  0  0  0  0  0
   -1.1673   -0.2862    0.4639 C   0  0  0  0  0  0  0  0  0  0  0  0
   -1.4478    1.1642    0.6375 C   0  0  0  0  0  0  0  0  0  0  0  0
   -2.3362   -1.0881   -0.0372 C   0  0  0  0  0  0  0  0  0  0  0  0
   -2.7129   -0.7566   -1.3222 O   0  0  0  0  0  0  0  0  0  0  0  0
    3.8493   -0.0819    0.5965 H   0  0  0  0  0  0  0  0  0  0  0  0
    3.5278    1.4912   -0.2984 H   0  0  0  0  0  0  0  0  0  0  0  0
    4.3958    0.1557   -1.0832 H   0  0  0  0  0  0  0  0  0  0  0  0
    1.1787    1.1970    0.2653 H   0  0  0  0  0  0  0  0  0  0  0  0
    1.5319   -0.3438    1.1026 H   0  0  0  0  0  0  0  0  0  0  0  0
   -0.9248   -0.7006    1.4873 H   0  0  0  0  0  0  0  0  0  0  0  0
   -0.7188    1.5730    1.3944 H   0  0  0  0  0  0  0  0  0  0  0  0
   -1.2415    1.7720   -0.2872 H   0  0  0  0  0  0  0  0  0  0  0  0
   -2.4578    1.3608    1.0152 H   0  0  0  0  0  0  0  0  0  0  0  0
   -2.0170   -2.1673    0.0027 H   0  0  0  0  0  0  0  0  0  0  0  0
   -3.1654   -1.0023    0.6957 H   0  0  0  0  0  0  0  0  0  0  0  0
   -3.6477   -1.1003   -1.4508 H   0  0  0  0  0  0  0  0  0  0  0  0
  1  2  1  0
  2  3  1  0
  3  4  1  0
  4  5  2  0
  4  6  1  0
  6  7  1  0
  6  8  1  0
  8  9  1  0
  1 10  1  0
  1 11  1  0
  1 12  1  0
  3 13  1  0
  3 14  1  0
  6 15  1  0
  7 16  1  0
  7 17  1  0
  7 18  1  0
  8 19  1  0
  8 20  1  0
  9 21  1  0
M  END
