
     RDKit          3D

 25 25  0  0  0  0  0  0  0  0999 V2000
    2.6529   -0.6646   -0.0736 C   0  0  0  0  0  0  0  0  0  0  0  0
    1.7860   -0.6874   -1.0924 O   0  0  0  0  0  0  0  0  0  0  0  0
    0.9807    0.3440   -1.4137 C   0  0  0  0  0  0  0  0  0  0  0  0
   -0.0063    0.8093   -0.4178 C   0  0  0  0  0  0  0  0  0  0  0  0
    0.6143    1.3266    0.8424 C   0  0  0  0  0  0  0  0  0  0  0  0
   -1.1284   -0.1542   -0.1514 C   0  0  0  0  0  0  0  0  0  0  0  0
   -2.1123    0.3855    0.8934 C   0  0  0  0  0  0  0  0  0  0  0  0
   -1.0719   -1.5894   -0.3225 C   0  0  0  0  0  0  0  0  0  0  0  0
   -1.7278   -0.7572   -1.4069 C   0  0  0  0  0  0  0  0  0  0  0  0
    3.4189    0.1546   -0.0924 H   0  0  0  0  0  0  0  0  0  0  0  0
    2.2056   -0.7046    0.9240 H   0  0  0  0  0  0  0  0  0  0  0  0
    3.2801   -1.6378   -0.1868 H   0  0  0  0  0  0  0  0  0  0  0  0
    1.7006    1.2189   -1.6581 H   0  0  0  0  0  0  0  0  0  0  0  0
    0.5324    0.1867   -2.4356 H   0  0  0  0  0  0  0  0  0  0  0  0
   -0.5216    1.7098   -0.8891 H   0  0  0  0  0  0  0  0  0  0  0  0
    0.4895    0.6275    1.6952 H   0  0  0  0  0  0  0  0  0  0  0  0
    0.1604    2.3197    1.1375 H   0  0  0  0  0  0  0  0  0  0  0  0
    1.6868    1.5570    0.7131 H   0  0  0  0  0  0  0  0  0  0  0  0
   -3.0659   -0.1759    0.8506 H   0  0  0  0  0  0  0  0  0  0  0  0
   -2.2250    1.4707    0.8163 H   0  0  0  0  0  0  0  0  0  0  0  0
   -1.6516    0.1136    1.8858 H   0  0  0  0  0  0  0  0  0  0  0  0
   -0.1540   -2.1593   -0.5701 H   0  0  0  0  0  0  0  0  0  0  0  0
   -1.8025   -2.2017    0.2441 H   0  0  0  0  0  0  0  0  0  0  0  0
   -2.8338   -0.7174   -1.4609 H   0  0  0  0  0  0  0  0  0  0  0  0
   -1.2070   -0.7746   -2.3545 H   0  0  0  0  0  0  0  0  0  0  0  0
  1  2  1  0
  2  3  1  0
  3  4  1  0
  4  5  1  0
  4  6  1  0
  6  7  1  0
  6  8  1  0
  8  9  1  0
  9  6  1  0
  1 10  1  0
  1 11  1  0
  1 12  1  0
  3 13  1  0
  3 14  1  0
  4 15  1  0
  5 16  1  0
  5 17  1  0
  5 18  1  0
  7 19  1  0
  7 20  1  0
  7 21  1  0
  8 22  1  0
  8 23  1  0
  9 24  1  0
  9 25  1  0
M  END
