
     RDKit          3D

 19 19  0  0  0  0  0  0  0  0999 V2000
    2.7522    0.2704   -0.1801 C   0  0  0  0  0  0  0  0  0  0  0  0
    1.4928   -0.1965   -0.5421 O   0  0  0  0  0  0  0  0  0  0  0  0
    0.5853    0.0115    0.5224 C   0  0  0  0  0  0  0  0  0  0  0  0
   -0.7703   -0.5054    0.0979 C   0  0  0  0  0  0  0  0  0  0  0  0
   -0.6980   -1.8886   -0.4274 C   0  0  0  0  0  0  0  0  0  0  0  0
    0.0876   -2.2276   -1.2853 O   0  0  0  0  0  0  0  0  0  0  0  0
   -1.4831    0.4851   -0.7553 C   0  0  0  0  0  0  0  0  0  0  0  0
   -1.9746    0.9295    0.6034 C   0  0  0  0  0  0  0  0  0  0  0  0
   -1.7459   -0.3526    1.0752 O   0  0  0  0  0  0  0  0  0  0  0  0
    2.6438    1.3731    0.0414 H   0  0  0  0  0  0  0  0  0  0  0  0
    3.4332    0.1023   -1.0223 H   0  0  0  0  0  0  0  0  0  0  0  0
    3.0790   -0.2794    0.7219 H   0  0  0  0  0  0  0  0  0  0  0  0
    0.5806    1.1032    0.6882 H   0  0  0  0  0  0  0  0  0  0  0  0
    0.9240   -0.4726    1.4462 H   0  0  0  0  0  0  0  0  0  0  0  0
   -1.3805   -2.6263   -0.0231 H   0  0  0  0  0  0  0  0  0  0  0  0
   -2.2910    0.1058   -1.4090 H   0  0  0  0  0  0  0  0  0  0  0  0
   -0.8630    1.3001   -1.1953 H   0  0  0  0  0  0  0  0  0  0  0  0
   -1.3259    1.6631    1.1081 H   0  0  0  0  0  0  0  0  0  0  0  0
   -3.0462    1.2051    0.5353 H   0  0  0  0  0  0  0  0  0  0  0  0
  1  2  1  0
  2  3  1  0
  3  4  1  0
  4  5  1  0
  5  6  2  0
  4  7  1  0
  7  8  1  0
  8  9  1  0
  9  4  1  0
  1 10  1  0
  1 11  1  0
  1 12  1  0
  3 13  1  0
  3 14  1  0
  5 15  1  0
  7 16  1  0
  7 17  1  0
  8 18  1  0
  8 19  1  0
M  END
