
     RDKit          3D

 17 16  0  0  0  0  0  0  0  0999 V2000
    2.6658   -0.0042    0.0323 C   0  0  0  0  0  0  0  0  0  0  0  0
    1.4434    0.6103    0.2727 O   0  0  0  0  0  0  0  0  0  0  0  0
    0.4046   -0.3068    0.1754 C   0  0  0  0  0  0  0  0  0  0  0  0
   -0.9386    0.2860    0.4223 C   0  0  0  0  0  0  0  0  0  0  0  0
   -1.9680   -0.8262    0.2832 C   0  0  0  0  0  0  0  0  0  0  0  0
   -1.2570    1.4333   -0.4403 C   0  0  0  0  0  0  0  0  0  0  0  0
   -1.5302    2.5209    0.0394 O   0  0  0  0  0  0  0  0  0  0  0  0
    2.8781   -0.8230    0.7554 H   0  0  0  0  0  0  0  0  0  0  0  0
    2.6957   -0.4933   -0.9804 H   0  0  0  0  0  0  0  0  0  0  0  0
    3.4791    0.7488    0.0971 H   0  0  0  0  0  0  0  0  0  0  0  0
    0.4136   -0.7374   -0.8463 H   0  0  0  0  0  0  0  0  0  0  0  0
    0.5934   -1.0908    0.9316 H   0  0  0  0  0  0  0  0  0  0  0  0
   -0.9800    0.6009    1.4909 H   0  0  0  0  0  0  0  0  0  0  0  0
   -1.7224   -1.4414   -0.6171 H   0  0  0  0  0  0  0  0  0  0  0  0
   -1.9696   -1.4876    1.1745 H   0  0  0  0  0  0  0  0  0  0  0  0
   -2.9480   -0.3425    0.1375 H   0  0  0  0  0  0  0  0  0  0  0  0
   -1.2600    1.3530   -1.5211 H   0  0  0  0  0  0  0  0  0  0  0  0
  1  2  1  0
  2  3  1  0
  3  4  1  0
  4  5  1  0
  4  6  1  0
  6  7  2  0
  1  8  1  0
  1  9  1  0
  1 10  1  0
  3 11  1  0
  3 12  1  0
  4 13  1  0
  5 14  1  0
  5 15  1  0
  5 16  1  0
  6 17  1  0
M  END
