
     RDKit          3D

 25 24  0  0  0  0  0  0  0  0999 V2000
   -2.8645    1.7717   -0.0839 C   0  0  0  0  0  0  0  0  0  0  0  0
   -1.9112    1.0069    0.5520 O   0  0  0  0  0  0  0  0  0  0  0  0
   -1.6358   -0.1185   -0.1863 C   0  0  0  0  0  0  0  0  0  0  0  0
   -0.5952   -1.0059    0.4545 C   0  0  0  0  0  0  0  0  0  0  0  0
   -0.3500   -2.2189   -0.4180 C   0  0  0  0  0  0  0  0  0  0  0  0
    0.7027   -0.2861    0.7090 C   0  0  0  0  0  0  0  0  0  0  0  0
    1.3368    0.2516   -0.5483 C   0  0  0  0  0  0  0  0  0  0  0  0
    2.6313    0.9443   -0.1058 C   0  0  0  0  0  0  0  0  0  0  0  0
    3.4888    0.0707    0.5204 O   0  0  0  0  0  0  0  0  0  0  0  0
   -2.4826    2.0723   -1.0823 H   0  0  0  0  0  0  0  0  0  0  0  0
   -3.0646    2.7139    0.4858 H   0  0  0  0  0  0  0  0  0  0  0  0
   -3.8314    1.2739   -0.2197 H   0  0  0  0  0  0  0  0  0  0  0  0
   -2.5740   -0.7244   -0.2378 H   0  0  0  0  0  0  0  0  0  0  0  0
   -1.3172    0.0823   -1.2188 H   0  0  0  0  0  0  0  0  0  0  0  0
   -0.9327   -1.3963    1.4418 H   0  0  0  0  0  0  0  0  0  0  0  0
    0.4623   -2.7993    0.0680 H   0  0  0  0  0  0  0  0  0  0  0  0
   -1.3092   -2.7954   -0.4525 H   0  0  0  0  0  0  0  0  0  0  0  0
    0.0178   -1.9523   -1.4257 H   0  0  0  0  0  0  0  0  0  0  0  0
    0.5110    0.5084    1.4357 H   0  0  0  0  0  0  0  0  0  0  0  0
    1.3999   -1.0131    1.1566 H   0  0  0  0  0  0  0  0  0  0  0  0
    0.7126    0.9897   -1.0689 H   0  0  0  0  0  0  0  0  0  0  0  0
    1.6690   -0.5908   -1.1965 H   0  0  0  0  0  0  0  0  0  0  0  0
    3.1510    1.4175   -0.9500 H   0  0  0  0  0  0  0  0  0  0  0  0
    2.4014    1.7621    0.6286 H   0  0  0  0  0  0  0  0  0  0  0  0
    4.3838    0.0359    0.0835 H   0  0  0  0  0  0  0  0  0  0  0  0
  1  2  1  0
  2  3  1  0
  3  4  1  0
  4  5  1  0
  4  6  1  0
  6  7  1  0
  7  8  1  0
  8  9  1  0
  1 10  1  0
  1 11  1  0
  1 12  1  0
  3 13  1  0
  3 14  1  0
  4 15  1  0
  5 16  1  0
  5 17  1  0
  5 18  1  0
  6 19  1  0
  6 20  1  0
  7 21  1  0
  7 22  1  0
  8 23  1  0
  8 24  1  0
  9 25  1  0
M  END
