
     RDKit          3D

 23 23  0  0  0  0  0  0  0  0999 V2000
    3.1188    1.4973   -0.3075 C   0  0  0  0  0  0  0  0  0  0  0  0
    1.8304    1.5815    0.2673 O   0  0  0  0  0  0  0  0  0  0  0  0
    1.3007    0.3036    0.2269 C   0  0  0  0  0  0  0  0  0  0  0  0
   -0.0804    0.2244    0.8074 C   0  0  0  0  0  0  0  0  0  0  0  0
   -0.6822   -1.1658    0.7745 C   0  0  0  0  0  0  0  0  0  0  0  0
    0.0823   -2.2630    0.0524 C   0  0  0  0  0  0  0  0  0  0  0  0
   -1.2725   -0.0448   -0.0034 C   0  0  0  0  0  0  0  0  0  0  0  0
   -2.4528    0.5501    0.3902 O   0  0  0  0  0  0  0  0  0  0  0  0
   -3.2863    0.8685   -0.6707 C   0  0  0  0  0  0  0  0  0  0  0  0
    3.6184    2.4736   -0.3177 H   0  0  0  0  0  0  0  0  0  0  0  0
    3.6951    0.8410    0.4004 H   0  0  0  0  0  0  0  0  0  0  0  0
    3.0754    0.9950   -1.2888 H   0  0  0  0  0  0  0  0  0  0  0  0
    1.9484   -0.3751    0.8564 H   0  0  0  0  0  0  0  0  0  0  0  0
    1.3637   -0.1275   -0.7980 H   0  0  0  0  0  0  0  0  0  0  0  0
   -0.2096    0.8447    1.7264 H   0  0  0  0  0  0  0  0  0  0  0  0
   -1.1048   -1.4792    1.7389 H   0  0  0  0  0  0  0  0  0  0  0  0
    0.3506   -1.9330   -0.9768 H   0  0  0  0  0  0  0  0  0  0  0  0
   -0.5067   -3.1800    0.0902 H   0  0  0  0  0  0  0  0  0  0  0  0
    1.0664   -2.3816    0.5925 H   0  0  0  0  0  0  0  0  0  0  0  0
   -1.1961   -0.1663   -1.1215 H   0  0  0  0  0  0  0  0  0  0  0  0
   -4.2000    1.3385   -0.2402 H   0  0  0  0  0  0  0  0  0  0  0  0
   -3.6021   -0.0167   -1.2617 H   0  0  0  0  0  0  0  0  0  0  0  0
   -2.8566    1.6148   -1.3637 H   0  0  0  0  0  0  0  0  0  0  0  0
  1  2  1  0
  2  3  1  0
  3  4  1  0
  4  5  1  0
  5  6  1  0
  5  7  1  0
  7  8  1  0
  8  9  1  0
  7  4  1  0
  1 10  1  0
  1 11  1  0
  1 12  1  0
  3 13  1  0
  3 14  1  0
  4 15  1  0
  5 16  1  0
  6 17  1  0
  6 18  1  0
  6 19  1  0
  7 20  1  0
  9 21  1  0
  9 22  1  0
  9 23  1  0
M  END
