
     RDKit          3D

 21 21  0  0  0  0  0  0  0  0999 V2000
    2.6850   -0.6634    0.6219 C   0  0  0  0  0  0  0  0  0  0  0  0
    2.1926    0.5488    0.2205 O   0  0  0  0  0  0  0  0  0  0  0  0
    1.1892    0.5723   -0.6954 C   0  0  0  0  0  0  0  0  0  0  0  0
   -0.0359   -0.1000   -0.2496 C   0  0  0  0  0  0  0  0  0  0  0  0
   -1.2362    0.5195   -0.1290 C   0  0  0  0  0  0  0  0  0  0  0  0
   -1.4612    1.9493   -0.4301 C   0  0  0  0  0  0  0  0  0  0  0  0
   -2.2094   -0.5042    0.3332 C   0  0  0  0  0  0  0  0  0  0  0  0
   -1.6673   -1.6365   -0.3298 O   0  0  0  0  0  0  0  0  0  0  0  0
   -0.3355   -1.5001    0.1456 C   0  0  0  0  0  0  0  0  0  0  0  0
    1.8835   -1.2421    1.1069 H   0  0  0  0  0  0  0  0  0  0  0  0
    3.1107   -1.2581   -0.2190 H   0  0  0  0  0  0  0  0  0  0  0  0
    3.5538   -0.5120    1.3139 H   0  0  0  0  0  0  0  0  0  0  0  0
    0.9986    1.6670   -0.9216 H   0  0  0  0  0  0  0  0  0  0  0  0
    1.5211    0.1228   -1.6646 H   0  0  0  0  0  0  0  0  0  0  0  0
   -2.5454    2.0574   -0.6818 H   0  0  0  0  0  0  0  0  0  0  0  0
   -1.2794    2.5333    0.4987 H   0  0  0  0  0  0  0  0  0  0  0  0
   -0.9013    2.3196   -1.2923 H   0  0  0  0  0  0  0  0  0  0  0  0
   -3.2386   -0.3082    0.0424 H   0  0  0  0  0  0  0  0  0  0  0  0
   -2.0942   -0.7119    1.4269 H   0  0  0  0  0  0  0  0  0  0  0  0
    0.3160   -2.2557   -0.3329 H   0  0  0  0  0  0  0  0  0  0  0  0
   -0.4464   -1.5978    1.2358 H   0  0  0  0  0  0  0  0  0  0  0  0
  1  2  1  0
  2  3  1  0
  3  4  1  0
  4  5  2  0
  5  6  1  0
  5  7  1  0
  7  8  1  0
  8  9  1  0
  9  4  1  0
  1 10  1  0
  1 11  1  0
  1 12  1  0
  3 13  1  0
  3 14  1  0
  6 15  1  0
  6 16  1  0
  6 17  1  0
  7 18  1  0
  7 19  1  0
  9 20  1  0
  9 21  1  0
M  END
