
     RDKit          3D

 25 25  0  0  0  0  0  0  0  0999 V2000
   -3.7240    0.3069    0.1502 C   0  0  0  0  0  0  0  0  0  0  0  0
   -2.4123    0.7077   -0.0624 O   0  0  0  0  0  0  0  0  0  0  0  0
   -1.5762   -0.3993   -0.1035 C   0  0  0  0  0  0  0  0  0  0  0  0
   -0.1320   -0.0100   -0.3340 C   0  0  0  0  0  0  0  0  0  0  0  0
    0.7139   -1.2265   -0.3690 C   0  0  0  0  0  0  0  0  0  0  0  0
    2.1379   -1.0751   -0.0483 C   0  0  0  0  0  0  0  0  0  0  0  0
    2.5886    0.2146    0.5216 C   0  0  0  0  0  0  0  0  0  0  0  0
    1.7410    1.3962    0.1752 C   0  0  0  0  0  0  0  0  0  0  0  0
    0.3368    1.0318    0.6618 C   0  0  0  0  0  0  0  0  0  0  0  0
   -4.4291    1.1373    0.1921 H   0  0  0  0  0  0  0  0  0  0  0  0
   -3.8176   -0.3727    1.0338 H   0  0  0  0  0  0  0  0  0  0  0  0
   -4.0171   -0.3280   -0.7260 H   0  0  0  0  0  0  0  0  0  0  0  0
   -1.8799   -0.9883   -1.0172 H   0  0  0  0  0  0  0  0  0  0  0  0
   -1.6884   -1.0668    0.7542 H   0  0  0  0  0  0  0  0  0  0  0  0
   -0.1132    0.5134   -1.3357 H   0  0  0  0  0  0  0  0  0  0  0  0
    0.2679   -1.9772    0.3429 H   0  0  0  0  0  0  0  0  0  0  0  0
    0.5613   -1.7135   -1.3789 H   0  0  0  0  0  0  0  0  0  0  0  0
    2.5012   -1.8947    0.6409 H   0  0  0  0  0  0  0  0  0  0  0  0
    2.7347   -1.2550   -0.9924 H   0  0  0  0  0  0  0  0  0  0  0  0
    3.6375    0.4556    0.2043 H   0  0  0  0  0  0  0  0  0  0  0  0
    2.6360    0.1726    1.6486 H   0  0  0  0  0  0  0  0  0  0  0  0
    1.7200    1.5182   -0.9099 H   0  0  0  0  0  0  0  0  0  0  0  0
    2.1364    2.2720    0.7227 H   0  0  0  0  0  0  0  0  0  0  0  0
    0.3546    0.6429    1.6991 H   0  0  0  0  0  0  0  0  0  0  0  0
   -0.2782    1.9380    0.5415 H   0  0  0  0  0  0  0  0  0  0  0  0
  1  2  1  0
  2  3  1  0
  3  4  1  0
  4  5  1  0
  5  6  1  0
  6  7  1  0
  7  8  1  0
  8  9  1  0
  9  4  1  0
  1 10  1  0
  1 11  1  0
  1 12  1  0
  3 13  1  0
  3 14  1  0
  4 15  1  0
  5 16  1  0
  5 17  1  0
  6 18  1  0
  6 19  1  0
  7 20  1  0
  7 21  1  0
  8 22  1  0
  8 23  1  0
  9 24  1  0
  9 25  1  0
M  END
