
     RDKit          3D

 21 20  0  0  0  0  0  0  0  0999 V2000
   -3.6162   -0.2625    0.1382 C   0  0  0  0  0  0  0  0  0  0  0  0
   -2.9370   -0.8909   -0.8604 O   0  0  0  0  0  0  0  0  0  0  0  0
   -1.6769   -0.4671   -1.1379 C   0  0  0  0  0  0  0  0  0  0  0  0
   -0.6842   -0.5526   -0.0770 C   0  0  0  0  0  0  0  0  0  0  0  0
   -0.9925   -0.9962    1.0052 O   0  0  0  0  0  0  0  0  0  0  0  0
    0.7046   -0.1003   -0.3102 C   0  0  0  0  0  0  0  0  0  0  0  0
    1.5759   -0.2751    0.9203 C   0  0  0  0  0  0  0  0  0  0  0  0
    2.9627    0.2162    0.5686 C   0  0  0  0  0  0  0  0  0  0  0  0
    3.4982   -0.5059   -0.4878 O   0  0  0  0  0  0  0  0  0  0  0  0
   -3.7051    0.8299   -0.1383 H   0  0  0  0  0  0  0  0  0  0  0  0
   -3.2059   -0.3046    1.1410 H   0  0  0  0  0  0  0  0  0  0  0  0
   -4.6897   -0.6156    0.1023 H   0  0  0  0  0  0  0  0  0  0  0  0
   -1.7702    0.5753   -1.5685 H   0  0  0  0  0  0  0  0  0  0  0  0
   -1.3108   -1.1007   -2.0014 H   0  0  0  0  0  0  0  0  0  0  0  0
    1.1642   -0.7071   -1.1129 H   0  0  0  0  0  0  0  0  0  0  0  0
    0.7798    0.9627   -0.5982 H   0  0  0  0  0  0  0  0  0  0  0  0
    1.6387   -1.3331    1.2366 H   0  0  0  0  0  0  0  0  0  0  0  0
    1.2027    0.3236    1.7567 H   0  0  0  0  0  0  0  0  0  0  0  0
    3.6501    0.1426    1.4485 H   0  0  0  0  0  0  0  0  0  0  0  0
    2.9443    1.2921    0.2998 H   0  0  0  0  0  0  0  0  0  0  0  0
    4.4673   -0.6243   -0.3246 H   0  0  0  0  0  0  0  0  0  0  0  0
  1  2  1  0
  2  3  1  0
  3  4  1  0
  4  5  2  0
  4  6  1  0
  6  7  1  0
  7  8  1  0
  8  9  1  0
  1 10  1  0
  1 11  1  0
  1 12  1  0
  3 13  1  0
  3 14  1  0
  6 15  1  0
  6 16  1  0
  7 17  1  0
  7 18  1  0
  8 19  1  0
  8 20  1  0
  9 21  1  0
M  END
