
     RDKit          3D

 23 23  0  0  0  0  0  0  0  0999 V2000
    3.2400    0.2427   -0.4572 C   0  0  0  0  0  0  0  0  0  0  0  0
    1.8408    0.3493   -0.4470 O   0  0  0  0  0  0  0  0  0  0  0  0
    1.3670   -0.3457    0.6759 C   0  0  0  0  0  0  0  0  0  0  0  0
   -0.1251   -0.2860    0.7693 C   0  0  0  0  0  0  0  0  0  0  0  0
   -0.6893   -0.9190   -0.4925 C   0  0  0  0  0  0  0  0  0  0  0  0
   -2.1970   -0.8195   -0.3701 C   0  0  0  0  0  0  0  0  0  0  0  0
   -2.5456    0.6280   -0.2417 C   0  0  0  0  0  0  0  0  0  0  0  0
   -1.9605    1.2532    0.8340 O   0  0  0  0  0  0  0  0  0  0  0  0
   -0.6015    1.1195    0.9078 C   0  0  0  0  0  0  0  0  0  0  0  0
    3.6532    0.7819   -1.3342 H   0  0  0  0  0  0  0  0  0  0  0  0
    3.6782    0.7495    0.4483 H   0  0  0  0  0  0  0  0  0  0  0  0
    3.5340   -0.8285   -0.4498 H   0  0  0  0  0  0  0  0  0  0  0  0
    1.6423   -1.4359    0.6073 H   0  0  0  0  0  0  0  0  0  0  0  0
    1.8409    0.0892    1.5778 H   0  0  0  0  0  0  0  0  0  0  0  0
   -0.4259   -0.8513    1.6770 H   0  0  0  0  0  0  0  0  0  0  0  0
   -0.3465   -1.9560   -0.6096 H   0  0  0  0  0  0  0  0  0  0  0  0
   -0.3723   -0.2623   -1.3363 H   0  0  0  0  0  0  0  0  0  0  0  0
   -2.7125   -1.2156   -1.2660 H   0  0  0  0  0  0  0  0  0  0  0  0
   -2.4886   -1.4071    0.5232 H   0  0  0  0  0  0  0  0  0  0  0  0
   -2.3276    1.1232   -1.2077 H   0  0  0  0  0  0  0  0  0  0  0  0
   -3.6618    0.7235   -0.1008 H   0  0  0  0  0  0  0  0  0  0  0  0
   -0.0513    1.7793    0.1978 H   0  0  0  0  0  0  0  0  0  0  0  0
   -0.2909    1.4876    1.9301 H   0  0  0  0  0  0  0  0  0  0  0  0
  1  2  1  0
  2  3  1  0
  3  4  1  0
  4  5  1  0
  5  6  1  0
  6  7  1  0
  7  8  1  0
  8  9  1  0
  9  4  1  0
  1 10  1  0
  1 11  1  0
  1 12  1  0
  3 13  1  0
  3 14  1  0
  4 15  1  0
  5 16  1  0
  5 17  1  0
  6 18  1  0
  6 19  1  0
  7 20  1  0
  7 21  1  0
  9 22  1  0
  9 23  1  0
M  END
