
     RDKit          3D

 25 25  0  0  0  0  0  0  0  0999 V2000
    3.5323   -1.1173    0.6947 C   0  0  0  0  0  0  0  0  0  0  0  0
    2.8742   -0.2926   -0.2143 O   0  0  0  0  0  0  0  0  0  0  0  0
    1.4894   -0.2592    0.1029 C   0  0  0  0  0  0  0  0  0  0  0  0
    0.8576    0.6245   -0.8901 C   0  0  0  0  0  0  0  0  0  0  0  0
   -0.5902    0.8580   -0.8220 C   0  0  0  0  0  0  0  0  0  0  0  0
   -1.0538    1.4949    0.5114 C   0  0  0  0  0  0  0  0  0  0  0  0
   -1.5977    0.1848   -0.0474 C   0  0  0  0  0  0  0  0  0  0  0  0
   -3.0562    0.3339   -0.5160 C   0  0  0  0  0  0  0  0  0  0  0  0
   -1.3896   -0.9927    0.8400 C   0  0  0  0  0  0  0  0  0  0  0  0
    4.6062   -1.1211    0.4197 H   0  0  0  0  0  0  0  0  0  0  0  0
    3.3981   -0.6739    1.7041 H   0  0  0  0  0  0  0  0  0  0  0  0
    3.1069   -2.1578    0.6443 H   0  0  0  0  0  0  0  0  0  0  0  0
    1.4679    0.1144    1.1476 H   0  0  0  0  0  0  0  0  0  0  0  0
    1.1633   -1.3121    0.0062 H   0  0  0  0  0  0  0  0  0  0  0  0
    1.3800    1.6259   -0.8494 H   0  0  0  0  0  0  0  0  0  0  0  0
    1.1250    0.2284   -1.9081 H   0  0  0  0  0  0  0  0  0  0  0  0
   -0.9538    1.4612   -1.7123 H   0  0  0  0  0  0  0  0  0  0  0  0
   -1.6537    2.3999    0.4777 H   0  0  0  0  0  0  0  0  0  0  0  0
   -0.3579    1.4368    1.3662 H   0  0  0  0  0  0  0  0  0  0  0  0
   -3.6450    0.8913    0.2404 H   0  0  0  0  0  0  0  0  0  0  0  0
   -3.0743    0.9165   -1.4716 H   0  0  0  0  0  0  0  0  0  0  0  0
   -3.4583   -0.6630   -0.7455 H   0  0  0  0  0  0  0  0  0  0  0  0
   -0.6757   -0.8087    1.6753 H   0  0  0  0  0  0  0  0  0  0  0  0
   -1.1376   -1.9281    0.2848 H   0  0  0  0  0  0  0  0  0  0  0  0
   -2.3571   -1.2440    1.3689 H   0  0  0  0  0  0  0  0  0  0  0  0
  1  2  1  0
  2  3  1  0
  3  4  1  0
  4  5  1  0
  5  6  1  0
  6  7  1  0
  7  8  1  0
  7  9  1  0
  7  5  1  0
  1 10  1  0
  1 11  1  0
  1 12  1  0
  3 13  1  0
  3 14  1  0
  4 15  1  0
  4 16  1  0
  5 17  1  0
  6 18  1  0
  6 19  1  0
  8 20  1  0
  8 21  1  0
  8 22  1  0
  9 23  1  0
  9 24  1  0
  9 25  1  0
M  END
