
     RDKit          3D

 20 20  0  0  0  0  0  0  0  0999 V2000
    2.9901   -0.3029    0.2071 C   0  0  0  0  0  0  0  0  0  0  0  0
    2.1817    0.2120    1.1855 O   0  0  0  0  0  0  0  0  0  0  0  0
    0.9671    0.6709    0.7530 C   0  0  0  0  0  0  0  0  0  0  0  0
    0.1403   -0.4256    0.0957 C   0  0  0  0  0  0  0  0  0  0  0  0
   -1.1890    0.1306   -0.3604 C   0  0  0  0  0  0  0  0  0  0  0  0
   -1.0654    1.1653   -1.2868 O   0  0  0  0  0  0  0  0  0  0  0  0
   -2.2570   -0.9008   -0.5592 C   0  0  0  0  0  0  0  0  0  0  0  0
   -2.3627    0.1579    0.5150 C   0  0  0  0  0  0  0  0  0  0  0  0
    2.5918   -1.1644   -0.3457 H   0  0  0  0  0  0  0  0  0  0  0  0
    3.9554   -0.6020    0.7088 H   0  0  0  0  0  0  0  0  0  0  0  0
    3.2950    0.4477   -0.5562 H   0  0  0  0  0  0  0  0  0  0  0  0
    0.3542    1.1128    1.5401 H   0  0  0  0  0  0  0  0  0  0  0  0
    1.0627    1.4692   -0.0400 H   0  0  0  0  0  0  0  0  0  0  0  0
    0.0610   -1.2972    0.7436 H   0  0  0  0  0  0  0  0  0  0  0  0
    0.6853   -0.6864   -0.8588 H   0  0  0  0  0  0  0  0  0  0  0  0
   -0.9487    1.9998   -0.7317 H   0  0  0  0  0  0  0  0  0  0  0  0
   -2.9302   -0.8387   -1.4477 H   0  0  0  0  0  0  0  0  0  0  0  0
   -2.0646   -1.9324   -0.2203 H   0  0  0  0  0  0  0  0  0  0  0  0
   -3.1430    0.9253    0.3156 H   0  0  0  0  0  0  0  0  0  0  0  0
   -2.3242   -0.1410    1.5743 H   0  0  0  0  0  0  0  0  0  0  0  0
  1  2  1  0
  2  3  1  0
  3  4  1  0
  4  5  1  0
  5  6  1  0
  5  7  1  0
  7  8  1  0
  8  5  1  0
  1  9  1  0
  1 10  1  0
  1 11  1  0
  3 12  1  0
  3 13  1  0
  4 14  1  0
  4 15  1  0
  6 16  1  0
  7 17  1  0
  7 18  1  0
  8 19  1  0
  8 20  1  0
M  END
