
     RDKit          3D

 21 22  0  0  0  0  0  0  0  0999 V2000
    2.8506    0.6120   -1.0156 C   0  0  0  0  0  0  0  0  0  0  0  0
    2.1219   -0.5683   -1.0070 O   0  0  0  0  0  0  0  0  0  0  0  0
    1.3177   -0.7453    0.0814 C   0  0  0  0  0  0  0  0  0  0  0  0
    0.2486    0.2749    0.3037 C   0  0  0  0  0  0  0  0  0  0  0  0
   -0.6095    0.0500    1.4961 C   0  0  0  0  0  0  0  0  0  0  0  0
   -1.0977   -1.2186    1.7678 O   0  0  0  0  0  0  0  0  0  0  0  0
   -1.6223   -1.4649    0.4894 C   0  0  0  0  0  0  0  0  0  0  0  0
   -1.1641   -0.1036    0.0855 C   0  0  0  0  0  0  0  0  0  0  0  0
   -2.2223    0.8856   -0.2661 C   0  0  0  0  0  0  0  0  0  0  0  0
    3.4780    0.6514   -1.9343 H   0  0  0  0  0  0  0  0  0  0  0  0
    2.1208    1.4685   -1.0988 H   0  0  0  0  0  0  0  0  0  0  0  0
    3.4835    0.7614   -0.1416 H   0  0  0  0  0  0  0  0  0  0  0  0
    0.8327   -1.7448    0.1022 H   0  0  0  0  0  0  0  0  0  0  0  0
    1.9757   -0.7201    0.9823 H   0  0  0  0  0  0  0  0  0  0  0  0
    0.5043    1.3130    0.0725 H   0  0  0  0  0  0  0  0  0  0  0  0
   -0.9019    0.9157    2.0935 H   0  0  0  0  0  0  0  0  0  0  0  0
   -2.7279   -1.5992    0.4766 H   0  0  0  0  0  0  0  0  0  0  0  0
   -1.1333   -2.2575   -0.0811 H   0  0  0  0  0  0  0  0  0  0  0  0
   -1.7216    1.8534   -0.4996 H   0  0  0  0  0  0  0  0  0  0  0  0
   -2.9154    0.5560   -1.0566 H   0  0  0  0  0  0  0  0  0  0  0  0
   -2.8178    1.0804    0.6654 H   0  0  0  0  0  0  0  0  0  0  0  0
  1  2  1  0
  2  3  1  0
  3  4  1  0
  4  5  1  0
  5  6  1  0
  6  7  1  0
  7  8  1  0
  8  9  1  0
  8  4  1  0
  8  5  1  0
  1 10  1  0
  1 11  1  0
  1 12  1  0
  3 13  1  0
  3 14  1  0
  4 15  1  0
  5 16  1  0
  7 17  1  0
  7 18  1  0
  9 19  1  0
  9 20  1  0
  9 21  1  0
M  END
