
     RDKit          3D

 21 22  0  0  0  0  0  0  0  0999 V2000
    3.0535    0.1872    0.3533 C   0  0  0  0  0  0  0  0  0  0  0  0
    2.5796   -1.0592    0.5882 O   0  0  0  0  0  0  0  0  0  0  0  0
    1.2325   -1.2194    0.7915 C   0  0  0  0  0  0  0  0  0  0  0  0
    0.3584   -0.7992   -0.3536 C   0  0  0  0  0  0  0  0  0  0  0  0
    0.4354    0.6308   -0.7295 O   0  0  0  0  0  0  0  0  0  0  0  0
   -0.7104    0.0380   -0.2743 C   0  0  0  0  0  0  0  0  0  0  0  0
   -1.4493    0.6199    0.8603 C   0  0  0  0  0  0  0  0  0  0  0  0
   -2.6018    0.9281   -0.0782 C   0  0  0  0  0  0  0  0  0  0  0  0
   -1.9618    0.0100   -1.0890 C   0  0  0  0  0  0  0  0  0  0  0  0
    2.6761    0.6885   -0.5423 H   0  0  0  0  0  0  0  0  0  0  0  0
    2.8918    0.8171    1.2828 H   0  0  0  0  0  0  0  0  0  0  0  0
    4.1611    0.1323    0.2692 H   0  0  0  0  0  0  0  0  0  0  0  0
    0.9498   -0.7070    1.7435 H   0  0  0  0  0  0  0  0  0  0  0  0
    1.0762   -2.3167    0.9868 H   0  0  0  0  0  0  0  0  0  0  0  0
    0.5750   -1.3871   -1.2913 H   0  0  0  0  0  0  0  0  0  0  0  0
   -1.0490    1.5796    1.2689 H   0  0  0  0  0  0  0  0  0  0  0  0
   -1.7435   -0.1179    1.6305 H   0  0  0  0  0  0  0  0  0  0  0  0
   -3.5843    0.5885    0.3088 H   0  0  0  0  0  0  0  0  0  0  0  0
   -2.5974    1.9697   -0.4821 H   0  0  0  0  0  0  0  0  0  0  0  0
   -2.4313   -1.0023   -1.0386 H   0  0  0  0  0  0  0  0  0  0  0  0
   -1.8608    0.4189   -2.1153 H   0  0  0  0  0  0  0  0  0  0  0  0
  1  2  1  0
  2  3  1  0
  3  4  1  0
  4  5  1  0
  5  6  1  0
  6  7  1  0
  7  8  1  0
  8  9  1  0
  6  4  1  0
  9  6  1  0
  1 10  1  0
  1 11  1  0
  1 12  1  0
  3 13  1  0
  3 14  1  0
  4 15  1  0
  7 16  1  0
  7 17  1  0
  8 18  1  0
  8 19  1  0
  9 20  1  0
  9 21  1  0
M  END
