
     RDKit          3D

 19 19  0  0  0  0  0  0  0  0999 V2000
    3.2954    0.3947    0.0529 C   0  0  0  0  0  0  0  0  0  0  0  0
    2.0784    0.6982    0.6594 O   0  0  0  0  0  0  0  0  0  0  0  0
    1.0552    0.1634   -0.1203 C   0  0  0  0  0  0  0  0  0  0  0  0
   -0.2861    0.4863    0.5292 C   0  0  0  0  0  0  0  0  0  0  0  0
   -1.4071   -0.0898   -0.3090 C   0  0  0  0  0  0  0  0  0  0  0  0
   -2.8059    0.1259    0.1708 C   0  0  0  0  0  0  0  0  0  0  0  0
   -2.1629   -1.2437    0.2684 C   0  0  0  0  0  0  0  0  0  0  0  0
    4.1477    0.7983    0.6341 H   0  0  0  0  0  0  0  0  0  0  0  0
    3.4624   -0.7085   -0.0031 H   0  0  0  0  0  0  0  0  0  0  0  0
    3.3489    0.8761   -0.9518 H   0  0  0  0  0  0  0  0  0  0  0  0
    1.0224    0.6309   -1.1284 H   0  0  0  0  0  0  0  0  0  0  0  0
    1.1382   -0.9196   -0.2123 H   0  0  0  0  0  0  0  0  0  0  0  0
   -0.2949    0.0579    1.5435 H   0  0  0  0  0  0  0  0  0  0  0  0
   -0.4028    1.5979    0.6293 H   0  0  0  0  0  0  0  0  0  0  0  0
   -1.2291   -0.0603   -1.4169 H   0  0  0  0  0  0  0  0  0  0  0  0
   -3.6499    0.1615   -0.5586 H   0  0  0  0  0  0  0  0  0  0  0  0
   -2.9078    0.7043    1.1171 H   0  0  0  0  0  0  0  0  0  0  0  0
   -2.5179   -2.0502   -0.4143 H   0  0  0  0  0  0  0  0  0  0  0  0
   -1.8843   -1.6233    1.2675 H   0  0  0  0  0  0  0  0  0  0  0  0
  1  2  1  0
  2  3  1  0
  3  4  1  0
  4  5  1  0
  5  6  1  0
  6  7  1  0
  7  5  1  0
  1  8  1  0
  1  9  1  0
  1 10  1  0
  3 11  1  0
  3 12  1  0
  4 13  1  0
  4 14  1  0
  5 15  1  0
  6 16  1  0
  6 17  1  0
  7 18  1  0
  7 19  1  0
M  END
