
     RDKit          3D

 17 18  0  0  0  0  0  0  0  0999 V2000
    2.3847    0.1433    0.2030 C   0  0  0  0  0  0  0  0  0  0  0  0
    1.8024   -0.7643   -0.6786 O   0  0  0  0  0  0  0  0  0  0  0  0
    0.5364   -0.3371   -1.0663 C   0  0  0  0  0  0  0  0  0  0  0  0
   -0.3886   -0.1888    0.0871 C   0  0  0  0  0  0  0  0  0  0  0  0
   -1.0183    1.1141    0.3354 C   0  0  0  0  0  0  0  0  0  0  0  0
   -1.8514   -0.0400   -0.0659 C   0  0  0  0  0  0  0  0  0  0  0  0
   -2.0156   -1.1005    0.9342 C   0  0  0  0  0  0  0  0  0  0  0  0
   -2.9482   -1.5895    1.5607 O   0  0  0  0  0  0  0  0  0  0  0  0
   -0.6633   -1.3218    0.8755 O   0  0  0  0  0  0  0  0  0  0  0  0
    3.3880   -0.2309    0.4875 H   0  0  0  0  0  0  0  0  0  0  0  0
    1.7528    0.2449    1.0910 H   0  0  0  0  0  0  0  0  0  0  0  0
    2.5112    1.1497   -0.2473 H   0  0  0  0  0  0  0  0  0  0  0  0
    0.6690    0.6566   -1.5580 H   0  0  0  0  0  0  0  0  0  0  0  0
    0.1818   -1.0379   -1.8448 H   0  0  0  0  0  0  0  0  0  0  0  0
   -0.8672    1.8869   -0.4323 H   0  0  0  0  0  0  0  0  0  0  0  0
   -1.1331    1.5164    1.3709 H   0  0  0  0  0  0  0  0  0  0  0  0
   -2.3409   -0.1009   -1.0519 H   0  0  0  0  0  0  0  0  0  0  0  0
  1  2  1  0
  2  3  1  0
  3  4  1  0
  4  5  1  0
  5  6  1  0
  6  7  1  0
  7  8  2  0
  7  9  1  0
  6  4  1  0
  9  4  1  0
  1 10  1  0
  1 11  1  0
  1 12  1  0
  3 13  1  0
  3 14  1  0
  5 15  1  0
  5 16  1  0
  6 17  1  0
M  END
