
     RDKit          3D

 18 17  0  0  0  0  0  0  0  0999 V2000
    2.6830    0.3325   -0.0954 C   0  0  0  0  0  0  0  0  0  0  0  0
    1.3850    0.4993   -0.5472 O   0  0  0  0  0  0  0  0  0  0  0  0
    0.5578   -0.3272    0.2207 C   0  0  0  0  0  0  0  0  0  0  0  0
   -0.8532   -0.1200   -0.2997 C   0  0  0  0  0  0  0  0  0  0  0  0
   -1.7588   -0.9906    0.5799 C   0  0  0  0  0  0  0  0  0  0  0  0
   -0.9793   -0.4474   -1.6252 O   0  0  0  0  0  0  0  0  0  0  0  0
   -1.2060    1.3053   -0.0769 C   0  0  0  0  0  0  0  0  0  0  0  0
   -1.5440    1.9713   -1.0395 O   0  0  0  0  0  0  0  0  0  0  0  0
    3.0049   -0.7280   -0.2045 H   0  0  0  0  0  0  0  0  0  0  0  0
    3.3330    0.9768   -0.6908 H   0  0  0  0  0  0  0  0  0  0  0  0
    2.7553    0.5846    0.9830 H   0  0  0  0  0  0  0  0  0  0  0  0
    0.8247   -1.3855    0.1626 H   0  0  0  0  0  0  0  0  0  0  0  0
    0.5455    0.0333    1.2881 H   0  0  0  0  0  0  0  0  0  0  0  0
   -2.7683   -1.0642    0.1582 H   0  0  0  0  0  0  0  0  0  0  0  0
   -1.8133   -0.4853    1.5715 H   0  0  0  0  0  0  0  0  0  0  0  0
   -1.2648   -1.9653    0.7192 H   0  0  0  0  0  0  0  0  0  0  0  0
   -1.7377    0.0689   -2.0204 H   0  0  0  0  0  0  0  0  0  0  0  0
   -1.1638    1.7417    0.9164 H   0  0  0  0  0  0  0  0  0  0  0  0
  1  2  1  0
  2  3  1  0
  3  4  1  0
  4  5  1  0
  4  6  1  0
  4  7  1  0
  7  8  2  0
  1  9  1  0
  1 10  1  0
  1 11  1  0
  3 12  1  0
  3 13  1  0
  5 14  1  0
  5 15  1  0
  5 16  1  0
  6 17  1  0
  7 18  1  0
M  END
