
     RDKit          3D

 22 22  0  0  0  0  0  0  0  0999 V2000
    2.8273    0.8732    1.0137 C   0  0  0  0  0  0  0  0  0  0  0  0
    1.7666    0.0294    0.7737 O   0  0  0  0  0  0  0  0  0  0  0  0
    1.1204    0.2798   -0.4223 C   0  0  0  0  0  0  0  0  0  0  0  0
   -0.0195   -0.7278   -0.5416 C   0  0  0  0  0  0  0  0  0  0  0  0
   -0.7199   -0.4450   -1.8525 C   0  0  0  0  0  0  0  0  0  0  0  0
   -0.9217   -0.7098    0.6394 C   0  0  0  0  0  0  0  0  0  0  0  0
   -1.6693    0.4973    1.0504 C   0  0  0  0  0  0  0  0  0  0  0  0
   -2.3870   -0.6512    0.4205 C   0  0  0  0  0  0  0  0  0  0  0  0
    3.2664    0.5805    1.9944 H   0  0  0  0  0  0  0  0  0  0  0  0
    3.5637    0.7414    0.2143 H   0  0  0  0  0  0  0  0  0  0  0  0
    2.5115    1.9409    1.1422 H   0  0  0  0  0  0  0  0  0  0  0  0
    1.8608    0.1186   -1.2310 H   0  0  0  0  0  0  0  0  0  0  0  0
    0.7586    1.3171   -0.5324 H   0  0  0  0  0  0  0  0  0  0  0  0
    0.4037   -1.7503   -0.6286 H   0  0  0  0  0  0  0  0  0  0  0  0
   -1.3815   -1.3020   -2.0946 H   0  0  0  0  0  0  0  0  0  0  0  0
    0.0664   -0.4009   -2.6394 H   0  0  0  0  0  0  0  0  0  0  0  0
   -1.2679    0.4984   -1.8568 H   0  0  0  0  0  0  0  0  0  0  0  0
   -0.5905   -1.3625    1.4875 H   0  0  0  0  0  0  0  0  0  0  0  0
   -1.4475    1.4201    0.4513 H   0  0  0  0  0  0  0  0  0  0  0  0
   -1.8453    0.7051    2.1195 H   0  0  0  0  0  0  0  0  0  0  0  0
   -3.0965   -1.2049    1.0745 H   0  0  0  0  0  0  0  0  0  0  0  0
   -2.7987   -0.4472   -0.5821 H   0  0  0  0  0  0  0  0  0  0  0  0
  1  2  1  0
  2  3  1  0
  3  4  1  0
  4  5  1  0
  4  6  1  0
  6  7  1  0
  7  8  1  0
  8  6  1  0
  1  9  1  0
  1 10  1  0
  1 11  1  0
  3 12  1  0
  3 13  1  0
  4 14  1  0
  5 15  1  0
  5 16  1  0
  5 17  1  0
  6 18  1  0
  7 19  1  0
  7 20  1  0
  8 21  1  0
  8 22  1  0
M  END
