
     RDKit          3D

 23 24  0  0  0  0  0  0  0  0999 V2000
    2.8136    0.5940    0.8918 C   0  0  0  0  0  0  0  0  0  0  0  0
    2.3925    0.9081   -0.3918 O   0  0  0  0  0  0  0  0  0  0  0  0
    1.4860    0.0049   -0.8864 C   0  0  0  0  0  0  0  0  0  0  0  0
    0.2275   -0.0954   -0.0584 C   0  0  0  0  0  0  0  0  0  0  0  0
   -0.5066    1.2011    0.0383 C   0  0  0  0  0  0  0  0  0  0  0  0
   -1.9478    0.8307    0.2937 C   0  0  0  0  0  0  0  0  0  0  0  0
   -2.1484   -0.5154   -0.3188 C   0  0  0  0  0  0  0  0  0  0  0  0
   -1.6463   -1.7589    0.2747 C   0  0  0  0  0  0  0  0  0  0  0  0
   -0.7887   -1.0159   -0.7049 C   0  0  0  0  0  0  0  0  0  0  0  0
    3.3041   -0.4042    0.9473 H   0  0  0  0  0  0  0  0  0  0  0  0
    3.6058    1.3602    1.1379 H   0  0  0  0  0  0  0  0  0  0  0  0
    1.9819    0.7180    1.6026 H   0  0  0  0  0  0  0  0  0  0  0  0
    1.2372    0.1560   -1.9455 H   0  0  0  0  0  0  0  0  0  0  0  0
    1.9582   -1.0209   -0.8393 H   0  0  0  0  0  0  0  0  0  0  0  0
    0.4655   -0.4655    0.9512 H   0  0  0  0  0  0  0  0  0  0  0  0
   -0.4523    1.7181   -0.9265 H   0  0  0  0  0  0  0  0  0  0  0  0
   -0.1438    1.8091    0.8900 H   0  0  0  0  0  0  0  0  0  0  0  0
   -2.2242    0.8743    1.3651 H   0  0  0  0  0  0  0  0  0  0  0  0
   -2.5961    1.5727   -0.2252 H   0  0  0  0  0  0  0  0  0  0  0  0
   -2.9706   -0.6097   -1.0732 H   0  0  0  0  0  0  0  0  0  0  0  0
   -1.2966   -1.8163    1.3389 H   0  0  0  0  0  0  0  0  0  0  0  0
   -2.0785   -2.7055   -0.0762 H   0  0  0  0  0  0  0  0  0  0  0  0
   -0.6723   -1.3396   -1.7369 H   0  0  0  0  0  0  0  0  0  0  0  0
  1  2  1  0
  2  3  1  0
  3  4  1  0
  4  5  1  0
  5  6  1  0
  6  7  1  0
  7  8  1  0
  8  9  1  0
  9  4  1  0
  9  7  1  0
  1 10  1  0
  1 11  1  0
  1 12  1  0
  3 13  1  0
  3 14  1  0
  4 15  1  0
  5 16  1  0
  5 17  1  0
  6 18  1  0
  6 19  1  0
  7 20  1  0
  8 21  1  0
  8 22  1  0
  9 23  1  0
M  END
