
     RDKit          3D

 25 24  0  0  0  0  0  0  0  0999 V2000
    4.0466    0.4752    0.3590 C   0  0  0  0  0  0  0  0  0  0  0  0
    3.2107    0.8876    1.3763 O   0  0  0  0  0  0  0  0  0  0  0  0
    1.9314    1.2128    0.9912 C   0  0  0  0  0  0  0  0  0  0  0  0
    1.2188    0.0450    0.3526 C   0  0  0  0  0  0  0  0  0  0  0  0
   -0.1976    0.4779   -0.0448 C   0  0  0  0  0  0  0  0  0  0  0  0
   -0.9382   -0.6717   -0.6883 C   0  0  0  0  0  0  0  0  0  0  0  0
   -2.3231   -0.3226   -1.1002 C   0  0  0  0  0  0  0  0  0  0  0  0
   -3.2084    0.1214    0.0262 C   0  0  0  0  0  0  0  0  0  0  0  0
   -4.4654    0.4119   -0.5142 O   0  0  0  0  0  0  0  0  0  0  0  0
    5.0382    0.2623    0.8619 H   0  0  0  0  0  0  0  0  0  0  0  0
    4.2544    1.2406   -0.3987 H   0  0  0  0  0  0  0  0  0  0  0  0
    3.7559   -0.4870   -0.1129 H   0  0  0  0  0  0  0  0  0  0  0  0
    1.9134    2.0730    0.2663 H   0  0  0  0  0  0  0  0  0  0  0  0
    1.3482    1.5222    1.8878 H   0  0  0  0  0  0  0  0  0  0  0  0
    1.1523   -0.7760    1.0945 H   0  0  0  0  0  0  0  0  0  0  0  0
    1.7986   -0.2423   -0.5585 H   0  0  0  0  0  0  0  0  0  0  0  0
   -0.1375    1.2973   -0.7893 H   0  0  0  0  0  0  0  0  0  0  0  0
   -0.7050    0.8373    0.8481 H   0  0  0  0  0  0  0  0  0  0  0  0
   -0.3901   -1.0211   -1.5877 H   0  0  0  0  0  0  0  0  0  0  0  0
   -0.9757   -1.5236    0.0296 H   0  0  0  0  0  0  0  0  0  0  0  0
   -2.3258    0.4752   -1.8768 H   0  0  0  0  0  0  0  0  0  0  0  0
   -2.7742   -1.2139   -1.5848 H   0  0  0  0  0  0  0  0  0  0  0  0
   -2.7986    1.1108    0.3816 H   0  0  0  0  0  0  0  0  0  0  0  0
   -3.2957   -0.5958    0.8403 H   0  0  0  0  0  0  0  0  0  0  0  0
   -5.1330   -0.1315   -0.0593 H   0  0  0  0  0  0  0  0  0  0  0  0
  1  2  1  0
  2  3  1  0
  3  4  1  0
  4  5  1  0
  5  6  1  0
  6  7  1  0
  7  8  1  0
  8  9  1  0
  1 10  1  0
  1 11  1  0
  1 12  1  0
  3 13  1  0
  3 14  1  0
  4 15  1  0
  4 16  1  0
  5 17  1  0
  5 18  1  0
  6 19  1  0
  6 20  1  0
  7 21  1  0
  7 22  1  0
  8 23  1  0
  8 24  1  0
  9 25  1  0
M  END
