
     RDKit          3D

 21 22  0  0  0  0  0  0  0  0999 V2000
    3.7428   -0.0398   -0.4531 C   0  0  0  0  0  0  0  0  0  0  0  0
    2.4588    0.0043   -1.0388 O   0  0  0  0  0  0  0  0  0  0  0  0
    1.5869    0.3806   -0.0321 C   0  0  0  0  0  0  0  0  0  0  0  0
    0.1600    0.4776   -0.4884 C   0  0  0  0  0  0  0  0  0  0  0  0
   -0.8253    0.8801    0.5568 C   0  0  0  0  0  0  0  0  0  0  0  0
   -2.0999    1.1929    0.1527 O   0  0  0  0  0  0  0  0  0  0  0  0
   -2.3099   -0.1299   -0.1968 C   0  0  0  0  0  0  0  0  0  0  0  0
   -3.2829   -0.7920    0.7429 C   0  0  0  0  0  0  0  0  0  0  0  0
   -0.8680   -0.4876   -0.0035 C   0  0  0  0  0  0  0  0  0  0  0  0
    3.9400    0.9862   -0.0776 H   0  0  0  0  0  0  0  0  0  0  0  0
    4.5179   -0.3268   -1.1680 H   0  0  0  0  0  0  0  0  0  0  0  0
    3.6871   -0.7156    0.4344 H   0  0  0  0  0  0  0  0  0  0  0  0
    1.9170    1.3949    0.3244 H   0  0  0  0  0  0  0  0  0  0  0  0
    1.7186   -0.2914    0.8375 H   0  0  0  0  0  0  0  0  0  0  0  0
    0.0054    0.8859   -1.5019 H   0  0  0  0  0  0  0  0  0  0  0  0
   -0.5225    0.9710    1.6175 H   0  0  0  0  0  0  0  0  0  0  0  0
   -2.5937   -0.2082   -1.2521 H   0  0  0  0  0  0  0  0  0  0  0  0
   -2.7957   -1.3392    1.5685 H   0  0  0  0  0  0  0  0  0  0  0  0
   -3.9571   -1.4641    0.1705 H   0  0  0  0  0  0  0  0  0  0  0  0
   -3.9192   -0.0065    1.2031 H   0  0  0  0  0  0  0  0  0  0  0  0
   -0.5603   -1.3726    0.5568 H   0  0  0  0  0  0  0  0  0  0  0  0
  1  2  1  0
  2  3  1  0
  3  4  1  0
  4  5  1  0
  5  6  1  0
  6  7  1  0
  7  8  1  0
  7  9  1  0
  9  4  1  0
  9  5  1  0
  1 10  1  0
  1 11  1  0
  1 12  1  0
  3 13  1  0
  3 14  1  0
  4 15  1  0
  5 16  1  0
  7 17  1  0
  8 18  1  0
  8 19  1  0
  8 20  1  0
  9 21  1  0
M  END
