
     RDKit          3D

 21 22  0  0  0  0  0  0  0  0999 V2000
    2.9947   -0.6469    0.2069 C   0  0  0  0  0  0  0  0  0  0  0  0
    1.8929   -1.1299    0.8624 O   0  0  0  0  0  0  0  0  0  0  0  0
    0.7398   -1.0683    0.1547 C   0  0  0  0  0  0  0  0  0  0  0  0
    0.3666    0.3488   -0.1718 C   0  0  0  0  0  0  0  0  0  0  0  0
   -0.8717    0.6100   -0.9438 C   0  0  0  0  0  0  0  0  0  0  0  0
   -2.0050   -0.3408   -0.7124 C   0  0  0  0  0  0  0  0  0  0  0  0
   -2.0733    0.1329    0.7196 C   0  0  0  0  0  0  0  0  0  0  0  0
   -0.8393    0.9669    0.4645 C   0  0  0  0  0  0  0  0  0  0  0  0
   -0.7363    2.2300    0.9661 O   0  0  0  0  0  0  0  0  0  0  0  0
    2.9935    0.3907   -0.0966 H   0  0  0  0  0  0  0  0  0  0  0  0
    3.2566   -1.3459   -0.6366 H   0  0  0  0  0  0  0  0  0  0  0  0
    3.8683   -0.7773    0.9189 H   0  0  0  0  0  0  0  0  0  0  0  0
    0.9288   -1.6307   -0.8129 H   0  0  0  0  0  0  0  0  0  0  0  0
   -0.0945   -1.6212    0.6477 H   0  0  0  0  0  0  0  0  0  0  0  0
    1.1809    1.0448   -0.3636 H   0  0  0  0  0  0  0  0  0  0  0  0
   -0.8435    1.2938   -1.7827 H   0  0  0  0  0  0  0  0  0  0  0  0
   -2.8727   -0.0845   -1.3289 H   0  0  0  0  0  0  0  0  0  0  0  0
   -1.6760   -1.4150   -0.7873 H   0  0  0  0  0  0  0  0  0  0  0  0
   -2.9376    0.8272    0.9210 H   0  0  0  0  0  0  0  0  0  0  0  0
   -1.9601   -0.6856    1.4324 H   0  0  0  0  0  0  0  0  0  0  0  0
   -1.3124    2.9012    0.5398 H   0  0  0  0  0  0  0  0  0  0  0  0
  1  2  1  0
  2  3  1  0
  3  4  1  0
  4  5  1  0
  5  6  1  0
  6  7  1  0
  7  8  1  0
  8  9  1  0
  8  4  1  0
  8  5  1  0
  1 10  1  0
  1 11  1  0
  1 12  1  0
  3 13  1  0
  3 14  1  0
  4 15  1  0
  5 16  1  0
  6 17  1  0
  6 18  1  0
  7 19  1  0
  7 20  1  0
  9 21  1  0
M  END
