
     RDKit          3D

 19 18  0  0  0  0  0  0  0  0999 V2000
   -2.9012   -0.0637    0.4391 C   0  0  0  0  0  0  0  0  0  0  0  0
   -2.1197   -1.1117    0.8509 O   0  0  0  0  0  0  0  0  0  0  0  0
   -0.7538   -0.8537    0.8121 C   0  0  0  0  0  0  0  0  0  0  0  0
   -0.2463   -0.5193   -0.5423 C   0  0  0  0  0  0  0  0  0  0  0  0
    1.2204   -0.2589   -0.5286 C   0  0  0  0  0  0  0  0  0  0  0  0
    1.6346    0.8804    0.3130 C   0  0  0  0  0  0  0  0  0  0  0  0
    0.8355    1.6000    0.9245 O   0  0  0  0  0  0  0  0  0  0  0  0
    3.0606    1.1726    0.4293 C   0  0  0  0  0  0  0  0  0  0  0  0
    3.9568    0.5090   -0.1451 O   0  0  0  0  0  0  0  0  0  0  0  0
   -2.7203    0.2663   -0.6047 H   0  0  0  0  0  0  0  0  0  0  0  0
   -3.9607   -0.3977    0.4866 H   0  0  0  0  0  0  0  0  0  0  0  0
   -2.8447    0.8141    1.1488 H   0  0  0  0  0  0  0  0  0  0  0  0
   -0.2128   -1.7882    1.1388 H   0  0  0  0  0  0  0  0  0  0  0  0
   -0.5739   -0.0668    1.5624 H   0  0  0  0  0  0  0  0  0  0  0  0
   -0.7305    0.3742   -0.9934 H   0  0  0  0  0  0  0  0  0  0  0  0
   -0.4862   -1.3484   -1.2588 H   0  0  0  0  0  0  0  0  0  0  0  0
    1.7929   -1.1508   -0.1495 H   0  0  0  0  0  0  0  0  0  0  0  0
    1.6382   -0.0597   -1.5422 H   0  0  0  0  0  0  0  0  0  0  0  0
    3.4113    2.0022    1.0369 H   0  0  0  0  0  0  0  0  0  0  0  0
  1  2  1  0
  2  3  1  0
  3  4  1  0
  4  5  1  0
  5  6  1  0
  6  7  2  0
  6  8  1  0
  8  9  2  0
  1 10  1  0
  1 11  1  0
  1 12  1  0
  3 13  1  0
  3 14  1  0
  4 15  1  0
  4 16  1  0
  5 17  1  0
  5 18  1  0
  8 19  1  0
M  END
