
     RDKit          3D

 25 25  0  0  0  0  0  0  0  0999 V2000
    4.3989   -0.6360    0.1670 C   0  0  0  0  0  0  0  0  0  0  0  0
    3.1314   -0.4965    0.7616 O   0  0  0  0  0  0  0  0  0  0  0  0
    2.2623   -0.1159   -0.2523 C   0  0  0  0  0  0  0  0  0  0  0  0
    0.8931    0.0392    0.3676 C   0  0  0  0  0  0  0  0  0  0  0  0
   -0.1425    0.4593   -0.6733 C   0  0  0  0  0  0  0  0  0  0  0  0
   -1.4523    0.5837    0.0392 C   0  0  0  0  0  0  0  0  0  0  0  0
   -1.9100   -0.7207    0.6955 C   0  0  0  0  0  0  0  0  0  0  0  0
   -2.6811   -0.0738   -0.4106 C   0  0  0  0  0  0  0  0  0  0  0  0
   -3.9774    0.6593   -0.0508 C   0  0  0  0  0  0  0  0  0  0  0  0
    5.0914   -0.9356    0.9565 H   0  0  0  0  0  0  0  0  0  0  0  0
    4.2970   -1.4099   -0.6152 H   0  0  0  0  0  0  0  0  0  0  0  0
    4.6342    0.3651   -0.2638 H   0  0  0  0  0  0  0  0  0  0  0  0
    2.1933   -0.9526   -0.9782 H   0  0  0  0  0  0  0  0  0  0  0  0
    2.5297    0.8462   -0.7153 H   0  0  0  0  0  0  0  0  0  0  0  0
    0.8721    0.8080    1.1510 H   0  0  0  0  0  0  0  0  0  0  0  0
    0.5201   -0.9087    0.8104 H   0  0  0  0  0  0  0  0  0  0  0  0
   -0.1627   -0.2656   -1.5094 H   0  0  0  0  0  0  0  0  0  0  0  0
    0.1295    1.4705   -1.0493 H   0  0  0  0  0  0  0  0  0  0  0  0
   -1.5121    1.5060    0.6876 H   0  0  0  0  0  0  0  0  0  0  0  0
   -1.3820   -1.6517    0.4393 H   0  0  0  0  0  0  0  0  0  0  0  0
   -2.2201   -0.6363    1.7381 H   0  0  0  0  0  0  0  0  0  0  0  0
   -2.7301   -0.5768   -1.3955 H   0  0  0  0  0  0  0  0  0  0  0  0
   -4.1223    1.4810   -0.7997 H   0  0  0  0  0  0  0  0  0  0  0  0
   -3.8385    1.1974    0.9319 H   0  0  0  0  0  0  0  0  0  0  0  0
   -4.8221   -0.0357   -0.0007 H   0  0  0  0  0  0  0  0  0  0  0  0
  1  2  1  0
  2  3  1  0
  3  4  1  0
  4  5  1  0
  5  6  1  0
  6  7  1  0
  7  8  1  0
  8  9  1  0
  8  6  1  0
  1 10  1  0
  1 11  1  0
  1 12  1  0
  3 13  1  0
  3 14  1  0
  4 15  1  0
  4 16  1  0
  5 17  1  0
  5 18  1  0
  6 19  1  0
  7 20  1  0
  7 21  1  0
  8 22  1  0
  9 23  1  0
  9 24  1  0
  9 25  1  0
M  END
