
     RDKit          3D

 19 19  0  0  0  0  0  0  0  0999 V2000
    2.6428    0.7597    0.2763 C   0  0  0  0  0  0  0  0  0  0  0  0
    2.2959    0.0530   -0.8398 O   0  0  0  0  0  0  0  0  0  0  0  0
    1.2411   -0.7889   -0.7435 C   0  0  0  0  0  0  0  0  0  0  0  0
   -0.0971   -0.2061   -0.5359 C   0  0  0  0  0  0  0  0  0  0  0  0
   -0.5297    1.0276   -0.4247 C   0  0  0  0  0  0  0  0  0  0  0  0
   -1.9919    1.0620   -0.2202 C   0  0  0  0  0  0  0  0  0  0  0  0
   -2.7946    2.0074   -0.4235 O   0  0  0  0  0  0  0  0  0  0  0  0
   -2.3329   -0.2895    0.2904 C   0  0  0  0  0  0  0  0  0  0  0  0
   -1.2957   -1.1269   -0.4145 C   0  0  0  0  0  0  0  0  0  0  0  0
    2.9161    0.0536    1.1254 H   0  0  0  0  0  0  0  0  0  0  0  0
    3.6084    1.2789    0.0243 H   0  0  0  0  0  0  0  0  0  0  0  0
    1.9300    1.5107    0.6323 H   0  0  0  0  0  0  0  0  0  0  0  0
    1.3865   -1.5780    0.0524 H   0  0  0  0  0  0  0  0  0  0  0  0
    1.2015   -1.4173   -1.6968 H   0  0  0  0  0  0  0  0  0  0  0  0
    0.0214    1.9392   -0.4791 H   0  0  0  0  0  0  0  0  0  0  0  0
   -2.2237   -0.2998    1.3788 H   0  0  0  0  0  0  0  0  0  0  0  0
   -3.3339   -0.6287   -0.0396 H   0  0  0  0  0  0  0  0  0  0  0  0
   -1.0336   -2.0375    0.1495 H   0  0  0  0  0  0  0  0  0  0  0  0
   -1.6106   -1.3195   -1.4571 H   0  0  0  0  0  0  0  0  0  0  0  0
  1  2  1  0
  2  3  1  0
  3  4  1  0
  4  5  2  0
  5  6  1  0
  6  7  2  0
  6  8  1  0
  8  9  1  0
  9  4  1  0
  1 10  1  0
  1 11  1  0
  1 12  1  0
  3 13  1  0
  3 14  1  0
  5 15  1  0
  8 16  1  0
  8 17  1  0
  9 18  1  0
  9 19  1  0
M  END
