
     RDKit          3D

 19 19  0  0  0  0  0  0  0  0999 V2000
    3.1029   -0.3343   -0.0328 C   0  0  0  0  0  0  0  0  0  0  0  0
    2.7023    0.2294    1.1760 O   0  0  0  0  0  0  0  0  0  0  0  0
    1.8416    1.2810    0.9437 C   0  0  0  0  0  0  0  0  0  0  0  0
    0.6783    0.7573    0.2245 C   0  0  0  0  0  0  0  0  0  0  0  0
   -0.2959    0.3255   -0.3778 C   0  0  0  0  0  0  0  0  0  0  0  0
   -1.4734   -0.1789   -1.0792 C   0  0  0  0  0  0  0  0  0  0  0  0
   -2.2120   -1.3451   -0.3890 C   0  0  0  0  0  0  0  0  0  0  0  0
   -2.7891    0.0259   -0.4725 C   0  0  0  0  0  0  0  0  0  0  0  0
   -2.9591    0.7617    0.7045 O   0  0  0  0  0  0  0  0  0  0  0  0
    3.6272    0.4129   -0.6713 H   0  0  0  0  0  0  0  0  0  0  0  0
    2.2537   -0.7627   -0.6090 H   0  0  0  0  0  0  0  0  0  0  0  0
    3.8006   -1.1920    0.1745 H   0  0  0  0  0  0  0  0  0  0  0  0
    1.4964    1.6402    1.9500 H   0  0  0  0  0  0  0  0  0  0  0  0
    2.3166    2.1332    0.4031 H   0  0  0  0  0  0  0  0  0  0  0  0
   -1.4290   -0.1897   -2.1848 H   0  0  0  0  0  0  0  0  0  0  0  0
   -1.7479   -1.6865    0.5827 H   0  0  0  0  0  0  0  0  0  0  0  0
   -2.4858   -2.1476   -1.0731 H   0  0  0  0  0  0  0  0  0  0  0  0
   -3.6905    0.0958   -1.1382 H   0  0  0  0  0  0  0  0  0  0  0  0
   -2.7370    0.1738    1.4544 H   0  0  0  0  0  0  0  0  0  0  0  0
  1  2  1  0
  2  3  1  0
  3  4  1  0
  4  5  3  0
  5  6  1  0
  6  7  1  0
  7  8  1  0
  8  9  1  0
  8  6  1  0
  1 10  1  0
  1 11  1  0
  1 12  1  0
  3 13  1  0
  3 14  1  0
  6 15  1  0
  7 16  1  0
  7 17  1  0
  8 18  1  0
  9 19  1  0
M  END
