
     RDKit          3D

 21 22  0  0  0  0  0  0  0  0999 V2000
    2.7897   -0.5833    0.2361 C   0  0  0  0  0  0  0  0  0  0  0  0
    1.9706   -1.0930   -0.7253 O   0  0  0  0  0  0  0  0  0  0  0  0
    1.0801   -0.2756   -1.3130 C   0  0  0  0  0  0  0  0  0  0  0  0
    0.0346    0.3839   -0.5148 C   0  0  0  0  0  0  0  0  0  0  0  0
   -0.9181   -0.5917    0.2122 C   0  0  0  0  0  0  0  0  0  0  0  0
   -0.4667   -0.9342    1.4485 O   0  0  0  0  0  0  0  0  0  0  0  0
   -1.7705    0.6747    0.2056 C   0  0  0  0  0  0  0  0  0  0  0  0
   -2.4348    1.2851   -0.8879 C   0  0  0  0  0  0  0  0  0  0  0  0
   -1.2568    0.6042   -1.2958 C   0  0  0  0  0  0  0  0  0  0  0  0
    3.4430    0.2427   -0.1023 H   0  0  0  0  0  0  0  0  0  0  0  0
    2.1627   -0.3028    1.1047 H   0  0  0  0  0  0  0  0  0  0  0  0
    3.5022   -1.4087    0.5339 H   0  0  0  0  0  0  0  0  0  0  0  0
    0.5708   -0.8633   -2.1333 H   0  0  0  0  0  0  0  0  0  0  0  0
    1.6393    0.5250   -1.8685 H   0  0  0  0  0  0  0  0  0  0  0  0
    0.3073    1.1688    0.1889 H   0  0  0  0  0  0  0  0  0  0  0  0
   -1.2458   -1.3842   -0.4646 H   0  0  0  0  0  0  0  0  0  0  0  0
   -0.8219   -1.7692    1.7970 H   0  0  0  0  0  0  0  0  0  0  0  0
   -1.2033    1.4190    0.8519 H   0  0  0  0  0  0  0  0  0  0  0  0
   -2.4460    2.4063   -1.0379 H   0  0  0  0  0  0  0  0  0  0  0  0
   -3.4666    0.8907   -1.1333 H   0  0  0  0  0  0  0  0  0  0  0  0
   -1.4697   -0.3945   -1.7996 H   0  0  0  0  0  0  0  0  0  0  0  0
  1  2  1  0
  2  3  1  0
  3  4  1  0
  4  5  1  0
  5  6  1  0
  5  7  1  0
  7  8  1  0
  8  9  1  0
  9  4  1  0
  9  7  1  0
  1 10  1  0
  1 11  1  0
  1 12  1  0
  3 13  1  0
  3 14  1  0
  4 15  1  0
  5 16  1  0
  6 17  1  0
  7 18  1  0
  8 19  1  0
  8 20  1  0
  9 21  1  0
M  END
