
     RDKit          3D

 23 22  0  0  0  0  0  0  0  0999 V2000
    3.0836    0.6939   -0.1704 C   0  0  0  0  0  0  0  0  0  0  0  0
    2.0502    0.2121    0.6260 O   0  0  0  0  0  0  0  0  0  0  0  0
    0.8492    0.3064   -0.0661 C   0  0  0  0  0  0  0  0  0  0  0  0
   -0.2952   -0.2097    0.7728 C   0  0  0  0  0  0  0  0  0  0  0  0
   -0.1217   -1.6535    1.1655 C   0  0  0  0  0  0  0  0  0  0  0  0
   -1.6096   -0.1011    0.0146 C   0  0  0  0  0  0  0  0  0  0  0  0
   -1.8406    1.3663   -0.3175 C   0  0  0  0  0  0  0  0  0  0  0  0
   -1.5954   -0.9397   -1.2027 C   0  0  0  0  0  0  0  0  0  0  0  0
   -2.5671   -0.9862   -1.9193 O   0  0  0  0  0  0  0  0  0  0  0  0
    3.1848    0.1291   -1.1061 H   0  0  0  0  0  0  0  0  0  0  0  0
    2.8633    1.7659   -0.4094 H   0  0  0  0  0  0  0  0  0  0  0  0
    4.0390    0.6150    0.4178 H   0  0  0  0  0  0  0  0  0  0  0  0
    0.6594    1.3935   -0.2234 H   0  0  0  0  0  0  0  0  0  0  0  0
    0.8984   -0.1804   -1.0472 H   0  0  0  0  0  0  0  0  0  0  0  0
   -0.3292    0.4194    1.6857 H   0  0  0  0  0  0  0  0  0  0  0  0
    0.0556   -2.2795    0.2748 H   0  0  0  0  0  0  0  0  0  0  0  0
   -1.1193   -1.9821    1.5806 H   0  0  0  0  0  0  0  0  0  0  0  0
    0.6610   -1.7714    1.9426 H   0  0  0  0  0  0  0  0  0  0  0  0
   -2.4641   -0.4342    0.6365 H   0  0  0  0  0  0  0  0  0  0  0  0
   -2.9171    1.6333   -0.2170 H   0  0  0  0  0  0  0  0  0  0  0  0
   -1.2368    1.9912    0.3797 H   0  0  0  0  0  0  0  0  0  0  0  0
   -1.5227    1.5116   -1.3756 H   0  0  0  0  0  0  0  0  0  0  0  0
   -0.7258   -1.5000   -1.4418 H   0  0  0  0  0  0  0  0  0  0  0  0
  1  2  1  0
  2  3  1  0
  3  4  1  0
  4  5  1  0
  4  6  1  0
  6  7  1  0
  6  8  1  0
  8  9  2  0
  1 10  1  0
  1 11  1  0
  1 12  1  0
  3 13  1  0
  3 14  1  0
  4 15  1  0
  5 16  1  0
  5 17  1  0
  5 18  1  0
  6 19  1  0
  7 20  1  0
  7 21  1  0
  7 22  1  0
  8 23  1  0
M  END
