
     RDKit          3D

 21 20  0  0  0  0  0  0  0  0999 V2000
    3.3348    0.4347   -0.5020 C   0  0  0  0  0  0  0  0  0  0  0  0
    2.3841   -0.4282    0.0293 O   0  0  0  0  0  0  0  0  0  0  0  0
    1.0928    0.0192   -0.2691 C   0  0  0  0  0  0  0  0  0  0  0  0
    0.0720   -0.9307    0.3161 C   0  0  0  0  0  0  0  0  0  0  0  0
   -1.3054   -0.4083   -0.0307 C   0  0  0  0  0  0  0  0  0  0  0  0
   -2.3947   -1.2965    0.5148 C   0  0  0  0  0  0  0  0  0  0  0  0
   -1.5038    0.8980    0.4639 O   0  0  0  0  0  0  0  0  0  0  0  0
   -1.7517    1.9167   -0.4421 C   0  0  0  0  0  0  0  0  0  0  0  0
   -1.7910    1.6445   -1.6633 O   0  0  0  0  0  0  0  0  0  0  0  0
    3.2265    1.4484   -0.0961 H   0  0  0  0  0  0  0  0  0  0  0  0
    3.2625    0.4671   -1.6184 H   0  0  0  0  0  0  0  0  0  0  0  0
    4.3385    0.0656   -0.2155 H   0  0  0  0  0  0  0  0  0  0  0  0
    0.9827    0.0588   -1.3671 H   0  0  0  0  0  0  0  0  0  0  0  0
    0.9823    1.0438    0.1070 H   0  0  0  0  0  0  0  0  0  0  0  0
    0.2183   -0.9929    1.4198 H   0  0  0  0  0  0  0  0  0  0  0  0
    0.1831   -1.9128   -0.1663 H   0  0  0  0  0  0  0  0  0  0  0  0
   -1.3839   -0.4126   -1.1322 H   0  0  0  0  0  0  0  0  0  0  0  0
   -3.3045   -0.7003    0.7217 H   0  0  0  0  0  0  0  0  0  0  0  0
   -2.0530   -1.7626    1.4396 H   0  0  0  0  0  0  0  0  0  0  0  0
   -2.6763   -2.1018   -0.2185 H   0  0  0  0  0  0  0  0  0  0  0  0
   -1.9132    2.9502   -0.1137 H   0  0  0  0  0  0  0  0  0  0  0  0
  1  2  1  0
  2  3  1  0
  3  4  1  0
  4  5  1  0
  5  6  1  0
  5  7  1  0
  7  8  1  0
  8  9  2  0
  1 10  1  0
  1 11  1  0
  1 12  1  0
  3 13  1  0
  3 14  1  0
  4 15  1  0
  4 16  1  0
  5 17  1  0
  6 18  1  0
  6 19  1  0
  6 20  1  0
  8 21  1  0
M  END
