
     RDKit          3D

 21 22  0  0  0  0  0  0  0  0999 V2000
    3.0698    0.1331    0.0183 C   0  0  0  0  0  0  0  0  0  0  0  0
    2.2739    0.0798   -1.1223 O   0  0  0  0  0  0  0  0  0  0  0  0
    1.0326   -0.4744   -0.8974 C   0  0  0  0  0  0  0  0  0  0  0  0
    0.2272    0.2889    0.1239 C   0  0  0  0  0  0  0  0  0  0  0  0
    0.0417    1.6124   -0.3402 O   0  0  0  0  0  0  0  0  0  0  0  0
   -1.2323    1.2582   -0.8210 C   0  0  0  0  0  0  0  0  0  0  0  0
   -1.2318    0.1150    0.0965 C   0  0  0  0  0  0  0  0  0  0  0  0
   -1.9748   -1.1096   -0.0246 C   0  0  0  0  0  0  0  0  0  0  0  0
   -2.1153   -0.1555    1.1896 C   0  0  0  0  0  0  0  0  0  0  0  0
    3.2183   -0.9192    0.3958 H   0  0  0  0  0  0  0  0  0  0  0  0
    4.0514    0.5376   -0.2998 H   0  0  0  0  0  0  0  0  0  0  0  0
    2.6449    0.7383    0.8263 H   0  0  0  0  0  0  0  0  0  0  0  0
    1.1963   -1.5042   -0.5112 H   0  0  0  0  0  0  0  0  0  0  0  0
    0.4770   -0.4647   -1.8423 H   0  0  0  0  0  0  0  0  0  0  0  0
    0.6697    0.3345    1.1375 H   0  0  0  0  0  0  0  0  0  0  0  0
   -1.1004    0.9097   -1.8845 H   0  0  0  0  0  0  0  0  0  0  0  0
   -2.0111    2.0089   -0.6643 H   0  0  0  0  0  0  0  0  0  0  0  0
   -1.5751   -2.1140    0.1791 H   0  0  0  0  0  0  0  0  0  0  0  0
   -2.8807   -1.1038   -0.6904 H   0  0  0  0  0  0  0  0  0  0  0  0
   -3.0655    0.4035    1.2786 H   0  0  0  0  0  0  0  0  0  0  0  0
   -1.7159   -0.5745    2.1475 H   0  0  0  0  0  0  0  0  0  0  0  0
  1  2  1  0
  2  3  1  0
  3  4  1  0
  4  5  1  0
  5  6  1  0
  6  7  1  0
  7  8  1  0
  8  9  1  0
  7  4  1  0
  9  7  1  0
  1 10  1  0
  1 11  1  0
  1 12  1  0
  3 13  1  0
  3 14  1  0
  4 15  1  0
  6 16  1  0
  6 17  1  0
  8 18  1  0
  8 19  1  0
  9 20  1  0
  9 21  1  0
M  END
