
     RDKit          3D

 19 21  0  0  0  0  0  0  0  0999 V2000
    2.8330   -0.0354   -0.4905 C   0  0  0  0  0  0  0  0  0  0  0  0
    1.4809   -0.3306   -0.5109 O   0  0  0  0  0  0  0  0  0  0  0  0
    0.8014    0.1960    0.5845 C   0  0  0  0  0  0  0  0  0  0  0  0
   -0.6310   -0.1821    0.4557 C   0  0  0  0  0  0  0  0  0  0  0  0
   -1.6620    0.2008    1.4362 C   0  0  0  0  0  0  0  0  0  0  0  0
   -1.6838    0.7679    0.0566 C   0  0  0  0  0  0  0  0  0  0  0  0
   -2.0457   -0.1102   -1.0956 C   0  0  0  0  0  0  0  0  0  0  0  0
   -2.3601   -1.4215   -0.8275 O   0  0  0  0  0  0  0  0  0  0  0  0
   -1.0341   -1.1382   -0.6148 C   0  0  0  0  0  0  0  0  0  0  0  0
    3.2655   -0.4683    0.4387 H   0  0  0  0  0  0  0  0  0  0  0  0
    3.0509    1.0439   -0.5595 H   0  0  0  0  0  0  0  0  0  0  0  0
    3.2907   -0.5928   -1.3457 H   0  0  0  0  0  0  0  0  0  0  0  0
    0.9719    1.2931    0.6215 H   0  0  0  0  0  0  0  0  0  0  0  0
    1.2578   -0.1982    1.5379 H   0  0  0  0  0  0  0  0  0  0  0  0
   -2.4433   -0.5659    1.6464 H   0  0  0  0  0  0  0  0  0  0  0  0
   -1.4940    0.9337    2.2326 H   0  0  0  0  0  0  0  0  0  0  0  0
   -1.4854    1.8368   -0.1310 H   0  0  0  0  0  0  0  0  0  0  0  0
   -1.8568    0.2529   -2.1091 H   0  0  0  0  0  0  0  0  0  0  0  0
   -0.2558   -1.4819   -1.3255 H   0  0  0  0  0  0  0  0  0  0  0  0
  1  2  1  0
  2  3  1  0
  3  4  1  0
  4  5  1  0
  5  6  1  0
  6  7  1  0
  7  8  1  0
  8  9  1  0
  6  4  1  0
  9  7  1  0
  9  4  1  0
  1 10  1  0
  1 11  1  0
  1 12  1  0
  3 13  1  0
  3 14  1  0
  5 15  1  0
  5 16  1  0
  6 17  1  0
  7 18  1  0
  9 19  1  0
M  END
