
     RDKit          3D

 18 18  0  0  0  0  0  0  0  0999 V2000
    2.6529    0.4612   -0.2559 C   0  0  0  0  0  0  0  0  0  0  0  0
    1.2604    0.4835   -0.4883 O   0  0  0  0  0  0  0  0  0  0  0  0
    0.6806   -0.0751    0.6440 C   0  0  0  0  0  0  0  0  0  0  0  0
   -0.8060   -0.1386    0.5845 C   0  0  0  0  0  0  0  0  0  0  0  0
   -1.5407   -0.8854   -0.4606 C   0  0  0  0  0  0  0  0  0  0  0  0
   -2.6454   -1.6380   -0.0596 O   0  0  0  0  0  0  0  0  0  0  0  0
   -1.5767    0.5869   -0.4607 C   0  0  0  0  0  0  0  0  0  0  0  0
   -0.8656    1.2960   -1.4414 O   0  0  0  0  0  0  0  0  0  0  0  0
    2.8862    1.0561    0.6520 H   0  0  0  0  0  0  0  0  0  0  0  0
    2.9862   -0.5871   -0.0500 H   0  0  0  0  0  0  0  0  0  0  0  0
    3.2208    0.8642   -1.0941 H   0  0  0  0  0  0  0  0  0  0  0  0
    1.0647   -1.1368    0.6978 H   0  0  0  0  0  0  0  0  0  0  0  0
    1.0001    0.4029    1.5736 H   0  0  0  0  0  0  0  0  0  0  0  0
   -1.2955   -0.1192    1.5894 H   0  0  0  0  0  0  0  0  0  0  0  0
   -1.0115   -1.3515   -1.3208 H   0  0  0  0  0  0  0  0  0  0  0  0
   -2.2866   -2.5432    0.1955 H   0  0  0  0  0  0  0  0  0  0  0  0
   -2.5512    1.0786   -0.1971 H   0  0  0  0  0  0  0  0  0  0  0  0
   -1.1728    2.2456   -1.4735 H   0  0  0  0  0  0  0  0  0  0  0  0
  1  2  1  0
  2  3  1  0
  3  4  1  0
  4  5  1  0
  5  6  1  0
  5  7  1  0
  7  8  1  0
  7  4  1  0
  1  9  1  0
  1 10  1  0
  1 11  1  0
  3 12  1  0
  3 13  1  0
  4 14  1  0
  5 15  1  0
  6 16  1  0
  7 17  1  0
  8 18  1  0
M  END
