
     RDKit          3D

 17 17  0  0  0  0  0  0  0  0999 V2000
    2.0965   -0.7988   -0.4522 C   0  0  0  0  0  0  0  0  0  0  0  0
    1.6804   -0.2502    0.7430 O   0  0  0  0  0  0  0  0  0  0  0  0
    0.6525    0.6132    0.5663 C   0  0  0  0  0  0  0  0  0  0  0  0
   -0.6740    0.0912    0.1481 C   0  0  0  0  0  0  0  0  0  0  0  0
   -1.6240    1.2477   -0.2471 C   0  0  0  0  0  0  0  0  0  0  0  0
   -1.0483   -1.1911   -0.3166 C   0  0  0  0  0  0  0  0  0  0  0  0
   -1.3100   -0.7673    1.0971 O   0  0  0  0  0  0  0  0  0  0  0  0
    1.3673   -1.3523   -1.0273 H   0  0  0  0  0  0  0  0  0  0  0  0
    2.4368    0.0430   -1.1143 H   0  0  0  0  0  0  0  0  0  0  0  0
    2.9894   -1.4412   -0.1841 H   0  0  0  0  0  0  0  0  0  0  0  0
    0.4819    1.2254    1.5144 H   0  0  0  0  0  0  0  0  0  0  0  0
    0.9195    1.4419   -0.1748 H   0  0  0  0  0  0  0  0  0  0  0  0
   -2.5905    0.8475   -0.5542 H   0  0  0  0  0  0  0  0  0  0  0  0
   -1.1058    1.8433   -1.0374 H   0  0  0  0  0  0  0  0  0  0  0  0
   -1.6839    1.8970    0.6716 H   0  0  0  0  0  0  0  0  0  0  0  0
   -2.0464   -1.2833   -0.8271 H   0  0  0  0  0  0  0  0  0  0  0  0
   -0.5414   -2.1658   -0.2027 H   0  0  0  0  0  0  0  0  0  0  0  0
  1  2  1  0
  2  3  1  0
  3  4  1  0
  4  5  1  0
  4  6  1  0
  6  7  1  0
  7  4  1  0
  1  8  1  0
  1  9  1  0
  1 10  1  0
  3 11  1  0
  3 12  1  0
  5 13  1  0
  5 14  1  0
  5 15  1  0
  6 16  1  0
  6 17  1  0
M  END
