
     RDKit          3D

 16 15  0  0  0  0  0  0  0  0999 V2000
    2.6913    0.1118   -0.5761 C   0  0  0  0  0  0  0  0  0  0  0  0
    1.4560   -0.3956   -0.9489 O   0  0  0  0  0  0  0  0  0  0  0  0
    0.4502    0.0670   -0.0794 C   0  0  0  0  0  0  0  0  0  0  0  0
   -0.8362   -0.5364   -0.5681 C   0  0  0  0  0  0  0  0  0  0  0  0
   -2.0313   -0.1402    0.2595 C   0  0  0  0  0  0  0  0  0  0  0  0
   -2.2470    1.2224    0.2808 O   0  0  0  0  0  0  0  0  0  0  0  0
    2.9502   -0.2116    0.4734 H   0  0  0  0  0  0  0  0  0  0  0  0
    2.7264    1.2095   -0.5845 H   0  0  0  0  0  0  0  0  0  0  0  0
    3.4505   -0.3167   -1.2585 H   0  0  0  0  0  0  0  0  0  0  0  0
    0.6638   -0.3558    0.9253 H   0  0  0  0  0  0  0  0  0  0  0  0
    0.4681    1.1593   -0.1086 H   0  0  0  0  0  0  0  0  0  0  0  0
   -1.0230   -0.3429   -1.6454 H   0  0  0  0  0  0  0  0  0  0  0  0
   -0.7296   -1.6485   -0.4530 H   0  0  0  0  0  0  0  0  0  0  0  0
   -2.9079   -0.6636   -0.1316 H   0  0  0  0  0  0  0  0  0  0  0  0
   -1.8713   -0.5113    1.3000 H   0  0  0  0  0  0  0  0  0  0  0  0
   -3.2103    1.3526    0.5500 H   0  0  0  0  0  0  0  0  0  0  0  0
  1  2  1  0
  2  3  1  0
  3  4  1  0
  4  5  1  0
  5  6  1  0
  1  7  1  0
  1  8  1  0
  1  9  1  0
  3 10  1  0
  3 11  1  0
  4 12  1  0
  4 13  1  0
  5 14  1  0
  5 15  1  0
  6 16  1  0
M  END
