
     RDKit          3D

 23 23  0  0  0  0  0  0  0  0999 V2000
    2.9492    0.6740   -0.3470 C   0  0  0  0  0  0  0  0  0  0  0  0
    1.5652    0.7762   -0.2848 O   0  0  0  0  0  0  0  0  0  0  0  0
    1.0221   -0.4537    0.0640 C   0  0  0  0  0  0  0  0  0  0  0  0
   -0.4672   -0.4399    0.1555 C   0  0  0  0  0  0  0  0  0  0  0  0
   -0.9003   -1.8579    0.5455 C   0  0  0  0  0  0  0  0  0  0  0  0
   -1.0587   -0.0342   -1.1573 C   0  0  0  0  0  0  0  0  0  0  0  0
   -1.7463    1.2444   -0.9276 C   0  0  0  0  0  0  0  0  0  0  0  0
   -1.7393    1.5848    0.3416 C   0  0  0  0  0  0  0  0  0  0  0  0
   -1.0213    0.5362    1.1322 C   0  0  0  0  0  0  0  0  0  0  0  0
    3.2800    0.3590    0.6850 H   0  0  0  0  0  0  0  0  0  0  0  0
    3.4415    1.6018   -0.6400 H   0  0  0  0  0  0  0  0  0  0  0  0
    3.2645   -0.1609   -1.0402 H   0  0  0  0  0  0  0  0  0  0  0  0
    1.2905   -1.2093   -0.7217 H   0  0  0  0  0  0  0  0  0  0  0  0
    1.5004   -0.8035    0.9981 H   0  0  0  0  0  0  0  0  0  0  0  0
   -0.5274   -2.5948   -0.1735 H   0  0  0  0  0  0  0  0  0  0  0  0
   -0.4099   -2.0599    1.5252 H   0  0  0  0  0  0  0  0  0  0  0  0
   -1.9965   -1.9057    0.7130 H   0  0  0  0  0  0  0  0  0  0  0  0
   -1.7745   -0.7751   -1.5388 H   0  0  0  0  0  0  0  0  0  0  0  0
   -0.2850    0.1121   -1.9385 H   0  0  0  0  0  0  0  0  0  0  0  0
   -2.2031    1.8275   -1.7330 H   0  0  0  0  0  0  0  0  0  0  0  0
   -2.1569    2.4586    0.8307 H   0  0  0  0  0  0  0  0  0  0  0  0
   -1.7722    0.0513    1.7825 H   0  0  0  0  0  0  0  0  0  0  0  0
   -0.2548    1.0691    1.7291 H   0  0  0  0  0  0  0  0  0  0  0  0
  1  2  1  0
  2  3  1  0
  3  4  1  0
  4  5  1  0
  4  6  1  0
  6  7  1  0
  7  8  2  0
  8  9  1  0
  9  4  1  0
  1 10  1  0
  1 11  1  0
  1 12  1  0
  3 13  1  0
  3 14  1  0
  5 15  1  0
  5 16  1  0
  5 17  1  0
  6 18  1  0
  6 19  1  0
  7 20  1  0
  8 21  1  0
  9 22  1  0
  9 23  1  0
M  END
