
     RDKit          3D

 23 23  0  0  0  0  0  0  0  0999 V2000
    3.2334   -0.6083   -0.1979 C   0  0  0  0  0  0  0  0  0  0  0  0
    1.9445   -0.7364    0.3177 O   0  0  0  0  0  0  0  0  0  0  0  0
    1.3123    0.4931    0.1464 C   0  0  0  0  0  0  0  0  0  0  0  0
   -0.1163    0.4495    0.6857 C   0  0  0  0  0  0  0  0  0  0  0  0
   -0.6550    1.7161    0.4678 O   0  0  0  0  0  0  0  0  0  0  0  0
   -1.2312    1.6444   -0.8053 C   0  0  0  0  0  0  0  0  0  0  0  0
   -2.0222    0.3502   -0.6784 C   0  0  0  0  0  0  0  0  0  0  0  0
   -0.9544   -0.5419   -0.0370 C   0  0  0  0  0  0  0  0  0  0  0  0
   -1.6700   -1.5137    0.8528 C   0  0  0  0  0  0  0  0  0  0  0  0
    3.7455    0.1959    0.3717 H   0  0  0  0  0  0  0  0  0  0  0  0
    3.8042   -1.5689   -0.1313 H   0  0  0  0  0  0  0  0  0  0  0  0
    3.2005   -0.2606   -1.2624 H   0  0  0  0  0  0  0  0  0  0  0  0
    1.2760    0.7202   -0.9249 H   0  0  0  0  0  0  0  0  0  0  0  0
    1.9186    1.2453    0.6866 H   0  0  0  0  0  0  0  0  0  0  0  0
   -0.0900    0.2737    1.7941 H   0  0  0  0  0  0  0  0  0  0  0  0
   -1.9327    2.4649   -0.9898 H   0  0  0  0  0  0  0  0  0  0  0  0
   -0.4888    1.4932   -1.5990 H   0  0  0  0  0  0  0  0  0  0  0  0
   -2.7974    0.5277    0.0810 H   0  0  0  0  0  0  0  0  0  0  0  0
   -2.3738   -0.0376   -1.6309 H   0  0  0  0  0  0  0  0  0  0  0  0
   -0.4479   -1.0864   -0.8396 H   0  0  0  0  0  0  0  0  0  0  0  0
   -1.0249   -2.3509    1.1260 H   0  0  0  0  0  0  0  0  0  0  0  0
   -2.5778   -1.8585    0.2863 H   0  0  0  0  0  0  0  0  0  0  0  0
   -2.0525   -1.0111    1.7616 H   0  0  0  0  0  0  0  0  0  0  0  0
  1  2  1  0
  2  3  1  0
  3  4  1  0
  4  5  1  0
  5  6  1  0
  6  7  1  0
  7  8  1  0
  8  9  1  0
  8  4  1  0
  1 10  1  0
  1 11  1  0
  1 12  1  0
  3 13  1  0
  3 14  1  0
  4 15  1  0
  6 16  1  0
  6 17  1  0
  7 18  1  0
  7 19  1  0
  8 20  1  0
  9 21  1  0
  9 22  1  0
  9 23  1  0
M  END
