
     RDKit          3D

 19 19  0  0  0  0  0  0  0  0999 V2000
    2.5709   -0.5840   -0.9420 C   0  0  0  0  0  0  0  0  0  0  0  0
    1.1918   -0.5108   -0.7817 O   0  0  0  0  0  0  0  0  0  0  0  0
    0.9304    0.0890    0.4208 C   0  0  0  0  0  0  0  0  0  0  0  0
   -0.5418    0.2290    0.7156 C   0  0  0  0  0  0  0  0  0  0  0  0
   -0.8209    0.8368    1.9342 O   0  0  0  0  0  0  0  0  0  0  0  0
   -1.3222    0.9429   -0.3930 C   0  0  0  0  0  0  0  0  0  0  0  0
   -2.4373   -0.0543   -0.0470 C   0  0  0  0  0  0  0  0  0  0  0  0
   -1.3644   -0.9733    0.4166 C   0  0  0  0  0  0  0  0  0  0  0  0
   -1.2172   -2.1746    0.5121 O   0  0  0  0  0  0  0  0  0  0  0  0
    2.9975    0.4560   -0.9245 H   0  0  0  0  0  0  0  0  0  0  0  0
    2.8671   -1.0715   -1.8986 H   0  0  0  0  0  0  0  0  0  0  0  0
    3.0744   -1.1279   -0.1275 H   0  0  0  0  0  0  0  0  0  0  0  0
    1.3710   -0.5082    1.2357 H   0  0  0  0  0  0  0  0  0  0  0  0
    1.3732    1.1047    0.4456 H   0  0  0  0  0  0  0  0  0  0  0  0
   -0.1186    0.6735    2.6076 H   0  0  0  0  0  0  0  0  0  0  0  0
   -0.9238    0.7634   -1.4116 H   0  0  0  0  0  0  0  0  0  0  0  0
   -1.5758    1.9960   -0.1526 H   0  0  0  0  0  0  0  0  0  0  0  0
   -3.0280   -0.3802   -0.9023 H   0  0  0  0  0  0  0  0  0  0  0  0
   -3.0263    0.2935    0.8440 H   0  0  0  0  0  0  0  0  0  0  0  0
  1  2  1  0
  2  3  1  0
  3  4  1  0
  4  5  1  0
  4  6  1  0
  6  7  1  0
  7  8  1  0
  8  9  2  0
  8  4  1  0
  1 10  1  0
  1 11  1  0
  1 12  1  0
  3 13  1  0
  3 14  1  0
  5 15  1  0
  6 16  1  0
  6 17  1  0
  7 18  1  0
  7 19  1  0
M  END
