
     RDKit          3D

 21 21  0  0  0  0  0  0  0  0999 V2000
    2.8426    0.3728   -0.6036 C   0  0  0  0  0  0  0  0  0  0  0  0
    1.4668    0.5009   -0.6770 O   0  0  0  0  0  0  0  0  0  0  0  0
    0.8904   -0.3142    0.2848 C   0  0  0  0  0  0  0  0  0  0  0  0
   -0.6159   -0.2386    0.2784 C   0  0  0  0  0  0  0  0  0  0  0  0
   -1.1973   -1.1440    1.3439 C   0  0  0  0  0  0  0  0  0  0  0  0
   -1.1549    1.1616    0.3519 C   0  0  0  0  0  0  0  0  0  0  0  0
   -1.6872    1.0778   -1.0418 C   0  0  0  0  0  0  0  0  0  0  0  0
   -2.2153    1.8140   -1.8238 O   0  0  0  0  0  0  0  0  0  0  0  0
   -1.2725   -0.3588   -1.0568 C   0  0  0  0  0  0  0  0  0  0  0  0
    3.3730    0.9970   -1.3450 H   0  0  0  0  0  0  0  0  0  0  0  0
    3.0722   -0.7005   -0.8514 H   0  0  0  0  0  0  0  0  0  0  0  0
    3.2644    0.5887    0.3812 H   0  0  0  0  0  0  0  0  0  0  0  0
    1.2063   -1.3651    0.1295 H   0  0  0  0  0  0  0  0  0  0  0  0
    1.2297   -0.0343    1.3029 H   0  0  0  0  0  0  0  0  0  0  0  0
   -0.4654   -1.2887    2.1743 H   0  0  0  0  0  0  0  0  0  0  0  0
   -2.1090   -0.7073    1.8139 H   0  0  0  0  0  0  0  0  0  0  0  0
   -1.4716   -2.1107    0.8584 H   0  0  0  0  0  0  0  0  0  0  0  0
   -1.9578    1.3360    1.0986 H   0  0  0  0  0  0  0  0  0  0  0  0
   -0.3901    1.9738    0.3911 H   0  0  0  0  0  0  0  0  0  0  0  0
   -0.6151   -0.5732   -1.9157 H   0  0  0  0  0  0  0  0  0  0  0  0
   -2.1931   -0.9873   -1.0936 H   0  0  0  0  0  0  0  0  0  0  0  0
  1  2  1  0
  2  3  1  0
  3  4  1  0
  4  5  1  0
  4  6  1  0
  6  7  1  0
  7  8  2  0
  7  9  1  0
  9  4  1  0
  1 10  1  0
  1 11  1  0
  1 12  1  0
  3 13  1  0
  3 14  1  0
  5 15  1  0
  5 16  1  0
  5 17  1  0
  6 18  1  0
  6 19  1  0
  9 20  1  0
  9 21  1  0
M  END
