
     RDKit          3D

 19 20  0  0  0  0  0  0  0  0999 V2000
    2.6892    0.3011   -0.1593 C   0  0  0  0  0  0  0  0  0  0  0  0
    1.8829   -0.7892   -0.4147 O   0  0  0  0  0  0  0  0  0  0  0  0
    0.8115   -0.9598    0.4255 C   0  0  0  0  0  0  0  0  0  0  0  0
   -0.1466    0.1729    0.3920 C   0  0  0  0  0  0  0  0  0  0  0  0
   -1.3508    0.0506    1.2876 C   0  0  0  0  0  0  0  0  0  0  0  0
   -1.9931    1.0457    0.3577 C   0  0  0  0  0  0  0  0  0  0  0  0
   -1.3100    0.0522   -0.5478 C   0  0  0  0  0  0  0  0  0  0  0  0
   -1.8134   -0.9651    0.3498 C   0  0  0  0  0  0  0  0  0  0  0  0
   -2.3224   -2.0347    0.3634 O   0  0  0  0  0  0  0  0  0  0  0  0
    2.1977    1.2764   -0.2240 H   0  0  0  0  0  0  0  0  0  0  0  0
    3.2491    0.1863    0.8152 H   0  0  0  0  0  0  0  0  0  0  0  0
    3.5150    0.3004   -0.9292 H   0  0  0  0  0  0  0  0  0  0  0  0
    0.3366   -1.9511    0.2316 H   0  0  0  0  0  0  0  0  0  0  0  0
    1.2276   -1.0198    1.4731 H   0  0  0  0  0  0  0  0  0  0  0  0
    0.3285    1.1487    0.3915 H   0  0  0  0  0  0  0  0  0  0  0  0
   -1.3671    0.0582    2.2852 H   0  0  0  0  0  0  0  0  0  0  0  0
   -1.5453    2.0320    0.4439 H   0  0  0  0  0  0  0  0  0  0  0  0
   -3.1004    1.0177    0.3104 H   0  0  0  0  0  0  0  0  0  0  0  0
   -1.2888    0.0775   -1.5488 H   0  0  0  0  0  0  0  0  0  0  0  0
  1  2  1  0
  2  3  1  0
  3  4  1  0
  4  5  1  0
  5  6  1  0
  6  7  1  0
  7  8  1  0
  8  9  2  0
  7  4  1  0
  8  5  1  0
  1 10  1  0
  1 11  1  0
  1 12  1  0
  3 13  1  0
  3 14  1  0
  4 15  1  0
  5 16  1  0
  6 17  1  0
  6 18  1  0
  7 19  1  0
M  END
