
     RDKit          3D

 25 24  0  0  0  0  0  0  0  0999 V2000
    3.2186   -0.0911    0.3679 C   0  0  0  0  0  0  0  0  0  0  0  0
    2.4295    1.0073    0.5323 O   0  0  0  0  0  0  0  0  0  0  0  0
    1.0993    0.8188    0.8065 C   0  0  0  0  0  0  0  0  0  0  0  0
    0.4188    0.0726   -0.2772 C   0  0  0  0  0  0  0  0  0  0  0  0
    0.8779   -1.2021   -0.5150 O   0  0  0  0  0  0  0  0  0  0  0  0
   -1.0788   -0.0175   -0.1176 C   0  0  0  0  0  0  0  0  0  0  0  0
   -1.4849   -0.7081    1.1555 C   0  0  0  0  0  0  0  0  0  0  0  0
   -1.6047   -0.8352   -1.2806 C   0  0  0  0  0  0  0  0  0  0  0  0
   -1.7436    1.3461   -0.2108 C   0  0  0  0  0  0  0  0  0  0  0  0
    4.2735    0.3120    0.1915 H   0  0  0  0  0  0  0  0  0  0  0  0
    3.2608   -0.7539    1.2399 H   0  0  0  0  0  0  0  0  0  0  0  0
    3.0508   -0.6610   -0.5883 H   0  0  0  0  0  0  0  0  0  0  0  0
    0.6473    1.8593    0.8249 H   0  0  0  0  0  0  0  0  0  0  0  0
    0.9296    0.3857    1.8220 H   0  0  0  0  0  0  0  0  0  0  0  0
    0.5658    0.6785   -1.2239 H   0  0  0  0  0  0  0  0  0  0  0  0
    0.8505   -1.4415   -1.4584 H   0  0  0  0  0  0  0  0  0  0  0  0
   -1.0350   -1.7199    1.1725 H   0  0  0  0  0  0  0  0  0  0  0  0
   -1.1598   -0.1916    2.0667 H   0  0  0  0  0  0  0  0  0  0  0  0
   -2.5833   -0.8599    1.1099 H   0  0  0  0  0  0  0  0  0  0  0  0
   -1.2185   -1.8659   -1.2925 H   0  0  0  0  0  0  0  0  0  0  0  0
   -1.2481   -0.3183   -2.2087 H   0  0  0  0  0  0  0  0  0  0  0  0
   -2.7071   -0.7662   -1.2588 H   0  0  0  0  0  0  0  0  0  0  0  0
   -2.8402    1.1688   -0.3532 H   0  0  0  0  0  0  0  0  0  0  0  0
   -1.5218    1.9767    0.6651 H   0  0  0  0  0  0  0  0  0  0  0  0
   -1.3965    1.8064   -1.1698 H   0  0  0  0  0  0  0  0  0  0  0  0
  1  2  1  0
  2  3  1  0
  3  4  1  0
  4  5  1  0
  4  6  1  0
  6  7  1  0
  6  8  1  0
  6  9  1  0
  1 10  1  0
  1 11  1  0
  1 12  1  0
  3 13  1  0
  3 14  1  0
  4 15  1  0
  5 16  1  0
  7 17  1  0
  7 18  1  0
  7 19  1  0
  8 20  1  0
  8 21  1  0
  8 22  1  0
  9 23  1  0
  9 24  1  0
  9 25  1  0
M  END
