
     RDKit          3D

 16 15  0  0  0  0  0  0  0  0999 V2000
   -2.2483    0.2617    1.1358 C   0  0  0  0  0  0  0  0  0  0  0  0
   -2.4049    0.8058   -0.1212 O   0  0  0  0  0  0  0  0  0  0  0  0
   -1.8354    0.0677   -1.1255 C   0  0  0  0  0  0  0  0  0  0  0  0
   -0.3920   -0.0270   -0.8400 C   0  0  0  0  0  0  0  0  0  0  0  0
    0.7909   -0.1240   -0.6088 C   0  0  0  0  0  0  0  0  0  0  0  0
    2.1913   -0.2247   -0.3331 C   0  0  0  0  0  0  0  0  0  0  0  0
    2.8881    0.9630    0.2170 C   0  0  0  0  0  0  0  0  0  0  0  0
    2.8763   -1.2563   -0.5259 O   0  0  0  0  0  0  0  0  0  0  0  0
   -2.7464    0.9401    1.8660 H   0  0  0  0  0  0  0  0  0  0  0  0
   -2.7520   -0.7211    1.2483 H   0  0  0  0  0  0  0  0  0  0  0  0
   -1.2003    0.1147    1.4419 H   0  0  0  0  0  0  0  0  0  0  0  0
   -2.0296    0.5910   -2.0865 H   0  0  0  0  0  0  0  0  0  0  0  0
   -2.2933   -0.9517   -1.2320 H   0  0  0  0  0  0  0  0  0  0  0  0
    3.9966    0.8555    0.1659 H   0  0  0  0  0  0  0  0  0  0  0  0
    2.6154    1.8186   -0.4572 H   0  0  0  0  0  0  0  0  0  0  0  0
    2.5436    1.1800    1.2553 H   0  0  0  0  0  0  0  0  0  0  0  0
  1  2  1  0
  2  3  1  0
  3  4  1  0
  4  5  3  0
  5  6  1  0
  6  7  1  0
  6  8  2  0
  1  9  1  0
  1 10  1  0
  1 11  1  0
  3 12  1  0
  3 13  1  0
  7 14  1  0
  7 15  1  0
  7 16  1  0
M  END
