
     RDKit          3D

 19 19  0  0  0  0  0  0  0  0999 V2000
    2.7664    0.5151    0.2757 C   0  0  0  0  0  0  0  0  0  0  0  0
    2.2452   -0.7652    0.2782 O   0  0  0  0  0  0  0  0  0  0  0  0
    1.0055   -0.8003   -0.3212 C   0  0  0  0  0  0  0  0  0  0  0  0
    0.0210    0.0718    0.3899 C   0  0  0  0  0  0  0  0  0  0  0  0
   -1.3304   -0.0097   -0.2913 C   0  0  0  0  0  0  0  0  0  0  0  0
   -1.9423   -1.3527   -0.3440 C   0  0  0  0  0  0  0  0  0  0  0  0
   -3.0263   -1.5649   -0.8618 O   0  0  0  0  0  0  0  0  0  0  0  0
   -2.2422    1.1657    0.0753 C   0  0  0  0  0  0  0  0  0  0  0  0
   -1.7045    0.9664   -1.1931 O   0  0  0  0  0  0  0  0  0  0  0  0
    2.8347    0.8473   -0.7977 H   0  0  0  0  0  0  0  0  0  0  0  0
    2.2444    1.2195    0.9231 H   0  0  0  0  0  0  0  0  0  0  0  0
    3.8143    0.4068    0.6861 H   0  0  0  0  0  0  0  0  0  0  0  0
    1.0550   -0.4424   -1.3838 H   0  0  0  0  0  0  0  0  0  0  0  0
    0.6067   -1.8438   -0.2940 H   0  0  0  0  0  0  0  0  0  0  0  0
   -0.1344   -0.2331    1.4452 H   0  0  0  0  0  0  0  0  0  0  0  0
    0.3375    1.1383    0.3981 H   0  0  0  0  0  0  0  0  0  0  0  0
   -1.4114   -2.1852    0.0930 H   0  0  0  0  0  0  0  0  0  0  0  0
   -3.3018    0.8690    0.2695 H   0  0  0  0  0  0  0  0  0  0  0  0
   -1.8375    1.9973    0.6527 H   0  0  0  0  0  0  0  0  0  0  0  0
  1  2  1  0
  2  3  1  0
  3  4  1  0
  4  5  1  0
  5  6  1  0
  6  7  2  0
  5  8  1  0
  8  9  1  0
  9  5  1  0
  1 10  1  0
  1 11  1  0
  1 12  1  0
  3 13  1  0
  3 14  1  0
  4 15  1  0
  4 16  1  0
  6 17  1  0
  8 18  1  0
  8 19  1  0
M  END
