
     RDKit          3D

 19 20  0  0  0  0  0  0  0  0999 V2000
    2.7733   -0.2088    0.9804 C   0  0  0  0  0  0  0  0  0  0  0  0
    1.3997   -0.5012    0.8148 O   0  0  0  0  0  0  0  0  0  0  0  0
    0.9217    0.3532   -0.1356 C   0  0  0  0  0  0  0  0  0  0  0  0
   -0.5049    0.2319   -0.4781 C   0  0  0  0  0  0  0  0  0  0  0  0
   -0.8957    1.1333   -1.4445 O   0  0  0  0  0  0  0  0  0  0  0  0
   -1.1229   -1.1076   -0.5730 C   0  0  0  0  0  0  0  0  0  0  0  0
   -2.4535   -0.4322   -0.3643 C   0  0  0  0  0  0  0  0  0  0  0  0
   -1.4904    0.1086    0.6391 C   0  0  0  0  0  0  0  0  0  0  0  0
   -1.0373   -1.1918    0.8063 O   0  0  0  0  0  0  0  0  0  0  0  0
    3.2480   -0.3729   -0.0002 H   0  0  0  0  0  0  0  0  0  0  0  0
    2.8620    0.8791    1.2273 H   0  0  0  0  0  0  0  0  0  0  0  0
    3.2197   -0.7680    1.8049 H   0  0  0  0  0  0  0  0  0  0  0  0
    1.5276    0.2091   -1.0622 H   0  0  0  0  0  0  0  0  0  0  0  0
    1.1260    1.3989    0.2008 H   0  0  0  0  0  0  0  0  0  0  0  0
   -0.9775    2.0499   -1.0591 H   0  0  0  0  0  0  0  0  0  0  0  0
   -0.9353   -1.8461   -1.2360 H   0  0  0  0  0  0  0  0  0  0  0  0
   -2.7134    0.3353   -1.1286 H   0  0  0  0  0  0  0  0  0  0  0  0
   -3.2724   -1.0520   -0.0089 H   0  0  0  0  0  0  0  0  0  0  0  0
   -1.6745    0.7814    1.3672 H   0  0  0  0  0  0  0  0  0  0  0  0
  1  2  1  0
  2  3  1  0
  3  4  1  0
  4  5  1  0
  4  6  1  0
  6  7  1  0
  7  8  1  0
  8  9  1  0
  8  4  1  0
  9  6  1  0
  1 10  1  0
  1 11  1  0
  1 12  1  0
  3 13  1  0
  3 14  1  0
  5 15  1  0
  6 16  1  0
  7 17  1  0
  7 18  1  0
  8 19  1  0
M  END
