
     RDKit          3D

 19 19  0  0  0  0  0  0  0  0999 V2000
   -2.2995    0.9627    0.8369 C   0  0  0  0  0  0  0  0  0  0  0  0
   -1.2369    0.2730    0.3262 O   0  0  0  0  0  0  0  0  0  0  0  0
   -1.1244    0.3273   -1.0335 C   0  0  0  0  0  0  0  0  0  0  0  0
    0.0471   -0.4398   -1.5241 C   0  0  0  0  0  0  0  0  0  0  0  0
    0.2234   -0.4555   -2.7300 O   0  0  0  0  0  0  0  0  0  0  0  0
    0.9210   -1.1279   -0.5781 C   0  0  0  0  0  0  0  0  0  0  0  0
    2.2556   -0.5635   -0.2952 C   0  0  0  0  0  0  0  0  0  0  0  0
    1.5767   -0.0724    0.9322 C   0  0  0  0  0  0  0  0  0  0  0  0
    0.5311   -0.9510    0.7453 O   0  0  0  0  0  0  0  0  0  0  0  0
   -2.2710    0.8339    1.9577 H   0  0  0  0  0  0  0  0  0  0  0  0
   -2.2557    2.0551    0.6668 H   0  0  0  0  0  0  0  0  0  0  0  0
   -3.2803    0.6179    0.4879 H   0  0  0  0  0  0  0  0  0  0  0  0
   -1.0766    1.4004   -1.3810 H   0  0  0  0  0  0  0  0  0  0  0  0
   -2.0290   -0.1721   -1.4689 H   0  0  0  0  0  0  0  0  0  0  0  0
    0.9019   -2.2373   -0.7757 H   0  0  0  0  0  0  0  0  0  0  0  0
    2.9873   -1.3743   -0.0537 H   0  0  0  0  0  0  0  0  0  0  0  0
    2.6467    0.2217   -0.9702 H   0  0  0  0  0  0  0  0  0  0  0  0
    1.3250    1.0061    0.9648 H   0  0  0  0  0  0  0  0  0  0  0  0
    2.1578   -0.3042    1.8598 H   0  0  0  0  0  0  0  0  0  0  0  0
  1  2  1  0
  2  3  1  0
  3  4  1  0
  4  5  2  0
  4  6  1  0
  6  7  1  0
  7  8  1  0
  8  9  1  0
  9  6  1  0
  1 10  1  0
  1 11  1  0
  1 12  1  0
  3 13  1  0
  3 14  1  0
  6 15  1  0
  7 16  1  0
  7 17  1  0
  8 18  1  0
  8 19  1  0
M  END
