
     RDKit          3D

 23 23  0  0  0  0  0  0  0  0999 V2000
    3.8012   -0.1804   -0.4347 C   0  0  0  0  0  0  0  0  0  0  0  0
    2.4973   -0.6051   -0.5228 O   0  0  0  0  0  0  0  0  0  0  0  0
    1.6403    0.1128    0.3107 C   0  0  0  0  0  0  0  0  0  0  0  0
    0.2228   -0.4018    0.1677 C   0  0  0  0  0  0  0  0  0  0  0  0
   -0.6943    0.3662    1.0594 C   0  0  0  0  0  0  0  0  0  0  0  0
   -2.1541    0.0030    1.0612 C   0  0  0  0  0  0  0  0  0  0  0  0
   -2.5403   -1.0750    0.0985 C   0  0  0  0  0  0  0  0  0  0  0  0
   -1.6771    1.3424    0.5421 C   0  0  0  0  0  0  0  0  0  0  0  0
   -1.8866    1.5308   -0.8065 O   0  0  0  0  0  0  0  0  0  0  0  0
    3.8917    0.8978   -0.7221 H   0  0  0  0  0  0  0  0  0  0  0  0
    4.4253   -0.7374   -1.1471 H   0  0  0  0  0  0  0  0  0  0  0  0
    4.1404   -0.3523    0.6218 H   0  0  0  0  0  0  0  0  0  0  0  0
    1.9534    0.1249    1.3518 H   0  0  0  0  0  0  0  0  0  0  0  0
    1.6333    1.1558   -0.0772 H   0  0  0  0  0  0  0  0  0  0  0  0
   -0.0624   -0.3686   -0.9013 H   0  0  0  0  0  0  0  0  0  0  0  0
    0.2629   -1.4830    0.4856 H   0  0  0  0  0  0  0  0  0  0  0  0
   -0.2876    0.5599    2.0781 H   0  0  0  0  0  0  0  0  0  0  0  0
   -2.7396    0.0373    1.9993 H   0  0  0  0  0  0  0  0  0  0  0  0
   -3.6151   -1.2845    0.0960 H   0  0  0  0  0  0  0  0  0  0  0  0
   -2.0422   -2.0223    0.4573 H   0  0  0  0  0  0  0  0  0  0  0  0
   -2.1692   -0.9117   -0.9267 H   0  0  0  0  0  0  0  0  0  0  0  0
   -1.8959    2.2415    1.1792 H   0  0  0  0  0  0  0  0  0  0  0  0
   -2.7042    1.0500   -1.1036 H   0  0  0  0  0  0  0  0  0  0  0  0
  1  2  1  0
  2  3  1  0
  3  4  1  0
  4  5  1  0
  5  6  1  0
  6  7  1  0
  6  8  1  0
  8  9  1  0
  8  5  1  0
  1 10  1  0
  1 11  1  0
  1 12  1  0
  3 13  1  0
  3 14  1  0
  4 15  1  0
  4 16  1  0
  5 17  1  0
  6 18  1  0
  7 19  1  0
  7 20  1  0
  7 21  1  0
  8 22  1  0
  9 23  1  0
M  END
