
     RDKit          3D

 23 23  0  0  0  0  0  0  0  0999 V2000
    3.0169    0.3399   -0.9639 C   0  0  0  0  0  0  0  0  0  0  0  0
    2.5482   -0.0010    0.2751 O   0  0  0  0  0  0  0  0  0  0  0  0
    1.3664   -0.6924    0.2759 C   0  0  0  0  0  0  0  0  0  0  0  0
    0.2134    0.0476   -0.3544 C   0  0  0  0  0  0  0  0  0  0  0  0
   -1.0836   -0.7357   -0.3424 C   0  0  0  0  0  0  0  0  0  0  0  0
   -1.1790   -2.0036    0.4546 C   0  0  0  0  0  0  0  0  0  0  0  0
   -0.8936    0.5259    0.5037 C   0  0  0  0  0  0  0  0  0  0  0  0
   -1.7286    1.7082    0.1185 C   0  0  0  0  0  0  0  0  0  0  0  0
   -2.7122    2.0002    1.0475 O   0  0  0  0  0  0  0  0  0  0  0  0
    3.9856    0.8973   -0.8027 H   0  0  0  0  0  0  0  0  0  0  0  0
    2.3575    1.0615   -1.5028 H   0  0  0  0  0  0  0  0  0  0  0  0
    3.2885   -0.5311   -1.5988 H   0  0  0  0  0  0  0  0  0  0  0  0
    1.4272   -1.6795   -0.2321 H   0  0  0  0  0  0  0  0  0  0  0  0
    1.0726   -0.9104    1.3234 H   0  0  0  0  0  0  0  0  0  0  0  0
    0.3918    0.5441   -1.3460 H   0  0  0  0  0  0  0  0  0  0  0  0
   -1.7704   -0.6738   -1.2070 H   0  0  0  0  0  0  0  0  0  0  0  0
   -0.2410   -2.5572    0.5473 H   0  0  0  0  0  0  0  0  0  0  0  0
   -1.6295   -1.7443    1.4537 H   0  0  0  0  0  0  0  0  0  0  0  0
   -1.9134   -2.7182   -0.0153 H   0  0  0  0  0  0  0  0  0  0  0  0
   -0.7236    0.3891    1.5931 H   0  0  0  0  0  0  0  0  0  0  0  0
   -1.0974    2.6102   -0.1149 H   0  0  0  0  0  0  0  0  0  0  0  0
   -2.2442    1.4742   -0.8348 H   0  0  0  0  0  0  0  0  0  0  0  0
   -2.4519    2.6491    1.7224 H   0  0  0  0  0  0  0  0  0  0  0  0
  1  2  1  0
  2  3  1  0
  3  4  1  0
  4  5  1  0
  5  6  1  0
  5  7  1  0
  7  8  1  0
  8  9  1  0
  7  4  1  0
  1 10  1  0
  1 11  1  0
  1 12  1  0
  3 13  1  0
  3 14  1  0
  4 15  1  0
  5 16  1  0
  6 17  1  0
  6 18  1  0
  6 19  1  0
  7 20  1  0
  8 21  1  0
  8 22  1  0
  9 23  1  0
M  END
