
     RDKit          3D

 21 22  0  0  0  0  0  0  0  0999 V2000
    3.0993    0.0992    0.8336 C   0  0  0  0  0  0  0  0  0  0  0  0
    1.7143    0.2466    0.8272 O   0  0  0  0  0  0  0  0  0  0  0  0
    1.2168    0.0254   -0.4689 C   0  0  0  0  0  0  0  0  0  0  0  0
   -0.2793    0.1754   -0.5185 C   0  0  0  0  0  0  0  0  0  0  0  0
   -0.9354   -0.6404   -1.6410 C   0  0  0  0  0  0  0  0  0  0  0  0
   -1.2055   -0.9126   -0.2147 C   0  0  0  0  0  0  0  0  0  0  0  0
   -2.3820   -0.1735    0.4405 C   0  0  0  0  0  0  0  0  0  0  0  0
   -1.6595    1.0725    0.9282 C   0  0  0  0  0  0  0  0  0  0  0  0
   -0.8557    1.3759   -0.1700 O   0  0  0  0  0  0  0  0  0  0  0  0
    3.5595    0.8273    0.1426 H   0  0  0  0  0  0  0  0  0  0  0  0
    3.5242    0.1723    1.8328 H   0  0  0  0  0  0  0  0  0  0  0  0
    3.3264   -0.9120    0.3834 H   0  0  0  0  0  0  0  0  0  0  0  0
    1.5682   -0.9434   -0.8458 H   0  0  0  0  0  0  0  0  0  0  0  0
    1.6503    0.8351   -1.1136 H   0  0  0  0  0  0  0  0  0  0  0  0
   -0.3297   -1.3624   -2.1862 H   0  0  0  0  0  0  0  0  0  0  0  0
   -1.7810   -0.1495   -2.1902 H   0  0  0  0  0  0  0  0  0  0  0  0
   -0.9335   -1.8699    0.2245 H   0  0  0  0  0  0  0  0  0  0  0  0
   -3.0593    0.1031   -0.3838 H   0  0  0  0  0  0  0  0  0  0  0  0
   -2.8300   -0.7568    1.2405 H   0  0  0  0  0  0  0  0  0  0  0  0
   -1.0589    0.8600    1.8201 H   0  0  0  0  0  0  0  0  0  0  0  0
   -2.3490    1.9277    1.0592 H   0  0  0  0  0  0  0  0  0  0  0  0
  1  2  1  0
  2  3  1  0
  3  4  1  0
  4  5  1  0
  5  6  1  0
  6  7  1  0
  7  8  1  0
  8  9  1  0
  6  4  1  0
  9  4  1  0
  1 10  1  0
  1 11  1  0
  1 12  1  0
  3 13  1  0
  3 14  1  0
  5 15  1  0
  5 16  1  0
  6 17  1  0
  7 18  1  0
  7 19  1  0
  8 20  1  0
  8 21  1  0
M  END
