
     RDKit          3D

 22 21  0  0  0  0  0  0  0  0999 V2000
   -3.2802   -0.2026    0.0321 C   0  0  0  0  0  0  0  0  0  0  0  0
   -2.1044    0.5667    0.1827 O   0  0  0  0  0  0  0  0  0  0  0  0
   -1.0530   -0.2546   -0.1540 C   0  0  0  0  0  0  0  0  0  0  0  0
    0.2900    0.3966   -0.0531 C   0  0  0  0  0  0  0  0  0  0  0  0
    0.4405    1.5969   -0.9432 C   0  0  0  0  0  0  0  0  0  0  0  0
    1.3080   -0.6767   -0.4288 C   0  0  0  0  0  0  0  0  0  0  0  0
    2.7146   -0.1709   -0.3740 C   0  0  0  0  0  0  0  0  0  0  0  0
    1.1118   -1.7789    0.4126 O   0  0  0  0  0  0  0  0  0  0  0  0
   -3.3606   -0.5466   -1.0384 H   0  0  0  0  0  0  0  0  0  0  0  0
   -4.1830    0.3573    0.2572 H   0  0  0  0  0  0  0  0  0  0  0  0
   -3.2456   -1.1088    0.6658 H   0  0  0  0  0  0  0  0  0  0  0  0
   -1.1860   -0.5769   -1.2129 H   0  0  0  0  0  0  0  0  0  0  0  0
   -1.0348   -1.1630    0.4812 H   0  0  0  0  0  0  0  0  0  0  0  0
    0.5472    0.7141    0.9760 H   0  0  0  0  0  0  0  0  0  0  0  0
    0.0006    1.3540   -1.9270 H   0  0  0  0  0  0  0  0  0  0  0  0
    1.5074    1.8745   -0.9935 H   0  0  0  0  0  0  0  0  0  0  0  0
   -0.1345    2.4310   -0.4720 H   0  0  0  0  0  0  0  0  0  0  0  0
    1.0488   -0.9954   -1.4536 H   0  0  0  0  0  0  0  0  0  0  0  0
    3.3823   -1.0767   -0.3604 H   0  0  0  0  0  0  0  0  0  0  0  0
    2.9199    0.3968    0.5489 H   0  0  0  0  0  0  0  0  0  0  0  0
    2.9644    0.3748   -1.2927 H   0  0  0  0  0  0  0  0  0  0  0  0
    1.3468   -1.5116    1.3412 H   0  0  0  0  0  0  0  0  0  0  0  0
  1  2  1  0
  2  3  1  0
  3  4  1  0
  4  5  1  0
  4  6  1  0
  6  7  1  0
  6  8  1  0
  1  9  1  0
  1 10  1  0
  1 11  1  0
  3 12  1  0
  3 13  1  0
  4 14  1  0
  5 15  1  0
  5 16  1  0
  5 17  1  0
  6 18  1  0
  7 19  1  0
  7 20  1  0
  7 21  1  0
  8 22  1  0
M  END
