
     RDKit          3D

 17 16  0  0  0  0  0  0  0  0999 V2000
   -2.1951    0.5212    0.1269 C   0  0  0  0  0  0  0  0  0  0  0  0
   -1.6811   -0.5716   -0.5182 O   0  0  0  0  0  0  0  0  0  0  0  0
   -0.7936   -1.3320    0.1898 C   0  0  0  0  0  0  0  0  0  0  0  0
    0.3936   -0.5045    0.5863 C   0  0  0  0  0  0  0  0  0  0  0  0
    1.0813    0.0319   -0.6122 C   0  0  0  0  0  0  0  0  0  0  0  0
    2.2892    0.8839   -0.4598 C   0  0  0  0  0  0  0  0  0  0  0  0
    0.6904   -0.2007   -1.7439 O   0  0  0  0  0  0  0  0  0  0  0  0
   -2.9001    1.0141   -0.6080 H   0  0  0  0  0  0  0  0  0  0  0  0
   -2.7323    0.2853    1.0730 H   0  0  0  0  0  0  0  0  0  0  0  0
   -1.4299    1.3308    0.3183 H   0  0  0  0  0  0  0  0  0  0  0  0
   -0.4040   -2.1171   -0.5236 H   0  0  0  0  0  0  0  0  0  0  0  0
   -1.2235   -1.8902    1.0301 H   0  0  0  0  0  0  0  0  0  0  0  0
    1.1462   -1.0993    1.1421 H   0  0  0  0  0  0  0  0  0  0  0  0
    0.0700    0.3229    1.2506 H   0  0  0  0  0  0  0  0  0  0  0  0
    2.9142    0.4793    0.3773 H   0  0  0  0  0  0  0  0  0  0  0  0
    2.8610    0.9304   -1.4115 H   0  0  0  0  0  0  0  0  0  0  0  0
    1.9137    1.9158   -0.2173 H   0  0  0  0  0  0  0  0  0  0  0  0
  1  2  1  0
  2  3  1  0
  3  4  1  0
  4  5  1  0
  5  6  1  0
  5  7  2  0
  1  8  1  0
  1  9  1  0
  1 10  1  0
  3 11  1  0
  3 12  1  0
  4 13  1  0
  4 14  1  0
  6 15  1  0
  6 16  1  0
  6 17  1  0
M  END
