
     RDKit          3D

 23 22  0  0  0  0  0  0  0  0999 V2000
   -2.4637    0.4684    0.8945 C   0  0  0  0  0  0  0  0  0  0  0  0
   -1.9819    0.8268   -0.3726 O   0  0  0  0  0  0  0  0  0  0  0  0
   -1.7559   -0.2706   -1.1482 C   0  0  0  0  0  0  0  0  0  0  0  0
   -0.7562   -1.2596   -0.6883 C   0  0  0  0  0  0  0  0  0  0  0  0
    0.6586   -0.8502   -0.5667 C   0  0  0  0  0  0  0  0  0  0  0  0
    1.0290    0.2558    0.3359 C   0  0  0  0  0  0  0  0  0  0  0  0
    0.4283    1.4423   -0.0464 O   0  0  0  0  0  0  0  0  0  0  0  0
    2.5402    0.5404    0.2566 C   0  0  0  0  0  0  0  0  0  0  0  0
    3.2804   -0.5671    0.6146 O   0  0  0  0  0  0  0  0  0  0  0  0
   -3.4089   -0.0831    0.8128 H   0  0  0  0  0  0  0  0  0  0  0  0
   -2.6700    1.3866    1.4789 H   0  0  0  0  0  0  0  0  0  0  0  0
   -1.7182   -0.1102    1.4429 H   0  0  0  0  0  0  0  0  0  0  0  0
   -2.7568   -0.7501   -1.3544 H   0  0  0  0  0  0  0  0  0  0  0  0
   -1.4486    0.1017   -2.1680 H   0  0  0  0  0  0  0  0  0  0  0  0
   -0.7642   -2.0883   -1.4764 H   0  0  0  0  0  0  0  0  0  0  0  0
   -1.0987   -1.8219    0.2273 H   0  0  0  0  0  0  0  0  0  0  0  0
    1.3061   -1.7471   -0.2740 H   0  0  0  0  0  0  0  0  0  0  0  0
    1.0087   -0.6122   -1.6264 H   0  0  0  0  0  0  0  0  0  0  0  0
    0.7706    0.0490    1.4050 H   0  0  0  0  0  0  0  0  0  0  0  0
    0.7973    2.1882    0.4937 H   0  0  0  0  0  0  0  0  0  0  0  0
    2.7496    0.9145   -0.7622 H   0  0  0  0  0  0  0  0  0  0  0  0
    2.7232    1.3963    0.9559 H   0  0  0  0  0  0  0  0  0  0  0  0
    3.5313   -0.5232    1.5653 H   0  0  0  0  0  0  0  0  0  0  0  0
  1  2  1  0
  2  3  1  0
  3  4  1  0
  4  5  1  0
  5  6  1  0
  6  7  1  0
  6  8  1  0
  8  9  1  0
  1 10  1  0
  1 11  1  0
  1 12  1  0
  3 13  1  0
  3 14  1  0
  4 15  1  0
  4 16  1  0
  5 17  1  0
  5 18  1  0
  6 19  1  0
  7 20  1  0
  8 21  1  0
  8 22  1  0
  9 23  1  0
M  END
