
     RDKit          3D

 19 20  0  0  0  0  0  0  0  0999 V2000
    2.3509    0.7728   -0.2771 C   0  0  0  0  0  0  0  0  0  0  0  0
    1.7764   -0.0717   -1.2058 O   0  0  0  0  0  0  0  0  0  0  0  0
    0.8613   -0.9617   -0.5977 C   0  0  0  0  0  0  0  0  0  0  0  0
   -0.1949   -0.0956    0.0473 C   0  0  0  0  0  0  0  0  0  0  0  0
   -0.9265    0.7744   -0.8946 C   0  0  0  0  0  0  0  0  0  0  0  0
   -1.6680   -0.3547   -0.3300 C   0  0  0  0  0  0  0  0  0  0  0  0
   -2.0772   -0.1246    1.1321 C   0  0  0  0  0  0  0  0  0  0  0  0
   -0.6403   -0.3547    1.4171 C   0  0  0  0  0  0  0  0  0  0  0  0
   -0.0488   -0.6531    2.4332 O   0  0  0  0  0  0  0  0  0  0  0  0
    1.6353    1.4037    0.2662 H   0  0  0  0  0  0  0  0  0  0  0  0
    2.8776    0.1382    0.4857 H   0  0  0  0  0  0  0  0  0  0  0  0
    3.0889    1.3953   -0.8057 H   0  0  0  0  0  0  0  0  0  0  0  0
    0.4546   -1.6395   -1.3495 H   0  0  0  0  0  0  0  0  0  0  0  0
    1.4322   -1.4563    0.2069 H   0  0  0  0  0  0  0  0  0  0  0  0
   -0.7287    0.6950   -1.9800 H   0  0  0  0  0  0  0  0  0  0  0  0
   -1.2355    1.8115   -0.6046 H   0  0  0  0  0  0  0  0  0  0  0  0
   -1.8225   -1.3163   -0.7875 H   0  0  0  0  0  0  0  0  0  0  0  0
   -2.7793   -0.8871    1.5012 H   0  0  0  0  0  0  0  0  0  0  0  0
   -2.3553    0.9248    1.3428 H   0  0  0  0  0  0  0  0  0  0  0  0
  1  2  1  0
  2  3  1  0
  3  4  1  0
  4  5  1  0
  5  6  1  0
  6  7  1  0
  7  8  1  0
  8  9  2  0
  6  4  1  0
  8  4  1  0
  1 10  1  0
  1 11  1  0
  1 12  1  0
  3 13  1  0
  3 14  1  0
  5 15  1  0
  5 16  1  0
  6 17  1  0
  7 18  1  0
  7 19  1  0
M  END
