
     RDKit          3D

 19 20  0  0  0  0  0  0  0  0999 V2000
   -2.8340    0.0712    0.4162 C   0  0  0  0  0  0  0  0  0  0  0  0
   -2.2220    0.4975   -0.7075 O   0  0  0  0  0  0  0  0  0  0  0  0
   -1.0138    1.0626   -0.6865 C   0  0  0  0  0  0  0  0  0  0  0  0
    0.1663    0.2496   -0.3082 C   0  0  0  0  0  0  0  0  0  0  0  0
    0.2848   -1.0210    0.0302 C   0  0  0  0  0  0  0  0  0  0  0  0
    1.6996   -1.3888    0.3335 C   0  0  0  0  0  0  0  0  0  0  0  0
    2.5110   -0.1720    0.0132 C   0  0  0  0  0  0  0  0  0  0  0  0
    2.4119    0.4150   -1.2286 O   0  0  0  0  0  0  0  0  0  0  0  0
    1.5539    0.8775   -0.2631 C   0  0  0  0  0  0  0  0  0  0  0  0
   -3.8358   -0.3679    0.1182 H   0  0  0  0  0  0  0  0  0  0  0  0
   -3.0984    0.8858    1.1360 H   0  0  0  0  0  0  0  0  0  0  0  0
   -2.3136   -0.7556    0.9034 H   0  0  0  0  0  0  0  0  0  0  0  0
   -0.7758    1.4164   -1.7455 H   0  0  0  0  0  0  0  0  0  0  0  0
   -0.9321    1.9997   -0.0789 H   0  0  0  0  0  0  0  0  0  0  0  0
   -0.4950   -1.7610    0.0846 H   0  0  0  0  0  0  0  0  0  0  0  0
    1.7717   -1.6038    1.4159 H   0  0  0  0  0  0  0  0  0  0  0  0
    2.0249   -2.3016   -0.2044 H   0  0  0  0  0  0  0  0  0  0  0  0
    3.4444    0.0294    0.5851 H   0  0  0  0  0  0  0  0  0  0  0  0
    1.6521    1.8672    0.1863 H   0  0  0  0  0  0  0  0  0  0  0  0
  1  2  1  0
  2  3  1  0
  3  4  1  0
  4  5  2  0
  5  6  1  0
  6  7  1  0
  7  8  1  0
  8  9  1  0
  9  4  1  0
  9  7  1  0
  1 10  1  0
  1 11  1  0
  1 12  1  0
  3 13  1  0
  3 14  1  0
  5 15  1  0
  6 16  1  0
  6 17  1  0
  7 18  1  0
  9 19  1  0
M  END
