
     RDKit          3D

 23 24  0  0  0  0  0  0  0  0999 V2000
    3.3573   -0.7120    0.1745 C   0  0  0  0  0  0  0  0  0  0  0  0
    1.9833   -0.9130    0.3917 O   0  0  0  0  0  0  0  0  0  0  0  0
    1.3727    0.3126    0.2713 C   0  0  0  0  0  0  0  0  0  0  0  0
   -0.1165    0.2639    0.4787 C   0  0  0  0  0  0  0  0  0  0  0  0
   -0.9061   -0.5904   -0.4385 C   0  0  0  0  0  0  0  0  0  0  0  0
   -1.6780   -1.7269    0.1822 C   0  0  0  0  0  0  0  0  0  0  0  0
   -1.8046    0.5223   -0.8313 C   0  0  0  0  0  0  0  0  0  0  0  0
   -2.1791    1.6331    0.0602 C   0  0  0  0  0  0  0  0  0  0  0  0
   -0.7527    1.4795   -0.2008 C   0  0  0  0  0  0  0  0  0  0  0  0
    3.7860   -0.0012    0.9200 H   0  0  0  0  0  0  0  0  0  0  0  0
    3.4105   -0.1522   -0.8054 H   0  0  0  0  0  0  0  0  0  0  0  0
    3.9060   -1.6644    0.1245 H   0  0  0  0  0  0  0  0  0  0  0  0
    1.6444    0.8567   -0.6570 H   0  0  0  0  0  0  0  0  0  0  0  0
    1.7797    0.9575    1.1060 H   0  0  0  0  0  0  0  0  0  0  0  0
   -0.4496    0.1612    1.5279 H   0  0  0  0  0  0  0  0  0  0  0  0
   -0.2653   -0.9893   -1.2579 H   0  0  0  0  0  0  0  0  0  0  0  0
   -2.3640   -2.1112   -0.6028 H   0  0  0  0  0  0  0  0  0  0  0  0
   -2.3292   -1.3717    1.0109 H   0  0  0  0  0  0  0  0  0  0  0  0
   -0.9794   -2.5167    0.5028 H   0  0  0  0  0  0  0  0  0  0  0  0
   -1.9834    0.6346   -1.9100 H   0  0  0  0  0  0  0  0  0  0  0  0
   -2.7558    2.4500   -0.3921 H   0  0  0  0  0  0  0  0  0  0  0  0
   -2.4977    1.4372    1.1247 H   0  0  0  0  0  0  0  0  0  0  0  0
   -0.1783    2.0405   -0.9360 H   0  0  0  0  0  0  0  0  0  0  0  0
  1  2  1  0
  2  3  1  0
  3  4  1  0
  4  5  1  0
  5  6  1  0
  5  7  1  0
  7  8  1  0
  8  9  1  0
  9  4  1  0
  9  7  1  0
  1 10  1  0
  1 11  1  0
  1 12  1  0
  3 13  1  0
  3 14  1  0
  4 15  1  0
  5 16  1  0
  6 17  1  0
  6 18  1  0
  6 19  1  0
  7 20  1  0
  8 21  1  0
  8 22  1  0
  9 23  1  0
M  END
