
     RDKit          3D

 23 23  0  0  0  0  0  0  0  0999 V2000
   -3.3684   -0.2593   -0.0758 C   0  0  0  0  0  0  0  0  0  0  0  0
   -2.6965    0.7030    0.6649 O   0  0  0  0  0  0  0  0  0  0  0  0
   -1.3597    0.7920    0.3532 C   0  0  0  0  0  0  0  0  0  0  0  0
   -0.6235   -0.5272    0.6015 C   0  0  0  0  0  0  0  0  0  0  0  0
    0.8348   -0.2435    0.2042 C   0  0  0  0  0  0  0  0  0  0  0  0
    1.3999    0.7668    0.9473 O   0  0  0  0  0  0  0  0  0  0  0  0
    2.7033    1.0466    0.6319 C   0  0  0  0  0  0  0  0  0  0  0  0
    1.6359   -1.2668   -0.4609 C   0  0  0  0  0  0  0  0  0  0  0  0
    0.9794   -0.1644   -1.3189 C   0  0  0  0  0  0  0  0  0  0  0  0
   -3.3417   -0.0929   -1.1554 H   0  0  0  0  0  0  0  0  0  0  0  0
   -3.0638   -1.2867    0.1686 H   0  0  0  0  0  0  0  0  0  0  0  0
   -4.4523   -0.1878    0.2331 H   0  0  0  0  0  0  0  0  0  0  0  0
   -1.1627    1.1417   -0.6802 H   0  0  0  0  0  0  0  0  0  0  0  0
   -0.9019    1.5267    1.0475 H   0  0  0  0  0  0  0  0  0  0  0  0
   -0.6108   -0.7092    1.6762 H   0  0  0  0  0  0  0  0  0  0  0  0
   -1.0319   -1.3452   -0.0051 H   0  0  0  0  0  0  0  0  0  0  0  0
    3.0250    1.8830    1.3184 H   0  0  0  0  0  0  0  0  0  0  0  0
    2.8741    1.4507   -0.3841 H   0  0  0  0  0  0  0  0  0  0  0  0
    3.4071    0.2142    0.8855 H   0  0  0  0  0  0  0  0  0  0  0  0
    2.7210   -1.2039   -0.4047 H   0  0  0  0  0  0  0  0  0  0  0  0
    1.2496   -2.2973   -0.5555 H   0  0  0  0  0  0  0  0  0  0  0  0
    0.1625   -0.5615   -1.9570 H   0  0  0  0  0  0  0  0  0  0  0  0
    1.6206    0.6210   -1.7345 H   0  0  0  0  0  0  0  0  0  0  0  0
  1  2  1  0
  2  3  1  0
  3  4  1  0
  4  5  1  0
  5  6  1  0
  6  7  1  0
  5  8  1  0
  8  9  1  0
  9  5  1  0
  1 10  1  0
  1 11  1  0
  1 12  1  0
  3 13  1  0
  3 14  1  0
  4 15  1  0
  4 16  1  0
  7 17  1  0
  7 18  1  0
  7 19  1  0
  8 20  1  0
  8 21  1  0
  9 22  1  0
  9 23  1  0
M  END
