
     RDKit          3D

 19 20  0  0  0  0  0  0  0  0999 V2000
   -2.8195    0.6642   -0.5442 C   0  0  0  0  0  0  0  0  0  0  0  0
   -1.5314    0.4247   -1.0272 O   0  0  0  0  0  0  0  0  0  0  0  0
   -0.9314   -0.4837   -0.1608 C   0  0  0  0  0  0  0  0  0  0  0  0
    0.4617   -0.7442   -0.6812 C   0  0  0  0  0  0  0  0  0  0  0  0
    1.3500    0.4597   -0.7677 C   0  0  0  0  0  0  0  0  0  0  0  0
    0.8684    1.4560    0.1130 O   0  0  0  0  0  0  0  0  0  0  0  0
    2.4817   -0.2567   -0.1067 C   0  0  0  0  0  0  0  0  0  0  0  0
    2.6620   -1.6083   -0.1957 O   0  0  0  0  0  0  0  0  0  0  0  0
    1.4367   -1.2904    0.3335 C   0  0  0  0  0  0  0  0  0  0  0  0
   -2.7112    1.0777    0.4700 H   0  0  0  0  0  0  0  0  0  0  0  0
   -3.3443   -0.3136   -0.5593 H   0  0  0  0  0  0  0  0  0  0  0  0
   -3.3276    1.3439   -1.2455 H   0  0  0  0  0  0  0  0  0  0  0  0
   -0.8951   -0.0274    0.8358 H   0  0  0  0  0  0  0  0  0  0  0  0
   -1.4913   -1.4289   -0.1210 H   0  0  0  0  0  0  0  0  0  0  0  0
    0.4526   -1.3575   -1.6051 H   0  0  0  0  0  0  0  0  0  0  0  0
    1.5400    0.8471   -1.7807 H   0  0  0  0  0  0  0  0  0  0  0  0
    1.5155    2.2204    0.1657 H   0  0  0  0  0  0  0  0  0  0  0  0
    3.0499    0.2775    0.6772 H   0  0  0  0  0  0  0  0  0  0  0  0
    1.2334   -1.2605    1.3962 H   0  0  0  0  0  0  0  0  0  0  0  0
  1  2  1  0
  2  3  1  0
  3  4  1  0
  4  5  1  0
  5  6  1  0
  5  7  1  0
  7  8  1  0
  8  9  1  0
  9  4  1  0
  9  7  1  0
  1 10  1  0
  1 11  1  0
  1 12  1  0
  3 13  1  0
  3 14  1  0
  4 15  1  0
  5 16  1  0
  6 17  1  0
  7 18  1  0
  9 19  1  0
M  END
