
     RDKit          3D

 25 25  0  0  0  0  0  0  0  0999 V2000
    3.7887   -0.7505    0.1883 C   0  0  0  0  0  0  0  0  0  0  0  0
    2.8968    0.2222   -0.2637 O   0  0  0  0  0  0  0  0  0  0  0  0
    1.6346   -0.0618    0.2371 C   0  0  0  0  0  0  0  0  0  0  0  0
    0.6522    0.9976   -0.2525 C   0  0  0  0  0  0  0  0  0  0  0  0
   -0.7079    0.6655    0.3051 C   0  0  0  0  0  0  0  0  0  0  0  0
   -1.7325    1.7101   -0.1641 C   0  0  0  0  0  0  0  0  0  0  0  0
   -2.7326    0.5447   -0.1290 C   0  0  0  0  0  0  0  0  0  0  0  0
   -1.5154   -0.3228   -0.4841 C   0  0  0  0  0  0  0  0  0  0  0  0
   -1.6764   -1.6834    0.1377 C   0  0  0  0  0  0  0  0  0  0  0  0
    3.7882   -0.7137    1.3154 H   0  0  0  0  0  0  0  0  0  0  0  0
    4.8151   -0.5393   -0.1952 H   0  0  0  0  0  0  0  0  0  0  0  0
    3.4997   -1.7282   -0.2070 H   0  0  0  0  0  0  0  0  0  0  0  0
    1.3029   -1.0831    0.0002 H   0  0  0  0  0  0  0  0  0  0  0  0
    1.6740   -0.0011    1.3603 H   0  0  0  0  0  0  0  0  0  0  0  0
    0.6763    1.0667   -1.3363 H   0  0  0  0  0  0  0  0  0  0  0  0
    1.0127    1.9616    0.1585 H   0  0  0  0  0  0  0  0  0  0  0  0
   -0.7636    0.5779    1.3955 H   0  0  0  0  0  0  0  0  0  0  0  0
   -1.9341    2.5084    0.5459 H   0  0  0  0  0  0  0  0  0  0  0  0
   -1.5963    1.9977   -1.2299 H   0  0  0  0  0  0  0  0  0  0  0  0
   -3.5105    0.5808   -0.8857 H   0  0  0  0  0  0  0  0  0  0  0  0
   -3.0500    0.2996    0.9147 H   0  0  0  0  0  0  0  0  0  0  0  0
   -1.3120   -0.2823   -1.5527 H   0  0  0  0  0  0  0  0  0  0  0  0
   -2.6470   -2.0981   -0.2127 H   0  0  0  0  0  0  0  0  0  0  0  0
   -0.8249   -2.3473   -0.0500 H   0  0  0  0  0  0  0  0  0  0  0  0
   -1.7382   -1.5214    1.2452 H   0  0  0  0  0  0  0  0  0  0  0  0
  1  2  1  0
  2  3  1  0
  3  4  1  0
  4  5  1  0
  5  6  1  0
  6  7  1  0
  7  8  1  0
  8  9  1  0
  8  5  1  0
  1 10  1  0
  1 11  1  0
  1 12  1  0
  3 13  1  0
  3 14  1  0
  4 15  1  0
  4 16  1  0
  5 17  1  0
  6 18  1  0
  6 19  1  0
  7 20  1  0
  7 21  1  0
  8 22  1  0
  9 23  1  0
  9 24  1  0
  9 25  1  0
M  END
