
     RDKit          3D

 23 23  0  0  0  0  0  0  0  0999 V2000
    3.1985   -0.9253    0.4057 C   0  0  0  0  0  0  0  0  0  0  0  0
    1.8250   -0.9146    0.2259 O   0  0  0  0  0  0  0  0  0  0  0  0
    1.3860    0.3875    0.0179 C   0  0  0  0  0  0  0  0  0  0  0  0
   -0.1162    0.4150   -0.1807 C   0  0  0  0  0  0  0  0  0  0  0  0
   -0.6765    1.7955   -0.4135 C   0  0  0  0  0  0  0  0  0  0  0  0
   -0.6366   -0.6424   -1.1156 C   0  0  0  0  0  0  0  0  0  0  0  0
   -0.8946   -0.6636    0.4134 C   0  0  0  0  0  0  0  0  0  0  0  0
   -2.3392   -0.5476    0.7846 C   0  0  0  0  0  0  0  0  0  0  0  0
   -3.1419   -0.2510   -0.3035 O   0  0  0  0  0  0  0  0  0  0  0  0
    3.5145   -0.3119    1.2859 H   0  0  0  0  0  0  0  0  0  0  0  0
    3.7079   -0.6064   -0.5188 H   0  0  0  0  0  0  0  0  0  0  0  0
    3.4707   -1.9793    0.6819 H   0  0  0  0  0  0  0  0  0  0  0  0
    1.8315    0.8192   -0.8961 H   0  0  0  0  0  0  0  0  0  0  0  0
    1.6980    0.9710    0.9172 H   0  0  0  0  0  0  0  0  0  0  0  0
   -1.5993    1.9910    0.1345 H   0  0  0  0  0  0  0  0  0  0  0  0
   -0.7840    1.9442   -1.5215 H   0  0  0  0  0  0  0  0  0  0  0  0
    0.0605    2.5836   -0.0993 H   0  0  0  0  0  0  0  0  0  0  0  0
    0.0538   -1.4101   -1.5145 H   0  0  0  0  0  0  0  0  0  0  0  0
   -1.4928   -0.4359   -1.7665 H   0  0  0  0  0  0  0  0  0  0  0  0
   -0.3194   -1.4719    0.9484 H   0  0  0  0  0  0  0  0  0  0  0  0
   -2.5189    0.1621    1.6279 H   0  0  0  0  0  0  0  0  0  0  0  0
   -2.6857   -1.5494    1.1650 H   0  0  0  0  0  0  0  0  0  0  0  0
   -3.5414    0.6403   -0.2783 H   0  0  0  0  0  0  0  0  0  0  0  0
  1  2  1  0
  2  3  1  0
  3  4  1  0
  4  5  1  0
  4  6  1  0
  6  7  1  0
  7  8  1  0
  8  9  1  0
  7  4  1  0
  1 10  1  0
  1 11  1  0
  1 12  1  0
  3 13  1  0
  3 14  1  0
  5 15  1  0
  5 16  1  0
  5 17  1  0
  6 18  1  0
  6 19  1  0
  7 20  1  0
  8 21  1  0
  8 22  1  0
  9 23  1  0
M  END
