
     RDKit          3D

 21 22  0  0  0  0  0  0  0  0999 V2000
    2.7199   -0.5927    1.2847 C   0  0  0  0  0  0  0  0  0  0  0  0
    1.3888   -0.2522    1.0519 O   0  0  0  0  0  0  0  0  0  0  0  0
    1.2421   -0.0462   -0.3042 C   0  0  0  0  0  0  0  0  0  0  0  0
   -0.1547    0.3300   -0.6981 C   0  0  0  0  0  0  0  0  0  0  0  0
   -0.7067    1.5848   -0.0893 C   0  0  0  0  0  0  0  0  0  0  0  0
   -1.9933    0.8153    0.1944 C   0  0  0  0  0  0  0  0  0  0  0  0
   -1.8618   -0.2715    1.1790 C   0  0  0  0  0  0  0  0  0  0  0  0
   -1.2613   -0.5077   -0.1438 C   0  0  0  0  0  0  0  0  0  0  0  0
   -1.9628   -1.3244   -1.0254 O   0  0  0  0  0  0  0  0  0  0  0  0
    2.8875   -0.7712    2.3862 H   0  0  0  0  0  0  0  0  0  0  0  0
    2.9781   -1.5482    0.7912 H   0  0  0  0  0  0  0  0  0  0  0  0
    3.4202    0.1748    0.8988 H   0  0  0  0  0  0  0  0  0  0  0  0
    1.9057    0.7969   -0.5979 H   0  0  0  0  0  0  0  0  0  0  0  0
    1.5090   -0.9723   -0.8244 H   0  0  0  0  0  0  0  0  0  0  0  0
   -0.2214    0.3907   -1.8148 H   0  0  0  0  0  0  0  0  0  0  0  0
   -0.9119    2.4175   -0.7852 H   0  0  0  0  0  0  0  0  0  0  0  0
   -0.2427    1.8860    0.8764 H   0  0  0  0  0  0  0  0  0  0  0  0
   -2.9008    1.0463   -0.3573 H   0  0  0  0  0  0  0  0  0  0  0  0
   -1.2266   -0.0292    2.0698 H   0  0  0  0  0  0  0  0  0  0  0  0
   -2.7551   -0.8415    1.4289 H   0  0  0  0  0  0  0  0  0  0  0  0
   -1.8523   -2.2852   -0.8255 H   0  0  0  0  0  0  0  0  0  0  0  0
  1  2  1  0
  2  3  1  0
  3  4  1  0
  4  5  1  0
  5  6  1  0
  6  7  1  0
  7  8  1  0
  8  9  1  0
  8  4  1  0
  8  6  1  0
  1 10  1  0
  1 11  1  0
  1 12  1  0
  3 13  1  0
  3 14  1  0
  4 15  1  0
  5 16  1  0
  5 17  1  0
  6 18  1  0
  7 19  1  0
  7 20  1  0
  9 21  1  0
M  END
