
     RDKit          3D

 25 25  0  0  0  0  0  0  0  0999 V2000
    3.0663    0.8759    0.7639 C   0  0  0  0  0  0  0  0  0  0  0  0
    1.7582    0.9392    0.2355 O   0  0  0  0  0  0  0  0  0  0  0  0
    1.2808   -0.3487    0.2030 C   0  0  0  0  0  0  0  0  0  0  0  0
   -0.1405   -0.2885   -0.3700 C   0  0  0  0  0  0  0  0  0  0  0  0
   -0.1014    0.2999   -1.7640 C   0  0  0  0  0  0  0  0  0  0  0  0
   -0.6298   -1.6977   -0.4815 C   0  0  0  0  0  0  0  0  0  0  0  0
   -0.9675    0.5881    0.5072 C   0  0  0  0  0  0  0  0  0  0  0  0
   -2.4268    0.7528    0.0668 C   0  0  0  0  0  0  0  0  0  0  0  0
   -2.0638    0.0737    1.3477 C   0  0  0  0  0  0  0  0  0  0  0  0
    2.9689    0.4370    1.7796 H   0  0  0  0  0  0  0  0  0  0  0  0
    3.5036    1.8917    0.8765 H   0  0  0  0  0  0  0  0  0  0  0  0
    3.6903    0.2205    0.1088 H   0  0  0  0  0  0  0  0  0  0  0  0
    1.9101   -1.0497   -0.3803 H   0  0  0  0  0  0  0  0  0  0  0  0
    1.2454   -0.7230    1.2453 H   0  0  0  0  0  0  0  0  0  0  0  0
   -0.5766    1.3067   -1.8069 H   0  0  0  0  0  0  0  0  0  0  0  0
   -0.6702   -0.3407   -2.4990 H   0  0  0  0  0  0  0  0  0  0  0  0
    0.9132    0.3839   -2.1465 H   0  0  0  0  0  0  0  0  0  0  0  0
   -0.0013   -2.2047   -1.2454 H   0  0  0  0  0  0  0  0  0  0  0  0
   -1.6744   -1.7815   -0.8155 H   0  0  0  0  0  0  0  0  0  0  0  0
   -0.4558   -2.2857    0.4655 H   0  0  0  0  0  0  0  0  0  0  0  0
   -0.4800    1.5353    0.8149 H   0  0  0  0  0  0  0  0  0  0  0  0
   -2.7855    0.0400   -0.7252 H   0  0  0  0  0  0  0  0  0  0  0  0
   -2.8553    1.7708    0.0695 H   0  0  0  0  0  0  0  0  0  0  0  0
   -2.2929    0.6259    2.2864 H   0  0  0  0  0  0  0  0  0  0  0  0
   -2.2147   -1.0215    1.4637 H   0  0  0  0  0  0  0  0  0  0  0  0
  1  2  1  0
  2  3  1  0
  3  4  1  0
  4  5  1  0
  4  6  1  0
  4  7  1  0
  7  8  1  0
  8  9  1  0
  9  7  1  0
  1 10  1  0
  1 11  1  0
  1 12  1  0
  3 13  1  0
  3 14  1  0
  5 15  1  0
  5 16  1  0
  5 17  1  0
  6 18  1  0
  6 19  1  0
  6 20  1  0
  7 21  1  0
  8 22  1  0
  8 23  1  0
  9 24  1  0
  9 25  1  0
M  END
