
     RDKit          3D

 19 19  0  0  0  0  0  0  0  0999 V2000
    3.1477   -0.6731   -0.3433 C   0  0  0  0  0  0  0  0  0  0  0  0
    1.7890   -0.7621    0.0044 O   0  0  0  0  0  0  0  0  0  0  0  0
    1.1875    0.4022   -0.4038 C   0  0  0  0  0  0  0  0  0  0  0  0
   -0.2843    0.4503   -0.0948 C   0  0  0  0  0  0  0  0  0  0  0  0
   -0.5772    0.3461    1.2795 O   0  0  0  0  0  0  0  0  0  0  0  0
   -1.7891   -0.2570    0.8686 C   0  0  0  0  0  0  0  0  0  0  0  0
   -2.7727    0.8494    0.5293 C   0  0  0  0  0  0  0  0  0  0  0  0
   -1.0442   -0.7810   -0.3007 C   0  0  0  0  0  0  0  0  0  0  0  0
   -1.1220   -1.7559   -0.9941 O   0  0  0  0  0  0  0  0  0  0  0  0
    3.2659   -0.5493   -1.4452 H   0  0  0  0  0  0  0  0  0  0  0  0
    3.6197    0.2269    0.1174 H   0  0  0  0  0  0  0  0  0  0  0  0
    3.7154   -1.5469    0.0055 H   0  0  0  0  0  0  0  0  0  0  0  0
    1.2814    0.4551   -1.5143 H   0  0  0  0  0  0  0  0  0  0  0  0
    1.7110    1.2843   -0.0036 H   0  0  0  0  0  0  0  0  0  0  0  0
   -0.8213    1.3183   -0.5259 H   0  0  0  0  0  0  0  0  0  0  0  0
   -2.1695   -1.0323    1.5336 H   0  0  0  0  0  0  0  0  0  0  0  0
   -3.7594    0.6803    1.0125 H   0  0  0  0  0  0  0  0  0  0  0  0
   -2.9505    0.7803   -0.5681 H   0  0  0  0  0  0  0  0  0  0  0  0
   -2.4274    1.8432    0.8432 H   0  0  0  0  0  0  0  0  0  0  0  0
  1  2  1  0
  2  3  1  0
  3  4  1  0
  4  5  1  0
  5  6  1  0
  6  7  1  0
  6  8  1  0
  8  9  2  0
  8  4  1  0
  1 10  1  0
  1 11  1  0
  1 12  1  0
  3 13  1  0
  3 14  1  0
  4 15  1  0
  6 16  1  0
  7 17  1  0
  7 18  1  0
  7 19  1  0
M  END
