
     RDKit          3D

 20 20  0  0  0  0  0  0  0  0999 V2000
    2.6303    0.5017    0.1948 C   0  0  0  0  0  0  0  0  0  0  0  0
    2.2531   -0.5158   -0.6275 O   0  0  0  0  0  0  0  0  0  0  0  0
    1.0543   -1.1088   -0.4174 C   0  0  0  0  0  0  0  0  0  0  0  0
   -0.1011   -0.1801   -0.5460 C   0  0  0  0  0  0  0  0  0  0  0  0
   -1.4532   -0.9137   -0.3221 C   0  0  0  0  0  0  0  0  0  0  0  0
   -1.9613    0.4027    0.2006 C   0  0  0  0  0  0  0  0  0  0  0  0
   -2.2946    1.2406   -0.8651 O   0  0  0  0  0  0  0  0  0  0  0  0
   -0.5059    0.6299    0.6624 C   0  0  0  0  0  0  0  0  0  0  0  0
    1.9648    1.3771    0.1628 H   0  0  0  0  0  0  0  0  0  0  0  0
    2.6747    0.1941    1.2732 H   0  0  0  0  0  0  0  0  0  0  0  0
    3.6382    0.8962   -0.1245 H   0  0  0  0  0  0  0  0  0  0  0  0
    0.9408   -1.8905   -1.2265 H   0  0  0  0  0  0  0  0  0  0  0  0
    1.0514   -1.6472    0.5728 H   0  0  0  0  0  0  0  0  0  0  0  0
   -0.1209    0.4550   -1.4418 H   0  0  0  0  0  0  0  0  0  0  0  0
   -1.3359   -1.6313    0.5084 H   0  0  0  0  0  0  0  0  0  0  0  0
   -1.8883   -1.2878   -1.2444 H   0  0  0  0  0  0  0  0  0  0  0  0
   -2.6781    0.3716    1.0218 H   0  0  0  0  0  0  0  0  0  0  0  0
   -3.2591    1.2809   -0.9660 H   0  0  0  0  0  0  0  0  0  0  0  0
   -0.2464    1.7100    0.6568 H   0  0  0  0  0  0  0  0  0  0  0  0
   -0.3628    0.1155    1.6447 H   0  0  0  0  0  0  0  0  0  0  0  0
  1  2  1  0
  2  3  1  0
  3  4  1  0
  4  5  1  0
  5  6  1  0
  6  7  1  0
  6  8  1  0
  8  4  1  0
  1  9  1  0
  1 10  1  0
  1 11  1  0
  3 12  1  0
  3 13  1  0
  4 14  1  0
  5 15  1  0
  5 16  1  0
  6 17  1  0
  7 18  1  0
  8 19  1  0
  8 20  1  0
M  END
