
     RDKit          3D

 23 22  0  0  0  0  0  0  0  0999 V2000
    3.1007   -0.5038   -0.2494 C   0  0  0  0  0  0  0  0  0  0  0  0
    2.5276    0.6961    0.1601 O   0  0  0  0  0  0  0  0  0  0  0  0
    1.1849    0.7673   -0.1060 C   0  0  0  0  0  0  0  0  0  0  0  0
    0.3632   -0.3072    0.5640 C   0  0  0  0  0  0  0  0  0  0  0  0
   -1.1024   -0.1089    0.1861 C   0  0  0  0  0  0  0  0  0  0  0  0
   -1.2720   -0.2048   -1.3168 C   0  0  0  0  0  0  0  0  0  0  0  0
   -1.5899    1.2510    0.6077 C   0  0  0  0  0  0  0  0  0  0  0  0
   -1.9591   -1.1332    0.8149 C   0  0  0  0  0  0  0  0  0  0  0  0
   -2.8588   -0.8403    1.5916 O   0  0  0  0  0  0  0  0  0  0  0  0
    4.1932   -0.5157   -0.0153 H   0  0  0  0  0  0  0  0  0  0  0  0
    2.6891   -1.3417    0.3872 H   0  0  0  0  0  0  0  0  0  0  0  0
    2.8950   -0.7448   -1.3103 H   0  0  0  0  0  0  0  0  0  0  0  0
    0.8287    1.7492    0.3259 H   0  0  0  0  0  0  0  0  0  0  0  0
    0.9381    0.8349   -1.1861 H   0  0  0  0  0  0  0  0  0  0  0  0
    0.6690   -1.2875    0.1622 H   0  0  0  0  0  0  0  0  0  0  0  0
    0.4263   -0.2282    1.6625 H   0  0  0  0  0  0  0  0  0  0  0  0
   -1.0132    0.7456   -1.7825 H   0  0  0  0  0  0  0  0  0  0  0  0
   -2.3467   -0.4110   -1.4994 H   0  0  0  0  0  0  0  0  0  0  0  0
   -0.6524   -1.0305   -1.7477 H   0  0  0  0  0  0  0  0  0  0  0  0
   -2.6622    1.1895    0.9140 H   0  0  0  0  0  0  0  0  0  0  0  0
   -0.9558    1.6390    1.4475 H   0  0  0  0  0  0  0  0  0  0  0  0
   -1.5684    1.9918   -0.2298 H   0  0  0  0  0  0  0  0  0  0  0  0
   -1.8348   -2.2068    0.6197 H   0  0  0  0  0  0  0  0  0  0  0  0
  1  2  1  0
  2  3  1  0
  3  4  1  0
  4  5  1  0
  5  6  1  0
  5  7  1  0
  5  8  1  0
  8  9  2  0
  1 10  1  0
  1 11  1  0
  1 12  1  0
  3 13  1  0
  3 14  1  0
  4 15  1  0
  4 16  1  0
  6 17  1  0
  6 18  1  0
  6 19  1  0
  7 20  1  0
  7 21  1  0
  7 22  1  0
  8 23  1  0
M  END
