
     RDKit          3D

 25 24  0  0  0  0  0  0  0  0999 V2000
    3.2602   -0.0959    0.1811 C   0  0  0  0  0  0  0  0  0  0  0  0
    2.1035    0.6559    0.3669 O   0  0  0  0  0  0  0  0  0  0  0  0
    0.9811   -0.1555    0.2151 C   0  0  0  0  0  0  0  0  0  0  0  0
   -0.2766    0.6416    0.4126 C   0  0  0  0  0  0  0  0  0  0  0  0
   -0.4060    1.7760   -0.5757 C   0  0  0  0  0  0  0  0  0  0  0  0
   -0.4297    1.3423   -1.8840 O   0  0  0  0  0  0  0  0  0  0  0  0
   -1.5088   -0.2200    0.3498 C   0  0  0  0  0  0  0  0  0  0  0  0
   -1.4097   -1.2694    1.4550 C   0  0  0  0  0  0  0  0  0  0  0  0
   -1.6987   -0.8975   -0.9729 C   0  0  0  0  0  0  0  0  0  0  0  0
    3.2210   -0.5095   -0.8405 H   0  0  0  0  0  0  0  0  0  0  0  0
    3.3539   -0.9061    0.9271 H   0  0  0  0  0  0  0  0  0  0  0  0
    4.1217    0.6026    0.2454 H   0  0  0  0  0  0  0  0  0  0  0  0
    1.0245   -0.8918    1.0610 H   0  0  0  0  0  0  0  0  0  0  0  0
    1.0588   -0.6444   -0.7559 H   0  0  0  0  0  0  0  0  0  0  0  0
   -0.2414    1.0900    1.4267 H   0  0  0  0  0  0  0  0  0  0  0  0
   -1.3487    2.3118   -0.3813 H   0  0  0  0  0  0  0  0  0  0  0  0
    0.4089    2.5194   -0.4619 H   0  0  0  0  0  0  0  0  0  0  0  0
   -0.2203    2.1463   -2.4515 H   0  0  0  0  0  0  0  0  0  0  0  0
   -2.4078    0.3761    0.5795 H   0  0  0  0  0  0  0  0  0  0  0  0
   -1.1469   -0.8048    2.4105 H   0  0  0  0  0  0  0  0  0  0  0  0
   -2.4023   -1.7740    1.5355 H   0  0  0  0  0  0  0  0  0  0  0  0
   -0.6650   -2.0318    1.1456 H   0  0  0  0  0  0  0  0  0  0  0  0
   -2.4234   -0.3260   -1.6070 H   0  0  0  0  0  0  0  0  0  0  0  0
   -2.1670   -1.9064   -0.8331 H   0  0  0  0  0  0  0  0  0  0  0  0
   -0.7811   -1.0288   -1.5483 H   0  0  0  0  0  0  0  0  0  0  0  0
  1  2  1  0
  2  3  1  0
  3  4  1  0
  4  5  1  0
  5  6  1  0
  4  7  1  0
  7  8  1  0
  7  9  1  0
  1 10  1  0
  1 11  1  0
  1 12  1  0
  3 13  1  0
  3 14  1  0
  4 15  1  0
  5 16  1  0
  5 17  1  0
  6 18  1  0
  7 19  1  0
  8 20  1  0
  8 21  1  0
  8 22  1  0
  9 23  1  0
  9 24  1  0
  9 25  1  0
M  END
