
     RDKit          3D

 21 21  0  0  0  0  0  0  0  0999 V2000
    3.1821   -0.0563    0.1280 C   0  0  0  0  0  0  0  0  0  0  0  0
    1.9813   -0.3372   -0.5162 O   0  0  0  0  0  0  0  0  0  0  0  0
    0.9720    0.3135    0.1677 C   0  0  0  0  0  0  0  0  0  0  0  0
   -0.3819    0.0733   -0.4528 C   0  0  0  0  0  0  0  0  0  0  0  0
   -0.4325    0.5180   -1.7650 O   0  0  0  0  0  0  0  0  0  0  0  0
   -1.4315    0.8509    0.3237 C   0  0  0  0  0  0  0  0  0  0  0  0
   -2.5047   -0.1975    0.5068 C   0  0  0  0  0  0  0  0  0  0  0  0
   -1.7437   -1.3280    0.7972 O   0  0  0  0  0  0  0  0  0  0  0  0
   -0.8556   -1.3321   -0.3062 C   0  0  0  0  0  0  0  0  0  0  0  0
    3.0787   -0.4408    1.1805 H   0  0  0  0  0  0  0  0  0  0  0  0
    4.0418   -0.5889   -0.3460 H   0  0  0  0  0  0  0  0  0  0  0  0
    3.4319    1.0258    0.1174 H   0  0  0  0  0  0  0  0  0  0  0  0
    1.1938    1.3913    0.2504 H   0  0  0  0  0  0  0  0  0  0  0  0
    0.9219   -0.1339    1.2018 H   0  0  0  0  0  0  0  0  0  0  0  0
   -0.9039    1.3867   -1.8327 H   0  0  0  0  0  0  0  0  0  0  0  0
   -1.0115    1.1236    1.2971 H   0  0  0  0  0  0  0  0  0  0  0  0
   -1.7967    1.7251   -0.2566 H   0  0  0  0  0  0  0  0  0  0  0  0
   -3.0038   -0.3988   -0.4663 H   0  0  0  0  0  0  0  0  0  0  0  0
   -3.2115    0.0622    1.3141 H   0  0  0  0  0  0  0  0  0  0  0  0
   -1.4769   -1.5954   -1.2105 H   0  0  0  0  0  0  0  0  0  0  0  0
   -0.0493   -2.0613   -0.1325 H   0  0  0  0  0  0  0  0  0  0  0  0
  1  2  1  0
  2  3  1  0
  3  4  1  0
  4  5  1  0
  4  6  1  0
  6  7  1  0
  7  8  1  0
  8  9  1  0
  9  4  1  0
  1 10  1  0
  1 11  1  0
  1 12  1  0
  3 13  1  0
  3 14  1  0
  5 15  1  0
  6 16  1  0
  6 17  1  0
  7 18  1  0
  7 19  1  0
  9 20  1  0
  9 21  1  0
M  END
