
     RDKit          3D

 18 17  0  0  0  0  0  0  0  0999 V2000
    2.7100   -0.5135    0.1348 C   0  0  0  0  0  0  0  0  0  0  0  0
    1.3825   -0.8658   -0.0371 O   0  0  0  0  0  0  0  0  0  0  0  0
    0.5840    0.2604   -0.2007 C   0  0  0  0  0  0  0  0  0  0  0  0
   -0.8697   -0.1045   -0.3899 C   0  0  0  0  0  0  0  0  0  0  0  0
   -1.6759    1.1515   -0.5604 C   0  0  0  0  0  0  0  0  0  0  0  0
   -1.4295   -0.8745    0.7725 C   0  0  0  0  0  0  0  0  0  0  0  0
    3.2741   -1.4852    0.2583 H   0  0  0  0  0  0  0  0  0  0  0  0
    3.1208    0.0091   -0.7454 H   0  0  0  0  0  0  0  0  0  0  0  0
    2.8873    0.0580    1.0684 H   0  0  0  0  0  0  0  0  0  0  0  0
    0.6769    0.9253    0.6777 H   0  0  0  0  0  0  0  0  0  0  0  0
    0.9324    0.8287   -1.0863 H   0  0  0  0  0  0  0  0  0  0  0  0
   -1.0263   -0.7213   -1.2973 H   0  0  0  0  0  0  0  0  0  0  0  0
   -1.0156    2.0240   -0.6328 H   0  0  0  0  0  0  0  0  0  0  0  0
   -2.3577    1.3304    0.3054 H   0  0  0  0  0  0  0  0  0  0  0  0
   -2.2990    1.1314   -1.4698 H   0  0  0  0  0  0  0  0  0  0  0  0
   -1.3473   -1.9706    0.6339 H   0  0  0  0  0  0  0  0  0  0  0  0
   -2.5245   -0.6527    0.8177 H   0  0  0  0  0  0  0  0  0  0  0  0
   -1.0227   -0.5308    1.7510 H   0  0  0  0  0  0  0  0  0  0  0  0
  1  2  1  0
  2  3  1  0
  3  4  1  0
  4  5  1  0
  4  6  1  0
  1  7  1  0
  1  8  1  0
  1  9  1  0
  3 10  1  0
  3 11  1  0
  4 12  1  0
  5 13  1  0
  5 14  1  0
  5 15  1  0
  6 16  1  0
  6 17  1  0
  6 18  1  0
M  END
