
     RDKit          3D

 21 22  0  0  0  0  0  0  0  0999 V2000
    2.7473    0.9790   -0.0955 C   0  0  0  0  0  0  0  0  0  0  0  0
    2.4367   -0.1126   -0.8540 O   0  0  0  0  0  0  0  0  0  0  0  0
    1.4638   -0.9502   -0.3879 C   0  0  0  0  0  0  0  0  0  0  0  0
    0.1929   -0.4259   -0.2218 C   0  0  0  0  0  0  0  0  0  0  0  0
   -1.0251   -1.3239    0.0376 C   0  0  0  0  0  0  0  0  0  0  0  0
   -1.4946    0.0516   -0.1376 C   0  0  0  0  0  0  0  0  0  0  0  0
   -2.7908    0.5420   -0.1308 C   0  0  0  0  0  0  0  0  0  0  0  0
   -0.3766    0.4930    0.7619 C   0  0  0  0  0  0  0  0  0  0  0  0
   -0.5906    0.1540   -1.1874 O   0  0  0  0  0  0  0  0  0  0  0  0
    3.0818    0.6610    0.9232 H   0  0  0  0  0  0  0  0  0  0  0  0
    3.6136    1.4771   -0.6291 H   0  0  0  0  0  0  0  0  0  0  0  0
    1.9593    1.7340    0.0436 H   0  0  0  0  0  0  0  0  0  0  0  0
    1.4504   -1.8318   -1.0918 H   0  0  0  0  0  0  0  0  0  0  0  0
    1.8582   -1.3937    0.5658 H   0  0  0  0  0  0  0  0  0  0  0  0
   -1.2036   -2.0480   -0.7604 H   0  0  0  0  0  0  0  0  0  0  0  0
   -1.0839   -1.7188    1.0509 H   0  0  0  0  0  0  0  0  0  0  0  0
   -2.9315    1.3803   -0.8755 H   0  0  0  0  0  0  0  0  0  0  0  0
   -3.1293    0.9258    0.8468 H   0  0  0  0  0  0  0  0  0  0  0  0
   -3.5367   -0.2360   -0.4604 H   0  0  0  0  0  0  0  0  0  0  0  0
   -0.2427    1.5711    0.7073 H   0  0  0  0  0  0  0  0  0  0  0  0
   -0.3986    0.0721    1.7899 H   0  0  0  0  0  0  0  0  0  0  0  0
  1  2  1  0
  2  3  1  0
  3  4  1  0
  4  5  1  0
  5  6  1  0
  6  7  1  0
  6  8  1  0
  6  9  1  0
  8  4  1  0
  9  4  1  0
  1 10  1  0
  1 11  1  0
  1 12  1  0
  3 13  1  0
  3 14  1  0
  5 15  1  0
  5 16  1  0
  7 17  1  0
  7 18  1  0
  7 19  1  0
  8 20  1  0
  8 21  1  0
M  END
