
     RDKit          3D

 23 22  0  0  0  0  0  0  0  0999 V2000
    2.7653   -0.9682    0.0885 C   0  0  0  0  0  0  0  0  0  0  0  0
    1.4156   -0.6436    0.2949 O   0  0  0  0  0  0  0  0  0  0  0  0
    1.0077    0.1953   -0.7552 C   0  0  0  0  0  0  0  0  0  0  0  0
   -0.4218    0.5692   -0.5818 C   0  0  0  0  0  0  0  0  0  0  0  0
   -1.4038   -0.5464   -0.6194 C   0  0  0  0  0  0  0  0  0  0  0  0
   -1.2184   -1.5967    0.4229 C   0  0  0  0  0  0  0  0  0  0  0  0
   -1.3141   -1.0790    1.7138 O   0  0  0  0  0  0  0  0  0  0  0  0
   -0.5286    1.2338    0.6397 O   0  0  0  0  0  0  0  0  0  0  0  0
   -0.9166    2.5774    0.4629 C   0  0  0  0  0  0  0  0  0  0  0  0
    3.1105   -1.6313    0.9069 H   0  0  0  0  0  0  0  0  0  0  0  0
    2.8522   -1.5706   -0.8517 H   0  0  0  0  0  0  0  0  0  0  0  0
    3.3970   -0.0865   -0.0120 H   0  0  0  0  0  0  0  0  0  0  0  0
    1.6136    1.1198   -0.6355 H   0  0  0  0  0  0  0  0  0  0  0  0
    1.2629   -0.2188   -1.7425 H   0  0  0  0  0  0  0  0  0  0  0  0
   -0.6803    1.3095   -1.3669 H   0  0  0  0  0  0  0  0  0  0  0  0
   -1.3990   -1.0218   -1.6231 H   0  0  0  0  0  0  0  0  0  0  0  0
   -2.4247   -0.1281   -0.4883 H   0  0  0  0  0  0  0  0  0  0  0  0
   -0.3210   -2.2071    0.3234 H   0  0  0  0  0  0  0  0  0  0  0  0
   -2.0896   -2.3055    0.3232 H   0  0  0  0  0  0  0  0  0  0  0  0
   -1.5011   -1.7632    2.3891 H   0  0  0  0  0  0  0  0  0  0  0  0
   -0.1911    3.1403   -0.1513 H   0  0  0  0  0  0  0  0  0  0  0  0
   -1.9171    2.6006   -0.0547 H   0  0  0  0  0  0  0  0  0  0  0  0
   -1.0973    3.0208    1.4610 H   0  0  0  0  0  0  0  0  0  0  0  0
  1  2  1  0
  2  3  1  0
  3  4  1  0
  4  5  1  0
  5  6  1  0
  6  7  1  0
  4  8  1  0
  8  9  1  0
  1 10  1  0
  1 11  1  0
  1 12  1  0
  3 13  1  0
  3 14  1  0
  4 15  1  0
  5 16  1  0
  5 17  1  0
  6 18  1  0
  6 19  1  0
  7 20  1  0
  9 21  1  0
  9 22  1  0
  9 23  1  0
M  END
