
     RDKit          3D

 19 21  0  0  0  0  0  0  0  0999 V2000
   -2.8635    0.7435    0.3057 C   0  0  0  0  0  0  0  0  0  0  0  0
   -1.4739    0.6700    0.3429 O   0  0  0  0  0  0  0  0  0  0  0  0
   -1.1114   -0.5705   -0.1474 C   0  0  0  0  0  0  0  0  0  0  0  0
    0.3630   -0.8001   -0.1700 C   0  0  0  0  0  0  0  0  0  0  0  0
    0.7488   -2.0416   -0.6596 O   0  0  0  0  0  0  0  0  0  0  0  0
    1.1984   -0.9106   -1.3004 C   0  0  0  0  0  0  0  0  0  0  0  0
    2.3212   -0.1888   -0.5986 C   0  0  0  0  0  0  0  0  0  0  0  0
    2.0844    1.1533   -0.0254 C   0  0  0  0  0  0  0  0  0  0  0  0
    1.3126    0.0618    0.5725 C   0  0  0  0  0  0  0  0  0  0  0  0
   -3.2440    1.7151    0.6850 H   0  0  0  0  0  0  0  0  0  0  0  0
   -3.2750    0.5974   -0.7017 H   0  0  0  0  0  0  0  0  0  0  0  0
   -3.2890   -0.0667    0.9485 H   0  0  0  0  0  0  0  0  0  0  0  0
   -1.5074   -0.7591   -1.1644 H   0  0  0  0  0  0  0  0  0  0  0  0
   -1.5516   -1.3351    0.5578 H   0  0  0  0  0  0  0  0  0  0  0  0
    0.8725   -0.6251   -2.2967 H   0  0  0  0  0  0  0  0  0  0  0  0
    3.2146   -0.7713   -0.3077 H   0  0  0  0  0  0  0  0  0  0  0  0
    1.6577    1.8912   -0.7273 H   0  0  0  0  0  0  0  0  0  0  0  0
    2.9120    1.5652    0.5813 H   0  0  0  0  0  0  0  0  0  0  0  0
    1.6306   -0.3285    1.5602 H   0  0  0  0  0  0  0  0  0  0  0  0
  1  2  1  0
  2  3  1  0
  3  4  1  0
  4  5  1  0
  5  6  1  0
  6  7  1  0
  7  8  1  0
  8  9  1  0
  6  4  1  0
  9  7  1  0
  9  4  1  0
  1 10  1  0
  1 11  1  0
  1 12  1  0
  3 13  1  0
  3 14  1  0
  6 15  1  0
  7 16  1  0
  8 17  1  0
  8 18  1  0
  9 19  1  0
M  END
