
     RDKit          3D

 21 22  0  0  0  0  0  0  0  0999 V2000
    3.4510    0.0687   -0.4627 C   0  0  0  0  0  0  0  0  0  0  0  0
    2.0999    0.2947   -0.6633 O   0  0  0  0  0  0  0  0  0  0  0  0
    1.4273   -0.0543    0.4964 C   0  0  0  0  0  0  0  0  0  0  0  0
   -0.0508    0.1650    0.3536 C   0  0  0  0  0  0  0  0  0  0  0  0
   -1.0175   -0.9050    0.7333 C   0  0  0  0  0  0  0  0  0  0  0  0
   -1.9709   -0.3471   -0.3290 C   0  0  0  0  0  0  0  0  0  0  0  0
   -2.9922    0.5297    0.3830 C   0  0  0  0  0  0  0  0  0  0  0  0
   -0.7742    0.4720   -0.8020 C   0  0  0  0  0  0  0  0  0  0  0  0
   -0.4305    1.4517    0.0862 O   0  0  0  0  0  0  0  0  0  0  0  0
    3.9662    0.3576   -1.4099 H   0  0  0  0  0  0  0  0  0  0  0  0
    3.6121   -1.0061   -0.2199 H   0  0  0  0  0  0  0  0  0  0  0  0
    3.8006    0.6654    0.4029 H   0  0  0  0  0  0  0  0  0  0  0  0
    1.5963   -1.1135    0.7892 H   0  0  0  0  0  0  0  0  0  0  0  0
    1.8002    0.5517    1.3743 H   0  0  0  0  0  0  0  0  0  0  0  0
   -1.4113   -0.9084    1.7511 H   0  0  0  0  0  0  0  0  0  0  0  0
   -0.6626   -1.9061    0.3533 H   0  0  0  0  0  0  0  0  0  0  0  0
   -2.3639   -1.0700   -1.0328 H   0  0  0  0  0  0  0  0  0  0  0  0
   -3.6448    1.0273   -0.3429 H   0  0  0  0  0  0  0  0  0  0  0  0
   -3.5418   -0.0473    1.1529 H   0  0  0  0  0  0  0  0  0  0  0  0
   -2.4231    1.3198    0.9343 H   0  0  0  0  0  0  0  0  0  0  0  0
   -0.4698    0.4542   -1.8382 H   0  0  0  0  0  0  0  0  0  0  0  0
  1  2  1  0
  2  3  1  0
  3  4  1  0
  4  5  1  0
  5  6  1  0
  6  7  1  0
  6  8  1  0
  8  9  1  0
  8  4  1  0
  9  4  1  0
  1 10  1  0
  1 11  1  0
  1 12  1  0
  3 13  1  0
  3 14  1  0
  5 15  1  0
  5 16  1  0
  6 17  1  0
  7 18  1  0
  7 19  1  0
  7 20  1  0
  8 21  1  0
M  END
