
     RDKit          3D

 18 18  0  0  0  0  0  0  0  0999 V2000
   -2.7590    0.4173   -0.0635 C   0  0  0  0  0  0  0  0  0  0  0  0
   -1.4300    0.4465   -0.4431 O   0  0  0  0  0  0  0  0  0  0  0  0
   -0.7720   -0.6816   -0.0108 C   0  0  0  0  0  0  0  0  0  0  0  0
    0.6676   -0.7346   -0.3763 C   0  0  0  0  0  0  0  0  0  0  0  0
    1.2217   -1.9173    0.1142 O   0  0  0  0  0  0  0  0  0  0  0  0
    1.4766    0.3945    0.2571 C   0  0  0  0  0  0  0  0  0  0  0  0
    2.2054    1.3378   -0.6145 C   0  0  0  0  0  0  0  0  0  0  0  0
    2.8847    0.1948   -0.1805 O   0  0  0  0  0  0  0  0  0  0  0  0
   -2.8781    0.3661    1.0429 H   0  0  0  0  0  0  0  0  0  0  0  0
   -3.3102   -0.4598   -0.4644 H   0  0  0  0  0  0  0  0  0  0  0  0
   -3.2901    1.3250   -0.4255 H   0  0  0  0  0  0  0  0  0  0  0  0
   -1.2702   -1.5595   -0.4725 H   0  0  0  0  0  0  0  0  0  0  0  0
   -0.8595   -0.8188    1.0846 H   0  0  0  0  0  0  0  0  0  0  0  0
    0.8150   -0.6471   -1.4703 H   0  0  0  0  0  0  0  0  0  0  0  0
    1.4419   -1.8170    1.0873 H   0  0  0  0  0  0  0  0  0  0  0  0
    1.4342    0.5165    1.3624 H   0  0  0  0  0  0  0  0  0  0  0  0
    1.8527    1.3757   -1.6709 H   0  0  0  0  0  0  0  0  0  0  0  0
    2.5695    2.2615   -0.1238 H   0  0  0  0  0  0  0  0  0  0  0  0
  1  2  1  0
  2  3  1  0
  3  4  1  0
  4  5  1  0
  4  6  1  0
  6  7  1  0
  7  8  1  0
  8  6  1  0
  1  9  1  0
  1 10  1  0
  1 11  1  0
  3 12  1  0
  3 13  1  0
  4 14  1  0
  5 15  1  0
  6 16  1  0
  7 17  1  0
  7 18  1  0
M  END
