
     RDKit          3D

 25 24  0  0  0  0  0  0  0  0999 V2000
    3.8352   -0.7682   -0.7443 C   0  0  0  0  0  0  0  0  0  0  0  0
    2.5013   -0.8635   -0.3208 O   0  0  0  0  0  0  0  0  0  0  0  0
    2.0576    0.4314   -0.0742 C   0  0  0  0  0  0  0  0  0  0  0  0
    0.6446    0.4833    0.3865 C   0  0  0  0  0  0  0  0  0  0  0  0
   -0.2374   -0.0517   -0.5385 O   0  0  0  0  0  0  0  0  0  0  0  0
   -1.5411   -0.0100   -0.1266 C   0  0  0  0  0  0  0  0  0  0  0  0
   -2.4113   -0.6202   -1.2156 C   0  0  0  0  0  0  0  0  0  0  0  0
   -1.6782   -0.8382    1.1238 C   0  0  0  0  0  0  0  0  0  0  0  0
   -2.0615    1.3764    0.1292 C   0  0  0  0  0  0  0  0  0  0  0  0
    4.2397   -1.7861   -0.9561 H   0  0  0  0  0  0  0  0  0  0  0  0
    4.4847   -0.3630    0.0721 H   0  0  0  0  0  0  0  0  0  0  0  0
    3.9222   -0.0979   -1.6089 H   0  0  0  0  0  0  0  0  0  0  0  0
    2.2628    1.0211   -0.9786 H   0  0  0  0  0  0  0  0  0  0  0  0
    2.6986    0.8308    0.7506 H   0  0  0  0  0  0  0  0  0  0  0  0
    0.3712    1.5428    0.5528 H   0  0  0  0  0  0  0  0  0  0  0  0
    0.5633   -0.1333    1.3110 H   0  0  0  0  0  0  0  0  0  0  0  0
   -2.1356   -0.0865   -2.1594 H   0  0  0  0  0  0  0  0  0  0  0  0
   -2.2173   -1.7082   -1.3304 H   0  0  0  0  0  0  0  0  0  0  0  0
   -3.4800   -0.4202   -0.9925 H   0  0  0  0  0  0  0  0  0  0  0  0
   -1.5649   -0.1939    2.0142 H   0  0  0  0  0  0  0  0  0  0  0  0
   -0.8595   -1.5881    1.1701 H   0  0  0  0  0  0  0  0  0  0  0  0
   -2.6910   -1.3178    1.1515 H   0  0  0  0  0  0  0  0  0  0  0  0
   -1.5945    1.8892    0.9724 H   0  0  0  0  0  0  0  0  0  0  0  0
   -3.1543    1.2605    0.3835 H   0  0  0  0  0  0  0  0  0  0  0  0
   -1.9545    2.0112   -0.7811 H   0  0  0  0  0  0  0  0  0  0  0  0
  1  2  1  0
  2  3  1  0
  3  4  1  0
  4  5  1  0
  5  6  1  0
  6  7  1  0
  6  8  1  0
  6  9  1  0
  1 10  1  0
  1 11  1  0
  1 12  1  0
  3 13  1  0
  3 14  1  0
  4 15  1  0
  4 16  1  0
  7 17  1  0
  7 18  1  0
  7 19  1  0
  8 20  1  0
  8 21  1  0
  8 22  1  0
  9 23  1  0
  9 24  1  0
  9 25  1  0
M  END
