
     RDKit          3D

 23 22  0  0  0  0  0  0  0  0999 V2000
    3.0501    0.2941   -0.5353 C   0  0  0  0  0  0  0  0  0  0  0  0
    1.8349   -0.3215   -0.3052 O   0  0  0  0  0  0  0  0  0  0  0  0
    1.1814    0.2233    0.7851 C   0  0  0  0  0  0  0  0  0  0  0  0
   -0.1421   -0.4286    1.0561 C   0  0  0  0  0  0  0  0  0  0  0  0
    0.1332   -1.7939    1.3049 O   0  0  0  0  0  0  0  0  0  0  0  0
   -1.0856   -0.3932   -0.1041 C   0  0  0  0  0  0  0  0  0  0  0  0
   -2.3681   -1.0996    0.3600 C   0  0  0  0  0  0  0  0  0  0  0  0
   -1.4828    0.9818   -0.5341 C   0  0  0  0  0  0  0  0  0  0  0  0
   -0.4507    1.7878   -0.9312 O   0  0  0  0  0  0  0  0  0  0  0  0
    3.7402    0.2058    0.3227 H   0  0  0  0  0  0  0  0  0  0  0  0
    2.9161    1.3985   -0.6977 H   0  0  0  0  0  0  0  0  0  0  0  0
    3.5131   -0.1795   -1.4346 H   0  0  0  0  0  0  0  0  0  0  0  0
    1.8291   -0.0004    1.6832 H   0  0  0  0  0  0  0  0  0  0  0  0
    1.1591    1.3050    0.6906 H   0  0  0  0  0  0  0  0  0  0  0  0
   -0.6296    0.0403    1.9285 H   0  0  0  0  0  0  0  0  0  0  0  0
    0.2410   -2.2329    0.4195 H   0  0  0  0  0  0  0  0  0  0  0  0
   -0.6481   -0.9839   -0.9547 H   0  0  0  0  0  0  0  0  0  0  0  0
   -3.1813   -0.7421   -0.2764 H   0  0  0  0  0  0  0  0  0  0  0  0
   -2.2559   -2.2115    0.2561 H   0  0  0  0  0  0  0  0  0  0  0  0
   -2.5465   -0.8226    1.4207 H   0  0  0  0  0  0  0  0  0  0  0  0
   -2.1652    0.8581   -1.4166 H   0  0  0  0  0  0  0  0  0  0  0  0
   -2.1164    1.4212    0.2619 H   0  0  0  0  0  0  0  0  0  0  0  0
   -0.5260    2.6940   -0.5148 H   0  0  0  0  0  0  0  0  0  0  0  0
  1  2  1  0
  2  3  1  0
  3  4  1  0
  4  5  1  0
  4  6  1  0
  6  7  1  0
  6  8  1  0
  8  9  1  0
  1 10  1  0
  1 11  1  0
  1 12  1  0
  3 13  1  0
  3 14  1  0
  4 15  1  0
  5 16  1  0
  6 17  1  0
  7 18  1  0
  7 19  1  0
  7 20  1  0
  8 21  1  0
  8 22  1  0
  9 23  1  0
M  END
