
     RDKit          3D

 21 22  0  0  0  0  0  0  0  0999 V2000
    3.0648    0.4450   -0.2996 C   0  0  0  0  0  0  0  0  0  0  0  0
    1.7315    0.7253    0.0409 O   0  0  0  0  0  0  0  0  0  0  0  0
    1.0160   -0.4652   -0.0201 C   0  0  0  0  0  0  0  0  0  0  0  0
   -0.4235   -0.2796    0.3263 C   0  0  0  0  0  0  0  0  0  0  0  0
   -1.2954   -1.4784    0.2977 C   0  0  0  0  0  0  0  0  0  0  0  0
   -2.3626   -0.7166   -0.4877 C   0  0  0  0  0  0  0  0  0  0  0  0
   -1.3661    0.4162   -0.6000 C   0  0  0  0  0  0  0  0  0  0  0  0
   -0.9841    1.0383    0.6954 C   0  0  0  0  0  0  0  0  0  0  0  0
   -0.2347    2.1803    0.6120 O   0  0  0  0  0  0  0  0  0  0  0  0
    3.1162    0.0319   -1.3063 H   0  0  0  0  0  0  0  0  0  0  0  0
    3.6464    1.4083   -0.3132 H   0  0  0  0  0  0  0  0  0  0  0  0
    3.5190   -0.2610    0.4389 H   0  0  0  0  0  0  0  0  0  0  0  0
    1.4647   -1.1312    0.7698 H   0  0  0  0  0  0  0  0  0  0  0  0
    1.1898   -0.9792   -0.9804 H   0  0  0  0  0  0  0  0  0  0  0  0
   -1.6820   -1.8777    1.2306 H   0  0  0  0  0  0  0  0  0  0  0  0
   -0.8627   -2.2522   -0.3980 H   0  0  0  0  0  0  0  0  0  0  0  0
   -3.1936   -0.3888    0.1899 H   0  0  0  0  0  0  0  0  0  0  0  0
   -2.6826   -1.1814   -1.4187 H   0  0  0  0  0  0  0  0  0  0  0  0
   -1.0545    0.7983   -1.5657 H   0  0  0  0  0  0  0  0  0  0  0  0
   -1.7498    1.0411    1.4904 H   0  0  0  0  0  0  0  0  0  0  0  0
   -0.8568    2.9265    0.3500 H   0  0  0  0  0  0  0  0  0  0  0  0
  1  2  1  0
  2  3  1  0
  3  4  1  0
  4  5  1  0
  5  6  1  0
  6  7  1  0
  7  8  1  0
  8  9  1  0
  7  4  1  0
  8  4  1  0
  1 10  1  0
  1 11  1  0
  1 12  1  0
  3 13  1  0
  3 14  1  0
  5 15  1  0
  5 16  1  0
  6 17  1  0
  6 18  1  0
  7 19  1  0
  8 20  1  0
  9 21  1  0
M  END
