
     RDKit          3D

 23 23  0  0  0  0  0  0  0  0999 V2000
   -2.3644    1.3606   -1.4488 C   0  0  0  0  0  0  0  0  0  0  0  0
   -1.2936    1.0219   -0.6376 O   0  0  0  0  0  0  0  0  0  0  0  0
   -1.2413   -0.3676   -0.5078 C   0  0  0  0  0  0  0  0  0  0  0  0
   -0.0877   -0.7881    0.3696 C   0  0  0  0  0  0  0  0  0  0  0  0
    1.2641   -0.3564   -0.1554 C   0  0  0  0  0  0  0  0  0  0  0  0
    1.3309    1.0496   -0.2649 O   0  0  0  0  0  0  0  0  0  0  0  0
    2.5680    1.4078   -0.7431 C   0  0  0  0  0  0  0  0  0  0  0  0
   -0.1554   -2.0539    1.1246 C   0  0  0  0  0  0  0  0  0  0  0  0
   -0.2224   -0.7415    1.8519 C   0  0  0  0  0  0  0  0  0  0  0  0
   -2.4127    2.4607   -1.5566 H   0  0  0  0  0  0  0  0  0  0  0  0
   -3.2859    0.9248   -1.0031 H   0  0  0  0  0  0  0  0  0  0  0  0
   -2.2620    0.8647   -2.4558 H   0  0  0  0  0  0  0  0  0  0  0  0
   -2.2200   -0.7460   -0.1223 H   0  0  0  0  0  0  0  0  0  0  0  0
   -1.1471   -0.7827   -1.5318 H   0  0  0  0  0  0  0  0  0  0  0  0
    1.3966   -0.8393   -1.1399 H   0  0  0  0  0  0  0  0  0  0  0  0
    2.0966   -0.6939    0.4966 H   0  0  0  0  0  0  0  0  0  0  0  0
    2.6231    2.5130   -0.8301 H   0  0  0  0  0  0  0  0  0  0  0  0
    3.3808    1.1210   -0.0217 H   0  0  0  0  0  0  0  0  0  0  0  0
    2.8153    0.9301   -1.7223 H   0  0  0  0  0  0  0  0  0  0  0  0
    0.7694   -2.6679    1.1711 H   0  0  0  0  0  0  0  0  0  0  0  0
   -1.0776   -2.6569    1.1949 H   0  0  0  0  0  0  0  0  0  0  0  0
   -1.1546   -0.4198    2.3420 H   0  0  0  0  0  0  0  0  0  0  0  0
    0.6800   -0.5402    2.4809 H   0  0  0  0  0  0  0  0  0  0  0  0
  1  2  1  0
  2  3  1  0
  3  4  1  0
  4  5  1  0
  5  6  1  0
  6  7  1  0
  4  8  1  0
  8  9  1  0
  9  4  1  0
  1 10  1  0
  1 11  1  0
  1 12  1  0
  3 13  1  0
  3 14  1  0
  5 15  1  0
  5 16  1  0
  7 17  1  0
  7 18  1  0
  7 19  1  0
  8 20  1  0
  8 21  1  0
  9 22  1  0
  9 23  1  0
M  END
