
     RDKit          3D

 19 18  0  0  0  0  0  0  0  0999 V2000
    2.6166    1.3467    0.7633 C   0  0  0  0  0  0  0  0  0  0  0  0
    1.7551    0.2435    0.8899 O   0  0  0  0  0  0  0  0  0  0  0  0
    1.8198   -0.4439   -0.3127 C   0  0  0  0  0  0  0  0  0  0  0  0
    0.9273   -1.6706   -0.3114 C   0  0  0  0  0  0  0  0  0  0  0  0
   -0.4502   -1.2416   -0.0893 C   0  0  0  0  0  0  0  0  0  0  0  0
   -1.5978   -0.8939    0.0803 C   0  0  0  0  0  0  0  0  0  0  0  0
   -2.9658   -0.4850    0.2931 C   0  0  0  0  0  0  0  0  0  0  0  0
   -3.2687    0.8500    0.8796 C   0  0  0  0  0  0  0  0  0  0  0  0
   -3.9459   -1.2175    0.0012 O   0  0  0  0  0  0  0  0  0  0  0  0
    2.6430    1.9681    1.6695 H   0  0  0  0  0  0  0  0  0  0  0  0
    3.6512    1.0159    0.5171 H   0  0  0  0  0  0  0  0  0  0  0  0
    2.2493    1.9411   -0.1153 H   0  0  0  0  0  0  0  0  0  0  0  0
    2.8827   -0.7260   -0.4644 H   0  0  0  0  0  0  0  0  0  0  0  0
    1.5507    0.2605   -1.1164 H   0  0  0  0  0  0  0  0  0  0  0  0
    1.0279   -2.1200   -1.3311 H   0  0  0  0  0  0  0  0  0  0  0  0
    1.2381   -2.4048    0.4338 H   0  0  0  0  0  0  0  0  0  0  0  0
   -2.3342    1.4349    1.0520 H   0  0  0  0  0  0  0  0  0  0  0  0
   -3.9669    1.4267    0.2054 H   0  0  0  0  0  0  0  0  0  0  0  0
   -3.8321    0.7157    1.8325 H   0  0  0  0  0  0  0  0  0  0  0  0
  1  2  1  0
  2  3  1  0
  3  4  1  0
  4  5  1  0
  5  6  3  0
  6  7  1  0
  7  8  1  0
  7  9  2  0
  1 10  1  0
  1 11  1  0
  1 12  1  0
  3 13  1  0
  3 14  1  0
  4 15  1  0
  4 16  1  0
  8 17  1  0
  8 18  1  0
  8 19  1  0
M  END
