
     RDKit          3D

 23 23  0  0  0  0  0  0  0  0999 V2000
    3.6785    0.1635   -0.0885 C   0  0  0  0  0  0  0  0  0  0  0  0
    2.3689    0.2221   -0.5125 O   0  0  0  0  0  0  0  0  0  0  0  0
    1.5052   -0.2726    0.4819 C   0  0  0  0  0  0  0  0  0  0  0  0
    0.1048   -0.1947   -0.0081 C   0  0  0  0  0  0  0  0  0  0  0  0
   -0.5755   -1.3260   -0.0946 C   0  0  0  0  0  0  0  0  0  0  0  0
   -1.9682   -1.2759   -0.5784 C   0  0  0  0  0  0  0  0  0  0  0  0
   -2.6336   -0.0690   -0.0082 C   0  0  0  0  0  0  0  0  0  0  0  0
   -1.9279    1.2170   -0.3087 C   0  0  0  0  0  0  0  0  0  0  0  0
   -0.4376    1.1149   -0.3630 C   0  0  0  0  0  0  0  0  0  0  0  0
    3.8060    0.7746    0.8305 H   0  0  0  0  0  0  0  0  0  0  0  0
    4.3128    0.5450   -0.9250 H   0  0  0  0  0  0  0  0  0  0  0  0
    3.9974   -0.8864    0.1346 H   0  0  0  0  0  0  0  0  0  0  0  0
    1.5603    0.4068    1.3725 H   0  0  0  0  0  0  0  0  0  0  0  0
    1.8064   -1.3024    0.7536 H   0  0  0  0  0  0  0  0  0  0  0  0
   -0.1236   -2.2843    0.1843 H   0  0  0  0  0  0  0  0  0  0  0  0
   -1.9976   -1.3104   -1.6842 H   0  0  0  0  0  0  0  0  0  0  0  0
   -2.4996   -2.1726   -0.1632 H   0  0  0  0  0  0  0  0  0  0  0  0
   -3.6569    0.0047   -0.4532 H   0  0  0  0  0  0  0  0  0  0  0  0
   -2.7723   -0.2094    1.0822 H   0  0  0  0  0  0  0  0  0  0  0  0
   -2.3217    1.6428   -1.2597 H   0  0  0  0  0  0  0  0  0  0  0  0
   -2.1946    1.9414    0.4894 H   0  0  0  0  0  0  0  0  0  0  0  0
    0.0511    1.8969    0.2905 H   0  0  0  0  0  0  0  0  0  0  0  0
   -0.0823    1.3741   -1.3966 H   0  0  0  0  0  0  0  0  0  0  0  0
  1  2  1  0
  2  3  1  0
  3  4  1  0
  4  5  2  0
  5  6  1  0
  6  7  1  0
  7  8  1  0
  8  9  1  0
  9  4  1  0
  1 10  1  0
  1 11  1  0
  1 12  1  0
  3 13  1  0
  3 14  1  0
  5 15  1  0
  6 16  1  0
  6 17  1  0
  7 18  1  0
  7 19  1  0
  8 20  1  0
  8 21  1  0
  9 22  1  0
  9 23  1  0
M  END
