
     RDKit          3D

 25 25  0  0  0  0  0  0  0  0999 V2000
    3.6689    0.8047    0.3351 C   0  0  0  0  0  0  0  0  0  0  0  0
    2.9766    0.1496    1.3397 O   0  0  0  0  0  0  0  0  0  0  0  0
    1.9335   -0.6108    0.8785 C   0  0  0  0  0  0  0  0  0  0  0  0
    0.8951    0.1951    0.1440 C   0  0  0  0  0  0  0  0  0  0  0  0
   -0.2465   -0.6769   -0.3395 C   0  0  0  0  0  0  0  0  0  0  0  0
   -1.2611    0.1863   -1.0711 C   0  0  0  0  0  0  0  0  0  0  0  0
   -1.9900    0.3249    0.2633 C   0  0  0  0  0  0  0  0  0  0  0  0
   -3.4635    0.2643    0.0476 C   0  0  0  0  0  0  0  0  0  0  0  0
   -1.3147   -0.9476    0.6955 C   0  0  0  0  0  0  0  0  0  0  0  0
    3.0640    1.5011   -0.2422 H   0  0  0  0  0  0  0  0  0  0  0  0
    4.5209    1.3744    0.7794 H   0  0  0  0  0  0  0  0  0  0  0  0
    4.0998   -0.0044   -0.3181 H   0  0  0  0  0  0  0  0  0  0  0  0
    1.4379   -1.1130    1.7322 H   0  0  0  0  0  0  0  0  0  0  0  0
    2.3234   -1.4212    0.2189 H   0  0  0  0  0  0  0  0  0  0  0  0
    0.5729    1.0747    0.7091 H   0  0  0  0  0  0  0  0  0  0  0  0
    1.3844    0.5649   -0.8056 H   0  0  0  0  0  0  0  0  0  0  0  0
    0.1285   -1.5443   -0.8854 H   0  0  0  0  0  0  0  0  0  0  0  0
   -0.8871    1.1420   -1.4492 H   0  0  0  0  0  0  0  0  0  0  0  0
   -1.8247   -0.4420   -1.7823 H   0  0  0  0  0  0  0  0  0  0  0  0
   -1.6821    1.1696    0.8772 H   0  0  0  0  0  0  0  0  0  0  0  0
   -4.0369    0.8391    0.8294 H   0  0  0  0  0  0  0  0  0  0  0  0
   -3.8746   -0.7531   -0.0434 H   0  0  0  0  0  0  0  0  0  0  0  0
   -3.6832    0.7874   -0.9183 H   0  0  0  0  0  0  0  0  0  0  0  0
   -1.8464   -1.8877    0.4333 H   0  0  0  0  0  0  0  0  0  0  0  0
   -0.8954   -0.9771    1.6996 H   0  0  0  0  0  0  0  0  0  0  0  0
  1  2  1  0
  2  3  1  0
  3  4  1  0
  4  5  1  0
  5  6  1  0
  6  7  1  0
  7  8  1  0
  7  9  1  0
  9  5  1  0
  1 10  1  0
  1 11  1  0
  1 12  1  0
  3 13  1  0
  3 14  1  0
  4 15  1  0
  4 16  1  0
  5 17  1  0
  6 18  1  0
  6 19  1  0
  7 20  1  0
  8 21  1  0
  8 22  1  0
  8 23  1  0
  9 24  1  0
  9 25  1  0
M  END
