
     RDKit          3D

 15 14  0  0  0  0  0  0  0  0999 V2000
    2.3426    0.5905    0.2442 C   0  0  0  0  0  0  0  0  0  0  0  0
    1.6756   -0.3738    0.9584 O   0  0  0  0  0  0  0  0  0  0  0  0
    0.5016   -0.8325    0.4437 C   0  0  0  0  0  0  0  0  0  0  0  0
   -0.5310    0.2172    0.3035 C   0  0  0  0  0  0  0  0  0  0  0  0
   -0.4150    1.3820    0.6132 O   0  0  0  0  0  0  0  0  0  0  0  0
   -1.8359   -0.2035   -0.2739 C   0  0  0  0  0  0  0  0  0  0  0  0
   -2.7380    0.8439   -0.3667 O   0  0  0  0  0  0  0  0  0  0  0  0
    1.8157    1.5258    0.0730 H   0  0  0  0  0  0  0  0  0  0  0  0
    2.6735    0.1643   -0.7275 H   0  0  0  0  0  0  0  0  0  0  0  0
    3.2588    0.8451    0.8562 H   0  0  0  0  0  0  0  0  0  0  0  0
    0.1203   -1.6481    1.1281 H   0  0  0  0  0  0  0  0  0  0  0  0
    0.6056   -1.3030   -0.5628 H   0  0  0  0  0  0  0  0  0  0  0  0
   -1.6002   -0.6563   -1.2694 H   0  0  0  0  0  0  0  0  0  0  0  0
   -2.2256   -1.0305    0.3801 H   0  0  0  0  0  0  0  0  0  0  0  0
   -3.6479    0.4787   -0.4366 H   0  0  0  0  0  0  0  0  0  0  0  0
  1  2  1  0
  2  3  1  0
  3  4  1  0
  4  5  2  0
  4  6  1  0
  6  7  1  0
  1  8  1  0
  1  9  1  0
  1 10  1  0
  3 11  1  0
  3 12  1  0
  6 13  1  0
  6 14  1  0
  7 15  1  0
M  END
