
     RDKit          3D

 21 20  0  0  0  0  0  0  0  0999 V2000
   -2.3229   -0.0034   -2.1970 C   0  0  0  0  0  0  0  0  0  0  0  0
   -1.6284   -0.3416   -1.0418 O   0  0  0  0  0  0  0  0  0  0  0  0
   -1.3597    0.7730   -0.2493 C   0  0  0  0  0  0  0  0  0  0  0  0
   -0.6167    0.3020    0.9560 C   0  0  0  0  0  0  0  0  0  0  0  0
   -0.2487    1.3873    1.9192 C   0  0  0  0  0  0  0  0  0  0  0  0
    0.6422   -0.3254    0.5098 C   0  0  0  0  0  0  0  0  0  0  0  0
    1.6695   -0.8436    0.1235 C   0  0  0  0  0  0  0  0  0  0  0  0
    2.9260   -1.4581   -0.3264 C   0  0  0  0  0  0  0  0  0  0  0  0
    2.7613   -2.0149   -1.6055 O   0  0  0  0  0  0  0  0  0  0  0  0
   -2.5113   -0.9058   -2.7862 H   0  0  0  0  0  0  0  0  0  0  0  0
   -1.7201    0.7192   -2.7612 H   0  0  0  0  0  0  0  0  0  0  0  0
   -3.2979    0.4878   -1.9433 H   0  0  0  0  0  0  0  0  0  0  0  0
   -2.3039    1.2884    0.0388 H   0  0  0  0  0  0  0  0  0  0  0  0
   -0.7235    1.4649   -0.8602 H   0  0  0  0  0  0  0  0  0  0  0  0
   -1.2608   -0.4275    1.4902 H   0  0  0  0  0  0  0  0  0  0  0  0
    0.7934    1.7407    1.7760 H   0  0  0  0  0  0  0  0  0  0  0  0
   -0.9321    2.2435    1.7491 H   0  0  0  0  0  0  0  0  0  0  0  0
   -0.4211    1.0587    2.9681 H   0  0  0  0  0  0  0  0  0  0  0  0
    3.7175   -0.6938   -0.3071 H   0  0  0  0  0  0  0  0  0  0  0  0
    3.2307   -2.2993    0.3434 H   0  0  0  0  0  0  0  0  0  0  0  0
    3.6066   -2.1522   -2.0624 H   0  0  0  0  0  0  0  0  0  0  0  0
  1  2  1  0
  2  3  1  0
  3  4  1  0
  4  5  1  0
  4  6  1  0
  6  7  3  0
  7  8  1  0
  8  9  1  0
  1 10  1  0
  1 11  1  0
  1 12  1  0
  3 13  1  0
  3 14  1  0
  4 15  1  0
  5 16  1  0
  5 17  1  0
  5 18  1  0
  8 19  1  0
  8 20  1  0
  9 21  1  0
M  END
