
     RDKit          3D

 21 20  0  0  0  0  0  0  0  0999 V2000
    3.1918   -0.3457    1.6109 C   0  0  0  0  0  0  0  0  0  0  0  0
    3.1856   -0.2511    0.2518 O   0  0  0  0  0  0  0  0  0  0  0  0
    2.1610    0.4232   -0.3351 C   0  0  0  0  0  0  0  0  0  0  0  0
    0.8134   -0.1438   -0.1087 C   0  0  0  0  0  0  0  0  0  0  0  0
    0.6913   -1.1920    0.5581 O   0  0  0  0  0  0  0  0  0  0  0  0
   -0.3434    0.4251   -0.5986 O   0  0  0  0  0  0  0  0  0  0  0  0
   -1.6279   -0.0698   -0.4123 C   0  0  0  0  0  0  0  0  0  0  0  0
   -2.3019   -0.5111   -1.6939 C   0  0  0  0  0  0  0  0  0  0  0  0
   -2.5480    0.8037    0.3617 C   0  0  0  0  0  0  0  0  0  0  0  0
    4.1091   -0.9301    1.8965 H   0  0  0  0  0  0  0  0  0  0  0  0
    2.3319   -0.7960    2.0978 H   0  0  0  0  0  0  0  0  0  0  0  0
    3.3332    0.6678    2.0696 H   0  0  0  0  0  0  0  0  0  0  0  0
    2.3330    0.3477   -1.4517 H   0  0  0  0  0  0  0  0  0  0  0  0
    2.1769    1.5247   -0.1414 H   0  0  0  0  0  0  0  0  0  0  0  0
   -1.5117   -1.0080    0.2081 H   0  0  0  0  0  0  0  0  0  0  0  0
   -1.9666   -1.5418   -1.9349 H   0  0  0  0  0  0  0  0  0  0  0  0
   -3.4093   -0.5634   -1.5028 H   0  0  0  0  0  0  0  0  0  0  0  0
   -2.1609    0.1973   -2.5191 H   0  0  0  0  0  0  0  0  0  0  0  0
   -3.3635    0.1462    0.7755 H   0  0  0  0  0  0  0  0  0  0  0  0
   -3.0544    1.5799   -0.2211 H   0  0  0  0  0  0  0  0  0  0  0  0
   -2.0394    1.2371    1.2561 H   0  0  0  0  0  0  0  0  0  0  0  0
  1  2  1  0
  2  3  1  0
  3  4  1  0
  4  5  2  0
  4  6  1  0
  6  7  1  0
  7  8  1  0
  7  9  1  0
  1 10  1  0
  1 11  1  0
  1 12  1  0
  3 13  1  0
  3 14  1  0
  7 15  1  0
  8 16  1  0
  8 17  1  0
  8 18  1  0
  9 19  1  0
  9 20  1  0
  9 21  1  0
M  END
