
     RDKit          3D

 25 25  0  0  0  0  0  0  0  0999 V2000
    3.4074   -0.3555    0.4792 C   0  0  0  0  0  0  0  0  0  0  0  0
    2.3219    0.1063   -0.2391 O   0  0  0  0  0  0  0  0  0  0  0  0
    1.1629   -0.6318    0.0009 C   0  0  0  0  0  0  0  0  0  0  0  0
    0.0801    0.0011   -0.8564 C   0  0  0  0  0  0  0  0  0  0  0  0
   -1.2988   -0.5510   -0.8375 C   0  0  0  0  0  0  0  0  0  0  0  0
   -1.4845   -1.7791   -0.0184 C   0  0  0  0  0  0  0  0  0  0  0  0
   -1.0223    0.7731   -0.2238 C   0  0  0  0  0  0  0  0  0  0  0  0
   -1.1577    0.8661    1.2599 C   0  0  0  0  0  0  0  0  0  0  0  0
   -1.3907    2.0387   -0.9700 C   0  0  0  0  0  0  0  0  0  0  0  0
    3.1401   -0.2768    1.5600 H   0  0  0  0  0  0  0  0  0  0  0  0
    4.2499    0.3290    0.2869 H   0  0  0  0  0  0  0  0  0  0  0  0
    3.6688   -1.4069    0.2473 H   0  0  0  0  0  0  0  0  0  0  0  0
    1.3039   -1.7167   -0.2630 H   0  0  0  0  0  0  0  0  0  0  0  0
    0.9364   -0.6052    1.0691 H   0  0  0  0  0  0  0  0  0  0  0  0
    0.4475    0.2902   -1.8620 H   0  0  0  0  0  0  0  0  0  0  0  0
   -1.9218   -0.5144   -1.7567 H   0  0  0  0  0  0  0  0  0  0  0  0
   -1.0194   -1.7416    0.9785 H   0  0  0  0  0  0  0  0  0  0  0  0
   -2.5481   -2.1143    0.0424 H   0  0  0  0  0  0  0  0  0  0  0  0
   -0.9558   -2.6206   -0.5522 H   0  0  0  0  0  0  0  0  0  0  0  0
   -1.7274    1.7817    1.5620 H   0  0  0  0  0  0  0  0  0  0  0  0
   -1.7572    0.0204    1.6943 H   0  0  0  0  0  0  0  0  0  0  0  0
   -0.1851    0.9394    1.7883 H   0  0  0  0  0  0  0  0  0  0  0  0
   -0.7312    2.8501   -0.5457 H   0  0  0  0  0  0  0  0  0  0  0  0
   -1.0979    1.9679   -2.0378 H   0  0  0  0  0  0  0  0  0  0  0  0
   -2.4211    2.3500   -0.8062 H   0  0  0  0  0  0  0  0  0  0  0  0
  1  2  1  0
  2  3  1  0
  3  4  1  0
  4  5  1  0
  5  6  1  0
  5  7  1  0
  7  8  1  0
  7  9  1  0
  7  4  1  0
  1 10  1  0
  1 11  1  0
  1 12  1  0
  3 13  1  0
  3 14  1  0
  4 15  1  0
  5 16  1  0
  6 17  1  0
  6 18  1  0
  6 19  1  0
  8 20  1  0
  8 21  1  0
  8 22  1  0
  9 23  1  0
  9 24  1  0
  9 25  1  0
M  END
