
     RDKit          3D

 20 20  0  0  0  0  0  0  0  0999 V2000
   -3.0349    0.0203    0.0853 C   0  0  0  0  0  0  0  0  0  0  0  0
   -2.1950    0.6861    0.9613 O   0  0  0  0  0  0  0  0  0  0  0  0
   -1.0402   -0.0625    1.1670 C   0  0  0  0  0  0  0  0  0  0  0  0
   -0.3309   -0.2638   -0.1463 C   0  0  0  0  0  0  0  0  0  0  0  0
    0.0864    1.0094   -0.8261 C   0  0  0  0  0  0  0  0  0  0  0  0
    1.1082    0.0870   -0.2201 C   0  0  0  0  0  0  0  0  0  0  0  0
    1.9421   -0.5158   -1.1338 O   0  0  0  0  0  0  0  0  0  0  0  0
    3.2272   -0.5606   -0.6247 C   0  0  0  0  0  0  0  0  0  0  0  0
   -2.4922   -0.1106   -0.8680 H   0  0  0  0  0  0  0  0  0  0  0  0
   -3.9985    0.5465   -0.0518 H   0  0  0  0  0  0  0  0  0  0  0  0
   -3.2258   -1.0009    0.4899 H   0  0  0  0  0  0  0  0  0  0  0  0
   -0.3857    0.5505    1.8490 H   0  0  0  0  0  0  0  0  0  0  0  0
   -1.2447   -1.0207    1.6847 H   0  0  0  0  0  0  0  0  0  0  0  0
   -0.7258   -1.1160   -0.7403 H   0  0  0  0  0  0  0  0  0  0  0  0
   -0.0604    1.9770   -0.3334 H   0  0  0  0  0  0  0  0  0  0  0  0
   -0.0766    1.0117   -1.9212 H   0  0  0  0  0  0  0  0  0  0  0  0
    1.5634    0.4197    0.7163 H   0  0  0  0  0  0  0  0  0  0  0  0
    3.9337   -1.0472   -1.3467 H   0  0  0  0  0  0  0  0  0  0  0  0
    3.6558    0.4636   -0.4641 H   0  0  0  0  0  0  0  0  0  0  0  0
    3.2939   -1.0737    0.3542 H   0  0  0  0  0  0  0  0  0  0  0  0
  1  2  1  0
  2  3  1  0
  3  4  1  0
  4  5  1  0
  5  6  1  0
  6  7  1  0
  7  8  1  0
  6  4  1  0
  1  9  1  0
  1 10  1  0
  1 11  1  0
  3 12  1  0
  3 13  1  0
  4 14  1  0
  5 15  1  0
  5 16  1  0
  6 17  1  0
  8 18  1  0
  8 19  1  0
  8 20  1  0
M  END
