
     RDKit          3D

 21 22  0  0  0  0  0  0  0  0999 V2000
    2.4868    0.7054    0.5659 C   0  0  0  0  0  0  0  0  0  0  0  0
    2.2408    0.3929   -0.7482 O   0  0  0  0  0  0  0  0  0  0  0  0
    0.9353    0.4059   -1.1528 C   0  0  0  0  0  0  0  0  0  0  0  0
    0.0894   -0.6013   -0.4791 C   0  0  0  0  0  0  0  0  0  0  0  0
    0.4210   -1.9504   -0.6376 O   0  0  0  0  0  0  0  0  0  0  0  0
    0.0630   -1.3868    0.5871 C   0  0  0  0  0  0  0  0  0  0  0  0
   -1.4500   -1.1792    0.8227 C   0  0  0  0  0  0  0  0  0  0  0  0
   -1.4318   -0.3871   -0.4654 C   0  0  0  0  0  0  0  0  0  0  0  0
   -1.8411    1.0318   -0.2210 C   0  0  0  0  0  0  0  0  0  0  0  0
    3.5988    0.6517    0.7214 H   0  0  0  0  0  0  0  0  0  0  0  0
    2.1206    1.7442    0.8255 H   0  0  0  0  0  0  0  0  0  0  0  0
    2.0626    0.0446    1.3115 H   0  0  0  0  0  0  0  0  0  0  0  0
    0.5103    1.4528   -1.0559 H   0  0  0  0  0  0  0  0  0  0  0  0
    0.9622    0.2584   -2.2797 H   0  0  0  0  0  0  0  0  0  0  0  0
    0.5670   -1.6960    1.4923 H   0  0  0  0  0  0  0  0  0  0  0  0
   -1.5663   -0.5616    1.7499 H   0  0  0  0  0  0  0  0  0  0  0  0
   -1.9938   -2.1255    0.8018 H   0  0  0  0  0  0  0  0  0  0  0  0
   -1.9686   -0.9304   -1.2635 H   0  0  0  0  0  0  0  0  0  0  0  0
   -1.3667    1.3462    0.7485 H   0  0  0  0  0  0  0  0  0  0  0  0
   -2.9304    1.0423   -0.0375 H   0  0  0  0  0  0  0  0  0  0  0  0
   -1.5092    1.7420   -0.9911 H   0  0  0  0  0  0  0  0  0  0  0  0
  1  2  1  0
  2  3  1  0
  3  4  1  0
  4  5  1  0
  5  6  1  0
  6  7  1  0
  7  8  1  0
  8  9  1  0
  6  4  1  0
  8  4  1  0
  1 10  1  0
  1 11  1  0
  1 12  1  0
  3 13  1  0
  3 14  1  0
  6 15  1  0
  7 16  1  0
  7 17  1  0
  8 18  1  0
  9 19  1  0
  9 20  1  0
  9 21  1  0
M  END
