
     RDKit          3D

 23 23  0  0  0  0  0  0  0  0999 V2000
    2.9459   -0.1143   -0.1231 C   0  0  0  0  0  0  0  0  0  0  0  0
    2.0253   -0.7493   -0.9110 O   0  0  0  0  0  0  0  0  0  0  0  0
    0.7518   -0.8679   -0.4419 C   0  0  0  0  0  0  0  0  0  0  0  0
   -0.0003    0.4152   -0.3308 C   0  0  0  0  0  0  0  0  0  0  0  0
   -1.4528    0.3166    0.1846 C   0  0  0  0  0  0  0  0  0  0  0  0
   -2.2760   -0.5445   -0.7176 C   0  0  0  0  0  0  0  0  0  0  0  0
   -1.3713   -0.3199    1.5523 C   0  0  0  0  0  0  0  0  0  0  0  0
    0.4418    1.6413   -0.9181 C   0  0  0  0  0  0  0  0  0  0  0  0
    0.6549    1.4505    0.4809 O   0  0  0  0  0  0  0  0  0  0  0  0
    3.0503   -0.6522    0.8554 H   0  0  0  0  0  0  0  0  0  0  0  0
    2.8314    0.9506    0.0263 H   0  0  0  0  0  0  0  0  0  0  0  0
    3.9493   -0.2798   -0.6410 H   0  0  0  0  0  0  0  0  0  0  0  0
    0.7333   -1.4194    0.5586 H   0  0  0  0  0  0  0  0  0  0  0  0
    0.1575   -1.5397   -1.1450 H   0  0  0  0  0  0  0  0  0  0  0  0
   -1.8196    1.3369    0.2756 H   0  0  0  0  0  0  0  0  0  0  0  0
   -2.5175   -1.5407   -0.2975 H   0  0  0  0  0  0  0  0  0  0  0  0
   -1.7646   -0.6882   -1.6962 H   0  0  0  0  0  0  0  0  0  0  0  0
   -3.2662   -0.0262   -0.8513 H   0  0  0  0  0  0  0  0  0  0  0  0
   -1.2661   -1.4376    1.4712 H   0  0  0  0  0  0  0  0  0  0  0  0
   -0.5011    0.0210    2.1317 H   0  0  0  0  0  0  0  0  0  0  0  0
   -2.2966   -0.0605    2.1324 H   0  0  0  0  0  0  0  0  0  0  0  0
   -0.3604    2.4126   -1.1622 H   0  0  0  0  0  0  0  0  0  0  0  0
    1.3512    1.6954   -1.5077 H   0  0  0  0  0  0  0  0  0  0  0  0
  1  2  1  0
  2  3  1  0
  3  4  1  0
  4  5  1  0
  5  6  1  0
  5  7  1  0
  4  8  1  0
  8  9  1  0
  9  4  1  0
  1 10  1  0
  1 11  1  0
  1 12  1  0
  3 13  1  0
  3 14  1  0
  5 15  1  0
  6 16  1  0
  6 17  1  0
  6 18  1  0
  7 19  1  0
  7 20  1  0
  7 21  1  0
  8 22  1  0
  8 23  1  0
M  END
