
     RDKit          3D

 18 17  0  0  0  0  0  0  0  0999 V2000
    3.0433    0.4981   -0.0092 C   0  0  0  0  0  0  0  0  0  0  0  0
    2.0472   -0.4039    0.3738 O   0  0  0  0  0  0  0  0  0  0  0  0
    0.8155   -0.0730   -0.1265 C   0  0  0  0  0  0  0  0  0  0  0  0
   -0.2021   -1.0980    0.3417 C   0  0  0  0  0  0  0  0  0  0  0  0
   -1.5520   -0.7868   -0.1879 C   0  0  0  0  0  0  0  0  0  0  0  0
   -2.0447   -1.4685   -1.0458 O   0  0  0  0  0  0  0  0  0  0  0  0
   -2.2955    0.3740    0.3435 C   0  0  0  0  0  0  0  0  0  0  0  0
   -3.5426    0.4898   -0.3228 O   0  0  0  0  0  0  0  0  0  0  0  0
    3.9957    0.1406    0.4422 H   0  0  0  0  0  0  0  0  0  0  0  0
    3.1633    0.6271   -1.0810 H   0  0  0  0  0  0  0  0  0  0  0  0
    2.8497    1.5133    0.4191 H   0  0  0  0  0  0  0  0  0  0  0  0
    0.5584    0.9511    0.2279 H   0  0  0  0  0  0  0  0  0  0  0  0
    0.7514   -0.0662   -1.2425 H   0  0  0  0  0  0  0  0  0  0  0  0
   -0.2053   -1.1530    1.4338 H   0  0  0  0  0  0  0  0  0  0  0  0
    0.1764   -2.0876   -0.0475 H   0  0  0  0  0  0  0  0  0  0  0  0
   -2.5386    0.2323    1.4169 H   0  0  0  0  0  0  0  0  0  0  0  0
   -1.7063    1.3240    0.2312 H   0  0  0  0  0  0  0  0  0  0  0  0
   -3.3138    0.9867   -1.1668 H   0  0  0  0  0  0  0  0  0  0  0  0
  1  2  1  0
  2  3  1  0
  3  4  1  0
  4  5  1  0
  5  6  2  0
  5  7  1  0
  7  8  1  0
  1  9  1  0
  1 10  1  0
  1 11  1  0
  3 12  1  0
  3 13  1  0
  4 14  1  0
  4 15  1  0
  7 16  1  0
  7 17  1  0
  8 18  1  0
M  END
