
     RDKit          3D

 21 21  0  0  0  0  0  0  0  0999 V2000
    3.6199    0.3313    0.1484 C   0  0  0  0  0  0  0  0  0  0  0  0
    2.5910   -0.5844    0.1078 O   0  0  0  0  0  0  0  0  0  0  0  0
    1.3368    0.0078    0.1039 C   0  0  0  0  0  0  0  0  0  0  0  0
    0.2538   -1.0493    0.0587 C   0  0  0  0  0  0  0  0  0  0  0  0
   -1.0850   -0.4483    0.0537 C   0  0  0  0  0  0  0  0  0  0  0  0
   -1.3303    0.8534    0.0846 C   0  0  0  0  0  0  0  0  0  0  0  0
   -2.7824    1.0600    0.0672 C   0  0  0  0  0  0  0  0  0  0  0  0
   -3.3441   -0.1635    0.3093 O   0  0  0  0  0  0  0  0  0  0  0  0
   -2.3887   -1.1326    0.0155 C   0  0  0  0  0  0  0  0  0  0  0  0
    3.5389    0.9832   -0.7580 H   0  0  0  0  0  0  0  0  0  0  0  0
    3.5269    1.0367    1.0226 H   0  0  0  0  0  0  0  0  0  0  0  0
    4.5840   -0.1739    0.2418 H   0  0  0  0  0  0  0  0  0  0  0  0
    1.2227    0.5484    1.0701 H   0  0  0  0  0  0  0  0  0  0  0  0
    1.1973    0.7256   -0.7153 H   0  0  0  0  0  0  0  0  0  0  0  0
    0.4284   -1.6882    0.9754 H   0  0  0  0  0  0  0  0  0  0  0  0
    0.3786   -1.7416   -0.8006 H   0  0  0  0  0  0  0  0  0  0  0  0
   -0.5598    1.6356    0.1176 H   0  0  0  0  0  0  0  0  0  0  0  0
   -3.0626    1.4984   -0.9217 H   0  0  0  0  0  0  0  0  0  0  0  0
   -3.0269    1.8201    0.8609 H   0  0  0  0  0  0  0  0  0  0  0  0
   -2.4638   -1.9530    0.7596 H   0  0  0  0  0  0  0  0  0  0  0  0
   -2.6347   -1.5658   -0.9758 H   0  0  0  0  0  0  0  0  0  0  0  0
  1  2  1  0
  2  3  1  0
  3  4  1  0
  4  5  1  0
  5  6  2  0
  6  7  1  0
  7  8  1  0
  8  9  1  0
  9  5  1  0
  1 10  1  0
  1 11  1  0
  1 12  1  0
  3 13  1  0
  3 14  1  0
  4 15  1  0
  4 16  1  0
  6 17  1  0
  7 18  1  0
  7 19  1  0
  9 20  1  0
  9 21  1  0
M  END
