
     RDKit          3D

 23 22  0  0  0  0  0  0  0  0999 V2000
    3.3651   -1.2186   -0.3372 C   0  0  0  0  0  0  0  0  0  0  0  0
    2.7363   -0.1464    0.2528 O   0  0  0  0  0  0  0  0  0  0  0  0
    1.3555   -0.3485    0.3559 C   0  0  0  0  0  0  0  0  0  0  0  0
    0.7534    0.8658    1.0085 C   0  0  0  0  0  0  0  0  0  0  0  0
   -0.5810    0.7465    1.1435 O   0  0  0  0  0  0  0  0  0  0  0  0
   -1.3846    0.6177    0.0651 C   0  0  0  0  0  0  0  0  0  0  0  0
   -2.3050    1.8225   -0.1437 C   0  0  0  0  0  0  0  0  0  0  0  0
   -2.2053   -0.6223    0.1187 C   0  0  0  0  0  0  0  0  0  0  0  0
   -1.3905   -1.7338    0.1644 O   0  0  0  0  0  0  0  0  0  0  0  0
    2.9720   -1.3864   -1.3565 H   0  0  0  0  0  0  0  0  0  0  0  0
    4.4392   -0.9496   -0.4571 H   0  0  0  0  0  0  0  0  0  0  0  0
    3.2259   -2.1373    0.2652 H   0  0  0  0  0  0  0  0  0  0  0  0
    1.1704   -1.2780    0.9481 H   0  0  0  0  0  0  0  0  0  0  0  0
    0.8949   -0.4743   -0.6378 H   0  0  0  0  0  0  0  0  0  0  0  0
    1.0943    1.7653    0.4487 H   0  0  0  0  0  0  0  0  0  0  0  0
    1.2092    0.9141    2.0323 H   0  0  0  0  0  0  0  0  0  0  0  0
   -0.7667    0.6023   -0.8570 H   0  0  0  0  0  0  0  0  0  0  0  0
   -1.8286    2.5880   -0.7497 H   0  0  0  0  0  0  0  0  0  0  0  0
   -3.1828    1.4336   -0.7026 H   0  0  0  0  0  0  0  0  0  0  0  0
   -2.7035    2.1989    0.8257 H   0  0  0  0  0  0  0  0  0  0  0  0
   -2.9327   -0.5872    0.9593 H   0  0  0  0  0  0  0  0  0  0  0  0
   -2.8169   -0.6725   -0.8067 H   0  0  0  0  0  0  0  0  0  0  0  0
   -1.1185   -1.9998    1.0687 H   0  0  0  0  0  0  0  0  0  0  0  0
  1  2  1  0
  2  3  1  0
  3  4  1  0
  4  5  1  0
  5  6  1  0
  6  7  1  0
  6  8  1  0
  8  9  1  0
  1 10  1  0
  1 11  1  0
  1 12  1  0
  3 13  1  0
  3 14  1  0
  4 15  1  0
  4 16  1  0
  6 17  1  0
  7 18  1  0
  7 19  1  0
  7 20  1  0
  8 21  1  0
  8 22  1  0
  9 23  1  0
M  END
