
     RDKit          3D

 19 19  0  0  0  0  0  0  0  0999 V2000
    2.8818    0.1072   -0.7566 C   0  0  0  0  0  0  0  0  0  0  0  0
    1.5949    0.6529   -0.6247 O   0  0  0  0  0  0  0  0  0  0  0  0
    0.7543   -0.3102   -0.0201 C   0  0  0  0  0  0  0  0  0  0  0  0
   -0.6446    0.2263    0.1455 C   0  0  0  0  0  0  0  0  0  0  0  0
   -0.8376    1.4353    0.9677 C   0  0  0  0  0  0  0  0  0  0  0  0
   -1.9340    1.9064    1.1331 O   0  0  0  0  0  0  0  0  0  0  0  0
   -1.6429    0.0502   -0.9564 C   0  0  0  0  0  0  0  0  0  0  0  0
   -1.7005   -0.8700    0.2044 C   0  0  0  0  0  0  0  0  0  0  0  0
   -2.6335   -0.6714    1.2201 O   0  0  0  0  0  0  0  0  0  0  0  0
    2.7714   -0.7936   -1.3958 H   0  0  0  0  0  0  0  0  0  0  0  0
    3.2429   -0.2865    0.2347 H   0  0  0  0  0  0  0  0  0  0  0  0
    3.5975    0.8156   -1.1664 H   0  0  0  0  0  0  0  0  0  0  0  0
    0.7772   -1.2700   -0.5295 H   0  0  0  0  0  0  0  0  0  0  0  0
    1.1610   -0.4633    1.0063 H   0  0  0  0  0  0  0  0  0  0  0  0
    0.0133    1.8978    1.4226 H   0  0  0  0  0  0  0  0  0  0  0  0
   -2.4795    0.7686   -1.0364 H   0  0  0  0  0  0  0  0  0  0  0  0
   -1.3067   -0.3312   -1.9414 H   0  0  0  0  0  0  0  0  0  0  0  0
   -1.4101   -1.9028    0.0240 H   0  0  0  0  0  0  0  0  0  0  0  0
   -2.2051   -0.9612    2.0687 H   0  0  0  0  0  0  0  0  0  0  0  0
  1  2  1  0
  2  3  1  0
  3  4  1  0
  4  5  1  0
  5  6  2  0
  4  7  1  0
  7  8  1  0
  8  9  1  0
  8  4  1  0
  1 10  1  0
  1 11  1  0
  1 12  1  0
  3 13  1  0
  3 14  1  0
  5 15  1  0
  7 16  1  0
  7 17  1  0
  8 18  1  0
  9 19  1  0
M  END
