
     RDKit          3D

 25 25  0  0  0  0  0  0  0  0999 V2000
    3.2582   -0.0829   -0.4097 C   0  0  0  0  0  0  0  0  0  0  0  0
    2.5501    0.4732    0.6369 O   0  0  0  0  0  0  0  0  0  0  0  0
    1.3459    1.0515    0.2413 C   0  0  0  0  0  0  0  0  0  0  0  0
    0.4207    0.0696   -0.3985 C   0  0  0  0  0  0  0  0  0  0  0  0
    0.0711   -1.0657    0.5426 C   0  0  0  0  0  0  0  0  0  0  0  0
   -1.3429   -0.5888    0.6061 C   0  0  0  0  0  0  0  0  0  0  0  0
   -2.3539   -1.6429    0.2195 C   0  0  0  0  0  0  0  0  0  0  0  0
   -1.0176    0.4016   -0.4958 C   0  0  0  0  0  0  0  0  0  0  0  0
   -1.4841    1.7746   -0.1788 C   0  0  0  0  0  0  0  0  0  0  0  0
    4.2056   -0.5130    0.0307 H   0  0  0  0  0  0  0  0  0  0  0  0
    2.6869   -1.0089   -0.7167 H   0  0  0  0  0  0  0  0  0  0  0  0
    3.4662    0.5884   -1.2398 H   0  0  0  0  0  0  0  0  0  0  0  0
    1.5304    1.8893   -0.4938 H   0  0  0  0  0  0  0  0  0  0  0  0
    0.9305    1.5397    1.1433 H   0  0  0  0  0  0  0  0  0  0  0  0
    0.8632   -0.3462   -1.3267 H   0  0  0  0  0  0  0  0  0  0  0  0
    0.1542   -2.0741    0.1137 H   0  0  0  0  0  0  0  0  0  0  0  0
    0.5627   -0.9941    1.5340 H   0  0  0  0  0  0  0  0  0  0  0  0
   -1.6254   -0.1177    1.5719 H   0  0  0  0  0  0  0  0  0  0  0  0
   -2.9851   -1.3155   -0.6342 H   0  0  0  0  0  0  0  0  0  0  0  0
   -2.9764   -1.9624    1.0908 H   0  0  0  0  0  0  0  0  0  0  0  0
   -1.8088   -2.5428   -0.1127 H   0  0  0  0  0  0  0  0  0  0  0  0
   -1.4517    0.0317   -1.4497 H   0  0  0  0  0  0  0  0  0  0  0  0
   -0.7769    2.5793   -0.3976 H   0  0  0  0  0  0  0  0  0  0  0  0
   -1.8072    1.8376    0.8880 H   0  0  0  0  0  0  0  0  0  0  0  0
   -2.4159    2.0184   -0.7647 H   0  0  0  0  0  0  0  0  0  0  0  0
  1  2  1  0
  2  3  1  0
  3  4  1  0
  4  5  1  0
  5  6  1  0
  6  7  1  0
  6  8  1  0
  8  9  1  0
  8  4  1  0
  1 10  1  0
  1 11  1  0
  1 12  1  0
  3 13  1  0
  3 14  1  0
  4 15  1  0
  5 16  1  0
  5 17  1  0
  6 18  1  0
  7 19  1  0
  7 20  1  0
  7 21  1  0
  8 22  1  0
  9 23  1  0
  9 24  1  0
  9 25  1  0
M  END
