
     RDKit          3D

 17 17  0  0  0  0  0  0  0  0999 V2000
    2.1680   -0.2730   -0.2168 C   0  0  0  0  0  0  0  0  0  0  0  0
    1.6159    0.6064    0.6681 O   0  0  0  0  0  0  0  0  0  0  0  0
    0.3463    0.3814    1.0949 C   0  0  0  0  0  0  0  0  0  0  0  0
   -0.6733    0.3472    0.0111 C   0  0  0  0  0  0  0  0  0  0  0  0
   -0.7725    1.4439   -0.7985 O   0  0  0  0  0  0  0  0  0  0  0  0
   -2.0514   -0.1204    0.5491 C   0  0  0  0  0  0  0  0  0  0  0  0
   -1.3616   -1.3855    0.6151 O   0  0  0  0  0  0  0  0  0  0  0  0
   -0.8128   -0.9634   -0.6277 C   0  0  0  0  0  0  0  0  0  0  0  0
   -0.5827   -1.5090   -1.7261 O   0  0  0  0  0  0  0  0  0  0  0  0
    3.2250    0.0371   -0.4259 H   0  0  0  0  0  0  0  0  0  0  0  0
    1.6696   -0.2159   -1.2276 H   0  0  0  0  0  0  0  0  0  0  0  0
    2.1322   -1.2930    0.1759 H   0  0  0  0  0  0  0  0  0  0  0  0
    0.3644   -0.5960    1.6771 H   0  0  0  0  0  0  0  0  0  0  0  0
    0.1177    1.1509    1.8809 H   0  0  0  0  0  0  0  0  0  0  0  0
   -0.2910    2.2376   -0.4632 H   0  0  0  0  0  0  0  0  0  0  0  0
   -2.7526   -0.1609   -0.2828 H   0  0  0  0  0  0  0  0  0  0  0  0
   -2.3412    0.3125    1.5004 H   0  0  0  0  0  0  0  0  0  0  0  0
  1  2  1  0
  2  3  1  0
  3  4  1  0
  4  5  1  0
  4  6  1  0
  6  7  1  0
  7  8  1  0
  8  9  2  0
  8  4  1  0
  1 10  1  0
  1 11  1  0
  1 12  1  0
  3 13  1  0
  3 14  1  0
  5 15  1  0
  6 16  1  0
  6 17  1  0
M  END
