
     RDKit          3D

 21 21  0  0  0  0  0  0  0  0999 V2000
    2.3433    0.7978    1.1566 C   0  0  0  0  0  0  0  0  0  0  0  0
    1.7237   -0.3468    1.5504 O   0  0  0  0  0  0  0  0  0  0  0  0
    1.1504   -1.1161    0.5832 C   0  0  0  0  0  0  0  0  0  0  0  0
    0.0726   -0.3849   -0.1650 C   0  0  0  0  0  0  0  0  0  0  0  0
    0.3723    0.7647   -0.8805 O   0  0  0  0  0  0  0  0  0  0  0  0
   -1.3036   -0.3479    0.5721 C   0  0  0  0  0  0  0  0  0  0  0  0
   -1.9984    0.9778    0.5647 C   0  0  0  0  0  0  0  0  0  0  0  0
   -1.1156   -1.1474   -0.6369 C   0  0  0  0  0  0  0  0  0  0  0  0
   -1.8062   -0.7419   -1.7747 O   0  0  0  0  0  0  0  0  0  0  0  0
    3.1679    0.5738    0.4230 H   0  0  0  0  0  0  0  0  0  0  0  0
    2.8470    1.2867    2.0554 H   0  0  0  0  0  0  0  0  0  0  0  0
    1.7041    1.6035    0.7574 H   0  0  0  0  0  0  0  0  0  0  0  0
    1.8778   -1.5419   -0.1447 H   0  0  0  0  0  0  0  0  0  0  0  0
    0.7080   -2.0216    1.0993 H   0  0  0  0  0  0  0  0  0  0  0  0
    0.6880    0.5810   -1.7971 H   0  0  0  0  0  0  0  0  0  0  0  0
   -1.3510   -0.9201    1.5308 H   0  0  0  0  0  0  0  0  0  0  0  0
   -2.7248    1.0879   -0.2678 H   0  0  0  0  0  0  0  0  0  0  0  0
   -2.4840    1.1642    1.5291 H   0  0  0  0  0  0  0  0  0  0  0  0
   -1.2415    1.7996    0.4079 H   0  0  0  0  0  0  0  0  0  0  0  0
   -1.0250   -2.2514   -0.5550 H   0  0  0  0  0  0  0  0  0  0  0  0
   -1.6051    0.1831   -2.0380 H   0  0  0  0  0  0  0  0  0  0  0  0
  1  2  1  0
  2  3  1  0
  3  4  1  0
  4  5  1  0
  4  6  1  0
  6  7  1  0
  6  8  1  0
  8  9  1  0
  8  4  1  0
  1 10  1  0
  1 11  1  0
  1 12  1  0
  3 13  1  0
  3 14  1  0
  5 15  1  0
  6 16  1  0
  7 17  1  0
  7 18  1  0
  7 19  1  0
  8 20  1  0
  9 21  1  0
M  END
