
     RDKit          3D

 22 21  0  0  0  0  0  0  0  0999 V2000
    2.9021    0.3306    0.3631 C   0  0  0  0  0  0  0  0  0  0  0  0
    2.4211   -0.8197   -0.2022 O   0  0  0  0  0  0  0  0  0  0  0  0
    1.1457   -0.7397   -0.7045 C   0  0  0  0  0  0  0  0  0  0  0  0
    0.1131   -0.3775    0.3566 C   0  0  0  0  0  0  0  0  0  0  0  0
    0.1119   -1.3406    1.3628 O   0  0  0  0  0  0  0  0  0  0  0  0
   -1.2685   -0.2515   -0.2470 C   0  0  0  0  0  0  0  0  0  0  0  0
   -1.2725    0.8307   -1.3065 C   0  0  0  0  0  0  0  0  0  0  0  0
   -2.1993    0.2145    0.8549 C   0  0  0  0  0  0  0  0  0  0  0  0
    2.9145    1.1477   -0.3843 H   0  0  0  0  0  0  0  0  0  0  0  0
    3.9736    0.1948    0.6780 H   0  0  0  0  0  0  0  0  0  0  0  0
    2.3542    0.5682    1.2886 H   0  0  0  0  0  0  0  0  0  0  0  0
    0.8759   -1.7820   -1.0471 H   0  0  0  0  0  0  0  0  0  0  0  0
    1.0481   -0.1070   -1.5931 H   0  0  0  0  0  0  0  0  0  0  0  0
    0.3941    0.6068    0.7674 H   0  0  0  0  0  0  0  0  0  0  0  0
   -0.7974   -1.5065    1.7158 H   0  0  0  0  0  0  0  0  0  0  0  0
   -1.6188   -1.1987   -0.6968 H   0  0  0  0  0  0  0  0  0  0  0  0
   -1.2341    0.3694   -2.3125 H   0  0  0  0  0  0  0  0  0  0  0  0
   -2.1960    1.4325   -1.2359 H   0  0  0  0  0  0  0  0  0  0  0  0
   -0.3805    1.4793   -1.1908 H   0  0  0  0  0  0  0  0  0  0  0  0
   -1.6019    0.8577    1.5341 H   0  0  0  0  0  0  0  0  0  0  0  0
   -2.6311   -0.6750    1.3896 H   0  0  0  0  0  0  0  0  0  0  0  0
   -3.0543    0.7659    0.4084 H   0  0  0  0  0  0  0  0  0  0  0  0
  1  2  1  0
  2  3  1  0
  3  4  1  0
  4  5  1  0
  4  6  1  0
  6  7  1  0
  6  8  1  0
  1  9  1  0
  1 10  1  0
  1 11  1  0
  3 12  1  0
  3 13  1  0
  4 14  1  0
  5 15  1  0
  6 16  1  0
  7 17  1  0
  7 18  1  0
  7 19  1  0
  8 20  1  0
  8 21  1  0
  8 22  1  0
M  END
