
     RDKit          3D

 21 23  0  0  0  0  0  0  0  0999 V2000
    3.4338    0.1990   -0.2207 C   0  0  0  0  0  0  0  0  0  0  0  0
    2.1109   -0.2207   -0.0153 O   0  0  0  0  0  0  0  0  0  0  0  0
    1.2856    0.8279   -0.3925 C   0  0  0  0  0  0  0  0  0  0  0  0
   -0.1674    0.5293   -0.2296 C   0  0  0  0  0  0  0  0  0  0  0  0
   -0.7657    0.1909    1.0767 C   0  0  0  0  0  0  0  0  0  0  0  0
   -2.1935   -0.2358    1.1082 C   0  0  0  0  0  0  0  0  0  0  0  0
   -2.9929   -0.0883   -0.1131 C   0  0  0  0  0  0  0  0  0  0  0  0
   -2.0064   -1.1860   -0.0308 C   0  0  0  0  0  0  0  0  0  0  0  0
   -0.5341   -0.8813    0.0046 C   0  0  0  0  0  0  0  0  0  0  0  0
    4.1607   -0.5806    0.0560 H   0  0  0  0  0  0  0  0  0  0  0  0
    3.6128    1.1530    0.3110 H   0  0  0  0  0  0  0  0  0  0  0  0
    3.6047    0.3987   -1.3152 H   0  0  0  0  0  0  0  0  0  0  0  0
    1.5529    1.7347    0.2125 H   0  0  0  0  0  0  0  0  0  0  0  0
    1.4982    1.1075   -1.4443 H   0  0  0  0  0  0  0  0  0  0  0  0
   -0.8189    1.0809   -0.9569 H   0  0  0  0  0  0  0  0  0  0  0  0
   -0.1560    0.1722    1.9853 H   0  0  0  0  0  0  0  0  0  0  0  0
   -2.6015   -0.7255    2.0332 H   0  0  0  0  0  0  0  0  0  0  0  0
   -4.0589   -0.4150   -0.1267 H   0  0  0  0  0  0  0  0  0  0  0  0
   -2.8287    0.8154   -0.7307 H   0  0  0  0  0  0  0  0  0  0  0  0
   -2.3103   -2.2281    0.0210 H   0  0  0  0  0  0  0  0  0  0  0  0
    0.1749   -1.6482    0.3240 H   0  0  0  0  0  0  0  0  0  0  0  0
  1  2  1  0
  2  3  1  0
  3  4  1  0
  4  5  1  0
  5  6  1  0
  6  7  1  0
  7  8  1  0
  8  9  1  0
  9  4  1  0
  9  5  1  0
  8  6  1  0
  1 10  1  0
  1 11  1  0
  1 12  1  0
  3 13  1  0
  3 14  1  0
  4 15  1  0
  5 16  1  0
  6 17  1  0
  7 18  1  0
  7 19  1  0
  8 20  1  0
  9 21  1  0
M  END
