
     RDKit          3D

 21 21  0  0  0  0  0  0  0  0999 V2000
   -1.5694    3.0883   -1.1370 C   0  0  0  0  0  0  0  0  0  0  0  0
   -0.2463    3.3822   -1.4516 O   0  0  0  0  0  0  0  0  0  0  0  0
    0.3656    2.1697   -1.8822 C   0  0  0  0  0  0  0  0  0  0  0  0
    0.2414    1.1725   -0.8212 C   0  0  0  0  0  0  0  0  0  0  0  0
    0.1544    0.3288    0.0573 C   0  0  0  0  0  0  0  0  0  0  0  0
    0.0484   -0.6963    1.1351 C   0  0  0  0  0  0  0  0  0  0  0  0
    1.4555   -1.3768    1.1540 C   0  0  0  0  0  0  0  0  0  0  0  0
    0.7434   -2.6575    1.4782 C   0  0  0  0  0  0  0  0  0  0  0  0
   -0.4820   -2.0339    0.7906 C   0  0  0  0  0  0  0  0  0  0  0  0
   -1.5248    2.3136   -0.3247 H   0  0  0  0  0  0  0  0  0  0  0  0
   -2.1150    3.9923   -0.7737 H   0  0  0  0  0  0  0  0  0  0  0  0
   -2.0425    2.6390   -2.0315 H   0  0  0  0  0  0  0  0  0  0  0  0
    1.4067    2.3615   -2.0961 H   0  0  0  0  0  0  0  0  0  0  0  0
   -0.1395    1.8232   -2.8058 H   0  0  0  0  0  0  0  0  0  0  0  0
   -0.1590   -0.2535    2.1143 H   0  0  0  0  0  0  0  0  0  0  0  0
    2.0786   -0.9212    1.9127 H   0  0  0  0  0  0  0  0  0  0  0  0
    1.9240   -1.3746    0.1442 H   0  0  0  0  0  0  0  0  0  0  0  0
    0.5759   -2.8276    2.5558 H   0  0  0  0  0  0  0  0  0  0  0  0
    1.1894   -3.5071    0.9665 H   0  0  0  0  0  0  0  0  0  0  0  0
   -0.4749   -2.2086   -0.2997 H   0  0  0  0  0  0  0  0  0  0  0  0
   -1.4299   -2.3222    1.3148 H   0  0  0  0  0  0  0  0  0  0  0  0
  1  2  1  0
  2  3  1  0
  3  4  1  0
  4  5  3  0
  5  6  1  0
  6  7  1  0
  7  8  1  0
  8  9  1  0
  9  6  1  0
  1 10  1  0
  1 11  1  0
  1 12  1  0
  3 13  1  0
  3 14  1  0
  6 15  1  0
  7 16  1  0
  7 17  1  0
  8 18  1  0
  8 19  1  0
  9 20  1  0
  9 21  1  0
M  END
