
     RDKit          3D

 21 21  0  0  0  0  0  0  0  0999 V2000
   -2.8939   -0.6497    0.4046 C   0  0  0  0  0  0  0  0  0  0  0  0
   -1.6588   -0.0472    0.5301 O   0  0  0  0  0  0  0  0  0  0  0  0
   -0.7847   -0.5012   -0.4320 C   0  0  0  0  0  0  0  0  0  0  0  0
    0.5800    0.1467   -0.3146 C   0  0  0  0  0  0  0  0  0  0  0  0
    0.4323    1.6498   -0.3155 C   0  0  0  0  0  0  0  0  0  0  0  0
    1.6437    2.2567   -0.0345 O   0  0  0  0  0  0  0  0  0  0  0  0
    1.4567   -0.3684    0.7773 C   0  0  0  0  0  0  0  0  0  0  0  0
    2.0746   -1.1455   -0.3578 C   0  0  0  0  0  0  0  0  0  0  0  0
    1.4927   -0.2771   -1.2592 O   0  0  0  0  0  0  0  0  0  0  0  0
   -2.8396   -1.7585    0.5095 H   0  0  0  0  0  0  0  0  0  0  0  0
   -3.2738   -0.3752   -0.6224 H   0  0  0  0  0  0  0  0  0  0  0  0
   -3.6461   -0.2605    1.1059 H   0  0  0  0  0  0  0  0  0  0  0  0
   -0.6981   -1.6202   -0.4571 H   0  0  0  0  0  0  0  0  0  0  0  0
   -1.1859   -0.2076   -1.4244 H   0  0  0  0  0  0  0  0  0  0  0  0
    0.0363    1.9349   -1.3237 H   0  0  0  0  0  0  0  0  0  0  0  0
   -0.3564    1.9293    0.4253 H   0  0  0  0  0  0  0  0  0  0  0  0
    1.5505    3.1635    0.3268 H   0  0  0  0  0  0  0  0  0  0  0  0
    0.9895   -0.9681    1.5683 H   0  0  0  0  0  0  0  0  0  0  0  0
    2.1648    0.4261    1.1460 H   0  0  0  0  0  0  0  0  0  0  0  0
    1.7395   -2.2048   -0.4382 H   0  0  0  0  0  0  0  0  0  0  0  0
    3.1769   -1.1230   -0.2947 H   0  0  0  0  0  0  0  0  0  0  0  0
  1  2  1  0
  2  3  1  0
  3  4  1  0
  4  5  1  0
  5  6  1  0
  4  7  1  0
  7  8  1  0
  8  9  1  0
  9  4  1  0
  1 10  1  0
  1 11  1  0
  1 12  1  0
  3 13  1  0
  3 14  1  0
  5 15  1  0
  5 16  1  0
  6 17  1  0
  7 18  1  0
  7 19  1  0
  8 20  1  0
  8 21  1  0
M  END
