
     RDKit          3D

 23 23  0  0  0  0  0  0  0  0999 V2000
    3.9409   -0.0256    0.0710 C   0  0  0  0  0  0  0  0  0  0  0  0
    2.7595    0.6985    0.2087 O   0  0  0  0  0  0  0  0  0  0  0  0
    1.6659   -0.1540    0.2981 C   0  0  0  0  0  0  0  0  0  0  0  0
    0.4326    0.7133    0.4446 C   0  0  0  0  0  0  0  0  0  0  0  0
   -0.7718   -0.1888    0.5438 C   0  0  0  0  0  0  0  0  0  0  0  0
   -0.8967   -0.9790   -0.5941 O   0  0  0  0  0  0  0  0  0  0  0  0
   -1.6985    0.0167   -1.1443 C   0  0  0  0  0  0  0  0  0  0  0  0
   -2.1030    0.4097    0.2566 C   0  0  0  0  0  0  0  0  0  0  0  0
   -3.2277   -0.4178    0.8179 C   0  0  0  0  0  0  0  0  0  0  0  0
    4.7875    0.6820    0.0030 H   0  0  0  0  0  0  0  0  0  0  0  0
    3.9396   -0.6884   -0.8063 H   0  0  0  0  0  0  0  0  0  0  0  0
    4.0923   -0.6032    1.0051 H   0  0  0  0  0  0  0  0  0  0  0  0
    1.7663   -0.8623    1.1513 H   0  0  0  0  0  0  0  0  0  0  0  0
    1.5684   -0.6898   -0.6702 H   0  0  0  0  0  0  0  0  0  0  0  0
    0.3812    1.3643   -0.4488 H   0  0  0  0  0  0  0  0  0  0  0  0
    0.5339    1.3844    1.3159 H   0  0  0  0  0  0  0  0  0  0  0  0
   -0.8245   -0.7685    1.5060 H   0  0  0  0  0  0  0  0  0  0  0  0
   -1.1548    0.8306   -1.6664 H   0  0  0  0  0  0  0  0  0  0  0  0
   -2.5314   -0.3575   -1.7778 H   0  0  0  0  0  0  0  0  0  0  0  0
   -2.1953    1.5058    0.3836 H   0  0  0  0  0  0  0  0  0  0  0  0
   -4.2278   -0.0817    0.4990 H   0  0  0  0  0  0  0  0  0  0  0  0
   -3.0458   -1.4649    0.5559 H   0  0  0  0  0  0  0  0  0  0  0  0
   -3.1907   -0.3238    1.9219 H   0  0  0  0  0  0  0  0  0  0  0  0
  1  2  1  0
  2  3  1  0
  3  4  1  0
  4  5  1  0
  5  6  1  0
  6  7  1  0
  7  8  1  0
  8  9  1  0
  8  5  1  0
  1 10  1  0
  1 11  1  0
  1 12  1  0
  3 13  1  0
  3 14  1  0
  4 15  1  0
  4 16  1  0
  5 17  1  0
  7 18  1  0
  7 19  1  0
  8 20  1  0
  9 21  1  0
  9 22  1  0
  9 23  1  0
M  END
