
     RDKit          3D

 25 24  0  0  0  0  0  0  0  0999 V2000
    2.3163    1.3286    0.0828 C   0  0  0  0  0  0  0  0  0  0  0  0
    2.7963    0.1418    0.3112 O   0  0  0  0  0  0  0  0  0  0  0  0
    2.4700   -1.0795    0.0466 C   0  0  0  0  0  0  0  0  0  0  0  0
    1.2256   -1.7631    0.4941 C   0  0  0  0  0  0  0  0  0  0  0  0
   -0.0884   -1.2968    0.0410 C   0  0  0  0  0  0  0  0  0  0  0  0
   -0.5153   -0.0495    0.3604 O   0  0  0  0  0  0  0  0  0  0  0  0
   -1.7708    0.2464   -0.1362 C   0  0  0  0  0  0  0  0  0  0  0  0
   -2.7492    0.5789    0.9793 C   0  0  0  0  0  0  0  0  0  0  0  0
   -1.7440    1.4094   -1.1061 C   0  0  0  0  0  0  0  0  0  0  0  0
    1.3561    1.5900    0.5189 H   0  0  0  0  0  0  0  0  0  0  0  0
    2.2878    1.6427   -1.0181 H   0  0  0  0  0  0  0  0  0  0  0  0
    3.0758    2.1072    0.4698 H   0  0  0  0  0  0  0  0  0  0  0  0
    3.3117   -1.7536    0.5085 H   0  0  0  0  0  0  0  0  0  0  0  0
    2.6567   -1.3721   -1.0676 H   0  0  0  0  0  0  0  0  0  0  0  0
    1.3113   -2.8630    0.1721 H   0  0  0  0  0  0  0  0  0  0  0  0
    1.2847   -1.8643    1.6255 H   0  0  0  0  0  0  0  0  0  0  0  0
   -0.8811   -2.0208    0.4183 H   0  0  0  0  0  0  0  0  0  0  0  0
   -0.1346   -1.4664   -1.0826 H   0  0  0  0  0  0  0  0  0  0  0  0
   -2.1306   -0.6445   -0.6942 H   0  0  0  0  0  0  0  0  0  0  0  0
   -3.2495   -0.3677    1.2730 H   0  0  0  0  0  0  0  0  0  0  0  0
   -2.1515    0.9660    1.8338 H   0  0  0  0  0  0  0  0  0  0  0  0
   -3.4425    1.3730    0.6808 H   0  0  0  0  0  0  0  0  0  0  0  0
   -0.7216    1.5829   -1.4975 H   0  0  0  0  0  0  0  0  0  0  0  0
   -2.1213    2.3393   -0.6258 H   0  0  0  0  0  0  0  0  0  0  0  0
   -2.3920    1.2353   -1.9924 H   0  0  0  0  0  0  0  0  0  0  0  0
  1  2  1  0
  2  3  1  0
  3  4  1  0
  4  5  1  0
  5  6  1  0
  6  7  1  0
  7  8  1  0
  7  9  1  0
  1 10  1  0
  1 11  1  0
  1 12  1  0
  3 13  1  0
  3 14  1  0
  4 15  1  0
  4 16  1  0
  5 17  1  0
  5 18  1  0
  7 19  1  0
  8 20  1  0
  8 21  1  0
  8 22  1  0
  9 23  1  0
  9 24  1  0
  9 25  1  0
M  END
