
     RDKit          3D

 20 20  0  0  0  0  0  0  0  0999 V2000
    3.4619    0.1196    0.1770 C   0  0  0  0  0  0  0  0  0  0  0  0
    2.1975    0.4980   -0.1991 O   0  0  0  0  0  0  0  0  0  0  0  0
    1.3033   -0.5282   -0.3479 C   0  0  0  0  0  0  0  0  0  0  0  0
   -0.0143    0.0245   -0.7542 C   0  0  0  0  0  0  0  0  0  0  0  0
   -0.8733    0.5757    0.3911 C   0  0  0  0  0  0  0  0  0  0  0  0
   -1.9080    0.1680   -0.6645 C   0  0  0  0  0  0  0  0  0  0  0  0
   -3.2431   -0.2147   -0.1229 C   0  0  0  0  0  0  0  0  0  0  0  0
   -1.0435   -0.9046   -0.9483 O   0  0  0  0  0  0  0  0  0  0  0  0
    3.4717   -0.4196    1.1681 H   0  0  0  0  0  0  0  0  0  0  0  0
    4.0392    1.0613    0.3784 H   0  0  0  0  0  0  0  0  0  0  0  0
    4.0237   -0.4167   -0.5992 H   0  0  0  0  0  0  0  0  0  0  0  0
    1.6713   -1.1823   -1.1726 H   0  0  0  0  0  0  0  0  0  0  0  0
    1.2061   -1.1822    0.5382 H   0  0  0  0  0  0  0  0  0  0  0  0
    0.0268    0.7760   -1.5507 H   0  0  0  0  0  0  0  0  0  0  0  0
   -0.7843    1.6437    0.5614 H   0  0  0  0  0  0  0  0  0  0  0  0
   -0.8564   -0.0943    1.2595 H   0  0  0  0  0  0  0  0  0  0  0  0
   -1.8831    0.8690   -1.5105 H   0  0  0  0  0  0  0  0  0  0  0  0
   -3.1673   -0.4608    0.9495 H   0  0  0  0  0  0  0  0  0  0  0  0
   -3.7201   -1.0075   -0.7246 H   0  0  0  0  0  0  0  0  0  0  0  0
   -3.9082    0.6751   -0.2016 H   0  0  0  0  0  0  0  0  0  0  0  0
  1  2  1  0
  2  3  1  0
  3  4  1  0
  4  5  1  0
  5  6  1  0
  6  7  1  0
  6  8  1  0
  8  4  1  0
  1  9  1  0
  1 10  1  0
  1 11  1  0
  3 12  1  0
  3 13  1  0
  4 14  1  0
  5 15  1  0
  5 16  1  0
  6 17  1  0
  7 18  1  0
  7 19  1  0
  7 20  1  0
M  END
