
     RDKit          3D

 21 20  0  0  0  0  0  0  0  0999 V2000
   -3.5386    0.3382    0.1230 C   0  0  0  0  0  0  0  0  0  0  0  0
   -2.7193   -0.5916   -0.4812 O   0  0  0  0  0  0  0  0  0  0  0  0
   -1.4174   -0.2780   -0.6430 C   0  0  0  0  0  0  0  0  0  0  0  0
   -0.5859   -0.0332    0.5321 C   0  0  0  0  0  0  0  0  0  0  0  0
   -1.0958   -0.1994    1.6391 O   0  0  0  0  0  0  0  0  0  0  0  0
    0.8163    0.3968    0.4758 C   0  0  0  0  0  0  0  0  0  0  0  0
    1.8062   -0.6185    0.0276 C   0  0  0  0  0  0  0  0  0  0  0  0
    3.1856    0.0124    0.0348 C   0  0  0  0  0  0  0  0  0  0  0  0
    1.5447   -1.1458   -1.2360 O   0  0  0  0  0  0  0  0  0  0  0  0
   -3.2260    0.5759    1.1494 H   0  0  0  0  0  0  0  0  0  0  0  0
   -3.6027    1.2870   -0.5050 H   0  0  0  0  0  0  0  0  0  0  0  0
   -4.5741   -0.0647    0.0935 H   0  0  0  0  0  0  0  0  0  0  0  0
   -0.9649   -1.0852   -1.2974 H   0  0  0  0  0  0  0  0  0  0  0  0
   -1.3880    0.6181   -1.3363 H   0  0  0  0  0  0  0  0  0  0  0  0
    1.1611    0.7683    1.4720 H   0  0  0  0  0  0  0  0  0  0  0  0
    0.8746    1.2868   -0.2071 H   0  0  0  0  0  0  0  0  0  0  0  0
    1.8453   -1.4842    0.7155 H   0  0  0  0  0  0  0  0  0  0  0  0
    3.9102   -0.5371   -0.6079 H   0  0  0  0  0  0  0  0  0  0  0  0
    3.5286    0.0718    1.0905 H   0  0  0  0  0  0  0  0  0  0  0  0
    3.0853    1.0678   -0.3177 H   0  0  0  0  0  0  0  0  0  0  0  0
    1.3549   -0.3853   -1.8559 H   0  0  0  0  0  0  0  0  0  0  0  0
  1  2  1  0
  2  3  1  0
  3  4  1  0
  4  5  2  0
  4  6  1  0
  6  7  1  0
  7  8  1  0
  7  9  1  0
  1 10  1  0
  1 11  1  0
  1 12  1  0
  3 13  1  0
  3 14  1  0
  6 15  1  0
  6 16  1  0
  7 17  1  0
  8 18  1  0
  8 19  1  0
  8 20  1  0
  9 21  1  0
M  END
