
     RDKit          3D

 17 18  0  0  0  0  0  0  0  0999 V2000
    2.8650   -0.5415    0.0800 C   0  0  0  0  0  0  0  0  0  0  0  0
    1.6118   -0.3245    0.6253 O   0  0  0  0  0  0  0  0  0  0  0  0
    0.6576    0.0091   -0.3198 C   0  0  0  0  0  0  0  0  0  0  0  0
   -0.6488    0.2182    0.3862 C   0  0  0  0  0  0  0  0  0  0  0  0
   -1.8105   -0.7144    0.1199 C   0  0  0  0  0  0  0  0  0  0  0  0
   -2.6866    0.4766    0.0654 C   0  0  0  0  0  0  0  0  0  0  0  0
   -3.8620    0.7156   -0.0439 O   0  0  0  0  0  0  0  0  0  0  0  0
   -1.4932    1.3241    0.2051 C   0  0  0  0  0  0  0  0  0  0  0  0
   -0.7658    1.1900    1.3575 O   0  0  0  0  0  0  0  0  0  0  0  0
    3.5399   -0.8005    0.9353 H   0  0  0  0  0  0  0  0  0  0  0  0
    2.8980   -1.4288   -0.5924 H   0  0  0  0  0  0  0  0  0  0  0  0
    3.2921    0.3644   -0.3883 H   0  0  0  0  0  0  0  0  0  0  0  0
    0.4956   -0.8454   -1.0396 H   0  0  0  0  0  0  0  0  0  0  0  0
    0.9279    0.9066   -0.9117 H   0  0  0  0  0  0  0  0  0  0  0  0
   -1.7212   -1.2228   -0.8588 H   0  0  0  0  0  0  0  0  0  0  0  0
   -2.0221   -1.4490    0.9062 H   0  0  0  0  0  0  0  0  0  0  0  0
   -1.2776    2.1223   -0.5264 H   0  0  0  0  0  0  0  0  0  0  0  0
  1  2  1  0
  2  3  1  0
  3  4  1  0
  4  5  1  0
  5  6  1  0
  6  7  2  0
  6  8  1  0
  8  9  1  0
  8  4  1  0
  9  4  1  0
  1 10  1  0
  1 11  1  0
  1 12  1  0
  3 13  1  0
  3 14  1  0
  5 15  1  0
  5 16  1  0
  8 17  1  0
M  END
