
     RDKit          3D

 21 21  0  0  0  0  0  0  0  0999 V2000
    2.9627   -0.0758    0.4718 C   0  0  0  0  0  0  0  0  0  0  0  0
    2.3972    0.1201   -0.7810 O   0  0  0  0  0  0  0  0  0  0  0  0
    1.1732    0.7213   -0.7380 C   0  0  0  0  0  0  0  0  0  0  0  0
    0.1128   -0.0351    0.0305 C   0  0  0  0  0  0  0  0  0  0  0  0
   -1.1200    0.8354    0.0216 C   0  0  0  0  0  0  0  0  0  0  0  0
   -2.3814    0.1120    0.2973 C   0  0  0  0  0  0  0  0  0  0  0  0
   -2.2415   -1.2803    0.1686 O   0  0  0  0  0  0  0  0  0  0  0  0
   -1.3972   -1.5078   -0.9218 C   0  0  0  0  0  0  0  0  0  0  0  0
   -0.1089   -1.2876   -0.5042 O   0  0  0  0  0  0  0  0  0  0  0  0
    3.0899    0.9003    0.9956 H   0  0  0  0  0  0  0  0  0  0  0  0
    2.3854   -0.8091    1.0348 H   0  0  0  0  0  0  0  0  0  0  0  0
    3.9715   -0.5390    0.3088 H   0  0  0  0  0  0  0  0  0  0  0  0
    0.7751    0.8118   -1.7886 H   0  0  0  0  0  0  0  0  0  0  0  0
    1.2161    1.7872   -0.3818 H   0  0  0  0  0  0  0  0  0  0  0  0
    0.4733   -0.1750    1.0688 H   0  0  0  0  0  0  0  0  0  0  0  0
   -1.1842    1.3724   -0.9495 H   0  0  0  0  0  0  0  0  0  0  0  0
   -0.9632    1.6143    0.8075 H   0  0  0  0  0  0  0  0  0  0  0  0
   -2.8352    0.3579    1.3022 H   0  0  0  0  0  0  0  0  0  0  0  0
   -3.1877    0.3980   -0.4405 H   0  0  0  0  0  0  0  0  0  0  0  0
   -1.5000   -2.5378   -1.2634 H   0  0  0  0  0  0  0  0  0  0  0  0
   -1.6377   -0.7833   -1.7355 H   0  0  0  0  0  0  0  0  0  0  0  0
  1  2  1  0
  2  3  1  0
  3  4  1  0
  4  5  1  0
  5  6  1  0
  6  7  1  0
  7  8  1  0
  8  9  1  0
  9  4  1  0
  1 10  1  0
  1 11  1  0
  1 12  1  0
  3 13  1  0
  3 14  1  0
  4 15  1  0
  5 16  1  0
  5 17  1  0
  6 18  1  0
  6 19  1  0
  8 20  1  0
  8 21  1  0
M  END
