
     RDKit          3D

 21 21  0  0  0  0  0  0  0  0999 V2000
    2.9844   -0.4769    0.8859 C   0  0  0  0  0  0  0  0  0  0  0  0
    1.6332   -0.7980    0.8082 O   0  0  0  0  0  0  0  0  0  0  0  0
    1.0248    0.0876   -0.0768 C   0  0  0  0  0  0  0  0  0  0  0  0
   -0.4467   -0.1792   -0.2297 C   0  0  0  0  0  0  0  0  0  0  0  0
   -1.2375   -0.0698    1.0480 C   0  0  0  0  0  0  0  0  0  0  0  0
   -0.9953   -1.0403   -1.2744 C   0  0  0  0  0  0  0  0  0  0  0  0
   -1.0513    0.4212   -1.4977 C   0  0  0  0  0  0  0  0  0  0  0  0
   -2.2564    1.2119   -1.2581 C   0  0  0  0  0  0  0  0  0  0  0  0
   -2.4309    2.2491   -1.8524 O   0  0  0  0  0  0  0  0  0  0  0  0
    3.1416    0.5687    1.2521 H   0  0  0  0  0  0  0  0  0  0  0  0
    3.4769   -0.5146   -0.1136 H   0  0  0  0  0  0  0  0  0  0  0  0
    3.5165   -1.1245    1.6152 H   0  0  0  0  0  0  0  0  0  0  0  0
    1.5631    0.0969   -1.0287 H   0  0  0  0  0  0  0  0  0  0  0  0
    1.1193    1.1039    0.3919 H   0  0  0  0  0  0  0  0  0  0  0  0
   -1.7272    0.9482    1.0422 H   0  0  0  0  0  0  0  0  0  0  0  0
   -2.0664   -0.8032    1.0411 H   0  0  0  0  0  0  0  0  0  0  0  0
   -0.5877   -0.1931    1.9335 H   0  0  0  0  0  0  0  0  0  0  0  0
   -0.3738   -1.6106   -1.9944 H   0  0  0  0  0  0  0  0  0  0  0  0
   -1.9483   -1.6019   -1.0437 H   0  0  0  0  0  0  0  0  0  0  0  0
   -0.3435    0.8491   -2.2489 H   0  0  0  0  0  0  0  0  0  0  0  0
   -2.9950    0.8756   -0.5517 H   0  0  0  0  0  0  0  0  0  0  0  0
  1  2  1  0
  2  3  1  0
  3  4  1  0
  4  5  1  0
  4  6  1  0
  6  7  1  0
  7  8  1  0
  8  9  2  0
  7  4  1  0
  1 10  1  0
  1 11  1  0
  1 12  1  0
  3 13  1  0
  3 14  1  0
  5 15  1  0
  5 16  1  0
  5 17  1  0
  6 18  1  0
  6 19  1  0
  7 20  1  0
  8 21  1  0
M  END
