
     RDKit          3D

 21 22  0  0  0  0  0  0  0  0999 V2000
    3.3752    0.4228    0.8675 C   0  0  0  0  0  0  0  0  0  0  0  0
    2.1278    0.7426    0.3193 O   0  0  0  0  0  0  0  0  0  0  0  0
    1.2594   -0.3580    0.4148 C   0  0  0  0  0  0  0  0  0  0  0  0
   -0.0888   -0.0584   -0.1609 C   0  0  0  0  0  0  0  0  0  0  0  0
   -0.0739    0.2887   -1.5070 O   0  0  0  0  0  0  0  0  0  0  0  0
   -1.2177   -0.8107    0.4260 C   0  0  0  0  0  0  0  0  0  0  0  0
   -2.5643   -0.5793   -0.2056 C   0  0  0  0  0  0  0  0  0  0  0  0
   -2.4842    0.8494    0.2760 C   0  0  0  0  0  0  0  0  0  0  0  0
   -1.0585    0.6828    0.6773 C   0  0  0  0  0  0  0  0  0  0  0  0
    3.7814   -0.4266    0.3003 H   0  0  0  0  0  0  0  0  0  0  0  0
    3.2590    0.1024    1.9273 H   0  0  0  0  0  0  0  0  0  0  0  0
    4.0436    1.3063    0.8784 H   0  0  0  0  0  0  0  0  0  0  0  0
    1.1582   -0.7145    1.4522 H   0  0  0  0  0  0  0  0  0  0  0  0
    1.7688   -1.1877   -0.1473 H   0  0  0  0  0  0  0  0  0  0  0  0
    0.2117   -0.4717   -2.0537 H   0  0  0  0  0  0  0  0  0  0  0  0
   -1.0875   -1.5058    1.2559 H   0  0  0  0  0  0  0  0  0  0  0  0
   -2.4876   -0.6995   -1.3149 H   0  0  0  0  0  0  0  0  0  0  0  0
   -3.3792   -1.1878    0.2265 H   0  0  0  0  0  0  0  0  0  0  0  0
   -3.1264    0.9465    1.1999 H   0  0  0  0  0  0  0  0  0  0  0  0
   -2.7152    1.6259   -0.4636 H   0  0  0  0  0  0  0  0  0  0  0  0
   -0.7017    1.0327    1.6489 H   0  0  0  0  0  0  0  0  0  0  0  0
  1  2  1  0
  2  3  1  0
  3  4  1  0
  4  5  1  0
  4  6  1  0
  6  7  1  0
  7  8  1  0
  8  9  1  0
  9  4  1  0
  9  6  1  0
  1 10  1  0
  1 11  1  0
  1 12  1  0
  3 13  1  0
  3 14  1  0
  5 15  1  0
  6 16  1  0
  7 17  1  0
  7 18  1  0
  8 19  1  0
  8 20  1  0
  9 21  1  0
M  END
