
     RDKit          3D

 21 22  0  0  0  0  0  0  0  0999 V2000
    3.4829   -0.4445    0.3037 C   0  0  0  0  0  0  0  0  0  0  0  0
    2.5272   -0.1504   -0.6767 O   0  0  0  0  0  0  0  0  0  0  0  0
    1.3067   -0.0635   -0.0438 C   0  0  0  0  0  0  0  0  0  0  0  0
    0.2083    0.2587   -1.0671 C   0  0  0  0  0  0  0  0  0  0  0  0
   -1.0648    0.3411   -0.3526 C   0  0  0  0  0  0  0  0  0  0  0  0
   -1.6606   -0.7806    0.4258 C   0  0  0  0  0  0  0  0  0  0  0  0
   -2.9631    0.0345    0.4368 C   0  0  0  0  0  0  0  0  0  0  0  0
   -2.1872    1.0760   -0.3869 C   0  0  0  0  0  0  0  0  0  0  0  0
   -1.1379    1.6340    0.3787 O   0  0  0  0  0  0  0  0  0  0  0  0
    4.4584   -0.5173   -0.1805 H   0  0  0  0  0  0  0  0  0  0  0  0
    3.1663   -1.3554    0.8314 H   0  0  0  0  0  0  0  0  0  0  0  0
    3.4561    0.4110    1.0248 H   0  0  0  0  0  0  0  0  0  0  0  0
    1.2906    0.7071    0.7493 H   0  0  0  0  0  0  0  0  0  0  0  0
    1.1022   -1.0397    0.4417 H   0  0  0  0  0  0  0  0  0  0  0  0
    0.2528   -0.4922   -1.8687 H   0  0  0  0  0  0  0  0  0  0  0  0
    0.4489    1.2374   -1.5287 H   0  0  0  0  0  0  0  0  0  0  0  0
   -1.8077   -1.6660   -0.1917 H   0  0  0  0  0  0  0  0  0  0  0  0
   -1.2046   -0.9125    1.4102 H   0  0  0  0  0  0  0  0  0  0  0  0
   -3.7982   -0.4303   -0.0816 H   0  0  0  0  0  0  0  0  0  0  0  0
   -3.1498    0.4369    1.4543 H   0  0  0  0  0  0  0  0  0  0  0  0
   -2.7265    1.7155   -1.0782 H   0  0  0  0  0  0  0  0  0  0  0  0
  1  2  1  0
  2  3  1  0
  3  4  1  0
  4  5  1  0
  5  6  1  0
  6  7  1  0
  7  8  1  0
  8  9  1  0
  8  5  1  0
  9  5  1  0
  1 10  1  0
  1 11  1  0
  1 12  1  0
  3 13  1  0
  3 14  1  0
  4 15  1  0
  4 16  1  0
  6 17  1  0
  6 18  1  0
  7 19  1  0
  7 20  1  0
  8 21  1  0
M  END
