
     RDKit          3D

 23 23  0  0  0  0  0  0  0  0999 V2000
    2.9721    1.1261   -0.6881 C   0  0  0  0  0  0  0  0  0  0  0  0
    2.9239   -0.2556   -0.6711 O   0  0  0  0  0  0  0  0  0  0  0  0
    2.3429   -0.6777    0.5086 C   0  0  0  0  0  0  0  0  0  0  0  0
    0.9562   -0.1455    0.6153 C   0  0  0  0  0  0  0  0  0  0  0  0
    0.0709   -0.6049   -0.5433 C   0  0  0  0  0  0  0  0  0  0  0  0
   -1.2838    0.0146   -0.2862 C   0  0  0  0  0  0  0  0  0  0  0  0
   -1.7710   -0.4889    1.0279 O   0  0  0  0  0  0  0  0  0  0  0  0
   -2.5108   -0.6574   -0.2358 C   0  0  0  0  0  0  0  0  0  0  0  0
   -3.7862    0.1561   -0.3125 C   0  0  0  0  0  0  0  0  0  0  0  0
    3.5550    1.5535    0.1676 H   0  0  0  0  0  0  0  0  0  0  0  0
    2.0083    1.6307   -0.8290 H   0  0  0  0  0  0  0  0  0  0  0  0
    3.5924    1.3814   -1.6034 H   0  0  0  0  0  0  0  0  0  0  0  0
    2.3613   -1.7760    0.6347 H   0  0  0  0  0  0  0  0  0  0  0  0
    2.9287   -0.2061    1.3435 H   0  0  0  0  0  0  0  0  0  0  0  0
    0.4402   -0.5095    1.5389 H   0  0  0  0  0  0  0  0  0  0  0  0
    0.8641    0.9512    0.6600 H   0  0  0  0  0  0  0  0  0  0  0  0
    0.4789   -0.2770   -1.5038 H   0  0  0  0  0  0  0  0  0  0  0  0
    0.0137   -1.7221   -0.5650 H   0  0  0  0  0  0  0  0  0  0  0  0
   -1.2318    1.1252   -0.1894 H   0  0  0  0  0  0  0  0  0  0  0  0
   -2.5987   -1.7398   -0.4439 H   0  0  0  0  0  0  0  0  0  0  0  0
   -3.7413    0.9987    0.4150 H   0  0  0  0  0  0  0  0  0  0  0  0
   -3.9188    0.5937   -1.3246 H   0  0  0  0  0  0  0  0  0  0  0  0
   -4.6662   -0.4705   -0.0412 H   0  0  0  0  0  0  0  0  0  0  0  0
  1  2  1  0
  2  3  1  0
  3  4  1  0
  4  5  1  0
  5  6  1  0
  6  7  1  0
  7  8  1  0
  8  9  1  0
  8  6  1  0
  1 10  1  0
  1 11  1  0
  1 12  1  0
  3 13  1  0
  3 14  1  0
  4 15  1  0
  4 16  1  0
  5 17  1  0
  5 18  1  0
  6 19  1  0
  8 20  1  0
  9 21  1  0
  9 22  1  0
  9 23  1  0
M  END
