
     RDKit          3D

 21 22  0  0  0  0  0  0  0  0999 V2000
    3.0009   -0.2918   -0.5514 C   0  0  0  0  0  0  0  0  0  0  0  0
    1.6820   -0.6784   -0.2762 O   0  0  0  0  0  0  0  0  0  0  0  0
    1.0975    0.2891    0.5033 C   0  0  0  0  0  0  0  0  0  0  0  0
   -0.3000    0.0443    0.8902 C   0  0  0  0  0  0  0  0  0  0  0  0
   -1.2968   -0.0942   -0.2796 C   0  0  0  0  0  0  0  0  0  0  0  0
   -1.9016    1.1954   -0.7269 C   0  0  0  0  0  0  0  0  0  0  0  0
   -2.0987   -0.7251    0.8481 C   0  0  0  0  0  0  0  0  0  0  0  0
   -1.8708   -1.8731    1.4605 O   0  0  0  0  0  0  0  0  0  0  0  0
   -0.7081   -1.4116    1.0517 C   0  0  0  0  0  0  0  0  0  0  0  0
    3.4717   -1.0833   -1.1863 H   0  0  0  0  0  0  0  0  0  0  0  0
    3.6023   -0.2421    0.4026 H   0  0  0  0  0  0  0  0  0  0  0  0
    3.0478    0.6832   -1.0785 H   0  0  0  0  0  0  0  0  0  0  0  0
    1.7050    0.4439    1.4108 H   0  0  0  0  0  0  0  0  0  0  0  0
    1.1225    1.2432   -0.1034 H   0  0  0  0  0  0  0  0  0  0  0  0
   -0.6962    0.6697    1.6814 H   0  0  0  0  0  0  0  0  0  0  0  0
   -0.9642   -0.7963   -1.0591 H   0  0  0  0  0  0  0  0  0  0  0  0
   -1.2755    1.6949   -1.4899 H   0  0  0  0  0  0  0  0  0  0  0  0
   -2.9267    0.9572   -1.1342 H   0  0  0  0  0  0  0  0  0  0  0  0
   -2.0373    1.8373    0.1630 H   0  0  0  0  0  0  0  0  0  0  0  0
   -2.3233    0.1041    1.5943 H   0  0  0  0  0  0  0  0  0  0  0  0
   -0.3304   -1.9664    0.1344 H   0  0  0  0  0  0  0  0  0  0  0  0
  1  2  1  0
  2  3  1  0
  3  4  1  0
  4  5  1  0
  5  6  1  0
  5  7  1  0
  7  8  1  0
  8  9  1  0
  9  4  1  0
  9  7  1  0
  1 10  1  0
  1 11  1  0
  1 12  1  0
  3 13  1  0
  3 14  1  0
  4 15  1  0
  5 16  1  0
  6 17  1  0
  6 18  1  0
  6 19  1  0
  7 20  1  0
  9 21  1  0
M  END
