
     RDKit          3D

 23 24  0  0  0  0  0  0  0  0999 V2000
    3.4069   -0.4994    0.4895 C   0  0  0  0  0  0  0  0  0  0  0  0
    2.0725   -0.8499    0.4571 O   0  0  0  0  0  0  0  0  0  0  0  0
    1.3553   -0.2141   -0.5397 C   0  0  0  0  0  0  0  0  0  0  0  0
   -0.0622   -0.6712   -0.4734 C   0  0  0  0  0  0  0  0  0  0  0  0
   -0.7703   -0.3946    0.8091 C   0  0  0  0  0  0  0  0  0  0  0  0
   -2.1495   -0.9921    0.9208 C   0  0  0  0  0  0  0  0  0  0  0  0
   -2.5691   -0.0550   -0.2141 C   0  0  0  0  0  0  0  0  0  0  0  0
   -1.1617    0.3194   -0.5122 C   0  0  0  0  0  0  0  0  0  0  0  0
   -0.8246    1.7670   -0.6488 C   0  0  0  0  0  0  0  0  0  0  0  0
    3.8982   -0.7624   -0.4894 H   0  0  0  0  0  0  0  0  0  0  0  0
    3.5934    0.5558    0.6966 H   0  0  0  0  0  0  0  0  0  0  0  0
    3.8987   -1.1709    1.2358 H   0  0  0  0  0  0  0  0  0  0  0  0
    1.8153   -0.3678   -1.5490 H   0  0  0  0  0  0  0  0  0  0  0  0
    1.4472    0.8858   -0.3492 H   0  0  0  0  0  0  0  0  0  0  0  0
   -0.2585   -1.6497   -0.9520 H   0  0  0  0  0  0  0  0  0  0  0  0
   -0.3774    0.2767    1.5700 H   0  0  0  0  0  0  0  0  0  0  0  0
   -2.6438   -0.8164    1.8757 H   0  0  0  0  0  0  0  0  0  0  0  0
   -2.1313   -2.0749    0.5992 H   0  0  0  0  0  0  0  0  0  0  0  0
   -3.1383   -0.5558   -1.0200 H   0  0  0  0  0  0  0  0  0  0  0  0
   -3.1596    0.7771    0.2315 H   0  0  0  0  0  0  0  0  0  0  0  0
   -0.0705    1.8841   -1.4585 H   0  0  0  0  0  0  0  0  0  0  0  0
   -1.7054    2.3765   -0.9843 H   0  0  0  0  0  0  0  0  0  0  0  0
   -0.4654    2.2318    0.3052 H   0  0  0  0  0  0  0  0  0  0  0  0
  1  2  1  0
  2  3  1  0
  3  4  1  0
  4  5  1  0
  5  6  1  0
  6  7  1  0
  7  8  1  0
  8  9  1  0
  8  4  1  0
  8  5  1  0
  1 10  1  0
  1 11  1  0
  1 12  1  0
  3 13  1  0
  3 14  1  0
  4 15  1  0
  5 16  1  0
  6 17  1  0
  6 18  1  0
  7 19  1  0
  7 20  1  0
  9 21  1  0
  9 22  1  0
  9 23  1  0
M  END
