
     RDKit          3D

 18 18  0  0  0  0  0  0  0  0999 V2000
    2.7224    0.8948    0.1236 C   0  0  0  0  0  0  0  0  0  0  0  0
    2.2083    0.5384   -1.0860 O   0  0  0  0  0  0  0  0  0  0  0  0
    1.1351   -0.3080   -1.0308 C   0  0  0  0  0  0  0  0  0  0  0  0
   -0.0587    0.2284   -0.3323 C   0  0  0  0  0  0  0  0  0  0  0  0
   -0.1396    1.3447    0.1540 O   0  0  0  0  0  0  0  0  0  0  0  0
   -1.2571   -0.6300   -0.1988 C   0  0  0  0  0  0  0  0  0  0  0  0
   -2.6063   -0.0528   -0.0333 C   0  0  0  0  0  0  0  0  0  0  0  0
   -1.9246   -0.5417    1.2072 C   0  0  0  0  0  0  0  0  0  0  0  0
    2.0501    1.4226    0.8207 H   0  0  0  0  0  0  0  0  0  0  0  0
    3.6196    1.5614   -0.0379 H   0  0  0  0  0  0  0  0  0  0  0  0
    3.1045    0.0072    0.7113 H   0  0  0  0  0  0  0  0  0  0  0  0
    1.4830   -1.2733   -0.5498 H   0  0  0  0  0  0  0  0  0  0  0  0
    0.8296   -0.6503   -2.0640 H   0  0  0  0  0  0  0  0  0  0  0  0
   -1.1793   -1.6269   -0.6347 H   0  0  0  0  0  0  0  0  0  0  0  0
   -2.7828    1.0442   -0.0984 H   0  0  0  0  0  0  0  0  0  0  0  0
   -3.4527   -0.6338   -0.4681 H   0  0  0  0  0  0  0  0  0  0  0  0
   -1.5360    0.2209    1.8953 H   0  0  0  0  0  0  0  0  0  0  0  0
   -2.2155   -1.5457    1.6218 H   0  0  0  0  0  0  0  0  0  0  0  0
  1  2  1  0
  2  3  1  0
  3  4  1  0
  4  5  2  0
  4  6  1  0
  6  7  1  0
  7  8  1  0
  8  6  1  0
  1  9  1  0
  1 10  1  0
  1 11  1  0
  3 12  1  0
  3 13  1  0
  6 14  1  0
  7 15  1  0
  7 16  1  0
  8 17  1  0
  8 18  1  0
M  END
