
     RDKit          3D

 23 23  0  0  0  0  0  0  0  0999 V2000
    3.0112    0.0094    0.3728 C   0  0  0  0  0  0  0  0  0  0  0  0
    1.6545   -0.0603    0.6480 O   0  0  0  0  0  0  0  0  0  0  0  0
    0.9648   -0.3754   -0.5231 C   0  0  0  0  0  0  0  0  0  0  0  0
   -0.5036   -0.4502   -0.2225 C   0  0  0  0  0  0  0  0  0  0  0  0
   -1.4070   -0.7769   -1.3538 C   0  0  0  0  0  0  0  0  0  0  0  0
   -0.8716   -1.2450    1.0179 C   0  0  0  0  0  0  0  0  0  0  0  0
   -1.8640   -0.2566    1.2314 O   0  0  0  0  0  0  0  0  0  0  0  0
   -0.9256    0.6403    0.7117 C   0  0  0  0  0  0  0  0  0  0  0  0
   -1.4564    1.8883    0.1162 C   0  0  0  0  0  0  0  0  0  0  0  0
    3.5712    0.2593    1.2961 H   0  0  0  0  0  0  0  0  0  0  0  0
    3.1656    0.7940   -0.3946 H   0  0  0  0  0  0  0  0  0  0  0  0
    3.3608   -0.9968    0.0167 H   0  0  0  0  0  0  0  0  0  0  0  0
    1.1290    0.4825   -1.2155 H   0  0  0  0  0  0  0  0  0  0  0  0
    1.3139   -1.3394   -0.9376 H   0  0  0  0  0  0  0  0  0  0  0  0
   -0.8639   -0.6979   -2.3232 H   0  0  0  0  0  0  0  0  0  0  0  0
   -2.3503   -0.1837   -1.3789 H   0  0  0  0  0  0  0  0  0  0  0  0
   -1.6904   -1.8665   -1.2721 H   0  0  0  0  0  0  0  0  0  0  0  0
   -0.1264   -1.1470    1.8340 H   0  0  0  0  0  0  0  0  0  0  0  0
   -1.2639   -2.2500    0.8421 H   0  0  0  0  0  0  0  0  0  0  0  0
   -0.1192    0.8281    1.4598 H   0  0  0  0  0  0  0  0  0  0  0  0
   -2.2174    2.3036    0.8277 H   0  0  0  0  0  0  0  0  0  0  0  0
   -1.8871    1.7863   -0.8848 H   0  0  0  0  0  0  0  0  0  0  0  0
   -0.6242    2.6538    0.1317 H   0  0  0  0  0  0  0  0  0  0  0  0
  1  2  1  0
  2  3  1  0
  3  4  1  0
  4  5  1  0
  4  6  1  0
  6  7  1  0
  7  8  1  0
  8  9  1  0
  8  4  1  0
  1 10  1  0
  1 11  1  0
  1 12  1  0
  3 13  1  0
  3 14  1  0
  5 15  1  0
  5 16  1  0
  5 17  1  0
  6 18  1  0
  6 19  1  0
  8 20  1  0
  9 21  1  0
  9 22  1  0
  9 23  1  0
M  END
