
     RDKit          3D

 20 19  0  0  0  0  0  0  0  0999 V2000
   -2.7186    0.1978    0.6039 C   0  0  0  0  0  0  0  0  0  0  0  0
   -1.6199   -0.5924    0.2330 O   0  0  0  0  0  0  0  0  0  0  0  0
   -0.9555    0.1019   -0.7640 C   0  0  0  0  0  0  0  0  0  0  0  0
    0.2538   -0.6076   -1.2780 C   0  0  0  0  0  0  0  0  0  0  0  0
    0.8396    0.1770   -2.2705 O   0  0  0  0  0  0  0  0  0  0  0  0
    1.2681   -0.9096   -0.1987 C   0  0  0  0  0  0  0  0  0  0  0  0
    1.7174    0.4175    0.4235 C   0  0  0  0  0  0  0  0  0  0  0  0
    2.6519    0.1973    1.4230 O   0  0  0  0  0  0  0  0  0  0  0  0
   -3.3273    0.3079   -0.3318 H   0  0  0  0  0  0  0  0  0  0  0  0
   -3.3834   -0.3767    1.3075 H   0  0  0  0  0  0  0  0  0  0  0  0
   -2.4253    1.1593    1.0324 H   0  0  0  0  0  0  0  0  0  0  0  0
   -1.6570    0.2265   -1.6148 H   0  0  0  0  0  0  0  0  0  0  0  0
   -0.7335    1.1131   -0.3584 H   0  0  0  0  0  0  0  0  0  0  0  0
   -0.0825   -1.5361   -1.7773 H   0  0  0  0  0  0  0  0  0  0  0  0
    0.7817    1.1356   -1.9710 H   0  0  0  0  0  0  0  0  0  0  0  0
    2.1634   -1.3719   -0.6502 H   0  0  0  0  0  0  0  0  0  0  0  0
    0.8111   -1.5679    0.5368 H   0  0  0  0  0  0  0  0  0  0  0  0
    0.8460    0.9223    0.9179 H   0  0  0  0  0  0  0  0  0  0  0  0
    2.0666    1.1162   -0.3632 H   0  0  0  0  0  0  0  0  0  0  0  0
    3.5033   -0.1102    1.0112 H   0  0  0  0  0  0  0  0  0  0  0  0
  1  2  1  0
  2  3  1  0
  3  4  1  0
  4  5  1  0
  4  6  1  0
  6  7  1  0
  7  8  1  0
  1  9  1  0
  1 10  1  0
  1 11  1  0
  3 12  1  0
  3 13  1  0
  4 14  1  0
  5 15  1  0
  6 16  1  0
  6 17  1  0
  7 18  1  0
  7 19  1  0
  8 20  1  0
M  END
