
     RDKit          3D

 21 21  0  0  0  0  0  0  0  0999 V2000
    2.9194    1.0177   -0.0659 C   0  0  0  0  0  0  0  0  0  0  0  0
    1.7161    1.6384    0.0294 O   0  0  0  0  0  0  0  0  0  0  0  0
    0.6303    0.9750   -0.5291 C   0  0  0  0  0  0  0  0  0  0  0  0
    0.4545   -0.3466    0.1525 C   0  0  0  0  0  0  0  0  0  0  0  0
   -0.6787   -1.1806   -0.3296 C   0  0  0  0  0  0  0  0  0  0  0  0
   -0.6964   -2.4126    0.4033 O   0  0  0  0  0  0  0  0  0  0  0  0
   -2.0447   -0.6249   -0.1991 C   0  0  0  0  0  0  0  0  0  0  0  0
   -2.5053    0.5019    0.5076 C   0  0  0  0  0  0  0  0  0  0  0  0
   -2.2676    0.6645   -0.8918 O   0  0  0  0  0  0  0  0  0  0  0  0
    3.0103    0.0410    0.4183 H   0  0  0  0  0  0  0  0  0  0  0  0
    3.6819    1.6630    0.4665 H   0  0  0  0  0  0  0  0  0  0  0  0
    3.2828    1.0097   -1.1245 H   0  0  0  0  0  0  0  0  0  0  0  0
   -0.2714    1.6333   -0.4964 H   0  0  0  0  0  0  0  0  0  0  0  0
    0.8250    0.7256   -1.6099 H   0  0  0  0  0  0  0  0  0  0  0  0
    1.3864   -0.9420   -0.1006 H   0  0  0  0  0  0  0  0  0  0  0  0
    0.4479   -0.2238    1.2756 H   0  0  0  0  0  0  0  0  0  0  0  0
   -0.4989   -1.4499   -1.3911 H   0  0  0  0  0  0  0  0  0  0  0  0
   -1.0537   -3.0955   -0.2111 H   0  0  0  0  0  0  0  0  0  0  0  0
   -2.8319   -1.3424   -0.5976 H   0  0  0  0  0  0  0  0  0  0  0  0
   -1.9010    1.1436    1.1479 H   0  0  0  0  0  0  0  0  0  0  0  0
   -3.6049    0.6045    0.7088 H   0  0  0  0  0  0  0  0  0  0  0  0
  1  2  1  0
  2  3  1  0
  3  4  1  0
  4  5  1  0
  5  6  1  0
  5  7  1  0
  7  8  1  0
  8  9  1  0
  9  7  1  0
  1 10  1  0
  1 11  1  0
  1 12  1  0
  3 13  1  0
  3 14  1  0
  4 15  1  0
  4 16  1  0
  5 17  1  0
  6 18  1  0
  7 19  1  0
  8 20  1  0
  8 21  1  0
M  END
