
     RDKit          3D

 25 25  0  0  0  0  0  0  0  0999 V2000
    3.3971   -0.6231    0.2345 C   0  0  0  0  0  0  0  0  0  0  0  0
    2.1686   -0.3159    0.8038 O   0  0  0  0  0  0  0  0  0  0  0  0
    1.3697    0.2954   -0.1584 C   0  0  0  0  0  0  0  0  0  0  0  0
    0.0097    0.6635    0.3813 C   0  0  0  0  0  0  0  0  0  0  0  0
   -0.7612    1.3156   -0.7487 C   0  0  0  0  0  0  0  0  0  0  0  0
   -2.1665    1.3068   -0.1955 C   0  0  0  0  0  0  0  0  0  0  0  0
   -2.2547    0.0203    0.5525 C   0  0  0  0  0  0  0  0  0  0  0  0
   -0.8469   -0.5163    0.7000 C   0  0  0  0  0  0  0  0  0  0  0  0
   -0.6709   -1.6675   -0.2559 C   0  0  0  0  0  0  0  0  0  0  0  0
    4.0943   -1.1069    0.9134 H   0  0  0  0  0  0  0  0  0  0  0  0
    3.8301    0.3348   -0.1264 H   0  0  0  0  0  0  0  0  0  0  0  0
    3.2777   -1.2725   -0.6682 H   0  0  0  0  0  0  0  0  0  0  0  0
    1.8476    1.2437   -0.4897 H   0  0  0  0  0  0  0  0  0  0  0  0
    1.2908   -0.3689   -1.0327 H   0  0  0  0  0  0  0  0  0  0  0  0
    0.0604    1.3123    1.2548 H   0  0  0  0  0  0  0  0  0  0  0  0
   -0.6492    0.7028   -1.6469 H   0  0  0  0  0  0  0  0  0  0  0  0
   -0.4747    2.3744   -0.8881 H   0  0  0  0  0  0  0  0  0  0  0  0
   -2.2472    2.1681    0.4995 H   0  0  0  0  0  0  0  0  0  0  0  0
   -2.9342    1.3481   -1.0090 H   0  0  0  0  0  0  0  0  0  0  0  0
   -2.7358    0.1957    1.5589 H   0  0  0  0  0  0  0  0  0  0  0  0
   -2.9216   -0.6763    0.0016 H   0  0  0  0  0  0  0  0  0  0  0  0
   -0.7375   -0.8318    1.7607 H   0  0  0  0  0  0  0  0  0  0  0  0
   -1.5943   -2.3025   -0.2987 H   0  0  0  0  0  0  0  0  0  0  0  0
   -0.5093   -1.2966   -1.2735 H   0  0  0  0  0  0  0  0  0  0  0  0
    0.1582   -2.3030    0.1308 H   0  0  0  0  0  0  0  0  0  0  0  0
  1  2  1  0
  2  3  1  0
  3  4  1  0
  4  5  1  0
  5  6  1  0
  6  7  1  0
  7  8  1  0
  8  9  1  0
  8  4  1  0
  1 10  1  0
  1 11  1  0
  1 12  1  0
  3 13  1  0
  3 14  1  0
  4 15  1  0
  5 16  1  0
  5 17  1  0
  6 18  1  0
  6 19  1  0
  7 20  1  0
  7 21  1  0
  8 22  1  0
  9 23  1  0
  9 24  1  0
  9 25  1  0
M  END
