
     RDKit          3D

 17 16  0  0  0  0  0  0  0  0999 V2000
    2.3381   -0.6570   -0.8683 C   0  0  0  0  0  0  0  0  0  0  0  0
    2.4662    0.6696   -1.2310 O   0  0  0  0  0  0  0  0  0  0  0  0
    1.8459    1.4799   -0.2850 C   0  0  0  0  0  0  0  0  0  0  0  0
    0.4197    1.0871   -0.2484 C   0  0  0  0  0  0  0  0  0  0  0  0
   -0.7426    0.7613   -0.1986 C   0  0  0  0  0  0  0  0  0  0  0  0
   -2.1336    0.3832   -0.1172 C   0  0  0  0  0  0  0  0  0  0  0  0
   -2.9999    1.0099   -0.7856 O   0  0  0  0  0  0  0  0  0  0  0  0
   -2.6017   -0.7390    0.7402 C   0  0  0  0  0  0  0  0  0  0  0  0
   -1.5002   -1.2859    1.3817 O   0  0  0  0  0  0  0  0  0  0  0  0
    2.8167   -0.7921    0.1131 H   0  0  0  0  0  0  0  0  0  0  0  0
    1.2941   -1.0081   -0.8453 H   0  0  0  0  0  0  0  0  0  0  0  0
    2.9215   -1.2522   -1.6202 H   0  0  0  0  0  0  0  0  0  0  0  0
    2.3191    1.4019    0.7069 H   0  0  0  0  0  0  0  0  0  0  0  0
    1.8543    2.5456   -0.5655 H   0  0  0  0  0  0  0  0  0  0  0  0
   -3.2084   -1.4755    0.1909 H   0  0  0  0  0  0  0  0  0  0  0  0
   -3.2587   -0.2769    1.5188 H   0  0  0  0  0  0  0  0  0  0  0  0
   -1.8306   -1.8515    2.1135 H   0  0  0  0  0  0  0  0  0  0  0  0
  1  2  1  0
  2  3  1  0
  3  4  1  0
  4  5  3  0
  5  6  1  0
  6  7  2  0
  6  8  1  0
  8  9  1  0
  1 10  1  0
  1 11  1  0
  1 12  1  0
  3 13  1  0
  3 14  1  0
  8 15  1  0
  8 16  1  0
  9 17  1  0
M  END
