
     RDKit          3D

 21 20  0  0  0  0  0  0  0  0999 V2000
    2.6500    0.9181    1.2631 C   0  0  0  0  0  0  0  0  0  0  0  0
    1.4123    0.5437    0.7498 O   0  0  0  0  0  0  0  0  0  0  0  0
    1.6089   -0.1782   -0.4034 C   0  0  0  0  0  0  0  0  0  0  0  0
    0.3172   -0.6126   -1.0083 C   0  0  0  0  0  0  0  0  0  0  0  0
    0.2469   -1.2565   -2.0289 O   0  0  0  0  0  0  0  0  0  0  0  0
   -0.9381   -0.2337   -0.3209 C   0  0  0  0  0  0  0  0  0  0  0  0
   -0.8551   -0.6641    1.1004 C   0  0  0  0  0  0  0  0  0  0  0  0
   -1.9841   -0.7184   -1.0401 O   0  0  0  0  0  0  0  0  0  0  0  0
   -2.8383    0.2136   -1.5788 C   0  0  0  0  0  0  0  0  0  0  0  0
    2.4485    1.4980    2.1924 H   0  0  0  0  0  0  0  0  0  0  0  0
    3.2304    1.5098    0.5149 H   0  0  0  0  0  0  0  0  0  0  0  0
    3.2138   -0.0149    1.4708 H   0  0  0  0  0  0  0  0  0  0  0  0
    2.1230    0.4288   -1.1969 H   0  0  0  0  0  0  0  0  0  0  0  0
    2.1793   -1.1072   -0.1910 H   0  0  0  0  0  0  0  0  0  0  0  0
   -1.0121    0.8939   -0.3292 H   0  0  0  0  0  0  0  0  0  0  0  0
   -1.8034   -1.2090    1.3934 H   0  0  0  0  0  0  0  0  0  0  0  0
   -0.0679   -1.4402    1.1788 H   0  0  0  0  0  0  0  0  0  0  0  0
   -0.6096    0.1231    1.8248 H   0  0  0  0  0  0  0  0  0  0  0  0
   -3.6308   -0.3411   -2.1308 H   0  0  0  0  0  0  0  0  0  0  0  0
   -3.3722    0.8148   -0.8137 H   0  0  0  0  0  0  0  0  0  0  0  0
   -2.3186    0.8323   -2.3355 H   0  0  0  0  0  0  0  0  0  0  0  0
  1  2  1  0
  2  3  1  0
  3  4  1  0
  4  5  2  0
  4  6  1  0
  6  7  1  0
  6  8  1  0
  8  9  1  0
  1 10  1  0
  1 11  1  0
  1 12  1  0
  3 13  1  0
  3 14  1  0
  6 15  1  0
  7 16  1  0
  7 17  1  0
  7 18  1  0
  9 19  1  0
  9 20  1  0
  9 21  1  0
M  END
