
     RDKit          3D

 21 21  0  0  0  0  0  0  0  0999 V2000
    2.7599    0.2086    0.2295 C   0  0  0  0  0  0  0  0  0  0  0  0
    1.9411    0.1378   -0.8695 O   0  0  0  0  0  0  0  0  0  0  0  0
    0.9174   -0.7694   -0.7422 C   0  0  0  0  0  0  0  0  0  0  0  0
    0.0400   -0.3893    0.4079 C   0  0  0  0  0  0  0  0  0  0  0  0
   -1.1174   -1.3621    0.5795 C   0  0  0  0  0  0  0  0  0  0  0  0
   -2.2420   -0.8025   -0.2700 C   0  0  0  0  0  0  0  0  0  0  0  0
   -1.9147    0.6373   -0.4488 C   0  0  0  0  0  0  0  0  0  0  0  0
   -2.6665    1.4277   -0.9900 O   0  0  0  0  0  0  0  0  0  0  0  0
   -0.5816    0.9471    0.1132 C   0  0  0  0  0  0  0  0  0  0  0  0
    2.2826    0.5195    1.1699 H   0  0  0  0  0  0  0  0  0  0  0  0
    3.2946   -0.7664    0.3668 H   0  0  0  0  0  0  0  0  0  0  0  0
    3.5558    0.9651    0.0221 H   0  0  0  0  0  0  0  0  0  0  0  0
    0.3542   -0.7550   -1.7146 H   0  0  0  0  0  0  0  0  0  0  0  0
    1.3597   -1.7936   -0.6185 H   0  0  0  0  0  0  0  0  0  0  0  0
    0.5580   -0.3869    1.3763 H   0  0  0  0  0  0  0  0  0  0  0  0
   -0.8760   -2.3755    0.2536 H   0  0  0  0  0  0  0  0  0  0  0  0
   -1.4682   -1.3773    1.6318 H   0  0  0  0  0  0  0  0  0  0  0  0
   -3.2221   -0.8525    0.2290 H   0  0  0  0  0  0  0  0  0  0  0  0
   -2.2879   -1.3131   -1.2580 H   0  0  0  0  0  0  0  0  0  0  0  0
   -0.7255    1.4880    1.0759 H   0  0  0  0  0  0  0  0  0  0  0  0
    0.0386    1.5824   -0.5437 H   0  0  0  0  0  0  0  0  0  0  0  0
  1  2  1  0
  2  3  1  0
  3  4  1  0
  4  5  1  0
  5  6  1  0
  6  7  1  0
  7  8  2  0
  7  9  1  0
  9  4  1  0
  1 10  1  0
  1 11  1  0
  1 12  1  0
  3 13  1  0
  3 14  1  0
  4 15  1  0
  5 16  1  0
  5 17  1  0
  6 18  1  0
  6 19  1  0
  9 20  1  0
  9 21  1  0
M  END
