
     RDKit          3D

 22 21  0  0  0  0  0  0  0  0999 V2000
    3.4674    0.4742   -0.1052 C   0  0  0  0  0  0  0  0  0  0  0  0
    2.2750    0.2095    0.5430 O   0  0  0  0  0  0  0  0  0  0  0  0
    1.4835   -0.5273   -0.3562 C   0  0  0  0  0  0  0  0  0  0  0  0
    0.1701   -0.8284    0.3351 C   0  0  0  0  0  0  0  0  0  0  0  0
   -0.5599    0.4213    0.7258 C   0  0  0  0  0  0  0  0  0  0  0  0
   -1.8539    0.1093    1.4070 C   0  0  0  0  0  0  0  0  0  0  0  0
   -2.7332   -0.6183    0.6358 O   0  0  0  0  0  0  0  0  0  0  0  0
   -3.0618    0.0674   -0.5279 C   0  0  0  0  0  0  0  0  0  0  0  0
    3.2191    1.0673   -1.0301 H   0  0  0  0  0  0  0  0  0  0  0  0
    4.1264    1.1576    0.4899 H   0  0  0  0  0  0  0  0  0  0  0  0
    4.0493   -0.4317   -0.3414 H   0  0  0  0  0  0  0  0  0  0  0  0
    1.3346    0.0002   -1.3039 H   0  0  0  0  0  0  0  0  0  0  0  0
    2.0589   -1.4516   -0.5666 H   0  0  0  0  0  0  0  0  0  0  0  0
    0.4442   -1.3538    1.2905 H   0  0  0  0  0  0  0  0  0  0  0  0
   -0.4487   -1.5543   -0.2265 H   0  0  0  0  0  0  0  0  0  0  0  0
    0.0806    0.9320    1.5041 H   0  0  0  0  0  0  0  0  0  0  0  0
   -0.6550    1.1474   -0.1006 H   0  0  0  0  0  0  0  0  0  0  0  0
   -2.3548    0.9998    1.8102 H   0  0  0  0  0  0  0  0  0  0  0  0
   -1.5999   -0.5389    2.2944 H   0  0  0  0  0  0  0  0  0  0  0  0
   -3.7742   -0.5547   -1.1228 H   0  0  0  0  0  0  0  0  0  0  0  0
   -2.1492    0.2162   -1.1312 H   0  0  0  0  0  0  0  0  0  0  0  0
   -3.5185    1.0569   -0.2876 H   0  0  0  0  0  0  0  0  0  0  0  0
  1  2  1  0
  2  3  1  0
  3  4  1  0
  4  5  1  0
  5  6  1  0
  6  7  1  0
  7  8  1  0
  1  9  1  0
  1 10  1  0
  1 11  1  0
  3 12  1  0
  3 13  1  0
  4 14  1  0
  4 15  1  0
  5 16  1  0
  5 17  1  0
  6 18  1  0
  6 19  1  0
  8 20  1  0
  8 21  1  0
  8 22  1  0
M  END
