
     RDKit          3D

 23 23  0  0  0  0  0  0  0  0999 V2000
    3.0815    1.0786   -0.0874 C   0  0  0  0  0  0  0  0  0  0  0  0
    2.0823    0.2101   -0.5419 O   0  0  0  0  0  0  0  0  0  0  0  0
    1.0485    0.2979    0.4139 C   0  0  0  0  0  0  0  0  0  0  0  0
   -0.0438   -0.6181   -0.0347 C   0  0  0  0  0  0  0  0  0  0  0  0
    0.5293   -1.9914   -0.3547 C   0  0  0  0  0  0  0  0  0  0  0  0
   -0.9235   -0.1180   -1.1317 C   0  0  0  0  0  0  0  0  0  0  0  0
   -1.6651    0.4273    0.0587 C   0  0  0  0  0  0  0  0  0  0  0  0
   -3.1753    0.4164   -0.0756 C   0  0  0  0  0  0  0  0  0  0  0  0
   -1.1551   -0.6539    0.8044 O   0  0  0  0  0  0  0  0  0  0  0  0
    3.3893    0.7111    0.9117 H   0  0  0  0  0  0  0  0  0  0  0  0
    2.5532    2.0546    0.1143 H   0  0  0  0  0  0  0  0  0  0  0  0
    3.8972    1.2170   -0.7958 H   0  0  0  0  0  0  0  0  0  0  0  0
    1.4543   -0.0346    1.3815 H   0  0  0  0  0  0  0  0  0  0  0  0
    0.7659    1.3515    0.4694 H   0  0  0  0  0  0  0  0  0  0  0  0
    0.6780   -2.5358    0.5816 H   0  0  0  0  0  0  0  0  0  0  0  0
    1.5144   -1.7906   -0.8537 H   0  0  0  0  0  0  0  0  0  0  0  0
   -0.1017   -2.4904   -1.0974 H   0  0  0  0  0  0  0  0  0  0  0  0
   -1.4855   -0.9669   -1.5890 H   0  0  0  0  0  0  0  0  0  0  0  0
   -0.5135    0.6118   -1.8304 H   0  0  0  0  0  0  0  0  0  0  0  0
   -1.3385    1.4209    0.4028 H   0  0  0  0  0  0  0  0  0  0  0  0
   -3.5667   -0.5158   -0.4825 H   0  0  0  0  0  0  0  0  0  0  0  0
   -3.5810    0.6246    0.9476 H   0  0  0  0  0  0  0  0  0  0  0  0
   -3.4442    1.2936   -0.6876 H   0  0  0  0  0  0  0  0  0  0  0  0
  1  2  1  0
  2  3  1  0
  3  4  1  0
  4  5  1  0
  4  6  1  0
  6  7  1  0
  7  8  1  0
  7  9  1  0
  9  4  1  0
  1 10  1  0
  1 11  1  0
  1 12  1  0
  3 13  1  0
  3 14  1  0
  5 15  1  0
  5 16  1  0
  5 17  1  0
  6 18  1  0
  6 19  1  0
  7 20  1  0
  8 21  1  0
  8 22  1  0
  8 23  1  0
M  END
