
     RDKit          3D

 23 24  0  0  0  0  0  0  0  0999 V2000
   -2.9751    0.1861    0.7588 C   0  0  0  0  0  0  0  0  0  0  0  0
   -1.5989    0.1761    0.4874 O   0  0  0  0  0  0  0  0  0  0  0  0
   -1.4380   -0.3607   -0.7719 C   0  0  0  0  0  0  0  0  0  0  0  0
    0.0005   -0.4365   -1.2051 C   0  0  0  0  0  0  0  0  0  0  0  0
    0.6489    0.9517   -1.2385 C   0  0  0  0  0  0  0  0  0  0  0  0
    2.0096    0.5669   -0.7903 C   0  0  0  0  0  0  0  0  0  0  0  0
    2.6887    0.5755    0.4345 C   0  0  0  0  0  0  0  0  0  0  0  0
    1.4758   -0.1208    0.5335 C   0  0  0  0  0  0  0  0  0  0  0  0
    0.8488   -1.2455   -0.1993 C   0  0  0  0  0  0  0  0  0  0  0  0
   -3.4283    0.8293   -0.0481 H   0  0  0  0  0  0  0  0  0  0  0  0
   -3.2136    0.5347    1.7650 H   0  0  0  0  0  0  0  0  0  0  0  0
   -3.3828   -0.8493    0.6243 H   0  0  0  0  0  0  0  0  0  0  0  0
   -1.9061   -1.3502   -0.8028 H   0  0  0  0  0  0  0  0  0  0  0  0
   -1.9406    0.3272   -1.4855 H   0  0  0  0  0  0  0  0  0  0  0  0
    0.1176   -0.9108   -2.1945 H   0  0  0  0  0  0  0  0  0  0  0  0
    0.6928    1.3687   -2.2449 H   0  0  0  0  0  0  0  0  0  0  0  0
    0.2030    1.6232   -0.4773 H   0  0  0  0  0  0  0  0  0  0  0  0
    2.4324   -0.1479   -1.5659 H   0  0  0  0  0  0  0  0  0  0  0  0
    3.6443   -0.0135    0.5521 H   0  0  0  0  0  0  0  0  0  0  0  0
    2.8264    1.5520    0.9645 H   0  0  0  0  0  0  0  0  0  0  0  0
    0.6485    0.4441    1.0688 H   0  0  0  0  0  0  0  0  0  0  0  0
    1.5435   -1.9181   -0.7121 H   0  0  0  0  0  0  0  0  0  0  0  0
    0.1028   -1.7823    0.4366 H   0  0  0  0  0  0  0  0  0  0  0  0
  1  2  1  0
  2  3  1  0
  3  4  1  0
  4  5  1  0
  5  6  1  0
  6  7  1  0
  7  8  1  0
  8  9  1  0
  9  4  1  0
  8  6  1  0
  1 10  1  0
  1 11  1  0
  1 12  1  0
  3 13  1  0
  3 14  1  0
  4 15  1  0
  5 16  1  0
  5 17  1  0
  6 18  1  0
  7 19  1  0
  7 20  1  0
  8 21  1  0
  9 22  1  0
  9 23  1  0
M  END
