
     RDKit          3D

 22 22  0  0  0  0  0  0  0  0999 V2000
   -2.8339    0.4596    0.1100 C   0  0  0  0  0  0  0  0  0  0  0  0
   -2.5393   -0.5446   -0.7632 O   0  0  0  0  0  0  0  0  0  0  0  0
   -1.3360   -1.1757   -0.5779 C   0  0  0  0  0  0  0  0  0  0  0  0
   -0.1875   -0.2236   -0.6929 C   0  0  0  0  0  0  0  0  0  0  0  0
    1.1272   -0.9956   -0.4968 C   0  0  0  0  0  0  0  0  0  0  0  0
    1.4999   -0.0221    0.5732 C   0  0  0  0  0  0  0  0  0  0  0  0
    2.6675    0.8803    0.2842 C   0  0  0  0  0  0  0  0  0  0  0  0
    0.1478    0.6057    0.5075 C   0  0  0  0  0  0  0  0  0  0  0  0
   -2.8515    0.1541    1.1679 H   0  0  0  0  0  0  0  0  0  0  0  0
   -3.8473    0.9074   -0.0851 H   0  0  0  0  0  0  0  0  0  0  0  0
   -2.1369    1.3010   -0.0338 H   0  0  0  0  0  0  0  0  0  0  0  0
   -1.3224   -1.7430    0.3813 H   0  0  0  0  0  0  0  0  0  0  0  0
   -1.2692   -1.9577   -1.3926 H   0  0  0  0  0  0  0  0  0  0  0  0
   -0.1330    0.3730   -1.6065 H   0  0  0  0  0  0  0  0  0  0  0  0
    1.8078   -0.9151   -1.3756 H   0  0  0  0  0  0  0  0  0  0  0  0
    0.9879   -2.0274   -0.1662 H   0  0  0  0  0  0  0  0  0  0  0  0
    1.6702   -0.5253    1.5657 H   0  0  0  0  0  0  0  0  0  0  0  0
    2.6558    1.3328   -0.7071 H   0  0  0  0  0  0  0  0  0  0  0  0
    3.5918    0.2807    0.4738 H   0  0  0  0  0  0  0  0  0  0  0  0
    2.6274    1.7042    1.0514 H   0  0  0  0  0  0  0  0  0  0  0  0
   -0.4800    0.4119    1.4272 H   0  0  0  0  0  0  0  0  0  0  0  0
    0.1540    1.7194    0.3555 H   0  0  0  0  0  0  0  0  0  0  0  0
  1  2  1  0
  2  3  1  0
  3  4  1  0
  4  5  1  0
  5  6  1  0
  6  7  1  0
  6  8  1  0
  8  4  1  0
  1  9  1  0
  1 10  1  0
  1 11  1  0
  3 12  1  0
  3 13  1  0
  4 14  1  0
  5 15  1  0
  5 16  1  0
  6 17  1  0
  7 18  1  0
  7 19  1  0
  7 20  1  0
  8 21  1  0
  8 22  1  0
M  END
