
     RDKit          3D

 21 21  0  0  0  0  0  0  0  0999 V2000
    3.3433    0.2854   -0.1169 C   0  0  0  0  0  0  0  0  0  0  0  0
    1.9743    0.5271   -0.0227 O   0  0  0  0  0  0  0  0  0  0  0  0
    1.2504   -0.5692   -0.5349 C   0  0  0  0  0  0  0  0  0  0  0  0
   -0.2113   -0.3343   -0.4450 C   0  0  0  0  0  0  0  0  0  0  0  0
   -1.0460   -0.3065   -1.4753 C   0  0  0  0  0  0  0  0  0  0  0  0
   -2.4319   -0.0482   -1.0324 C   0  0  0  0  0  0  0  0  0  0  0  0
   -2.1539    0.7337    0.2623 C   0  0  0  0  0  0  0  0  0  0  0  0
   -1.0110   -0.0900    0.8158 C   0  0  0  0  0  0  0  0  0  0  0  0
   -0.2816    0.5551    1.7765 O   0  0  0  0  0  0  0  0  0  0  0  0
    3.9213    1.1341    0.2799 H   0  0  0  0  0  0  0  0  0  0  0  0
    3.5936   -0.6735    0.3989 H   0  0  0  0  0  0  0  0  0  0  0  0
    3.6497    0.1336   -1.1839 H   0  0  0  0  0  0  0  0  0  0  0  0
    1.5581   -1.4354    0.1067 H   0  0  0  0  0  0  0  0  0  0  0  0
    1.5146   -0.7401   -1.5902 H   0  0  0  0  0  0  0  0  0  0  0  0
   -0.7494   -0.4536   -2.5025 H   0  0  0  0  0  0  0  0  0  0  0  0
   -3.0150    0.5733   -1.7362 H   0  0  0  0  0  0  0  0  0  0  0  0
   -2.9698   -0.9672   -0.7189 H   0  0  0  0  0  0  0  0  0  0  0  0
   -1.8454    1.7321   -0.0517 H   0  0  0  0  0  0  0  0  0  0  0  0
   -3.0426    0.7232    0.9220 H   0  0  0  0  0  0  0  0  0  0  0  0
   -1.4006   -1.0792    1.1107 H   0  0  0  0  0  0  0  0  0  0  0  0
   -0.6469    0.2999    2.6615 H   0  0  0  0  0  0  0  0  0  0  0  0
  1  2  1  0
  2  3  1  0
  3  4  1  0
  4  5  2  0
  5  6  1  0
  6  7  1  0
  7  8  1  0
  8  9  1  0
  8  4  1  0
  1 10  1  0
  1 11  1  0
  1 12  1  0
  3 13  1  0
  3 14  1  0
  5 15  1  0
  6 16  1  0
  6 17  1  0
  7 18  1  0
  7 19  1  0
  8 20  1  0
  9 21  1  0
M  END
