
     RDKit          3D

 21 21  0  0  0  0  0  0  0  0999 V2000
    2.8834   -0.2489    0.3763 C   0  0  0  0  0  0  0  0  0  0  0  0
    2.2628   -0.3734   -0.8436 O   0  0  0  0  0  0  0  0  0  0  0  0
    1.2007    0.4694   -1.0349 C   0  0  0  0  0  0  0  0  0  0  0  0
    0.0924    0.2789   -0.0263 C   0  0  0  0  0  0  0  0  0  0  0  0
   -1.0729    1.2139   -0.2479 C   0  0  0  0  0  0  0  0  0  0  0  0
   -1.9919    0.0300    0.0606 C   0  0  0  0  0  0  0  0  0  0  0  0
   -3.0310   -0.0923   -0.8393 O   0  0  0  0  0  0  0  0  0  0  0  0
   -0.8454   -0.8815   -0.3333 C   0  0  0  0  0  0  0  0  0  0  0  0
   -0.6512   -1.9720    0.5067 O   0  0  0  0  0  0  0  0  0  0  0  0
    3.7272   -1.0003    0.3813 H   0  0  0  0  0  0  0  0  0  0  0  0
    3.3123    0.7257    0.5849 H   0  0  0  0  0  0  0  0  0  0  0  0
    2.2112   -0.6087    1.2102 H   0  0  0  0  0  0  0  0  0  0  0  0
    0.7600    0.2335   -2.0326 H   0  0  0  0  0  0  0  0  0  0  0  0
    1.5032    1.5503   -1.0851 H   0  0  0  0  0  0  0  0  0  0  0  0
    0.3750    0.2593    1.0218 H   0  0  0  0  0  0  0  0  0  0  0  0
   -1.1446    1.5583   -1.2974 H   0  0  0  0  0  0  0  0  0  0  0  0
   -1.1168    2.0266    0.5014 H   0  0  0  0  0  0  0  0  0  0  0  0
   -2.2367   -0.0007    1.1247 H   0  0  0  0  0  0  0  0  0  0  0  0
   -3.8418    0.3162   -0.4181 H   0  0  0  0  0  0  0  0  0  0  0  0
   -0.8411   -1.0916   -1.4138 H   0  0  0  0  0  0  0  0  0  0  0  0
   -1.5547   -2.3926    0.6168 H   0  0  0  0  0  0  0  0  0  0  0  0
  1  2  1  0
  2  3  1  0
  3  4  1  0
  4  5  1  0
  5  6  1  0
  6  7  1  0
  6  8  1  0
  8  9  1  0
  8  4  1  0
  1 10  1  0
  1 11  1  0
  1 12  1  0
  3 13  1  0
  3 14  1  0
  4 15  1  0
  5 16  1  0
  5 17  1  0
  6 18  1  0
  7 19  1  0
  8 20  1  0
  9 21  1  0
M  END
