
     RDKit          3D

 17 19  0  0  0  0  0  0  0  0999 V2000
    2.8728   -0.3101   -0.2703 C   0  0  0  0  0  0  0  0  0  0  0  0
    1.5674   -0.6370   -0.5745 O   0  0  0  0  0  0  0  0  0  0  0  0
    0.7416    0.0687    0.2922 C   0  0  0  0  0  0  0  0  0  0  0  0
   -0.6920   -0.3348   -0.0938 C   0  0  0  0  0  0  0  0  0  0  0  0
   -0.9076    0.0126   -1.3990 O   0  0  0  0  0  0  0  0  0  0  0  0
   -1.6941    0.7064   -0.5283 C   0  0  0  0  0  0  0  0  0  0  0  0
   -2.7832   -0.0968    0.1099 C   0  0  0  0  0  0  0  0  0  0  0  0
   -2.7806   -0.8320    1.2740 O   0  0  0  0  0  0  0  0  0  0  0  0
   -1.6012   -0.3484    1.0528 C   0  0  0  0  0  0  0  0  0  0  0  0
    3.0609   -0.5980    0.7785 H   0  0  0  0  0  0  0  0  0  0  0  0
    2.9621    0.7965   -0.3439 H   0  0  0  0  0  0  0  0  0  0  0  0
    3.5589   -0.8118   -0.9786 H   0  0  0  0  0  0  0  0  0  0  0  0
    0.9838   -0.2746    1.3227 H   0  0  0  0  0  0  0  0  0  0  0  0
    0.8876    1.1483    0.2703 H   0  0  0  0  0  0  0  0  0  0  0  0
   -1.5450    1.7613   -0.3215 H   0  0  0  0  0  0  0  0  0  0  0  0
   -3.1823   -0.8405   -0.6092 H   0  0  0  0  0  0  0  0  0  0  0  0
   -1.4490    0.5902    1.6934 H   0  0  0  0  0  0  0  0  0  0  0  0
  1  2  1  0
  2  3  1  0
  3  4  1  0
  4  5  1  0
  5  6  1  0
  6  7  1  0
  7  8  1  0
  8  9  1  0
  6  4  1  0
  9  7  1  0
  9  4  1  0
  1 10  1  0
  1 11  1  0
  1 12  1  0
  3 13  1  0
  3 14  1  0
  6 15  1  0
  7 16  1  0
  9 17  1  0
M  END
