
     RDKit          3D

 19 20  0  0  0  0  0  0  0  0999 V2000
    3.0178    0.3847    0.0388 C   0  0  0  0  0  0  0  0  0  0  0  0
    1.8708   -0.3885    0.0253 O   0  0  0  0  0  0  0  0  0  0  0  0
    0.8369    0.1775   -0.6968 C   0  0  0  0  0  0  0  0  0  0  0  0
   -0.3402   -0.7889   -0.6134 C   0  0  0  0  0  0  0  0  0  0  0  0
   -0.7287   -0.9737    0.8004 C   0  0  0  0  0  0  0  0  0  0  0  0
   -0.1457   -1.4085    1.7670 O   0  0  0  0  0  0  0  0  0  0  0  0
   -2.0654   -0.4186    0.5002 C   0  0  0  0  0  0  0  0  0  0  0  0
   -2.1845    0.9227   -0.1568 C   0  0  0  0  0  0  0  0  0  0  0  0
   -1.6656   -0.2036   -0.9554 C   0  0  0  0  0  0  0  0  0  0  0  0
    3.3836    0.5339   -1.0083 H   0  0  0  0  0  0  0  0  0  0  0  0
    2.7762    1.3511    0.5244 H   0  0  0  0  0  0  0  0  0  0  0  0
    3.7804   -0.1838    0.6229 H   0  0  0  0  0  0  0  0  0  0  0  0
    0.5634    1.1284   -0.1828 H   0  0  0  0  0  0  0  0  0  0  0  0
    1.0919    0.4072   -1.7407 H   0  0  0  0  0  0  0  0  0  0  0  0
   -0.1375   -1.7223   -1.1672 H   0  0  0  0  0  0  0  0  0  0  0  0
   -2.9529   -1.0305    0.7177 H   0  0  0  0  0  0  0  0  0  0  0  0
   -1.5204    1.7403    0.1502 H   0  0  0  0  0  0  0  0  0  0  0  0
   -3.2497    1.1994   -0.3919 H   0  0  0  0  0  0  0  0  0  0  0  0
   -2.3303   -0.7271   -1.6710 H   0  0  0  0  0  0  0  0  0  0  0  0
  1  2  1  0
  2  3  1  0
  3  4  1  0
  4  5  1  0
  5  6  2  0
  5  7  1  0
  7  8  1  0
  8  9  1  0
  9  4  1  0
  9  7  1  0
  1 10  1  0
  1 11  1  0
  1 12  1  0
  3 13  1  0
  3 14  1  0
  4 15  1  0
  7 16  1  0
  8 17  1  0
  8 18  1  0
  9 19  1  0
M  END
