
     RDKit          3D

 22 22  0  0  0  0  0  0  0  0999 V2000
    2.8382    0.5093    1.0418 C   0  0  0  0  0  0  0  0  0  0  0  0
    1.5204    0.4687    0.5955 O   0  0  0  0  0  0  0  0  0  0  0  0
    1.3504   -0.6818   -0.1472 C   0  0  0  0  0  0  0  0  0  0  0  0
   -0.0542   -0.8283   -0.6846 C   0  0  0  0  0  0  0  0  0  0  0  0
   -0.6289    0.1871   -1.5857 C   0  0  0  0  0  0  0  0  0  0  0  0
   -1.1835   -0.0635   -0.1786 C   0  0  0  0  0  0  0  0  0  0  0  0
   -1.0790    1.1340    0.7017 C   0  0  0  0  0  0  0  0  0  0  0  0
   -2.5409   -0.7586   -0.0926 C   0  0  0  0  0  0  0  0  0  0  0  0
    3.5231    0.5144    0.1734 H   0  0  0  0  0  0  0  0  0  0  0  0
    3.0534   -0.4075    1.6204 H   0  0  0  0  0  0  0  0  0  0  0  0
    2.9972    1.3779    1.7050 H   0  0  0  0  0  0  0  0  0  0  0  0
    1.7029   -1.5633    0.3861 H   0  0  0  0  0  0  0  0  0  0  0  0
    2.0131   -0.5836   -1.0571 H   0  0  0  0  0  0  0  0  0  0  0  0
   -0.2746   -1.8902   -0.9920 H   0  0  0  0  0  0  0  0  0  0  0  0
   -1.3335   -0.0706   -2.3989 H   0  0  0  0  0  0  0  0  0  0  0  0
   -0.0303    1.0783   -1.7734 H   0  0  0  0  0  0  0  0  0  0  0  0
   -2.0761    1.6605    0.6288 H   0  0  0  0  0  0  0  0  0  0  0  0
   -0.3313    1.8792    0.3851 H   0  0  0  0  0  0  0  0  0  0  0  0
   -0.9729    0.8529    1.7849 H   0  0  0  0  0  0  0  0  0  0  0  0
   -2.6585   -1.3337   -1.0271 H   0  0  0  0  0  0  0  0  0  0  0  0
   -3.3593   -0.0554    0.1036 H   0  0  0  0  0  0  0  0  0  0  0  0
   -2.4757   -1.4261    0.8111 H   0  0  0  0  0  0  0  0  0  0  0  0
  1  2  1  0
  2  3  1  0
  3  4  1  0
  4  5  1  0
  5  6  1  0
  6  7  1  0
  6  8  1  0
  6  4  1  0
  1  9  1  0
  1 10  1  0
  1 11  1  0
  3 12  1  0
  3 13  1  0
  4 14  1  0
  5 15  1  0
  5 16  1  0
  7 17  1  0
  7 18  1  0
  7 19  1  0
  8 20  1  0
  8 21  1  0
  8 22  1  0
M  END
