
     RDKit          3D

 20 19  0  0  0  0  0  0  0  0999 V2000
    2.8320   -0.2205    0.4524 C   0  0  0  0  0  0  0  0  0  0  0  0
    2.3457   -0.1705   -0.8282 O   0  0  0  0  0  0  0  0  0  0  0  0
    1.0972    0.3802   -0.9634 C   0  0  0  0  0  0  0  0  0  0  0  0
    0.0872   -0.4352   -0.2868 C   0  0  0  0  0  0  0  0  0  0  0  0
    0.4163   -1.4875    0.2208 O   0  0  0  0  0  0  0  0  0  0  0  0
   -1.3495   -0.0510   -0.1770 C   0  0  0  0  0  0  0  0  0  0  0  0
   -1.4081    1.2629    0.5654 C   0  0  0  0  0  0  0  0  0  0  0  0
   -2.0751   -1.1619    0.5376 C   0  0  0  0  0  0  0  0  0  0  0  0
    2.2793   -0.7836    1.1939 H   0  0  0  0  0  0  0  0  0  0  0  0
    2.8575    0.8583    0.8058 H   0  0  0  0  0  0  0  0  0  0  0  0
    3.8978   -0.5771    0.4068 H   0  0  0  0  0  0  0  0  0  0  0  0
    0.8552    0.4102   -2.0496 H   0  0  0  0  0  0  0  0  0  0  0  0
    1.0442    1.4354   -0.6132 H   0  0  0  0  0  0  0  0  0  0  0  0
   -1.8053    0.1261   -1.1759 H   0  0  0  0  0  0  0  0  0  0  0  0
   -1.4752    2.1379   -0.1211 H   0  0  0  0  0  0  0  0  0  0  0  0
   -0.4953    1.4303    1.1941 H   0  0  0  0  0  0  0  0  0  0  0  0
   -2.3165    1.2532    1.1971 H   0  0  0  0  0  0  0  0  0  0  0  0
   -1.5272   -2.1292    0.4771 H   0  0  0  0  0  0  0  0  0  0  0  0
   -2.1947   -0.9555    1.6247 H   0  0  0  0  0  0  0  0  0  0  0  0
   -3.0654   -1.3226    0.0855 H   0  0  0  0  0  0  0  0  0  0  0  0
  1  2  1  0
  2  3  1  0
  3  4  1  0
  4  5  2  0
  4  6  1  0
  6  7  1  0
  6  8  1  0
  1  9  1  0
  1 10  1  0
  1 11  1  0
  3 12  1  0
  3 13  1  0
  6 14  1  0
  7 15  1  0
  7 16  1  0
  7 17  1  0
  8 18  1  0
  8 19  1  0
  8 20  1  0
M  END
