
     RDKit          3D

 18 18  0  0  0  0  0  0  0  0999 V2000
    3.0303   -0.3164    0.4762 C   0  0  0  0  0  0  0  0  0  0  0  0
    1.6847   -0.1496    0.7317 O   0  0  0  0  0  0  0  0  0  0  0  0
    0.9600    0.3062   -0.3450 C   0  0  0  0  0  0  0  0  0  0  0  0
   -0.4725    0.4417    0.0667 C   0  0  0  0  0  0  0  0  0  0  0  0
   -1.1110   -0.9055    0.3103 C   0  0  0  0  0  0  0  0  0  0  0  0
   -2.3884   -0.7578   -0.0258 C   0  0  0  0  0  0  0  0  0  0  0  0
   -2.5296    0.6551   -0.4668 C   0  0  0  0  0  0  0  0  0  0  0  0
   -1.2717    0.9098   -1.0063 O   0  0  0  0  0  0  0  0  0  0  0  0
    3.2588   -1.0296   -0.3201 H   0  0  0  0  0  0  0  0  0  0  0  0
    3.5013   -0.6711    1.4178 H   0  0  0  0  0  0  0  0  0  0  0  0
    3.4849    0.6813    0.2613 H   0  0  0  0  0  0  0  0  0  0  0  0
    0.9913   -0.4054   -1.2021 H   0  0  0  0  0  0  0  0  0  0  0  0
    1.2966    1.2881   -0.7239 H   0  0  0  0  0  0  0  0  0  0  0  0
   -0.6478    1.1138    0.9127 H   0  0  0  0  0  0  0  0  0  0  0  0
   -0.6466   -1.8066    0.6779 H   0  0  0  0  0  0  0  0  0  0  0  0
   -3.1737   -1.5060    0.0102 H   0  0  0  0  0  0  0  0  0  0  0  0
   -3.3449    0.8047   -1.1898 H   0  0  0  0  0  0  0  0  0  0  0  0
   -2.6216    1.3472    0.4149 H   0  0  0  0  0  0  0  0  0  0  0  0
  1  2  1  0
  2  3  1  0
  3  4  1  0
  4  5  1  0
  5  6  2  0
  6  7  1  0
  7  8  1  0
  8  4  1  0
  1  9  1  0
  1 10  1  0
  1 11  1  0
  3 12  1  0
  3 13  1  0
  4 14  1  0
  5 15  1  0
  6 16  1  0
  7 17  1  0
  7 18  1  0
M  END
