
     RDKit          3D

 23 22  0  0  0  0  0  0  0  0999 V2000
   -2.6517   -1.3231   -0.5066 C   0  0  0  0  0  0  0  0  0  0  0  0
   -1.5274   -0.5440   -0.7679 O   0  0  0  0  0  0  0  0  0  0  0  0
   -0.7508   -0.4095    0.3787 C   0  0  0  0  0  0  0  0  0  0  0  0
    0.4722    0.4349    0.1042 C   0  0  0  0  0  0  0  0  0  0  0  0
    1.1727    0.6514    1.4160 C   0  0  0  0  0  0  0  0  0  0  0  0
    0.0719    1.8196   -0.4075 C   0  0  0  0  0  0  0  0  0  0  0  0
    1.2736    2.5053   -0.6169 O   0  0  0  0  0  0  0  0  0  0  0  0
    1.2366   -0.1358   -0.8661 O   0  0  0  0  0  0  0  0  0  0  0  0
    1.7280   -1.3790   -0.6392 C   0  0  0  0  0  0  0  0  0  0  0  0
   -3.2315   -1.3945   -1.4575 H   0  0  0  0  0  0  0  0  0  0  0  0
   -3.2752   -0.9146    0.3035 H   0  0  0  0  0  0  0  0  0  0  0  0
   -2.3670   -2.3588   -0.2262 H   0  0  0  0  0  0  0  0  0  0  0  0
   -0.4738   -1.4133    0.7357 H   0  0  0  0  0  0  0  0  0  0  0  0
   -1.3742    0.0634    1.1838 H   0  0  0  0  0  0  0  0  0  0  0  0
    0.5977    1.4616    1.9509 H   0  0  0  0  0  0  0  0  0  0  0  0
    1.1218   -0.2279    2.0889 H   0  0  0  0  0  0  0  0  0  0  0  0
    2.1962    1.0558    1.2971 H   0  0  0  0  0  0  0  0  0  0  0  0
   -0.3681    1.6781   -1.4347 H   0  0  0  0  0  0  0  0  0  0  0  0
   -0.6106    2.3289    0.2711 H   0  0  0  0  0  0  0  0  0  0  0  0
    1.1241    3.3409   -1.1219 H   0  0  0  0  0  0  0  0  0  0  0  0
    2.3860   -1.4869    0.2412 H   0  0  0  0  0  0  0  0  0  0  0  0
    0.8899   -2.1040   -0.6047 H   0  0  0  0  0  0  0  0  0  0  0  0
    2.3594   -1.6487   -1.5365 H   0  0  0  0  0  0  0  0  0  0  0  0
  1  2  1  0
  2  3  1  0
  3  4  1  0
  4  5  1  0
  4  6  1  0
  6  7  1  0
  4  8  1  0
  8  9  1  0
  1 10  1  0
  1 11  1  0
  1 12  1  0
  3 13  1  0
  3 14  1  0
  5 15  1  0
  5 16  1  0
  5 17  1  0
  6 18  1  0
  6 19  1  0
  7 20  1  0
  9 21  1  0
  9 22  1  0
  9 23  1  0
M  END
