
     RDKit          3D

 21 21  0  0  0  0  0  0  0  0999 V2000
    3.4345   -0.3960    0.1551 C   0  0  0  0  0  0  0  0  0  0  0  0
    2.4221    0.3526   -0.4448 O   0  0  0  0  0  0  0  0  0  0  0  0
    1.2219   -0.2660   -0.1332 C   0  0  0  0  0  0  0  0  0  0  0  0
    0.0345    0.4727   -0.7422 C   0  0  0  0  0  0  0  0  0  0  0  0
   -0.0023    1.7763   -0.2515 O   0  0  0  0  0  0  0  0  0  0  0  0
   -1.2068   -0.2842   -0.3641 C   0  0  0  0  0  0  0  0  0  0  0  0
   -2.5004    0.4502   -0.4618 C   0  0  0  0  0  0  0  0  0  0  0  0
   -2.7206   -0.2089    0.9029 C   0  0  0  0  0  0  0  0  0  0  0  0
   -1.3389   -0.3486    1.0216 O   0  0  0  0  0  0  0  0  0  0  0  0
    3.4321   -1.4485   -0.2308 H   0  0  0  0  0  0  0  0  0  0  0  0
    3.3547   -0.4068    1.2615 H   0  0  0  0  0  0  0  0  0  0  0  0
    4.4237    0.0281   -0.1113 H   0  0  0  0  0  0  0  0  0  0  0  0
    1.2462   -1.3095   -0.5103 H   0  0  0  0  0  0  0  0  0  0  0  0
    1.1055   -0.3260    0.9550 H   0  0  0  0  0  0  0  0  0  0  0  0
    0.1503    0.5568   -1.8429 H   0  0  0  0  0  0  0  0  0  0  0  0
    0.2115    1.7724    0.7322 H   0  0  0  0  0  0  0  0  0  0  0  0
   -1.2106   -1.2861   -0.7975 H   0  0  0  0  0  0  0  0  0  0  0  0
   -3.2435    0.0099   -1.1780 H   0  0  0  0  0  0  0  0  0  0  0  0
   -2.4654    1.5413   -0.4208 H   0  0  0  0  0  0  0  0  0  0  0  0
   -3.1347    0.5140    1.6191 H   0  0  0  0  0  0  0  0  0  0  0  0
   -3.2138   -1.1937    0.8417 H   0  0  0  0  0  0  0  0  0  0  0  0
  1  2  1  0
  2  3  1  0
  3  4  1  0
  4  5  1  0
  4  6  1  0
  6  7  1  0
  7  8  1  0
  8  9  1  0
  9  6  1  0
  1 10  1  0
  1 11  1  0
  1 12  1  0
  3 13  1  0
  3 14  1  0
  4 15  1  0
  5 16  1  0
  6 17  1  0
  7 18  1  0
  7 19  1  0
  8 20  1  0
  8 21  1  0
M  END
