
     RDKit          3D

 23 22  0  0  0  0  0  0  0  0999 V2000
    3.3568    0.7870    1.0347 C   0  0  0  0  0  0  0  0  0  0  0  0
    2.1512    0.8943    0.3436 O   0  0  0  0  0  0  0  0  0  0  0  0
    1.8045   -0.3691   -0.0946 C   0  0  0  0  0  0  0  0  0  0  0  0
    0.5171   -0.4137   -0.8622 C   0  0  0  0  0  0  0  0  0  0  0  0
    0.3116   -1.7444   -1.2296 O   0  0  0  0  0  0  0  0  0  0  0  0
   -0.6554    0.0976   -0.0515 C   0  0  0  0  0  0  0  0  0  0  0  0
   -1.9422    0.0454   -0.8401 C   0  0  0  0  0  0  0  0  0  0  0  0
   -3.1068    0.5655   -0.0012 C   0  0  0  0  0  0  0  0  0  0  0  0
   -3.2806   -0.1823    1.1386 O   0  0  0  0  0  0  0  0  0  0  0  0
    3.3043    0.1238    1.9008 H   0  0  0  0  0  0  0  0  0  0  0  0
    4.0839    0.3391    0.2990 H   0  0  0  0  0  0  0  0  0  0  0  0
    3.7860    1.7703    1.3088 H   0  0  0  0  0  0  0  0  0  0  0  0
    1.7138   -1.1061    0.7402 H   0  0  0  0  0  0  0  0  0  0  0  0
    2.6014   -0.7534   -0.7608 H   0  0  0  0  0  0  0  0  0  0  0  0
    0.6249    0.1524   -1.8258 H   0  0  0  0  0  0  0  0  0  0  0  0
    1.2040   -2.0976   -1.4813 H   0  0  0  0  0  0  0  0  0  0  0  0
   -0.4960    1.1341    0.2885 H   0  0  0  0  0  0  0  0  0  0  0  0
   -0.7751   -0.6118    0.8034 H   0  0  0  0  0  0  0  0  0  0  0  0
   -2.2186   -0.9997   -1.1111 H   0  0  0  0  0  0  0  0  0  0  0  0
   -1.8393    0.5970   -1.7771 H   0  0  0  0  0  0  0  0  0  0  0  0
   -2.8954    1.6257    0.3127 H   0  0  0  0  0  0  0  0  0  0  0  0
   -4.0390    0.5516   -0.5926 H   0  0  0  0  0  0  0  0  0  0  0  0
   -4.2110   -0.4058    1.3406 H   0  0  0  0  0  0  0  0  0  0  0  0
  1  2  1  0
  2  3  1  0
  3  4  1  0
  4  5  1  0
  4  6  1  0
  6  7  1  0
  7  8  1  0
  8  9  1  0
  1 10  1  0
  1 11  1  0
  1 12  1  0
  3 13  1  0
  3 14  1  0
  4 15  1  0
  5 16  1  0
  6 17  1  0
  6 18  1  0
  7 19  1  0
  7 20  1  0
  8 21  1  0
  8 22  1  0
  9 23  1  0
M  END
