
     RDKit          3D

 20 20  0  0  0  0  0  0  0  0999 V2000
    2.9243    0.3678    0.0654 C   0  0  0  0  0  0  0  0  0  0  0  0
    2.3058   -0.5609   -0.7235 O   0  0  0  0  0  0  0  0  0  0  0  0
    1.0322   -0.8361   -0.3105 C   0  0  0  0  0  0  0  0  0  0  0  0
    0.1366    0.3624   -0.3489 C   0  0  0  0  0  0  0  0  0  0  0  0
   -1.2784   -0.0173    0.0918 C   0  0  0  0  0  0  0  0  0  0  0  0
   -2.2274    1.1613    0.0713 C   0  0  0  0  0  0  0  0  0  0  0  0
   -1.7975   -1.3371   -0.0010 C   0  0  0  0  0  0  0  0  0  0  0  0
   -1.3262   -0.7486    1.2785 O   0  0  0  0  0  0  0  0  0  0  0  0
    2.3888    1.3187    0.0225 H   0  0  0  0  0  0  0  0  0  0  0  0
    3.0032   -0.0265    1.1117 H   0  0  0  0  0  0  0  0  0  0  0  0
    3.9734    0.5592   -0.2994 H   0  0  0  0  0  0  0  0  0  0  0  0
    0.5807   -1.6054   -0.9810 H   0  0  0  0  0  0  0  0  0  0  0  0
    1.0471   -1.2789    0.7298 H   0  0  0  0  0  0  0  0  0  0  0  0
    0.4980    1.2112    0.2969 H   0  0  0  0  0  0  0  0  0  0  0  0
    0.1076    0.7634   -1.3810 H   0  0  0  0  0  0  0  0  0  0  0  0
   -2.0931    1.8013   -0.8123 H   0  0  0  0  0  0  0  0  0  0  0  0
   -3.2594    0.7987    0.2190 H   0  0  0  0  0  0  0  0  0  0  0  0
   -1.9413    1.7998    0.9531 H   0  0  0  0  0  0  0  0  0  0  0  0
   -1.1885   -2.2369   -0.1878 H   0  0  0  0  0  0  0  0  0  0  0  0
   -2.8860   -1.4960    0.0164 H   0  0  0  0  0  0  0  0  0  0  0  0
  1  2  1  0
  2  3  1  0
  3  4  1  0
  4  5  1  0
  5  6  1  0
  5  7  1  0
  7  8  1  0
  8  5  1  0
  1  9  1  0
  1 10  1  0
  1 11  1  0
  3 12  1  0
  3 13  1  0
  4 14  1  0
  4 15  1  0
  6 16  1  0
  6 17  1  0
  6 18  1  0
  7 19  1  0
  7 20  1  0
M  END
