
     RDKit          3D

 21 22  0  0  0  0  0  0  0  0999 V2000
    3.6322    0.3432    0.3037 C   0  0  0  0  0  0  0  0  0  0  0  0
    2.3346    0.6530    0.6509 O   0  0  0  0  0  0  0  0  0  0  0  0
    1.4600    0.2574   -0.3670 C   0  0  0  0  0  0  0  0  0  0  0  0
    0.0546    0.6013    0.0266 C   0  0  0  0  0  0  0  0  0  0  0  0
   -0.6001   -0.3472    1.0096 C   0  0  0  0  0  0  0  0  0  0  0  0
   -1.6514   -0.2798   -0.0256 C   0  0  0  0  0  0  0  0  0  0  0  0
   -2.7752   -1.1547   -0.1838 C   0  0  0  0  0  0  0  0  0  0  0  0
   -2.9657    0.3349    0.1443 C   0  0  0  0  0  0  0  0  0  0  0  0
   -0.8276    0.2044   -0.9958 O   0  0  0  0  0  0  0  0  0  0  0  0
    3.7336   -0.7487    0.1475 H   0  0  0  0  0  0  0  0  0  0  0  0
    3.9880    0.8771   -0.6095 H   0  0  0  0  0  0  0  0  0  0  0  0
    4.3060    0.6870    1.1321 H   0  0  0  0  0  0  0  0  0  0  0  0
    1.5356   -0.8132   -0.6071 H   0  0  0  0  0  0  0  0  0  0  0  0
    1.7087    0.8437   -1.2690 H   0  0  0  0  0  0  0  0  0  0  0  0
   -0.0711    1.6415    0.3618 H   0  0  0  0  0  0  0  0  0  0  0  0
   -0.8065    0.0477    2.0021 H   0  0  0  0  0  0  0  0  0  0  0  0
   -0.0410   -1.3247    0.9864 H   0  0  0  0  0  0  0  0  0  0  0  0
   -3.0532   -1.8141    0.6892 H   0  0  0  0  0  0  0  0  0  0  0  0
   -3.1554   -1.5314   -1.1429 H   0  0  0  0  0  0  0  0  0  0  0  0
   -3.4133    0.6135    1.0971 H   0  0  0  0  0  0  0  0  0  0  0  0
   -3.3928    0.9091   -0.7223 H   0  0  0  0  0  0  0  0  0  0  0  0
  1  2  1  0
  2  3  1  0
  3  4  1  0
  4  5  1  0
  5  6  1  0
  6  7  1  0
  7  8  1  0
  6  9  1  0
  9  4  1  0
  8  6  1  0
  1 10  1  0
  1 11  1  0
  1 12  1  0
  3 13  1  0
  3 14  1  0
  4 15  1  0
  5 16  1  0
  5 17  1  0
  7 18  1  0
  7 19  1  0
  8 20  1  0
  8 21  1  0
M  END
