
     RDKit          3D

 21 21  0  0  0  0  0  0  0  0999 V2000
    3.3796   -0.3203   -0.3002 C   0  0  0  0  0  0  0  0  0  0  0  0
    2.2129    0.4172   -0.0660 O   0  0  0  0  0  0  0  0  0  0  0  0
    1.0763   -0.3917   -0.1936 C   0  0  0  0  0  0  0  0  0  0  0  0
   -0.1170    0.4878    0.0750 C   0  0  0  0  0  0  0  0  0  0  0  0
   -0.2176    1.5459   -0.8003 O   0  0  0  0  0  0  0  0  0  0  0  0
   -1.5093    2.0254   -0.4777 C   0  0  0  0  0  0  0  0  0  0  0  0
   -2.2890    0.7336   -0.3985 C   0  0  0  0  0  0  0  0  0  0  0  0
   -1.4036   -0.1971   -0.0557 C   0  0  0  0  0  0  0  0  0  0  0  0
   -1.7856   -1.6226    0.1258 C   0  0  0  0  0  0  0  0  0  0  0  0
    3.3580   -0.7380   -1.3198 H   0  0  0  0  0  0  0  0  0  0  0  0
    4.2404    0.3416   -0.1235 H   0  0  0  0  0  0  0  0  0  0  0  0
    3.4296   -1.1362    0.4472 H   0  0  0  0  0  0  0  0  0  0  0  0
    1.0064   -0.8421   -1.1964 H   0  0  0  0  0  0  0  0  0  0  0  0
    1.1560   -1.1604    0.6040 H   0  0  0  0  0  0  0  0  0  0  0  0
    0.0256    0.9172    1.0996 H   0  0  0  0  0  0  0  0  0  0  0  0
   -1.8791    2.6672   -1.2900 H   0  0  0  0  0  0  0  0  0  0  0  0
   -1.4771    2.5440    0.4847 H   0  0  0  0  0  0  0  0  0  0  0  0
   -3.3522    0.6452   -0.5924 H   0  0  0  0  0  0  0  0  0  0  0  0
   -2.7008   -1.6129    0.7869 H   0  0  0  0  0  0  0  0  0  0  0  0
   -1.0279   -2.2119    0.6646 H   0  0  0  0  0  0  0  0  0  0  0  0
   -2.1256   -2.0920   -0.8215 H   0  0  0  0  0  0  0  0  0  0  0  0
  1  2  1  0
  2  3  1  0
  3  4  1  0
  4  5  1  0
  5  6  1  0
  6  7  1  0
  7  8  2  0
  8  9  1  0
  8  4  1  0
  1 10  1  0
  1 11  1  0
  1 12  1  0
  3 13  1  0
  3 14  1  0
  4 15  1  0
  6 16  1  0
  6 17  1  0
  7 18  1  0
  9 19  1  0
  9 20  1  0
  9 21  1  0
M  END
