
     RDKit          3D

 23 23  0  0  0  0  0  0  0  0999 V2000
   -3.1774    0.1924   -1.2098 C   0  0  0  0  0  0  0  0  0  0  0  0
   -2.3645   -0.9072   -0.9828 O   0  0  0  0  0  0  0  0  0  0  0  0
   -1.6588   -0.7681    0.2134 C   0  0  0  0  0  0  0  0  0  0  0  0
   -0.7701    0.4437    0.2294 C   0  0  0  0  0  0  0  0  0  0  0  0
    0.2906    0.4662   -0.8507 C   0  0  0  0  0  0  0  0  0  0  0  0
    1.3035   -0.1193    0.0869 C   0  0  0  0  0  0  0  0  0  0  0  0
    2.4787    0.5928    0.1985 O   0  0  0  0  0  0  0  0  0  0  0  0
    3.5883   -0.2390    0.1146 C   0  0  0  0  0  0  0  0  0  0  0  0
    0.3644    0.2222    1.2355 C   0  0  0  0  0  0  0  0  0  0  0  0
   -2.4972    1.0852   -1.2603 H   0  0  0  0  0  0  0  0  0  0  0  0
   -3.8800    0.4001   -0.3874 H   0  0  0  0  0  0  0  0  0  0  0  0
   -3.6421    0.0733   -2.1888 H   0  0  0  0  0  0  0  0  0  0  0  0
   -2.4138   -0.6352    1.0184 H   0  0  0  0  0  0  0  0  0  0  0  0
   -1.0714   -1.6497    0.4643 H   0  0  0  0  0  0  0  0  0  0  0  0
   -1.3109    1.3835    0.3780 H   0  0  0  0  0  0  0  0  0  0  0  0
    0.0633   -0.1081   -1.7604 H   0  0  0  0  0  0  0  0  0  0  0  0
    0.5503    1.5246   -1.0927 H   0  0  0  0  0  0  0  0  0  0  0  0
    1.4843   -1.2005   -0.0459 H   0  0  0  0  0  0  0  0  0  0  0  0
    4.4868    0.4314    0.2158 H   0  0  0  0  0  0  0  0  0  0  0  0
    3.6759   -0.7596   -0.8537 H   0  0  0  0  0  0  0  0  0  0  0  0
    3.6522   -0.9403    0.9788 H   0  0  0  0  0  0  0  0  0  0  0  0
    0.2366   -0.6597    1.8783 H   0  0  0  0  0  0  0  0  0  0  0  0
    0.6113    1.1714    1.7325 H   0  0  0  0  0  0  0  0  0  0  0  0
  1  2  1  0
  2  3  1  0
  3  4  1  0
  4  5  1  0
  5  6  1  0
  6  7  1  0
  7  8  1  0
  6  9  1  0
  9  4  1  0
  1 10  1  0
  1 11  1  0
  1 12  1  0
  3 13  1  0
  3 14  1  0
  4 15  1  0
  5 16  1  0
  5 17  1  0
  6 18  1  0
  8 19  1  0
  8 20  1  0
  8 21  1  0
  9 22  1  0
  9 23  1  0
M  END
