
     RDKit          3D

 21 21  0  0  0  0  0  0  0  0999 V2000
    2.8192    0.2555    0.2018 C   0  0  0  0  0  0  0  0  0  0  0  0
    2.0908    0.0953   -0.9494 O   0  0  0  0  0  0  0  0  0  0  0  0
    0.9396   -0.6190   -0.8634 C   0  0  0  0  0  0  0  0  0  0  0  0
   -0.1302   -0.1119    0.0431 C   0  0  0  0  0  0  0  0  0  0  0  0
    0.2503   -0.0582    1.3762 O   0  0  0  0  0  0  0  0  0  0  0  0
   -0.8360    1.1417   -0.4343 C   0  0  0  0  0  0  0  0  0  0  0  0
   -2.1561    0.4230   -0.3896 C   0  0  0  0  0  0  0  0  0  0  0  0
   -1.4247   -0.8843   -0.1762 C   0  0  0  0  0  0  0  0  0  0  0  0
   -1.8261   -1.5071    1.0004 O   0  0  0  0  0  0  0  0  0  0  0  0
    2.2657    0.8005    0.9673 H   0  0  0  0  0  0  0  0  0  0  0  0
    3.0985   -0.7689    0.5801 H   0  0  0  0  0  0  0  0  0  0  0  0
    3.8079    0.7323   -0.0305 H   0  0  0  0  0  0  0  0  0  0  0  0
    0.5296   -0.9120   -1.8674 H   0  0  0  0  0  0  0  0  0  0  0  0
    1.2336   -1.6314   -0.4276 H   0  0  0  0  0  0  0  0  0  0  0  0
   -0.0097    0.8086    1.7372 H   0  0  0  0  0  0  0  0  0  0  0  0
   -0.7750    1.9404    0.3591 H   0  0  0  0  0  0  0  0  0  0  0  0
   -0.5643    1.5000   -1.4287 H   0  0  0  0  0  0  0  0  0  0  0  0
   -2.7388    0.4673   -1.3384 H   0  0  0  0  0  0  0  0  0  0  0  0
   -2.8298    0.7006    0.4479 H   0  0  0  0  0  0  0  0  0  0  0  0
   -1.4130   -1.5271   -1.0712 H   0  0  0  0  0  0  0  0  0  0  0  0
   -2.3315   -0.8454    1.5690 H   0  0  0  0  0  0  0  0  0  0  0  0
  1  2  1  0
  2  3  1  0
  3  4  1  0
  4  5  1  0
  4  6  1  0
  6  7  1  0
  7  8  1  0
  8  9  1  0
  8  4  1  0
  1 10  1  0
  1 11  1  0
  1 12  1  0
  3 13  1  0
  3 14  1  0
  5 15  1  0
  6 16  1  0
  6 17  1  0
  7 18  1  0
  7 19  1  0
  8 20  1  0
  9 21  1  0
M  END
