
     RDKit          3D

 18 17  0  0  0  0  0  0  0  0999 V2000
   -2.9209    0.5540   -0.7623 C   0  0  0  0  0  0  0  0  0  0  0  0
   -1.5647    0.3571   -0.5757 O   0  0  0  0  0  0  0  0  0  0  0  0
   -1.2724   -0.2419    0.6265 C   0  0  0  0  0  0  0  0  0  0  0  0
    0.1958   -0.4176    0.7505 C   0  0  0  0  0  0  0  0  0  0  0  0
    0.6449   -0.9409    1.7690 O   0  0  0  0  0  0  0  0  0  0  0  0
    1.0707    0.0435   -0.3577 C   0  0  0  0  0  0  0  0  0  0  0  0
    2.4984   -0.2566    0.0324 C   0  0  0  0  0  0  0  0  0  0  0  0
    3.4162    0.1270   -0.9211 O   0  0  0  0  0  0  0  0  0  0  0  0
   -3.5027   -0.4083   -0.7446 H   0  0  0  0  0  0  0  0  0  0  0  0
   -3.0637    0.9717   -1.7942 H   0  0  0  0  0  0  0  0  0  0  0  0
   -3.3813    1.2480   -0.0626 H   0  0  0  0  0  0  0  0  0  0  0  0
   -1.6348    0.3689    1.4840 H   0  0  0  0  0  0  0  0  0  0  0  0
   -1.7148   -1.2649    0.7111 H   0  0  0  0  0  0  0  0  0  0  0  0
    0.9303    1.1309   -0.5805 H   0  0  0  0  0  0  0  0  0  0  0  0
    0.8099   -0.5614   -1.2686 H   0  0  0  0  0  0  0  0  0  0  0  0
    2.6907    0.2634    0.9967 H   0  0  0  0  0  0  0  0  0  0  0  0
    2.5452   -1.3460    0.2513 H   0  0  0  0  0  0  0  0  0  0  0  0
    4.2532    0.3731   -0.4348 H   0  0  0  0  0  0  0  0  0  0  0  0
  1  2  1  0
  2  3  1  0
  3  4  1  0
  4  5  2  0
  4  6  1  0
  6  7  1  0
  7  8  1  0
  1  9  1  0
  1 10  1  0
  1 11  1  0
  3 12  1  0
  3 13  1  0
  6 14  1  0
  6 15  1  0
  7 16  1  0
  7 17  1  0
  8 18  1  0
M  END
