
     RDKit          3D

 23 23  0  0  0  0  0  0  0  0999 V2000
    3.6279    0.1229   -0.0571 C   0  0  0  0  0  0  0  0  0  0  0  0
    2.9205   -0.8609    0.6025 O   0  0  0  0  0  0  0  0  0  0  0  0
    1.6372   -1.0599    0.1714 C   0  0  0  0  0  0  0  0  0  0  0  0
    0.7517    0.1638    0.3017 C   0  0  0  0  0  0  0  0  0  0  0  0
   -0.6487   -0.1211   -0.1827 C   0  0  0  0  0  0  0  0  0  0  0  0
   -1.4459    1.1775   -0.0042 C   0  0  0  0  0  0  0  0  0  0  0  0
   -2.8547    0.6079   -0.1562 C   0  0  0  0  0  0  0  0  0  0  0  0
   -2.6870   -0.7535    0.4821 C   0  0  0  0  0  0  0  0  0  0  0  0
   -1.3453   -0.9570    0.6887 O   0  0  0  0  0  0  0  0  0  0  0  0
    3.1487    1.0912    0.0425 H   0  0  0  0  0  0  0  0  0  0  0  0
    3.7309   -0.1875   -1.1205 H   0  0  0  0  0  0  0  0  0  0  0  0
    4.6418    0.1538    0.3896 H   0  0  0  0  0  0  0  0  0  0  0  0
    1.7057   -1.3813   -0.9091 H   0  0  0  0  0  0  0  0  0  0  0  0
    1.1391   -1.8979    0.6797 H   0  0  0  0  0  0  0  0  0  0  0  0
    0.7348    0.5147    1.3321 H   0  0  0  0  0  0  0  0  0  0  0  0
    1.1766    0.9510   -0.3647 H   0  0  0  0  0  0  0  0  0  0  0  0
   -0.6972   -0.4437   -1.2218 H   0  0  0  0  0  0  0  0  0  0  0  0
   -1.2000    1.9176   -0.7605 H   0  0  0  0  0  0  0  0  0  0  0  0
   -1.3136    1.4825    1.0361 H   0  0  0  0  0  0  0  0  0  0  0  0
   -3.0178    0.5270   -1.2613 H   0  0  0  0  0  0  0  0  0  0  0  0
   -3.6127    1.2175    0.3273 H   0  0  0  0  0  0  0  0  0  0  0  0
   -3.1472   -1.5461   -0.1684 H   0  0  0  0  0  0  0  0  0  0  0  0
   -3.2449   -0.7184    1.4633 H   0  0  0  0  0  0  0  0  0  0  0  0
  1  2  1  0
  2  3  1  0
  3  4  1  0
  4  5  1  0
  5  6  1  0
  6  7  1  0
  7  8  1  0
  8  9  1  0
  9  5  1  0
  1 10  1  0
  1 11  1  0
  1 12  1  0
  3 13  1  0
  3 14  1  0
  4 15  1  0
  4 16  1  0
  5 17  1  0
  6 18  1  0
  6 19  1  0
  7 20  1  0
  7 21  1  0
  8 22  1  0
  8 23  1  0
M  END
