
     RDKit          3D

 20 19  0  0  0  0  0  0  0  0999 V2000
    3.1688   -0.0115    0.1156 C   0  0  0  0  0  0  0  0  0  0  0  0
    2.2865    1.0182   -0.1031 O   0  0  0  0  0  0  0  0  0  0  0  0
    1.0189    0.6144   -0.4425 C   0  0  0  0  0  0  0  0  0  0  0  0
    0.3761   -0.2399    0.6288 C   0  0  0  0  0  0  0  0  0  0  0  0
   -0.9980   -0.6670    0.2399 C   0  0  0  0  0  0  0  0  0  0  0  0
   -1.9530    0.4502   -0.0056 C   0  0  0  0  0  0  0  0  0  0  0  0
   -3.2706   -0.1122   -0.3811 C   0  0  0  0  0  0  0  0  0  0  0  0
   -3.4015   -1.3175   -0.4386 O   0  0  0  0  0  0  0  0  0  0  0  0
    3.2741   -0.6305   -0.7832 H   0  0  0  0  0  0  0  0  0  0  0  0
    4.1769    0.4552    0.2927 H   0  0  0  0  0  0  0  0  0  0  0  0
    2.9494   -0.5844    1.0373 H   0  0  0  0  0  0  0  0  0  0  0  0
    0.9343    0.1561   -1.4463 H   0  0  0  0  0  0  0  0  0  0  0  0
    0.3890    1.5499   -0.4984 H   0  0  0  0  0  0  0  0  0  0  0  0
    0.2959    0.3579    1.5596 H   0  0  0  0  0  0  0  0  0  0  0  0
    0.9693   -1.1525    0.8443 H   0  0  0  0  0  0  0  0  0  0  0  0
   -1.4145   -1.2807    1.0841 H   0  0  0  0  0  0  0  0  0  0  0  0
   -1.0234   -1.3386   -0.6426 H   0  0  0  0  0  0  0  0  0  0  0  0
   -2.0707    1.1340    0.8581 H   0  0  0  0  0  0  0  0  0  0  0  0
   -1.5709    1.1014   -0.8413 H   0  0  0  0  0  0  0  0  0  0  0  0
   -4.1367    0.4974   -0.6107 H   0  0  0  0  0  0  0  0  0  0  0  0
  1  2  1  0
  2  3  1  0
  3  4  1  0
  4  5  1  0
  5  6  1  0
  6  7  1  0
  7  8  2  0
  1  9  1  0
  1 10  1  0
  1 11  1  0
  3 12  1  0
  3 13  1  0
  4 14  1  0
  4 15  1  0
  5 16  1  0
  5 17  1  0
  6 18  1  0
  6 19  1  0
  7 20  1  0
M  END
