
     RDKit          3D

 23 23  0  0  0  0  0  0  0  0999 V2000
    3.0779   -0.3562   -0.3319 C   0  0  0  0  0  0  0  0  0  0  0  0
    2.7005    0.7756    0.3796 O   0  0  0  0  0  0  0  0  0  0  0  0
    1.4938    1.2879   -0.1016 C   0  0  0  0  0  0  0  0  0  0  0  0
    0.4511    0.2227    0.0560 C   0  0  0  0  0  0  0  0  0  0  0  0
    0.2404   -0.2211    1.5007 C   0  0  0  0  0  0  0  0  0  0  0  0
   -0.8174    0.5450    0.7491 C   0  0  0  0  0  0  0  0  0  0  0  0
   -2.0708   -0.2134    0.4704 C   0  0  0  0  0  0  0  0  0  0  0  0
   -2.4909   -0.1108   -0.9915 C   0  0  0  0  0  0  0  0  0  0  0  0
   -1.9969   -1.5498    0.8521 O   0  0  0  0  0  0  0  0  0  0  0  0
    2.3272   -1.1741   -0.2664 H   0  0  0  0  0  0  0  0  0  0  0  0
    3.2395   -0.1658   -1.4069 H   0  0  0  0  0  0  0  0  0  0  0  0
    4.0189   -0.7395    0.1250 H   0  0  0  0  0  0  0  0  0  0  0  0
    1.2624    2.1798    0.5223 H   0  0  0  0  0  0  0  0  0  0  0  0
    1.6675    1.5712   -1.1534 H   0  0  0  0  0  0  0  0  0  0  0  0
    0.4183   -0.5283   -0.7422 H   0  0  0  0  0  0  0  0  0  0  0  0
    0.1552   -1.3153    1.6120 H   0  0  0  0  0  0  0  0  0  0  0  0
    0.8146    0.2784    2.2964 H   0  0  0  0  0  0  0  0  0  0  0  0
   -0.9929    1.6038    1.0905 H   0  0  0  0  0  0  0  0  0  0  0  0
   -2.8944    0.2329    1.0626 H   0  0  0  0  0  0  0  0  0  0  0  0
   -3.4527   -0.6816   -1.0708 H   0  0  0  0  0  0  0  0  0  0  0  0
   -1.7506   -0.5394   -1.6702 H   0  0  0  0  0  0  0  0  0  0  0  0
   -2.7429    0.9386   -1.1721 H   0  0  0  0  0  0  0  0  0  0  0  0
   -2.6578   -2.0406    0.2710 H   0  0  0  0  0  0  0  0  0  0  0  0
  1  2  1  0
  2  3  1  0
  3  4  1  0
  4  5  1  0
  5  6  1  0
  6  7  1  0
  7  8  1  0
  7  9  1  0
  6  4  1  0
  1 10  1  0
  1 11  1  0
  1 12  1  0
  3 13  1  0
  3 14  1  0
  4 15  1  0
  5 16  1  0
  5 17  1  0
  6 18  1  0
  7 19  1  0
  8 20  1  0
  8 21  1  0
  8 22  1  0
  9 23  1  0
M  END
