
     RDKit          3D

 21 22  0  0  0  0  0  0  0  0999 V2000
   -3.1821   -0.3196    0.0876 C   0  0  0  0  0  0  0  0  0  0  0  0
   -1.8374   -0.6920    0.0434 O   0  0  0  0  0  0  0  0  0  0  0  0
   -1.0699    0.4542   -0.0936 C   0  0  0  0  0  0  0  0  0  0  0  0
    0.3625    0.0694   -0.1417 C   0  0  0  0  0  0  0  0  0  0  0  0
    1.3645    1.1915   -0.2898 C   0  0  0  0  0  0  0  0  0  0  0  0
    2.6497    0.4544    0.0189 C   0  0  0  0  0  0  0  0  0  0  0  0
    2.2931   -0.3248    1.1062 O   0  0  0  0  0  0  0  0  0  0  0  0
    1.0024   -0.7901    0.8817 C   0  0  0  0  0  0  0  0  0  0  0  0
    0.7257   -1.3296   -0.4603 C   0  0  0  0  0  0  0  0  0  0  0  0
   -3.7975   -1.2513    0.1985 H   0  0  0  0  0  0  0  0  0  0  0  0
   -3.4689    0.2072   -0.8267 H   0  0  0  0  0  0  0  0  0  0  0  0
   -3.3621    0.2636    1.0071 H   0  0  0  0  0  0  0  0  0  0  0  0
   -1.3306    0.9540   -1.0655 H   0  0  0  0  0  0  0  0  0  0  0  0
   -1.2388    1.1916    0.6955 H   0  0  0  0  0  0  0  0  0  0  0  0
    1.2020    1.9071    0.5350 H   0  0  0  0  0  0  0  0  0  0  0  0
    1.3496    1.6684   -1.2677 H   0  0  0  0  0  0  0  0  0  0  0  0
    3.0059   -0.1374   -0.8508 H   0  0  0  0  0  0  0  0  0  0  0  0
    3.3991    1.2200    0.3106 H   0  0  0  0  0  0  0  0  0  0  0  0
    0.4573   -1.1236    1.7816 H   0  0  0  0  0  0  0  0  0  0  0  0
    1.5827   -1.5761   -1.1223 H   0  0  0  0  0  0  0  0  0  0  0  0
   -0.1074   -2.0370   -0.5478 H   0  0  0  0  0  0  0  0  0  0  0  0
  1  2  1  0
  2  3  1  0
  3  4  1  0
  4  5  1  0
  5  6  1  0
  6  7  1  0
  7  8  1  0
  8  9  1  0
  8  4  1  0
  9  4  1  0
  1 10  1  0
  1 11  1  0
  1 12  1  0
  3 13  1  0
  3 14  1  0
  5 15  1  0
  5 16  1  0
  6 17  1  0
  6 18  1  0
  8 19  1  0
  9 20  1  0
  9 21  1  0
M  END
