
     RDKit          3D

 21 20  0  0  0  0  0  0  0  0999 V2000
   -2.6881   -1.4885    0.4097 C   0  0  0  0  0  0  0  0  0  0  0  0
   -1.6348   -0.7935   -0.1927 O   0  0  0  0  0  0  0  0  0  0  0  0
   -1.1633    0.1333    0.7410 C   0  0  0  0  0  0  0  0  0  0  0  0
   -0.0141    0.9345    0.1673 C   0  0  0  0  0  0  0  0  0  0  0  0
   -0.4897    1.8512   -0.9157 C   0  0  0  0  0  0  0  0  0  0  0  0
    1.0046    0.0679   -0.1674 O   0  0  0  0  0  0  0  0  0  0  0  0
    2.2529   -0.0086    0.3950 C   0  0  0  0  0  0  0  0  0  0  0  0
    3.1965   -1.0261   -0.1271 C   0  0  0  0  0  0  0  0  0  0  0  0
    2.5076    0.7907    1.3141 O   0  0  0  0  0  0  0  0  0  0  0  0
   -3.0603   -2.2204   -0.3279 H   0  0  0  0  0  0  0  0  0  0  0  0
   -3.5271   -0.7796    0.6609 H   0  0  0  0  0  0  0  0  0  0  0  0
   -2.3590   -2.0511    1.3026 H   0  0  0  0  0  0  0  0  0  0  0  0
   -1.9638    0.8151    1.0981 H   0  0  0  0  0  0  0  0  0  0  0  0
   -0.7719   -0.3985    1.6324 H   0  0  0  0  0  0  0  0  0  0  0  0
    0.3556    1.5928    1.0063 H   0  0  0  0  0  0  0  0  0  0  0  0
    0.3654    2.4021   -1.3573 H   0  0  0  0  0  0  0  0  0  0  0  0
   -1.1554    1.3943   -1.6497 H   0  0  0  0  0  0  0  0  0  0  0  0
   -1.1031    2.6514   -0.4026 H   0  0  0  0  0  0  0  0  0  0  0  0
    3.6579   -0.7180   -1.0878 H   0  0  0  0  0  0  0  0  0  0  0  0
    3.9811   -1.1823    0.6253 H   0  0  0  0  0  0  0  0  0  0  0  0
    2.6092   -1.9667   -0.2650 H   0  0  0  0  0  0  0  0  0  0  0  0
  1  2  1  0
  2  3  1  0
  3  4  1  0
  4  5  1  0
  4  6  1  0
  6  7  1  0
  7  8  1  0
  7  9  2  0
  1 10  1  0
  1 11  1  0
  1 12  1  0
  3 13  1  0
  3 14  1  0
  4 15  1  0
  5 16  1  0
  5 17  1  0
  5 18  1  0
  8 19  1  0
  8 20  1  0
  8 21  1  0
M  END
