
     RDKit          3D

 19 19  0  0  0  0  0  0  0  0999 V2000
    2.8007   -0.2498    0.1510 C   0  0  0  0  0  0  0  0  0  0  0  0
    1.4752   -0.6464    0.0923 O   0  0  0  0  0  0  0  0  0  0  0  0
    0.6650    0.4829    0.0199 C   0  0  0  0  0  0  0  0  0  0  0  0
   -0.7937    0.1268   -0.0468 C   0  0  0  0  0  0  0  0  0  0  0  0
   -1.7055    1.3477   -0.1269 C   0  0  0  0  0  0  0  0  0  0  0  0
   -1.3513   -1.0192    0.7144 C   0  0  0  0  0  0  0  0  0  0  0  0
   -1.1551   -1.1160   -0.7716 C   0  0  0  0  0  0  0  0  0  0  0  0
    3.4448   -1.1534    0.2089 H   0  0  0  0  0  0  0  0  0  0  0  0
    3.0528    0.3097   -0.7940 H   0  0  0  0  0  0  0  0  0  0  0  0
    3.0472    0.3908    0.9973 H   0  0  0  0  0  0  0  0  0  0  0  0
    0.9504    1.0776   -0.8957 H   0  0  0  0  0  0  0  0  0  0  0  0
    0.8657    1.1679    0.8821 H   0  0  0  0  0  0  0  0  0  0  0  0
   -1.2527    2.0663   -0.8262 H   0  0  0  0  0  0  0  0  0  0  0  0
   -1.7736    1.7439    0.9115 H   0  0  0  0  0  0  0  0  0  0  0  0
   -2.7130    1.0041   -0.4176 H   0  0  0  0  0  0  0  0  0  0  0  0
   -0.7264   -1.6192    1.4038 H   0  0  0  0  0  0  0  0  0  0  0  0
   -2.4219   -0.9761    1.0203 H   0  0  0  0  0  0  0  0  0  0  0  0
   -2.0487   -1.1330   -1.4482 H   0  0  0  0  0  0  0  0  0  0  0  0
   -0.3597   -1.8043   -1.0747 H   0  0  0  0  0  0  0  0  0  0  0  0
  1  2  1  0
  2  3  1  0
  3  4  1  0
  4  5  1  0
  4  6  1  0
  6  7  1  0
  7  4  1  0
  1  8  1  0
  1  9  1  0
  1 10  1  0
  3 11  1  0
  3 12  1  0
  5 13  1  0
  5 14  1  0
  5 15  1  0
  6 16  1  0
  6 17  1  0
  7 18  1  0
  7 19  1  0
M  END
