
     RDKit          3D

 21 21  0  0  0  0  0  0  0  0999 V2000
    3.8748   -0.2283   -0.0512 C   0  0  0  0  0  0  0  0  0  0  0  0
    2.5785    0.0318   -0.5363 O   0  0  0  0  0  0  0  0  0  0  0  0
    1.7055    0.1366    0.5225 C   0  0  0  0  0  0  0  0  0  0  0  0
    0.3229    0.4137    0.0110 C   0  0  0  0  0  0  0  0  0  0  0  0
   -0.5958    0.5206    1.1897 O   0  0  0  0  0  0  0  0  0  0  0  0
   -0.8026   -0.4384    0.1984 C   0  0  0  0  0  0  0  0  0  0  0  0
   -2.0449   -0.2077   -0.6164 C   0  0  0  0  0  0  0  0  0  0  0  0
   -3.2950   -0.1634    0.2570 C   0  0  0  0  0  0  0  0  0  0  0  0
   -1.9797    1.0317   -1.2590 O   0  0  0  0  0  0  0  0  0  0  0  0
    3.9151   -1.1631    0.5229 H   0  0  0  0  0  0  0  0  0  0  0  0
    4.1598    0.6329    0.5764 H   0  0  0  0  0  0  0  0  0  0  0  0
    4.5580   -0.3575   -0.9182 H   0  0  0  0  0  0  0  0  0  0  0  0
    1.7277   -0.7216    1.2152 H   0  0  0  0  0  0  0  0  0  0  0  0
    2.0097    1.0459    1.1188 H   0  0  0  0  0  0  0  0  0  0  0  0
    0.2542    1.3204   -0.6317 H   0  0  0  0  0  0  0  0  0  0  0  0
   -0.6597   -1.5124    0.4894 H   0  0  0  0  0  0  0  0  0  0  0  0
   -2.2232   -1.0279   -1.3491 H   0  0  0  0  0  0  0  0  0  0  0  0
   -3.1784    0.6127    1.0286 H   0  0  0  0  0  0  0  0  0  0  0  0
   -4.1226    0.1757   -0.4149 H   0  0  0  0  0  0  0  0  0  0  0  0
   -3.5660   -1.1561    0.6437 H   0  0  0  0  0  0  0  0  0  0  0  0
   -2.6383    1.0545   -1.9968 H   0  0  0  0  0  0  0  0  0  0  0  0
  1  2  1  0
  2  3  1  0
  3  4  1  0
  4  5  1  0
  5  6  1  0
  6  7  1  0
  7  8  1  0
  7  9  1  0
  6  4  1  0
  1 10  1  0
  1 11  1  0
  1 12  1  0
  3 13  1  0
  3 14  1  0
  4 15  1  0
  6 16  1  0
  7 17  1  0
  8 18  1  0
  8 19  1  0
  8 20  1  0
  9 21  1  0
M  END
