
     RDKit          3D

 13 12  0  0  0  0  0  0  0  0999 V2000
   -2.0512   -0.3514   -1.2719 C   0  0  0  0  0  0  0  0  0  0  0  0
   -1.4688    0.3063   -0.3453 O   0  0  0  0  0  0  0  0  0  0  0  0
   -0.8103    0.9242    0.4414 C   0  0  0  0  0  0  0  0  0  0  0  0
    0.6008    0.3634    0.6160 C   0  0  0  0  0  0  0  0  0  0  0  0
    1.7239   -0.0982    0.7689 C   0  0  0  0  0  0  0  0  0  0  0  0
    3.2881   -0.7719    0.9913 C   0  0  0  0  0  0  0  0  0  0  0  0
    4.1127    0.0180    0.8402 O   0  0  0  0  0  0  0  0  0  0  0  0
   -1.7915   -1.4725   -1.4653 H   0  0  0  0  0  0  0  0  0  0  0  0
   -3.1833   -0.3384   -1.1377 H   0  0  0  0  0  0  0  0  0  0  0  0
   -1.8578    0.1094   -2.3494 H   0  0  0  0  0  0  0  0  0  0  0  0
   -0.5292    2.0172    0.1521 H   0  0  0  0  0  0  0  0  0  0  0  0
   -1.1143    1.0492    1.5591 H   0  0  0  0  0  0  0  0  0  0  0  0
    3.0806   -1.7554    1.2005 H   0  0  0  0  0  0  0  0  0  0  0  0
  1  2  1  0
  2  3  1  0
  3  4  1  0
  4  5  3  0
  5  6  1  0
  6  7  2  0
  1  8  1  0
  1  9  1  0
  1 10  1  0
  3 11  1  0
  3 12  1  0
  6 13  1  0
M  END
