
     RDKit          3D

 23 23  0  0  0  0  0  0  0  0999 V2000
    2.8990   -0.4400   -0.9087 C   0  0  0  0  0  0  0  0  0  0  0  0
    1.5608   -0.5831   -0.4953 O   0  0  0  0  0  0  0  0  0  0  0  0
    1.2451    0.4719    0.2983 C   0  0  0  0  0  0  0  0  0  0  0  0
   -0.1140    0.5254    0.8454 C   0  0  0  0  0  0  0  0  0  0  0  0
   -0.5361   -0.6282    1.7225 C   0  0  0  0  0  0  0  0  0  0  0  0
   -1.8592   -0.3314    1.3271 O   0  0  0  0  0  0  0  0  0  0  0  0
   -1.2955    0.0872    0.0975 C   0  0  0  0  0  0  0  0  0  0  0  0
   -2.1250    1.2615   -0.3990 C   0  0  0  0  0  0  0  0  0  0  0  0
   -1.2530   -1.0313   -0.8429 C   0  0  0  0  0  0  0  0  0  0  0  0
    3.5411   -0.4236   -0.0165 H   0  0  0  0  0  0  0  0  0  0  0  0
    3.0491    0.5128   -1.4517 H   0  0  0  0  0  0  0  0  0  0  0  0
    3.1304   -1.2678   -1.5889 H   0  0  0  0  0  0  0  0  0  0  0  0
    1.4511    1.4065   -0.2649 H   0  0  0  0  0  0  0  0  0  0  0  0
    1.9761    0.4762    1.1618 H   0  0  0  0  0  0  0  0  0  0  0  0
   -0.3050    1.4781    1.3820 H   0  0  0  0  0  0  0  0  0  0  0  0
   -0.1544   -1.5812    1.2686 H   0  0  0  0  0  0  0  0  0  0  0  0
   -0.3372   -0.5071    2.7907 H   0  0  0  0  0  0  0  0  0  0  0  0
   -1.9219    1.3695   -1.4806 H   0  0  0  0  0  0  0  0  0  0  0  0
   -1.8551    2.1638    0.1868 H   0  0  0  0  0  0  0  0  0  0  0  0
   -3.1915    1.0383   -0.1852 H   0  0  0  0  0  0  0  0  0  0  0  0
   -2.2140   -1.6271   -0.8092 H   0  0  0  0  0  0  0  0  0  0  0  0
   -1.2431   -0.6187   -1.8950 H   0  0  0  0  0  0  0  0  0  0  0  0
   -0.4480   -1.7517   -0.7427 H   0  0  0  0  0  0  0  0  0  0  0  0
  1  2  1  0
  2  3  1  0
  3  4  1  0
  4  5  1  0
  5  6  1  0
  6  7  1  0
  7  8  1  0
  7  9  1  0
  7  4  1  0
  1 10  1  0
  1 11  1  0
  1 12  1  0
  3 13  1  0
  3 14  1  0
  4 15  1  0
  5 16  1  0
  5 17  1  0
  8 18  1  0
  8 19  1  0
  8 20  1  0
  9 21  1  0
  9 22  1  0
  9 23  1  0
M  END
