
     RDKit          3D

 23 22  0  0  0  0  0  0  0  0999 V2000
    2.4544   -0.4984    0.6976 C   0  0  0  0  0  0  0  0  0  0  0  0
    1.7264   -1.1767   -0.2259 O   0  0  0  0  0  0  0  0  0  0  0  0
    1.1770   -0.4764   -1.2640 C   0  0  0  0  0  0  0  0  0  0  0  0
    0.2037    0.5642   -0.7937 C   0  0  0  0  0  0  0  0  0  0  0  0
    0.7764    1.5265    0.0175 O   0  0  0  0  0  0  0  0  0  0  0  0
   -1.0413   -0.0543   -0.2015 C   0  0  0  0  0  0  0  0  0  0  0  0
   -0.8155   -0.7098    1.1132 C   0  0  0  0  0  0  0  0  0  0  0  0
   -2.0781    1.0477    0.0039 C   0  0  0  0  0  0  0  0  0  0  0  0
   -1.5118   -0.9995   -1.1101 O   0  0  0  0  0  0  0  0  0  0  0  0
    3.2956    0.0169    0.1565 H   0  0  0  0  0  0  0  0  0  0  0  0
    1.9482    0.1884    1.3687 H   0  0  0  0  0  0  0  0  0  0  0  0
    2.9595   -1.2450    1.3896 H   0  0  0  0  0  0  0  0  0  0  0  0
    2.0351   -0.0040   -1.8333 H   0  0  0  0  0  0  0  0  0  0  0  0
    0.7013   -1.2047   -1.9631 H   0  0  0  0  0  0  0  0  0  0  0  0
   -0.0942    1.1180   -1.7420 H   0  0  0  0  0  0  0  0  0  0  0  0
    0.1698    1.6885    0.7811 H   0  0  0  0  0  0  0  0  0  0  0  0
   -0.3758   -0.0610    1.8821 H   0  0  0  0  0  0  0  0  0  0  0  0
   -0.1879   -1.6275    1.0535 H   0  0  0  0  0  0  0  0  0  0  0  0
   -1.7918   -1.0585    1.5535 H   0  0  0  0  0  0  0  0  0  0  0  0
   -1.6064    2.0371   -0.1592 H   0  0  0  0  0  0  0  0  0  0  0  0
   -2.9403    0.8932   -0.7095 H   0  0  0  0  0  0  0  0  0  0  0  0
   -2.5002    1.0240    1.0290 H   0  0  0  0  0  0  0  0  0  0  0  0
   -2.5042   -0.9889   -1.0437 H   0  0  0  0  0  0  0  0  0  0  0  0
  1  2  1  0
  2  3  1  0
  3  4  1  0
  4  5  1  0
  4  6  1  0
  6  7  1  0
  6  8  1  0
  6  9  1  0
  1 10  1  0
  1 11  1  0
  1 12  1  0
  3 13  1  0
  3 14  1  0
  4 15  1  0
  5 16  1  0
  7 17  1  0
  7 18  1  0
  7 19  1  0
  8 20  1  0
  8 21  1  0
  8 22  1  0
  9 23  1  0
M  END
