
     RDKit          3D

 18 19  0  0  0  0  0  0  0  0999 V2000
    2.6475   -0.4386    0.2692 C   0  0  0  0  0  0  0  0  0  0  0  0
    1.4704   -0.1322   -0.4036 O   0  0  0  0  0  0  0  0  0  0  0  0
    0.5102    0.4129    0.4920 C   0  0  0  0  0  0  0  0  0  0  0  0
   -0.7037    0.7075   -0.3065 C   0  0  0  0  0  0  0  0  0  0  0  0
   -0.7526   -0.0459   -1.5381 C   0  0  0  0  0  0  0  0  0  0  0  0
   -1.7980   -0.3416   -0.6049 C   0  0  0  0  0  0  0  0  0  0  0  0
   -1.9871   -0.0223    0.8348 C   0  0  0  0  0  0  0  0  0  0  0  0
   -1.6880    1.2761    0.4302 O   0  0  0  0  0  0  0  0  0  0  0  0
    3.3397   -0.8552   -0.4923 H   0  0  0  0  0  0  0  0  0  0  0  0
    3.1581    0.4640    0.6771 H   0  0  0  0  0  0  0  0  0  0  0  0
    2.4351   -1.1942    1.0497 H   0  0  0  0  0  0  0  0  0  0  0  0
    1.0300    1.3513    0.8470 H   0  0  0  0  0  0  0  0  0  0  0  0
    0.4441   -0.3366    1.2793 H   0  0  0  0  0  0  0  0  0  0  0  0
   -0.0522   -0.9102   -1.7482 H   0  0  0  0  0  0  0  0  0  0  0  0
   -0.8225    0.5713   -2.4754 H   0  0  0  0  0  0  0  0  0  0  0  0
   -2.7655    0.0401   -1.0984 H   0  0  0  0  0  0  0  0  0  0  0  0
   -1.4079   -0.5000    1.6025 H   0  0  0  0  0  0  0  0  0  0  0  0
   -3.0576   -0.0464    1.1855 H   0  0  0  0  0  0  0  0  0  0  0  0
  1  2  1  0
  2  3  1  0
  3  4  1  0
  4  5  1  0
  5  6  1  0
  6  7  1  0
  7  8  1  0
  6  4  1  0
  8  4  1  0
  1  9  1  0
  1 10  1  0
  1 11  1  0
  3 12  1  0
  3 13  1  0
  5 14  1  0
  5 15  1  0
  6 16  1  0
  7 17  1  0
  7 18  1  0
M  END
