
     RDKit          3D

 19 19  0  0  0  0  0  0  0  0999 V2000
    3.4225    0.2900   -0.0220 C   0  0  0  0  0  0  0  0  0  0  0  0
    2.3805   -0.6223   -0.2797 O   0  0  0  0  0  0  0  0  0  0  0  0
    1.2112    0.1160   -0.0939 C   0  0  0  0  0  0  0  0  0  0  0  0
   -0.0102   -0.6729   -0.3203 C   0  0  0  0  0  0  0  0  0  0  0  0
   -0.0044   -1.8343   -0.6333 O   0  0  0  0  0  0  0  0  0  0  0  0
   -1.3095    0.0337   -0.1446 C   0  0  0  0  0  0  0  0  0  0  0  0
   -1.2906    1.3804    0.2186 O   0  0  0  0  0  0  0  0  0  0  0  0
   -2.5316   -0.7219    0.2174 C   0  0  0  0  0  0  0  0  0  0  0  0
   -2.3413   -0.3087   -1.2190 C   0  0  0  0  0  0  0  0  0  0  0  0
    3.2958    1.1010   -0.7557 H   0  0  0  0  0  0  0  0  0  0  0  0
    3.1839    0.7321    0.9742 H   0  0  0  0  0  0  0  0  0  0  0  0
    4.4059   -0.1888   -0.0498 H   0  0  0  0  0  0  0  0  0  0  0  0
    1.2110    0.3995    0.9991 H   0  0  0  0  0  0  0  0  0  0  0  0
    1.1980    1.0488   -0.6674 H   0  0  0  0  0  0  0  0  0  0  0  0
   -2.1129    1.8406   -0.0546 H   0  0  0  0  0  0  0  0  0  0  0  0
   -3.2896   -0.2096    0.8136 H   0  0  0  0  0  0  0  0  0  0  0  0
   -2.4229   -1.8089    0.4122 H   0  0  0  0  0  0  0  0  0  0  0  0
   -2.9241    0.5119   -1.6414 H   0  0  0  0  0  0  0  0  0  0  0  0
   -2.0720   -1.0864   -1.9728 H   0  0  0  0  0  0  0  0  0  0  0  0
  1  2  1  0
  2  3  1  0
  3  4  1  0
  4  5  2  0
  4  6  1  0
  6  7  1  0
  6  8  1  0
  8  9  1  0
  9  6  1  0
  1 10  1  0
  1 11  1  0
  1 12  1  0
  3 13  1  0
  3 14  1  0
  7 15  1  0
  8 16  1  0
  8 17  1  0
  9 18  1  0
  9 19  1  0
M  END
