
     RDKit          3D

 21 20  0  0  0  0  0  0  0  0999 V2000
    2.7252    0.7306    0.7075 C   0  0  0  0  0  0  0  0  0  0  0  0
    2.2997    0.6666   -0.5940 O   0  0  0  0  0  0  0  0  0  0  0  0
    0.9431    0.4367   -0.7608 C   0  0  0  0  0  0  0  0  0  0  0  0
    0.4428   -0.8478   -0.1888 C   0  0  0  0  0  0  0  0  0  0  0  0
   -1.0044   -1.1317   -0.3874 C   0  0  0  0  0  0  0  0  0  0  0  0
   -1.2961   -2.3844    0.2179 O   0  0  0  0  0  0  0  0  0  0  0  0
   -1.9650   -0.1673    0.1043 C   0  0  0  0  0  0  0  0  0  0  0  0
   -2.1596    1.2402   -0.3261 C   0  0  0  0  0  0  0  0  0  0  0  0
   -2.7468   -0.5300    1.0023 O   0  0  0  0  0  0  0  0  0  0  0  0
    2.1711    1.5513    1.2039 H   0  0  0  0  0  0  0  0  0  0  0  0
    3.8028    1.0109    0.7910 H   0  0  0  0  0  0  0  0  0  0  0  0
    2.5361   -0.2006    1.2681 H   0  0  0  0  0  0  0  0  0  0  0  0
    0.6326    0.5983   -1.7975 H   0  0  0  0  0  0  0  0  0  0  0  0
    0.4169    1.2537   -0.1676 H   0  0  0  0  0  0  0  0  0  0  0  0
    0.7505   -0.9832    0.8840 H   0  0  0  0  0  0  0  0  0  0  0  0
    0.9977   -1.6765   -0.7213 H   0  0  0  0  0  0  0  0  0  0  0  0
   -1.1702   -1.2615   -1.4968 H   0  0  0  0  0  0  0  0  0  0  0  0
   -0.7137   -3.0898   -0.1248 H   0  0  0  0  0  0  0  0  0  0  0  0
   -1.7600    1.9853    0.3670 H   0  0  0  0  0  0  0  0  0  0  0  0
   -3.2509    1.4386   -0.5601 H   0  0  0  0  0  0  0  0  0  0  0  0
   -1.6520    1.3607   -1.3009 H   0  0  0  0  0  0  0  0  0  0  0  0
  1  2  1  0
  2  3  1  0
  3  4  1  0
  4  5  1  0
  5  6  1  0
  5  7  1  0
  7  8  1  0
  7  9  2  0
  1 10  1  0
  1 11  1  0
  1 12  1  0
  3 13  1  0
  3 14  1  0
  4 15  1  0
  4 16  1  0
  5 17  1  0
  6 18  1  0
  8 19  1  0
  8 20  1  0
  8 21  1  0
M  END
