
     RDKit          3D

 21 22  0  0  0  0  0  0  0  0999 V2000
    3.5052    0.2567   -0.0826 C   0  0  0  0  0  0  0  0  0  0  0  0
    2.2979   -0.4200   -0.0993 O   0  0  0  0  0  0  0  0  0  0  0  0
    1.2378    0.3394    0.3718 C   0  0  0  0  0  0  0  0  0  0  0  0
   -0.0019   -0.5647    0.2797 C   0  0  0  0  0  0  0  0  0  0  0  0
   -0.3407   -1.0601   -1.1448 C   0  0  0  0  0  0  0  0  0  0  0  0
   -1.2007   -0.1209   -0.4092 C   0  0  0  0  0  0  0  0  0  0  0  0
   -2.5871   -0.4796   -0.0448 C   0  0  0  0  0  0  0  0  0  0  0  0
   -2.7360    1.0144   -0.1850 C   0  0  0  0  0  0  0  0  0  0  0  0
   -1.4890    1.1412   -0.7987 O   0  0  0  0  0  0  0  0  0  0  0  0
    4.2727   -0.4416   -0.4769 H   0  0  0  0  0  0  0  0  0  0  0  0
    3.4808    1.2140   -0.6363 H   0  0  0  0  0  0  0  0  0  0  0  0
    3.7586    0.4255    1.0029 H   0  0  0  0  0  0  0  0  0  0  0  0
    1.0425    1.2465   -0.2317 H   0  0  0  0  0  0  0  0  0  0  0  0
    1.4113    0.5906    1.4371 H   0  0  0  0  0  0  0  0  0  0  0  0
   -0.0833   -1.3327    1.0688 H   0  0  0  0  0  0  0  0  0  0  0  0
    0.3095   -0.6686   -1.9565 H   0  0  0  0  0  0  0  0  0  0  0  0
   -0.7311   -2.0965   -1.2332 H   0  0  0  0  0  0  0  0  0  0  0  0
   -3.1074   -1.0308   -0.8503 H   0  0  0  0  0  0  0  0  0  0  0  0
   -2.7424   -0.8772    0.9757 H   0  0  0  0  0  0  0  0  0  0  0  0
   -3.5864    1.2811   -0.8423 H   0  0  0  0  0  0  0  0  0  0  0  0
   -2.7102    1.5832    0.7760 H   0  0  0  0  0  0  0  0  0  0  0  0
  1  2  1  0
  2  3  1  0
  3  4  1  0
  4  5  1  0
  5  6  1  0
  6  7  1  0
  7  8  1  0
  8  9  1  0
  6  4  1  0
  9  6  1  0
  1 10  1  0
  1 11  1  0
  1 12  1  0
  3 13  1  0
  3 14  1  0
  4 15  1  0
  5 16  1  0
  5 17  1  0
  7 18  1  0
  7 19  1  0
  8 20  1  0
  8 21  1  0
M  END
