
     RDKit          3D

 21 20  0  0  0  0  0  0  0  0999 V2000
   -3.4941    0.3462    0.2933 C   0  0  0  0  0  0  0  0  0  0  0  0
   -2.5983   -0.3494   -0.4916 O   0  0  0  0  0  0  0  0  0  0  0  0
   -1.3163    0.1457   -0.4385 C   0  0  0  0  0  0  0  0  0  0  0  0
   -0.4316   -0.6966   -1.3364 C   0  0  0  0  0  0  0  0  0  0  0  0
    0.9976   -0.1900   -1.3145 C   0  0  0  0  0  0  0  0  0  0  0  0
    1.5729   -0.2437    0.1090 C   0  0  0  0  0  0  0  0  0  0  0  0
    2.8906    0.2436    0.0128 O   0  0  0  0  0  0  0  0  0  0  0  0
    3.7702    0.3682    1.0530 C   0  0  0  0  0  0  0  0  0  0  0  0
    3.3907    0.0246    2.2000 O   0  0  0  0  0  0  0  0  0  0  0  0
   -3.2153    0.3389    1.3787 H   0  0  0  0  0  0  0  0  0  0  0  0
   -3.6436    1.3874   -0.0382 H   0  0  0  0  0  0  0  0  0  0  0  0
   -4.4821   -0.1530    0.2294 H   0  0  0  0  0  0  0  0  0  0  0  0
   -0.9508   -0.0333    0.6149 H   0  0  0  0  0  0  0  0  0  0  0  0
   -1.2116    1.2129   -0.6215 H   0  0  0  0  0  0  0  0  0  0  0  0
   -0.4422   -1.7625   -1.0390 H   0  0  0  0  0  0  0  0  0  0  0  0
   -0.7670   -0.6191   -2.3909 H   0  0  0  0  0  0  0  0  0  0  0  0
    1.6577   -0.8231   -1.9364 H   0  0  0  0  0  0  0  0  0  0  0  0
    1.0039    0.8441   -1.6977 H   0  0  0  0  0  0  0  0  0  0  0  0
    1.0200    0.4591    0.7828 H   0  0  0  0  0  0  0  0  0  0  0  0
    1.4910   -1.2554    0.5156 H   0  0  0  0  0  0  0  0  0  0  0  0
    4.7582    0.7552    0.8611 H   0  0  0  0  0  0  0  0  0  0  0  0
  1  2  1  0
  2  3  1  0
  3  4  1  0
  4  5  1  0
  5  6  1  0
  6  7  1  0
  7  8  1  0
  8  9  2  0
  1 10  1  0
  1 11  1  0
  1 12  1  0
  3 13  1  0
  3 14  1  0
  4 15  1  0
  4 16  1  0
  5 17  1  0
  5 18  1  0
  6 19  1  0
  6 20  1  0
  8 21  1  0
M  END
