
     RDKit          3D

 20 19  0  0  0  0  0  0  0  0999 V2000
    3.0014   -0.4682    0.3513 C   0  0  0  0  0  0  0  0  0  0  0  0
    1.7903   -0.0270   -0.1690 O   0  0  0  0  0  0  0  0  0  0  0  0
    0.7077   -0.4504    0.5833 C   0  0  0  0  0  0  0  0  0  0  0  0
   -0.5410    0.0851   -0.0732 C   0  0  0  0  0  0  0  0  0  0  0  0
   -0.4389    1.6077   -0.0616 C   0  0  0  0  0  0  0  0  0  0  0  0
   -1.5770    2.0918   -0.7163 O   0  0  0  0  0  0  0  0  0  0  0  0
   -1.6938   -0.2727    0.5898 O   0  0  0  0  0  0  0  0  0  0  0  0
   -2.5114   -1.0150   -0.2706 C   0  0  0  0  0  0  0  0  0  0  0  0
    3.8002   -0.0849   -0.3089 H   0  0  0  0  0  0  0  0  0  0  0  0
    3.0071   -1.5873    0.2675 H   0  0  0  0  0  0  0  0  0  0  0  0
    3.1206   -0.1981    1.4069 H   0  0  0  0  0  0  0  0  0  0  0  0
    0.8300   -0.0388    1.6064 H   0  0  0  0  0  0  0  0  0  0  0  0
    0.6788   -1.5545    0.7010 H   0  0  0  0  0  0  0  0  0  0  0  0
   -0.5524   -0.3011   -1.1086 H   0  0  0  0  0  0  0  0  0  0  0  0
    0.4806    1.9478   -0.5819 H   0  0  0  0  0  0  0  0  0  0  0  0
   -0.4351    1.9748    0.9784 H   0  0  0  0  0  0  0  0  0  0  0  0
   -1.4453    1.8891   -1.6792 H   0  0  0  0  0  0  0  0  0  0  0  0
   -2.7717   -0.4023   -1.1615 H   0  0  0  0  0  0  0  0  0  0  0  0
   -1.9725   -1.9375   -0.5752 H   0  0  0  0  0  0  0  0  0  0  0  0
   -3.4775   -1.2588    0.2215 H   0  0  0  0  0  0  0  0  0  0  0  0
  1  2  1  0
  2  3  1  0
  3  4  1  0
  4  5  1  0
  5  6  1  0
  4  7  1  0
  7  8  1  0
  1  9  1  0
  1 10  1  0
  1 11  1  0
  3 12  1  0
  3 13  1  0
  4 14  1  0
  5 15  1  0
  5 16  1  0
  6 17  1  0
  8 18  1  0
  8 19  1  0
  8 20  1  0
M  END
