
     RDKit          3D

 21 21  0  0  0  0  0  0  0  0999 V2000
    2.4950    0.9490    0.5865 C   0  0  0  0  0  0  0  0  0  0  0  0
    1.1611    0.6207    0.9073 O   0  0  0  0  0  0  0  0  0  0  0  0
    0.7457   -0.2446   -0.0991 C   0  0  0  0  0  0  0  0  0  0  0  0
   -0.6710   -0.7065    0.0775 C   0  0  0  0  0  0  0  0  0  0  0  0
   -0.9399   -1.7516   -1.0026 C   0  0  0  0  0  0  0  0  0  0  0  0
   -0.7706   -1.3750    1.2971 O   0  0  0  0  0  0  0  0  0  0  0  0
   -1.6767    0.3885    0.0633 C   0  0  0  0  0  0  0  0  0  0  0  0
   -1.3439    1.7875    0.2608 C   0  0  0  0  0  0  0  0  0  0  0  0
   -1.7995    1.2243   -1.0416 O   0  0  0  0  0  0  0  0  0  0  0  0
    2.9481    1.6287    1.3013 H   0  0  0  0  0  0  0  0  0  0  0  0
    3.0707   -0.0066    0.4525 H   0  0  0  0  0  0  0  0  0  0  0  0
    2.4436    1.3984   -0.4371 H   0  0  0  0  0  0  0  0  0  0  0  0
    0.8941    0.2900   -1.0601 H   0  0  0  0  0  0  0  0  0  0  0  0
    1.4374   -1.1113   -0.0773 H   0  0  0  0  0  0  0  0  0  0  0  0
   -1.9549   -2.1354   -0.8138 H   0  0  0  0  0  0  0  0  0  0  0  0
   -0.1633   -2.5486   -0.8285 H   0  0  0  0  0  0  0  0  0  0  0  0
   -0.7961   -1.3531   -2.0089 H   0  0  0  0  0  0  0  0  0  0  0  0
    0.0574   -1.8292    1.5498 H   0  0  0  0  0  0  0  0  0  0  0  0
   -2.6768    0.0602    0.4605 H   0  0  0  0  0  0  0  0  0  0  0  0
   -2.0976    2.4843    0.6881 H   0  0  0  0  0  0  0  0  0  0  0  0
   -0.3628    2.2303    0.1173 H   0  0  0  0  0  0  0  0  0  0  0  0
  1  2  1  0
  2  3  1  0
  3  4  1  0
  4  5  1  0
  4  6  1  0
  4  7  1  0
  7  8  1  0
  8  9  1  0
  9  7  1  0
  1 10  1  0
  1 11  1  0
  1 12  1  0
  3 13  1  0
  3 14  1  0
  5 15  1  0
  5 16  1  0
  5 17  1  0
  6 18  1  0
  7 19  1  0
  8 20  1  0
  8 21  1  0
M  END
