
     RDKit          3D

 17 16  0  0  0  0  0  0  0  0999 V2000
   -1.8770    1.1533   -0.8947 C   0  0  0  0  0  0  0  0  0  0  0  0
   -1.4215   -0.1367   -1.0404 O   0  0  0  0  0  0  0  0  0  0  0  0
   -1.2273   -0.7743    0.1534 C   0  0  0  0  0  0  0  0  0  0  0  0
   -0.2085   -0.1058    1.0406 C   0  0  0  0  0  0  0  0  0  0  0  0
   -0.1139   -0.9021    2.2067 O   0  0  0  0  0  0  0  0  0  0  0  0
    1.0558   -0.0846    0.3040 C   0  0  0  0  0  0  0  0  0  0  0  0
    2.0959   -0.0668   -0.3092 C   0  0  0  0  0  0  0  0  0  0  0  0
    3.3389   -0.0592   -1.0177 C   0  0  0  0  0  0  0  0  0  0  0  0
    4.2061    0.8052   -0.7530 O   0  0  0  0  0  0  0  0  0  0  0  0
   -1.1310    1.7467   -0.3409 H   0  0  0  0  0  0  0  0  0  0  0  0
   -2.1431    1.6168   -1.8754 H   0  0  0  0  0  0  0  0  0  0  0  0
   -2.8428    1.1706   -0.3243 H   0  0  0  0  0  0  0  0  0  0  0  0
   -0.8202   -1.8209   -0.0040 H   0  0  0  0  0  0  0  0  0  0  0  0
   -2.1623   -0.9025    0.7406 H   0  0  0  0  0  0  0  0  0  0  0  0
   -0.4999    0.9318    1.3301 H   0  0  0  0  0  0  0  0  0  0  0  0
    0.1860   -1.7913    1.8960 H   0  0  0  0  0  0  0  0  0  0  0  0
    3.5648   -0.7802   -1.7847 H   0  0  0  0  0  0  0  0  0  0  0  0
  1  2  1  0
  2  3  1  0
  3  4  1  0
  4  5  1  0
  4  6  1  0
  6  7  3  0
  7  8  1  0
  8  9  2  0
  1 10  1  0
  1 11  1  0
  1 12  1  0
  3 13  1  0
  3 14  1  0
  4 15  1  0
  5 16  1  0
  8 17  1  0
M  END
