
     RDKit          3D

 19 18  0  0  0  0  0  0  0  0999 V2000
    2.6832   -0.1315    0.4342 C   0  0  0  0  0  0  0  0  0  0  0  0
    2.1242   -0.9741   -0.4906 O   0  0  0  0  0  0  0  0  0  0  0  0
    0.7596   -1.0684   -0.4338 C   0  0  0  0  0  0  0  0  0  0  0  0
    0.0642    0.2532   -0.6546 C   0  0  0  0  0  0  0  0  0  0  0  0
   -1.4557    0.0946   -0.5821 C   0  0  0  0  0  0  0  0  0  0  0  0
   -1.8687   -0.4252    0.7506 C   0  0  0  0  0  0  0  0  0  0  0  0
   -3.0239   -0.7310    0.9138 O   0  0  0  0  0  0  0  0  0  0  0  0
   -2.0093    1.4419   -0.8055 C   0  0  0  0  0  0  0  0  0  0  0  0
   -2.3216    2.1233    0.1320 O   0  0  0  0  0  0  0  0  0  0  0  0
    2.3441    0.9198    0.3637 H   0  0  0  0  0  0  0  0  0  0  0  0
    2.5869   -0.4643    1.4836 H   0  0  0  0  0  0  0  0  0  0  0  0
    3.7876   -0.0978    0.2216 H   0  0  0  0  0  0  0  0  0  0  0  0
    0.4179   -1.8454   -1.1448 H   0  0  0  0  0  0  0  0  0  0  0  0
    0.4275   -1.4273    0.5770 H   0  0  0  0  0  0  0  0  0  0  0  0
    0.2714    0.6738   -1.6634 H   0  0  0  0  0  0  0  0  0  0  0  0
    0.3091    0.9730    0.1518 H   0  0  0  0  0  0  0  0  0  0  0  0
   -1.8103   -0.5849   -1.3952 H   0  0  0  0  0  0  0  0  0  0  0  0
   -1.1589   -0.5291    1.5564 H   0  0  0  0  0  0  0  0  0  0  0  0
   -2.1274    1.7995   -1.8013 H   0  0  0  0  0  0  0  0  0  0  0  0
  1  2  1  0
  2  3  1  0
  3  4  1  0
  4  5  1  0
  5  6  1  0
  6  7  2  0
  5  8  1  0
  8  9  2  0
  1 10  1  0
  1 11  1  0
  1 12  1  0
  3 13  1  0
  3 14  1  0
  4 15  1  0
  4 16  1  0
  5 17  1  0
  6 18  1  0
  8 19  1  0
M  END
