
     RDKit          3D

 17 16  0  0  0  0  0  0  0  0999 V2000
   -2.5860    1.2073   -0.7949 C   0  0  0  0  0  0  0  0  0  0  0  0
   -1.3497    0.7599   -0.3952 O   0  0  0  0  0  0  0  0  0  0  0  0
   -1.2202   -0.6032   -0.3492 C   0  0  0  0  0  0  0  0  0  0  0  0
    0.1462   -0.9461    0.0920 C   0  0  0  0  0  0  0  0  0  0  0  0
    0.4639   -2.1465    0.1982 O   0  0  0  0  0  0  0  0  0  0  0  0
    1.0864    0.1218    0.3915 C   0  0  0  0  0  0  0  0  0  0  0  0
    0.7737    1.3409    0.2871 O   0  0  0  0  0  0  0  0  0  0  0  0
    2.4866   -0.1782    0.8432 C   0  0  0  0  0  0  0  0  0  0  0  0
    3.2040    0.9660    1.0709 O   0  0  0  0  0  0  0  0  0  0  0  0
   -3.4093    0.8570   -0.1115 H   0  0  0  0  0  0  0  0  0  0  0  0
   -2.5817    2.3235   -0.6790 H   0  0  0  0  0  0  0  0  0  0  0  0
   -2.8521    0.9797   -1.8299 H   0  0  0  0  0  0  0  0  0  0  0  0
   -1.9808   -1.0994    0.2940 H   0  0  0  0  0  0  0  0  0  0  0  0
   -1.4195   -1.0210   -1.3805 H   0  0  0  0  0  0  0  0  0  0  0  0
    2.9910   -0.8906    0.1494 H   0  0  0  0  0  0  0  0  0  0  0  0
    2.3562   -0.7219    1.8234 H   0  0  0  0  0  0  0  0  0  0  0  0
    3.8913    1.1621    0.3906 H   0  0  0  0  0  0  0  0  0  0  0  0
  1  2  1  0
  2  3  1  0
  3  4  1  0
  4  5  2  0
  4  6  1  0
  6  7  2  0
  6  8  1  0
  8  9  1  0
  1 10  1  0
  1 11  1  0
  1 12  1  0
  3 13  1  0
  3 14  1  0
  8 15  1  0
  8 16  1  0
  9 17  1  0
M  END
