
     RDKit          3D

 16 15  0  0  0  0  0  0  0  0999 V2000
   -2.7639    0.3447    0.0234 C   0  0  0  0  0  0  0  0  0  0  0  0
   -1.4067    0.4731    0.3539 O   0  0  0  0  0  0  0  0  0  0  0  0
   -0.7183   -0.4628   -0.3848 C   0  0  0  0  0  0  0  0  0  0  0  0
    0.7634   -0.4526   -0.1416 C   0  0  0  0  0  0  0  0  0  0  0  0
    1.3645    0.7476   -0.4414 O   0  0  0  0  0  0  0  0  0  0  0  0
    2.7328    0.6084   -0.1672 C   0  0  0  0  0  0  0  0  0  0  0  0
   -2.9254    0.5258   -1.0715 H   0  0  0  0  0  0  0  0  0  0  0  0
   -3.4031    1.0621    0.5503 H   0  0  0  0  0  0  0  0  0  0  0  0
   -3.1467   -0.6650    0.2240 H   0  0  0  0  0  0  0  0  0  0  0  0
   -1.0870   -1.4717   -0.0444 H   0  0  0  0  0  0  0  0  0  0  0  0
   -0.9125   -0.4136   -1.4570 H   0  0  0  0  0  0  0  0  0  0  0  0
    1.0132   -0.6879    0.9239 H   0  0  0  0  0  0  0  0  0  0  0  0
    1.1955   -1.2954   -0.7318 H   0  0  0  0  0  0  0  0  0  0  0  0
    2.9291    0.3615    0.8855 H   0  0  0  0  0  0  0  0  0  0  0  0
    3.2690    1.5563   -0.4207 H   0  0  0  0  0  0  0  0  0  0  0  0
    3.0963   -0.2306   -0.7942 H   0  0  0  0  0  0  0  0  0  0  0  0
  1  2  1  0
  2  3  1  0
  3  4  1  0
  4  5  1  0
  5  6  1  0
  1  7  1  0
  1  8  1  0
  1  9  1  0
  3 10  1  0
  3 11  1  0
  4 12  1  0
  4 13  1  0
  6 14  1  0
  6 15  1  0
  6 16  1  0
M  END
