
     RDKit          3D

 19 20  0  0  0  0  0  0  0  0999 V2000
    3.1758   -0.0657    0.3654 C   0  0  0  0  0  0  0  0  0  0  0  0
    1.9957    0.1153   -0.3825 O   0  0  0  0  0  0  0  0  0  0  0  0
    0.8953   -0.2324    0.4262 C   0  0  0  0  0  0  0  0  0  0  0  0
   -0.3981   -0.0695   -0.2900 C   0  0  0  0  0  0  0  0  0  0  0  0
   -0.5204   -0.8551   -1.4501 O   0  0  0  0  0  0  0  0  0  0  0  0
   -1.6064   -0.0185    0.6147 C   0  0  0  0  0  0  0  0  0  0  0  0
   -2.9160    0.1234   -0.1047 C   0  0  0  0  0  0  0  0  0  0  0  0
   -2.4290    1.3041   -0.6687 O   0  0  0  0  0  0  0  0  0  0  0  0
   -1.1271    1.2106   -0.2101 C   0  0  0  0  0  0  0  0  0  0  0  0
    3.2732   -1.1372    0.6906 H   0  0  0  0  0  0  0  0  0  0  0  0
    3.1064    0.5712    1.2764 H   0  0  0  0  0  0  0  0  0  0  0  0
    4.0634    0.1792   -0.2183 H   0  0  0  0  0  0  0  0  0  0  0  0
    0.9021    0.3223    1.3829 H   0  0  0  0  0  0  0  0  0  0  0  0
    1.0245   -1.3198    0.6570 H   0  0  0  0  0  0  0  0  0  0  0  0
   -0.4560   -1.8194   -1.1628 H   0  0  0  0  0  0  0  0  0  0  0  0
   -1.5130    0.1233    1.6842 H   0  0  0  0  0  0  0  0  0  0  0  0
   -3.7568    0.2211    0.5807 H   0  0  0  0  0  0  0  0  0  0  0  0
   -3.0593   -0.6812   -0.8825 H   0  0  0  0  0  0  0  0  0  0  0  0
   -0.6542    2.0282    0.3363 H   0  0  0  0  0  0  0  0  0  0  0  0
  1  2  1  0
  2  3  1  0
  3  4  1  0
  4  5  1  0
  4  6  1  0
  6  7  1  0
  7  8  1  0
  8  9  1  0
  9  4  1  0
  9  6  1  0
  1 10  1  0
  1 11  1  0
  1 12  1  0
  3 13  1  0
  3 14  1  0
  5 15  1  0
  6 16  1  0
  7 17  1  0
  7 18  1  0
  9 19  1  0
M  END
