
     RDKit          3D

 24 23  0  0  0  0  0  0  0  0999 V2000
    3.0366    1.1520   -0.0862 C   0  0  0  0  0  0  0  0  0  0  0  0
    1.8278    0.6073   -0.5269 O   0  0  0  0  0  0  0  0  0  0  0  0
    1.3005   -0.2661    0.4531 C   0  0  0  0  0  0  0  0  0  0  0  0
   -0.0091   -0.7967   -0.1337 C   0  0  0  0  0  0  0  0  0  0  0  0
   -0.6992   -1.7479    0.7954 C   0  0  0  0  0  0  0  0  0  0  0  0
   -0.8803    0.3156   -0.6272 C   0  0  0  0  0  0  0  0  0  0  0  0
   -2.1427   -0.3340   -1.1832 C   0  0  0  0  0  0  0  0  0  0  0  0
   -1.3050    1.2776    0.4349 C   0  0  0  0  0  0  0  0  0  0  0  0
    3.8016    0.3652    0.1164 H   0  0  0  0  0  0  0  0  0  0  0  0
    2.8497    1.7702    0.8091 H   0  0  0  0  0  0  0  0  0  0  0  0
    3.4215    1.7658   -0.9270 H   0  0  0  0  0  0  0  0  0  0  0  0
    1.1629    0.2325    1.4121 H   0  0  0  0  0  0  0  0  0  0  0  0
    2.0449   -1.0840    0.5382 H   0  0  0  0  0  0  0  0  0  0  0  0
    0.2997   -1.3894   -1.0329 H   0  0  0  0  0  0  0  0  0  0  0  0
   -0.0624   -1.9822    1.6837 H   0  0  0  0  0  0  0  0  0  0  0  0
   -0.9537   -2.7172    0.3068 H   0  0  0  0  0  0  0  0  0  0  0  0
   -1.6749   -1.3200    1.1238 H   0  0  0  0  0  0  0  0  0  0  0  0
   -0.3593    0.8410   -1.4431 H   0  0  0  0  0  0  0  0  0  0  0  0
   -2.5831    0.3743   -1.8869 H   0  0  0  0  0  0  0  0  0  0  0  0
   -2.8694   -0.4553   -0.3462 H   0  0  0  0  0  0  0  0  0  0  0  0
   -1.8667   -1.3036   -1.6152 H   0  0  0  0  0  0  0  0  0  0  0  0
   -0.9761    2.3021    0.1609 H   0  0  0  0  0  0  0  0  0  0  0  0
   -2.4284    1.3550    0.5306 H   0  0  0  0  0  0  0  0  0  0  0  0
   -0.9349    1.0379    1.4436 H   0  0  0  0  0  0  0  0  0  0  0  0
  1  2  1  0
  2  3  1  0
  3  4  1  0
  4  5  1  0
  4  6  1  0
  6  7  1  0
  6  8  1  0
  1  9  1  0
  1 10  1  0
  1 11  1  0
  3 12  1  0
  3 13  1  0
  4 14  1  0
  5 15  1  0
  5 16  1  0
  5 17  1  0
  6 18  1  0
  7 19  1  0
  7 20  1  0
  7 21  1  0
  8 22  1  0
  8 23  1  0
  8 24  1  0
M  END
