
     RDKit          3D

 27 26  0  0  0  0  0  0  0  0999 V2000
    4.1984    0.7961    0.0455 C   0  0  0  0  0  0  0  0  0  0  0  0
    3.4180   -0.2795   -0.3824 O   0  0  0  0  0  0  0  0  0  0  0  0
    2.1125   -0.0753    0.1194 C   0  0  0  0  0  0  0  0  0  0  0  0
    1.3029   -1.2477   -0.3589 C   0  0  0  0  0  0  0  0  0  0  0  0
   -0.1407   -1.1948    0.0955 C   0  0  0  0  0  0  0  0  0  0  0  0
   -0.7501    0.0570   -0.4518 C   0  0  0  0  0  0  0  0  0  0  0  0
   -2.1972    0.2350   -0.0766 C   0  0  0  0  0  0  0  0  0  0  0  0
   -3.0780   -0.8734   -0.5604 C   0  0  0  0  0  0  0  0  0  0  0  0
   -2.6769    1.5353   -0.6882 C   0  0  0  0  0  0  0  0  0  0  0  0
    4.2083    0.8295    1.1534 H   0  0  0  0  0  0  0  0  0  0  0  0
    3.7256    1.7238   -0.3395 H   0  0  0  0  0  0  0  0  0  0  0  0
    5.2160    0.7336   -0.3610 H   0  0  0  0  0  0  0  0  0  0  0  0
    1.7674    0.8539   -0.4162 H   0  0  0  0  0  0  0  0  0  0  0  0
    2.1568    0.0391    1.2009 H   0  0  0  0  0  0  0  0  0  0  0  0
    1.7723   -2.2084   -0.0883 H   0  0  0  0  0  0  0  0  0  0  0  0
    1.3415   -1.2123   -1.4875 H   0  0  0  0  0  0  0  0  0  0  0  0
   -0.0910   -1.1611    1.2225 H   0  0  0  0  0  0  0  0  0  0  0  0
   -0.6764   -2.1093   -0.1503 H   0  0  0  0  0  0  0  0  0  0  0  0
   -0.2127    0.9236    0.0219 H   0  0  0  0  0  0  0  0  0  0  0  0
   -0.6548    0.1411   -1.5334 H   0  0  0  0  0  0  0  0  0  0  0  0
   -2.3252    0.3370    1.0284 H   0  0  0  0  0  0  0  0  0  0  0  0
   -2.5550   -1.5907   -1.2248 H   0  0  0  0  0  0  0  0  0  0  0  0
   -3.5321   -1.4273    0.2887 H   0  0  0  0  0  0  0  0  0  0  0  0
   -3.9383   -0.4777   -1.1513 H   0  0  0  0  0  0  0  0  0  0  0  0
   -1.8972    1.9999   -1.3375 H   0  0  0  0  0  0  0  0  0  0  0  0
   -2.9412    2.2932    0.0752 H   0  0  0  0  0  0  0  0  0  0  0  0
   -3.5528    1.3595   -1.3787 H   0  0  0  0  0  0  0  0  0  0  0  0
  1  2  1  0
  2  3  1  0
  3  4  1  0
  4  5  1  0
  5  6  1  0
  6  7  1  0
  7  8  1  0
  7  9  1  0
  1 10  1  0
  1 11  1  0
  1 12  1  0
  3 13  1  0
  3 14  1  0
  4 15  1  0
  4 16  1  0
  5 17  1  0
  5 18  1  0
  6 19  1  0
  6 20  1  0
  7 21  1  0
  8 22  1  0
  8 23  1  0
  8 24  1  0
  9 25  1  0
  9 26  1  0
  9 27  1  0
M  END
