
     RDKit          3D

 23 23  0  0  0  0  0  0  0  0999 V2000
    3.0505    0.0341    0.9378 C   0  0  0  0  0  0  0  0  0  0  0  0
    1.7643    0.4577    0.5977 O   0  0  0  0  0  0  0  0  0  0  0  0
    1.4317   -0.1668   -0.5869 C   0  0  0  0  0  0  0  0  0  0  0  0
    0.0595    0.1934   -1.0869 C   0  0  0  0  0  0  0  0  0  0  0  0
   -1.0353   -0.1596   -0.1428 C   0  0  0  0  0  0  0  0  0  0  0  0
   -1.1481   -1.6331    0.2017 C   0  0  0  0  0  0  0  0  0  0  0  0
   -2.3694    0.5665   -0.4260 C   0  0  0  0  0  0  0  0  0  0  0  0
   -1.5858    0.7857    0.8431 C   0  0  0  0  0  0  0  0  0  0  0  0
   -1.0911    2.0797    0.9708 O   0  0  0  0  0  0  0  0  0  0  0  0
    3.4113    0.4788    1.8753 H   0  0  0  0  0  0  0  0  0  0  0  0
    3.7188    0.4330    0.1201 H   0  0  0  0  0  0  0  0  0  0  0  0
    3.1014   -1.0550    0.8902 H   0  0  0  0  0  0  0  0  0  0  0  0
    2.1946    0.1186   -1.3366 H   0  0  0  0  0  0  0  0  0  0  0  0
    1.5253   -1.2583   -0.4272 H   0  0  0  0  0  0  0  0  0  0  0  0
   -0.1015   -0.3899   -2.0265 H   0  0  0  0  0  0  0  0  0  0  0  0
    0.0279    1.2598   -1.3886 H   0  0  0  0  0  0  0  0  0  0  0  0
   -0.4069   -1.9297    0.9854 H   0  0  0  0  0  0  0  0  0  0  0  0
   -2.1670   -1.8260    0.6202 H   0  0  0  0  0  0  0  0  0  0  0  0
   -1.0025   -2.1888   -0.7388 H   0  0  0  0  0  0  0  0  0  0  0  0
   -2.3800    1.3163   -1.2158 H   0  0  0  0  0  0  0  0  0  0  0  0
   -3.2937   -0.0397   -0.3659 H   0  0  0  0  0  0  0  0  0  0  0  0
   -1.9800    0.3664    1.8004 H   0  0  0  0  0  0  0  0  0  0  0  0
   -1.7239    2.5568    1.5864 H   0  0  0  0  0  0  0  0  0  0  0  0
  1  2  1  0
  2  3  1  0
  3  4  1  0
  4  5  1  0
  5  6  1  0
  5  7  1  0
  7  8  1  0
  8  9  1  0
  8  5  1  0
  1 10  1  0
  1 11  1  0
  1 12  1  0
  3 13  1  0
  3 14  1  0
  4 15  1  0
  4 16  1  0
  6 17  1  0
  6 18  1  0
  6 19  1  0
  7 20  1  0
  7 21  1  0
  8 22  1  0
  9 23  1  0
M  END
