
     RDKit          3D

 21 21  0  0  0  0  0  0  0  0999 V2000
    2.9970   -0.4297    0.3195 C   0  0  0  0  0  0  0  0  0  0  0  0
    1.8552   -0.3581   -0.4757 O   0  0  0  0  0  0  0  0  0  0  0  0
    0.7115   -0.5918    0.2816 C   0  0  0  0  0  0  0  0  0  0  0  0
   -0.5451   -0.5276   -0.5186 C   0  0  0  0  0  0  0  0  0  0  0  0
   -0.7794    0.8137   -1.1866 C   0  0  0  0  0  0  0  0  0  0  0  0
   -1.8279    0.7402   -2.0990 O   0  0  0  0  0  0  0  0  0  0  0  0
   -1.3426    1.2775    0.1626 C   0  0  0  0  0  0  0  0  0  0  0  0
   -1.7284   -0.1863    0.3787 C   0  0  0  0  0  0  0  0  0  0  0  0
   -1.5961   -0.6444    1.6618 O   0  0  0  0  0  0  0  0  0  0  0  0
    3.0044   -1.4694    0.7434 H   0  0  0  0  0  0  0  0  0  0  0  0
    2.9132    0.3101    1.1216 H   0  0  0  0  0  0  0  0  0  0  0  0
    3.9246   -0.3110   -0.2664 H   0  0  0  0  0  0  0  0  0  0  0  0
    0.7193    0.0926    1.1557 H   0  0  0  0  0  0  0  0  0  0  0  0
    0.8079   -1.6177    0.7013 H   0  0  0  0  0  0  0  0  0  0  0  0
   -0.7080   -1.4066   -1.1411 H   0  0  0  0  0  0  0  0  0  0  0  0
    0.1183    1.3381   -1.5163 H   0  0  0  0  0  0  0  0  0  0  0  0
   -2.0059   -0.1917   -2.3862 H   0  0  0  0  0  0  0  0  0  0  0  0
   -0.5850    1.6639    0.8553 H   0  0  0  0  0  0  0  0  0  0  0  0
   -2.1823    1.9721    0.0778 H   0  0  0  0  0  0  0  0  0  0  0  0
   -2.7061   -0.3802   -0.1160 H   0  0  0  0  0  0  0  0  0  0  0  0
   -1.0443   -0.0937    2.2466 H   0  0  0  0  0  0  0  0  0  0  0  0
  1  2  1  0
  2  3  1  0
  3  4  1  0
  4  5  1  0
  5  6  1  0
  5  7  1  0
  7  8  1  0
  8  9  1  0
  8  4  1  0
  1 10  1  0
  1 11  1  0
  1 12  1  0
  3 13  1  0
  3 14  1  0
  4 15  1  0
  5 16  1  0
  6 17  1  0
  7 18  1  0
  7 19  1  0
  8 20  1  0
  9 21  1  0
M  END
