
     RDKit          3D

 17 17  0  0  0  0  0  0  0  0999 V2000
    2.6587    0.5292   -0.1855 C   0  0  0  0  0  0  0  0  0  0  0  0
    1.4965    0.6429    0.5970 O   0  0  0  0  0  0  0  0  0  0  0  0
    0.5401   -0.1952    0.0114 C   0  0  0  0  0  0  0  0  0  0  0  0
   -0.7647   -0.1718    0.7525 C   0  0  0  0  0  0  0  0  0  0  0  0
   -1.7629   -1.0863    0.0889 C   0  0  0  0  0  0  0  0  0  0  0  0
   -2.7599   -0.1779    0.4261 O   0  0  0  0  0  0  0  0  0  0  0  0
   -1.7745    0.8310    0.3176 C   0  0  0  0  0  0  0  0  0  0  0  0
    3.4310    1.1820    0.2558 H   0  0  0  0  0  0  0  0  0  0  0  0
    2.9959   -0.5406   -0.2349 H   0  0  0  0  0  0  0  0  0  0  0  0
    2.4055    0.8061   -1.2295 H   0  0  0  0  0  0  0  0  0  0  0  0
    0.4514    0.0570   -1.0420 H   0  0  0  0  0  0  0  0  0  0  0  0
    0.9520   -1.2240    0.0899 H   0  0  0  0  0  0  0  0  0  0  0  0
   -0.6728   -0.2698    1.8290 H   0  0  0  0  0  0  0  0  0  0  0  0
   -1.6392   -1.1002   -1.0189 H   0  0  0  0  0  0  0  0  0  0  0  0
   -1.7957   -2.0617    0.5774 H   0  0  0  0  0  0  0  0  0  0  0  0
   -1.7325    1.1508   -0.7363 H   0  0  0  0  0  0  0  0  0  0  0  0
   -2.0289    1.6284    1.0363 H   0  0  0  0  0  0  0  0  0  0  0  0
  1  2  1  0
  2  3  1  0
  3  4  1  0
  4  5  1  0
  5  6  1  0
  6  7  1  0
  7  4  1  0
  1  8  1  0
  1  9  1  0
  1 10  1  0
  3 11  1  0
  3 12  1  0
  4 13  1  0
  5 14  1  0
  5 15  1  0
  7 16  1  0
  7 17  1  0
M  END
