
     RDKit          3D

 23 23  0  0  0  0  0  0  0  0999 V2000
    2.4766    0.7646    0.3227 C   0  0  0  0  0  0  0  0  0  0  0  0
    2.1093   -0.5404    0.6409 O   0  0  0  0  0  0  0  0  0  0  0  0
    1.5237   -1.2096   -0.3914 C   0  0  0  0  0  0  0  0  0  0  0  0
    0.2468   -0.6034   -0.8381 C   0  0  0  0  0  0  0  0  0  0  0  0
   -0.8643   -0.5559    0.1364 C   0  0  0  0  0  0  0  0  0  0  0  0
   -1.2819   -1.8014    0.6137 O   0  0  0  0  0  0  0  0  0  0  0  0
   -2.0473    0.2025   -0.5149 C   0  0  0  0  0  0  0  0  0  0  0  0
   -1.5970    1.4380    0.2450 C   0  0  0  0  0  0  0  0  0  0  0  0
   -0.9045    0.4606    1.2117 C   0  0  0  0  0  0  0  0  0  0  0  0
    2.9352    1.2061    1.2295 H   0  0  0  0  0  0  0  0  0  0  0  0
    3.2418    0.8019   -0.4785 H   0  0  0  0  0  0  0  0  0  0  0  0
    1.6350    1.4105    0.0178 H   0  0  0  0  0  0  0  0  0  0  0  0
    1.2977   -2.2611   -0.0453 H   0  0  0  0  0  0  0  0  0  0  0  0
    2.1852   -1.3471   -1.2725 H   0  0  0  0  0  0  0  0  0  0  0  0
    0.3733    0.4174   -1.2840 H   0  0  0  0  0  0  0  0  0  0  0  0
   -0.1248   -1.2101   -1.7217 H   0  0  0  0  0  0  0  0  0  0  0  0
   -1.2603   -2.4611   -0.1084 H   0  0  0  0  0  0  0  0  0  0  0  0
   -1.9428    0.3614   -1.5987 H   0  0  0  0  0  0  0  0  0  0  0  0
   -3.0255   -0.1834   -0.2030 H   0  0  0  0  0  0  0  0  0  0  0  0
   -0.8511    2.0519   -0.2905 H   0  0  0  0  0  0  0  0  0  0  0  0
   -2.4189    2.0140    0.6816 H   0  0  0  0  0  0  0  0  0  0  0  0
   -0.0025    0.8413    1.6667 H   0  0  0  0  0  0  0  0  0  0  0  0
   -1.7037    0.2033    1.9811 H   0  0  0  0  0  0  0  0  0  0  0  0
  1  2  1  0
  2  3  1  0
  3  4  1  0
  4  5  1  0
  5  6  1  0
  5  7  1  0
  7  8  1  0
  8  9  1  0
  9  5  1  0
  1 10  1  0
  1 11  1  0
  1 12  1  0
  3 13  1  0
  3 14  1  0
  4 15  1  0
  4 16  1  0
  6 17  1  0
  7 18  1  0
  7 19  1  0
  8 20  1  0
  8 21  1  0
  9 22  1  0
  9 23  1  0
M  END
