
     RDKit          3D

 21 22  0  0  0  0  0  0  0  0999 V2000
    2.8555    0.5963    0.9718 C   0  0  0  0  0  0  0  0  0  0  0  0
    1.5178    0.6389    0.5948 O   0  0  0  0  0  0  0  0  0  0  0  0
    1.1259   -0.4977   -0.0988 C   0  0  0  0  0  0  0  0  0  0  0  0
   -0.3186   -0.3791   -0.4689 C   0  0  0  0  0  0  0  0  0  0  0  0
   -0.6956    0.7795   -1.3367 C   0  0  0  0  0  0  0  0  0  0  0  0
   -2.0873    0.7525   -1.3273 O   0  0  0  0  0  0  0  0  0  0  0  0
   -2.3861    0.6164    0.0264 C   0  0  0  0  0  0  0  0  0  0  0  0
   -1.3953   -0.4184    0.5554 C   0  0  0  0  0  0  0  0  0  0  0  0
   -1.1815   -1.5754   -0.3449 C   0  0  0  0  0  0  0  0  0  0  0  0
    3.5433    0.5120    0.1234 H   0  0  0  0  0  0  0  0  0  0  0  0
    3.0761    1.5696    1.4701 H   0  0  0  0  0  0  0  0  0  0  0  0
    2.9517   -0.2379    1.6982 H   0  0  0  0  0  0  0  0  0  0  0  0
    1.7124   -0.4941   -1.0597 H   0  0  0  0  0  0  0  0  0  0  0  0
    1.3492   -1.3866    0.5044 H   0  0  0  0  0  0  0  0  0  0  0  0
   -0.2796    0.7213   -2.3588 H   0  0  0  0  0  0  0  0  0  0  0  0
   -0.3030    1.7075   -0.8732 H   0  0  0  0  0  0  0  0  0  0  0  0
   -2.2809    1.5859    0.5167 H   0  0  0  0  0  0  0  0  0  0  0  0
   -3.4355    0.2217    0.0780 H   0  0  0  0  0  0  0  0  0  0  0  0
   -1.1495   -0.4239    1.6165 H   0  0  0  0  0  0  0  0  0  0  0  0
   -1.9328   -1.8029   -1.1457 H   0  0  0  0  0  0  0  0  0  0  0  0
   -0.6864   -2.4858    0.0561 H   0  0  0  0  0  0  0  0  0  0  0  0
  1  2  1  0
  2  3  1  0
  3  4  1  0
  4  5  1  0
  5  6  1  0
  6  7  1  0
  7  8  1  0
  8  9  1  0
  8  4  1  0
  9  4  1  0
  1 10  1  0
  1 11  1  0
  1 12  1  0
  3 13  1  0
  3 14  1  0
  5 15  1  0
  5 16  1  0
  7 17  1  0
  7 18  1  0
  8 19  1  0
  9 20  1  0
  9 21  1  0
M  END
