
     RDKit          3D

 22 21  0  0  0  0  0  0  0  0999 V2000
    2.8380   -0.4761   -0.1040 C   0  0  0  0  0  0  0  0  0  0  0  0
    1.5653   -0.3912    0.4915 O   0  0  0  0  0  0  0  0  0  0  0  0
    0.7250    0.1476   -0.4838 C   0  0  0  0  0  0  0  0  0  0  0  0
   -0.6916    0.2970    0.0228 C   0  0  0  0  0  0  0  0  0  0  0  0
   -1.4984    0.8922   -1.1347 C   0  0  0  0  0  0  0  0  0  0  0  0
   -0.7239    1.2156    1.2182 C   0  0  0  0  0  0  0  0  0  0  0  0
   -1.2951   -1.0521    0.3122 C   0  0  0  0  0  0  0  0  0  0  0  0
   -0.5297   -1.6901    1.2788 O   0  0  0  0  0  0  0  0  0  0  0  0
    2.7035   -1.1522   -0.9944 H   0  0  0  0  0  0  0  0  0  0  0  0
    3.6010   -0.8388    0.5920 H   0  0  0  0  0  0  0  0  0  0  0  0
    3.0460    0.5221   -0.5257 H   0  0  0  0  0  0  0  0  0  0  0  0
    0.6778   -0.5859   -1.3352 H   0  0  0  0  0  0  0  0  0  0  0  0
    1.1489    1.0778   -0.8531 H   0  0  0  0  0  0  0  0  0  0  0  0
   -1.6485    0.1169   -1.8966 H   0  0  0  0  0  0  0  0  0  0  0  0
   -0.9553    1.7490   -1.5941 H   0  0  0  0  0  0  0  0  0  0  0  0
   -2.4748    1.1977   -0.6933 H   0  0  0  0  0  0  0  0  0  0  0  0
   -0.5206    2.2502    0.8653 H   0  0  0  0  0  0  0  0  0  0  0  0
   -1.7482    1.1197    1.6637 H   0  0  0  0  0  0  0  0  0  0  0  0
    0.0558    0.8503    1.9293 H   0  0  0  0  0  0  0  0  0  0  0  0
   -2.3477   -0.9397    0.6127 H   0  0  0  0  0  0  0  0  0  0  0  0
   -1.2154   -1.6499   -0.6176 H   0  0  0  0  0  0  0  0  0  0  0  0
   -0.7119   -2.6600    1.2458 H   0  0  0  0  0  0  0  0  0  0  0  0
  1  2  1  0
  2  3  1  0
  3  4  1  0
  4  5  1  0
  4  6  1  0
  4  7  1  0
  7  8  1  0
  1  9  1  0
  1 10  1  0
  1 11  1  0
  3 12  1  0
  3 13  1  0
  5 14  1  0
  5 15  1  0
  5 16  1  0
  6 17  1  0
  6 18  1  0
  6 19  1  0
  7 20  1  0
  7 21  1  0
  8 22  1  0
M  END
