
     RDKit          3D

 17 16  0  0  0  0  0  0  0  0999 V2000
    2.3494   -0.5902    0.5998 C   0  0  0  0  0  0  0  0  0  0  0  0
    1.0046   -0.7933    0.2412 O   0  0  0  0  0  0  0  0  0  0  0  0
    0.3951    0.4558    0.2103 C   0  0  0  0  0  0  0  0  0  0  0  0
   -1.0640    0.3162   -0.1708 C   0  0  0  0  0  0  0  0  0  0  0  0
   -1.6353    1.5653   -0.1921 O   0  0  0  0  0  0  0  0  0  0  0  0
   -1.0837   -0.3438   -1.5108 C   0  0  0  0  0  0  0  0  0  0  0  0
   -1.5693    0.2347   -2.4489 O   0  0  0  0  0  0  0  0  0  0  0  0
   -1.8000   -0.5188    0.7914 C   0  0  0  0  0  0  0  0  0  0  0  0
   -2.7322   -0.0743    1.4019 O   0  0  0  0  0  0  0  0  0  0  0  0
    2.7669    0.0741   -0.2018 H   0  0  0  0  0  0  0  0  0  0  0  0
    2.4045   -0.0953    1.5856 H   0  0  0  0  0  0  0  0  0  0  0  0
    2.8917   -1.5498    0.5673 H   0  0  0  0  0  0  0  0  0  0  0  0
    0.5303    0.9222    1.1966 H   0  0  0  0  0  0  0  0  0  0  0  0
    0.8779    1.0353   -0.6013 H   0  0  0  0  0  0  0  0  0  0  0  0
   -1.1711    2.2240   -0.7563 H   0  0  0  0  0  0  0  0  0  0  0  0
   -0.6708   -1.3301   -1.6541 H   0  0  0  0  0  0  0  0  0  0  0  0
   -1.4940   -1.5319    0.9422 H   0  0  0  0  0  0  0  0  0  0  0  0
  1  2  1  0
  2  3  1  0
  3  4  1  0
  4  5  1  0
  4  6  1  0
  6  7  2  0
  4  8  1  0
  8  9  2  0
  1 10  1  0
  1 11  1  0
  1 12  1  0
  3 13  1  0
  3 14  1  0
  5 15  1  0
  6 16  1  0
  8 17  1  0
M  END
