
     RDKit          3D

 25 24  0  0  0  0  0  0  0  0999 V2000
    3.7574    0.3304    0.7730 C   0  0  0  0  0  0  0  0  0  0  0  0
    2.5606   -0.3827    0.8526 O   0  0  0  0  0  0  0  0  0  0  0  0
    1.6963   -0.0558   -0.2043 C   0  0  0  0  0  0  0  0  0  0  0  0
    0.4559   -0.8616   -0.0337 C   0  0  0  0  0  0  0  0  0  0  0  0
   -0.5991   -0.6591   -1.0547 C   0  0  0  0  0  0  0  0  0  0  0  0
   -1.1783    0.6974   -1.1832 C   0  0  0  0  0  0  0  0  0  0  0  0
   -1.8555    1.1546    0.0764 C   0  0  0  0  0  0  0  0  0  0  0  0
   -2.9941    0.2350    0.4764 C   0  0  0  0  0  0  0  0  0  0  0  0
   -0.9449    1.3275    1.0788 O   0  0  0  0  0  0  0  0  0  0  0  0
    4.2836    0.1110   -0.1709 H   0  0  0  0  0  0  0  0  0  0  0  0
    3.5905    1.4081    0.9362 H   0  0  0  0  0  0  0  0  0  0  0  0
    4.3982   -0.0525    1.5968 H   0  0  0  0  0  0  0  0  0  0  0  0
    1.4576    1.0154   -0.1316 H   0  0  0  0  0  0  0  0  0  0  0  0
    2.1907   -0.2037   -1.1880 H   0  0  0  0  0  0  0  0  0  0  0  0
    0.7753   -1.9445   -0.1209 H   0  0  0  0  0  0  0  0  0  0  0  0
    0.0593   -0.7739    0.9803 H   0  0  0  0  0  0  0  0  0  0  0  0
   -0.2985   -1.0470   -2.0717 H   0  0  0  0  0  0  0  0  0  0  0  0
   -1.4509   -1.3475   -0.7696 H   0  0  0  0  0  0  0  0  0  0  0  0
   -1.9909    0.6263   -1.9643 H   0  0  0  0  0  0  0  0  0  0  0  0
   -0.4638    1.4760   -1.5068 H   0  0  0  0  0  0  0  0  0  0  0  0
   -2.3136    2.1417   -0.1427 H   0  0  0  0  0  0  0  0  0  0  0  0
   -3.9024    0.8191    0.7558 H   0  0  0  0  0  0  0  0  0  0  0  0
   -3.2442   -0.4753   -0.3124 H   0  0  0  0  0  0  0  0  0  0  0  0
   -2.6623   -0.3100    1.4090 H   0  0  0  0  0  0  0  0  0  0  0  0
   -1.3268    0.9728    1.9194 H   0  0  0  0  0  0  0  0  0  0  0  0
  1  2  1  0
  2  3  1  0
  3  4  1  0
  4  5  1  0
  5  6  1  0
  6  7  1  0
  7  8  1  0
  7  9  1  0
  1 10  1  0
  1 11  1  0
  1 12  1  0
  3 13  1  0
  3 14  1  0
  4 15  1  0
  4 16  1  0
  5 17  1  0
  5 18  1  0
  6 19  1  0
  6 20  1  0
  7 21  1  0
  8 22  1  0
  8 23  1  0
  8 24  1  0
  9 25  1  0
M  END
