
     RDKit          3D

 21 21  0  0  0  0  0  0  0  0999 V2000
    3.3255   -0.1265   -0.0336 C   0  0  0  0  0  0  0  0  0  0  0  0
    2.0766   -0.0151    0.5540 O   0  0  0  0  0  0  0  0  0  0  0  0
    1.1350   -0.1456   -0.4931 C   0  0  0  0  0  0  0  0  0  0  0  0
   -0.2647   -0.0290    0.1090 C   0  0  0  0  0  0  0  0  0  0  0  0
   -0.6675    1.4009    0.3717 C   0  0  0  0  0  0  0  0  0  0  0  0
   -2.0121    1.5761    0.5653 O   0  0  0  0  0  0  0  0  0  0  0  0
   -0.5274   -0.9974    1.0535 O   0  0  0  0  0  0  0  0  0  0  0  0
   -1.2175   -1.0214   -0.2740 C   0  0  0  0  0  0  0  0  0  0  0  0
   -2.6880   -0.9684   -0.0490 C   0  0  0  0  0  0  0  0  0  0  0  0
    3.5201    0.6462   -0.7972 H   0  0  0  0  0  0  0  0  0  0  0  0
    3.3780   -1.1084   -0.5505 H   0  0  0  0  0  0  0  0  0  0  0  0
    4.1292   -0.0242    0.7405 H   0  0  0  0  0  0  0  0  0  0  0  0
    1.3018   -1.1623   -0.9241 H   0  0  0  0  0  0  0  0  0  0  0  0
    1.3210    0.6225   -1.2500 H   0  0  0  0  0  0  0  0  0  0  0  0
   -0.3427    2.0175   -0.4927 H   0  0  0  0  0  0  0  0  0  0  0  0
   -0.1373    1.7968    1.2559 H   0  0  0  0  0  0  0  0  0  0  0  0
   -2.1653    2.4340    1.0341 H   0  0  0  0  0  0  0  0  0  0  0  0
   -0.8749   -1.8858   -0.8937 H   0  0  0  0  0  0  0  0  0  0  0  0
   -2.9828   -0.5185    0.9299 H   0  0  0  0  0  0  0  0  0  0  0  0
   -3.0588   -2.0347    0.0165 H   0  0  0  0  0  0  0  0  0  0  0  0
   -3.2482   -0.4565   -0.8727 H   0  0  0  0  0  0  0  0  0  0  0  0
  1  2  1  0
  2  3  1  0
  3  4  1  0
  4  5  1  0
  5  6  1  0
  4  7  1  0
  7  8  1  0
  8  9  1  0
  8  4  1  0
  1 10  1  0
  1 11  1  0
  1 12  1  0
  3 13  1  0
  3 14  1  0
  5 15  1  0
  5 16  1  0
  6 17  1  0
  8 18  1  0
  9 19  1  0
  9 20  1  0
  9 21  1  0
M  END
