
     RDKit          3D

 21 21  0  0  0  0  0  0  0  0999 V2000
    2.8359    1.0077   -0.0264 C   0  0  0  0  0  0  0  0  0  0  0  0
    1.5937    0.5109    0.4094 O   0  0  0  0  0  0  0  0  0  0  0  0
    1.2955   -0.5586   -0.4446 C   0  0  0  0  0  0  0  0  0  0  0  0
   -0.0486   -1.1798   -0.0575 C   0  0  0  0  0  0  0  0  0  0  0  0
   -1.1518   -0.1456   -0.1641 C   0  0  0  0  0  0  0  0  0  0  0  0
   -1.3550    0.4477   -1.5014 C   0  0  0  0  0  0  0  0  0  0  0  0
   -2.2113    1.2809   -1.6837 O   0  0  0  0  0  0  0  0  0  0  0  0
   -2.4077   -0.5519    0.5929 C   0  0  0  0  0  0  0  0  0  0  0  0
   -1.5729    0.6177    1.0354 C   0  0  0  0  0  0  0  0  0  0  0  0
    3.1737    1.8680    0.5867 H   0  0  0  0  0  0  0  0  0  0  0  0
    3.5523    0.1607    0.1088 H   0  0  0  0  0  0  0  0  0  0  0  0
    2.7980    1.2507   -1.1117 H   0  0  0  0  0  0  0  0  0  0  0  0
    2.0949   -1.3087   -0.2921 H   0  0  0  0  0  0  0  0  0  0  0  0
    1.2598   -0.2384   -1.5025 H   0  0  0  0  0  0  0  0  0  0  0  0
   -0.2717   -1.9577   -0.8206 H   0  0  0  0  0  0  0  0  0  0  0  0
   -0.0079   -1.6330    0.9366 H   0  0  0  0  0  0  0  0  0  0  0  0
   -0.7379    0.1382   -2.3218 H   0  0  0  0  0  0  0  0  0  0  0  0
   -2.4023   -1.4701    1.2046 H   0  0  0  0  0  0  0  0  0  0  0  0
   -3.3555   -0.3863    0.0626 H   0  0  0  0  0  0  0  0  0  0  0  0
   -1.0599    0.5275    2.0046 H   0  0  0  0  0  0  0  0  0  0  0  0
   -2.0213    1.6198    0.8413 H   0  0  0  0  0  0  0  0  0  0  0  0
  1  2  1  0
  2  3  1  0
  3  4  1  0
  4  5  1  0
  5  6  1  0
  6  7  2  0
  5  8  1  0
  8  9  1  0
  9  5  1  0
  1 10  1  0
  1 11  1  0
  1 12  1  0
  3 13  1  0
  3 14  1  0
  4 15  1  0
  4 16  1  0
  6 17  1  0
  8 18  1  0
  8 19  1  0
  9 20  1  0
  9 21  1  0
M  END
