
     RDKit          3D

 21 21  0  0  0  0  0  0  0  0999 V2000
    3.6551   -0.0427   -0.0703 C   0  0  0  0  0  0  0  0  0  0  0  0
    2.3960   -0.5967   -0.3748 O   0  0  0  0  0  0  0  0  0  0  0  0
    1.4494    0.3160    0.0703 C   0  0  0  0  0  0  0  0  0  0  0  0
    0.0611   -0.1046   -0.1689 C   0  0  0  0  0  0  0  0  0  0  0  0
   -0.7903    0.5953   -0.9125 C   0  0  0  0  0  0  0  0  0  0  0  0
   -2.0955   -0.1329   -0.9301 C   0  0  0  0  0  0  0  0  0  0  0  0
   -3.1058    0.5908   -0.0569 C   0  0  0  0  0  0  0  0  0  0  0  0
   -1.8250   -1.3902   -0.4094 O   0  0  0  0  0  0  0  0  0  0  0  0
   -0.6698   -1.3076    0.3171 C   0  0  0  0  0  0  0  0  0  0  0  0
    3.7411    0.1146    1.0309 H   0  0  0  0  0  0  0  0  0  0  0  0
    4.4743   -0.7238   -0.4017 H   0  0  0  0  0  0  0  0  0  0  0  0
    3.7630    0.8931   -0.6247 H   0  0  0  0  0  0  0  0  0  0  0  0
    1.6752    1.3014   -0.3584 H   0  0  0  0  0  0  0  0  0  0  0  0
    1.5834    0.3819    1.1808 H   0  0  0  0  0  0  0  0  0  0  0  0
   -0.6572    1.5297   -1.4467 H   0  0  0  0  0  0  0  0  0  0  0  0
   -2.5154   -0.2283   -1.9452 H   0  0  0  0  0  0  0  0  0  0  0  0
   -4.0615    0.0235   -0.1206 H   0  0  0  0  0  0  0  0  0  0  0  0
   -2.7820    0.5882    1.0063 H   0  0  0  0  0  0  0  0  0  0  0  0
   -3.2958    1.5970   -0.4470 H   0  0  0  0  0  0  0  0  0  0  0  0
   -0.0668   -2.2379    0.2103 H   0  0  0  0  0  0  0  0  0  0  0  0
   -0.9334   -1.1670    1.3789 H   0  0  0  0  0  0  0  0  0  0  0  0
  1  2  1  0
  2  3  1  0
  3  4  1  0
  4  5  2  0
  5  6  1  0
  6  7  1  0
  6  8  1  0
  8  9  1  0
  9  4  1  0
  1 10  1  0
  1 11  1  0
  1 12  1  0
  3 13  1  0
  3 14  1  0
  5 15  1  0
  6 16  1  0
  7 17  1  0
  7 18  1  0
  7 19  1  0
  9 20  1  0
  9 21  1  0
M  END
