
     RDKit          3D

 25 24  0  0  0  0  0  0  0  0999 V2000
    3.3024    0.2495    0.2967 C   0  0  0  0  0  0  0  0  0  0  0  0
    2.6718   -0.9403    0.0545 O   0  0  0  0  0  0  0  0  0  0  0  0
    1.3384   -0.8423   -0.2713 C   0  0  0  0  0  0  0  0  0  0  0  0
    0.4735   -0.2114    0.7621 C   0  0  0  0  0  0  0  0  0  0  0  0
   -0.9756   -0.1290    0.3706 C   0  0  0  0  0  0  0  0  0  0  0  0
   -1.5971   -1.4667    0.1056 C   0  0  0  0  0  0  0  0  0  0  0  0
   -1.7399    0.5073    1.5187 C   0  0  0  0  0  0  0  0  0  0  0  0
   -1.1865    0.7432   -0.8543 C   0  0  0  0  0  0  0  0  0  0  0  0
   -0.7314    2.0295   -0.5777 O   0  0  0  0  0  0  0  0  0  0  0  0
    3.2892    0.9547   -0.5490 H   0  0  0  0  0  0  0  0  0  0  0  0
    2.8205    0.7443    1.1594 H   0  0  0  0  0  0  0  0  0  0  0  0
    4.3680    0.1264    0.5819 H   0  0  0  0  0  0  0  0  0  0  0  0
    0.9423   -1.8530   -0.5480 H   0  0  0  0  0  0  0  0  0  0  0  0
    1.2943   -0.2641   -1.2367 H   0  0  0  0  0  0  0  0  0  0  0  0
    0.8196    0.8513    0.9091 H   0  0  0  0  0  0  0  0  0  0  0  0
    0.5607   -0.7174    1.7267 H   0  0  0  0  0  0  0  0  0  0  0  0
   -1.2810   -2.2258    0.8477 H   0  0  0  0  0  0  0  0  0  0  0  0
   -1.4155   -1.8374   -0.9199 H   0  0  0  0  0  0  0  0  0  0  0  0
   -2.6990   -1.3603    0.2109 H   0  0  0  0  0  0  0  0  0  0  0  0
   -2.7892    0.6124    1.1774 H   0  0  0  0  0  0  0  0  0  0  0  0
   -1.2759    1.4708    1.7868 H   0  0  0  0  0  0  0  0  0  0  0  0
   -1.7416   -0.1631    2.3823 H   0  0  0  0  0  0  0  0  0  0  0  0
   -0.6959    0.3048   -1.7506 H   0  0  0  0  0  0  0  0  0  0  0  0
   -2.2847    0.7378   -1.0516 H   0  0  0  0  0  0  0  0  0  0  0  0
   -1.4676    2.6788   -0.5377 H   0  0  0  0  0  0  0  0  0  0  0  0
  1  2  1  0
  2  3  1  0
  3  4  1  0
  4  5  1  0
  5  6  1  0
  5  7  1  0
  5  8  1  0
  8  9  1  0
  1 10  1  0
  1 11  1  0
  1 12  1  0
  3 13  1  0
  3 14  1  0
  4 15  1  0
  4 16  1  0
  6 17  1  0
  6 18  1  0
  6 19  1  0
  7 20  1  0
  7 21  1  0
  7 22  1  0
  8 23  1  0
  8 24  1  0
  9 25  1  0
M  END
