
     RDKit          3D

 21 21  0  0  0  0  0  0  0  0999 V2000
    3.1089    0.2431    0.0437 C   0  0  0  0  0  0  0  0  0  0  0  0
    1.9515    0.1516   -0.6852 O   0  0  0  0  0  0  0  0  0  0  0  0
    0.9133   -0.4322    0.0056 C   0  0  0  0  0  0  0  0  0  0  0  0
   -0.3300   -0.5041   -0.8484 C   0  0  0  0  0  0  0  0  0  0  0  0
   -1.4624   -1.1517   -0.0666 C   0  0  0  0  0  0  0  0  0  0  0  0
   -1.8502   -0.0867    0.9206 C   0  0  0  0  0  0  0  0  0  0  0  0
   -1.6242    1.1903    0.1838 C   0  0  0  0  0  0  0  0  0  0  0  0
   -0.9121    0.8469   -1.0900 C   0  0  0  0  0  0  0  0  0  0  0  0
   -0.8665    1.5604   -2.0531 O   0  0  0  0  0  0  0  0  0  0  0  0
    3.0216    0.8394    0.9719 H   0  0  0  0  0  0  0  0  0  0  0  0
    3.9465    0.5657   -0.6075 H   0  0  0  0  0  0  0  0  0  0  0  0
    3.4013   -0.7913    0.3926 H   0  0  0  0  0  0  0  0  0  0  0  0
    0.6560    0.1986    0.8958 H   0  0  0  0  0  0  0  0  0  0  0  0
    1.2217   -1.4560    0.2962 H   0  0  0  0  0  0  0  0  0  0  0  0
   -0.1413   -1.0541   -1.7967 H   0  0  0  0  0  0  0  0  0  0  0  0
   -1.1449   -2.0756    0.4375 H   0  0  0  0  0  0  0  0  0  0  0  0
   -2.2875   -1.3248   -0.8109 H   0  0  0  0  0  0  0  0  0  0  0  0
   -1.1573   -0.1203    1.7790 H   0  0  0  0  0  0  0  0  0  0  0  0
   -2.8919   -0.2073    1.2904 H   0  0  0  0  0  0  0  0  0  0  0  0
   -2.5821    1.7036   -0.0062 H   0  0  0  0  0  0  0  0  0  0  0  0
   -0.9705    1.9043    0.7473 H   0  0  0  0  0  0  0  0  0  0  0  0
  1  2  1  0
  2  3  1  0
  3  4  1  0
  4  5  1  0
  5  6  1  0
  6  7  1  0
  7  8  1  0
  8  9  2  0
  8  4  1  0
  1 10  1  0
  1 11  1  0
  1 12  1  0
  3 13  1  0
  3 14  1  0
  4 15  1  0
  5 16  1  0
  5 17  1  0
  6 18  1  0
  6 19  1  0
  7 20  1  0
  7 21  1  0
M  END
