
     RDKit          3D

 16 16  0  0  0  0  0  0  0  0999 V2000
    2.6603    0.1468   -0.1025 C   0  0  0  0  0  0  0  0  0  0  0  0
    1.5066   -0.5822   -0.4353 O   0  0  0  0  0  0  0  0  0  0  0  0
    0.4401    0.2962   -0.3315 C   0  0  0  0  0  0  0  0  0  0  0  0
   -0.8142   -0.4561   -0.6826 C   0  0  0  0  0  0  0  0  0  0  0  0
   -2.0807    0.3076   -0.6334 C   0  0  0  0  0  0  0  0  0  0  0  0
   -1.8071   -0.7112    0.4146 C   0  0  0  0  0  0  0  0  0  0  0  0
    3.5721   -0.4762   -0.1574 H   0  0  0  0  0  0  0  0  0  0  0  0
    2.4998    0.5357    0.9230 H   0  0  0  0  0  0  0  0  0  0  0  0
    2.6873    0.9987   -0.8317 H   0  0  0  0  0  0  0  0  0  0  0  0
    0.3550    0.7219    0.6737 H   0  0  0  0  0  0  0  0  0  0  0  0
    0.5163    1.1485   -1.0385 H   0  0  0  0  0  0  0  0  0  0  0  0
   -0.6772   -1.3170   -1.3717 H   0  0  0  0  0  0  0  0  0  0  0  0
   -2.9213    0.0737   -1.3368 H   0  0  0  0  0  0  0  0  0  0  0  0
   -2.0126    1.3936   -0.4150 H   0  0  0  0  0  0  0  0  0  0  0  0
   -2.4037   -1.6520    0.3887 H   0  0  0  0  0  0  0  0  0  0  0  0
   -1.5207   -0.4280    1.4453 H   0  0  0  0  0  0  0  0  0  0  0  0
  1  2  1  0
  2  3  1  0
  3  4  1  0
  4  5  1  0
  5  6  1  0
  6  4  1  0
  1  7  1  0
  1  8  1  0
  1  9  1  0
  3 10  1  0
  3 11  1  0
  4 12  1  0
  5 13  1  0
  5 14  1  0
  6 15  1  0
  6 16  1  0
M  END
