
     RDKit          3D

 23 24  0  0  0  0  0  0  0  0999 V2000
    2.9442    0.5415    0.3239 C   0  0  0  0  0  0  0  0  0  0  0  0
    2.2012   -0.3892    1.0438 O   0  0  0  0  0  0  0  0  0  0  0  0
    1.2297   -0.9237    0.2282 C   0  0  0  0  0  0  0  0  0  0  0  0
    0.2607    0.0745   -0.3224 C   0  0  0  0  0  0  0  0  0  0  0  0
   -0.4879    0.8026    0.8132 C   0  0  0  0  0  0  0  0  0  0  0  0
   -1.8897    0.4292    0.4731 C   0  0  0  0  0  0  0  0  0  0  0  0
   -1.7959   -1.0652    0.1892 C   0  0  0  0  0  0  0  0  0  0  0  0
   -0.9168   -0.6115   -0.9579 C   0  0  0  0  0  0  0  0  0  0  0  0
   -1.8949    0.5735   -1.0556 C   0  0  0  0  0  0  0  0  0  0  0  0
    3.4299    0.0595   -0.5603 H   0  0  0  0  0  0  0  0  0  0  0  0
    3.7979    0.8697    0.9767 H   0  0  0  0  0  0  0  0  0  0  0  0
    2.2958    1.3847    0.0831 H   0  0  0  0  0  0  0  0  0  0  0  0
    0.6972   -1.7529    0.7393 H   0  0  0  0  0  0  0  0  0  0  0  0
    1.7014   -1.4141   -0.6743 H   0  0  0  0  0  0  0  0  0  0  0  0
    0.7190    0.7655   -1.0274 H   0  0  0  0  0  0  0  0  0  0  0  0
   -0.1379    0.4387    1.7955 H   0  0  0  0  0  0  0  0  0  0  0  0
   -0.3120    1.8952    0.7416 H   0  0  0  0  0  0  0  0  0  0  0  0
   -2.7176    0.7990    1.0101 H   0  0  0  0  0  0  0  0  0  0  0  0
   -1.3142   -1.5899    1.0096 H   0  0  0  0  0  0  0  0  0  0  0  0
   -2.7239   -1.5100   -0.2173 H   0  0  0  0  0  0  0  0  0  0  0  0
   -0.7995   -1.2243   -1.8085 H   0  0  0  0  0  0  0  0  0  0  0  0
   -2.8621    0.3254   -1.4881 H   0  0  0  0  0  0  0  0  0  0  0  0
   -1.4245    1.5220   -1.3155 H   0  0  0  0  0  0  0  0  0  0  0  0
  1  2  1  0
  2  3  1  0
  3  4  1  0
  4  5  1  0
  5  6  1  0
  6  7  1  0
  7  8  1  0
  8  9  1  0
  8  4  1  0
  9  6  1  0
  1 10  1  0
  1 11  1  0
  1 12  1  0
  3 13  1  0
  3 14  1  0
  4 15  1  0
  5 16  1  0
  5 17  1  0
  6 18  1  0
  7 19  1  0
  7 20  1  0
  8 21  1  0
  9 22  1  0
  9 23  1  0
M  END
