
     RDKit          3D

 20 19  0  0  0  0  0  0  0  0999 V2000
    2.8338    0.3590    0.9605 C   0  0  0  0  0  0  0  0  0  0  0  0
    2.5085    0.4438   -0.3658 O   0  0  0  0  0  0  0  0  0  0  0  0
    1.3591   -0.1765   -0.7615 C   0  0  0  0  0  0  0  0  0  0  0  0
    0.1734    0.4059   -0.0263 C   0  0  0  0  0  0  0  0  0  0  0  0
   -1.1225   -0.2734   -0.4586 C   0  0  0  0  0  0  0  0  0  0  0  0
   -1.0924   -1.6421   -0.1975 O   0  0  0  0  0  0  0  0  0  0  0  0
   -2.2853    0.4197    0.2129 C   0  0  0  0  0  0  0  0  0  0  0  0
   -3.4695   -0.1455   -0.2594 O   0  0  0  0  0  0  0  0  0  0  0  0
    2.1001    0.7831    1.6601 H   0  0  0  0  0  0  0  0  0  0  0  0
    3.0436   -0.6838    1.2900 H   0  0  0  0  0  0  0  0  0  0  0  0
    3.7719    0.9573    1.1032 H   0  0  0  0  0  0  0  0  0  0  0  0
    1.3444   -1.2681   -0.5687 H   0  0  0  0  0  0  0  0  0  0  0  0
    1.2065    0.0492   -1.8383 H   0  0  0  0  0  0  0  0  0  0  0  0
    0.2415    0.2110    1.0838 H   0  0  0  0  0  0  0  0  0  0  0  0
    0.0574    1.4847   -0.1544 H   0  0  0  0  0  0  0  0  0  0  0  0
   -1.1878   -0.1602   -1.5573 H   0  0  0  0  0  0  0  0  0  0  0  0
   -1.0370   -1.8656    0.7461 H   0  0  0  0  0  0  0  0  0  0  0  0
   -2.2771    1.4687   -0.1275 H   0  0  0  0  0  0  0  0  0  0  0  0
   -2.2704    0.3186    1.3005 H   0  0  0  0  0  0  0  0  0  0  0  0
   -3.8981   -0.6859    0.4395 H   0  0  0  0  0  0  0  0  0  0  0  0
  1  2  1  0
  2  3  1  0
  3  4  1  0
  4  5  1  0
  5  6  1  0
  5  7  1  0
  7  8  1  0
  1  9  1  0
  1 10  1  0
  1 11  1  0
  3 12  1  0
  3 13  1  0
  4 14  1  0
  4 15  1  0
  5 16  1  0
  6 17  1  0
  7 18  1  0
  7 19  1  0
  8 20  1  0
M  END
