
     RDKit          3D

 16 16  0  0  0  0  0  0  0  0999 V2000
    2.1048    0.2922   -0.1906 C   0  0  0  0  0  0  0  0  0  0  0  0
    1.4454   -0.5194    0.7007 O   0  0  0  0  0  0  0  0  0  0  0  0
    0.3012   -1.0304    0.0925 C   0  0  0  0  0  0  0  0  0  0  0  0
   -0.6599    0.0287   -0.3539 C   0  0  0  0  0  0  0  0  0  0  0  0
   -1.1125    0.8520    0.8530 C   0  0  0  0  0  0  0  0  0  0  0  0
   -2.0666   -0.1744    1.0427 O   0  0  0  0  0  0  0  0  0  0  0  0
   -2.0841   -0.3502   -0.3230 C   0  0  0  0  0  0  0  0  0  0  0  0
   -2.9439   -0.6851   -1.1515 O   0  0  0  0  0  0  0  0  0  0  0  0
    1.5107    1.1573   -0.5481 H   0  0  0  0  0  0  0  0  0  0  0  0
    2.4072   -0.3182   -1.0887 H   0  0  0  0  0  0  0  0  0  0  0  0
    3.0134    0.7104    0.3223 H   0  0  0  0  0  0  0  0  0  0  0  0
   -0.2274   -1.6247    0.8915 H   0  0  0  0  0  0  0  0  0  0  0  0
    0.5538   -1.7447   -0.7180 H   0  0  0  0  0  0  0  0  0  0  0  0
   -0.3412    0.6356   -1.2237 H   0  0  0  0  0  0  0  0  0  0  0  0
   -1.5384    1.8123    0.4765 H   0  0  0  0  0  0  0  0  0  0  0  0
   -0.3624    0.9585    1.6435 H   0  0  0  0  0  0  0  0  0  0  0  0
  1  2  1  0
  2  3  1  0
  3  4  1  0
  4  5  1  0
  5  6  1  0
  6  7  1  0
  7  8  2  0
  7  4  1  0
  1  9  1  0
  1 10  1  0
  1 11  1  0
  3 12  1  0
  3 13  1  0
  4 14  1  0
  5 15  1  0
  5 16  1  0
M  END
