
     RDKit          3D

 23 23  0  0  0  0  0  0  0  0999 V2000
    3.0731   -0.4823    0.7854 C   0  0  0  0  0  0  0  0  0  0  0  0
    1.7350   -0.8638    0.6923 O   0  0  0  0  0  0  0  0  0  0  0  0
    1.0629    0.1243   -0.0012 C   0  0  0  0  0  0  0  0  0  0  0  0
   -0.4074   -0.1833   -0.1648 C   0  0  0  0  0  0  0  0  0  0  0  0
   -0.6404   -1.4617   -0.9142 C   0  0  0  0  0  0  0  0  0  0  0  0
   -1.0187    0.9398   -0.9905 C   0  0  0  0  0  0  0  0  0  0  0  0
   -2.1595    1.3838   -0.0732 C   0  0  0  0  0  0  0  0  0  0  0  0
   -1.5675    1.2298    1.1821 O   0  0  0  0  0  0  0  0  0  0  0  0
   -1.1639   -0.1151    1.1148 C   0  0  0  0  0  0  0  0  0  0  0  0
    3.1539    0.4962    1.3307 H   0  0  0  0  0  0  0  0  0  0  0  0
    3.5381   -0.3222   -0.1995 H   0  0  0  0  0  0  0  0  0  0  0  0
    3.6621   -1.2041    1.4085 H   0  0  0  0  0  0  0  0  0  0  0  0
    1.1723    1.0621    0.5753 H   0  0  0  0  0  0  0  0  0  0  0  0
    1.5673    0.2803   -0.9724 H   0  0  0  0  0  0  0  0  0  0  0  0
    0.0431   -1.4638   -1.7936 H   0  0  0  0  0  0  0  0  0  0  0  0
   -1.6685   -1.4220   -1.3255 H   0  0  0  0  0  0  0  0  0  0  0  0
   -0.4708   -2.3053   -0.2288 H   0  0  0  0  0  0  0  0  0  0  0  0
   -0.3438    1.7846   -1.1276 H   0  0  0  0  0  0  0  0  0  0  0  0
   -1.4539    0.5739   -1.9398 H   0  0  0  0  0  0  0  0  0  0  0  0
   -2.4495    2.4257   -0.2704 H   0  0  0  0  0  0  0  0  0  0  0  0
   -3.0072    0.6696   -0.1107 H   0  0  0  0  0  0  0  0  0  0  0  0
   -0.5823   -0.4111    2.0095 H   0  0  0  0  0  0  0  0  0  0  0  0
   -2.0743   -0.7354    1.0138 H   0  0  0  0  0  0  0  0  0  0  0  0
  1  2  1  0
  2  3  1  0
  3  4  1  0
  4  5  1  0
  4  6  1  0
  6  7  1  0
  7  8  1  0
  8  9  1  0
  9  4  1  0
  1 10  1  0
  1 11  1  0
  1 12  1  0
  3 13  1  0
  3 14  1  0
  5 15  1  0
  5 16  1  0
  5 17  1  0
  6 18  1  0
  6 19  1  0
  7 20  1  0
  7 21  1  0
  9 22  1  0
  9 23  1  0
M  END
