
     RDKit          3D

 23 24  0  0  0  0  0  0  0  0999 V2000
    2.8959   -0.7286    0.4437 C   0  0  0  0  0  0  0  0  0  0  0  0
    2.7476    0.3370   -0.3818 O   0  0  0  0  0  0  0  0  0  0  0  0
    1.6246    0.4552   -1.1160 C   0  0  0  0  0  0  0  0  0  0  0  0
    0.3764    0.5740   -0.3623 C   0  0  0  0  0  0  0  0  0  0  0  0
   -0.1052   -0.5041    0.5563 C   0  0  0  0  0  0  0  0  0  0  0  0
   -1.4634   -0.1938    0.0638 C   0  0  0  0  0  0  0  0  0  0  0  0
   -2.2157    0.8587    0.9047 C   0  0  0  0  0  0  0  0  0  0  0  0
   -2.7385   -0.4750    0.5369 C   0  0  0  0  0  0  0  0  0  0  0  0
   -0.9083    0.3058   -1.1862 C   0  0  0  0  0  0  0  0  0  0  0  0
    2.1867   -0.8377    1.2711 H   0  0  0  0  0  0  0  0  0  0  0  0
    2.9282   -1.6837   -0.1757 H   0  0  0  0  0  0  0  0  0  0  0  0
    3.9198   -0.7121    0.9456 H   0  0  0  0  0  0  0  0  0  0  0  0
    1.7441    1.4143   -1.7368 H   0  0  0  0  0  0  0  0  0  0  0  0
    1.5900   -0.3894   -1.8747 H   0  0  0  0  0  0  0  0  0  0  0  0
    0.2511    1.5755    0.1296 H   0  0  0  0  0  0  0  0  0  0  0  0
    0.2139   -1.5455    0.2466 H   0  0  0  0  0  0  0  0  0  0  0  0
   -0.0431   -0.3346    1.6463 H   0  0  0  0  0  0  0  0  0  0  0  0
   -1.8235    1.0598    1.9264 H   0  0  0  0  0  0  0  0  0  0  0  0
   -2.5829    1.7578    0.3950 H   0  0  0  0  0  0  0  0  0  0  0  0
   -3.6135   -0.4865   -0.1286 H   0  0  0  0  0  0  0  0  0  0  0  0
   -2.8699   -1.1861    1.4005 H   0  0  0  0  0  0  0  0  0  0  0  0
   -1.3755    1.2311   -1.5639 H   0  0  0  0  0  0  0  0  0  0  0  0
   -0.7386   -0.4920   -1.9404 H   0  0  0  0  0  0  0  0  0  0  0  0
  1  2  1  0
  2  3  1  0
  3  4  1  0
  4  5  1  0
  5  6  1  0
  6  7  1  0
  7  8  1  0
  6  9  1  0
  9  4  1  0
  8  6  1  0
  1 10  1  0
  1 11  1  0
  1 12  1  0
  3 13  1  0
  3 14  1  0
  4 15  1  0
  5 16  1  0
  5 17  1  0
  7 18  1  0
  7 19  1  0
  8 20  1  0
  8 21  1  0
  9 22  1  0
  9 23  1  0
M  END
