
     RDKit          3D

 23 23  0  0  0  0  0  0  0  0999 V2000
   -2.5429    1.5029   -0.7789 C   0  0  0  0  0  0  0  0  0  0  0  0
   -1.3413    0.8655   -1.0837 O   0  0  0  0  0  0  0  0  0  0  0  0
   -1.0587    0.0190   -0.0222 C   0  0  0  0  0  0  0  0  0  0  0  0
    0.2351   -0.7492   -0.2172 C   0  0  0  0  0  0  0  0  0  0  0  0
    1.4438    0.1095   -0.3643 C   0  0  0  0  0  0  0  0  0  0  0  0
    1.6127    0.9541    0.8793 C   0  0  0  0  0  0  0  0  0  0  0  0
    2.7672    1.7377    0.6748 O   0  0  0  0  0  0  0  0  0  0  0  0
    0.1820   -1.9467   -1.1705 C   0  0  0  0  0  0  0  0  0  0  0  0
    0.3037   -2.1205    0.3385 C   0  0  0  0  0  0  0  0  0  0  0  0
   -2.8372    2.2088   -1.5988 H   0  0  0  0  0  0  0  0  0  0  0  0
   -2.5049    2.0337    0.1927 H   0  0  0  0  0  0  0  0  0  0  0  0
   -3.3046    0.6892   -0.6622 H   0  0  0  0  0  0  0  0  0  0  0  0
   -1.0497    0.6204    0.9010 H   0  0  0  0  0  0  0  0  0  0  0  0
   -1.8723   -0.7453    0.1190 H   0  0  0  0  0  0  0  0  0  0  0  0
    2.3794   -0.4610   -0.5262 H   0  0  0  0  0  0  0  0  0  0  0  0
    1.3185    0.7580   -1.2674 H   0  0  0  0  0  0  0  0  0  0  0  0
    0.7586    1.6239    1.0501 H   0  0  0  0  0  0  0  0  0  0  0  0
    1.8256    0.2700    1.7268 H   0  0  0  0  0  0  0  0  0  0  0  0
    2.7526    1.9973   -0.2769 H   0  0  0  0  0  0  0  0  0  0  0  0
   -0.7973   -2.1200   -1.6500 H   0  0  0  0  0  0  0  0  0  0  0  0
    1.1079   -2.2130   -1.7229 H   0  0  0  0  0  0  0  0  0  0  0  0
    1.2349   -2.5470    0.7496 H   0  0  0  0  0  0  0  0  0  0  0  0
   -0.6132   -2.4874    0.8415 H   0  0  0  0  0  0  0  0  0  0  0  0
  1  2  1  0
  2  3  1  0
  3  4  1  0
  4  5  1  0
  5  6  1  0
  6  7  1  0
  4  8  1  0
  8  9  1  0
  9  4  1  0
  1 10  1  0
  1 11  1  0
  1 12  1  0
  3 13  1  0
  3 14  1  0
  5 15  1  0
  5 16  1  0
  6 17  1  0
  6 18  1  0
  7 19  1  0
  8 20  1  0
  8 21  1  0
  9 22  1  0
  9 23  1  0
M  END
