
     RDKit          3D

 19 19  0  0  0  0  0  0  0  0999 V2000
    2.5327    0.4048    0.5304 C   0  0  0  0  0  0  0  0  0  0  0  0
    2.0934    0.3819   -0.7672 O   0  0  0  0  0  0  0  0  0  0  0  0
    1.0563   -0.4081   -1.1030 C   0  0  0  0  0  0  0  0  0  0  0  0
   -0.2352   -0.3769   -0.3588 C   0  0  0  0  0  0  0  0  0  0  0  0
   -0.2509   -0.7839    1.0706 C   0  0  0  0  0  0  0  0  0  0  0  0
   -1.0146   -1.6729    1.5576 O   0  0  0  0  0  0  0  0  0  0  0  0
   -1.2864   -1.1138   -1.1408 O   0  0  0  0  0  0  0  0  0  0  0  0
   -1.3567    0.3194   -0.8231 C   0  0  0  0  0  0  0  0  0  0  0  0
   -2.4400    0.6311    0.1651 C   0  0  0  0  0  0  0  0  0  0  0  0
    3.4870    1.0039    0.5822 H   0  0  0  0  0  0  0  0  0  0  0  0
    2.5727   -0.5073    1.0924 H   0  0  0  0  0  0  0  0  0  0  0  0
    1.8337    1.1474    1.1168 H   0  0  0  0  0  0  0  0  0  0  0  0
    0.8880   -0.2522   -2.2087 H   0  0  0  0  0  0  0  0  0  0  0  0
    1.4139   -1.5202   -1.1291 H   0  0  0  0  0  0  0  0  0  0  0  0
    0.3678   -0.3457    1.7971 H   0  0  0  0  0  0  0  0  0  0  0  0
   -1.3842    0.9313   -1.7524 H   0  0  0  0  0  0  0  0  0  0  0  0
   -2.6984    1.7213    0.2312 H   0  0  0  0  0  0  0  0  0  0  0  0
   -3.4058    0.0989   -0.0877 H   0  0  0  0  0  0  0  0  0  0  0  0
   -2.1732    0.3410    1.2272 H   0  0  0  0  0  0  0  0  0  0  0  0
  1  2  1  0
  2  3  1  0
  3  4  1  0
  4  5  1  0
  5  6  2  0
  4  7  1  0
  7  8  1  0
  8  9  1  0
  8  4  1  0
  1 10  1  0
  1 11  1  0
  1 12  1  0
  3 13  1  0
  3 14  1  0
  5 15  1  0
  8 16  1  0
  9 17  1  0
  9 18  1  0
  9 19  1  0
M  END
