
     RDKit          3D

 23 23  0  0  0  0  0  0  0  0999 V2000
    3.1278   -0.1570    0.7929 C   0  0  0  0  0  0  0  0  0  0  0  0
    2.5542   -1.1214    0.0559 O   0  0  0  0  0  0  0  0  0  0  0  0
    1.6643   -0.9030   -0.9099 C   0  0  0  0  0  0  0  0  0  0  0  0
    0.4018   -0.2071   -0.5960 C   0  0  0  0  0  0  0  0  0  0  0  0
   -0.8330   -0.7456   -0.7589 C   0  0  0  0  0  0  0  0  0  0  0  0
   -1.8761    0.2484   -0.3361 C   0  0  0  0  0  0  0  0  0  0  0  0
   -3.0738   -0.4108    0.2608 C   0  0  0  0  0  0  0  0  0  0  0  0
   -1.0516    1.0061    0.7244 C   0  0  0  0  0  0  0  0  0  0  0  0
    0.2179    1.1862   -0.1281 C   0  0  0  0  0  0  0  0  0  0  0  0
    3.8957   -0.6595    1.4894 H   0  0  0  0  0  0  0  0  0  0  0  0
    2.4480    0.3409    1.5285 H   0  0  0  0  0  0  0  0  0  0  0  0
    3.7022    0.5941    0.2316 H   0  0  0  0  0  0  0  0  0  0  0  0
    2.1920   -0.3721   -1.7743 H   0  0  0  0  0  0  0  0  0  0  0  0
    1.4257   -1.9228   -1.3675 H   0  0  0  0  0  0  0  0  0  0  0  0
   -0.9866   -1.7429   -1.1389 H   0  0  0  0  0  0  0  0  0  0  0  0
   -2.1295    0.9590   -1.1287 H   0  0  0  0  0  0  0  0  0  0  0  0
   -2.9402   -0.7807    1.2742 H   0  0  0  0  0  0  0  0  0  0  0  0
   -3.9016    0.3576    0.2613 H   0  0  0  0  0  0  0  0  0  0  0  0
   -3.3709   -1.2748   -0.3893 H   0  0  0  0  0  0  0  0  0  0  0  0
   -0.8315    0.3554    1.5694 H   0  0  0  0  0  0  0  0  0  0  0  0
   -1.5094    1.9682    0.9601 H   0  0  0  0  0  0  0  0  0  0  0  0
    1.0325    1.6560    0.3818 H   0  0  0  0  0  0  0  0  0  0  0  0
   -0.1582    1.8144   -1.0027 H   0  0  0  0  0  0  0  0  0  0  0  0
  1  2  1  0
  2  3  1  0
  3  4  1  0
  4  5  2  0
  5  6  1  0
  6  7  1  0
  6  8  1  0
  8  9  1  0
  9  4  1  0
  1 10  1  0
  1 11  1  0
  1 12  1  0
  3 13  1  0
  3 14  1  0
  5 15  1  0
  6 16  1  0
  7 17  1  0
  7 18  1  0
  7 19  1  0
  8 20  1  0
  8 21  1  0
  9 22  1  0
  9 23  1  0
M  END
