
     RDKit          3D

 21 22  0  0  0  0  0  0  0  0999 V2000
    2.5054    0.6005   -0.8268 C   0  0  0  0  0  0  0  0  0  0  0  0
    2.0047   -0.6334   -0.8669 O   0  0  0  0  0  0  0  0  0  0  0  0
    1.4177   -1.2890    0.1210 C   0  0  0  0  0  0  0  0  0  0  0  0
    0.1245   -0.8795    0.7314 C   0  0  0  0  0  0  0  0  0  0  0  0
   -0.9971   -0.8261   -0.1404 C   0  0  0  0  0  0  0  0  0  0  0  0
   -1.5545    0.0119   -1.1558 C   0  0  0  0  0  0  0  0  0  0  0  0
   -2.1607    1.0332   -0.5506 C   0  0  0  0  0  0  0  0  0  0  0  0
   -1.9477    0.8000    0.9505 C   0  0  0  0  0  0  0  0  0  0  0  0
   -0.5077    0.3481    0.7660 C   0  0  0  0  0  0  0  0  0  0  0  0
    3.2995    0.7454   -0.0186 H   0  0  0  0  0  0  0  0  0  0  0  0
    3.1824    0.6791   -1.7617 H   0  0  0  0  0  0  0  0  0  0  0  0
    1.8381    1.4385   -0.7961 H   0  0  0  0  0  0  0  0  0  0  0  0
    1.3327   -2.3957   -0.2012 H   0  0  0  0  0  0  0  0  0  0  0  0
    2.2160   -1.4048    0.9441 H   0  0  0  0  0  0  0  0  0  0  0  0
   -0.0176   -1.4963    1.7126 H   0  0  0  0  0  0  0  0  0  0  0  0
   -1.8662   -1.4552    0.2621 H   0  0  0  0  0  0  0  0  0  0  0  0
   -1.5426   -0.0771   -2.2390 H   0  0  0  0  0  0  0  0  0  0  0  0
   -2.7032    1.8795   -0.9340 H   0  0  0  0  0  0  0  0  0  0  0  0
   -2.5867    0.0003    1.3153 H   0  0  0  0  0  0  0  0  0  0  0  0
   -2.0408    1.7119    1.5207 H   0  0  0  0  0  0  0  0  0  0  0  0
    0.0038    1.2088    0.3097 H   0  0  0  0  0  0  0  0  0  0  0  0
  1  2  1  0
  2  3  1  0
  3  4  1  0
  4  5  1  0
  5  6  1  0
  6  7  2  0
  7  8  1  0
  8  9  1  0
  9  4  1  0
  9  5  1  0
  1 10  1  0
  1 11  1  0
  1 12  1  0
  3 13  1  0
  3 14  1  0
  4 15  1  0
  5 16  1  0
  6 17  1  0
  7 18  1  0
  8 19  1  0
  8 20  1  0
  9 21  1  0
M  END
