
     RDKit          3D

 21 22  0  0  0  0  0  0  0  0999 V2000
    2.6814    0.9861   -0.2332 C   0  0  0  0  0  0  0  0  0  0  0  0
    2.2741    0.0820    0.7375 O   0  0  0  0  0  0  0  0  0  0  0  0
    1.4563   -0.9050    0.2346 C   0  0  0  0  0  0  0  0  0  0  0  0
    0.2195   -0.3071   -0.3637 C   0  0  0  0  0  0  0  0  0  0  0  0
   -0.6407    0.4973    0.5927 C   0  0  0  0  0  0  0  0  0  0  0  0
   -1.8086   -0.0783   -0.1321 C   0  0  0  0  0  0  0  0  0  0  0  0
   -2.7589    0.5264   -0.8983 C   0  0  0  0  0  0  0  0  0  0  0  0
   -3.0507   -0.1689    0.3898 O   0  0  0  0  0  0  0  0  0  0  0  0
   -0.9632   -1.2672   -0.4578 C   0  0  0  0  0  0  0  0  0  0  0  0
    3.3381    1.7360    0.2963 H   0  0  0  0  0  0  0  0  0  0  0  0
    3.2569    0.5327   -1.0490 H   0  0  0  0  0  0  0  0  0  0  0  0
    1.8194    1.5828   -0.6038 H   0  0  0  0  0  0  0  0  0  0  0  0
    1.9610   -1.4943   -0.5373 H   0  0  0  0  0  0  0  0  0  0  0  0
    1.1581   -1.5580    1.0775 H   0  0  0  0  0  0  0  0  0  0  0  0
    0.3362    0.2336   -1.3061 H   0  0  0  0  0  0  0  0  0  0  0  0
   -0.5292    0.0845    1.6253 H   0  0  0  0  0  0  0  0  0  0  0  0
   -0.4912    1.5858    0.5378 H   0  0  0  0  0  0  0  0  0  0  0  0
   -3.2734    0.0425   -1.7566 H   0  0  0  0  0  0  0  0  0  0  0  0
   -3.0098    1.6192   -0.8325 H   0  0  0  0  0  0  0  0  0  0  0  0
   -0.8673   -2.0065    0.3863 H   0  0  0  0  0  0  0  0  0  0  0  0
   -1.1078   -1.7236   -1.4472 H   0  0  0  0  0  0  0  0  0  0  0  0
  1  2  1  0
  2  3  1  0
  3  4  1  0
  4  5  1  0
  5  6  1  0
  6  7  1  0
  7  8  1  0
  6  9  1  0
  9  4  1  0
  8  6  1  0
  1 10  1  0
  1 11  1  0
  1 12  1  0
  3 13  1  0
  3 14  1  0
  4 15  1  0
  5 16  1  0
  5 17  1  0
  7 18  1  0
  7 19  1  0
  9 20  1  0
  9 21  1  0
M  END
