
     RDKit          3D

 19 18  0  0  0  0  0  0  0  0999 V2000
    2.6705   -0.7850    0.1512 C   0  0  0  0  0  0  0  0  0  0  0  0
    1.3214   -0.6366    0.3585 O   0  0  0  0  0  0  0  0  0  0  0  0
    0.7123    0.1890   -0.5836 C   0  0  0  0  0  0  0  0  0  0  0  0
   -0.7639    0.3214   -0.3159 C   0  0  0  0  0  0  0  0  0  0  0  0
   -1.5042   -0.9706   -0.5132 C   0  0  0  0  0  0  0  0  0  0  0  0
   -1.1270   -1.9548    0.3758 O   0  0  0  0  0  0  0  0  0  0  0  0
   -0.9523    0.8737    0.9575 O   0  0  0  0  0  0  0  0  0  0  0  0
   -1.5475    2.1180    1.0937 C   0  0  0  0  0  0  0  0  0  0  0  0
   -1.9177    2.7484    0.0649 O   0  0  0  0  0  0  0  0  0  0  0  0
    3.2332    0.1738    0.1903 H   0  0  0  0  0  0  0  0  0  0  0  0
    3.0483   -1.5114    0.8992 H   0  0  0  0  0  0  0  0  0  0  0  0
    2.8431   -1.2729   -0.8517 H   0  0  0  0  0  0  0  0  0  0  0  0
    1.1839    1.1887   -0.4902 H   0  0  0  0  0  0  0  0  0  0  0  0
    0.9347   -0.1772   -1.5955 H   0  0  0  0  0  0  0  0  0  0  0  0
   -1.1565    1.0289   -1.1033 H   0  0  0  0  0  0  0  0  0  0  0  0
   -1.2463   -1.3396   -1.5387 H   0  0  0  0  0  0  0  0  0  0  0  0
   -2.5910   -0.7345   -0.4586 H   0  0  0  0  0  0  0  0  0  0  0  0
   -1.4386   -1.8213    1.2954 H   0  0  0  0  0  0  0  0  0  0  0  0
   -1.7023    2.5620    2.0641 H   0  0  0  0  0  0  0  0  0  0  0  0
  1  2  1  0
  2  3  1  0
  3  4  1  0
  4  5  1  0
  5  6  1  0
  4  7  1  0
  7  8  1  0
  8  9  2  0
  1 10  1  0
  1 11  1  0
  1 12  1  0
  3 13  1  0
  3 14  1  0
  4 15  1  0
  5 16  1  0
  5 17  1  0
  6 18  1  0
  8 19  1  0
M  END
