
     RDKit          3D

 16 16  0  0  0  0  0  0  0  0999 V2000
   -0.3768    2.3595   -0.4488 C   0  0  0  0  0  0  0  0  0  0  0  0
   -0.0650    1.9485   -1.7470 O   0  0  0  0  0  0  0  0  0  0  0  0
   -0.6431    0.7109   -2.0372 C   0  0  0  0  0  0  0  0  0  0  0  0
   -0.1792   -0.2630   -1.1052 C   0  0  0  0  0  0  0  0  0  0  0  0
    0.2060   -1.1203   -0.2855 C   0  0  0  0  0  0  0  0  0  0  0  0
    0.6763   -2.1245    0.6572 C   0  0  0  0  0  0  0  0  0  0  0  0
    0.6379   -1.7954    2.1343 C   0  0  0  0  0  0  0  0  0  0  0  0
    1.8134   -1.7833    1.3902 O   0  0  0  0  0  0  0  0  0  0  0  0
   -0.0030    1.6301    0.3093 H   0  0  0  0  0  0  0  0  0  0  0  0
    0.1640    3.2972   -0.2365 H   0  0  0  0  0  0  0  0  0  0  0  0
   -1.4439    2.4979   -0.3021 H   0  0  0  0  0  0  0  0  0  0  0  0
   -1.7621    0.7893   -2.0939 H   0  0  0  0  0  0  0  0  0  0  0  0
   -0.3336    0.4808   -3.0923 H   0  0  0  0  0  0  0  0  0  0  0  0
    0.6405   -3.1934    0.3480 H   0  0  0  0  0  0  0  0  0  0  0  0
    0.3431   -2.6561    2.7598 H   0  0  0  0  0  0  0  0  0  0  0  0
    0.3255   -0.7782    2.4284 H   0  0  0  0  0  0  0  0  0  0  0  0
  1  2  1  0
  2  3  1  0
  3  4  1  0
  4  5  3  0
  5  6  1  0
  6  7  1  0
  7  8  1  0
  8  6  1  0
  1  9  1  0
  1 10  1  0
  1 11  1  0
  3 12  1  0
  3 13  1  0
  6 14  1  0
  7 15  1  0
  7 16  1  0
M  END
