
     RDKit          3D

 21 21  0  0  0  0  0  0  0  0999 V2000
    2.9410   -0.3245    0.3797 C   0  0  0  0  0  0  0  0  0  0  0  0
    1.5816   -0.4528    0.5937 O   0  0  0  0  0  0  0  0  0  0  0  0
    0.9156    0.0311   -0.5407 C   0  0  0  0  0  0  0  0  0  0  0  0
   -0.6008   -0.0988   -0.3324 C   0  0  0  0  0  0  0  0  0  0  0  0
   -1.1294   -1.4878   -0.1030 C   0  0  0  0  0  0  0  0  0  0  0  0
   -2.5177   -1.3797    0.0612 O   0  0  0  0  0  0  0  0  0  0  0  0
   -1.2207    0.9387    0.6006 C   0  0  0  0  0  0  0  0  0  0  0  0
   -1.4355    0.9603   -0.9098 C   0  0  0  0  0  0  0  0  0  0  0  0
   -0.8185    2.0355   -1.5393 O   0  0  0  0  0  0  0  0  0  0  0  0
    3.4813   -0.7040    1.2705 H   0  0  0  0  0  0  0  0  0  0  0  0
    3.1467    0.7324    0.1538 H   0  0  0  0  0  0  0  0  0  0  0  0
    3.3016   -0.9274   -0.4865 H   0  0  0  0  0  0  0  0  0  0  0  0
    1.2158   -0.5445   -1.4331 H   0  0  0  0  0  0  0  0  0  0  0  0
    1.1674    1.1084   -0.6317 H   0  0  0  0  0  0  0  0  0  0  0  0
   -0.6714   -1.8565    0.8454 H   0  0  0  0  0  0  0  0  0  0  0  0
   -0.8995   -2.1842   -0.9316 H   0  0  0  0  0  0  0  0  0  0  0  0
   -2.9439   -1.5492   -0.8232 H   0  0  0  0  0  0  0  0  0  0  0  0
   -2.1341    0.6607    1.1661 H   0  0  0  0  0  0  0  0  0  0  0  0
   -0.5253    1.6422    1.0580 H   0  0  0  0  0  0  0  0  0  0  0  0
   -2.4409    0.7204   -1.3043 H   0  0  0  0  0  0  0  0  0  0  0  0
   -0.4133    2.6798   -0.9089 H   0  0  0  0  0  0  0  0  0  0  0  0
  1  2  1  0
  2  3  1  0
  3  4  1  0
  4  5  1  0
  5  6  1  0
  4  7  1  0
  7  8  1  0
  8  9  1  0
  8  4  1  0
  1 10  1  0
  1 11  1  0
  1 12  1  0
  3 13  1  0
  3 14  1  0
  5 15  1  0
  5 16  1  0
  6 17  1  0
  7 18  1  0
  7 19  1  0
  8 20  1  0
  9 21  1  0
M  END
