
     RDKit          3D

 19 18  0  0  0  0  0  0  0  0999 V2000
    2.6985   -0.8468    0.3234 C   0  0  0  0  0  0  0  0  0  0  0  0
    1.3669   -1.0403   -0.0367 O   0  0  0  0  0  0  0  0  0  0  0  0
    0.6146    0.1195    0.1321 C   0  0  0  0  0  0  0  0  0  0  0  0
   -0.8350   -0.1011   -0.2629 C   0  0  0  0  0  0  0  0  0  0  0  0
   -1.4821   -1.1813    0.5660 C   0  0  0  0  0  0  0  0  0  0  0  0
   -1.6059    1.1809    0.0378 C   0  0  0  0  0  0  0  0  0  0  0  0
   -1.0622    2.2165   -0.6916 O   0  0  0  0  0  0  0  0  0  0  0  0
    3.1767   -0.0478   -0.2939 H   0  0  0  0  0  0  0  0  0  0  0  0
    3.2652   -1.7759    0.1364 H   0  0  0  0  0  0  0  0  0  0  0  0
    2.8202   -0.5308    1.3779 H   0  0  0  0  0  0  0  0  0  0  0  0
    0.6947    0.4919    1.1620 H   0  0  0  0  0  0  0  0  0  0  0  0
    1.0341    0.8881   -0.5440 H   0  0  0  0  0  0  0  0  0  0  0  0
   -0.9368   -0.2642   -1.3528 H   0  0  0  0  0  0  0  0  0  0  0  0
   -2.0371   -1.8789   -0.1196 H   0  0  0  0  0  0  0  0  0  0  0  0
   -0.7492   -1.7854    1.1421 H   0  0  0  0  0  0  0  0  0  0  0  0
   -2.2072   -0.7876    1.3088 H   0  0  0  0  0  0  0  0  0  0  0  0
   -2.6814    1.0258   -0.1343 H   0  0  0  0  0  0  0  0  0  0  0  0
   -1.4317    1.4082    1.1211 H   0  0  0  0  0  0  0  0  0  0  0  0
   -0.6424    2.9092   -0.1136 H   0  0  0  0  0  0  0  0  0  0  0  0
  1  2  1  0
  2  3  1  0
  3  4  1  0
  4  5  1  0
  4  6  1  0
  6  7  1  0
  1  8  1  0
  1  9  1  0
  1 10  1  0
  3 11  1  0
  3 12  1  0
  4 13  1  0
  5 14  1  0
  5 15  1  0
  5 16  1  0
  6 17  1  0
  6 18  1  0
  7 19  1  0
M  END
