
     RDKit          3D

 19 19  0  0  0  0  0  0  0  0999 V2000
   -2.4249    1.3223   -0.5606 C   0  0  0  0  0  0  0  0  0  0  0  0
   -1.0811    1.1070   -0.3772 O   0  0  0  0  0  0  0  0  0  0  0  0
   -0.8085   -0.2119   -0.2371 C   0  0  0  0  0  0  0  0  0  0  0  0
    0.5999   -0.6269   -0.0295 C   0  0  0  0  0  0  0  0  0  0  0  0
    0.7043   -2.1544    0.1495 C   0  0  0  0  0  0  0  0  0  0  0  0
    1.5022   -0.2513   -1.1099 O   0  0  0  0  0  0  0  0  0  0  0  0
    1.7317    0.1311    0.3300 C   0  0  0  0  0  0  0  0  0  0  0  0
    1.9336    1.5729    0.3441 C   0  0  0  0  0  0  0  0  0  0  0  0
    1.1516    2.4250   -0.0428 O   0  0  0  0  0  0  0  0  0  0  0  0
   -2.9832    0.9348    0.3228 H   0  0  0  0  0  0  0  0  0  0  0  0
   -2.8022    0.7970   -1.4434 H   0  0  0  0  0  0  0  0  0  0  0  0
   -2.6457    2.4190   -0.6817 H   0  0  0  0  0  0  0  0  0  0  0  0
   -1.2247   -0.8037   -1.1036 H   0  0  0  0  0  0  0  0  0  0  0  0
   -1.3957   -0.5920    0.6474 H   0  0  0  0  0  0  0  0  0  0  0  0
    0.8882   -2.6594   -0.8067 H   0  0  0  0  0  0  0  0  0  0  0  0
    1.5725   -2.3854    0.8160 H   0  0  0  0  0  0  0  0  0  0  0  0
   -0.2006   -2.5700    0.5909 H   0  0  0  0  0  0  0  0  0  0  0  0
    2.6206   -0.4350    0.7449 H   0  0  0  0  0  0  0  0  0  0  0  0
    2.8618    1.9809    0.7302 H   0  0  0  0  0  0  0  0  0  0  0  0
  1  2  1  0
  2  3  1  0
  3  4  1  0
  4  5  1  0
  4  6  1  0
  6  7  1  0
  7  8  1  0
  8  9  2  0
  7  4  1  0
  1 10  1  0
  1 11  1  0
  1 12  1  0
  3 13  1  0
  3 14  1  0
  5 15  1  0
  5 16  1  0
  5 17  1  0
  7 18  1  0
  8 19  1  0
M  END
