
     RDKit          3D

 20 21  0  0  0  0  0  0  0  0999 V2000
    3.0430   -0.2522    0.1004 C   0  0  0  0  0  0  0  0  0  0  0  0
    1.7314   -0.2113    0.5664 O   0  0  0  0  0  0  0  0  0  0  0  0
    0.8486   -0.0319   -0.5084 C   0  0  0  0  0  0  0  0  0  0  0  0
   -0.4620    0.0154   -0.1009 C   0  0  0  0  0  0  0  0  0  0  0  0
   -1.0832    0.9994    0.8484 C   0  0  0  0  0  0  0  0  0  0  0  0
   -2.2368    0.1417    0.4028 C   0  0  0  0  0  0  0  0  0  0  0  0
   -1.2895   -1.0224    0.5410 C   0  0  0  0  0  0  0  0  0  0  0  0
   -1.6559    0.2916   -0.9842 C   0  0  0  0  0  0  0  0  0  0  0  0
    3.2043   -1.0858   -0.6189 H   0  0  0  0  0  0  0  0  0  0  0  0
    3.7241   -0.4258    0.9544 H   0  0  0  0  0  0  0  0  0  0  0  0
    3.3477    0.6971   -0.3726 H   0  0  0  0  0  0  0  0  0  0  0  0
    1.1801    0.9388   -0.9822 H   0  0  0  0  0  0  0  0  0  0  0  0
    1.0522   -0.7991   -1.2710 H   0  0  0  0  0  0  0  0  0  0  0  0
   -1.1211    2.0106    0.4188 H   0  0  0  0  0  0  0  0  0  0  0  0
   -0.8237    0.9121    1.9049 H   0  0  0  0  0  0  0  0  0  0  0  0
   -3.1915    0.1961    0.6734 H   0  0  0  0  0  0  0  0  0  0  0  0
   -1.5961   -1.8666   -0.1090 H   0  0  0  0  0  0  0  0  0  0  0  0
   -1.0370   -1.3217    1.5756 H   0  0  0  0  0  0  0  0  0  0  0  0
   -1.6802    1.3244   -1.3739 H   0  0  0  0  0  0  0  0  0  0  0  0
   -1.9545   -0.5104   -1.6650 H   0  0  0  0  0  0  0  0  0  0  0  0
  1  2  1  0
  2  3  1  0
  3  4  1  0
  4  5  1  0
  5  6  1  0
  6  7  1  0
  6  8  1  0
  7  4  1  0
  8  4  1  0
  1  9  1  0
  1 10  1  0
  1 11  1  0
  3 12  1  0
  3 13  1  0
  5 14  1  0
  5 15  1  0
  6 16  1  0
  7 17  1  0
  7 18  1  0
  8 19  1  0
  8 20  1  0
M  END
