
     RDKit          3D

 23 23  0  0  0  0  0  0  0  0999 V2000
    2.8633   -0.1715   -0.7650 C   0  0  0  0  0  0  0  0  0  0  0  0
    2.2959   -0.0124    0.4786 O   0  0  0  0  0  0  0  0  0  0  0  0
    1.0832   -0.6524    0.6209 C   0  0  0  0  0  0  0  0  0  0  0  0
    0.0556   -0.1566   -0.3623 C   0  0  0  0  0  0  0  0  0  0  0  0
   -0.2163    1.3150   -0.2076 C   0  0  0  0  0  0  0  0  0  0  0  0
   -1.5259    1.4519    0.5110 C   0  0  0  0  0  0  0  0  0  0  0  0
   -1.8375    0.0515    0.9957 C   0  0  0  0  0  0  0  0  0  0  0  0
   -1.2726   -0.7822   -0.1348 C   0  0  0  0  0  0  0  0  0  0  0  0
   -1.2266   -2.1287    0.1633 O   0  0  0  0  0  0  0  0  0  0  0  0
    3.0521   -1.2521   -0.9969 H   0  0  0  0  0  0  0  0  0  0  0  0
    2.2921    0.2440   -1.5968 H   0  0  0  0  0  0  0  0  0  0  0  0
    3.8668    0.3068   -0.7589 H   0  0  0  0  0  0  0  0  0  0  0  0
    1.1752   -1.7485    0.5005 H   0  0  0  0  0  0  0  0  0  0  0  0
    0.6936   -0.4479    1.6385 H   0  0  0  0  0  0  0  0  0  0  0  0
    0.3629   -0.3916   -1.4159 H   0  0  0  0  0  0  0  0  0  0  0  0
   -0.3540    1.7762   -1.2200 H   0  0  0  0  0  0  0  0  0  0  0  0
    0.5737    1.8646    0.3173 H   0  0  0  0  0  0  0  0  0  0  0  0
   -2.3465    1.8370   -0.1166 H   0  0  0  0  0  0  0  0  0  0  0  0
   -1.4703    2.0978    1.4081 H   0  0  0  0  0  0  0  0  0  0  0  0
   -1.3075   -0.1978    1.9421 H   0  0  0  0  0  0  0  0  0  0  0  0
   -2.9302   -0.1149    1.1063 H   0  0  0  0  0  0  0  0  0  0  0  0
   -1.9091   -0.5872   -1.0198 H   0  0  0  0  0  0  0  0  0  0  0  0
   -1.9180   -2.3007    0.8539 H   0  0  0  0  0  0  0  0  0  0  0  0
  1  2  1  0
  2  3  1  0
  3  4  1  0
  4  5  1  0
  5  6  1  0
  6  7  1  0
  7  8  1  0
  8  9  1  0
  8  4  1  0
  1 10  1  0
  1 11  1  0
  1 12  1  0
  3 13  1  0
  3 14  1  0
  4 15  1  0
  5 16  1  0
  5 17  1  0
  6 18  1  0
  6 19  1  0
  7 20  1  0
  7 21  1  0
  8 22  1  0
  9 23  1  0
M  END
