
     RDKit          3D

 27 26  0  0  0  0  0  0  0  0999 V2000
    2.9793   -1.5202    0.5537 C   0  0  0  0  0  0  0  0  0  0  0  0
    2.2611   -0.3715    0.9281 O   0  0  0  0  0  0  0  0  0  0  0  0
    1.1129   -0.3482    0.0980 C   0  0  0  0  0  0  0  0  0  0  0  0
    0.3393    0.8710    0.4871 C   0  0  0  0  0  0  0  0  0  0  0  0
    1.2851    2.0601    0.2342 C   0  0  0  0  0  0  0  0  0  0  0  0
   -0.8830    1.1469   -0.3023 C   0  0  0  0  0  0  0  0  0  0  0  0
   -1.9488    0.1139   -0.2983 C   0  0  0  0  0  0  0  0  0  0  0  0
   -2.4898   -0.1762    1.0930 C   0  0  0  0  0  0  0  0  0  0  0  0
   -1.6274   -1.1667   -0.9755 C   0  0  0  0  0  0  0  0  0  0  0  0
    2.3954   -2.4428    0.6930 H   0  0  0  0  0  0  0  0  0  0  0  0
    3.2301   -1.4211   -0.5431 H   0  0  0  0  0  0  0  0  0  0  0  0
    3.9438   -1.5052    1.0774 H   0  0  0  0  0  0  0  0  0  0  0  0
    1.4834   -0.2988   -0.9260 H   0  0  0  0  0  0  0  0  0  0  0  0
    0.5933   -1.3029    0.3515 H   0  0  0  0  0  0  0  0  0  0  0  0
    0.1526    0.8929    1.5786 H   0  0  0  0  0  0  0  0  0  0  0  0
    0.7310    2.9955    0.1277 H   0  0  0  0  0  0  0  0  0  0  0  0
    1.7544    1.8323   -0.7635 H   0  0  0  0  0  0  0  0  0  0  0  0
    2.0981    2.0815    0.9621 H   0  0  0  0  0  0  0  0  0  0  0  0
   -0.6233    1.3579   -1.3644 H   0  0  0  0  0  0  0  0  0  0  0  0
   -1.3318    2.0930    0.0922 H   0  0  0  0  0  0  0  0  0  0  0  0
   -2.8266    0.5847   -0.8401 H   0  0  0  0  0  0  0  0  0  0  0  0
   -1.7504    0.2102    1.8165 H   0  0  0  0  0  0  0  0  0  0  0  0
   -2.5510   -1.2800    1.2672 H   0  0  0  0  0  0  0  0  0  0  0  0
   -3.4902    0.2227    1.2720 H   0  0  0  0  0  0  0  0  0  0  0  0
   -2.4807   -1.4600   -1.6564 H   0  0  0  0  0  0  0  0  0  0  0  0
   -1.6130   -2.0155   -0.2298 H   0  0  0  0  0  0  0  0  0  0  0  0
   -0.7437   -1.1536   -1.6275 H   0  0  0  0  0  0  0  0  0  0  0  0
  1  2  1  0
  2  3  1  0
  3  4  1  0
  4  5  1  0
  4  6  1  0
  6  7  1  0
  7  8  1  0
  7  9  1  0
  1 10  1  0
  1 11  1  0
  1 12  1  0
  3 13  1  0
  3 14  1  0
  4 15  1  0
  5 16  1  0
  5 17  1  0
  5 18  1  0
  6 19  1  0
  6 20  1  0
  7 21  1  0
  8 22  1  0
  8 23  1  0
  8 24  1  0
  9 25  1  0
  9 26  1  0
  9 27  1  0
M  END
