
     RDKit          3D

 23 23  0  0  0  0  0  0  0  0999 V2000
    3.4757    0.7604    0.6711 C   0  0  0  0  0  0  0  0  0  0  0  0
    2.2073    1.1669    0.1925 O   0  0  0  0  0  0  0  0  0  0  0  0
    1.4361    0.0097    0.1958 C   0  0  0  0  0  0  0  0  0  0  0  0
    0.0317    0.2420   -0.2884 C   0  0  0  0  0  0  0  0  0  0  0  0
   -0.8111   -1.0361   -0.2820 C   0  0  0  0  0  0  0  0  0  0  0  0
   -1.5703   -1.2583   -1.5624 C   0  0  0  0  0  0  0  0  0  0  0  0
   -1.1256    0.0877    0.6259 C   0  0  0  0  0  0  0  0  0  0  0  0
   -2.4139    0.7983    0.3854 C   0  0  0  0  0  0  0  0  0  0  0  0
   -0.7831   -0.0568    1.9794 O   0  0  0  0  0  0  0  0  0  0  0  0
    4.1864    1.5824    0.7192 H   0  0  0  0  0  0  0  0  0  0  0  0
    3.2915    0.3118    1.6656 H   0  0  0  0  0  0  0  0  0  0  0  0
    3.8101   -0.0762    0.0067 H   0  0  0  0  0  0  0  0  0  0  0  0
    1.4384   -0.3664    1.2470 H   0  0  0  0  0  0  0  0  0  0  0  0
    1.9327   -0.7069   -0.5042 H   0  0  0  0  0  0  0  0  0  0  0  0
   -0.0473    0.9203   -1.1556 H   0  0  0  0  0  0  0  0  0  0  0  0
   -0.4151   -1.9398    0.1774 H   0  0  0  0  0  0  0  0  0  0  0  0
   -2.3501   -2.0176   -1.3746 H   0  0  0  0  0  0  0  0  0  0  0  0
   -1.9324   -0.3339   -2.0217 H   0  0  0  0  0  0  0  0  0  0  0  0
   -0.8314   -1.6966   -2.2966 H   0  0  0  0  0  0  0  0  0  0  0  0
   -3.0029    0.8917    1.3142 H   0  0  0  0  0  0  0  0  0  0  0  0
   -3.0731    0.2345   -0.3339 H   0  0  0  0  0  0  0  0  0  0  0  0
   -2.3034    1.8080   -0.0609 H   0  0  0  0  0  0  0  0  0  0  0  0
   -1.1500    0.6751    2.5292 H   0  0  0  0  0  0  0  0  0  0  0  0
  1  2  1  0
  2  3  1  0
  3  4  1  0
  4  5  1  0
  5  6  1  0
  5  7  1  0
  7  8  1  0
  7  9  1  0
  7  4  1  0
  1 10  1  0
  1 11  1  0
  1 12  1  0
  3 13  1  0
  3 14  1  0
  4 15  1  0
  5 16  1  0
  6 17  1  0
  6 18  1  0
  6 19  1  0
  8 20  1  0
  8 21  1  0
  8 22  1  0
  9 23  1  0
M  END
