
     RDKit          3D

 21 20  0  0  0  0  0  0  0  0999 V2000
   -2.3042   -1.7728   -0.8789 C   0  0  0  0  0  0  0  0  0  0  0  0
   -2.0662   -0.5039   -0.3847 O   0  0  0  0  0  0  0  0  0  0  0  0
   -1.1331   -0.4819    0.6341 C   0  0  0  0  0  0  0  0  0  0  0  0
   -0.9740    0.9580    1.0742 C   0  0  0  0  0  0  0  0  0  0  0  0
   -0.4953    1.7533   -0.1422 C   0  0  0  0  0  0  0  0  0  0  0  0
    0.7828    1.2177   -0.6112 C   0  0  0  0  0  0  0  0  0  0  0  0
    1.8395    0.7523   -0.9975 C   0  0  0  0  0  0  0  0  0  0  0  0
    3.1102    0.1859   -1.4584 C   0  0  0  0  0  0  0  0  0  0  0  0
    3.3878   -0.9103   -0.6550 O   0  0  0  0  0  0  0  0  0  0  0  0
   -3.0703   -1.6576   -1.6907 H   0  0  0  0  0  0  0  0  0  0  0  0
   -2.7878   -2.3853   -0.0833 H   0  0  0  0  0  0  0  0  0  0  0  0
   -1.4150   -2.2917   -1.2491 H   0  0  0  0  0  0  0  0  0  0  0  0
   -0.1313   -0.8442    0.3220 H   0  0  0  0  0  0  0  0  0  0  0  0
   -1.4533   -1.0516    1.5267 H   0  0  0  0  0  0  0  0  0  0  0  0
   -0.2634    1.0340    1.9064 H   0  0  0  0  0  0  0  0  0  0  0  0
   -1.9552    1.3925    1.3847 H   0  0  0  0  0  0  0  0  0  0  0  0
   -1.2597    1.7293   -0.9449 H   0  0  0  0  0  0  0  0  0  0  0  0
   -0.3989    2.8408    0.1362 H   0  0  0  0  0  0  0  0  0  0  0  0
    3.0173   -0.2120   -2.5042 H   0  0  0  0  0  0  0  0  0  0  0  0
    3.9218    0.9314   -1.4654 H   0  0  0  0  0  0  0  0  0  0  0  0
    3.6483   -0.6840    0.2557 H   0  0  0  0  0  0  0  0  0  0  0  0
  1  2  1  0
  2  3  1  0
  3  4  1  0
  4  5  1  0
  5  6  1  0
  6  7  3  0
  7  8  1  0
  8  9  1  0
  1 10  1  0
  1 11  1  0
  1 12  1  0
  3 13  1  0
  3 14  1  0
  4 15  1  0
  4 16  1  0
  5 17  1  0
  5 18  1  0
  8 19  1  0
  8 20  1  0
  9 21  1  0
M  END
