
     RDKit          3D

 23 24  0  0  0  0  0  0  0  0999 V2000
   -3.1685    0.2751   -0.3278 C   0  0  0  0  0  0  0  0  0  0  0  0
   -2.6796   -0.1202    0.8699 O   0  0  0  0  0  0  0  0  0  0  0  0
   -1.5051   -0.7977    0.9322 C   0  0  0  0  0  0  0  0  0  0  0  0
   -0.3362   -0.0715    0.3631 C   0  0  0  0  0  0  0  0  0  0  0  0
   -0.4108    0.2573   -1.1016 C   0  0  0  0  0  0  0  0  0  0  0  0
    0.6402   -0.7332   -0.4841 C   0  0  0  0  0  0  0  0  0  0  0  0
    2.0311   -0.2769   -0.7069 C   0  0  0  0  0  0  0  0  0  0  0  0
    3.0277   -0.1292    0.3681 C   0  0  0  0  0  0  0  0  0  0  0  0
    2.3718    1.0940   -0.2526 C   0  0  0  0  0  0  0  0  0  0  0  0
   -3.3261   -0.5767   -1.0362 H   0  0  0  0  0  0  0  0  0  0  0  0
   -2.6828    1.1461   -0.8045 H   0  0  0  0  0  0  0  0  0  0  0  0
   -4.2376    0.6205   -0.1428 H   0  0  0  0  0  0  0  0  0  0  0  0
   -1.6832   -1.7790    0.3798 H   0  0  0  0  0  0  0  0  0  0  0  0
   -1.3396   -1.0899    2.0094 H   0  0  0  0  0  0  0  0  0  0  0  0
    0.0040    0.7715    1.0580 H   0  0  0  0  0  0  0  0  0  0  0  0
   -0.0410    1.2697   -1.3635 H   0  0  0  0  0  0  0  0  0  0  0  0
   -1.1092   -0.2044   -1.7967 H   0  0  0  0  0  0  0  0  0  0  0  0
    0.4533   -1.8020   -0.7622 H   0  0  0  0  0  0  0  0  0  0  0  0
    2.4592   -0.5903   -1.7034 H   0  0  0  0  0  0  0  0  0  0  0  0
    4.0962   -0.2099    0.1292 H   0  0  0  0  0  0  0  0  0  0  0  0
    2.7374   -0.4300    1.3902 H   0  0  0  0  0  0  0  0  0  0  0  0
    2.9516    1.7245   -0.9420 H   0  0  0  0  0  0  0  0  0  0  0  0
    1.7472    1.6520    0.4488 H   0  0  0  0  0  0  0  0  0  0  0  0
  1  2  1  0
  2  3  1  0
  3  4  1  0
  4  5  1  0
  5  6  1  0
  6  7  1  0
  7  8  1  0
  8  9  1  0
  6  4  1  0
  9  7  1  0
  1 10  1  0
  1 11  1  0
  1 12  1  0
  3 13  1  0
  3 14  1  0
  4 15  1  0
  5 16  1  0
  5 17  1  0
  6 18  1  0
  7 19  1  0
  8 20  1  0
  8 21  1  0
  9 22  1  0
  9 23  1  0
M  END
