
     RDKit          3D

 17 16  0  0  0  0  0  0  0  0999 V2000
    2.8954   -0.2507   -0.9860 C   0  0  0  0  0  0  0  0  0  0  0  0
    1.5658   -0.6286   -0.6850 O   0  0  0  0  0  0  0  0  0  0  0  0
    1.2086    0.0920    0.4287 C   0  0  0  0  0  0  0  0  0  0  0  0
   -0.1723   -0.1579    0.9202 C   0  0  0  0  0  0  0  0  0  0  0  0
   -1.1585    0.1559   -0.0515 O   0  0  0  0  0  0  0  0  0  0  0  0
   -2.5033    0.0121    0.1598 C   0  0  0  0  0  0  0  0  0  0  0  0
   -2.8755   -0.4214    1.2758 O   0  0  0  0  0  0  0  0  0  0  0  0
   -3.5258    0.3301   -0.8279 C   0  0  0  0  0  0  0  0  0  0  0  0
   -3.2376    0.7698   -1.9715 O   0  0  0  0  0  0  0  0  0  0  0  0
    3.2872   -0.7660   -1.8619 H   0  0  0  0  0  0  0  0  0  0  0  0
    2.9662    0.8376   -1.1727 H   0  0  0  0  0  0  0  0  0  0  0  0
    3.5541   -0.4403   -0.0912 H   0  0  0  0  0  0  0  0  0  0  0  0
    1.3083    1.1661    0.1881 H   0  0  0  0  0  0  0  0  0  0  0  0
    1.9130   -0.1337    1.2597 H   0  0  0  0  0  0  0  0  0  0  0  0
   -0.3213   -1.2180    1.2491 H   0  0  0  0  0  0  0  0  0  0  0  0
   -0.3304    0.4560    1.8310 H   0  0  0  0  0  0  0  0  0  0  0  0
   -4.5738    0.1971   -0.6071 H   0  0  0  0  0  0  0  0  0  0  0  0
  1  2  1  0
  2  3  1  0
  3  4  1  0
  4  5  1  0
  5  6  1  0
  6  7  2  0
  6  8  1  0
  8  9  2  0
  1 10  1  0
  1 11  1  0
  1 12  1  0
  3 13  1  0
  3 14  1  0
  4 15  1  0
  4 16  1  0
  8 17  1  0
M  END
