
     RDKit          3D

 19 19  0  0  0  0  0  0  0  0999 V2000
    2.8432    0.5636    0.1306 C   0  0  0  0  0  0  0  0  0  0  0  0
    1.7394    1.0214    0.8351 O   0  0  0  0  0  0  0  0  0  0  0  0
    0.6229    1.0389    0.0087 C   0  0  0  0  0  0  0  0  0  0  0  0
    0.2617   -0.3000   -0.5457 C   0  0  0  0  0  0  0  0  0  0  0  0
   -0.0841   -1.4526    0.2805 C   0  0  0  0  0  0  0  0  0  0  0  0
   -1.2046   -0.6592   -0.3994 C   0  0  0  0  0  0  0  0  0  0  0  0
   -1.9937    0.0874    0.5006 O   0  0  0  0  0  0  0  0  0  0  0  0
   -3.3460    0.2598    0.3848 C   0  0  0  0  0  0  0  0  0  0  0  0
   -3.9522   -0.2699   -0.5764 O   0  0  0  0  0  0  0  0  0  0  0  0
    3.7416    0.5389    0.7588 H   0  0  0  0  0  0  0  0  0  0  0  0
    2.5833   -0.4750   -0.2149 H   0  0  0  0  0  0  0  0  0  0  0  0
    3.0475    1.1384   -0.7861 H   0  0  0  0  0  0  0  0  0  0  0  0
    0.8682    1.7211   -0.8394 H   0  0  0  0  0  0  0  0  0  0  0  0
   -0.2111    1.4859    0.6237 H   0  0  0  0  0  0  0  0  0  0  0  0
    0.6628   -0.5266   -1.5653 H   0  0  0  0  0  0  0  0  0  0  0  0
   -0.0122   -1.4063    1.3878 H   0  0  0  0  0  0  0  0  0  0  0  0
    0.1051   -2.4748   -0.1191 H   0  0  0  0  0  0  0  0  0  0  0  0
   -1.7323   -1.1257   -1.2442 H   0  0  0  0  0  0  0  0  0  0  0  0
   -3.9394    0.8346    1.0816 H   0  0  0  0  0  0  0  0  0  0  0  0
  1  2  1  0
  2  3  1  0
  3  4  1  0
  4  5  1  0
  5  6  1  0
  6  7  1  0
  7  8  1  0
  8  9  2  0
  6  4  1  0
  1 10  1  0
  1 11  1  0
  1 12  1  0
  3 13  1  0
  3 14  1  0
  4 15  1  0
  5 16  1  0
  5 17  1  0
  6 18  1  0
  8 19  1  0
M  END
