
     RDKit          3D

 21 21  0  0  0  0  0  0  0  0999 V2000
    3.8083    0.6581    0.3237 C   0  0  0  0  0  0  0  0  0  0  0  0
    2.7015   -0.0980    0.7165 O   0  0  0  0  0  0  0  0  0  0  0  0
    1.6184    0.2304   -0.0619 C   0  0  0  0  0  0  0  0  0  0  0  0
    0.4261   -0.5555    0.3301 C   0  0  0  0  0  0  0  0  0  0  0  0
    0.5231   -1.3551    1.2381 O   0  0  0  0  0  0  0  0  0  0  0  0
   -0.8598   -0.3859   -0.3544 C   0  0  0  0  0  0  0  0  0  0  0  0
   -1.8630   -1.4699   -0.4524 C   0  0  0  0  0  0  0  0  0  0  0  0
   -2.0949   -0.4286    0.5679 C   0  0  0  0  0  0  0  0  0  0  0  0
   -3.0527    0.7010    0.3657 C   0  0  0  0  0  0  0  0  0  0  0  0
    4.6480    0.3362    1.0004 H   0  0  0  0  0  0  0  0  0  0  0  0
    3.5443    1.7191    0.5167 H   0  0  0  0  0  0  0  0  0  0  0  0
    4.0349    0.4735   -0.7343 H   0  0  0  0  0  0  0  0  0  0  0  0
    1.4164    1.3384   -0.0082 H   0  0  0  0  0  0  0  0  0  0  0  0
    1.8677    0.0587   -1.1497 H   0  0  0  0  0  0  0  0  0  0  0  0
   -0.8762    0.3634   -1.1764 H   0  0  0  0  0  0  0  0  0  0  0  0
   -2.5465   -1.4731   -1.3381 H   0  0  0  0  0  0  0  0  0  0  0  0
   -1.6705   -2.4874   -0.0729 H   0  0  0  0  0  0  0  0  0  0  0  0
   -1.9001   -0.6635    1.6463 H   0  0  0  0  0  0  0  0  0  0  0  0
   -3.1408    0.8986   -0.7270 H   0  0  0  0  0  0  0  0  0  0  0  0
   -4.0229    0.5165    0.8472 H   0  0  0  0  0  0  0  0  0  0  0  0
   -2.5612    1.6232    0.7827 H   0  0  0  0  0  0  0  0  0  0  0  0
  1  2  1  0
  2  3  1  0
  3  4  1  0
  4  5  2  0
  4  6  1  0
  6  7  1  0
  7  8  1  0
  8  9  1  0
  8  6  1  0
  1 10  1  0
  1 11  1  0
  1 12  1  0
  3 13  1  0
  3 14  1  0
  6 15  1  0
  7 16  1  0
  7 17  1  0
  8 18  1  0
  9 19  1  0
  9 20  1  0
  9 21  1  0
M  END
