
     RDKit          3D

 23 23  0  0  0  0  0  0  0  0999 V2000
    2.8816    0.5042    0.7543 C   0  0  0  0  0  0  0  0  0  0  0  0
    2.0031    1.1657   -0.0878 O   0  0  0  0  0  0  0  0  0  0  0  0
    1.1427    0.3245   -0.7670 C   0  0  0  0  0  0  0  0  0  0  0  0
    0.2664   -0.4844    0.1269 C   0  0  0  0  0  0  0  0  0  0  0  0
   -0.6197   -1.3517   -0.7402 C   0  0  0  0  0  0  0  0  0  0  0  0
   -2.0503   -1.0071   -0.6380 C   0  0  0  0  0  0  0  0  0  0  0  0
   -2.5537    0.0772   -0.1246 C   0  0  0  0  0  0  0  0  0  0  0  0
   -1.6445    1.1095    0.4308 C   0  0  0  0  0  0  0  0  0  0  0  0
   -0.5016    0.3470    1.0949 C   0  0  0  0  0  0  0  0  0  0  0  0
    3.5215    1.2807    1.2315 H   0  0  0  0  0  0  0  0  0  0  0  0
    3.4964   -0.2454    0.2421 H   0  0  0  0  0  0  0  0  0  0  0  0
    2.3070   -0.0395    1.5533 H   0  0  0  0  0  0  0  0  0  0  0  0
    1.8020   -0.3356   -1.4013 H   0  0  0  0  0  0  0  0  0  0  0  0
    0.5660    0.9250   -1.4983 H   0  0  0  0  0  0  0  0  0  0  0  0
    0.8935   -1.1977    0.7145 H   0  0  0  0  0  0  0  0  0  0  0  0
   -0.5184   -2.4353   -0.5218 H   0  0  0  0  0  0  0  0  0  0  0  0
   -0.3483   -1.2538   -1.8302 H   0  0  0  0  0  0  0  0  0  0  0  0
   -2.7571   -1.7470   -1.0389 H   0  0  0  0  0  0  0  0  0  0  0  0
   -3.6223    0.2277   -0.1012 H   0  0  0  0  0  0  0  0  0  0  0  0
   -1.2931    1.8051   -0.3384 H   0  0  0  0  0  0  0  0  0  0  0  0
   -2.1306    1.6865    1.2596 H   0  0  0  0  0  0  0  0  0  0  0  0
   -0.9948   -0.3558    1.8239 H   0  0  0  0  0  0  0  0  0  0  0  0
    0.1539    1.0001    1.6604 H   0  0  0  0  0  0  0  0  0  0  0  0
  1  2  1  0
  2  3  1  0
  3  4  1  0
  4  5  1  0
  5  6  1  0
  6  7  2  0
  7  8  1  0
  8  9  1  0
  9  4  1  0
  1 10  1  0
  1 11  1  0
  1 12  1  0
  3 13  1  0
  3 14  1  0
  4 15  1  0
  5 16  1  0
  5 17  1  0
  6 18  1  0
  7 19  1  0
  8 20  1  0
  8 21  1  0
  9 22  1  0
  9 23  1  0
M  END
