
     RDKit          3D

 23 22  0  0  0  0  0  0  0  0999 V2000
    3.8680   -0.2122    0.7964 C   0  0  0  0  0  0  0  0  0  0  0  0
    3.5901    1.0719    0.2876 O   0  0  0  0  0  0  0  0  0  0  0  0
    2.6598    0.9812   -0.7667 C   0  0  0  0  0  0  0  0  0  0  0  0
    1.4035    0.3754   -0.2790 C   0  0  0  0  0  0  0  0  0  0  0  0
    0.3753   -0.1083    0.1320 C   0  0  0  0  0  0  0  0  0  0  0  0
   -0.8651   -0.6971    0.6352 C   0  0  0  0  0  0  0  0  0  0  0  0
   -2.0121    0.1628    0.1932 C   0  0  0  0  0  0  0  0  0  0  0  0
   -3.2908   -0.4799    0.7350 C   0  0  0  0  0  0  0  0  0  0  0  0
   -2.0993    0.2989   -1.3028 C   0  0  0  0  0  0  0  0  0  0  0  0
    4.6011   -0.0657    1.6160 H   0  0  0  0  0  0  0  0  0  0  0  0
    2.9433   -0.6134    1.3054 H   0  0  0  0  0  0  0  0  0  0  0  0
    4.2601   -0.8922    0.0345 H   0  0  0  0  0  0  0  0  0  0  0  0
    2.4642    2.0195   -1.0978 H   0  0  0  0  0  0  0  0  0  0  0  0
    3.0699    0.4405   -1.6360 H   0  0  0  0  0  0  0  0  0  0  0  0
   -0.8957   -0.7412    1.7467 H   0  0  0  0  0  0  0  0  0  0  0  0
   -0.9583   -1.7476    0.2893 H   0  0  0  0  0  0  0  0  0  0  0  0
   -1.9032    1.1558    0.6492 H   0  0  0  0  0  0  0  0  0  0  0  0
   -3.8776   -0.9619   -0.0779 H   0  0  0  0  0  0  0  0  0  0  0  0
   -3.9082    0.2839    1.2572 H   0  0  0  0  0  0  0  0  0  0  0  0
   -3.0667   -1.2735    1.4664 H   0  0  0  0  0  0  0  0  0  0  0  0
   -1.4640   -0.4501   -1.8371 H   0  0  0  0  0  0  0  0  0  0  0  0
   -1.7261    1.2973   -1.5951 H   0  0  0  0  0  0  0  0  0  0  0  0
   -3.1682    0.1561   -1.5977 H   0  0  0  0  0  0  0  0  0  0  0  0
  1  2  1  0
  2  3  1  0
  3  4  1  0
  4  5  3  0
  5  6  1  0
  6  7  1  0
  7  8  1  0
  7  9  1  0
  1 10  1  0
  1 11  1  0
  1 12  1  0
  3 13  1  0
  3 14  1  0
  6 15  1  0
  6 16  1  0
  7 17  1  0
  8 18  1  0
  8 19  1  0
  8 20  1  0
  9 21  1  0
  9 22  1  0
  9 23  1  0
M  END
