
     RDKit          3D

 18 18  0  0  0  0  0  0  0  0999 V2000
    2.7713   -0.3994    0.2548 C   0  0  0  0  0  0  0  0  0  0  0  0
    1.5063    0.0913    0.6034 O   0  0  0  0  0  0  0  0  0  0  0  0
    0.5763   -0.1019   -0.4156 C   0  0  0  0  0  0  0  0  0  0  0  0
   -0.7410    0.4361    0.0097 C   0  0  0  0  0  0  0  0  0  0  0  0
   -0.7052    1.7787    0.2936 O   0  0  0  0  0  0  0  0  0  0  0  0
   -1.4956   -0.3346    1.0451 C   0  0  0  0  0  0  0  0  0  0  0  0
   -2.6854    0.0945    0.4088 O   0  0  0  0  0  0  0  0  0  0  0  0
   -1.9425    0.0316   -0.7933 C   0  0  0  0  0  0  0  0  0  0  0  0
    2.7594   -1.4776    0.0394 H   0  0  0  0  0  0  0  0  0  0  0  0
    3.4177   -0.2507    1.1404 H   0  0  0  0  0  0  0  0  0  0  0  0
    3.2338    0.1967   -0.5653 H   0  0  0  0  0  0  0  0  0  0  0  0
    0.5939   -1.1539   -0.6882 H   0  0  0  0  0  0  0  0  0  0  0  0
    0.9307    0.5064   -1.2831 H   0  0  0  0  0  0  0  0  0  0  0  0
   -1.1352    2.2924   -0.4340 H   0  0  0  0  0  0  0  0  0  0  0  0
   -1.4637   -1.4459    0.9344 H   0  0  0  0  0  0  0  0  0  0  0  0
   -1.3794    0.0161    2.0786 H   0  0  0  0  0  0  0  0  0  0  0  0
   -1.9191   -1.0349   -1.1168 H   0  0  0  0  0  0  0  0  0  0  0  0
   -2.3225    0.7550   -1.5119 H   0  0  0  0  0  0  0  0  0  0  0  0
  1  2  1  0
  2  3  1  0
  3  4  1  0
  4  5  1  0
  4  6  1  0
  6  7  1  0
  7  8  1  0
  8  4  1  0
  1  9  1  0
  1 10  1  0
  1 11  1  0
  3 12  1  0
  3 13  1  0
  5 14  1  0
  6 15  1  0
  6 16  1  0
  8 17  1  0
  8 18  1  0
M  END
