
     RDKit          3D

 23 24  0  0  0  0  0  0  0  0999 V2000
    3.6564    0.6470   -0.2886 C   0  0  0  0  0  0  0  0  0  0  0  0
    2.5602    0.2724    0.5113 O   0  0  0  0  0  0  0  0  0  0  0  0
    1.4336    0.0386   -0.2456 C   0  0  0  0  0  0  0  0  0  0  0  0
    0.3003   -0.3576    0.6751 C   0  0  0  0  0  0  0  0  0  0  0  0
   -0.9701   -0.6299   -0.0877 C   0  0  0  0  0  0  0  0  0  0  0  0
   -2.2108   -1.0380    0.6516 C   0  0  0  0  0  0  0  0  0  0  0  0
   -2.7396    0.3550    0.4097 C   0  0  0  0  0  0  0  0  0  0  0  0
   -1.6801    0.6560   -0.5988 C   0  0  0  0  0  0  0  0  0  0  0  0
   -1.1212   -0.3454   -1.5120 C   0  0  0  0  0  0  0  0  0  0  0  0
    3.8682   -0.1754   -1.0026 H   0  0  0  0  0  0  0  0  0  0  0  0
    4.5247    0.8786    0.3616 H   0  0  0  0  0  0  0  0  0  0  0  0
    3.3542    1.5428   -0.8839 H   0  0  0  0  0  0  0  0  0  0  0  0
    1.1548    0.9093   -0.8777 H   0  0  0  0  0  0  0  0  0  0  0  0
    1.5718   -0.8107   -0.9640 H   0  0  0  0  0  0  0  0  0  0  0  0
    0.5985   -1.2409    1.2496 H   0  0  0  0  0  0  0  0  0  0  0  0
    0.1366    0.4687    1.4289 H   0  0  0  0  0  0  0  0  0  0  0  0
   -2.0386   -1.3203    1.6978 H   0  0  0  0  0  0  0  0  0  0  0  0
   -2.8352   -1.7601    0.0537 H   0  0  0  0  0  0  0  0  0  0  0  0
   -2.6068    0.9724    1.3423 H   0  0  0  0  0  0  0  0  0  0  0  0
   -3.7849    0.4338    0.0925 H   0  0  0  0  0  0  0  0  0  0  0  0
   -1.1353    1.6083   -0.4655 H   0  0  0  0  0  0  0  0  0  0  0  0
   -1.8057   -1.0346   -2.0888 H   0  0  0  0  0  0  0  0  0  0  0  0
   -0.2309   -0.0701   -2.0780 H   0  0  0  0  0  0  0  0  0  0  0  0
  1  2  1  0
  2  3  1  0
  3  4  1  0
  4  5  1  0
  5  6  1  0
  6  7  1  0
  7  8  1  0
  8  9  1  0
  8  5  1  0
  9  5  1  0
  1 10  1  0
  1 11  1  0
  1 12  1  0
  3 13  1  0
  3 14  1  0
  4 15  1  0
  4 16  1  0
  6 17  1  0
  6 18  1  0
  7 19  1  0
  7 20  1  0
  8 21  1  0
  9 22  1  0
  9 23  1  0
M  END
