
     RDKit          3D

 21 22  0  0  0  0  0  0  0  0999 V2000
    3.2805    0.9282   -0.5518 C   0  0  0  0  0  0  0  0  0  0  0  0
    1.9865    0.5546   -0.8214 O   0  0  0  0  0  0  0  0  0  0  0  0
    1.3799   -0.1735    0.1777 C   0  0  0  0  0  0  0  0  0  0  0  0
   -0.0087   -0.5082   -0.2462 C   0  0  0  0  0  0  0  0  0  0  0  0
   -0.7990   -1.3307    0.7989 C   0  0  0  0  0  0  0  0  0  0  0  0
   -1.9414   -0.7856   -0.0723 C   0  0  0  0  0  0  0  0  0  0  0  0
   -2.4433    0.5388   -0.1088 C   0  0  0  0  0  0  0  0  0  0  0  0
   -3.4133    0.8766    0.8692 O   0  0  0  0  0  0  0  0  0  0  0  0
   -1.0630    0.5110    0.2028 C   0  0  0  0  0  0  0  0  0  0  0  0
    3.3150    1.5556    0.3570 H   0  0  0  0  0  0  0  0  0  0  0  0
    3.8893   -0.0083   -0.4444 H   0  0  0  0  0  0  0  0  0  0  0  0
    3.6635    1.4848   -1.4267 H   0  0  0  0  0  0  0  0  0  0  0  0
    1.9454   -1.1492    0.2434 H   0  0  0  0  0  0  0  0  0  0  0  0
    1.4444    0.2764    1.1665 H   0  0  0  0  0  0  0  0  0  0  0  0
   -0.1255   -0.9050   -1.2471 H   0  0  0  0  0  0  0  0  0  0  0  0
   -0.6770   -2.4116    0.6988 H   0  0  0  0  0  0  0  0  0  0  0  0
   -0.7778   -0.9151    1.8048 H   0  0  0  0  0  0  0  0  0  0  0  0
   -1.7651   -1.2368   -1.1030 H   0  0  0  0  0  0  0  0  0  0  0  0
   -2.7362    1.0302   -1.0858 H   0  0  0  0  0  0  0  0  0  0  0  0
   -4.3061    0.9836    0.4712 H   0  0  0  0  0  0  0  0  0  0  0  0
   -0.8479    0.6842    1.3073 H   0  0  0  0  0  0  0  0  0  0  0  0
  1  2  1  0
  2  3  1  0
  3  4  1  0
  4  5  1  0
  5  6  1  0
  6  7  1  0
  7  8  1  0
  7  9  1  0
  9  4  1  0
  9  6  1  0
  1 10  1  0
  1 11  1  0
  1 12  1  0
  3 13  1  0
  3 14  1  0
  4 15  1  0
  5 16  1  0
  5 17  1  0
  6 18  1  0
  7 19  1  0
  8 20  1  0
  9 21  1  0
M  END
