
     RDKit          3D

 21 22  0  0  0  0  0  0  0  0999 V2000
   -3.0577   -0.1096    0.1137 C   0  0  0  0  0  0  0  0  0  0  0  0
   -1.8066   -0.5302    0.6208 O   0  0  0  0  0  0  0  0  0  0  0  0
   -0.9059   -0.3387   -0.4261 C   0  0  0  0  0  0  0  0  0  0  0  0
    0.4953   -0.7410   -0.0543 C   0  0  0  0  0  0  0  0  0  0  0  0
    0.5759   -2.0731    0.2975 O   0  0  0  0  0  0  0  0  0  0  0  0
    1.4438   -0.3583   -1.1887 C   0  0  0  0  0  0  0  0  0  0  0  0
    2.0196    0.7719   -0.4029 C   0  0  0  0  0  0  0  0  0  0  0  0
    1.1983    1.6546    0.4480 C   0  0  0  0  0  0  0  0  0  0  0  0
    1.2406    0.2180    0.8218 C   0  0  0  0  0  0  0  0  0  0  0  0
   -2.9115    0.9635   -0.1577 H   0  0  0  0  0  0  0  0  0  0  0  0
   -3.2698   -0.6881   -0.8228 H   0  0  0  0  0  0  0  0  0  0  0  0
   -3.8477   -0.1625    0.8548 H   0  0  0  0  0  0  0  0  0  0  0  0
   -0.9859    0.7113   -0.7313 H   0  0  0  0  0  0  0  0  0  0  0  0
   -1.2300   -0.9998   -1.2734 H   0  0  0  0  0  0  0  0  0  0  0  0
    0.9079   -2.2076    1.2395 H   0  0  0  0  0  0  0  0  0  0  0  0
    2.1665   -1.1882   -1.3731 H   0  0  0  0  0  0  0  0  0  0  0  0
    0.9506   -0.0498   -2.1198 H   0  0  0  0  0  0  0  0  0  0  0  0
    3.1214    0.7948   -0.3197 H   0  0  0  0  0  0  0  0  0  0  0  0
    1.7580    2.3318    1.1187 H   0  0  0  0  0  0  0  0  0  0  0  0
    0.2645    2.1193    0.0528 H   0  0  0  0  0  0  0  0  0  0  0  0
    1.8728   -0.1184    1.6447 H   0  0  0  0  0  0  0  0  0  0  0  0
  1  2  1  0
  2  3  1  0
  3  4  1  0
  4  5  1  0
  4  6  1  0
  6  7  1  0
  7  8  1  0
  8  9  1  0
  9  4  1  0
  9  7  1  0
  1 10  1  0
  1 11  1  0
  1 12  1  0
  3 13  1  0
  3 14  1  0
  5 15  1  0
  6 16  1  0
  6 17  1  0
  7 18  1  0
  8 19  1  0
  8 20  1  0
  9 21  1  0
M  END
