
     RDKit          3D

 21 21  0  0  0  0  0  0  0  0999 V2000
   -3.2214    0.1123   -0.8765 C   0  0  0  0  0  0  0  0  0  0  0  0
   -1.9767    0.7337   -0.6251 O   0  0  0  0  0  0  0  0  0  0  0  0
   -1.1770   -0.2107   -0.0299 C   0  0  0  0  0  0  0  0  0  0  0  0
    0.1972    0.3212    0.2975 C   0  0  0  0  0  0  0  0  0  0  0  0
    1.0547   -0.7053    0.9402 C   0  0  0  0  0  0  0  0  0  0  0  0
    2.1873   -1.0444    0.2589 O   0  0  0  0  0  0  0  0  0  0  0  0
    2.8725   -0.0420   -0.3414 C   0  0  0  0  0  0  0  0  0  0  0  0
    2.2207    1.1564   -0.4737 O   0  0  0  0  0  0  0  0  0  0  0  0
    0.9122    0.8576   -0.9244 C   0  0  0  0  0  0  0  0  0  0  0  0
   -3.6714   -0.2381    0.0981 H   0  0  0  0  0  0  0  0  0  0  0  0
   -3.0361   -0.8039   -1.4726 H   0  0  0  0  0  0  0  0  0  0  0  0
   -3.9430    0.7939   -1.3261 H   0  0  0  0  0  0  0  0  0  0  0  0
   -1.6453   -0.4921    0.9396 H   0  0  0  0  0  0  0  0  0  0  0  0
   -1.1383   -1.1193   -0.6626 H   0  0  0  0  0  0  0  0  0  0  0  0
    0.0641    1.1753    0.9918 H   0  0  0  0  0  0  0  0  0  0  0  0
    1.3601   -0.4056    1.9804 H   0  0  0  0  0  0  0  0  0  0  0  0
    0.4429   -1.6374    1.0664 H   0  0  0  0  0  0  0  0  0  0  0  0
    3.8754    0.1479    0.1363 H   0  0  0  0  0  0  0  0  0  0  0  0
    3.1390   -0.3833   -1.3852 H   0  0  0  0  0  0  0  0  0  0  0  0
    0.4234    1.7353   -1.3643 H   0  0  0  0  0  0  0  0  0  0  0  0
    1.0599    0.0484   -1.6902 H   0  0  0  0  0  0  0  0  0  0  0  0
  1  2  1  0
  2  3  1  0
  3  4  1  0
  4  5  1  0
  5  6  1  0
  6  7  1  0
  7  8  1  0
  8  9  1  0
  9  4  1  0
  1 10  1  0
  1 11  1  0
  1 12  1  0
  3 13  1  0
  3 14  1  0
  4 15  1  0
  5 16  1  0
  5 17  1  0
  7 18  1  0
  7 19  1  0
  9 20  1  0
  9 21  1  0
M  END
