
     RDKit          3D

 21 21  0  0  0  0  0  0  0  0999 V2000
    2.9714   -0.0538   -0.0319 C   0  0  0  0  0  0  0  0  0  0  0  0
    2.1783   -0.7546    0.8666 O   0  0  0  0  0  0  0  0  0  0  0  0
    0.8737   -0.3320    0.8921 C   0  0  0  0  0  0  0  0  0  0  0  0
    0.2309   -0.4896   -0.4398 C   0  0  0  0  0  0  0  0  0  0  0  0
   -1.2075   -0.0536   -0.4918 C   0  0  0  0  0  0  0  0  0  0  0  0
   -1.7587   -0.2183   -1.7412 O   0  0  0  0  0  0  0  0  0  0  0  0
   -2.0713   -0.3202    0.6815 C   0  0  0  0  0  0  0  0  0  0  0  0
   -2.7447    0.8878    0.3770 O   0  0  0  0  0  0  0  0  0  0  0  0
   -1.4686    1.3658   -0.0060 C   0  0  0  0  0  0  0  0  0  0  0  0
    4.0147   -0.4695    0.0433 H   0  0  0  0  0  0  0  0  0  0  0  0
    2.9549    1.0171    0.1824 H   0  0  0  0  0  0  0  0  0  0  0  0
    2.7079   -0.2563   -1.1073 H   0  0  0  0  0  0  0  0  0  0  0  0
    0.8744    0.7242    1.2608 H   0  0  0  0  0  0  0  0  0  0  0  0
    0.3416   -0.9849    1.6402 H   0  0  0  0  0  0  0  0  0  0  0  0
    0.2900   -1.5389   -0.7431 H   0  0  0  0  0  0  0  0  0  0  0  0
    0.7576    0.1625   -1.1938 H   0  0  0  0  0  0  0  0  0  0  0  0
   -2.2885   -1.0278   -1.8484 H   0  0  0  0  0  0  0  0  0  0  0  0
   -2.7142   -1.2130    0.6683 H   0  0  0  0  0  0  0  0  0  0  0  0
   -1.5243   -0.2024    1.6323 H   0  0  0  0  0  0  0  0  0  0  0  0
   -0.9241    1.6299    0.9263 H   0  0  0  0  0  0  0  0  0  0  0  0
   -1.4933    2.1275   -0.7903 H   0  0  0  0  0  0  0  0  0  0  0  0
  1  2  1  0
  2  3  1  0
  3  4  1  0
  4  5  1  0
  5  6  1  0
  5  7  1  0
  7  8  1  0
  8  9  1  0
  9  5  1  0
  1 10  1  0
  1 11  1  0
  1 12  1  0
  3 13  1  0
  3 14  1  0
  4 15  1  0
  4 16  1  0
  6 17  1  0
  7 18  1  0
  7 19  1  0
  9 20  1  0
  9 21  1  0
M  END
