
     RDKit          3D

 21 20  0  0  0  0  0  0  0  0999 V2000
    3.8034    0.0532    0.1586 C   0  0  0  0  0  0  0  0  0  0  0  0
    2.5864   -0.6127    0.2658 O   0  0  0  0  0  0  0  0  0  0  0  0
    1.5816    0.2106   -0.1908 C   0  0  0  0  0  0  0  0  0  0  0  0
    0.2612   -0.5017   -0.0786 C   0  0  0  0  0  0  0  0  0  0  0  0
   -0.8779    0.3231   -0.5531 C   0  0  0  0  0  0  0  0  0  0  0  0
   -0.7401    1.4526   -0.9840 O   0  0  0  0  0  0  0  0  0  0  0  0
   -2.2265   -0.2951   -0.4815 C   0  0  0  0  0  0  0  0  0  0  0  0
   -3.1706    0.5010    0.3889 C   0  0  0  0  0  0  0  0  0  0  0  0
   -2.1801   -1.5849    0.0371 O   0  0  0  0  0  0  0  0  0  0  0  0
    3.9372    0.2905   -0.9189 H   0  0  0  0  0  0  0  0  0  0  0  0
    3.7396    0.9868    0.7828 H   0  0  0  0  0  0  0  0  0  0  0  0
    4.6511   -0.5659    0.5254 H   0  0  0  0  0  0  0  0  0  0  0  0
    1.7294    0.5997   -1.2069 H   0  0  0  0  0  0  0  0  0  0  0  0
    1.5197    1.1095    0.4808 H   0  0  0  0  0  0  0  0  0  0  0  0
    0.2463   -1.4583   -0.6333 H   0  0  0  0  0  0  0  0  0  0  0  0
    0.0618   -0.7632    0.9891 H   0  0  0  0  0  0  0  0  0  0  0  0
   -2.6276   -0.3413   -1.5165 H   0  0  0  0  0  0  0  0  0  0  0  0
   -3.2038    1.5620    0.0689 H   0  0  0  0  0  0  0  0  0  0  0  0
   -2.8553    0.4519    1.4476 H   0  0  0  0  0  0  0  0  0  0  0  0
   -4.1792    0.0579    0.2653 H   0  0  0  0  0  0  0  0  0  0  0  0
   -2.0567   -1.4757    1.0307 H   0  0  0  0  0  0  0  0  0  0  0  0
  1  2  1  0
  2  3  1  0
  3  4  1  0
  4  5  1  0
  5  6  2  0
  5  7  1  0
  7  8  1  0
  7  9  1  0
  1 10  1  0
  1 11  1  0
  1 12  1  0
  3 13  1  0
  3 14  1  0
  4 15  1  0
  4 16  1  0
  7 17  1  0
  8 18  1  0
  8 19  1  0
  8 20  1  0
  9 21  1  0
M  END
