
     RDKit          3D

 23 23  0  0  0  0  0  0  0  0999 V2000
    3.6225    0.7588    0.0356 C   0  0  0  0  0  0  0  0  0  0  0  0
    2.3521    0.8220   -0.5062 O   0  0  0  0  0  0  0  0  0  0  0  0
    1.6265   -0.3411   -0.2499 C   0  0  0  0  0  0  0  0  0  0  0  0
    0.2393   -0.2757   -0.8400 C   0  0  0  0  0  0  0  0  0  0  0  0
   -0.5021   -1.5331   -0.4072 C   0  0  0  0  0  0  0  0  0  0  0  0
   -1.8449   -0.9555    0.0265 C   0  0  0  0  0  0  0  0  0  0  0  0
   -1.7814    0.4109   -0.6092 C   0  0  0  0  0  0  0  0  0  0  0  0
   -2.8120    1.3604   -0.0713 C   0  0  0  0  0  0  0  0  0  0  0  0
   -0.4756    0.7971   -0.3028 O   0  0  0  0  0  0  0  0  0  0  0  0
    4.1402    1.7129   -0.2059 H   0  0  0  0  0  0  0  0  0  0  0  0
    3.5935    0.7290    1.1625 H   0  0  0  0  0  0  0  0  0  0  0  0
    4.1947   -0.1322   -0.3047 H   0  0  0  0  0  0  0  0  0  0  0  0
    1.5563   -0.5016    0.8338 H   0  0  0  0  0  0  0  0  0  0  0  0
    2.1547   -1.1810   -0.7711 H   0  0  0  0  0  0  0  0  0  0  0  0
    0.2918   -0.2087   -1.9559 H   0  0  0  0  0  0  0  0  0  0  0  0
   -0.0217   -2.0374    0.4293 H   0  0  0  0  0  0  0  0  0  0  0  0
   -0.6827   -2.2130   -1.2626 H   0  0  0  0  0  0  0  0  0  0  0  0
   -1.8555   -0.8084    1.1247 H   0  0  0  0  0  0  0  0  0  0  0  0
   -2.6936   -1.5622   -0.3017 H   0  0  0  0  0  0  0  0  0  0  0  0
   -1.8419    0.3443   -1.7163 H   0  0  0  0  0  0  0  0  0  0  0  0
   -2.9361    2.1938   -0.7975 H   0  0  0  0  0  0  0  0  0  0  0  0
   -3.7828    0.8116   -0.0446 H   0  0  0  0  0  0  0  0  0  0  0  0
   -2.5411    1.8090    0.8959 H   0  0  0  0  0  0  0  0  0  0  0  0
  1  2  1  0
  2  3  1  0
  3  4  1  0
  4  5  1  0
  5  6  1  0
  6  7  1  0
  7  8  1  0
  7  9  1  0
  9  4  1  0
  1 10  1  0
  1 11  1  0
  1 12  1  0
  3 13  1  0
  3 14  1  0
  4 15  1  0
  5 16  1  0
  5 17  1  0
  6 18  1  0
  6 19  1  0
  7 20  1  0
  8 21  1  0
  8 22  1  0
  8 23  1  0
M  END
