
     RDKit          3D

 25 25  0  0  0  0  0  0  0  0999 V2000
    4.1138    0.3517   -0.2232 C   0  0  0  0  0  0  0  0  0  0  0  0
    2.8188    0.7909   -0.3473 O   0  0  0  0  0  0  0  0  0  0  0  0
    1.9723    0.0767    0.5153 C   0  0  0  0  0  0  0  0  0  0  0  0
    0.5395    0.5482    0.3916 C   0  0  0  0  0  0  0  0  0  0  0  0
   -0.0854    0.4203   -0.9395 C   0  0  0  0  0  0  0  0  0  0  0  0
   -0.5356   -0.4541    0.1975 C   0  0  0  0  0  0  0  0  0  0  0  0
   -1.8916   -0.2868    0.8022 C   0  0  0  0  0  0  0  0  0  0  0  0
   -2.6014    0.9696    0.3398 C   0  0  0  0  0  0  0  0  0  0  0  0
   -2.7416   -1.4754    0.3587 C   0  0  0  0  0  0  0  0  0  0  0  0
    4.4755    0.4953    0.8315 H   0  0  0  0  0  0  0  0  0  0  0  0
    4.2493   -0.7296   -0.4334 H   0  0  0  0  0  0  0  0  0  0  0  0
    4.7536    0.9505   -0.9124 H   0  0  0  0  0  0  0  0  0  0  0  0
    2.3235    0.0939    1.5518 H   0  0  0  0  0  0  0  0  0  0  0  0
    1.9944   -1.0037    0.1901 H   0  0  0  0  0  0  0  0  0  0  0  0
    0.3042    1.4946    0.9347 H   0  0  0  0  0  0  0  0  0  0  0  0
    0.4265   -0.1465   -1.7582 H   0  0  0  0  0  0  0  0  0  0  0  0
   -0.7796    1.1830   -1.3476 H   0  0  0  0  0  0  0  0  0  0  0  0
   -0.1720   -1.5227    0.2246 H   0  0  0  0  0  0  0  0  0  0  0  0
   -1.8435   -0.2200    1.9195 H   0  0  0  0  0  0  0  0  0  0  0  0
   -2.1510    1.8822    0.7973 H   0  0  0  0  0  0  0  0  0  0  0  0
   -2.7221    1.0289   -0.7430 H   0  0  0  0  0  0  0  0  0  0  0  0
   -3.6389    0.9108    0.7731 H   0  0  0  0  0  0  0  0  0  0  0  0
   -3.6655   -1.1489   -0.1611 H   0  0  0  0  0  0  0  0  0  0  0  0
   -2.1964   -2.1220   -0.3637 H   0  0  0  0  0  0  0  0  0  0  0  0
   -2.9470   -2.0870    1.2541 H   0  0  0  0  0  0  0  0  0  0  0  0
  1  2  1  0
  2  3  1  0
  3  4  1  0
  4  5  1  0
  5  6  1  0
  6  7  1  0
  7  8  1  0
  7  9  1  0
  6  4  1  0
  1 10  1  0
  1 11  1  0
  1 12  1  0
  3 13  1  0
  3 14  1  0
  4 15  1  0
  5 16  1  0
  5 17  1  0
  6 18  1  0
  7 19  1  0
  8 20  1  0
  8 21  1  0
  8 22  1  0
  9 23  1  0
  9 24  1  0
  9 25  1  0
M  END
