
     RDKit          3D

 21 20  0  0  0  0  0  0  0  0999 V2000
   -3.3299   -0.8897    3.2705 C   0  0  0  0  0  0  0  0  0  0  0  0
   -2.2423   -1.0601    2.4149 O   0  0  0  0  0  0  0  0  0  0  0  0
   -1.8150    0.1811    2.0083 C   0  0  0  0  0  0  0  0  0  0  0  0
   -0.6754    0.0001    1.0843 C   0  0  0  0  0  0  0  0  0  0  0  0
    0.2201   -0.1419    0.3840 C   0  0  0  0  0  0  0  0  0  0  0  0
    1.4212   -0.3262   -0.5238 C   0  0  0  0  0  0  0  0  0  0  0  0
    1.5438    0.8150   -1.4994 C   0  0  0  0  0  0  0  0  0  0  0  0
    2.8253    0.6591   -2.3182 C   0  0  0  0  0  0  0  0  0  0  0  0
    2.7592   -0.5527   -3.0000 O   0  0  0  0  0  0  0  0  0  0  0  0
   -3.0641   -0.2716    4.1608 H   0  0  0  0  0  0  0  0  0  0  0  0
   -3.6414   -1.9004    3.6464 H   0  0  0  0  0  0  0  0  0  0  0  0
   -4.1330   -0.4042    2.7046 H   0  0  0  0  0  0  0  0  0  0  0  0
   -2.5579    0.8095    1.4932 H   0  0  0  0  0  0  0  0  0  0  0  0
   -1.4659    0.7458    2.9185 H   0  0  0  0  0  0  0  0  0  0  0  0
    2.2818   -0.3793    0.1331 H   0  0  0  0  0  0  0  0  0  0  0  0
    1.2564   -1.2824   -1.0674 H   0  0  0  0  0  0  0  0  0  0  0  0
    0.6701    0.8862   -2.2017 H   0  0  0  0  0  0  0  0  0  0  0  0
    1.5402    1.7618   -0.9284 H   0  0  0  0  0  0  0  0  0  0  0  0
    3.6700    0.6990   -1.5914 H   0  0  0  0  0  0  0  0  0  0  0  0
    2.8821    1.4597   -3.0820 H   0  0  0  0  0  0  0  0  0  0  0  0
    1.8547   -0.8089   -3.2866 H   0  0  0  0  0  0  0  0  0  0  0  0
  1  2  1  0
  2  3  1  0
  3  4  1  0
  4  5  3  0
  5  6  1  0
  6  7  1  0
  7  8  1  0
  8  9  1  0
  1 10  1  0
  1 11  1  0
  1 12  1  0
  3 13  1  0
  3 14  1  0
  6 15  1  0
  6 16  1  0
  7 17  1  0
  7 18  1  0
  8 19  1  0
  8 20  1  0
  9 21  1  0
M  END
