
     RDKit          3D

 19 20  0  0  0  0  0  0  0  0999 V2000
    2.6917   -0.0071    0.9193 C   0  0  0  0  0  0  0  0  0  0  0  0
    1.8877   -1.0820    1.1689 O   0  0  0  0  0  0  0  0  0  0  0  0
    0.7732   -1.0671    0.3682 C   0  0  0  0  0  0  0  0  0  0  0  0
   -0.1534    0.0739    0.4802 C   0  0  0  0  0  0  0  0  0  0  0  0
    0.1461    1.3799    0.2303 O   0  0  0  0  0  0  0  0  0  0  0  0
   -0.5208    0.7650   -0.8172 C   0  0  0  0  0  0  0  0  0  0  0  0
   -1.9264    0.2586   -0.6260 C   0  0  0  0  0  0  0  0  0  0  0  0
   -1.6152   -0.1543    0.8183 C   0  0  0  0  0  0  0  0  0  0  0  0
   -2.0484    0.8335    1.7004 O   0  0  0  0  0  0  0  0  0  0  0  0
    2.1410    0.9211    1.1440 H   0  0  0  0  0  0  0  0  0  0  0  0
    3.0048    0.0478   -0.1571 H   0  0  0  0  0  0  0  0  0  0  0  0
    3.6039    0.0215    1.5623 H   0  0  0  0  0  0  0  0  0  0  0  0
    1.1240   -1.2211   -0.6937 H   0  0  0  0  0  0  0  0  0  0  0  0
    0.1799   -2.0098    0.5628 H   0  0  0  0  0  0  0  0  0  0  0  0
    0.0427    0.5692   -1.7262 H   0  0  0  0  0  0  0  0  0  0  0  0
   -2.7259    0.9977   -0.7250 H   0  0  0  0  0  0  0  0  0  0  0  0
   -2.0769   -0.6601   -1.2493 H   0  0  0  0  0  0  0  0  0  0  0  0
   -1.8955   -1.1793    1.0482 H   0  0  0  0  0  0  0  0  0  0  0  0
   -2.6324    1.5126    1.2475 H   0  0  0  0  0  0  0  0  0  0  0  0
  1  2  1  0
  2  3  1  0
  3  4  1  0
  4  5  1  0
  5  6  1  0
  6  7  1  0
  7  8  1  0
  8  9  1  0
  6  4  1  0
  8  4  1  0
  1 10  1  0
  1 11  1  0
  1 12  1  0
  3 13  1  0
  3 14  1  0
  6 15  1  0
  7 16  1  0
  7 17  1  0
  8 18  1  0
  9 19  1  0
M  END
