
     RDKit          3D

 19 19  0  0  0  0  0  0  0  0999 V2000
   -3.3975   -0.2573   -0.2506 C   0  0  0  0  0  0  0  0  0  0  0  0
   -2.0055   -0.1976   -0.1972 O   0  0  0  0  0  0  0  0  0  0  0  0
   -1.6358   -0.1672    1.1226 C   0  0  0  0  0  0  0  0  0  0  0  0
   -0.1661   -0.1027    1.3181 C   0  0  0  0  0  0  0  0  0  0  0  0
    0.3941   -0.0667    2.4168 O   0  0  0  0  0  0  0  0  0  0  0  0
    0.6287   -0.0816    0.1940 O   0  0  0  0  0  0  0  0  0  0  0  0
    2.0242   -0.0224    0.1946 C   0  0  0  0  0  0  0  0  0  0  0  0
    2.8921   -0.4510   -0.8790 C   0  0  0  0  0  0  0  0  0  0  0  0
    2.5867    0.9999   -0.8114 C   0  0  0  0  0  0  0  0  0  0  0  0
   -3.8676    0.6199    0.2377 H   0  0  0  0  0  0  0  0  0  0  0  0
   -3.7864   -1.1505    0.2824 H   0  0  0  0  0  0  0  0  0  0  0  0
   -3.7093   -0.2588   -1.3097 H   0  0  0  0  0  0  0  0  0  0  0  0
   -2.0286   -1.0510    1.6736 H   0  0  0  0  0  0  0  0  0  0  0  0
   -2.0673    0.7440    1.5875 H   0  0  0  0  0  0  0  0  0  0  0  0
    2.4527    0.0077    1.2330 H   0  0  0  0  0  0  0  0  0  0  0  0
    2.5485   -0.9683   -1.7995 H   0  0  0  0  0  0  0  0  0  0  0  0
    3.9352   -0.7446   -0.6150 H   0  0  0  0  0  0  0  0  0  0  0  0
    3.2960    1.7245   -0.3707 H   0  0  0  0  0  0  0  0  0  0  0  0
    1.9060    1.4237   -1.5537 H   0  0  0  0  0  0  0  0  0  0  0  0
  1  2  1  0
  2  3  1  0
  3  4  1  0
  4  5  2  0
  4  6  1  0
  6  7  1  0
  7  8  1  0
  8  9  1  0
  9  7  1  0
  1 10  1  0
  1 11  1  0
  1 12  1  0
  3 13  1  0
  3 14  1  0
  7 15  1  0
  8 16  1  0
  8 17  1  0
  9 18  1  0
  9 19  1  0
M  END
