
     RDKit          3D

 23 24  0  0  0  0  0  0  0  0999 V2000
    3.2940   -1.1620    0.3619 C   0  0  0  0  0  0  0  0  0  0  0  0
    2.1018   -0.5916    0.8026 O   0  0  0  0  0  0  0  0  0  0  0  0
    1.7209    0.3802   -0.1260 C   0  0  0  0  0  0  0  0  0  0  0  0
    0.4068    1.0280    0.3338 C   0  0  0  0  0  0  0  0  0  0  0  0
   -0.6643    0.0114    0.4387 C   0  0  0  0  0  0  0  0  0  0  0  0
   -2.0228    0.3821    0.8648 C   0  0  0  0  0  0  0  0  0  0  0  0
   -2.4637   -0.8626    0.1247 C   0  0  0  0  0  0  0  0  0  0  0  0
   -1.4728   -0.1865   -0.8092 C   0  0  0  0  0  0  0  0  0  0  0  0
   -2.1955    1.0538   -0.4737 C   0  0  0  0  0  0  0  0  0  0  0  0
    4.1063   -0.4416    0.2656 H   0  0  0  0  0  0  0  0  0  0  0  0
    3.5746   -1.9619    1.0958 H   0  0  0  0  0  0  0  0  0  0  0  0
    3.1148   -1.5872   -0.6586 H   0  0  0  0  0  0  0  0  0  0  0  0
    1.6073   -0.0979   -1.1186 H   0  0  0  0  0  0  0  0  0  0  0  0
    2.5265    1.1313   -0.1910 H   0  0  0  0  0  0  0  0  0  0  0  0
    0.6187    1.4291    1.3431 H   0  0  0  0  0  0  0  0  0  0  0  0
    0.2227    1.8282   -0.4093 H   0  0  0  0  0  0  0  0  0  0  0  0
   -0.2678   -0.9204    0.8953 H   0  0  0  0  0  0  0  0  0  0  0  0
   -2.3704    0.7019    1.7438 H   0  0  0  0  0  0  0  0  0  0  0  0
   -2.1541   -1.8172    0.5446 H   0  0  0  0  0  0  0  0  0  0  0  0
   -3.4776   -0.7514   -0.2561 H   0  0  0  0  0  0  0  0  0  0  0  0
   -1.1656   -0.5484   -1.6875 H   0  0  0  0  0  0  0  0  0  0  0  0
   -1.7613    2.0315   -0.6228 H   0  0  0  0  0  0  0  0  0  0  0  0
   -3.2786    0.9513   -0.7743 H   0  0  0  0  0  0  0  0  0  0  0  0
  1  2  1  0
  2  3  1  0
  3  4  1  0
  4  5  1  0
  5  6  1  0
  6  7  1  0
  7  8  1  0
  8  9  1  0
  8  5  1  0
  9  6  1  0
  1 10  1  0
  1 11  1  0
  1 12  1  0
  3 13  1  0
  3 14  1  0
  4 15  1  0
  4 16  1  0
  5 17  1  0
  6 18  1  0
  7 19  1  0
  7 20  1  0
  8 21  1  0
  9 22  1  0
  9 23  1  0
M  END
