
     RDKit          3D

 19 19  0  0  0  0  0  0  0  0999 V2000
    3.0560    0.1235   -0.8248 C   0  0  0  0  0  0  0  0  0  0  0  0
    1.7447   -0.1652   -1.1885 O   0  0  0  0  0  0  0  0  0  0  0  0
    0.9558   -0.2670   -0.0397 C   0  0  0  0  0  0  0  0  0  0  0  0
   -0.4806   -0.5810   -0.3968 C   0  0  0  0  0  0  0  0  0  0  0  0
   -1.2881   -0.6820    0.8754 C   0  0  0  0  0  0  0  0  0  0  0  0
   -2.2957    0.4462    0.8318 C   0  0  0  0  0  0  0  0  0  0  0  0
   -2.1151    1.0037   -0.5315 C   0  0  0  0  0  0  0  0  0  0  0  0
   -2.8310    1.9232   -1.0007 O   0  0  0  0  0  0  0  0  0  0  0  0
   -1.0709    0.3847   -1.2025 O   0  0  0  0  0  0  0  0  0  0  0  0
    3.7166    0.2138   -1.6905 H   0  0  0  0  0  0  0  0  0  0  0  0
    3.4819   -0.6673   -0.1576 H   0  0  0  0  0  0  0  0  0  0  0  0
    3.0599    1.0534   -0.1872 H   0  0  0  0  0  0  0  0  0  0  0  0
    1.3388   -1.0540    0.6430 H   0  0  0  0  0  0  0  0  0  0  0  0
    1.0292    0.6873    0.5242 H   0  0  0  0  0  0  0  0  0  0  0  0
   -0.4718   -1.5554   -0.9510 H   0  0  0  0  0  0  0  0  0  0  0  0
   -0.6428   -0.4995    1.7591 H   0  0  0  0  0  0  0  0  0  0  0  0
   -1.8020   -1.6663    0.9611 H   0  0  0  0  0  0  0  0  0  0  0  0
   -3.3225    0.0599    1.0033 H   0  0  0  0  0  0  0  0  0  0  0  0
   -2.0625    1.2420    1.5731 H   0  0  0  0  0  0  0  0  0  0  0  0
  1  2  1  0
  2  3  1  0
  3  4  1  0
  4  5  1  0
  5  6  1  0
  6  7  1  0
  7  8  2  0
  7  9  1  0
  9  4  1  0
  1 10  1  0
  1 11  1  0
  1 12  1  0
  3 13  1  0
  3 14  1  0
  4 15  1  0
  5 16  1  0
  5 17  1  0
  6 18  1  0
  6 19  1  0
M  END
