
     RDKit          3D

 21 21  0  0  0  0  0  0  0  0999 V2000
    3.4816    0.4421    0.0603 C   0  0  0  0  0  0  0  0  0  0  0  0
    2.1676    0.2380    0.5094 O   0  0  0  0  0  0  0  0  0  0  0  0
    1.6334   -0.8547   -0.1975 C   0  0  0  0  0  0  0  0  0  0  0  0
    0.2243   -1.0429    0.3109 C   0  0  0  0  0  0  0  0  0  0  0  0
   -0.4885    0.1238    0.0615 O   0  0  0  0  0  0  0  0  0  0  0  0
   -1.7670   -0.0488    0.5237 C   0  0  0  0  0  0  0  0  0  0  0  0
   -2.8021    0.4270   -0.4717 C   0  0  0  0  0  0  0  0  0  0  0  0
   -3.2790    1.3974    0.3776 O   0  0  0  0  0  0  0  0  0  0  0  0
   -2.2894    1.1260    1.3205 C   0  0  0  0  0  0  0  0  0  0  0  0
    3.8742    1.3044    0.6320 H   0  0  0  0  0  0  0  0  0  0  0  0
    4.1015   -0.4662    0.2816 H   0  0  0  0  0  0  0  0  0  0  0  0
    3.5228    0.5894   -1.0390 H   0  0  0  0  0  0  0  0  0  0  0  0
    1.5911   -0.5785   -1.2484 H   0  0  0  0  0  0  0  0  0  0  0  0
    2.2086   -1.7729    0.0252 H   0  0  0  0  0  0  0  0  0  0  0  0
   -0.2137   -1.9067   -0.2374 H   0  0  0  0  0  0  0  0  0  0  0  0
    0.2075   -1.2972    1.3829 H   0  0  0  0  0  0  0  0  0  0  0  0
   -1.9429   -1.0237    0.9692 H   0  0  0  0  0  0  0  0  0  0  0  0
   -3.5560   -0.3343   -0.7384 H   0  0  0  0  0  0  0  0  0  0  0  0
   -2.3492    0.8508   -1.3842 H   0  0  0  0  0  0  0  0  0  0  0  0
   -1.5922    1.9878    1.3820 H   0  0  0  0  0  0  0  0  0  0  0  0
   -2.7327    0.8390    2.3033 H   0  0  0  0  0  0  0  0  0  0  0  0
  1  2  1  0
  2  3  1  0
  3  4  1  0
  4  5  1  0
  5  6  1  0
  6  7  1  0
  7  8  1  0
  8  9  1  0
  9  6  1  0
  1 10  1  0
  1 11  1  0
  1 12  1  0
  3 13  1  0
  3 14  1  0
  4 15  1  0
  4 16  1  0
  6 17  1  0
  7 18  1  0
  7 19  1  0
  9 20  1  0
  9 21  1  0
M  END
