
     RDKit          3D

 20 20  0  0  0  0  0  0  0  0999 V2000
   -2.6610    0.9523    0.1555 C   0  0  0  0  0  0  0  0  0  0  0  0
   -1.4601    0.3838   -0.3020 O   0  0  0  0  0  0  0  0  0  0  0  0
   -1.1931   -0.6963    0.5134 C   0  0  0  0  0  0  0  0  0  0  0  0
    0.0507   -1.4448    0.1932 C   0  0  0  0  0  0  0  0  0  0  0  0
    1.3147   -0.6638    0.2658 C   0  0  0  0  0  0  0  0  0  0  0  0
    1.4751    0.5274   -0.6215 C   0  0  0  0  0  0  0  0  0  0  0  0
    2.3883    0.8874    0.5604 C   0  0  0  0  0  0  0  0  0  0  0  0
    1.4440    0.1932    1.3572 O   0  0  0  0  0  0  0  0  0  0  0  0
   -3.4253    0.1444    0.0618 H   0  0  0  0  0  0  0  0  0  0  0  0
   -2.9433    1.8429   -0.4318 H   0  0  0  0  0  0  0  0  0  0  0  0
   -2.5222    1.2804    1.2042 H   0  0  0  0  0  0  0  0  0  0  0  0
   -2.0431   -1.4221    0.4406 H   0  0  0  0  0  0  0  0  0  0  0  0
   -1.2000   -0.3450    1.5652 H   0  0  0  0  0  0  0  0  0  0  0  0
   -0.0752   -1.9161   -0.8120 H   0  0  0  0  0  0  0  0  0  0  0  0
    0.1384   -2.2919    0.9044 H   0  0  0  0  0  0  0  0  0  0  0  0
    2.2168   -1.3029    0.2124 H   0  0  0  0  0  0  0  0  0  0  0  0
    2.0315    0.3688   -1.5622 H   0  0  0  0  0  0  0  0  0  0  0  0
    0.6646    1.2585   -0.6617 H   0  0  0  0  0  0  0  0  0  0  0  0
    3.3281    0.2923    0.5775 H   0  0  0  0  0  0  0  0  0  0  0  0
    2.4711    1.9517    0.7702 H   0  0  0  0  0  0  0  0  0  0  0  0
  1  2  1  0
  2  3  1  0
  3  4  1  0
  4  5  1  0
  5  6  1  0
  6  7  1  0
  7  8  1  0
  8  5  1  0
  1  9  1  0
  1 10  1  0
  1 11  1  0
  3 12  1  0
  3 13  1  0
  4 14  1  0
  4 15  1  0
  5 16  1  0
  6 17  1  0
  6 18  1  0
  7 19  1  0
  7 20  1  0
M  END
