
     RDKit          3D

 18 17  0  0  0  0  0  0  0  0999 V2000
   -2.2016    0.3871   -0.5151 C   0  0  0  0  0  0  0  0  0  0  0  0
   -1.4345    1.0393    0.3831 O   0  0  0  0  0  0  0  0  0  0  0  0
   -0.4936    0.4166    1.1055 C   0  0  0  0  0  0  0  0  0  0  0  0
    0.6088   -0.2468    0.3189 C   0  0  0  0  0  0  0  0  0  0  0  0
    0.2217   -1.4288   -0.4732 C   0  0  0  0  0  0  0  0  0  0  0  0
    1.2083    0.7488   -0.4947 O   0  0  0  0  0  0  0  0  0  0  0  0
    2.5314    1.1161   -0.3174 C   0  0  0  0  0  0  0  0  0  0  0  0
    3.1635    0.5213    0.5976 O   0  0  0  0  0  0  0  0  0  0  0  0
   -1.7317   -0.0887   -1.3696 H   0  0  0  0  0  0  0  0  0  0  0  0
   -2.9589    1.1094   -0.9595 H   0  0  0  0  0  0  0  0  0  0  0  0
   -2.8897   -0.3667   -0.0103 H   0  0  0  0  0  0  0  0  0  0  0  0
    0.0346    1.2199    1.7198 H   0  0  0  0  0  0  0  0  0  0  0  0
   -0.8966   -0.2760    1.8955 H   0  0  0  0  0  0  0  0  0  0  0  0
    1.4020   -0.6209    1.0659 H   0  0  0  0  0  0  0  0  0  0  0  0
    0.2673   -1.2721   -1.5766 H   0  0  0  0  0  0  0  0  0  0  0  0
    0.9448   -2.2771   -0.2429 H   0  0  0  0  0  0  0  0  0  0  0  0
   -0.7592   -1.8590   -0.1842 H   0  0  0  0  0  0  0  0  0  0  0  0
    2.9834    1.8776   -0.9426 H   0  0  0  0  0  0  0  0  0  0  0  0
  1  2  1  0
  2  3  1  0
  3  4  1  0
  4  5  1  0
  4  6  1  0
  6  7  1  0
  7  8  2  0
  1  9  1  0
  1 10  1  0
  1 11  1  0
  3 12  1  0
  3 13  1  0
  4 14  1  0
  5 15  1  0
  5 16  1  0
  5 17  1  0
  7 18  1  0
M  END
