
     RDKit          3D

 21 20  0  0  0  0  0  0  0  0999 V2000
   -3.2540    0.6520    0.3750 C   0  0  0  0  0  0  0  0  0  0  0  0
   -2.2125    0.4120   -0.5155 O   0  0  0  0  0  0  0  0  0  0  0  0
   -1.0236    0.1873    0.1753 C   0  0  0  0  0  0  0  0  0  0  0  0
    0.1125   -0.0746   -0.7977 C   0  0  0  0  0  0  0  0  0  0  0  0
   -0.2192   -1.2660   -1.6030 C   0  0  0  0  0  0  0  0  0  0  0  0
   -0.9830   -2.0828   -1.1531 O   0  0  0  0  0  0  0  0  0  0  0  0
    1.4067   -0.3382   -0.0827 C   0  0  0  0  0  0  0  0  0  0  0  0
    1.7946    0.7435    0.7169 O   0  0  0  0  0  0  0  0  0  0  0  0
    2.9826    0.4141    1.3288 C   0  0  0  0  0  0  0  0  0  0  0  0
   -4.2099    0.8341   -0.1319 H   0  0  0  0  0  0  0  0  0  0  0  0
   -3.3780   -0.2518    1.0331 H   0  0  0  0  0  0  0  0  0  0  0  0
   -3.0603    1.5217    1.0359 H   0  0  0  0  0  0  0  0  0  0  0  0
   -0.8411    1.0900    0.7893 H   0  0  0  0  0  0  0  0  0  0  0  0
   -1.1790   -0.6807    0.8482 H   0  0  0  0  0  0  0  0  0  0  0  0
    0.2284    0.8435   -1.4042 H   0  0  0  0  0  0  0  0  0  0  0  0
    0.2047   -1.4156   -2.5738 H   0  0  0  0  0  0  0  0  0  0  0  0
    2.1960   -0.4274   -0.8676 H   0  0  0  0  0  0  0  0  0  0  0  0
    1.4118   -1.2937    0.4648 H   0  0  0  0  0  0  0  0  0  0  0  0
    3.7988    0.1995    0.5960 H   0  0  0  0  0  0  0  0  0  0  0  0
    2.8919   -0.3886    2.0699 H   0  0  0  0  0  0  0  0  0  0  0  0
    3.3326    1.3214    1.9024 H   0  0  0  0  0  0  0  0  0  0  0  0
  1  2  1  0
  2  3  1  0
  3  4  1  0
  4  5  1  0
  5  6  2  0
  4  7  1  0
  7  8  1  0
  8  9  1  0
  1 10  1  0
  1 11  1  0
  1 12  1  0
  3 13  1  0
  3 14  1  0
  4 15  1  0
  5 16  1  0
  7 17  1  0
  7 18  1  0
  9 19  1  0
  9 20  1  0
  9 21  1  0
M  END
