
     RDKit          3D

 21 22  0  0  0  0  0  0  0  0999 V2000
   -2.9358    0.6007    0.2721 C   0  0  0  0  0  0  0  0  0  0  0  0
   -2.0119   -0.4517    0.2162 O   0  0  0  0  0  0  0  0  0  0  0  0
   -0.7637    0.0574    0.5678 C   0  0  0  0  0  0  0  0  0  0  0  0
    0.2388   -1.0955    0.5048 C   0  0  0  0  0  0  0  0  0  0  0  0
    0.3334   -1.7217   -0.8945 C   0  0  0  0  0  0  0  0  0  0  0  0
    1.4605   -0.9714   -0.3140 C   0  0  0  0  0  0  0  0  0  0  0  0
    1.8028    0.4179   -0.7936 C   0  0  0  0  0  0  0  0  0  0  0  0
    2.0292    1.4227    0.3359 C   0  0  0  0  0  0  0  0  0  0  0  0
    3.0253    0.9689   -0.5247 O   0  0  0  0  0  0  0  0  0  0  0  0
   -2.6550    1.4186   -0.4325 H   0  0  0  0  0  0  0  0  0  0  0  0
   -3.9405    0.2293   -0.0673 H   0  0  0  0  0  0  0  0  0  0  0  0
   -2.9721    1.0070    1.2966 H   0  0  0  0  0  0  0  0  0  0  0  0
   -0.7467    0.5675    1.5300 H   0  0  0  0  0  0  0  0  0  0  0  0
   -0.5001    0.8279   -0.2134 H   0  0  0  0  0  0  0  0  0  0  0  0
    0.1940   -1.7749    1.3589 H   0  0  0  0  0  0  0  0  0  0  0  0
    0.3641   -2.8299   -0.9468 H   0  0  0  0  0  0  0  0  0  0  0  0
   -0.2047   -1.2346   -1.7226 H   0  0  0  0  0  0  0  0  0  0  0  0
    2.3335   -1.5918    0.0212 H   0  0  0  0  0  0  0  0  0  0  0  0
    1.3117    0.7409   -1.7122 H   0  0  0  0  0  0  0  0  0  0  0  0
    1.5266    2.3753    0.1607 H   0  0  0  0  0  0  0  0  0  0  0  0
    2.1106    1.0374    1.3574 H   0  0  0  0  0  0  0  0  0  0  0  0
  1  2  1  0
  2  3  1  0
  3  4  1  0
  4  5  1  0
  5  6  1  0
  6  7  1  0
  7  8  1  0
  8  9  1  0
  6  4  1  0
  9  7  1  0
  1 10  1  0
  1 11  1  0
  1 12  1  0
  3 13  1  0
  3 14  1  0
  4 15  1  0
  5 16  1  0
  5 17  1  0
  6 18  1  0
  7 19  1  0
  8 20  1  0
  8 21  1  0
M  END
