
     RDKit          3D

 18 17  0  0  0  0  0  0  0  0999 V2000
   -0.3835    1.1124   -2.6433 C   0  0  0  0  0  0  0  0  0  0  0  0
   -0.7502    0.6980   -1.3742 O   0  0  0  0  0  0  0  0  0  0  0  0
   -1.1161   -0.6207   -1.2992 C   0  0  0  0  0  0  0  0  0  0  0  0
   -1.4794   -0.8775    0.1609 C   0  0  0  0  0  0  0  0  0  0  0  0
   -0.2798   -0.5874    0.9656 C   0  0  0  0  0  0  0  0  0  0  0  0
    0.7104   -0.3470    1.6073 C   0  0  0  0  0  0  0  0  0  0  0  0
    1.9294   -0.0331    2.3782 C   0  0  0  0  0  0  0  0  0  0  0  0
    1.6610    0.0946    3.7327 O   0  0  0  0  0  0  0  0  0  0  0  0
   -0.1029    2.1752   -2.6323 H   0  0  0  0  0  0  0  0  0  0  0  0
    0.5154    0.5361   -2.9288 H   0  0  0  0  0  0  0  0  0  0  0  0
   -1.1848    0.9753   -3.3953 H   0  0  0  0  0  0  0  0  0  0  0  0
   -0.3008   -1.3217   -1.6160 H   0  0  0  0  0  0  0  0  0  0  0  0
   -2.0020   -0.8617   -1.9439 H   0  0  0  0  0  0  0  0  0  0  0  0
   -2.2753   -0.1163    0.3963 H   0  0  0  0  0  0  0  0  0  0  0  0
   -1.8784   -1.8739    0.3336 H   0  0  0  0  0  0  0  0  0  0  0  0
    2.6638   -0.8506    2.1983 H   0  0  0  0  0  0  0  0  0  0  0  0
    2.3859    0.9057    1.9697 H   0  0  0  0  0  0  0  0  0  0  0  0
    1.8874    0.9923    4.0902 H   0  0  0  0  0  0  0  0  0  0  0  0
  1  2  1  0
  2  3  1  0
  3  4  1  0
  4  5  1  0
  5  6  3  0
  6  7  1  0
  7  8  1  0
  1  9  1  0
  1 10  1  0
  1 11  1  0
  3 12  1  0
  3 13  1  0
  4 14  1  0
  4 15  1  0
  7 16  1  0
  7 17  1  0
  8 18  1  0
M  END
