
     RDKit          3D

 21 22  0  0  0  0  0  0  0  0999 V2000
    2.6306   -0.5178    0.8666 C   0  0  0  0  0  0  0  0  0  0  0  0
    1.9538   -0.6170   -0.3227 O   0  0  0  0  0  0  0  0  0  0  0  0
    1.0739    0.3916   -0.5964 C   0  0  0  0  0  0  0  0  0  0  0  0
    0.0163    0.5063    0.3900 C   0  0  0  0  0  0  0  0  0  0  0  0
   -1.0132    1.5963    0.1347 C   0  0  0  0  0  0  0  0  0  0  0  0
   -1.9839    1.0245   -0.5412 C   0  0  0  0  0  0  0  0  0  0  0  0
   -1.6657   -0.3531   -0.7554 C   0  0  0  0  0  0  0  0  0  0  0  0
   -1.5974   -1.5871   -0.0965 C   0  0  0  0  0  0  0  0  0  0  0  0
   -0.9594   -0.5711    0.6182 C   0  0  0  0  0  0  0  0  0  0  0  0
    1.9384   -0.5337    1.7251 H   0  0  0  0  0  0  0  0  0  0  0  0
    3.1974    0.4345    0.9730 H   0  0  0  0  0  0  0  0  0  0  0  0
    3.3376   -1.3616    0.9932 H   0  0  0  0  0  0  0  0  0  0  0  0
    0.8169    0.3814   -1.6726 H   0  0  0  0  0  0  0  0  0  0  0  0
    1.6773    1.3689   -0.5222 H   0  0  0  0  0  0  0  0  0  0  0  0
    0.5169    0.7576    1.3808 H   0  0  0  0  0  0  0  0  0  0  0  0
   -0.9410    2.6056    0.4481 H   0  0  0  0  0  0  0  0  0  0  0  0
   -2.8765    1.5478   -0.8708 H   0  0  0  0  0  0  0  0  0  0  0  0
   -1.0062   -0.3613   -1.6889 H   0  0  0  0  0  0  0  0  0  0  0  0
   -0.9596   -2.4300   -0.4736 H   0  0  0  0  0  0  0  0  0  0  0  0
   -2.5662   -2.0389    0.2512 H   0  0  0  0  0  0  0  0  0  0  0  0
   -1.5900   -0.2429    1.5259 H   0  0  0  0  0  0  0  0  0  0  0  0
  1  2  1  0
  2  3  1  0
  3  4  1  0
  4  5  1  0
  5  6  2  0
  6  7  1  0
  7  8  1  0
  8  9  1  0
  9  4  1  0
  9  7  1  0
  1 10  1  0
  1 11  1  0
  1 12  1  0
  3 13  1  0
  3 14  1  0
  4 15  1  0
  5 16  1  0
  6 17  1  0
  7 18  1  0
  8 19  1  0
  8 20  1  0
  9 21  1  0
M  END
