
     RDKit          3D

 19 19  0  0  0  0  0  0  0  0999 V2000
    3.0697    0.1463   -0.2010 C   0  0  0  0  0  0  0  0  0  0  0  0
    1.8470   -0.4021   -0.5308 O   0  0  0  0  0  0  0  0  0  0  0  0
    0.8408   -0.0377    0.3471 C   0  0  0  0  0  0  0  0  0  0  0  0
   -0.4469   -0.6678   -0.0742 C   0  0  0  0  0  0  0  0  0  0  0  0
   -0.9292   -0.3036   -1.4275 C   0  0  0  0  0  0  0  0  0  0  0  0
   -0.4314   -0.0991   -2.5082 O   0  0  0  0  0  0  0  0  0  0  0  0
   -2.3084   -0.2956   -0.8863 C   0  0  0  0  0  0  0  0  0  0  0  0
   -1.6954    0.0182    0.4831 C   0  0  0  0  0  0  0  0  0  0  0  0
   -1.4447    1.3763    0.6039 O   0  0  0  0  0  0  0  0  0  0  0  0
    3.4359   -0.1376    0.7847 H   0  0  0  0  0  0  0  0  0  0  0  0
    3.8086   -0.2043   -0.9466 H   0  0  0  0  0  0  0  0  0  0  0  0
    3.0554    1.2513   -0.2681 H   0  0  0  0  0  0  0  0  0  0  0  0
    1.1123   -0.4632    1.3400 H   0  0  0  0  0  0  0  0  0  0  0  0
    0.7305    1.0605    0.4438 H   0  0  0  0  0  0  0  0  0  0  0  0
   -0.4425   -1.7698    0.1019 H   0  0  0  0  0  0  0  0  0  0  0  0
   -2.7725   -1.3230   -0.9240 H   0  0  0  0  0  0  0  0  0  0  0  0
   -2.9749    0.4869   -1.2781 H   0  0  0  0  0  0  0  0  0  0  0  0
   -2.1589   -0.4833    1.3275 H   0  0  0  0  0  0  0  0  0  0  0  0
   -2.2957    1.8475    0.8599 H   0  0  0  0  0  0  0  0  0  0  0  0
  1  2  1  0
  2  3  1  0
  3  4  1  0
  4  5  1  0
  5  6  2  0
  5  7  1  0
  7  8  1  0
  8  9  1  0
  8  4  1  0
  1 10  1  0
  1 11  1  0
  1 12  1  0
  3 13  1  0
  3 14  1  0
  4 15  1  0
  7 16  1  0
  7 17  1  0
  8 18  1  0
  9 19  1  0
M  END
