
     RDKit          3D

 19 18  0  0  0  0  0  0  0  0999 V2000
   -2.3721    1.0727    0.9377 C   0  0  0  0  0  0  0  0  0  0  0  0
   -1.6979    0.0231    1.5373 O   0  0  0  0  0  0  0  0  0  0  0  0
   -1.4929   -1.0385    0.6947 C   0  0  0  0  0  0  0  0  0  0  0  0
   -0.6949   -0.7524   -0.5302 C   0  0  0  0  0  0  0  0  0  0  0  0
   -0.5994   -1.9596   -1.2504 O   0  0  0  0  0  0  0  0  0  0  0  0
    0.6182   -0.2745   -0.1200 C   0  0  0  0  0  0  0  0  0  0  0  0
    1.7181    0.1443    0.2135 C   0  0  0  0  0  0  0  0  0  0  0  0
    3.0239    0.6581    0.6304 C   0  0  0  0  0  0  0  0  0  0  0  0
    3.3734    1.6934   -0.2109 O   0  0  0  0  0  0  0  0  0  0  0  0
   -1.7571    1.4140    0.0805 H   0  0  0  0  0  0  0  0  0  0  0  0
   -3.3871    0.7559    0.5677 H   0  0  0  0  0  0  0  0  0  0  0  0
   -2.5647    1.9089    1.6356 H   0  0  0  0  0  0  0  0  0  0  0  0
   -0.9733   -1.8402    1.2592 H   0  0  0  0  0  0  0  0  0  0  0  0
   -2.5089   -1.4677    0.4600 H   0  0  0  0  0  0  0  0  0  0  0  0
   -1.1527   -0.0269   -1.2233 H   0  0  0  0  0  0  0  0  0  0  0  0
    0.1509   -2.4678   -0.8503 H   0  0  0  0  0  0  0  0  0  0  0  0
    2.9984    0.9903    1.6959 H   0  0  0  0  0  0  0  0  0  0  0  0
    3.8038   -0.1424    0.5766 H   0  0  0  0  0  0  0  0  0  0  0  0
    3.5146    1.3094   -1.1108 H   0  0  0  0  0  0  0  0  0  0  0  0
  1  2  1  0
  2  3  1  0
  3  4  1  0
  4  5  1  0
  4  6  1  0
  6  7  3  0
  7  8  1  0
  8  9  1  0
  1 10  1  0
  1 11  1  0
  1 12  1  0
  3 13  1  0
  3 14  1  0
  4 15  1  0
  5 16  1  0
  8 17  1  0
  8 18  1  0
  9 19  1  0
M  END
