
     RDKit          3D

 21 20  0  0  0  0  0  0  0  0999 V2000
   -2.9548    0.7493   -0.7469 C   0  0  0  0  0  0  0  0  0  0  0  0
   -1.8371    0.4865    0.0494 O   0  0  0  0  0  0  0  0  0  0  0  0
   -1.0233   -0.3761   -0.6530 C   0  0  0  0  0  0  0  0  0  0  0  0
    0.2303   -0.7440    0.1003 C   0  0  0  0  0  0  0  0  0  0  0  0
   -0.0441   -1.6023    1.2913 C   0  0  0  0  0  0  0  0  0  0  0  0
    0.9546    0.3862    0.3663 O   0  0  0  0  0  0  0  0  0  0  0  0
    2.1663    0.4674   -0.2604 C   0  0  0  0  0  0  0  0  0  0  0  0
    2.8357    1.7364    0.1185 C   0  0  0  0  0  0  0  0  0  0  0  0
    3.9506    2.0421   -0.3212 O   0  0  0  0  0  0  0  0  0  0  0  0
   -3.6407    1.4410   -0.2224 H   0  0  0  0  0  0  0  0  0  0  0  0
   -2.5590    1.2106   -1.6841 H   0  0  0  0  0  0  0  0  0  0  0  0
   -3.4741   -0.1821   -0.9995 H   0  0  0  0  0  0  0  0  0  0  0  0
   -1.6393   -1.2880   -0.8765 H   0  0  0  0  0  0  0  0  0  0  0  0
   -0.7431    0.0875   -1.6078 H   0  0  0  0  0  0  0  0  0  0  0  0
    0.8469   -1.3674   -0.6125 H   0  0  0  0  0  0  0  0  0  0  0  0
    0.9258   -1.8258    1.7795 H   0  0  0  0  0  0  0  0  0  0  0  0
   -0.4741   -2.5702    0.9100 H   0  0  0  0  0  0  0  0  0  0  0  0
   -0.7638   -1.1910    1.9991 H   0  0  0  0  0  0  0  0  0  0  0  0
    2.8659   -0.3532    0.0068 H   0  0  0  0  0  0  0  0  0  0  0  0
    2.0517    0.4935   -1.3715 H   0  0  0  0  0  0  0  0  0  0  0  0
    2.3255    2.3996    0.7953 H   0  0  0  0  0  0  0  0  0  0  0  0
  1  2  1  0
  2  3  1  0
  3  4  1  0
  4  5  1  0
  4  6  1  0
  6  7  1  0
  7  8  1  0
  8  9  2  0
  1 10  1  0
  1 11  1  0
  1 12  1  0
  3 13  1  0
  3 14  1  0
  4 15  1  0
  5 16  1  0
  5 17  1  0
  5 18  1  0
  7 19  1  0
  7 20  1  0
  8 21  1  0
M  END
