
     RDKit          3D

 21 21  0  0  0  0  0  0  0  0999 V2000
    3.5558    0.1009   -0.1189 C   0  0  0  0  0  0  0  0  0  0  0  0
    2.3255    0.2941    0.5351 O   0  0  0  0  0  0  0  0  0  0  0  0
    1.3943   -0.4710   -0.1540 C   0  0  0  0  0  0  0  0  0  0  0  0
    0.0080   -0.3778    0.4211 C   0  0  0  0  0  0  0  0  0  0  0  0
   -0.8287   -1.1667   -0.3300 O   0  0  0  0  0  0  0  0  0  0  0  0
   -1.7575   -0.3314   -0.9507 C   0  0  0  0  0  0  0  0  0  0  0  0
   -1.7986    0.8357    0.0212 C   0  0  0  0  0  0  0  0  0  0  0  0
   -2.6074    0.5049    1.2528 C   0  0  0  0  0  0  0  0  0  0  0  0
   -0.4579    0.9138    0.4039 O   0  0  0  0  0  0  0  0  0  0  0  0
    4.3742    0.6709    0.3539 H   0  0  0  0  0  0  0  0  0  0  0  0
    3.4089    0.3712   -1.1853 H   0  0  0  0  0  0  0  0  0  0  0  0
    3.7340   -0.9977   -0.1013 H   0  0  0  0  0  0  0  0  0  0  0  0
    1.7207   -1.5484   -0.1294 H   0  0  0  0  0  0  0  0  0  0  0  0
    1.4141   -0.1492   -1.2194 H   0  0  0  0  0  0  0  0  0  0  0  0
    0.0700   -0.7954    1.4664 H   0  0  0  0  0  0  0  0  0  0  0  0
   -2.7138   -0.8559   -0.9887 H   0  0  0  0  0  0  0  0  0  0  0  0
   -1.3976    0.0626   -1.9127 H   0  0  0  0  0  0  0  0  0  0  0  0
   -2.1496    1.7451   -0.4996 H   0  0  0  0  0  0  0  0  0  0  0  0
   -2.4202   -0.5680    1.4777 H   0  0  0  0  0  0  0  0  0  0  0  0
   -3.6734    0.6637    1.0677 H   0  0  0  0  0  0  0  0  0  0  0  0
   -2.2008    1.0987    2.0901 H   0  0  0  0  0  0  0  0  0  0  0  0
  1  2  1  0
  2  3  1  0
  3  4  1  0
  4  5  1  0
  5  6  1  0
  6  7  1  0
  7  8  1  0
  7  9  1  0
  9  4  1  0
  1 10  1  0
  1 11  1  0
  1 12  1  0
  3 13  1  0
  3 14  1  0
  4 15  1  0
  6 16  1  0
  6 17  1  0
  7 18  1  0
  8 19  1  0
  8 20  1  0
  8 21  1  0
M  END
