
     RDKit          3D

 21 21  0  0  0  0  0  0  0  0999 V2000
    3.4647    0.4837    0.1367 C   0  0  0  0  0  0  0  0  0  0  0  0
    2.3385   -0.2036    0.5950 O   0  0  0  0  0  0  0  0  0  0  0  0
    1.3334   -0.0165   -0.3261 C   0  0  0  0  0  0  0  0  0  0  0  0
    0.0488   -0.7101    0.0466 C   0  0  0  0  0  0  0  0  0  0  0  0
   -0.4643   -0.2702    1.2601 O   0  0  0  0  0  0  0  0  0  0  0  0
   -1.7966   -0.6778    1.2933 C   0  0  0  0  0  0  0  0  0  0  0  0
   -2.5844    0.2546    0.3764 C   0  0  0  0  0  0  0  0  0  0  0  0
   -1.7632    0.3890   -0.8905 C   0  0  0  0  0  0  0  0  0  0  0  0
   -0.8324   -0.6414   -0.9989 O   0  0  0  0  0  0  0  0  0  0  0  0
    4.3313    0.3869    0.8239 H   0  0  0  0  0  0  0  0  0  0  0  0
    3.7640    0.1724   -0.8714 H   0  0  0  0  0  0  0  0  0  0  0  0
    3.2163    1.5770    0.1234 H   0  0  0  0  0  0  0  0  0  0  0  0
    1.0885    1.0678   -0.4716 H   0  0  0  0  0  0  0  0  0  0  0  0
    1.6386   -0.4081   -1.3179 H   0  0  0  0  0  0  0  0  0  0  0  0
    0.3154   -1.7951    0.2004 H   0  0  0  0  0  0  0  0  0  0  0  0
   -2.2296   -0.6640    2.3070 H   0  0  0  0  0  0  0  0  0  0  0  0
   -1.9004   -1.6931    0.8678 H   0  0  0  0  0  0  0  0  0  0  0  0
   -3.5500   -0.2055    0.1439 H   0  0  0  0  0  0  0  0  0  0  0  0
   -2.7039    1.2160    0.9019 H   0  0  0  0  0  0  0  0  0  0  0  0
   -2.4439    0.3621   -1.7356 H   0  0  0  0  0  0  0  0  0  0  0  0
   -1.2708    1.3759   -0.8695 H   0  0  0  0  0  0  0  0  0  0  0  0
  1  2  1  0
  2  3  1  0
  3  4  1  0
  4  5  1  0
  5  6  1  0
  6  7  1  0
  7  8  1  0
  8  9  1  0
  9  4  1  0
  1 10  1  0
  1 11  1  0
  1 12  1  0
  3 13  1  0
  3 14  1  0
  4 15  1  0
  6 16  1  0
  6 17  1  0
  7 18  1  0
  7 19  1  0
  8 20  1  0
  8 21  1  0
M  END
