
     RDKit          3D

 20 20  0  0  0  0  0  0  0  0999 V2000
    3.1580   -0.1434    0.2418 C   0  0  0  0  0  0  0  0  0  0  0  0
    1.8352   -0.5304    0.3813 O   0  0  0  0  0  0  0  0  0  0  0  0
    0.9870    0.1330   -0.5004 C   0  0  0  0  0  0  0  0  0  0  0  0
   -0.4003   -0.3947   -0.2242 C   0  0  0  0  0  0  0  0  0  0  0  0
   -1.4470    0.2406   -1.1177 C   0  0  0  0  0  0  0  0  0  0  0  0
   -2.6730   -0.0118   -0.3174 C   0  0  0  0  0  0  0  0  0  0  0  0
   -2.3749   -0.1332    0.9695 C   0  0  0  0  0  0  0  0  0  0  0  0
   -0.9027    0.0305    1.1399 C   0  0  0  0  0  0  0  0  0  0  0  0
    3.7438   -0.7261    0.9833 H   0  0  0  0  0  0  0  0  0  0  0  0
    3.3250    0.9263    0.4060 H   0  0  0  0  0  0  0  0  0  0  0  0
    3.5707   -0.4078   -0.7611 H   0  0  0  0  0  0  0  0  0  0  0  0
    1.2952    0.0122   -1.5421 H   0  0  0  0  0  0  0  0  0  0  0  0
    0.9937    1.2418   -0.3047 H   0  0  0  0  0  0  0  0  0  0  0  0
   -0.4564   -1.4843   -0.3381 H   0  0  0  0  0  0  0  0  0  0  0  0
   -1.2510    1.3425   -1.2320 H   0  0  0  0  0  0  0  0  0  0  0  0
   -1.4811   -0.1982   -2.1202 H   0  0  0  0  0  0  0  0  0  0  0  0
   -3.6711   -0.0875   -0.7182 H   0  0  0  0  0  0  0  0  0  0  0  0
   -3.0522   -0.3227    1.8168 H   0  0  0  0  0  0  0  0  0  0  0  0
   -0.4954   -0.5950    1.9512 H   0  0  0  0  0  0  0  0  0  0  0  0
   -0.7035    1.1083    1.2864 H   0  0  0  0  0  0  0  0  0  0  0  0
  1  2  1  0
  2  3  1  0
  3  4  1  0
  4  5  1  0
  5  6  1  0
  6  7  2  0
  7  8  1  0
  8  4  1  0
  1  9  1  0
  1 10  1  0
  1 11  1  0
  3 12  1  0
  3 13  1  0
  4 14  1  0
  5 15  1  0
  5 16  1  0
  6 17  1  0
  7 18  1  0
  8 19  1  0
  8 20  1  0
M  END
