
     RDKit          3D

 19 19  0  0  0  0  0  0  0  0999 V2000
    3.0330    0.4988    0.3178 C   0  0  0  0  0  0  0  0  0  0  0  0
    1.6292    0.5793    0.3741 O   0  0  0  0  0  0  0  0  0  0  0  0
    1.1392   -0.4625   -0.3822 C   0  0  0  0  0  0  0  0  0  0  0  0
   -0.3649   -0.5096   -0.4187 C   0  0  0  0  0  0  0  0  0  0  0  0
   -0.8845    0.6845   -0.9706 O   0  0  0  0  0  0  0  0  0  0  0  0
   -2.2497    0.5053   -0.7489 C   0  0  0  0  0  0  0  0  0  0  0  0
   -2.2811    0.2051    0.7553 C   0  0  0  0  0  0  0  0  0  0  0  0
   -0.9830   -0.4889    0.9251 C   0  0  0  0  0  0  0  0  0  0  0  0
   -0.5191   -0.9422    1.9304 O   0  0  0  0  0  0  0  0  0  0  0  0
    3.5194    1.2982    0.8984 H   0  0  0  0  0  0  0  0  0  0  0  0
    3.3025    0.5551   -0.7574 H   0  0  0  0  0  0  0  0  0  0  0  0
    3.3472   -0.5228    0.6537 H   0  0  0  0  0  0  0  0  0  0  0  0
    1.4846   -1.4284    0.0366 H   0  0  0  0  0  0  0  0  0  0  0  0
    1.4817   -0.3729   -1.4393 H   0  0  0  0  0  0  0  0  0  0  0  0
   -0.7444   -1.3229   -1.0686 H   0  0  0  0  0  0  0  0  0  0  0  0
   -2.5622   -0.3776   -1.3205 H   0  0  0  0  0  0  0  0  0  0  0  0
   -2.8500    1.3970   -0.9735 H   0  0  0  0  0  0  0  0  0  0  0  0
   -3.1486   -0.4627    0.9270 H   0  0  0  0  0  0  0  0  0  0  0  0
   -2.3492    1.1671    1.2611 H   0  0  0  0  0  0  0  0  0  0  0  0
  1  2  1  0
  2  3  1  0
  3  4  1  0
  4  5  1  0
  5  6  1  0
  6  7  1  0
  7  8  1  0
  8  9  2  0
  8  4  1  0
  1 10  1  0
  1 11  1  0
  1 12  1  0
  3 13  1  0
  3 14  1  0
  4 15  1  0
  6 16  1  0
  6 17  1  0
  7 18  1  0
  7 19  1  0
M  END
