
     RDKit          3D

 16 16  0  0  0  0  0  0  0  0999 V2000
    2.4834    0.5578    0.0818 C   0  0  0  0  0  0  0  0  0  0  0  0
    1.1475    0.6031    0.4380 O   0  0  0  0  0  0  0  0  0  0  0  0
    0.4224   -0.1547   -0.4550 C   0  0  0  0  0  0  0  0  0  0  0  0
   -1.0602   -0.1521   -0.1260 C   0  0  0  0  0  0  0  0  0  0  0  0
   -1.7062    1.1660   -0.0818 C   0  0  0  0  0  0  0  0  0  0  0  0
   -2.8864    1.3429    0.1670 O   0  0  0  0  0  0  0  0  0  0  0  0
   -1.6667   -1.3647    0.2676 C   0  0  0  0  0  0  0  0  0  0  0  0
   -1.7227   -1.0048   -1.1643 O   0  0  0  0  0  0  0  0  0  0  0  0
    2.8223   -0.5146    0.1139 H   0  0  0  0  0  0  0  0  0  0  0  0
    3.1372    1.1489    0.7361 H   0  0  0  0  0  0  0  0  0  0  0  0
    2.5929    0.8996   -0.9862 H   0  0  0  0  0  0  0  0  0  0  0  0
    0.7738   -1.2043   -0.5116 H   0  0  0  0  0  0  0  0  0  0  0  0
    0.5044    0.3400   -1.4644 H   0  0  0  0  0  0  0  0  0  0  0  0
   -1.1142    2.0490   -0.2797 H   0  0  0  0  0  0  0  0  0  0  0  0
   -1.0305   -2.2629    0.4515 H   0  0  0  0  0  0  0  0  0  0  0  0
   -2.6970   -1.4492    0.6287 H   0  0  0  0  0  0  0  0  0  0  0  0
  1  2  1  0
  2  3  1  0
  3  4  1  0
  4  5  1  0
  5  6  2  0
  4  7  1  0
  7  8  1  0
  8  4  1  0
  1  9  1  0
  1 10  1  0
  1 11  1  0
  3 12  1  0
  3 13  1  0
  5 14  1  0
  7 15  1  0
  7 16  1  0
M  END
