
     RDKit          3D

 23 22  0  0  0  0  0  0  0  0999 V2000
    3.8939   -0.6581   -0.5286 C   0  0  0  0  0  0  0  0  0  0  0  0
    2.7820   -0.7558    0.3024 O   0  0  0  0  0  0  0  0  0  0  0  0
    1.8255    0.1409   -0.1832 C   0  0  0  0  0  0  0  0  0  0  0  0
    0.5703    0.0879    0.6849 C   0  0  0  0  0  0  0  0  0  0  0  0
   -0.3097    0.9921    0.1412 O   0  0  0  0  0  0  0  0  0  0  0  0
   -1.4993    1.0845    0.8096 C   0  0  0  0  0  0  0  0  0  0  0  0
   -2.2191   -0.2482    0.8196 C   0  0  0  0  0  0  0  0  0  0  0  0
   -2.4416   -0.6044   -0.6548 C   0  0  0  0  0  0  0  0  0  0  0  0
   -3.2236    0.4491   -1.1705 O   0  0  0  0  0  0  0  0  0  0  0  0
    3.5663   -0.9273   -1.5594 H   0  0  0  0  0  0  0  0  0  0  0  0
    4.1883    0.4140   -0.5580 H   0  0  0  0  0  0  0  0  0  0  0  0
    4.7395   -1.2827   -0.1825 H   0  0  0  0  0  0  0  0  0  0  0  0
    2.2713    1.1469   -0.1042 H   0  0  0  0  0  0  0  0  0  0  0  0
    1.5350   -0.0613   -1.2249 H   0  0  0  0  0  0  0  0  0  0  0  0
    0.7712    0.3406    1.7275 H   0  0  0  0  0  0  0  0  0  0  0  0
    0.1876   -0.9636    0.6313 H   0  0  0  0  0  0  0  0  0  0  0  0
   -2.1629    1.8778    0.3886 H   0  0  0  0  0  0  0  0  0  0  0  0
   -1.3041    1.4252    1.8607 H   0  0  0  0  0  0  0  0  0  0  0  0
   -1.6837   -1.0197    1.3671 H   0  0  0  0  0  0  0  0  0  0  0  0
   -3.2568   -0.0842    1.2350 H   0  0  0  0  0  0  0  0  0  0  0  0
   -2.9562   -1.5752   -0.7661 H   0  0  0  0  0  0  0  0  0  0  0  0
   -1.4511   -0.5645   -1.1268 H   0  0  0  0  0  0  0  0  0  0  0  0
   -3.8229    0.7860   -0.4366 H   0  0  0  0  0  0  0  0  0  0  0  0
  1  2  1  0
  2  3  1  0
  3  4  1  0
  4  5  1  0
  5  6  1  0
  6  7  1  0
  7  8  1  0
  8  9  1  0
  1 10  1  0
  1 11  1  0
  1 12  1  0
  3 13  1  0
  3 14  1  0
  4 15  1  0
  4 16  1  0
  6 17  1  0
  6 18  1  0
  7 19  1  0
  7 20  1  0
  8 21  1  0
  8 22  1  0
  9 23  1  0
M  END
