
     RDKit          3D

 17 17  0  0  0  0  0  0  0  0999 V2000
    2.6219    0.6154    0.0532 C   0  0  0  0  0  0  0  0  0  0  0  0
    1.4149    0.3003   -0.6063 O   0  0  0  0  0  0  0  0  0  0  0  0
    0.5322   -0.3170    0.2787 C   0  0  0  0  0  0  0  0  0  0  0  0
   -0.7356   -0.6241   -0.4982 C   0  0  0  0  0  0  0  0  0  0  0  0
   -1.8610   -1.0529    0.4433 C   0  0  0  0  0  0  0  0  0  0  0  0
   -2.2673    0.1898    0.9630 O   0  0  0  0  0  0  0  0  0  0  0  0
   -1.8261    1.2294    0.1364 C   0  0  0  0  0  0  0  0  0  0  0  0
   -1.9300    2.4753    0.3496 O   0  0  0  0  0  0  0  0  0  0  0  0
   -1.2471    0.6082   -0.9729 O   0  0  0  0  0  0  0  0  0  0  0  0
    3.0701   -0.3229    0.4316 H   0  0  0  0  0  0  0  0  0  0  0  0
    3.2890    1.2001   -0.5871 H   0  0  0  0  0  0  0  0  0  0  0  0
    2.3834    1.2472    0.9399 H   0  0  0  0  0  0  0  0  0  0  0  0
    0.9680   -1.2363    0.7249 H   0  0  0  0  0  0  0  0  0  0  0  0
    0.3184    0.3720    1.1136 H   0  0  0  0  0  0  0  0  0  0  0  0
   -0.5935   -1.3769   -1.2685 H   0  0  0  0  0  0  0  0  0  0  0  0
   -1.5208   -1.7666    1.2009 H   0  0  0  0  0  0  0  0  0  0  0  0
   -2.6165   -1.5410   -0.1905 H   0  0  0  0  0  0  0  0  0  0  0  0
  1  2  1  0
  2  3  1  0
  3  4  1  0
  4  5  1  0
  5  6  1  0
  6  7  1  0
  7  8  2  0
  7  9  1  0
  9  4  1  0
  1 10  1  0
  1 11  1  0
  1 12  1  0
  3 13  1  0
  3 14  1  0
  4 15  1  0
  5 16  1  0
  5 17  1  0
M  END
