
     RDKit          3D

 25 24  0  0  0  0  0  0  0  0999 V2000
    3.5633    0.8014    0.1194 C   0  0  0  0  0  0  0  0  0  0  0  0
    2.6419   -0.1801    0.5533 O   0  0  0  0  0  0  0  0  0  0  0  0
    1.3919    0.0842   -0.0835 C   0  0  0  0  0  0  0  0  0  0  0  0
    0.3766   -0.9166    0.3326 C   0  0  0  0  0  0  0  0  0  0  0  0
   -0.9778   -0.8445   -0.2271 C   0  0  0  0  0  0  0  0  0  0  0  0
   -1.7672   -2.0645    0.3818 C   0  0  0  0  0  0  0  0  0  0  0  0
   -1.8640    0.2997    0.0862 C   0  0  0  0  0  0  0  0  0  0  0  0
   -1.4692    1.6709   -0.2771 C   0  0  0  0  0  0  0  0  0  0  0  0
   -1.2195    1.8441   -1.6338 O   0  0  0  0  0  0  0  0  0  0  0  0
    4.5354    0.6444    0.5774 H   0  0  0  0  0  0  0  0  0  0  0  0
    3.6629    0.7520   -1.0021 H   0  0  0  0  0  0  0  0  0  0  0  0
    3.1540    1.8135    0.3319 H   0  0  0  0  0  0  0  0  0  0  0  0
    1.1853    1.1342    0.1583 H   0  0  0  0  0  0  0  0  0  0  0  0
    1.5851    0.0641   -1.1885 H   0  0  0  0  0  0  0  0  0  0  0  0
    0.8260   -1.9367    0.0882 H   0  0  0  0  0  0  0  0  0  0  0  0
    0.3086   -0.9860    1.4691 H   0  0  0  0  0  0  0  0  0  0  0  0
   -0.9690   -1.1108   -1.3127 H   0  0  0  0  0  0  0  0  0  0  0  0
   -1.6786   -1.9172    1.4777 H   0  0  0  0  0  0  0  0  0  0  0  0
   -2.8292   -1.9264    0.1117 H   0  0  0  0  0  0  0  0  0  0  0  0
   -1.3402   -2.9950    0.0102 H   0  0  0  0  0  0  0  0  0  0  0  0
   -2.1638    0.2068    1.1704 H   0  0  0  0  0  0  0  0  0  0  0  0
   -2.8542    0.0685   -0.4352 H   0  0  0  0  0  0  0  0  0  0  0  0
   -0.7416    2.2008    0.3085 H   0  0  0  0  0  0  0  0  0  0  0  0
   -2.4349    2.3020   -0.0898 H   0  0  0  0  0  0  0  0  0  0  0  0
   -0.9218    0.9912   -2.0231 H   0  0  0  0  0  0  0  0  0  0  0  0
  1  2  1  0
  2  3  1  0
  3  4  1  0
  4  5  1  0
  5  6  1  0
  5  7  1  0
  7  8  1  0
  8  9  1  0
  1 10  1  0
  1 11  1  0
  1 12  1  0
  3 13  1  0
  3 14  1  0
  4 15  1  0
  4 16  1  0
  5 17  1  0
  6 18  1  0
  6 19  1  0
  6 20  1  0
  7 21  1  0
  7 22  1  0
  8 23  1  0
  8 24  1  0
  9 25  1  0
M  END
