
     RDKit          3D

 19 19  0  0  0  0  0  0  0  0999 V2000
    2.6610    0.3525   -0.2707 C   0  0  0  0  0  0  0  0  0  0  0  0
    1.4289    0.3676    0.3806 O   0  0  0  0  0  0  0  0  0  0  0  0
    0.6412   -0.6724   -0.1337 C   0  0  0  0  0  0  0  0  0  0  0  0
   -0.6847   -0.6127    0.6059 C   0  0  0  0  0  0  0  0  0  0  0  0
   -1.5875   -1.6874    0.1207 C   0  0  0  0  0  0  0  0  0  0  0  0
   -1.8814   -2.8182    0.5735 O   0  0  0  0  0  0  0  0  0  0  0  0
   -1.8866   -0.8641   -0.9620 O   0  0  0  0  0  0  0  0  0  0  0  0
   -1.7269    0.2383   -0.0873 C   0  0  0  0  0  0  0  0  0  0  0  0
   -1.1953    1.4915   -0.7281 C   0  0  0  0  0  0  0  0  0  0  0  0
    3.3003    1.1708    0.1237 H   0  0  0  0  0  0  0  0  0  0  0  0
    3.1477   -0.6209   -0.1240 H   0  0  0  0  0  0  0  0  0  0  0  0
    2.5208    0.4956   -1.3803 H   0  0  0  0  0  0  0  0  0  0  0  0
    0.5170   -0.5811   -1.2173 H   0  0  0  0  0  0  0  0  0  0  0  0
    1.1862   -1.6178    0.0683 H   0  0  0  0  0  0  0  0  0  0  0  0
   -0.6035   -0.4821    1.6820 H   0  0  0  0  0  0  0  0  0  0  0  0
   -2.6081    0.3584    0.5467 H   0  0  0  0  0  0  0  0  0  0  0  0
   -0.4486    2.0031   -0.0815 H   0  0  0  0  0  0  0  0  0  0  0  0
   -2.0675    2.1728   -0.8712 H   0  0  0  0  0  0  0  0  0  0  0  0
   -0.7130    1.3061   -1.7071 H   0  0  0  0  0  0  0  0  0  0  0  0
  1  2  1  0
  2  3  1  0
  3  4  1  0
  4  5  1  0
  5  6  2  0
  5  7  1  0
  7  8  1  0
  8  9  1  0
  8  4  1  0
  1 10  1  0
  1 11  1  0
  1 12  1  0
  3 13  1  0
  3 14  1  0
  4 15  1  0
  8 16  1  0
  9 17  1  0
  9 18  1  0
  9 19  1  0
M  END
