
     RDKit          3D

 20 19  0  0  0  0  0  0  0  0999 V2000
    2.6014    0.6412   -0.2048 C   0  0  0  0  0  0  0  0  0  0  0  0
    1.4039    0.3289    0.4391 O   0  0  0  0  0  0  0  0  0  0  0  0
    0.6243   -0.3439   -0.5063 C   0  0  0  0  0  0  0  0  0  0  0  0
   -0.7175   -0.7447    0.0674 C   0  0  0  0  0  0  0  0  0  0  0  0
   -0.5878   -1.6559    1.2514 C   0  0  0  0  0  0  0  0  0  0  0  0
   -1.4944    0.4805    0.3788 C   0  0  0  0  0  0  0  0  0  0  0  0
   -1.8428    1.4551   -0.6826 C   0  0  0  0  0  0  0  0  0  0  0  0
   -1.8653    0.7173    1.5104 O   0  0  0  0  0  0  0  0  0  0  0  0
    3.0884   -0.3150   -0.5380 H   0  0  0  0  0  0  0  0  0  0  0  0
    3.3308    1.1375    0.4603 H   0  0  0  0  0  0  0  0  0  0  0  0
    2.4070    1.2698   -1.0725 H   0  0  0  0  0  0  0  0  0  0  0  0
    0.4514    0.3147   -1.3823 H   0  0  0  0  0  0  0  0  0  0  0  0
    1.1988   -1.2268   -0.8520 H   0  0  0  0  0  0  0  0  0  0  0  0
   -1.2246   -1.3426   -0.7404 H   0  0  0  0  0  0  0  0  0  0  0  0
   -0.7343   -1.1241    2.2012 H   0  0  0  0  0  0  0  0  0  0  0  0
    0.3909   -2.2015    1.2700 H   0  0  0  0  0  0  0  0  0  0  0  0
   -1.3642   -2.4725    1.2227 H   0  0  0  0  0  0  0  0  0  0  0  0
   -0.8705    1.8851   -1.0488 H   0  0  0  0  0  0  0  0  0  0  0  0
   -2.3738    0.8948   -1.4781 H   0  0  0  0  0  0  0  0  0  0  0  0
   -2.4218    2.3022   -0.2956 H   0  0  0  0  0  0  0  0  0  0  0  0
  1  2  1  0
  2  3  1  0
  3  4  1  0
  4  5  1  0
  4  6  1  0
  6  7  1  0
  6  8  2  0
  1  9  1  0
  1 10  1  0
  1 11  1  0
  3 12  1  0
  3 13  1  0
  4 14  1  0
  5 15  1  0
  5 16  1  0
  5 17  1  0
  7 18  1  0
  7 19  1  0
  7 20  1  0
M  END
