
     RDKit          3D

 22 21  0  0  0  0  0  0  0  0999 V2000
    2.8837    0.1756   -0.2939 C   0  0  0  0  0  0  0  0  0  0  0  0
    2.0140    0.7671    0.5800 O   0  0  0  0  0  0  0  0  0  0  0  0
    0.7254    0.9438    0.1322 C   0  0  0  0  0  0  0  0  0  0  0  0
    0.1358   -0.3872   -0.1970 C   0  0  0  0  0  0  0  0  0  0  0  0
    0.1051   -1.3117    1.0140 C   0  0  0  0  0  0  0  0  0  0  0  0
   -1.2278   -0.2935   -0.8363 C   0  0  0  0  0  0  0  0  0  0  0  0
   -2.2292    0.3982    0.0600 C   0  0  0  0  0  0  0  0  0  0  0  0
   -3.4450    0.4321   -0.6188 O   0  0  0  0  0  0  0  0  0  0  0  0
    2.9398    0.8122   -1.2143 H   0  0  0  0  0  0  0  0  0  0  0  0
    2.7525   -0.8849   -0.4940 H   0  0  0  0  0  0  0  0  0  0  0  0
    3.9106    0.3121    0.1650 H   0  0  0  0  0  0  0  0  0  0  0  0
    0.1195    1.5265    0.8536 H   0  0  0  0  0  0  0  0  0  0  0  0
    0.7009    1.5547   -0.8189 H   0  0  0  0  0  0  0  0  0  0  0  0
    0.7864   -0.8772   -0.9473 H   0  0  0  0  0  0  0  0  0  0  0  0
   -0.5041   -2.1822    0.7333 H   0  0  0  0  0  0  0  0  0  0  0  0
    1.1543   -1.6584    1.1540 H   0  0  0  0  0  0  0  0  0  0  0  0
   -0.2585   -0.7918    1.9168 H   0  0  0  0  0  0  0  0  0  0  0  0
   -1.1484    0.2607   -1.7679 H   0  0  0  0  0  0  0  0  0  0  0  0
   -1.5773   -1.3161   -1.0260 H   0  0  0  0  0  0  0  0  0  0  0  0
   -1.9409    1.4434    0.2819 H   0  0  0  0  0  0  0  0  0  0  0  0
   -2.3956   -0.1457    1.0059 H   0  0  0  0  0  0  0  0  0  0  0  0
   -3.5012    1.2222   -1.2263 H   0  0  0  0  0  0  0  0  0  0  0  0
  1  2  1  0
  2  3  1  0
  3  4  1  0
  4  5  1  0
  4  6  1  0
  6  7  1  0
  7  8  1  0
  1  9  1  0
  1 10  1  0
  1 11  1  0
  3 12  1  0
  3 13  1  0
  4 14  1  0
  5 15  1  0
  5 16  1  0
  5 17  1  0
  6 18  1  0
  6 19  1  0
  7 20  1  0
  7 21  1  0
  8 22  1  0
M  END
