
     RDKit          3D

 18 17  0  0  0  0  0  0  0  0999 V2000
    3.0355   -0.3511    0.3261 C   0  0  0  0  0  0  0  0  0  0  0  0
    2.0248    0.6187    0.1883 O   0  0  0  0  0  0  0  0  0  0  0  0
    0.8514   -0.0730   -0.0908 C   0  0  0  0  0  0  0  0  0  0  0  0
   -0.3061    0.8429   -0.2614 C   0  0  0  0  0  0  0  0  0  0  0  0
   -0.0876    2.0343   -0.1397 O   0  0  0  0  0  0  0  0  0  0  0  0
   -1.6646    0.3316   -0.5655 C   0  0  0  0  0  0  0  0  0  0  0  0
   -2.1501   -0.6708    0.4400 C   0  0  0  0  0  0  0  0  0  0  0  0
   -2.5744    1.3815   -0.6780 O   0  0  0  0  0  0  0  0  0  0  0  0
    3.0616   -0.8819   -0.6684 H   0  0  0  0  0  0  0  0  0  0  0  0
    4.0113    0.1104    0.5595 H   0  0  0  0  0  0  0  0  0  0  0  0
    2.7536   -1.1274    1.0726 H   0  0  0  0  0  0  0  0  0  0  0  0
    0.6745   -0.7613    0.7666 H   0  0  0  0  0  0  0  0  0  0  0  0
    1.0125   -0.6452   -1.0411 H   0  0  0  0  0  0  0  0  0  0  0  0
   -1.5978   -0.1341   -1.5929 H   0  0  0  0  0  0  0  0  0  0  0  0
   -3.1745   -0.3630    0.8018 H   0  0  0  0  0  0  0  0  0  0  0  0
   -1.4938   -0.8197    1.2959 H   0  0  0  0  0  0  0  0  0  0  0  0
   -2.2773   -1.6637   -0.0823 H   0  0  0  0  0  0  0  0  0  0  0  0
   -2.0990    2.1715   -1.0653 H   0  0  0  0  0  0  0  0  0  0  0  0
  1  2  1  0
  2  3  1  0
  3  4  1  0
  4  5  2  0
  4  6  1  0
  6  7  1  0
  6  8  1  0
  1  9  1  0
  1 10  1  0
  1 11  1  0
  3 12  1  0
  3 13  1  0
  6 14  1  0
  7 15  1  0
  7 16  1  0
  7 17  1  0
  8 18  1  0
M  END
