
     RDKit          3D

 23 22  0  0  0  0  0  0  0  0999 V2000
    3.0794    1.5126   -0.1224 C   0  0  0  0  0  0  0  0  0  0  0  0
    1.9626    1.3014   -0.9443 O   0  0  0  0  0  0  0  0  0  0  0  0
    1.1060    0.4610   -0.2143 C   0  0  0  0  0  0  0  0  0  0  0  0
   -0.1391    0.1359   -0.9509 C   0  0  0  0  0  0  0  0  0  0  0  0
   -1.0486   -0.7812   -0.1975 C   0  0  0  0  0  0  0  0  0  0  0  0
   -2.3173   -1.0697   -1.0323 C   0  0  0  0  0  0  0  0  0  0  0  0
   -0.4890   -2.0451   -0.0096 O   0  0  0  0  0  0  0  0  0  0  0  0
   -1.4677   -0.2705    1.1479 C   0  0  0  0  0  0  0  0  0  0  0  0
   -0.4155   -0.2088    2.0457 O   0  0  0  0  0  0  0  0  0  0  0  0
    3.8133    2.1702   -0.6229 H   0  0  0  0  0  0  0  0  0  0  0  0
    3.5334    0.5293    0.1574 H   0  0  0  0  0  0  0  0  0  0  0  0
    2.8039    2.0028    0.8367 H   0  0  0  0  0  0  0  0  0  0  0  0
    0.9232    1.0402    0.7385 H   0  0  0  0  0  0  0  0  0  0  0  0
    1.6990   -0.4212    0.0796 H   0  0  0  0  0  0  0  0  0  0  0  0
   -0.6968    1.0305   -1.2998 H   0  0  0  0  0  0  0  0  0  0  0  0
    0.1586   -0.3974   -1.9036 H   0  0  0  0  0  0  0  0  0  0  0  0
   -3.1108   -1.4017   -0.3658 H   0  0  0  0  0  0  0  0  0  0  0  0
   -2.5503   -0.1231   -1.5827 H   0  0  0  0  0  0  0  0  0  0  0  0
   -2.0165   -1.8115   -1.7995 H   0  0  0  0  0  0  0  0  0  0  0  0
   -0.0283   -2.1407    0.8457 H   0  0  0  0  0  0  0  0  0  0  0  0
   -2.3130   -0.8799    1.5765 H   0  0  0  0  0  0  0  0  0  0  0  0
   -1.9417    0.7489    1.0114 H   0  0  0  0  0  0  0  0  0  0  0  0
   -0.5447    0.6182    2.6064 H   0  0  0  0  0  0  0  0  0  0  0  0
  1  2  1  0
  2  3  1  0
  3  4  1  0
  4  5  1  0
  5  6  1  0
  5  7  1  0
  5  8  1  0
  8  9  1  0
  1 10  1  0
  1 11  1  0
  1 12  1  0
  3 13  1  0
  3 14  1  0
  4 15  1  0
  4 16  1  0
  6 17  1  0
  6 18  1  0
  6 19  1  0
  7 20  1  0
  8 21  1  0
  8 22  1  0
  9 23  1  0
M  END
