
     RDKit          3D

 23 23  0  0  0  0  0  0  0  0999 V2000
    3.0649    0.9588   -0.5070 C   0  0  0  0  0  0  0  0  0  0  0  0
    1.6832    0.9871   -0.7226 O   0  0  0  0  0  0  0  0  0  0  0  0
    1.1309    0.1341    0.2550 C   0  0  0  0  0  0  0  0  0  0  0  0
   -0.3985    0.0974    0.1000 C   0  0  0  0  0  0  0  0  0  0  0  0
   -0.9200    1.3083    0.2487 O   0  0  0  0  0  0  0  0  0  0  0  0
   -2.2446    1.5188    0.1536 C   0  0  0  0  0  0  0  0  0  0  0  0
   -0.7695   -0.8089   -1.0080 C   0  0  0  0  0  0  0  0  0  0  0  0
   -0.6697   -1.9711   -0.0064 C   0  0  0  0  0  0  0  0  0  0  0  0
   -0.9365   -0.9286    1.0808 C   0  0  0  0  0  0  0  0  0  0  0  0
    3.6167    1.5889   -1.2101 H   0  0  0  0  0  0  0  0  0  0  0  0
    3.2029    1.2992    0.5575 H   0  0  0  0  0  0  0  0  0  0  0  0
    3.4196   -0.1034   -0.5041 H   0  0  0  0  0  0  0  0  0  0  0  0
    1.5779   -0.8496    0.0893 H   0  0  0  0  0  0  0  0  0  0  0  0
    1.4086    0.4748    1.2615 H   0  0  0  0  0  0  0  0  0  0  0  0
   -2.9004    0.9987    0.8487 H   0  0  0  0  0  0  0  0  0  0  0  0
   -2.5511    1.3671   -0.9237 H   0  0  0  0  0  0  0  0  0  0  0  0
   -2.4356    2.6211    0.3213 H   0  0  0  0  0  0  0  0  0  0  0  0
   -1.7774   -0.7816   -1.4108 H   0  0  0  0  0  0  0  0  0  0  0  0
   -0.0247   -0.9114   -1.8338 H   0  0  0  0  0  0  0  0  0  0  0  0
    0.3116   -2.4489    0.0400 H   0  0  0  0  0  0  0  0  0  0  0  0
   -1.4675   -2.7100   -0.0830 H   0  0  0  0  0  0  0  0  0  0  0  0
   -1.9977   -0.7799    1.2657 H   0  0  0  0  0  0  0  0  0  0  0  0
   -0.3230   -1.0609    1.9873 H   0  0  0  0  0  0  0  0  0  0  0  0
  1  2  1  0
  2  3  1  0
  3  4  1  0
  4  5  1  0
  5  6  1  0
  4  7  1  0
  7  8  1  0
  8  9  1  0
  9  4  1  0
  1 10  1  0
  1 11  1  0
  1 12  1  0
  3 13  1  0
  3 14  1  0
  6 15  1  0
  6 16  1  0
  6 17  1  0
  7 18  1  0
  7 19  1  0
  8 20  1  0
  8 21  1  0
  9 22  1  0
  9 23  1  0
M  END
