
     RDKit          3D

 17 18  0  0  0  0  0  0  0  0999 V2000
    2.6758   -0.0404    0.2650 C   0  0  0  0  0  0  0  0  0  0  0  0
    1.4094    0.4829    0.1063 O   0  0  0  0  0  0  0  0  0  0  0  0
    0.4605   -0.5054   -0.1668 C   0  0  0  0  0  0  0  0  0  0  0  0
   -0.8695    0.1760   -0.3187 C   0  0  0  0  0  0  0  0  0  0  0  0
   -2.1057   -0.6106   -0.6187 C   0  0  0  0  0  0  0  0  0  0  0  0
   -1.9409    0.0274    0.6908 C   0  0  0  0  0  0  0  0  0  0  0  0
   -1.9426    1.4547    0.7694 O   0  0  0  0  0  0  0  0  0  0  0  0
   -0.9505    1.6349   -0.1701 C   0  0  0  0  0  0  0  0  0  0  0  0
   -0.3723    2.6057   -0.6753 O   0  0  0  0  0  0  0  0  0  0  0  0
    2.6194   -0.7584    1.1270 H   0  0  0  0  0  0  0  0  0  0  0  0
    3.3618    0.7988    0.4809 H   0  0  0  0  0  0  0  0  0  0  0  0
    3.0111   -0.6570   -0.6043 H   0  0  0  0  0  0  0  0  0  0  0  0
    0.4170   -1.1833    0.7102 H   0  0  0  0  0  0  0  0  0  0  0  0
    0.7629   -0.9988   -1.0995 H   0  0  0  0  0  0  0  0  0  0  0  0
   -1.9653   -1.6917   -0.6844 H   0  0  0  0  0  0  0  0  0  0  0  0
   -2.7471   -0.1713   -1.4171 H   0  0  0  0  0  0  0  0  0  0  0  0
   -1.8240   -0.5635    1.6052 H   0  0  0  0  0  0  0  0  0  0  0  0
  1  2  1  0
  2  3  1  0
  3  4  1  0
  4  5  1  0
  5  6  1  0
  6  7  1  0
  7  8  1  0
  8  9  2  0
  6  4  1  0
  8  4  1  0
  1 10  1  0
  1 11  1  0
  1 12  1  0
  3 13  1  0
  3 14  1  0
  5 15  1  0
  5 16  1  0
  6 17  1  0
M  END
