
     RDKit          3D

 21 22  0  0  0  0  0  0  0  0999 V2000
    3.3140    0.6867    0.0051 C   0  0  0  0  0  0  0  0  0  0  0  0
    2.0919    0.5229   -0.6284 O   0  0  0  0  0  0  0  0  0  0  0  0
    1.3087   -0.4618   -0.0299 C   0  0  0  0  0  0  0  0  0  0  0  0
    0.0236   -0.5260   -0.8194 C   0  0  0  0  0  0  0  0  0  0  0  0
   -0.9091   -1.4370   -0.4055 O   0  0  0  0  0  0  0  0  0  0  0  0
   -1.8921   -0.5210   -0.8474 C   0  0  0  0  0  0  0  0  0  0  0  0
   -2.1601    0.5805    0.0843 C   0  0  0  0  0  0  0  0  0  0  0  0
   -2.2447    0.1320    1.5472 C   0  0  0  0  0  0  0  0  0  0  0  0
   -0.8842    0.6486   -0.6154 C   0  0  0  0  0  0  0  0  0  0  0  0
    3.9305   -0.2312    0.0064 H   0  0  0  0  0  0  0  0  0  0  0  0
    3.8801    1.4411   -0.5834 H   0  0  0  0  0  0  0  0  0  0  0  0
    3.1875    1.0664    1.0283 H   0  0  0  0  0  0  0  0  0  0  0  0
    1.1251   -0.2246    1.0399 H   0  0  0  0  0  0  0  0  0  0  0  0
    1.8091   -1.4510   -0.0409 H   0  0  0  0  0  0  0  0  0  0  0  0
    0.2825   -0.7123   -1.9001 H   0  0  0  0  0  0  0  0  0  0  0  0
   -2.2676   -0.5927   -1.8620 H   0  0  0  0  0  0  0  0  0  0  0  0
   -2.9477    1.3206   -0.1705 H   0  0  0  0  0  0  0  0  0  0  0  0
   -1.2461   -0.2323    1.8143 H   0  0  0  0  0  0  0  0  0  0  0  0
   -2.6398    0.9255    2.1975 H   0  0  0  0  0  0  0  0  0  0  0  0
   -2.9379   -0.7310    1.6407 H   0  0  0  0  0  0  0  0  0  0  0  0
   -0.8237    1.3919   -1.4610 H   0  0  0  0  0  0  0  0  0  0  0  0
  1  2  1  0
  2  3  1  0
  3  4  1  0
  4  5  1  0
  5  6  1  0
  6  7  1  0
  7  8  1  0
  7  9  1  0
  9  4  1  0
  9  6  1  0
  1 10  1  0
  1 11  1  0
  1 12  1  0
  3 13  1  0
  3 14  1  0
  4 15  1  0
  6 16  1  0
  7 17  1  0
  8 18  1  0
  8 19  1  0
  8 20  1  0
  9 21  1  0
M  END
