
     RDKit          3D

 23 23  0  0  0  0  0  0  0  0999 V2000
   -3.0092    0.6006    0.7121 C   0  0  0  0  0  0  0  0  0  0  0  0
   -1.7447    0.5032    0.1350 O   0  0  0  0  0  0  0  0  0  0  0  0
   -1.7281   -0.6329   -0.6391 C   0  0  0  0  0  0  0  0  0  0  0  0
   -0.3865   -0.8485   -1.3271 C   0  0  0  0  0  0  0  0  0  0  0  0
    0.6496   -0.9713   -0.2451 C   0  0  0  0  0  0  0  0  0  0  0  0
    0.7104    0.2707    0.6006 C   0  0  0  0  0  0  0  0  0  0  0  0
    2.1935   -0.0380    0.5259 C   0  0  0  0  0  0  0  0  0  0  0  0
    3.0507    1.1494    0.1018 C   0  0  0  0  0  0  0  0  0  0  0  0
    1.9770   -0.8195   -0.6355 O   0  0  0  0  0  0  0  0  0  0  0  0
   -3.0348    1.5087    1.3359 H   0  0  0  0  0  0  0  0  0  0  0  0
   -3.1782   -0.3354    1.3039 H   0  0  0  0  0  0  0  0  0  0  0  0
   -3.7984    0.6069   -0.0633 H   0  0  0  0  0  0  0  0  0  0  0  0
   -2.5386   -0.6105   -1.4129 H   0  0  0  0  0  0  0  0  0  0  0  0
   -1.9817   -1.4884    0.0177 H   0  0  0  0  0  0  0  0  0  0  0  0
   -0.4995   -1.8116   -1.8928 H   0  0  0  0  0  0  0  0  0  0  0  0
   -0.1698   -0.0803   -2.0686 H   0  0  0  0  0  0  0  0  0  0  0  0
    0.4609   -1.9106    0.3316 H   0  0  0  0  0  0  0  0  0  0  0  0
    0.2316    0.1002    1.5729 H   0  0  0  0  0  0  0  0  0  0  0  0
    0.4707    1.2091    0.0712 H   0  0  0  0  0  0  0  0  0  0  0  0
    2.5556   -0.5941    1.3929 H   0  0  0  0  0  0  0  0  0  0  0  0
    2.3957    1.8166   -0.5096 H   0  0  0  0  0  0  0  0  0  0  0  0
    3.8663    0.7082   -0.5345 H   0  0  0  0  0  0  0  0  0  0  0  0
    3.5074    1.6674    0.9431 H   0  0  0  0  0  0  0  0  0  0  0  0
  1  2  1  0
  2  3  1  0
  3  4  1  0
  4  5  1  0
  5  6  1  0
  6  7  1  0
  7  8  1  0
  7  9  1  0
  9  5  1  0
  1 10  1  0
  1 11  1  0
  1 12  1  0
  3 13  1  0
  3 14  1  0
  4 15  1  0
  4 16  1  0
  5 17  1  0
  6 18  1  0
  6 19  1  0
  7 20  1  0
  8 21  1  0
  8 22  1  0
  8 23  1  0
M  END
