
     RDKit          3D

 21 21  0  0  0  0  0  0  0  0999 V2000
    1.8102    0.9428   -0.9370 C   0  0  0  0  0  0  0  0  0  0  0  0
    2.1810   -0.0827   -0.0732 O   0  0  0  0  0  0  0  0  0  0  0  0
    1.1117   -0.9343    0.1646 C   0  0  0  0  0  0  0  0  0  0  0  0
   -0.0535   -0.2159    0.7731 C   0  0  0  0  0  0  0  0  0  0  0  0
    0.2554    0.4405    2.0811 C   0  0  0  0  0  0  0  0  0  0  0  0
   -0.6587    1.0417    2.6277 O   0  0  0  0  0  0  0  0  0  0  0  0
   -1.3214   -1.0946    0.7450 C   0  0  0  0  0  0  0  0  0  0  0  0
   -1.2271    0.2158    0.0568 C   0  0  0  0  0  0  0  0  0  0  0  0
   -1.3838    0.2217   -1.4542 C   0  0  0  0  0  0  0  0  0  0  0  0
    1.4634    0.5299   -1.8973 H   0  0  0  0  0  0  0  0  0  0  0  0
    2.6633    1.6315   -1.1411 H   0  0  0  0  0  0  0  0  0  0  0  0
    0.9934    1.5153   -0.4899 H   0  0  0  0  0  0  0  0  0  0  0  0
    1.4664   -1.6771    0.9396 H   0  0  0  0  0  0  0  0  0  0  0  0
    0.8484   -1.4706   -0.7697 H   0  0  0  0  0  0  0  0  0  0  0  0
    1.2378    0.3624    2.4804 H   0  0  0  0  0  0  0  0  0  0  0  0
   -1.3449   -1.9755    0.0835 H   0  0  0  0  0  0  0  0  0  0  0  0
   -1.7688   -1.2267    1.7250 H   0  0  0  0  0  0  0  0  0  0  0  0
   -1.8311    1.0464    0.5228 H   0  0  0  0  0  0  0  0  0  0  0  0
   -1.2506    1.2516   -1.8483 H   0  0  0  0  0  0  0  0  0  0  0  0
   -0.7216   -0.4961   -1.9518 H   0  0  0  0  0  0  0  0  0  0  0  0
   -2.4696   -0.0263   -1.6371 H   0  0  0  0  0  0  0  0  0  0  0  0
  1  2  1  0
  2  3  1  0
  3  4  1  0
  4  5  1  0
  5  6  2  0
  4  7  1  0
  7  8  1  0
  8  9  1  0
  8  4  1  0
  1 10  1  0
  1 11  1  0
  1 12  1  0
  3 13  1  0
  3 14  1  0
  5 15  1  0
  7 16  1  0
  7 17  1  0
  8 18  1  0
  9 19  1  0
  9 20  1  0
  9 21  1  0
M  END
