
     RDKit          3D

 25 25  0  0  0  0  0  0  0  0999 V2000
    3.4151    0.4960   -0.5112 C   0  0  0  0  0  0  0  0  0  0  0  0
    2.2166   -0.1736   -0.7501 O   0  0  0  0  0  0  0  0  0  0  0  0
    1.2773    0.0508    0.2543 C   0  0  0  0  0  0  0  0  0  0  0  0
    0.0372   -0.7165   -0.1114 C   0  0  0  0  0  0  0  0  0  0  0  0
   -0.6070   -0.3486   -1.4130 C   0  0  0  0  0  0  0  0  0  0  0  0
   -1.9400   -0.5311   -0.7084 C   0  0  0  0  0  0  0  0  0  0  0  0
   -1.2052   -0.1482    0.5599 C   0  0  0  0  0  0  0  0  0  0  0  0
   -1.5371   -0.9186    1.7828 C   0  0  0  0  0  0  0  0  0  0  0  0
   -1.2017    1.3527    0.7191 C   0  0  0  0  0  0  0  0  0  0  0  0
    3.2390    1.5900   -0.4539 H   0  0  0  0  0  0  0  0  0  0  0  0
    4.0740    0.2704   -1.3798 H   0  0  0  0  0  0  0  0  0  0  0  0
    3.8679    0.1834    0.4458 H   0  0  0  0  0  0  0  0  0  0  0  0
    1.6749   -0.4301    1.1951 H   0  0  0  0  0  0  0  0  0  0  0  0
    1.0878    1.1129    0.4548 H   0  0  0  0  0  0  0  0  0  0  0  0
    0.0666   -1.7936    0.0360 H   0  0  0  0  0  0  0  0  0  0  0  0
   -0.4994   -1.0901   -2.2291 H   0  0  0  0  0  0  0  0  0  0  0  0
   -0.4142    0.6615   -1.7812 H   0  0  0  0  0  0  0  0  0  0  0  0
   -2.7086    0.1964   -1.0343 H   0  0  0  0  0  0  0  0  0  0  0  0
   -2.2678   -1.5779   -0.6920 H   0  0  0  0  0  0  0  0  0  0  0  0
   -0.5854   -1.1464    2.3176 H   0  0  0  0  0  0  0  0  0  0  0  0
   -2.1642   -0.3485    2.5137 H   0  0  0  0  0  0  0  0  0  0  0  0
   -1.9884   -1.8902    1.5205 H   0  0  0  0  0  0  0  0  0  0  0  0
   -1.0382    1.8598   -0.2461 H   0  0  0  0  0  0  0  0  0  0  0  0
   -0.5451    1.7121    1.5202 H   0  0  0  0  0  0  0  0  0  0  0  0
   -2.2540    1.6273    1.0210 H   0  0  0  0  0  0  0  0  0  0  0  0
  1  2  1  0
  2  3  1  0
  3  4  1  0
  4  5  1  0
  5  6  1  0
  6  7  1  0
  7  8  1  0
  7  9  1  0
  7  4  1  0
  1 10  1  0
  1 11  1  0
  1 12  1  0
  3 13  1  0
  3 14  1  0
  4 15  1  0
  5 16  1  0
  5 17  1  0
  6 18  1  0
  6 19  1  0
  8 20  1  0
  8 21  1  0
  8 22  1  0
  9 23  1  0
  9 24  1  0
  9 25  1  0
M  END
