
     RDKit          3D

 25 25  0  0  0  0  0  0  0  0999 V2000
   -2.5731    0.7918   -0.0991 C   0  0  0  0  0  0  0  0  0  0  0  0
   -1.7123    0.4736    0.9271 O   0  0  0  0  0  0  0  0  0  0  0  0
   -1.4081   -0.8628    1.0332 C   0  0  0  0  0  0  0  0  0  0  0  0
   -0.6918   -1.3491   -0.1642 C   0  0  0  0  0  0  0  0  0  0  0  0
    0.6174   -0.7438   -0.4756 C   0  0  0  0  0  0  0  0  0  0  0  0
    1.5499   -0.9860    0.6961 C   0  0  0  0  0  0  0  0  0  0  0  0
    0.6580    0.6419   -0.9870 C   0  0  0  0  0  0  0  0  0  0  0  0
    2.1180    1.1193   -1.2503 C   0  0  0  0  0  0  0  0  0  0  0  0
    1.2177    1.7927   -0.2855 C   0  0  0  0  0  0  0  0  0  0  0  0
   -3.5280    0.2272    0.1181 H   0  0  0  0  0  0  0  0  0  0  0  0
   -2.7588    1.8874   -0.0443 H   0  0  0  0  0  0  0  0  0  0  0  0
   -2.2260    0.5619   -1.1118 H   0  0  0  0  0  0  0  0  0  0  0  0
   -0.8646   -1.0421    1.9796 H   0  0  0  0  0  0  0  0  0  0  0  0
   -2.3959   -1.4084    1.0807 H   0  0  0  0  0  0  0  0  0  0  0  0
   -1.3677   -1.2856   -1.0464 H   0  0  0  0  0  0  0  0  0  0  0  0
   -0.5191   -2.4560   -0.0302 H   0  0  0  0  0  0  0  0  0  0  0  0
    1.0630   -1.3848   -1.3044 H   0  0  0  0  0  0  0  0  0  0  0  0
    1.2808   -2.0127    1.0815 H   0  0  0  0  0  0  0  0  0  0  0  0
    1.3942   -0.2763    1.5233 H   0  0  0  0  0  0  0  0  0  0  0  0
    2.6103   -1.0722    0.3823 H   0  0  0  0  0  0  0  0  0  0  0  0
   -0.0177    0.8109   -1.8687 H   0  0  0  0  0  0  0  0  0  0  0  0
    2.3142    1.5101   -2.2484 H   0  0  0  0  0  0  0  0  0  0  0  0
    2.9389    0.5471   -0.8148 H   0  0  0  0  0  0  0  0  0  0  0  0
    0.8506    2.7973   -0.5958 H   0  0  0  0  0  0  0  0  0  0  0  0
    1.4501    1.7184    0.7977 H   0  0  0  0  0  0  0  0  0  0  0  0
  1  2  1  0
  2  3  1  0
  3  4  1  0
  4  5  1  0
  5  6  1  0
  5  7  1  0
  7  8  1  0
  8  9  1  0
  9  7  1  0
  1 10  1  0
  1 11  1  0
  1 12  1  0
  3 13  1  0
  3 14  1  0
  4 15  1  0
  4 16  1  0
  5 17  1  0
  6 18  1  0
  6 19  1  0
  6 20  1  0
  7 21  1  0
  8 22  1  0
  8 23  1  0
  9 24  1  0
  9 25  1  0
M  END
