
     RDKit          3D

 20 20  0  0  0  0  0  0  0  0999 V2000
    3.3754   -0.4156   -0.2807 C   0  0  0  0  0  0  0  0  0  0  0  0
    2.0806    0.0362   -0.3608 O   0  0  0  0  0  0  0  0  0  0  0  0
    1.6113    0.4993    0.8894 C   0  0  0  0  0  0  0  0  0  0  0  0
    0.1827    0.9875    0.7566 C   0  0  0  0  0  0  0  0  0  0  0  0
   -0.5854   -0.0718    0.3256 O   0  0  0  0  0  0  0  0  0  0  0  0
   -1.9172    0.2041    0.1530 C   0  0  0  0  0  0  0  0  0  0  0  0
   -2.8532   -0.8931    0.6628 C   0  0  0  0  0  0  0  0  0  0  0  0
   -2.7932   -0.5139   -0.7856 C   0  0  0  0  0  0  0  0  0  0  0  0
    3.6760   -0.7596   -1.2837 H   0  0  0  0  0  0  0  0  0  0  0  0
    4.0742    0.4019    0.0097 H   0  0  0  0  0  0  0  0  0  0  0  0
    3.5205   -1.2365    0.4453 H   0  0  0  0  0  0  0  0  0  0  0  0
    1.6963   -0.3571    1.5741 H   0  0  0  0  0  0  0  0  0  0  0  0
    2.2612    1.3003    1.2854 H   0  0  0  0  0  0  0  0  0  0  0  0
    0.1743    1.8594    0.0832 H   0  0  0  0  0  0  0  0  0  0  0  0
   -0.1494    1.3357    1.7454 H   0  0  0  0  0  0  0  0  0  0  0  0
   -2.1816    1.2607    0.3912 H   0  0  0  0  0  0  0  0  0  0  0  0
   -2.4016   -1.8731    0.9108 H   0  0  0  0  0  0  0  0  0  0  0  0
   -3.6681   -0.5675    1.3080 H   0  0  0  0  0  0  0  0  0  0  0  0
   -3.7006    0.0252   -1.1426 H   0  0  0  0  0  0  0  0  0  0  0  0
   -2.4024   -1.2219   -1.5415 H   0  0  0  0  0  0  0  0  0  0  0  0
  1  2  1  0
  2  3  1  0
  3  4  1  0
  4  5  1  0
  5  6  1  0
  6  7  1  0
  7  8  1  0
  8  6  1  0
  1  9  1  0
  1 10  1  0
  1 11  1  0
  3 12  1  0
  3 13  1  0
  4 14  1  0
  4 15  1  0
  6 16  1  0
  7 17  1  0
  7 18  1  0
  8 19  1  0
  8 20  1  0
M  END
