
     RDKit          3D

 23 23  0  0  0  0  0  0  0  0999 V2000
    2.9143   -0.5382    1.5466 C   0  0  0  0  0  0  0  0  0  0  0  0
    1.5677   -0.5650    1.1838 O   0  0  0  0  0  0  0  0  0  0  0  0
    1.5025   -0.2383   -0.1611 C   0  0  0  0  0  0  0  0  0  0  0  0
    0.0834   -0.2303   -0.6898 C   0  0  0  0  0  0  0  0  0  0  0  0
    0.1924    0.1383   -2.1755 C   0  0  0  0  0  0  0  0  0  0  0  0
   -0.7217    0.6858   -0.0264 O   0  0  0  0  0  0  0  0  0  0  0  0
   -1.7879    0.0251    0.5310 C   0  0  0  0  0  0  0  0  0  0  0  0
   -2.0899    0.5056    1.9703 C   0  0  0  0  0  0  0  0  0  0  0  0
   -3.0754    0.7105    0.8032 C   0  0  0  0  0  0  0  0  0  0  0  0
    3.4418   -1.2759    0.9278 H   0  0  0  0  0  0  0  0  0  0  0  0
    3.3209    0.4663    1.2436 H   0  0  0  0  0  0  0  0  0  0  0  0
    3.0607   -0.6359    2.6194 H   0  0  0  0  0  0  0  0  0  0  0  0
    2.0492   -1.0053   -0.7712 H   0  0  0  0  0  0  0  0  0  0  0  0
    1.9954    0.7412   -0.3659 H   0  0  0  0  0  0  0  0  0  0  0  0
   -0.3057   -1.2677   -0.6228 H   0  0  0  0  0  0  0  0  0  0  0  0
    0.8011   -0.6666   -2.6370 H   0  0  0  0  0  0  0  0  0  0  0  0
    0.7956    1.0640   -2.2219 H   0  0  0  0  0  0  0  0  0  0  0  0
   -0.7960    0.2279   -2.6417 H   0  0  0  0  0  0  0  0  0  0  0  0
   -1.8251   -1.0660    0.3676 H   0  0  0  0  0  0  0  0  0  0  0  0
   -2.3211   -0.3124    2.6782 H   0  0  0  0  0  0  0  0  0  0  0  0
   -1.5863    1.4063    2.3375 H   0  0  0  0  0  0  0  0  0  0  0  0
   -3.9777    0.0677    0.8533 H   0  0  0  0  0  0  0  0  0  0  0  0
   -3.2380    1.7628    0.5077 H   0  0  0  0  0  0  0  0  0  0  0  0
  1  2  1  0
  2  3  1  0
  3  4  1  0
  4  5  1  0
  4  6  1  0
  6  7  1  0
  7  8  1  0
  8  9  1  0
  9  7  1  0
  1 10  1  0
  1 11  1  0
  1 12  1  0
  3 13  1  0
  3 14  1  0
  4 15  1  0
  5 16  1  0
  5 17  1  0
  5 18  1  0
  7 19  1  0
  8 20  1  0
  8 21  1  0
  9 22  1  0
  9 23  1  0
M  END
