
     RDKit          3D

 20 20  0  0  0  0  0  0  0  0999 V2000
    2.9846    0.1172    0.3342 C   0  0  0  0  0  0  0  0  0  0  0  0
    1.8562   -0.7180    0.3046 O   0  0  0  0  0  0  0  0  0  0  0  0
    0.8932   -0.0008   -0.4371 C   0  0  0  0  0  0  0  0  0  0  0  0
   -0.3842   -0.7700   -0.5589 C   0  0  0  0  0  0  0  0  0  0  0  0
   -1.1609   -1.1788    0.6341 C   0  0  0  0  0  0  0  0  0  0  0  0
   -1.6241   -0.0383   -0.1996 C   0  0  0  0  0  0  0  0  0  0  0  0
   -1.5591    1.3231    0.4107 C   0  0  0  0  0  0  0  0  0  0  0  0
   -2.7107   -0.2492   -1.0471 O   0  0  0  0  0  0  0  0  0  0  0  0
    3.8073   -0.3607    0.9003 H   0  0  0  0  0  0  0  0  0  0  0  0
    2.7348    1.0856    0.8290 H   0  0  0  0  0  0  0  0  0  0  0  0
    3.2434    0.3275   -0.7111 H   0  0  0  0  0  0  0  0  0  0  0  0
    0.7811    0.9679    0.0939 H   0  0  0  0  0  0  0  0  0  0  0  0
    1.2787    0.1931   -1.4591 H   0  0  0  0  0  0  0  0  0  0  0  0
   -0.3810   -1.4974   -1.4099 H   0  0  0  0  0  0  0  0  0  0  0  0
   -1.7674   -2.0992    0.5633 H   0  0  0  0  0  0  0  0  0  0  0  0
   -0.6837   -1.0301    1.6137 H   0  0  0  0  0  0  0  0  0  0  0  0
   -1.2617    2.0441   -0.3816 H   0  0  0  0  0  0  0  0  0  0  0  0
   -2.5706    1.5719    0.8391 H   0  0  0  0  0  0  0  0  0  0  0  0
   -0.8485    1.4235    1.2338 H   0  0  0  0  0  0  0  0  0  0  0  0
   -2.6273   -1.1113   -1.5522 H   0  0  0  0  0  0  0  0  0  0  0  0
  1  2  1  0
  2  3  1  0
  3  4  1  0
  4  5  1  0
  5  6  1  0
  6  7  1  0
  6  8  1  0
  6  4  1  0
  1  9  1  0
  1 10  1  0
  1 11  1  0
  3 12  1  0
  3 13  1  0
  4 14  1  0
  5 15  1  0
  5 16  1  0
  7 17  1  0
  7 18  1  0
  7 19  1  0
  8 20  1  0
M  END
