
     RDKit          3D

 21 21  0  0  0  0  0  0  0  0999 V2000
    2.9325    0.5724   -0.1645 C   0  0  0  0  0  0  0  0  0  0  0  0
    2.0060    0.0811   -1.0820 O   0  0  0  0  0  0  0  0  0  0  0  0
    1.1195   -0.8152   -0.4948 C   0  0  0  0  0  0  0  0  0  0  0  0
    0.3242   -0.2004    0.6257 C   0  0  0  0  0  0  0  0  0  0  0  0
   -0.5168    0.9732    0.1965 C   0  0  0  0  0  0  0  0  0  0  0  0
   -1.7138    0.2364    0.7099 C   0  0  0  0  0  0  0  0  0  0  0  0
   -2.7661   -0.1208   -0.2934 C   0  0  0  0  0  0  0  0  0  0  0  0
   -0.8675   -0.9808    0.9946 C   0  0  0  0  0  0  0  0  0  0  0  0
   -1.2147   -2.0777    1.3704 O   0  0  0  0  0  0  0  0  0  0  0  0
    3.5236   -0.2597    0.2624 H   0  0  0  0  0  0  0  0  0  0  0  0
    3.6219    1.2336   -0.7342 H   0  0  0  0  0  0  0  0  0  0  0  0
    2.4380    1.1728    0.6067 H   0  0  0  0  0  0  0  0  0  0  0  0
    0.4251   -1.1395   -1.3143 H   0  0  0  0  0  0  0  0  0  0  0  0
    1.6790   -1.6902   -0.0941 H   0  0  0  0  0  0  0  0  0  0  0  0
    0.9926    0.0344    1.4937 H   0  0  0  0  0  0  0  0  0  0  0  0
   -0.3007    1.8745    0.8188 H   0  0  0  0  0  0  0  0  0  0  0  0
   -0.5195    1.2007   -0.8750 H   0  0  0  0  0  0  0  0  0  0  0  0
   -2.1436    0.6609    1.6507 H   0  0  0  0  0  0  0  0  0  0  0  0
   -2.2596   -0.4240   -1.2319 H   0  0  0  0  0  0  0  0  0  0  0  0
   -3.4784    0.7107   -0.4566 H   0  0  0  0  0  0  0  0  0  0  0  0
   -3.2815   -1.0424    0.0856 H   0  0  0  0  0  0  0  0  0  0  0  0
  1  2  1  0
  2  3  1  0
  3  4  1  0
  4  5  1  0
  5  6  1  0
  6  7  1  0
  6  8  1  0
  8  9  2  0
  8  4  1  0
  1 10  1  0
  1 11  1  0
  1 12  1  0
  3 13  1  0
  3 14  1  0
  4 15  1  0
  5 16  1  0
  5 17  1  0
  6 18  1  0
  7 19  1  0
  7 20  1  0
  7 21  1  0
M  END
