
     RDKit          3D

 21 22  0  0  0  0  0  0  0  0999 V2000
    3.2266   -0.6138   -0.2218 C   0  0  0  0  0  0  0  0  0  0  0  0
    2.0800    0.1692   -0.3329 O   0  0  0  0  0  0  0  0  0  0  0  0
    1.3216    0.1437    0.8333 C   0  0  0  0  0  0  0  0  0  0  0  0
    0.0994    1.0402    0.5734 C   0  0  0  0  0  0  0  0  0  0  0  0
   -0.7194    0.6418   -0.4933 C   0  0  0  0  0  0  0  0  0  0  0  0
   -1.5261   -0.5618   -0.7847 C   0  0  0  0  0  0  0  0  0  0  0  0
   -2.8430   -0.0751   -0.1416 C   0  0  0  0  0  0  0  0  0  0  0  0
   -2.4570    0.9823    0.7257 O   0  0  0  0  0  0  0  0  0  0  0  0
   -1.1847    0.6551    1.0221 C   0  0  0  0  0  0  0  0  0  0  0  0
    3.7973   -0.5630   -1.1716 H   0  0  0  0  0  0  0  0  0  0  0  0
    3.9157   -0.2365    0.5763 H   0  0  0  0  0  0  0  0  0  0  0  0
    3.0279   -1.6662   -0.0157 H   0  0  0  0  0  0  0  0  0  0  0  0
    1.8869    0.5388    1.6820 H   0  0  0  0  0  0  0  0  0  0  0  0
    0.9949   -0.9129    0.9789 H   0  0  0  0  0  0  0  0  0  0  0  0
    0.3970    2.1027    0.7017 H   0  0  0  0  0  0  0  0  0  0  0  0
   -1.1359    1.4985   -1.1146 H   0  0  0  0  0  0  0  0  0  0  0  0
   -1.6526   -0.8098   -1.8333 H   0  0  0  0  0  0  0  0  0  0  0  0
   -1.2443   -1.4637   -0.1638 H   0  0  0  0  0  0  0  0  0  0  0  0
   -3.4480    0.3629   -0.9732 H   0  0  0  0  0  0  0  0  0  0  0  0
   -3.3488   -0.8795    0.3957 H   0  0  0  0  0  0  0  0  0  0  0  0
   -1.1874   -0.3530    1.5418 H   0  0  0  0  0  0  0  0  0  0  0  0
  1  2  1  0
  2  3  1  0
  3  4  1  0
  4  5  1  0
  5  6  1  0
  6  7  1  0
  7  8  1  0
  8  9  1  0
  9  4  1  0
  9  5  1  0
  1 10  1  0
  1 11  1  0
  1 12  1  0
  3 13  1  0
  3 14  1  0
  4 15  1  0
  5 16  1  0
  6 17  1  0
  6 18  1  0
  7 19  1  0
  7 20  1  0
  9 21  1  0
M  END
