
     RDKit          3D

 23 22  0  0  0  0  0  0  0  0999 V2000
    4.3905    0.0441    0.0935 C   0  0  0  0  0  0  0  0  0  0  0  0
    3.0359    0.3504    0.2345 O   0  0  0  0  0  0  0  0  0  0  0  0
    2.3261   -0.6929   -0.3502 C   0  0  0  0  0  0  0  0  0  0  0  0
    0.8979   -0.4023   -0.2191 C   0  0  0  0  0  0  0  0  0  0  0  0
   -0.2936   -0.1491   -0.0908 C   0  0  0  0  0  0  0  0  0  0  0  0
   -1.7180    0.1448    0.0680 C   0  0  0  0  0  0  0  0  0  0  0  0
   -2.1461    1.2686   -0.8810 C   0  0  0  0  0  0  0  0  0  0  0  0
   -2.5523   -1.0902   -0.1649 C   0  0  0  0  0  0  0  0  0  0  0  0
   -1.9829    0.6172    1.4837 C   0  0  0  0  0  0  0  0  0  0  0  0
    4.6216   -0.0434   -1.0051 H   0  0  0  0  0  0  0  0  0  0  0  0
    4.5818   -0.9400    0.5595 H   0  0  0  0  0  0  0  0  0  0  0  0
    4.9726    0.8680    0.5475 H   0  0  0  0  0  0  0  0  0  0  0  0
    2.6182   -0.8185   -1.4290 H   0  0  0  0  0  0  0  0  0  0  0  0
    2.5325   -1.6701    0.1428 H   0  0  0  0  0  0  0  0  0  0  0  0
   -1.2280    1.6136   -1.4210 H   0  0  0  0  0  0  0  0  0  0  0  0
   -2.8248    0.8288   -1.6334 H   0  0  0  0  0  0  0  0  0  0  0  0
   -2.6110    2.1032   -0.3216 H   0  0  0  0  0  0  0  0  0  0  0  0
   -1.9982   -2.0096    0.1442 H   0  0  0  0  0  0  0  0  0  0  0  0
   -3.5012   -1.0410    0.4467 H   0  0  0  0  0  0  0  0  0  0  0  0
   -2.8649   -1.2155   -1.2025 H   0  0  0  0  0  0  0  0  0  0  0  0
   -2.8283    1.3293    1.4406 H   0  0  0  0  0  0  0  0  0  0  0  0
   -1.1118    1.1444    1.9141 H   0  0  0  0  0  0  0  0  0  0  0  0
   -2.3160   -0.2399    2.0879 H   0  0  0  0  0  0  0  0  0  0  0  0
  1  2  1  0
  2  3  1  0
  3  4  1  0
  4  5  3  0
  5  6  1  0
  6  7  1  0
  6  8  1  0
  6  9  1  0
  1 10  1  0
  1 11  1  0
  1 12  1  0
  3 13  1  0
  3 14  1  0
  7 15  1  0
  7 16  1  0
  7 17  1  0
  8 18  1  0
  8 19  1  0
  8 20  1  0
  9 21  1  0
  9 22  1  0
  9 23  1  0
M  END
