
     RDKit          3D

 20 19  0  0  0  0  0  0  0  0999 V2000
    2.7848   -0.1859    0.5166 C   0  0  0  0  0  0  0  0  0  0  0  0
    1.4337    0.0724    0.8241 O   0  0  0  0  0  0  0  0  0  0  0  0
    0.7099   -0.1999   -0.3259 C   0  0  0  0  0  0  0  0  0  0  0  0
   -0.7639    0.0296   -0.1582 C   0  0  0  0  0  0  0  0  0  0  0  0
   -1.0704    1.4598    0.2092 C   0  0  0  0  0  0  0  0  0  0  0  0
   -1.4034   -0.8944    0.8320 C   0  0  0  0  0  0  0  0  0  0  0  0
   -1.3969   -0.2585   -1.4987 C   0  0  0  0  0  0  0  0  0  0  0  0
   -1.3310   -1.4217   -1.8626 O   0  0  0  0  0  0  0  0  0  0  0  0
    3.4512   -0.0001    1.3672 H   0  0  0  0  0  0  0  0  0  0  0  0
    3.0737    0.5276   -0.3064 H   0  0  0  0  0  0  0  0  0  0  0  0
    2.8054   -1.2395    0.1538 H   0  0  0  0  0  0  0  0  0  0  0  0
    0.8786   -1.2049   -0.7249 H   0  0  0  0  0  0  0  0  0  0  0  0
    1.0597    0.5141   -1.1130 H   0  0  0  0  0  0  0  0  0  0  0  0
   -1.6822    1.5462    1.1322 H   0  0  0  0  0  0  0  0  0  0  0  0
   -0.1516    2.0730    0.3490 H   0  0  0  0  0  0  0  0  0  0  0  0
   -1.6590    1.9573   -0.5921 H   0  0  0  0  0  0  0  0  0  0  0  0
   -0.8721   -0.8769    1.8088 H   0  0  0  0  0  0  0  0  0  0  0  0
   -2.4450   -0.4983    1.0111 H   0  0  0  0  0  0  0  0  0  0  0  0
   -1.5574   -1.9263    0.4455 H   0  0  0  0  0  0  0  0  0  0  0  0
   -1.8642    0.5267   -2.0676 H   0  0  0  0  0  0  0  0  0  0  0  0
  1  2  1  0
  2  3  1  0
  3  4  1  0
  4  5  1  0
  4  6  1  0
  4  7  1  0
  7  8  2  0
  1  9  1  0
  1 10  1  0
  1 11  1  0
  3 12  1  0
  3 13  1  0
  5 14  1  0
  5 15  1  0
  5 16  1  0
  6 17  1  0
  6 18  1  0
  6 19  1  0
  7 20  1  0
M  END
