
     RDKit          3D

 25 25  0  0  0  0  0  0  0  0999 V2000
    3.3785   -0.0400   -0.1900 C   0  0  0  0  0  0  0  0  0  0  0  0
    2.5139   -0.8379    0.5212 O   0  0  0  0  0  0  0  0  0  0  0  0
    1.3983   -0.1349    0.8810 C   0  0  0  0  0  0  0  0  0  0  0  0
    0.5847    0.4252   -0.2384 C   0  0  0  0  0  0  0  0  0  0  0  0
    0.0951   -0.6968   -1.1379 C   0  0  0  0  0  0  0  0  0  0  0  0
   -1.4134   -0.6848   -1.0262 C   0  0  0  0  0  0  0  0  0  0  0  0
   -1.5993   -0.1688    0.3856 C   0  0  0  0  0  0  0  0  0  0  0  0
   -3.0343    0.2104    0.6639 C   0  0  0  0  0  0  0  0  0  0  0  0
   -0.6738    1.0143    0.3942 C   0  0  0  0  0  0  0  0  0  0  0  0
    2.9128    0.3318   -1.1032 H   0  0  0  0  0  0  0  0  0  0  0  0
    3.7058    0.8343    0.4257 H   0  0  0  0  0  0  0  0  0  0  0  0
    4.3299   -0.5906   -0.4220 H   0  0  0  0  0  0  0  0  0  0  0  0
    1.6342    0.7279    1.5686 H   0  0  0  0  0  0  0  0  0  0  0  0
    0.7405   -0.8157    1.4619 H   0  0  0  0  0  0  0  0  0  0  0  0
    1.0963    1.1726   -0.8590 H   0  0  0  0  0  0  0  0  0  0  0  0
    0.4301   -0.5303   -2.1876 H   0  0  0  0  0  0  0  0  0  0  0  0
    0.5326   -1.6741   -0.7968 H   0  0  0  0  0  0  0  0  0  0  0  0
   -1.8146    0.0437   -1.7768 H   0  0  0  0  0  0  0  0  0  0  0  0
   -1.8615   -1.6920   -1.1486 H   0  0  0  0  0  0  0  0  0  0  0  0
   -1.2597   -0.9532    1.0737 H   0  0  0  0  0  0  0  0  0  0  0  0
   -3.0899    0.4048    1.7719 H   0  0  0  0  0  0  0  0  0  0  0  0
   -3.6628   -0.6717    0.4831 H   0  0  0  0  0  0  0  0  0  0  0  0
   -3.3342    1.1184    0.1445 H   0  0  0  0  0  0  0  0  0  0  0  0
   -1.1247    1.7806   -0.2838 H   0  0  0  0  0  0  0  0  0  0  0  0
   -0.4844    1.4269    1.3952 H   0  0  0  0  0  0  0  0  0  0  0  0
  1  2  1  0
  2  3  1  0
  3  4  1  0
  4  5  1  0
  5  6  1  0
  6  7  1  0
  7  8  1  0
  7  9  1  0
  9  4  1  0
  1 10  1  0
  1 11  1  0
  1 12  1  0
  3 13  1  0
  3 14  1  0
  4 15  1  0
  5 16  1  0
  5 17  1  0
  6 18  1  0
  6 19  1  0
  7 20  1  0
  8 21  1  0
  8 22  1  0
  8 23  1  0
  9 24  1  0
  9 25  1  0
M  END
