
     RDKit          3D

 18 18  0  0  0  0  0  0  0  0999 V2000
    2.4934    0.7541    0.1175 C   0  0  0  0  0  0  0  0  0  0  0  0
    1.9650   -0.0550   -0.8437 O   0  0  0  0  0  0  0  0  0  0  0  0
    0.9598   -0.8943   -0.5008 C   0  0  0  0  0  0  0  0  0  0  0  0
   -0.3187   -0.3192   -0.0801 C   0  0  0  0  0  0  0  0  0  0  0  0
   -0.7967    0.8894    0.0606 C   0  0  0  0  0  0  0  0  0  0  0  0
   -2.2203    0.8598    0.5424 C   0  0  0  0  0  0  0  0  0  0  0  0
   -2.5950   -0.4477    0.3172 O   0  0  0  0  0  0  0  0  0  0  0  0
   -1.4651   -1.2227    0.3212 C   0  0  0  0  0  0  0  0  0  0  0  0
    3.2944    1.3711   -0.3931 H   0  0  0  0  0  0  0  0  0  0  0  0
    1.8089    1.3387    0.7291 H   0  0  0  0  0  0  0  0  0  0  0  0
    3.1046    0.1599    0.8787 H   0  0  0  0  0  0  0  0  0  0  0  0
    0.7169   -1.5035   -1.4269 H   0  0  0  0  0  0  0  0  0  0  0  0
    1.2578   -1.6364    0.2912 H   0  0  0  0  0  0  0  0  0  0  0  0
   -0.2604    1.7980   -0.1483 H   0  0  0  0  0  0  0  0  0  0  0  0
   -2.8531    1.5162   -0.0928 H   0  0  0  0  0  0  0  0  0  0  0  0
   -2.3009    1.0673    1.6174 H   0  0  0  0  0  0  0  0  0  0  0  0
   -1.5477   -1.9716   -0.5025 H   0  0  0  0  0  0  0  0  0  0  0  0
   -1.2428   -1.7041    1.2996 H   0  0  0  0  0  0  0  0  0  0  0  0
  1  2  1  0
  2  3  1  0
  3  4  1  0
  4  5  2  0
  5  6  1  0
  6  7  1  0
  7  8  1  0
  8  4  1  0
  1  9  1  0
  1 10  1  0
  1 11  1  0
  3 12  1  0
  3 13  1  0
  5 14  1  0
  6 15  1  0
  6 16  1  0
  8 17  1  0
  8 18  1  0
M  END
