
     RDKit          3D

 21 22  0  0  0  0  0  0  0  0999 V2000
    2.7513    0.9081   -0.6129 C   0  0  0  0  0  0  0  0  0  0  0  0
    1.5232    0.2102   -0.5993 O   0  0  0  0  0  0  0  0  0  0  0  0
    1.4032   -0.4877    0.5915 C   0  0  0  0  0  0  0  0  0  0  0  0
    0.0770   -1.2148    0.5559 C   0  0  0  0  0  0  0  0  0  0  0  0
   -1.0741   -0.2728    0.4167 C   0  0  0  0  0  0  0  0  0  0  0  0
   -2.4438   -0.8746    0.3697 C   0  0  0  0  0  0  0  0  0  0  0  0
   -1.8640   -0.0852   -0.7766 C   0  0  0  0  0  0  0  0  0  0  0  0
   -1.5922    1.3697   -0.5162 C   0  0  0  0  0  0  0  0  0  0  0  0
   -0.9400    1.0737    0.6837 O   0  0  0  0  0  0  0  0  0  0  0  0
    2.8447    1.4647   -1.5650 H   0  0  0  0  0  0  0  0  0  0  0  0
    2.7649    1.6774    0.1932 H   0  0  0  0  0  0  0  0  0  0  0  0
    3.5772    0.1942   -0.4699 H   0  0  0  0  0  0  0  0  0  0  0  0
    1.5132    0.1433    1.4890 H   0  0  0  0  0  0  0  0  0  0  0  0
    2.1901   -1.2954    0.6021 H   0  0  0  0  0  0  0  0  0  0  0  0
    0.1039   -2.0265   -0.1699 H   0  0  0  0  0  0  0  0  0  0  0  0
   -0.0262   -1.7051    1.5693 H   0  0  0  0  0  0  0  0  0  0  0  0
   -2.4830   -1.9749    0.2379 H   0  0  0  0  0  0  0  0  0  0  0  0
   -3.2264   -0.3501    0.9244 H   0  0  0  0  0  0  0  0  0  0  0  0
   -1.7058   -0.5364   -1.7508 H   0  0  0  0  0  0  0  0  0  0  0  0
   -0.9008    1.7674   -1.2909 H   0  0  0  0  0  0  0  0  0  0  0  0
   -2.4925    2.0147   -0.3931 H   0  0  0  0  0  0  0  0  0  0  0  0
  1  2  1  0
  2  3  1  0
  3  4  1  0
  4  5  1  0
  5  6  1  0
  6  7  1  0
  7  8  1  0
  8  9  1  0
  7  5  1  0
  9  5  1  0
  1 10  1  0
  1 11  1  0
  1 12  1  0
  3 13  1  0
  3 14  1  0
  4 15  1  0
  4 16  1  0
  6 17  1  0
  6 18  1  0
  7 19  1  0
  8 20  1  0
  8 21  1  0
M  END
