
     RDKit          3D

 18 18  0  0  0  0  0  0  0  0999 V2000
    2.4991    0.0488    0.1534 C   0  0  0  0  0  0  0  0  0  0  0  0
    1.6617   -0.6533   -0.6664 O   0  0  0  0  0  0  0  0  0  0  0  0
    0.4364   -1.0113   -0.1655 C   0  0  0  0  0  0  0  0  0  0  0  0
   -0.4297    0.1263    0.2468 C   0  0  0  0  0  0  0  0  0  0  0  0
    0.0554    0.9439    1.2611 O   0  0  0  0  0  0  0  0  0  0  0  0
   -1.1144    0.8886   -0.9176 C   0  0  0  0  0  0  0  0  0  0  0  0
   -1.8990    0.0805    0.1311 C   0  0  0  0  0  0  0  0  0  0  0  0
   -2.5704   -1.0335   -0.3461 O   0  0  0  0  0  0  0  0  0  0  0  0
    3.4863    0.2623   -0.3518 H   0  0  0  0  0  0  0  0  0  0  0  0
    2.1261    1.0972    0.3656 H   0  0  0  0  0  0  0  0  0  0  0  0
    2.7478   -0.4482    1.1124 H   0  0  0  0  0  0  0  0  0  0  0  0
    0.5631   -1.7681    0.6644 H   0  0  0  0  0  0  0  0  0  0  0  0
   -0.0648   -1.5748   -1.0145 H   0  0  0  0  0  0  0  0  0  0  0  0
   -0.4900    1.7680    1.3502 H   0  0  0  0  0  0  0  0  0  0  0  0
   -1.1418    1.9990   -0.8300 H   0  0  0  0  0  0  0  0  0  0  0  0
   -1.0449    0.4178   -1.9164 H   0  0  0  0  0  0  0  0  0  0  0  0
   -2.5065    0.7104    0.8008 H   0  0  0  0  0  0  0  0  0  0  0  0
   -2.3144   -1.8535    0.1224 H   0  0  0  0  0  0  0  0  0  0  0  0
  1  2  1  0
  2  3  1  0
  3  4  1  0
  4  5  1  0
  4  6  1  0
  6  7  1  0
  7  8  1  0
  7  4  1  0
  1  9  1  0
  1 10  1  0
  1 11  1  0
  3 12  1  0
  3 13  1  0
  5 14  1  0
  6 15  1  0
  6 16  1  0
  7 17  1  0
  8 18  1  0
M  END
