
     RDKit          3D

 19 19  0  0  0  0  0  0  0  0999 V2000
   -3.7287    0.9636    0.8132 C   0  0  0  0  0  0  0  0  0  0  0  0
   -2.7247    0.0871    1.2480 O   0  0  0  0  0  0  0  0  0  0  0  0
   -1.5553    0.3573    0.5343 C   0  0  0  0  0  0  0  0  0  0  0  0
   -0.5111   -0.6109    1.0402 C   0  0  0  0  0  0  0  0  0  0  0  0
    0.7307   -0.3603    0.3164 C   0  0  0  0  0  0  0  0  0  0  0  0
    1.7729   -0.1692   -0.2861 C   0  0  0  0  0  0  0  0  0  0  0  0
    3.0328    0.0743   -0.9899 C   0  0  0  0  0  0  0  0  0  0  0  0
    3.9311   -1.0871   -1.3028 C   0  0  0  0  0  0  0  0  0  0  0  0
    3.1298   -0.5403   -2.3016 O   0  0  0  0  0  0  0  0  0  0  0  0
   -4.6637    0.7801    1.3529 H   0  0  0  0  0  0  0  0  0  0  0  0
   -3.8697    0.8277   -0.2751 H   0  0  0  0  0  0  0  0  0  0  0  0
   -3.3872    1.9870    1.0704 H   0  0  0  0  0  0  0  0  0  0  0  0
   -1.2521    1.4048    0.6683 H   0  0  0  0  0  0  0  0  0  0  0  0
   -1.7178    0.1846   -0.5541 H   0  0  0  0  0  0  0  0  0  0  0  0
   -0.9090   -1.6412    0.8440 H   0  0  0  0  0  0  0  0  0  0  0  0
   -0.3941   -0.4843    2.1191 H   0  0  0  0  0  0  0  0  0  0  0  0
    3.4593    1.0848   -0.9135 H   0  0  0  0  0  0  0  0  0  0  0  0
    5.0186   -0.8265   -1.3164 H   0  0  0  0  0  0  0  0  0  0  0  0
    3.6382   -2.0317   -0.8234 H   0  0  0  0  0  0  0  0  0  0  0  0
  1  2  1  0
  2  3  1  0
  3  4  1  0
  4  5  1  0
  5  6  3  0
  6  7  1  0
  7  8  1  0
  8  9  1  0
  9  7  1  0
  1 10  1  0
  1 11  1  0
  1 12  1  0
  3 13  1  0
  3 14  1  0
  4 15  1  0
  4 16  1  0
  7 17  1  0
  8 18  1  0
  8 19  1  0
M  END
