
     RDKit          3D

 23 23  0  0  0  0  0  0  0  0999 V2000
    3.9250    0.1545    0.4720 C   0  0  0  0  0  0  0  0  0  0  0  0
    2.6002    0.4919    0.6021 O   0  0  0  0  0  0  0  0  0  0  0  0
    1.7885   -0.4754    0.0159 C   0  0  0  0  0  0  0  0  0  0  0  0
    0.3355   -0.1055    0.1586 C   0  0  0  0  0  0  0  0  0  0  0  0
   -0.0795    0.9916    0.7618 C   0  0  0  0  0  0  0  0  0  0  0  0
   -1.5858    1.0638    0.7328 C   0  0  0  0  0  0  0  0  0  0  0  0
   -1.9103    0.1525   -0.4415 C   0  0  0  0  0  0  0  0  0  0  0  0
   -3.2946   -0.3857   -0.2927 C   0  0  0  0  0  0  0  0  0  0  0  0
   -0.8328   -0.8885   -0.3370 C   0  0  0  0  0  0  0  0  0  0  0  0
    4.1719   -0.8142    0.9523 H   0  0  0  0  0  0  0  0  0  0  0  0
    4.5222    0.9423    0.9901 H   0  0  0  0  0  0  0  0  0  0  0  0
    4.2422    0.1828   -0.5894 H   0  0  0  0  0  0  0  0  0  0  0  0
    1.9289   -1.4807    0.4549 H   0  0  0  0  0  0  0  0  0  0  0  0
    2.0810   -0.5344   -1.0623 H   0  0  0  0  0  0  0  0  0  0  0  0
    0.5709    1.7323    1.2122 H   0  0  0  0  0  0  0  0  0  0  0  0
   -1.9059    2.0903    0.4694 H   0  0  0  0  0  0  0  0  0  0  0  0
   -2.0265    0.7137    1.6687 H   0  0  0  0  0  0  0  0  0  0  0  0
   -1.8002    0.6890   -1.3984 H   0  0  0  0  0  0  0  0  0  0  0  0
   -3.7345   -0.6968   -1.2834 H   0  0  0  0  0  0  0  0  0  0  0  0
   -3.3655   -1.2733    0.3751 H   0  0  0  0  0  0  0  0  0  0  0  0
   -3.9365    0.4465    0.0900 H   0  0  0  0  0  0  0  0  0  0  0  0
   -1.0986   -1.6914    0.3838 H   0  0  0  0  0  0  0  0  0  0  0  0
   -0.5956   -1.3055   -1.3503 H   0  0  0  0  0  0  0  0  0  0  0  0
  1  2  1  0
  2  3  1  0
  3  4  1  0
  4  5  2  0
  5  6  1  0
  6  7  1  0
  7  8  1  0
  7  9  1  0
  9  4  1  0
  1 10  1  0
  1 11  1  0
  1 12  1  0
  3 13  1  0
  3 14  1  0
  5 15  1  0
  6 16  1  0
  6 17  1  0
  7 18  1  0
  8 19  1  0
  8 20  1  0
  8 21  1  0
  9 22  1  0
  9 23  1  0
M  END
