
     RDKit          3D

 20 20  0  0  0  0  0  0  0  0999 V2000
    2.4571    0.5271    0.3016 C   0  0  0  0  0  0  0  0  0  0  0  0
    1.4457    0.0571    1.1166 O   0  0  0  0  0  0  0  0  0  0  0  0
    0.7269   -0.9336    0.4503 C   0  0  0  0  0  0  0  0  0  0  0  0
    0.0990   -0.4466   -0.8112 C   0  0  0  0  0  0  0  0  0  0  0  0
   -0.8817    0.6495   -0.8385 C   0  0  0  0  0  0  0  0  0  0  0  0
   -1.3381    1.3514    0.4119 C   0  0  0  0  0  0  0  0  0  0  0  0
   -1.3544   -0.7855   -0.9954 C   0  0  0  0  0  0  0  0  0  0  0  0
   -2.0249   -1.3367    0.1039 O   0  0  0  0  0  0  0  0  0  0  0  0
    2.0371    0.9525   -0.6241 H   0  0  0  0  0  0  0  0  0  0  0  0
    3.0626    1.2842    0.8577 H   0  0  0  0  0  0  0  0  0  0  0  0
    3.1777   -0.2706    0.0141 H   0  0  0  0  0  0  0  0  0  0  0  0
   -0.0289   -1.3946    1.1153 H   0  0  0  0  0  0  0  0  0  0  0  0
    1.4431   -1.7415    0.1960 H   0  0  0  0  0  0  0  0  0  0  0  0
    0.7724   -0.5310   -1.7140 H   0  0  0  0  0  0  0  0  0  0  0  0
   -0.9108    1.2900   -1.7416 H   0  0  0  0  0  0  0  0  0  0  0  0
   -1.5046    2.4512    0.2412 H   0  0  0  0  0  0  0  0  0  0  0  0
   -0.6643    1.1996    1.2703 H   0  0  0  0  0  0  0  0  0  0  0  0
   -2.3538    0.9494    0.6516 H   0  0  0  0  0  0  0  0  0  0  0  0
   -1.6366   -1.1352   -2.0153 H   0  0  0  0  0  0  0  0  0  0  0  0
   -2.5235   -2.1366   -0.1239 H   0  0  0  0  0  0  0  0  0  0  0  0
  1  2  1  0
  2  3  1  0
  3  4  1  0
  4  5  1  0
  5  6  1  0
  5  7  1  0
  7  8  1  0
  7  4  1  0
  1  9  1  0
  1 10  1  0
  1 11  1  0
  3 12  1  0
  3 13  1  0
  4 14  1  0
  5 15  1  0
  6 16  1  0
  6 17  1  0
  6 18  1  0
  7 19  1  0
  8 20  1  0
M  END
