
     RDKit          3D

 18 19  0  0  0  0  0  0  0  0999 V2000
    2.5668    0.9351    0.0224 C   0  0  0  0  0  0  0  0  0  0  0  0
    1.2317    0.7211    0.3077 O   0  0  0  0  0  0  0  0  0  0  0  0
    0.9234   -0.5860   -0.0534 C   0  0  0  0  0  0  0  0  0  0  0  0
   -0.5362   -0.8167    0.2595 C   0  0  0  0  0  0  0  0  0  0  0  0
   -1.3426    0.3429    0.7803 C   0  0  0  0  0  0  0  0  0  0  0  0
   -2.3009    0.1481   -0.3480 C   0  0  0  0  0  0  0  0  0  0  0  0
   -1.5129   -1.0177   -0.8481 C   0  0  0  0  0  0  0  0  0  0  0  0
   -1.1239   -2.0255    0.0067 O   0  0  0  0  0  0  0  0  0  0  0  0
    2.7996    1.9870    0.3170 H   0  0  0  0  0  0  0  0  0  0  0  0
    2.7046    0.7800   -1.0670 H   0  0  0  0  0  0  0  0  0  0  0  0
    3.1589    0.1944    0.5990 H   0  0  0  0  0  0  0  0  0  0  0  0
    1.5940   -1.2464    0.5105 H   0  0  0  0  0  0  0  0  0  0  0  0
    1.1044   -0.7793   -1.1272 H   0  0  0  0  0  0  0  0  0  0  0  0
   -1.7363    0.1389    1.7985 H   0  0  0  0  0  0  0  0  0  0  0  0
   -0.7658    1.2792    0.6667 H   0  0  0  0  0  0  0  0  0  0  0  0
   -2.3074    0.9817   -1.0938 H   0  0  0  0  0  0  0  0  0  0  0  0
   -3.3200   -0.0589    0.0186 H   0  0  0  0  0  0  0  0  0  0  0  0
   -1.1374   -0.9781   -1.8871 H   0  0  0  0  0  0  0  0  0  0  0  0
  1  2  1  0
  2  3  1  0
  3  4  1  0
  4  5  1  0
  5  6  1  0
  6  7  1  0
  7  8  1  0
  7  4  1  0
  8  4  1  0
  1  9  1  0
  1 10  1  0
  1 11  1  0
  3 12  1  0
  3 13  1  0
  5 14  1  0
  5 15  1  0
  6 16  1  0
  6 17  1  0
  7 18  1  0
M  END
