
     RDKit          3D

 23 23  0  0  0  0  0  0  0  0999 V2000
    3.0338    1.0902    0.8165 C   0  0  0  0  0  0  0  0  0  0  0  0
    1.9828    0.2336    1.1335 O   0  0  0  0  0  0  0  0  0  0  0  0
    1.2349    0.0019   -0.0203 C   0  0  0  0  0  0  0  0  0  0  0  0
    0.0760   -0.9107    0.2131 C   0  0  0  0  0  0  0  0  0  0  0  0
    0.4870   -2.1545    0.6742 O   0  0  0  0  0  0  0  0  0  0  0  0
   -1.0761   -0.3518    0.9854 C   0  0  0  0  0  0  0  0  0  0  0  0
   -1.8909   -0.3023   -0.2977 C   0  0  0  0  0  0  0  0  0  0  0  0
   -2.2112    1.1123   -0.7322 C   0  0  0  0  0  0  0  0  0  0  0  0
   -0.7893   -0.9736   -1.0435 C   0  0  0  0  0  0  0  0  0  0  0  0
    2.5938    2.0301    0.4374 H   0  0  0  0  0  0  0  0  0  0  0  0
    3.5840    0.6447   -0.0530 H   0  0  0  0  0  0  0  0  0  0  0  0
    3.6841    1.3035    1.6650 H   0  0  0  0  0  0  0  0  0  0  0  0
    0.9334    0.9845   -0.4133 H   0  0  0  0  0  0  0  0  0  0  0  0
    1.9224   -0.4807   -0.7461 H   0  0  0  0  0  0  0  0  0  0  0  0
    0.0924   -2.8340    0.0717 H   0  0  0  0  0  0  0  0  0  0  0  0
   -0.9556    0.6455    1.4154 H   0  0  0  0  0  0  0  0  0  0  0  0
   -1.5465   -1.0904    1.6809 H   0  0  0  0  0  0  0  0  0  0  0  0
   -2.8182   -0.9003   -0.2823 H   0  0  0  0  0  0  0  0  0  0  0  0
   -2.2532    1.7245    0.2045 H   0  0  0  0  0  0  0  0  0  0  0  0
   -1.4599    1.5327   -1.3989 H   0  0  0  0  0  0  0  0  0  0  0  0
   -3.2147    1.1890   -1.1968 H   0  0  0  0  0  0  0  0  0  0  0  0
   -0.3804   -0.4484   -1.9148 H   0  0  0  0  0  0  0  0  0  0  0  0
   -1.0286   -2.0460   -1.2826 H   0  0  0  0  0  0  0  0  0  0  0  0
  1  2  1  0
  2  3  1  0
  3  4  1  0
  4  5  1  0
  4  6  1  0
  6  7  1  0
  7  8  1  0
  7  9  1  0
  9  4  1  0
  1 10  1  0
  1 11  1  0
  1 12  1  0
  3 13  1  0
  3 14  1  0
  5 15  1  0
  6 16  1  0
  6 17  1  0
  7 18  1  0
  8 19  1  0
  8 20  1  0
  8 21  1  0
  9 22  1  0
  9 23  1  0
M  END
