
     RDKit          3D

 21 20  0  0  0  0  0  0  0  0999 V2000
    2.8786   -0.3034   -0.2673 C   0  0  0  0  0  0  0  0  0  0  0  0
    1.6886    0.3437    0.0962 O   0  0  0  0  0  0  0  0  0  0  0  0
    0.7131   -0.6618    0.1719 C   0  0  0  0  0  0  0  0  0  0  0  0
   -0.6313   -0.1083    0.5569 C   0  0  0  0  0  0  0  0  0  0  0  0
   -1.6072   -1.2467    0.6132 C   0  0  0  0  0  0  0  0  0  0  0  0
   -2.8921   -0.7888    0.9710 O   0  0  0  0  0  0  0  0  0  0  0  0
   -1.0978    0.9657   -0.3452 C   0  0  0  0  0  0  0  0  0  0  0  0
   -0.3964    2.2392   -0.5829 C   0  0  0  0  0  0  0  0  0  0  0  0
   -2.1446    0.7918   -0.9433 O   0  0  0  0  0  0  0  0  0  0  0  0
    3.7232    0.3893   -0.3585 H   0  0  0  0  0  0  0  0  0  0  0  0
    3.0414   -1.1023    0.4815 H   0  0  0  0  0  0  0  0  0  0  0  0
    2.6519   -0.8244   -1.2304 H   0  0  0  0  0  0  0  0  0  0  0  0
    1.0688   -1.3803    0.9228 H   0  0  0  0  0  0  0  0  0  0  0  0
    0.6993   -1.1700   -0.8121 H   0  0  0  0  0  0  0  0  0  0  0  0
   -0.5353    0.2874    1.6001 H   0  0  0  0  0  0  0  0  0  0  0  0
   -1.6466   -1.8162   -0.3475 H   0  0  0  0  0  0  0  0  0  0  0  0
   -1.2325   -1.9849    1.3694 H   0  0  0  0  0  0  0  0  0  0  0  0
   -3.5513   -1.3538    0.4935 H   0  0  0  0  0  0  0  0  0  0  0  0
   -1.1159    3.0789   -0.3772 H   0  0  0  0  0  0  0  0  0  0  0  0
    0.5289    2.3703   -0.0207 H   0  0  0  0  0  0  0  0  0  0  0  0
   -0.1428    2.2746   -1.6827 H   0  0  0  0  0  0  0  0  0  0  0  0
  1  2  1  0
  2  3  1  0
  3  4  1  0
  4  5  1  0
  5  6  1  0
  4  7  1  0
  7  8  1  0
  7  9  2  0
  1 10  1  0
  1 11  1  0
  1 12  1  0
  3 13  1  0
  3 14  1  0
  4 15  1  0
  5 16  1  0
  5 17  1  0
  6 18  1  0
  8 19  1  0
  8 20  1  0
  8 21  1  0
M  END
