
     RDKit          3D

 21 21  0  0  0  0  0  0  0  0999 V2000
    3.1636   -0.4794    0.6299 C   0  0  0  0  0  0  0  0  0  0  0  0
    2.0082    0.2990    0.6367 O   0  0  0  0  0  0  0  0  0  0  0  0
    1.2218   -0.1466   -0.4253 C   0  0  0  0  0  0  0  0  0  0  0  0
   -0.0391    0.6909   -0.4313 C   0  0  0  0  0  0  0  0  0  0  0  0
   -0.7719    0.4788    0.8497 C   0  0  0  0  0  0  0  0  0  0  0  0
   -2.1520    0.0076    0.4077 C   0  0  0  0  0  0  0  0  0  0  0  0
   -3.0829    1.0252    0.4616 O   0  0  0  0  0  0  0  0  0  0  0  0
   -1.8669   -0.4765   -0.9844 C   0  0  0  0  0  0  0  0  0  0  0  0
   -0.8249    0.2633   -1.4727 O   0  0  0  0  0  0  0  0  0  0  0  0
    2.9617   -1.5522    0.7552 H   0  0  0  0  0  0  0  0  0  0  0  0
    3.6497   -0.3427   -0.3601 H   0  0  0  0  0  0  0  0  0  0  0  0
    3.8134   -0.1103    1.4418 H   0  0  0  0  0  0  0  0  0  0  0  0
    1.8265    0.0196   -1.3562 H   0  0  0  0  0  0  0  0  0  0  0  0
    0.9756   -1.2137   -0.3481 H   0  0  0  0  0  0  0  0  0  0  0  0
    0.1921    1.7618   -0.6000 H   0  0  0  0  0  0  0  0  0  0  0  0
   -0.2750   -0.3132    1.4692 H   0  0  0  0  0  0  0  0  0  0  0  0
   -0.8473    1.3732    1.4801 H   0  0  0  0  0  0  0  0  0  0  0  0
   -2.4708   -0.7963    1.0909 H   0  0  0  0  0  0  0  0  0  0  0  0
   -3.2199    1.4530   -0.4224 H   0  0  0  0  0  0  0  0  0  0  0  0
   -2.7332   -0.4010   -1.6653 H   0  0  0  0  0  0  0  0  0  0  0  0
   -1.5285   -1.5405   -0.8990 H   0  0  0  0  0  0  0  0  0  0  0  0
  1  2  1  0
  2  3  1  0
  3  4  1  0
  4  5  1  0
  5  6  1  0
  6  7  1  0
  6  8  1  0
  8  9  1  0
  9  4  1  0
  1 10  1  0
  1 11  1  0
  1 12  1  0
  3 13  1  0
  3 14  1  0
  4 15  1  0
  5 16  1  0
  5 17  1  0
  6 18  1  0
  7 19  1  0
  8 20  1  0
  8 21  1  0
M  END
