
     RDKit          3D

 16 16  0  0  0  0  0  0  0  0999 V2000
   -2.8624    0.3288    0.2913 C   0  0  0  0  0  0  0  0  0  0  0  0
   -1.5291    0.7697    0.3738 O   0  0  0  0  0  0  0  0  0  0  0  0
   -0.7273   -0.0967   -0.3793 C   0  0  0  0  0  0  0  0  0  0  0  0
    0.6879    0.4061   -0.2670 C   0  0  0  0  0  0  0  0  0  0  0  0
    1.1720    0.4390    1.0368 O   0  0  0  0  0  0  0  0  0  0  0  0
    1.7774   -0.5072    0.2013 C   0  0  0  0  0  0  0  0  0  0  0  0
    3.1749   -0.1982   -0.1492 C   0  0  0  0  0  0  0  0  0  0  0  0
    3.9929   -1.0592   -0.3399 O   0  0  0  0  0  0  0  0  0  0  0  0
   -3.2133    0.3263   -0.7561 H   0  0  0  0  0  0  0  0  0  0  0  0
   -3.5088    0.9901    0.8853 H   0  0  0  0  0  0  0  0  0  0  0  0
   -2.9415   -0.6905    0.7180 H   0  0  0  0  0  0  0  0  0  0  0  0
   -1.0506   -0.0636   -1.4339 H   0  0  0  0  0  0  0  0  0  0  0  0
   -0.8666   -1.1034    0.0655 H   0  0  0  0  0  0  0  0  0  0  0  0
    0.9511    1.1956   -0.9815 H   0  0  0  0  0  0  0  0  0  0  0  0
    1.4672   -1.5703    0.2928 H   0  0  0  0  0  0  0  0  0  0  0  0
    3.4762    0.8338   -0.2380 H   0  0  0  0  0  0  0  0  0  0  0  0
  1  2  1  0
  2  3  1  0
  3  4  1  0
  4  5  1  0
  5  6  1  0
  6  7  1  0
  7  8  2  0
  6  4  1  0
  1  9  1  0
  1 10  1  0
  1 11  1  0
  3 12  1  0
  3 13  1  0
  4 14  1  0
  6 15  1  0
  7 16  1  0
M  END
