
     RDKit          3D

 18 18  0  0  0  0  0  0  0  0999 V2000
   -2.6664    0.7870    0.7641 C   0  0  0  0  0  0  0  0  0  0  0  0
   -1.3941    0.2819    1.0326 O   0  0  0  0  0  0  0  0  0  0  0  0
   -0.7132    0.2081   -0.1753 C   0  0  0  0  0  0  0  0  0  0  0  0
    0.6903   -0.3318    0.0010 C   0  0  0  0  0  0  0  0  0  0  0  0
    1.5906    0.4206    0.9423 C   0  0  0  0  0  0  0  0  0  0  0  0
    2.8246   -0.1517    1.0990 O   0  0  0  0  0  0  0  0  0  0  0  0
    1.0344   -1.5979   -0.5566 C   0  0  0  0  0  0  0  0  0  0  0  0
    1.3483   -0.3791   -1.3319 O   0  0  0  0  0  0  0  0  0  0  0  0
   -2.5830    1.7957    0.3061 H   0  0  0  0  0  0  0  0  0  0  0  0
   -3.2660    0.8521    1.7136 H   0  0  0  0  0  0  0  0  0  0  0  0
   -3.1852    0.1316    0.0447 H   0  0  0  0  0  0  0  0  0  0  0  0
   -1.3172   -0.3826   -0.8637 H   0  0  0  0  0  0  0  0  0  0  0  0
   -0.6389    1.2554   -0.5570 H   0  0  0  0  0  0  0  0  0  0  0  0
    1.1168    0.5150    1.9402 H   0  0  0  0  0  0  0  0  0  0  0  0
    1.7469    1.4843    0.5968 H   0  0  0  0  0  0  0  0  0  0  0  0
    3.1791   -0.5847    0.2826 H   0  0  0  0  0  0  0  0  0  0  0  0
    0.2532   -2.1893   -1.0774 H   0  0  0  0  0  0  0  0  0  0  0  0
    1.9801   -2.1145   -0.3373 H   0  0  0  0  0  0  0  0  0  0  0  0
  1  2  1  0
  2  3  1  0
  3  4  1  0
  4  5  1  0
  5  6  1  0
  4  7  1  0
  7  8  1  0
  8  4  1  0
  1  9  1  0
  1 10  1  0
  1 11  1  0
  3 12  1  0
  3 13  1  0
  5 14  1  0
  5 15  1  0
  6 16  1  0
  7 17  1  0
  7 18  1  0
M  END
