
     RDKit          3D

 23 23  0  0  0  0  0  0  0  0999 V2000
    3.0426   -0.3617    0.4989 C   0  0  0  0  0  0  0  0  0  0  0  0
    1.6420   -0.2400    0.5858 O   0  0  0  0  0  0  0  0  0  0  0  0
    1.1406   -0.4995   -0.6693 C   0  0  0  0  0  0  0  0  0  0  0  0
   -0.3501   -0.4137   -0.7630 C   0  0  0  0  0  0  0  0  0  0  0  0
   -1.0557   -1.3879    0.1512 C   0  0  0  0  0  0  0  0  0  0  0  0
   -2.4883   -0.8517   -0.0301 C   0  0  0  0  0  0  0  0  0  0  0  0
   -2.1734    0.6222    0.0598 C   0  0  0  0  0  0  0  0  0  0  0  0
   -0.9413    0.8483   -0.3656 C   0  0  0  0  0  0  0  0  0  0  0  0
   -0.3417    2.2316   -0.3930 C   0  0  0  0  0  0  0  0  0  0  0  0
    3.4532    0.3682   -0.2413 H   0  0  0  0  0  0  0  0  0  0  0  0
    3.5018   -0.1078    1.4752 H   0  0  0  0  0  0  0  0  0  0  0  0
    3.2916   -1.4097    0.2175 H   0  0  0  0  0  0  0  0  0  0  0  0
    1.4291   -1.5461   -0.9136 H   0  0  0  0  0  0  0  0  0  0  0  0
    1.5711    0.1350   -1.4591 H   0  0  0  0  0  0  0  0  0  0  0  0
   -0.6284   -0.6364   -1.8161 H   0  0  0  0  0  0  0  0  0  0  0  0
   -0.7405   -1.1399    1.1810 H   0  0  0  0  0  0  0  0  0  0  0  0
   -0.9631   -2.4224   -0.1362 H   0  0  0  0  0  0  0  0  0  0  0  0
   -2.7939   -1.1461   -1.0388 H   0  0  0  0  0  0  0  0  0  0  0  0
   -3.1448   -1.1621    0.7789 H   0  0  0  0  0  0  0  0  0  0  0  0
   -2.8976    1.3550    0.4312 H   0  0  0  0  0  0  0  0  0  0  0  0
   -1.1075    3.0129   -0.2923 H   0  0  0  0  0  0  0  0  0  0  0  0
    0.3978    2.3688    0.3945 H   0  0  0  0  0  0  0  0  0  0  0  0
    0.1565    2.3831   -1.3675 H   0  0  0  0  0  0  0  0  0  0  0  0
  1  2  1  0
  2  3  1  0
  3  4  1  0
  4  5  1  0
  5  6  1  0
  6  7  1  0
  7  8  2  0
  8  9  1  0
  8  4  1  0
  1 10  1  0
  1 11  1  0
  1 12  1  0
  3 13  1  0
  3 14  1  0
  4 15  1  0
  5 16  1  0
  5 17  1  0
  6 18  1  0
  6 19  1  0
  7 20  1  0
  9 21  1  0
  9 22  1  0
  9 23  1  0
M  END
