
     RDKit          3D

 21 21  0  0  0  0  0  0  0  0999 V2000
   -3.4920    0.8971    0.1674 C   0  0  0  0  0  0  0  0  0  0  0  0
   -2.2222    1.0443   -0.4352 O   0  0  0  0  0  0  0  0  0  0  0  0
   -1.5957   -0.2101   -0.2855 C   0  0  0  0  0  0  0  0  0  0  0  0
   -0.2268   -0.1560   -0.8999 C   0  0  0  0  0  0  0  0  0  0  0  0
    0.7292   -1.2180   -0.3430 C   0  0  0  0  0  0  0  0  0  0  0  0
    1.6820   -0.0641   -0.6766 C   0  0  0  0  0  0  0  0  0  0  0  0
    2.8736    0.0133    0.2471 C   0  0  0  0  0  0  0  0  0  0  0  0
    3.3871    1.2874    0.2378 O   0  0  0  0  0  0  0  0  0  0  0  0
    0.6330    0.7919   -0.3439 O   0  0  0  0  0  0  0  0  0  0  0  0
   -3.2925    0.6314    1.2264 H   0  0  0  0  0  0  0  0  0  0  0  0
   -4.1202    1.7772    0.0305 H   0  0  0  0  0  0  0  0  0  0  0  0
   -3.9734    0.0370   -0.3801 H   0  0  0  0  0  0  0  0  0  0  0  0
   -1.6128   -0.5695    0.7402 H   0  0  0  0  0  0  0  0  0  0  0  0
   -2.2015   -0.9146   -0.8959 H   0  0  0  0  0  0  0  0  0  0  0  0
   -0.2291   -0.0999   -1.9907 H   0  0  0  0  0  0  0  0  0  0  0  0
    0.8423   -2.1048   -0.9613 H   0  0  0  0  0  0  0  0  0  0  0  0
    0.5729   -1.3457    0.7368 H   0  0  0  0  0  0  0  0  0  0  0  0
    1.9013   -0.0595   -1.7544 H   0  0  0  0  0  0  0  0  0  0  0  0
    2.4782   -0.2416    1.2740 H   0  0  0  0  0  0  0  0  0  0  0  0
    3.6046   -0.7731    0.0150 H   0  0  0  0  0  0  0  0  0  0  0  0
    4.2620    1.2773    0.7414 H   0  0  0  0  0  0  0  0  0  0  0  0
  1  2  1  0
  2  3  1  0
  3  4  1  0
  4  5  1  0
  5  6  1  0
  6  7  1  0
  7  8  1  0
  6  9  1  0
  9  4  1  0
  1 10  1  0
  1 11  1  0
  1 12  1  0
  3 13  1  0
  3 14  1  0
  4 15  1  0
  5 16  1  0
  5 17  1  0
  6 18  1  0
  7 19  1  0
  7 20  1  0
  8 21  1  0
M  END
