
     RDKit          3D

 23 22  0  0  0  0  0  0  0  0999 V2000
   -2.5196   -0.2271   -1.6733 C   0  0  0  0  0  0  0  0  0  0  0  0
   -1.3862   -0.6183   -0.9761 O   0  0  0  0  0  0  0  0  0  0  0  0
   -1.2439    0.1768    0.1680 C   0  0  0  0  0  0  0  0  0  0  0  0
   -0.0323   -0.2009    0.9645 C   0  0  0  0  0  0  0  0  0  0  0  0
   -0.1685   -1.6285    1.4648 C   0  0  0  0  0  0  0  0  0  0  0  0
    0.0112    0.6523    2.0774 O   0  0  0  0  0  0  0  0  0  0  0  0
    1.2415   -0.0711    0.2055 C   0  0  0  0  0  0  0  0  0  0  0  0
    1.4799    1.2076   -0.2550 O   0  0  0  0  0  0  0  0  0  0  0  0
    2.6543    1.3044   -0.9489 C   0  0  0  0  0  0  0  0  0  0  0  0
   -3.4409   -0.3347   -1.0532 H   0  0  0  0  0  0  0  0  0  0  0  0
   -2.5864   -0.8227   -2.5911 H   0  0  0  0  0  0  0  0  0  0  0  0
   -2.4074    0.8667   -1.8807 H   0  0  0  0  0  0  0  0  0  0  0  0
   -2.1470    0.0144    0.7934 H   0  0  0  0  0  0  0  0  0  0  0  0
   -1.2284    1.2465   -0.0878 H   0  0  0  0  0  0  0  0  0  0  0  0
   -0.9555   -2.1806    0.9288 H   0  0  0  0  0  0  0  0  0  0  0  0
    0.7756   -2.1933    1.3089 H   0  0  0  0  0  0  0  0  0  0  0  0
   -0.4261   -1.6421    2.5478 H   0  0  0  0  0  0  0  0  0  0  0  0
    0.0058    1.5886    1.7603 H   0  0  0  0  0  0  0  0  0  0  0  0
    1.2390   -0.7414   -0.6868 H   0  0  0  0  0  0  0  0  0  0  0  0
    2.0671   -0.4410    0.8615 H   0  0  0  0  0  0  0  0  0  0  0  0
    2.6993    0.6474   -1.8519 H   0  0  0  0  0  0  0  0  0  0  0  0
    3.5551    1.0377   -0.3338 H   0  0  0  0  0  0  0  0  0  0  0  0
    2.8133    2.3591   -1.2583 H   0  0  0  0  0  0  0  0  0  0  0  0
  1  2  1  0
  2  3  1  0
  3  4  1  0
  4  5  1  0
  4  6  1  0
  4  7  1  0
  7  8  1  0
  8  9  1  0
  1 10  1  0
  1 11  1  0
  1 12  1  0
  3 13  1  0
  3 14  1  0
  5 15  1  0
  5 16  1  0
  5 17  1  0
  6 18  1  0
  7 19  1  0
  7 20  1  0
  9 21  1  0
  9 22  1  0
  9 23  1  0
M  END
