
     RDKit          3D

 23 24  0  0  0  0  0  0  0  0999 V2000
    3.0839    0.7238   -0.3777 C   0  0  0  0  0  0  0  0  0  0  0  0
    1.7452    0.7813    0.0064 O   0  0  0  0  0  0  0  0  0  0  0  0
    1.1493   -0.4044   -0.4186 C   0  0  0  0  0  0  0  0  0  0  0  0
   -0.3268   -0.4439   -0.0456 C   0  0  0  0  0  0  0  0  0  0  0  0
   -1.0194   -1.6760   -0.4677 C   0  0  0  0  0  0  0  0  0  0  0  0
   -0.5014   -0.0055    1.4224 C   0  0  0  0  0  0  0  0  0  0  0  0
   -1.9014    0.2760    0.9372 C   0  0  0  0  0  0  0  0  0  0  0  0
   -2.3654    1.2511    0.0018 C   0  0  0  0  0  0  0  0  0  0  0  0
   -1.0231    0.8801   -0.2395 C   0  0  0  0  0  0  0  0  0  0  0  0
    3.1707    0.6247   -1.4901 H   0  0  0  0  0  0  0  0  0  0  0  0
    3.5765   -0.1701    0.0681 H   0  0  0  0  0  0  0  0  0  0  0  0
    3.6488    1.6388   -0.1070 H   0  0  0  0  0  0  0  0  0  0  0  0
    1.7067   -1.2419   -0.0036 H   0  0  0  0  0  0  0  0  0  0  0  0
    1.2610   -0.4179   -1.5331 H   0  0  0  0  0  0  0  0  0  0  0  0
   -1.2523   -2.3997    0.3419 H   0  0  0  0  0  0  0  0  0  0  0  0
   -1.9168   -1.4839   -1.1289 H   0  0  0  0  0  0  0  0  0  0  0  0
   -0.3252   -2.2492   -1.1542 H   0  0  0  0  0  0  0  0  0  0  0  0
   -0.4399   -0.7981    2.1545 H   0  0  0  0  0  0  0  0  0  0  0  0
    0.1333    0.8933    1.5858 H   0  0  0  0  0  0  0  0  0  0  0  0
   -2.3639   -0.7355    0.7093 H   0  0  0  0  0  0  0  0  0  0  0  0
   -2.6542    2.2513    0.4482 H   0  0  0  0  0  0  0  0  0  0  0  0
   -3.1014    1.0349   -0.8330 H   0  0  0  0  0  0  0  0  0  0  0  0
   -0.2843    1.6709    0.1233 H   0  0  0  0  0  0  0  0  0  0  0  0
  1  2  1  0
  2  3  1  0
  3  4  1  0
  4  5  1  0
  4  6  1  0
  6  7  1  0
  7  8  1  0
  8  9  1  0
  9  4  1  0
  9  7  1  0
  1 10  1  0
  1 11  1  0
  1 12  1  0
  3 13  1  0
  3 14  1  0
  5 15  1  0
  5 16  1  0
  5 17  1  0
  6 18  1  0
  6 19  1  0
  7 20  1  0
  8 21  1  0
  8 22  1  0
  9 23  1  0
M  END
