
     RDKit          3D

 21 21  0  0  0  0  0  0  0  0999 V2000
    3.4388   -0.6250    0.2780 C   0  0  0  0  0  0  0  0  0  0  0  0
    2.2485   -0.4815   -0.4439 O   0  0  0  0  0  0  0  0  0  0  0  0
    1.3772    0.3482    0.2648 C   0  0  0  0  0  0  0  0  0  0  0  0
    0.1208    0.4575   -0.5693 C   0  0  0  0  0  0  0  0  0  0  0  0
   -0.4351   -0.7955   -0.7524 O   0  0  0  0  0  0  0  0  0  0  0  0
   -1.6820   -0.2362   -0.6533 C   0  0  0  0  0  0  0  0  0  0  0  0
   -2.6799   -1.1218    0.0570 C   0  0  0  0  0  0  0  0  0  0  0  0
   -1.1098    0.8780    0.1599 C   0  0  0  0  0  0  0  0  0  0  0  0
   -1.5193    2.1425   -0.2813 O   0  0  0  0  0  0  0  0  0  0  0  0
    4.1091   -1.2752   -0.2874 H   0  0  0  0  0  0  0  0  0  0  0  0
    3.8273    0.3970    0.4474 H   0  0  0  0  0  0  0  0  0  0  0  0
    3.1627   -1.1001    1.2450 H   0  0  0  0  0  0  0  0  0  0  0  0
    1.1537   -0.0314    1.2662 H   0  0  0  0  0  0  0  0  0  0  0  0
    1.8812    1.3466    0.3708 H   0  0  0  0  0  0  0  0  0  0  0  0
    0.2984    0.9621   -1.5199 H   0  0  0  0  0  0  0  0  0  0  0  0
   -2.0562    0.1110   -1.6241 H   0  0  0  0  0  0  0  0  0  0  0  0
   -2.2159   -1.5482    0.9859 H   0  0  0  0  0  0  0  0  0  0  0  0
   -2.8623   -1.9963   -0.6151 H   0  0  0  0  0  0  0  0  0  0  0  0
   -3.6392   -0.6353    0.2304 H   0  0  0  0  0  0  0  0  0  0  0  0
   -1.0902    0.7444    1.2553 H   0  0  0  0  0  0  0  0  0  0  0  0
   -2.3277    2.4590    0.1859 H   0  0  0  0  0  0  0  0  0  0  0  0
  1  2  1  0
  2  3  1  0
  3  4  1  0
  4  5  1  0
  5  6  1  0
  6  7  1  0
  6  8  1  0
  8  9  1  0
  8  4  1  0
  1 10  1  0
  1 11  1  0
  1 12  1  0
  3 13  1  0
  3 14  1  0
  4 15  1  0
  6 16  1  0
  7 17  1  0
  7 18  1  0
  7 19  1  0
  8 20  1  0
  9 21  1  0
M  END
