
     RDKit          3D

 21 22  0  0  0  0  0  0  0  0999 V2000
    3.4006    0.1998   -0.3063 C   0  0  0  0  0  0  0  0  0  0  0  0
    2.1519    0.4322    0.2649 O   0  0  0  0  0  0  0  0  0  0  0  0
    1.2302   -0.5540   -0.0814 C   0  0  0  0  0  0  0  0  0  0  0  0
   -0.0595   -0.2099    0.5775 C   0  0  0  0  0  0  0  0  0  0  0  0
   -1.2144   -1.1227    0.3577 C   0  0  0  0  0  0  0  0  0  0  0  0
   -2.1199    0.0015   -0.0007 C   0  0  0  0  0  0  0  0  0  0  0  0
   -2.9215   -0.1352   -1.1310 O   0  0  0  0  0  0  0  0  0  0  0  0
   -2.0423    1.3357    0.6219 C   0  0  0  0  0  0  0  0  0  0  0  0
   -0.8591    0.8787   -0.1295 C   0  0  0  0  0  0  0  0  0  0  0  0
    3.2199    0.2006   -1.4226 H   0  0  0  0  0  0  0  0  0  0  0  0
    3.8464   -0.7613    0.0022 H   0  0  0  0  0  0  0  0  0  0  0  0
    4.0737    1.0486   -0.0834 H   0  0  0  0  0  0  0  0  0  0  0  0
    1.6014   -1.5062    0.3874 H   0  0  0  0  0  0  0  0  0  0  0  0
    1.1621   -0.6794   -1.1750 H   0  0  0  0  0  0  0  0  0  0  0  0
    0.1042    0.0940    1.6295 H   0  0  0  0  0  0  0  0  0  0  0  0
   -1.0330   -1.7721   -0.5455 H   0  0  0  0  0  0  0  0  0  0  0  0
   -1.5110   -1.7532    1.2273 H   0  0  0  0  0  0  0  0  0  0  0  0
   -3.8277   -0.4058   -0.7791 H   0  0  0  0  0  0  0  0  0  0  0  0
   -2.6856    2.1128    0.2094 H   0  0  0  0  0  0  0  0  0  0  0  0
   -1.8830    1.4468    1.7340 H   0  0  0  0  0  0  0  0  0  0  0  0
   -0.6335    1.1489   -1.1544 H   0  0  0  0  0  0  0  0  0  0  0  0
  1  2  1  0
  2  3  1  0
  3  4  1  0
  4  5  1  0
  5  6  1  0
  6  7  1  0
  6  8  1  0
  8  9  1  0
  9  4  1  0
  9  6  1  0
  1 10  1  0
  1 11  1  0
  1 12  1  0
  3 13  1  0
  3 14  1  0
  4 15  1  0
  5 16  1  0
  5 17  1  0
  7 18  1  0
  8 19  1  0
  8 20  1  0
  9 21  1  0
M  END
