
     RDKit          3D

 25 25  0  0  0  0  0  0  0  0999 V2000
    3.0097   -0.5455   -1.3391 C   0  0  0  0  0  0  0  0  0  0  0  0
    1.7785    0.0285   -1.0945 O   0  0  0  0  0  0  0  0  0  0  0  0
    1.3414   -0.1825    0.2015 C   0  0  0  0  0  0  0  0  0  0  0  0
   -0.0081    0.4841    0.3607 C   0  0  0  0  0  0  0  0  0  0  0  0
    0.0459    1.9859    0.1059 C   0  0  0  0  0  0  0  0  0  0  0  0
   -0.7500    0.0221    1.6136 C   0  0  0  0  0  0  0  0  0  0  0  0
   -1.2617   -0.2578    0.2117 C   0  0  0  0  0  0  0  0  0  0  0  0
   -1.2813   -1.7044   -0.2207 C   0  0  0  0  0  0  0  0  0  0  0  0
   -2.5202    0.4970   -0.1273 C   0  0  0  0  0  0  0  0  0  0  0  0
    3.0388   -1.6324   -1.2005 H   0  0  0  0  0  0  0  0  0  0  0  0
    3.3619   -0.2284   -2.3372 H   0  0  0  0  0  0  0  0  0  0  0  0
    3.7220   -0.0902   -0.5931 H   0  0  0  0  0  0  0  0  0  0  0  0
    2.0184    0.2912    0.9591 H   0  0  0  0  0  0  0  0  0  0  0  0
    1.3192   -1.2615    0.4487 H   0  0  0  0  0  0  0  0  0  0  0  0
   -0.9167    2.4127   -0.1607 H   0  0  0  0  0  0  0  0  0  0  0  0
    0.7099    2.1057   -0.7950 H   0  0  0  0  0  0  0  0  0  0  0  0
    0.5686    2.4597    0.9420 H   0  0  0  0  0  0  0  0  0  0  0  0
   -0.3674   -0.8545    2.1652 H   0  0  0  0  0  0  0  0  0  0  0  0
   -1.2224    0.7892    2.2293 H   0  0  0  0  0  0  0  0  0  0  0  0
   -1.3394   -1.8045   -1.3192 H   0  0  0  0  0  0  0  0  0  0  0  0
   -2.1974   -2.1865    0.2263 H   0  0  0  0  0  0  0  0  0  0  0  0
   -0.4288   -2.2883    0.1876 H   0  0  0  0  0  0  0  0  0  0  0  0
   -2.5851    1.4310    0.4857 H   0  0  0  0  0  0  0  0  0  0  0  0
   -2.6627    0.6693   -1.1997 H   0  0  0  0  0  0  0  0  0  0  0  0
   -3.3734   -0.1400    0.2495 H   0  0  0  0  0  0  0  0  0  0  0  0
  1  2  1  0
  2  3  1  0
  3  4  1  0
  4  5  1  0
  4  6  1  0
  6  7  1  0
  7  8  1  0
  7  9  1  0
  7  4  1  0
  1 10  1  0
  1 11  1  0
  1 12  1  0
  3 13  1  0
  3 14  1  0
  5 15  1  0
  5 16  1  0
  5 17  1  0
  6 18  1  0
  6 19  1  0
  8 20  1  0
  8 21  1  0
  8 22  1  0
  9 23  1  0
  9 24  1  0
  9 25  1  0
M  END
