
     RDKit          3D

 21 21  0  0  0  0  0  0  0  0999 V2000
    2.8998   -0.2580   -0.7801 C   0  0  0  0  0  0  0  0  0  0  0  0
    1.5220   -0.2698   -1.0532 O   0  0  0  0  0  0  0  0  0  0  0  0
    0.8992   -0.2551    0.2064 C   0  0  0  0  0  0  0  0  0  0  0  0
   -0.6155   -0.2658    0.0628 C   0  0  0  0  0  0  0  0  0  0  0  0
   -1.1426   -1.4675   -0.6595 C   0  0  0  0  0  0  0  0  0  0  0  0
   -1.3575    0.4098    1.1327 C   0  0  0  0  0  0  0  0  0  0  0  0
   -2.6256    0.0332    1.5298 O   0  0  0  0  0  0  0  0  0  0  0  0
   -1.2652    1.0447   -0.2225 C   0  0  0  0  0  0  0  0  0  0  0  0
   -0.4881    2.1965   -0.3433 O   0  0  0  0  0  0  0  0  0  0  0  0
    3.0729    0.6911   -0.2055 H   0  0  0  0  0  0  0  0  0  0  0  0
    3.5034   -0.2544   -1.7042 H   0  0  0  0  0  0  0  0  0  0  0  0
    3.0960   -1.1174   -0.1203 H   0  0  0  0  0  0  0  0  0  0  0  0
    1.2273   -1.1768    0.7430 H   0  0  0  0  0  0  0  0  0  0  0  0
    1.2434    0.6749    0.7076 H   0  0  0  0  0  0  0  0  0  0  0  0
   -0.6691   -1.5029   -1.6791 H   0  0  0  0  0  0  0  0  0  0  0  0
   -2.2260   -1.4595   -0.8113 H   0  0  0  0  0  0  0  0  0  0  0  0
   -0.8399   -2.4098   -0.1641 H   0  0  0  0  0  0  0  0  0  0  0  0
   -0.7824    0.9181    1.9550 H   0  0  0  0  0  0  0  0  0  0  0  0
   -3.0344    0.8416    1.9759 H   0  0  0  0  0  0  0  0  0  0  0  0
   -2.1408    1.0164   -0.9098 H   0  0  0  0  0  0  0  0  0  0  0  0
   -0.2768    2.6105    0.5335 H   0  0  0  0  0  0  0  0  0  0  0  0
  1  2  1  0
  2  3  1  0
  3  4  1  0
  4  5  1  0
  4  6  1  0
  6  7  1  0
  6  8  1  0
  8  9  1  0
  8  4  1  0
  1 10  1  0
  1 11  1  0
  1 12  1  0
  3 13  1  0
  3 14  1  0
  5 15  1  0
  5 16  1  0
  5 17  1  0
  6 18  1  0
  7 19  1  0
  8 20  1  0
  9 21  1  0
M  END
