
     RDKit          3D

 19 18  0  0  0  0  0  0  0  0999 V2000
    3.8173   -0.7049    1.1023 C   0  0  0  0  0  0  0  0  0  0  0  0
    2.4212   -0.6519    1.2694 O   0  0  0  0  0  0  0  0  0  0  0  0
    1.8932   -0.0460    0.1704 C   0  0  0  0  0  0  0  0  0  0  0  0
    0.4672    0.0039    0.2629 C   0  0  0  0  0  0  0  0  0  0  0  0
   -0.7985    0.0414    0.3239 C   0  0  0  0  0  0  0  0  0  0  0  0
   -2.2687    0.0884    0.3692 C   0  0  0  0  0  0  0  0  0  0  0  0
   -2.7436    1.4535   -0.1682 C   0  0  0  0  0  0  0  0  0  0  0  0
   -2.7914   -0.9892   -0.5282 C   0  0  0  0  0  0  0  0  0  0  0  0
   -3.4256   -0.7411   -1.5192 O   0  0  0  0  0  0  0  0  0  0  0  0
    4.0254   -1.3533    0.2304 H   0  0  0  0  0  0  0  0  0  0  0  0
    4.2436   -1.0763    2.0369 H   0  0  0  0  0  0  0  0  0  0  0  0
    4.1659    0.3395    0.8645 H   0  0  0  0  0  0  0  0  0  0  0  0
    2.3504    0.9905    0.0752 H   0  0  0  0  0  0  0  0  0  0  0  0
    2.2529   -0.5512   -0.7619 H   0  0  0  0  0  0  0  0  0  0  0  0
   -2.5840   -0.0600    1.4027 H   0  0  0  0  0  0  0  0  0  0  0  0
   -3.8290    1.5141   -0.0431 H   0  0  0  0  0  0  0  0  0  0  0  0
   -2.1996    2.2108    0.4043 H   0  0  0  0  0  0  0  0  0  0  0  0
   -2.4150    1.5413   -1.2475 H   0  0  0  0  0  0  0  0  0  0  0  0
   -2.5818   -2.0094   -0.2624 H   0  0  0  0  0  0  0  0  0  0  0  0
  1  2  1  0
  2  3  1  0
  3  4  1  0
  4  5  3  0
  5  6  1  0
  6  7  1  0
  6  8  1  0
  8  9  2  0
  1 10  1  0
  1 11  1  0
  1 12  1  0
  3 13  1  0
  3 14  1  0
  6 15  1  0
  7 16  1  0
  7 17  1  0
  7 18  1  0
  8 19  1  0
M  END
