
     RDKit          3D

 22 22  0  0  0  0  0  0  0  0999 V2000
    3.2770    0.1917    0.2357 C   0  0  0  0  0  0  0  0  0  0  0  0
    1.9446    0.1350    0.6413 O   0  0  0  0  0  0  0  0  0  0  0  0
    1.1799   -0.1586   -0.4554 C   0  0  0  0  0  0  0  0  0  0  0  0
   -0.2953   -0.2512   -0.1583 C   0  0  0  0  0  0  0  0  0  0  0  0
   -0.6976   -1.2981    0.8483 C   0  0  0  0  0  0  0  0  0  0  0  0
   -1.1594   -0.0882   -1.4149 C   0  0  0  0  0  0  0  0  0  0  0  0
   -1.1896    0.9161   -0.2825 C   0  0  0  0  0  0  0  0  0  0  0  0
   -2.4829    0.9068    0.5071 C   0  0  0  0  0  0  0  0  0  0  0  0
    3.6224   -0.7727   -0.1978 H   0  0  0  0  0  0  0  0  0  0  0  0
    3.9603    0.4953    1.0600 H   0  0  0  0  0  0  0  0  0  0  0  0
    3.3672    0.9496   -0.5902 H   0  0  0  0  0  0  0  0  0  0  0  0
    1.5165   -1.1628   -0.8382 H   0  0  0  0  0  0  0  0  0  0  0  0
    1.4007    0.5580   -1.2731 H   0  0  0  0  0  0  0  0  0  0  0  0
   -0.9937   -0.7496    1.7871 H   0  0  0  0  0  0  0  0  0  0  0  0
    0.1116   -1.9910    1.1155 H   0  0  0  0  0  0  0  0  0  0  0  0
   -1.5966   -1.8139    0.4457 H   0  0  0  0  0  0  0  0  0  0  0  0
   -1.9969   -0.8044   -1.5151 H   0  0  0  0  0  0  0  0  0  0  0  0
   -0.6920    0.2992   -2.3298 H   0  0  0  0  0  0  0  0  0  0  0  0
   -0.7971    1.9419   -0.4558 H   0  0  0  0  0  0  0  0  0  0  0  0
   -3.1126    0.0282    0.2506 H   0  0  0  0  0  0  0  0  0  0  0  0
   -3.0694    1.8038    0.2721 H   0  0  0  0  0  0  0  0  0  0  0  0
   -2.2970    0.8648    1.6000 H   0  0  0  0  0  0  0  0  0  0  0  0
  1  2  1  0
  2  3  1  0
  3  4  1  0
  4  5  1  0
  4  6  1  0
  6  7  1  0
  7  8  1  0
  7  4  1  0
  1  9  1  0
  1 10  1  0
  1 11  1  0
  3 12  1  0
  3 13  1  0
  5 14  1  0
  5 15  1  0
  5 16  1  0
  6 17  1  0
  6 18  1  0
  7 19  1  0
  8 20  1  0
  8 21  1  0
  8 22  1  0
M  END
