
     RDKit          3D

 19 22  0  0  0  0  0  0  0  0999 V2000
    2.9892   -0.0604    0.7022 C   0  0  0  0  0  0  0  0  0  0  0  0
    1.8087   -0.4950    0.0544 O   0  0  0  0  0  0  0  0  0  0  0  0
    0.8308    0.5306    0.1637 C   0  0  0  0  0  0  0  0  0  0  0  0
   -0.3473    0.0479   -0.5054 C   0  0  0  0  0  0  0  0  0  0  0  0
   -1.6794    0.8994   -0.6100 C   0  0  0  0  0  0  0  0  0  0  0  0
   -1.6726    0.3075    0.4033 C   0  0  0  0  0  0  0  0  0  0  0  0
   -2.5438   -0.3788   -0.0162 C   0  0  0  0  0  0  0  0  0  0  0  0
   -1.1613   -1.2126    0.1088 C   0  0  0  0  0  0  0  0  0  0  0  0
   -1.2152   -0.6304   -0.9174 C   0  0  0  0  0  0  0  0  0  0  0  0
    3.7697   -0.8237    0.6408 H   0  0  0  0  0  0  0  0  0  0  0  0
    2.7898    0.2617    1.7247 H   0  0  0  0  0  0  0  0  0  0  0  0
    3.3473    0.8206    0.1156 H   0  0  0  0  0  0  0  0  0  0  0  0
    1.2889    1.3612   -0.4533 H   0  0  0  0  0  0  0  0  0  0  0  0
    0.8359    0.8059    1.2135 H   0  0  0  0  0  0  0  0  0  0  0  0
   -1.9842    1.1503   -1.6368 H   0  0  0  0  0  0  0  0  0  0  0  0
   -1.0713    0.2815    1.3007 H   0  0  0  0  0  0  0  0  0  0  0  0
   -3.2397   -0.7870   -0.7623 H   0  0  0  0  0  0  0  0  0  0  0  0
   -0.8877   -1.4472    1.1379 H   0  0  0  0  0  0  0  0  0  0  0  0
   -1.8581   -0.6315   -1.7936 H   0  0  0  0  0  0  0  0  0  0  0  0
  1  2  1  0
  2  3  1  0
  3  4  1  0
  4  5  1  0
  5  6  1  0
  6  7  1  0
  7  8  1  0
  8  9  1  0
  8  4  1  0
  9  4  1  0
  7  5  1  0
  9  6  1  0
  1 10  1  0
  1 11  1  0
  1 12  1  0
  3 13  1  0
  3 14  1  0
  5 15  1  0
  6 16  1  0
  7 17  1  0
  8 18  1  0
  9 19  1  0
M  END
