
     RDKit          3D

 19 18  0  0  0  0  0  0  0  0999 V2000
    2.7166    1.0427   -0.2547 C   0  0  0  0  0  0  0  0  0  0  0  0
    2.5749   -0.2180    0.2584 O   0  0  0  0  0  0  0  0  0  0  0  0
    1.4703   -0.9267   -0.0945 C   0  0  0  0  0  0  0  0  0  0  0  0
    0.1746   -0.3616    0.3037 C   0  0  0  0  0  0  0  0  0  0  0  0
    0.0842    0.6593    0.9401 O   0  0  0  0  0  0  0  0  0  0  0  0
   -1.0792   -1.0564   -0.0809 C   0  0  0  0  0  0  0  0  0  0  0  0
   -2.3027   -0.3131    0.4258 C   0  0  0  0  0  0  0  0  0  0  0  0
   -2.3761    1.0567   -0.1194 C   0  0  0  0  0  0  0  0  0  0  0  0
   -3.2983    1.7765    0.1933 O   0  0  0  0  0  0  0  0  0  0  0  0
    3.6837    1.5020    0.1150 H   0  0  0  0  0  0  0  0  0  0  0  0
    1.9375    1.7035    0.1646 H   0  0  0  0  0  0  0  0  0  0  0  0
    2.7167    1.0806   -1.3659 H   0  0  0  0  0  0  0  0  0  0  0  0
    1.4940   -1.2212   -1.1744 H   0  0  0  0  0  0  0  0  0  0  0  0
    1.5438   -1.9168    0.4586 H   0  0  0  0  0  0  0  0  0  0  0  0
   -1.1355   -0.9861   -1.2048 H   0  0  0  0  0  0  0  0  0  0  0  0
   -1.1144   -2.1093    0.1943 H   0  0  0  0  0  0  0  0  0  0  0  0
   -2.2753   -0.2198    1.5436 H   0  0  0  0  0  0  0  0  0  0  0  0
   -3.1960   -0.9243    0.2027 H   0  0  0  0  0  0  0  0  0  0  0  0
   -1.6188    1.4318   -0.7958 H   0  0  0  0  0  0  0  0  0  0  0  0
  1  2  1  0
  2  3  1  0
  3  4  1  0
  4  5  2  0
  4  6  1  0
  6  7  1  0
  7  8  1  0
  8  9  2  0
  1 10  1  0
  1 11  1  0
  1 12  1  0
  3 13  1  0
  3 14  1  0
  6 15  1  0
  6 16  1  0
  7 17  1  0
  7 18  1  0
  8 19  1  0
M  END
