
     RDKit          3D

 19 18  0  0  0  0  0  0  0  0999 V2000
    3.0130   -0.4409   -0.4066 C   0  0  0  0  0  0  0  0  0  0  0  0
    2.6327    0.1925    0.7496 O   0  0  0  0  0  0  0  0  0  0  0  0
    1.2686    0.2371    0.8660 C   0  0  0  0  0  0  0  0  0  0  0  0
    0.6432    0.9879   -0.2567 C   0  0  0  0  0  0  0  0  0  0  0  0
   -0.7822    1.0234   -0.0774 O   0  0  0  0  0  0  0  0  0  0  0  0
   -1.5720   -0.1125   -0.0471 C   0  0  0  0  0  0  0  0  0  0  0  0
   -1.0902   -1.2514   -0.1781 O   0  0  0  0  0  0  0  0  0  0  0  0
   -3.0396    0.1013    0.1520 C   0  0  0  0  0  0  0  0  0  0  0  0
   -3.7097   -1.1226    0.1618 O   0  0  0  0  0  0  0  0  0  0  0  0
    4.1343   -0.5316   -0.4700 H   0  0  0  0  0  0  0  0  0  0  0  0
    2.6775    0.2175   -1.2680 H   0  0  0  0  0  0  0  0  0  0  0  0
    2.4839   -1.3986   -0.4819 H   0  0  0  0  0  0  0  0  0  0  0  0
    0.8821   -0.8320    0.9046 H   0  0  0  0  0  0  0  0  0  0  0  0
    0.9507    0.6450    1.8711 H   0  0  0  0  0  0  0  0  0  0  0  0
    0.8133    0.4953   -1.2462 H   0  0  0  0  0  0  0  0  0  0  0  0
    0.9772    2.0373   -0.3075 H   0  0  0  0  0  0  0  0  0  0  0  0
   -3.2168    0.5851    1.1296 H   0  0  0  0  0  0  0  0  0  0  0  0
   -3.4555    0.7763   -0.6309 H   0  0  0  0  0  0  0  0  0  0  0  0
   -3.6106   -1.6091   -0.6900 H   0  0  0  0  0  0  0  0  0  0  0  0
  1  2  1  0
  2  3  1  0
  3  4  1  0
  4  5  1  0
  5  6  1  0
  6  7  2  0
  6  8  1  0
  8  9  1  0
  1 10  1  0
  1 11  1  0
  1 12  1  0
  3 13  1  0
  3 14  1  0
  4 15  1  0
  4 16  1  0
  8 17  1  0
  8 18  1  0
  9 19  1  0
M  END
