
     RDKit          3D

 19 19  0  0  0  0  0  0  0  0999 V2000
    2.7227    0.7338   -0.0817 C   0  0  0  0  0  0  0  0  0  0  0  0
    1.6677    0.7057    0.8178 O   0  0  0  0  0  0  0  0  0  0  0  0
    0.7401   -0.2639    0.5624 C   0  0  0  0  0  0  0  0  0  0  0  0
    0.0403   -0.1913   -0.7541 C   0  0  0  0  0  0  0  0  0  0  0  0
   -0.9839   -1.3078   -0.9573 C   0  0  0  0  0  0  0  0  0  0  0  0
   -1.3749    0.1326   -0.9114 C   0  0  0  0  0  0  0  0  0  0  0  0
   -2.2691    0.5700    0.1917 C   0  0  0  0  0  0  0  0  0  0  0  0
    3.4597    1.5360    0.1913 H   0  0  0  0  0  0  0  0  0  0  0  0
    3.2692   -0.2241   -0.1562 H   0  0  0  0  0  0  0  0  0  0  0  0
    2.3063    1.0746   -1.0625 H   0  0  0  0  0  0  0  0  0  0  0  0
   -0.0309   -0.2573    1.3890 H   0  0  0  0  0  0  0  0  0  0  0  0
    1.2327   -1.2773    0.6684 H   0  0  0  0  0  0  0  0  0  0  0  0
    0.7344   -0.0002   -1.6251 H   0  0  0  0  0  0  0  0  0  0  0  0
   -0.9330   -1.8325   -1.9398 H   0  0  0  0  0  0  0  0  0  0  0  0
   -1.2063   -1.9880   -0.1121 H   0  0  0  0  0  0  0  0  0  0  0  0
   -1.6742    0.5413   -1.9207 H   0  0  0  0  0  0  0  0  0  0  0  0
   -3.0745   -0.2035    0.3594 H   0  0  0  0  0  0  0  0  0  0  0  0
   -2.8304    1.5130   -0.0737 H   0  0  0  0  0  0  0  0  0  0  0  0
   -1.7959    0.7390    1.1557 H   0  0  0  0  0  0  0  0  0  0  0  0
  1  2  1  0
  2  3  1  0
  3  4  1  0
  4  5  1  0
  5  6  1  0
  6  7  1  0
  6  4  1  0
  1  8  1  0
  1  9  1  0
  1 10  1  0
  3 11  1  0
  3 12  1  0
  4 13  1  0
  5 14  1  0
  5 15  1  0
  6 16  1  0
  7 17  1  0
  7 18  1  0
  7 19  1  0
M  END
