
     RDKit          3D

 18 17  0  0  0  0  0  0  0  0999 V2000
    2.2637   -1.2535    0.1195 C   0  0  0  0  0  0  0  0  0  0  0  0
    0.9783   -0.8293   -0.2447 O   0  0  0  0  0  0  0  0  0  0  0  0
    0.7876    0.4303    0.2973 C   0  0  0  0  0  0  0  0  0  0  0  0
   -0.5540    1.0330   -0.0146 C   0  0  0  0  0  0  0  0  0  0  0  0
   -0.5489    2.3073    0.6057 O   0  0  0  0  0  0  0  0  0  0  0  0
   -1.7132    0.2352    0.4807 C   0  0  0  0  0  0  0  0  0  0  0  0
   -1.8255   -1.1275   -0.0662 C   0  0  0  0  0  0  0  0  0  0  0  0
   -2.6924   -1.8953    0.2997 O   0  0  0  0  0  0  0  0  0  0  0  0
    2.3539   -1.2961    1.2229 H   0  0  0  0  0  0  0  0  0  0  0  0
    3.0550   -0.5284   -0.2220 H   0  0  0  0  0  0  0  0  0  0  0  0
    2.4312   -2.2645   -0.3365 H   0  0  0  0  0  0  0  0  0  0  0  0
    1.5437    1.1330   -0.1353 H   0  0  0  0  0  0  0  0  0  0  0  0
    0.9591    0.3501    1.3977 H   0  0  0  0  0  0  0  0  0  0  0  0
   -0.5943    1.1616   -1.1244 H   0  0  0  0  0  0  0  0  0  0  0  0
   -0.9192    2.9913   -0.0062 H   0  0  0  0  0  0  0  0  0  0  0  0
   -2.6433    0.8194    0.2049 H   0  0  0  0  0  0  0  0  0  0  0  0
   -1.7514    0.2065    1.6096 H   0  0  0  0  0  0  0  0  0  0  0  0
   -1.1303   -1.4733   -0.8144 H   0  0  0  0  0  0  0  0  0  0  0  0
  1  2  1  0
  2  3  1  0
  3  4  1  0
  4  5  1  0
  4  6  1  0
  6  7  1  0
  7  8  2  0
  1  9  1  0
  1 10  1  0
  1 11  1  0
  3 12  1  0
  3 13  1  0
  4 14  1  0
  5 15  1  0
  6 16  1  0
  6 17  1  0
  7 18  1  0
M  END
