
     RDKit          3D

 21 20  0  0  0  0  0  0  0  0999 V2000
    2.7607    0.3032   -0.0888 C   0  0  0  0  0  0  0  0  0  0  0  0
    1.4719    0.4605    0.3708 O   0  0  0  0  0  0  0  0  0  0  0  0
    0.6018   -0.1796   -0.4996 C   0  0  0  0  0  0  0  0  0  0  0  0
   -0.8366   -0.1034   -0.1439 C   0  0  0  0  0  0  0  0  0  0  0  0
   -1.5832   -0.9198   -1.2154 C   0  0  0  0  0  0  0  0  0  0  0  0
   -1.0139   -0.9351    1.1293 C   0  0  0  0  0  0  0  0  0  0  0  0
   -1.4268    1.1348   -0.0631 O   0  0  0  0  0  0  0  0  0  0  0  0
   -1.1066    2.1677    0.7752 C   0  0  0  0  0  0  0  0  0  0  0  0
   -0.1756    2.0207    1.5894 O   0  0  0  0  0  0  0  0  0  0  0  0
    2.9290    0.7226   -1.0960 H   0  0  0  0  0  0  0  0  0  0  0  0
    3.4309    0.7957    0.6761 H   0  0  0  0  0  0  0  0  0  0  0  0
    3.1002   -0.7552   -0.1203 H   0  0  0  0  0  0  0  0  0  0  0  0
    0.7717    0.1205   -1.5573 H   0  0  0  0  0  0  0  0  0  0  0  0
    0.9175   -1.2661   -0.4772 H   0  0  0  0  0  0  0  0  0  0  0  0
   -1.2725   -0.4857   -2.1853 H   0  0  0  0  0  0  0  0  0  0  0  0
   -2.6505   -0.8036   -0.9990 H   0  0  0  0  0  0  0  0  0  0  0  0
   -1.2155   -1.9538   -1.1100 H   0  0  0  0  0  0  0  0  0  0  0  0
   -0.2637   -0.6157    1.9054 H   0  0  0  0  0  0  0  0  0  0  0  0
   -0.7347   -1.9721    0.8480 H   0  0  0  0  0  0  0  0  0  0  0  0
   -2.0341   -0.8484    1.5381 H   0  0  0  0  0  0  0  0  0  0  0  0
   -1.6698    3.1126    0.7237 H   0  0  0  0  0  0  0  0  0  0  0  0
  1  2  1  0
  2  3  1  0
  3  4  1  0
  4  5  1  0
  4  6  1  0
  4  7  1  0
  7  8  1  0
  8  9  2  0
  1 10  1  0
  1 11  1  0
  1 12  1  0
  3 13  1  0
  3 14  1  0
  5 15  1  0
  5 16  1  0
  5 17  1  0
  6 18  1  0
  6 19  1  0
  6 20  1  0
  8 21  1  0
M  END
