
     RDKit          3D

 16 15  0  0  0  0  0  0  0  0999 V2000
   -2.5268    0.1427   -0.1672 C   0  0  0  0  0  0  0  0  0  0  0  0
   -1.2607    0.6401   -0.4637 O   0  0  0  0  0  0  0  0  0  0  0  0
   -0.3427   -0.3295   -0.0988 C   0  0  0  0  0  0  0  0  0  0  0  0
    1.0877    0.0962   -0.3743 C   0  0  0  0  0  0  0  0  0  0  0  0
    1.9535   -1.0246    0.0597 C   0  0  0  0  0  0  0  0  0  0  0  0
    2.3514   -1.0325    1.2013 O   0  0  0  0  0  0  0  0  0  0  0  0
    1.4701    1.2926    0.3976 C   0  0  0  0  0  0  0  0  0  0  0  0
    2.4374    1.9424    0.0816 O   0  0  0  0  0  0  0  0  0  0  0  0
   -2.7630   -0.7852   -0.7011 H   0  0  0  0  0  0  0  0  0  0  0  0
   -3.3289    0.8887   -0.3330 H   0  0  0  0  0  0  0  0  0  0  0  0
   -2.5237   -0.0976    0.9293 H   0  0  0  0  0  0  0  0  0  0  0  0
   -0.3841   -0.5293    1.0051 H   0  0  0  0  0  0  0  0  0  0  0  0
   -0.5188   -1.2461   -0.6800 H   0  0  0  0  0  0  0  0  0  0  0  0
    1.2658    0.2546   -1.4574 H   0  0  0  0  0  0  0  0  0  0  0  0
    2.2032   -1.7947   -0.6449 H   0  0  0  0  0  0  0  0  0  0  0  0
    0.8796    1.5823    1.2457 H   0  0  0  0  0  0  0  0  0  0  0  0
  1  2  1  0
  2  3  1  0
  3  4  1  0
  4  5  1  0
  5  6  2  0
  4  7  1  0
  7  8  2  0
  1  9  1  0
  1 10  1  0
  1 11  1  0
  3 12  1  0
  3 13  1  0
  4 14  1  0
  5 15  1  0
  7 16  1  0
M  END
