
     RDKit          3D

 22 21  0  0  0  0  0  0  0  0999 V2000
   -2.8693   -0.8053   -0.8772 C   0  0  0  0  0  0  0  0  0  0  0  0
   -2.6801    0.3930   -0.2096 O   0  0  0  0  0  0  0  0  0  0  0  0
   -1.3728    0.8505   -0.2671 C   0  0  0  0  0  0  0  0  0  0  0  0
   -0.4726   -0.1636    0.3579 C   0  0  0  0  0  0  0  0  0  0  0  0
    0.9806    0.2551    0.3515 C   0  0  0  0  0  0  0  0  0  0  0  0
    1.2138    1.5356    1.1022 C   0  0  0  0  0  0  0  0  0  0  0  0
    1.7993   -0.7840    0.7806 O   0  0  0  0  0  0  0  0  0  0  0  0
    2.6531   -1.2253   -0.2283 C   0  0  0  0  0  0  0  0  0  0  0  0
   -2.6103   -0.7457   -1.9529 H   0  0  0  0  0  0  0  0  0  0  0  0
   -2.4405   -1.6780   -0.3598 H   0  0  0  0  0  0  0  0  0  0  0  0
   -3.9934   -0.9699   -0.8291 H   0  0  0  0  0  0  0  0  0  0  0  0
   -1.1175    1.0715   -1.3263 H   0  0  0  0  0  0  0  0  0  0  0  0
   -1.3649    1.8245    0.2931 H   0  0  0  0  0  0  0  0  0  0  0  0
   -0.5236   -1.0845   -0.2958 H   0  0  0  0  0  0  0  0  0  0  0  0
   -0.8602   -0.4121    1.3564 H   0  0  0  0  0  0  0  0  0  0  0  0
    1.2436    0.4516   -0.7126 H   0  0  0  0  0  0  0  0  0  0  0  0
    2.3053    1.7275    1.0920 H   0  0  0  0  0  0  0  0  0  0  0  0
    0.8775    1.5015    2.1468 H   0  0  0  0  0  0  0  0  0  0  0  0
    0.6428    2.3360    0.6002 H   0  0  0  0  0  0  0  0  0  0  0  0
    3.3285   -0.4406   -0.6045 H   0  0  0  0  0  0  0  0  0  0  0  0
    3.2297   -2.1061    0.0528 H   0  0  0  0  0  0  0  0  0  0  0  0
    2.0310   -1.5321   -1.1186 H   0  0  0  0  0  0  0  0  0  0  0  0
  1  2  1  0
  2  3  1  0
  3  4  1  0
  4  5  1  0
  5  6  1  0
  5  7  1  0
  7  8  1  0
  1  9  1  0
  1 10  1  0
  1 11  1  0
  3 12  1  0
  3 13  1  0
  4 14  1  0
  4 15  1  0
  5 16  1  0
  6 17  1  0
  6 18  1  0
  6 19  1  0
  8 20  1  0
  8 21  1  0
  8 22  1  0
M  END
