
     RDKit          3D

 17 17  0  0  0  0  0  0  0  0999 V2000
    2.3475    0.6274    0.2559 C   0  0  0  0  0  0  0  0  0  0  0  0
    1.3303    0.4881    1.1930 O   0  0  0  0  0  0  0  0  0  0  0  0
    0.4260   -0.5096    0.8425 C   0  0  0  0  0  0  0  0  0  0  0  0
   -0.1782   -0.1450   -0.4759 C   0  0  0  0  0  0  0  0  0  0  0  0
   -1.5110   -0.7672   -0.7949 C   0  0  0  0  0  0  0  0  0  0  0  0
   -2.0467    0.4355   -0.0791 C   0  0  0  0  0  0  0  0  0  0  0  0
   -0.8393    1.0866   -0.3709 O   0  0  0  0  0  0  0  0  0  0  0  0
    2.9289   -0.3122    0.1425 H   0  0  0  0  0  0  0  0  0  0  0  0
    3.0621    1.3791    0.6927 H   0  0  0  0  0  0  0  0  0  0  0  0
    2.0082    1.0510   -0.7030 H   0  0  0  0  0  0  0  0  0  0  0  0
    0.8864   -1.5112    0.8656 H   0  0  0  0  0  0  0  0  0  0  0  0
   -0.3646   -0.4940    1.6437 H   0  0  0  0  0  0  0  0  0  0  0  0
    0.5320   -0.2225   -1.3085 H   0  0  0  0  0  0  0  0  0  0  0  0
   -1.7077   -0.6664   -1.8986 H   0  0  0  0  0  0  0  0  0  0  0  0
   -1.7235   -1.7441   -0.3634 H   0  0  0  0  0  0  0  0  0  0  0  0
   -2.2831    0.3218    0.9812 H   0  0  0  0  0  0  0  0  0  0  0  0
   -2.8675    0.9828   -0.6229 H   0  0  0  0  0  0  0  0  0  0  0  0
  1  2  1  0
  2  3  1  0
  3  4  1  0
  4  5  1  0
  5  6  1  0
  6  7  1  0
  7  4  1  0
  1  8  1  0
  1  9  1  0
  1 10  1  0
  3 11  1  0
  3 12  1  0
  4 13  1  0
  5 14  1  0
  5 15  1  0
  6 16  1  0
  6 17  1  0
M  END
