
     RDKit          3D

 21 21  0  0  0  0  0  0  0  0999 V2000
    2.7206    0.6868    0.1648 C   0  0  0  0  0  0  0  0  0  0  0  0
    2.0148    0.7044   -1.0024 O   0  0  0  0  0  0  0  0  0  0  0  0
    1.1807   -0.3575   -1.2442 C   0  0  0  0  0  0  0  0  0  0  0  0
    0.1035   -0.5317   -0.2088 C   0  0  0  0  0  0  0  0  0  0  0  0
    0.6248   -0.7737    1.0440 O   0  0  0  0  0  0  0  0  0  0  0  0
   -0.8015    0.6710   -0.2519 C   0  0  0  0  0  0  0  0  0  0  0  0
   -1.9198    0.6254    0.7321 C   0  0  0  0  0  0  0  0  0  0  0  0
   -2.8544   -0.5697    0.5476 C   0  0  0  0  0  0  0  0  0  0  0  0
   -2.0395   -0.3784    1.6582 O   0  0  0  0  0  0  0  0  0  0  0  0
    3.3769   -0.2310    0.2459 H   0  0  0  0  0  0  0  0  0  0  0  0
    2.1564    0.8969    1.0899 H   0  0  0  0  0  0  0  0  0  0  0  0
    3.4500    1.5623    0.0873 H   0  0  0  0  0  0  0  0  0  0  0  0
    0.7293   -0.1713   -2.2632 H   0  0  0  0  0  0  0  0  0  0  0  0
    1.7645   -1.3128   -1.3942 H   0  0  0  0  0  0  0  0  0  0  0  0
   -0.4736   -1.4515   -0.5140 H   0  0  0  0  0  0  0  0  0  0  0  0
    0.3209   -1.6054    1.4524 H   0  0  0  0  0  0  0  0  0  0  0  0
   -1.2628    0.6780   -1.2801 H   0  0  0  0  0  0  0  0  0  0  0  0
   -0.2342    1.6202   -0.1878 H   0  0  0  0  0  0  0  0  0  0  0  0
   -2.3955    1.6249    0.9164 H   0  0  0  0  0  0  0  0  0  0  0  0
   -3.9113   -0.3154    0.5653 H   0  0  0  0  0  0  0  0  0  0  0  0
   -2.5497   -1.3715   -0.1574 H   0  0  0  0  0  0  0  0  0  0  0  0
  1  2  1  0
  2  3  1  0
  3  4  1  0
  4  5  1  0
  4  6  1  0
  6  7  1  0
  7  8  1  0
  8  9  1  0
  9  7  1  0
  1 10  1  0
  1 11  1  0
  1 12  1  0
  3 13  1  0
  3 14  1  0
  4 15  1  0
  5 16  1  0
  6 17  1  0
  6 18  1  0
  7 19  1  0
  8 20  1  0
  8 21  1  0
M  END
