
     RDKit          3D

 21 20  0  0  0  0  0  0  0  0999 V2000
    3.0942    0.9530    0.4361 C   0  0  0  0  0  0  0  0  0  0  0  0
    1.8872    0.7924   -0.1923 O   0  0  0  0  0  0  0  0  0  0  0  0
    1.0537   -0.1191    0.4044 C   0  0  0  0  0  0  0  0  0  0  0  0
   -0.2616   -0.2535   -0.3327 C   0  0  0  0  0  0  0  0  0  0  0  0
   -1.0891   -1.1684    0.2725 O   0  0  0  0  0  0  0  0  0  0  0  0
   -1.4408   -2.2156   -0.5737 C   0  0  0  0  0  0  0  0  0  0  0  0
   -0.9306    1.0780   -0.3409 C   0  0  0  0  0  0  0  0  0  0  0  0
   -2.2874    1.2632    0.2468 C   0  0  0  0  0  0  0  0  0  0  0  0
   -0.3842    2.0628   -0.8321 O   0  0  0  0  0  0  0  0  0  0  0  0
    3.7300    1.6961   -0.0806 H   0  0  0  0  0  0  0  0  0  0  0  0
    3.0077    1.1629    1.5229 H   0  0  0  0  0  0  0  0  0  0  0  0
    3.6431   -0.0227    0.3692 H   0  0  0  0  0  0  0  0  0  0  0  0
    0.8124    0.1964    1.4565 H   0  0  0  0  0  0  0  0  0  0  0  0
    1.5246   -1.1309    0.3842 H   0  0  0  0  0  0  0  0  0  0  0  0
   -0.0329   -0.5365   -1.3981 H   0  0  0  0  0  0  0  0  0  0  0  0
   -2.1049   -2.9192   -0.0364 H   0  0  0  0  0  0  0  0  0  0  0  0
   -1.8852   -1.8435   -1.5155 H   0  0  0  0  0  0  0  0  0  0  0  0
   -0.4859   -2.7870   -0.7592 H   0  0  0  0  0  0  0  0  0  0  0  0
   -3.0703    0.8500   -0.4304 H   0  0  0  0  0  0  0  0  0  0  0  0
   -2.3113    0.6179    1.1677 H   0  0  0  0  0  0  0  0  0  0  0  0
   -2.4686    2.3237    0.5024 H   0  0  0  0  0  0  0  0  0  0  0  0
  1  2  1  0
  2  3  1  0
  3  4  1  0
  4  5  1  0
  5  6  1  0
  4  7  1  0
  7  8  1  0
  7  9  2  0
  1 10  1  0
  1 11  1  0
  1 12  1  0
  3 13  1  0
  3 14  1  0
  4 15  1  0
  6 16  1  0
  6 17  1  0
  6 18  1  0
  8 19  1  0
  8 20  1  0
  8 21  1  0
M  END
