
     RDKit          3D

 21 21  0  0  0  0  0  0  0  0999 V2000
   -2.8894    0.3553    0.0978 C   0  0  0  0  0  0  0  0  0  0  0  0
   -1.7908    0.9486    0.6683 O   0  0  0  0  0  0  0  0  0  0  0  0
   -0.7347    1.1433   -0.2574 C   0  0  0  0  0  0  0  0  0  0  0  0
   -0.3539   -0.1873   -0.7877 C   0  0  0  0  0  0  0  0  0  0  0  0
    0.1154   -1.1534    0.3230 C   0  0  0  0  0  0  0  0  0  0  0  0
    0.9664   -0.7766   -0.8914 C   0  0  0  0  0  0  0  0  0  0  0  0
    2.2823   -0.1938   -0.5681 C   0  0  0  0  0  0  0  0  0  0  0  0
    2.4893    0.2541    0.8224 C   0  0  0  0  0  0  0  0  0  0  0  0
    2.6574    1.4409    1.0414 O   0  0  0  0  0  0  0  0  0  0  0  0
   -3.3269    0.9395   -0.7387 H   0  0  0  0  0  0  0  0  0  0  0  0
   -3.6802    0.3645    0.9040 H   0  0  0  0  0  0  0  0  0  0  0  0
   -2.7262   -0.7041   -0.1243 H   0  0  0  0  0  0  0  0  0  0  0  0
   -1.1036    1.8366   -1.0679 H   0  0  0  0  0  0  0  0  0  0  0  0
    0.0490    1.6672    0.3387 H   0  0  0  0  0  0  0  0  0  0  0  0
   -1.1686   -0.6266   -1.4416 H   0  0  0  0  0  0  0  0  0  0  0  0
    0.3864   -0.7448    1.3034 H   0  0  0  0  0  0  0  0  0  0  0  0
   -0.3462   -2.1439    0.3547 H   0  0  0  0  0  0  0  0  0  0  0  0
    1.0399   -1.6348   -1.6374 H   0  0  0  0  0  0  0  0  0  0  0  0
    3.0664   -0.9842   -0.7405 H   0  0  0  0  0  0  0  0  0  0  0  0
    2.5708    0.6228   -1.2967 H   0  0  0  0  0  0  0  0  0  0  0  0
    2.4972   -0.4234    1.6636 H   0  0  0  0  0  0  0  0  0  0  0  0
  1  2  1  0
  2  3  1  0
  3  4  1  0
  4  5  1  0
  5  6  1  0
  6  7  1  0
  7  8  1  0
  8  9  2  0
  6  4  1  0
  1 10  1  0
  1 11  1  0
  1 12  1  0
  3 13  1  0
  3 14  1  0
  4 15  1  0
  5 16  1  0
  5 17  1  0
  6 18  1  0
  7 19  1  0
  7 20  1  0
  8 21  1  0
M  END
