
     RDKit          3D

 20 20  0  0  0  0  0  0  0  0999 V2000
   -3.3210    0.2757   -0.5309 C   0  0  0  0  0  0  0  0  0  0  0  0
   -2.3661   -0.4293    0.1961 O   0  0  0  0  0  0  0  0  0  0  0  0
   -1.1120   -0.2295   -0.3764 C   0  0  0  0  0  0  0  0  0  0  0  0
   -0.1091   -0.9980    0.4250 C   0  0  0  0  0  0  0  0  0  0  0  0
    1.3047   -0.8800   -0.0828 C   0  0  0  0  0  0  0  0  0  0  0  0
    1.7282    0.5437   -0.0394 C   0  0  0  0  0  0  0  0  0  0  0  0
    3.0288    1.0054   -0.4581 C   0  0  0  0  0  0  0  0  0  0  0  0
    2.8038    0.7105    0.9747 O   0  0  0  0  0  0  0  0  0  0  0  0
   -3.3370   -0.0838   -1.5934 H   0  0  0  0  0  0  0  0  0  0  0  0
   -4.2971    0.1007   -0.0268 H   0  0  0  0  0  0  0  0  0  0  0  0
   -3.0762    1.3643   -0.5985 H   0  0  0  0  0  0  0  0  0  0  0  0
   -0.9586    0.8554   -0.3965 H   0  0  0  0  0  0  0  0  0  0  0  0
   -1.0611   -0.5919   -1.4208 H   0  0  0  0  0  0  0  0  0  0  0  0
   -0.0901   -0.5280    1.4535 H   0  0  0  0  0  0  0  0  0  0  0  0
   -0.4517   -2.0499    0.4846 H   0  0  0  0  0  0  0  0  0  0  0  0
    1.9346   -1.4810    0.5920 H   0  0  0  0  0  0  0  0  0  0  0  0
    1.4306   -1.3460   -1.0870 H   0  0  0  0  0  0  0  0  0  0  0  0
    0.9346    1.3062    0.0762 H   0  0  0  0  0  0  0  0  0  0  0  0
    3.1946    2.0797   -0.5915 H   0  0  0  0  0  0  0  0  0  0  0  0
    3.8200    0.3757   -0.9062 H   0  0  0  0  0  0  0  0  0  0  0  0
  1  2  1  0
  2  3  1  0
  3  4  1  0
  4  5  1  0
  5  6  1  0
  6  7  1  0
  7  8  1  0
  8  6  1  0
  1  9  1  0
  1 10  1  0
  1 11  1  0
  3 12  1  0
  3 13  1  0
  4 14  1  0
  4 15  1  0
  5 16  1  0
  5 17  1  0
  6 18  1  0
  7 19  1  0
  7 20  1  0
M  END
