
     RDKit          3D

 17 16  0  0  0  0  0  0  0  0999 V2000
    3.0603    0.6043    0.2518 C   0  0  0  0  0  0  0  0  0  0  0  0
    2.5386   -0.6355    0.0818 O   0  0  0  0  0  0  0  0  0  0  0  0
    1.2988   -0.7664   -0.4456 C   0  0  0  0  0  0  0  0  0  0  0  0
    0.2629   -0.1675    0.4065 C   0  0  0  0  0  0  0  0  0  0  0  0
    0.4980    0.3404    1.4983 O   0  0  0  0  0  0  0  0  0  0  0  0
   -1.1175   -0.2054   -0.1266 C   0  0  0  0  0  0  0  0  0  0  0  0
   -1.4161   -0.7059   -1.2244 O   0  0  0  0  0  0  0  0  0  0  0  0
   -2.1745    0.3403    0.6121 O   0  0  0  0  0  0  0  0  0  0  0  0
   -3.4902    0.3174    0.1302 C   0  0  0  0  0  0  0  0  0  0  0  0
    2.4664    1.2314    0.9195 H   0  0  0  0  0  0  0  0  0  0  0  0
    4.0937    0.4812    0.6753 H   0  0  0  0  0  0  0  0  0  0  0  0
    3.2141    1.1320   -0.7168 H   0  0  0  0  0  0  0  0  0  0  0  0
    1.1807   -0.2957   -1.4537 H   0  0  0  0  0  0  0  0  0  0  0  0
    1.1173   -1.8689   -0.5908 H   0  0  0  0  0  0  0  0  0  0  0  0
   -4.1074    1.0648    0.6798 H   0  0  0  0  0  0  0  0  0  0  0  0
   -3.9676   -0.6693    0.2304 H   0  0  0  0  0  0  0  0  0  0  0  0
   -3.4575    0.6777   -0.9277 H   0  0  0  0  0  0  0  0  0  0  0  0
  1  2  1  0
  2  3  1  0
  3  4  1  0
  4  5  2  0
  4  6  1  0
  6  7  2  0
  6  8  1  0
  8  9  1  0
  1 10  1  0
  1 11  1  0
  1 12  1  0
  3 13  1  0
  3 14  1  0
  9 15  1  0
  9 16  1  0
  9 17  1  0
M  END
