
     RDKit          3D

 21 21  0  0  0  0  0  0  0  0999 V2000
    2.6314   -0.5258   -0.6844 C   0  0  0  0  0  0  0  0  0  0  0  0
    1.8290    0.5710   -0.8482 O   0  0  0  0  0  0  0  0  0  0  0  0
    1.0367    0.9151    0.2222 C   0  0  0  0  0  0  0  0  0  0  0  0
    0.0563   -0.1269    0.6554 C   0  0  0  0  0  0  0  0  0  0  0  0
    0.6393   -1.3218    1.0784 O   0  0  0  0  0  0  0  0  0  0  0  0
   -1.1479    0.2473    1.4518 C   0  0  0  0  0  0  0  0  0  0  0  0
   -1.2781   -0.2441    0.0307 C   0  0  0  0  0  0  0  0  0  0  0  0
   -1.8037    0.7859   -0.9284 C   0  0  0  0  0  0  0  0  0  0  0  0
   -1.7489   -1.5320   -0.2107 O   0  0  0  0  0  0  0  0  0  0  0  0
    3.3046   -0.3266    0.1985 H   0  0  0  0  0  0  0  0  0  0  0  0
    3.3454   -0.5049   -1.5683 H   0  0  0  0  0  0  0  0  0  0  0  0
    2.1308   -1.4992   -0.6247 H   0  0  0  0  0  0  0  0  0  0  0  0
    0.5246    1.8714   -0.0933 H   0  0  0  0  0  0  0  0  0  0  0  0
    1.6937    1.2580    1.0662 H   0  0  0  0  0  0  0  0  0  0  0  0
    0.1740   -2.0882    0.6664 H   0  0  0  0  0  0  0  0  0  0  0  0
   -1.5416   -0.4365    2.2368 H   0  0  0  0  0  0  0  0  0  0  0  0
   -1.3639    1.3139    1.6870 H   0  0  0  0  0  0  0  0  0  0  0  0
   -1.0621    1.4770   -1.3151 H   0  0  0  0  0  0  0  0  0  0  0  0
   -2.3426    0.3236   -1.7910 H   0  0  0  0  0  0  0  0  0  0  0  0
   -2.5729    1.3858   -0.3846 H   0  0  0  0  0  0  0  0  0  0  0  0
   -2.5041   -1.5428   -0.8444 H   0  0  0  0  0  0  0  0  0  0  0  0
  1  2  1  0
  2  3  1  0
  3  4  1  0
  4  5  1  0
  4  6  1  0
  6  7  1  0
  7  8  1  0
  7  9  1  0
  7  4  1  0
  1 10  1  0
  1 11  1  0
  1 12  1  0
  3 13  1  0
  3 14  1  0
  5 15  1  0
  6 16  1  0
  6 17  1  0
  8 18  1  0
  8 19  1  0
  8 20  1  0
  9 21  1  0
M  END
