
     RDKit          3D

 21 22  0  0  0  0  0  0  0  0999 V2000
    3.0746   -0.5920   -0.2185 C   0  0  0  0  0  0  0  0  0  0  0  0
    1.7398   -0.4582    0.1193 O   0  0  0  0  0  0  0  0  0  0  0  0
    1.1359    0.6544   -0.4506 C   0  0  0  0  0  0  0  0  0  0  0  0
   -0.3081    0.6615    0.0093 C   0  0  0  0  0  0  0  0  0  0  0  0
   -0.9520   -0.6958    0.1771 C   0  0  0  0  0  0  0  0  0  0  0  0
   -2.3461   -0.8373    0.6167 C   0  0  0  0  0  0  0  0  0  0  0  0
   -1.9827   -1.0806   -0.8153 C   0  0  0  0  0  0  0  0  0  0  0  0
   -0.6918    1.7582    0.9243 C   0  0  0  0  0  0  0  0  0  0  0  0
   -1.0970    1.7172   -0.4623 O   0  0  0  0  0  0  0  0  0  0  0  0
    3.4513   -1.5000    0.2839 H   0  0  0  0  0  0  0  0  0  0  0  0
    3.2814   -0.5696   -1.2877 H   0  0  0  0  0  0  0  0  0  0  0  0
    3.6184    0.2639    0.2807 H   0  0  0  0  0  0  0  0  0  0  0  0
    1.1571    0.5108   -1.5527 H   0  0  0  0  0  0  0  0  0  0  0  0
    1.6575    1.5985   -0.1871 H   0  0  0  0  0  0  0  0  0  0  0  0
   -0.2533   -1.4901    0.5129 H   0  0  0  0  0  0  0  0  0  0  0  0
   -3.0094    0.0216    0.8098 H   0  0  0  0  0  0  0  0  0  0  0  0
   -2.6331   -1.7324    1.2353 H   0  0  0  0  0  0  0  0  0  0  0  0
   -2.3682   -0.3524   -1.5642 H   0  0  0  0  0  0  0  0  0  0  0  0
   -1.9980   -2.1230   -1.2177 H   0  0  0  0  0  0  0  0  0  0  0  0
   -1.5295    1.7048    1.6162 H   0  0  0  0  0  0  0  0  0  0  0  0
    0.0535    2.5407    1.1706 H   0  0  0  0  0  0  0  0  0  0  0  0
  1  2  1  0
  2  3  1  0
  3  4  1  0
  4  5  1  0
  5  6  1  0
  6  7  1  0
  4  8  1  0
  8  9  1  0
  9  4  1  0
  7  5  1  0
  1 10  1  0
  1 11  1  0
  1 12  1  0
  3 13  1  0
  3 14  1  0
  5 15  1  0
  6 16  1  0
  6 17  1  0
  7 18  1  0
  7 19  1  0
  8 20  1  0
  8 21  1  0
M  END
