
     RDKit          3D

 25 24  0  0  0  0  0  0  0  0999 V2000
    3.5188   -0.5364   -0.4891 C   0  0  0  0  0  0  0  0  0  0  0  0
    2.9621   -0.6222    0.7598 O   0  0  0  0  0  0  0  0  0  0  0  0
    1.8416    0.1397    0.9714 C   0  0  0  0  0  0  0  0  0  0  0  0
    0.6824   -0.1839    0.0551 C   0  0  0  0  0  0  0  0  0  0  0  0
    0.3099   -1.5296    0.2373 O   0  0  0  0  0  0  0  0  0  0  0  0
   -0.4741    0.6655    0.4816 C   0  0  0  0  0  0  0  0  0  0  0  0
   -1.7208    0.4774   -0.3226 C   0  0  0  0  0  0  0  0  0  0  0  0
   -2.1767   -0.9597   -0.2189 C   0  0  0  0  0  0  0  0  0  0  0  0
   -2.8082    1.3524    0.2629 C   0  0  0  0  0  0  0  0  0  0  0  0
    2.7917   -0.8590   -1.2569 H   0  0  0  0  0  0  0  0  0  0  0  0
    4.3586   -1.2733   -0.5254 H   0  0  0  0  0  0  0  0  0  0  0  0
    3.9740    0.4473   -0.7113 H   0  0  0  0  0  0  0  0  0  0  0  0
    1.4903   -0.0605    2.0051 H   0  0  0  0  0  0  0  0  0  0  0  0
    2.0250    1.2313    0.9162 H   0  0  0  0  0  0  0  0  0  0  0  0
    0.9375   -0.0605   -1.0053 H   0  0  0  0  0  0  0  0  0  0  0  0
    0.8597   -2.0647   -0.3841 H   0  0  0  0  0  0  0  0  0  0  0  0
   -0.6450    0.4880    1.5587 H   0  0  0  0  0  0  0  0  0  0  0  0
   -0.1490    1.7293    0.3974 H   0  0  0  0  0  0  0  0  0  0  0  0
   -1.5777    0.7934   -1.3625 H   0  0  0  0  0  0  0  0  0  0  0  0
   -1.9536   -1.3800    0.7831 H   0  0  0  0  0  0  0  0  0  0  0  0
   -3.2817   -0.9990   -0.3616 H   0  0  0  0  0  0  0  0  0  0  0  0
   -1.6547   -1.5364   -1.0220 H   0  0  0  0  0  0  0  0  0  0  0  0
   -2.6061    1.5950    1.3313 H   0  0  0  0  0  0  0  0  0  0  0  0
   -3.7919    0.8374    0.2457 H   0  0  0  0  0  0  0  0  0  0  0  0
   -2.9121    2.3085   -0.2722 H   0  0  0  0  0  0  0  0  0  0  0  0
  1  2  1  0
  2  3  1  0
  3  4  1  0
  4  5  1  0
  4  6  1  0
  6  7  1  0
  7  8  1  0
  7  9  1  0
  1 10  1  0
  1 11  1  0
  1 12  1  0
  3 13  1  0
  3 14  1  0
  4 15  1  0
  5 16  1  0
  6 17  1  0
  6 18  1  0
  7 19  1  0
  8 20  1  0
  8 21  1  0
  8 22  1  0
  9 23  1  0
  9 24  1  0
  9 25  1  0
M  END
