
     RDKit          3D

 18 17  0  0  0  0  0  0  0  0999 V2000
    2.5019    0.8979   -0.1841 C   0  0  0  0  0  0  0  0  0  0  0  0
    1.2373    0.6204   -0.6769 O   0  0  0  0  0  0  0  0  0  0  0  0
    0.6665   -0.3591    0.1507 C   0  0  0  0  0  0  0  0  0  0  0  0
   -0.7367   -0.7123   -0.3403 C   0  0  0  0  0  0  0  0  0  0  0  0
   -1.2784   -1.7500    0.5781 C   0  0  0  0  0  0  0  0  0  0  0  0
   -2.4707   -1.9328    0.7579 O   0  0  0  0  0  0  0  0  0  0  0  0
   -1.6456    0.4625   -0.3077 C   0  0  0  0  0  0  0  0  0  0  0  0
   -1.2200    1.5228   -1.0989 O   0  0  0  0  0  0  0  0  0  0  0  0
    3.0695   -0.0742   -0.2250 H   0  0  0  0  0  0  0  0  0  0  0  0
    2.3596    1.1681    0.9014 H   0  0  0  0  0  0  0  0  0  0  0  0
    3.0146    1.7079   -0.7107 H   0  0  0  0  0  0  0  0  0  0  0  0
    1.3296   -1.2465    0.0951 H   0  0  0  0  0  0  0  0  0  0  0  0
    0.6736    0.0283    1.1701 H   0  0  0  0  0  0  0  0  0  0  0  0
   -0.6004   -1.1077   -1.3695 H   0  0  0  0  0  0  0  0  0  0  0  0
   -0.5949   -2.3901    1.1278 H   0  0  0  0  0  0  0  0  0  0  0  0
   -1.7818    0.7613    0.7653 H   0  0  0  0  0  0  0  0  0  0  0  0
   -2.6333    0.1553   -0.6808 H   0  0  0  0  0  0  0  0  0  0  0  0
   -1.8906    2.2483   -0.9902 H   0  0  0  0  0  0  0  0  0  0  0  0
  1  2  1  0
  2  3  1  0
  3  4  1  0
  4  5  1  0
  5  6  2  0
  4  7  1  0
  7  8  1  0
  1  9  1  0
  1 10  1  0
  1 11  1  0
  3 12  1  0
  3 13  1  0
  4 14  1  0
  5 15  1  0
  7 16  1  0
  7 17  1  0
  8 18  1  0
M  END
