
     RDKit          3D

 20 20  0  0  0  0  0  0  0  0999 V2000
    2.7190   -0.1396    0.3759 C   0  0  0  0  0  0  0  0  0  0  0  0
    1.3598    0.0505    0.3733 O   0  0  0  0  0  0  0  0  0  0  0  0
    0.6878   -0.6890   -0.5677 C   0  0  0  0  0  0  0  0  0  0  0  0
   -0.7955   -0.4263   -0.5085 C   0  0  0  0  0  0  0  0  0  0  0  0
   -1.5094   -1.1641   -1.4524 O   0  0  0  0  0  0  0  0  0  0  0  0
   -1.1522    1.0411   -0.5736 C   0  0  0  0  0  0  0  0  0  0  0  0
   -1.1775    1.0462    0.9364 C   0  0  0  0  0  0  0  0  0  0  0  0
   -1.3879   -0.4493    0.8798 C   0  0  0  0  0  0  0  0  0  0  0  0
    3.1379    0.5196    1.1860 H   0  0  0  0  0  0  0  0  0  0  0  0
    2.9039   -1.1973    0.6906 H   0  0  0  0  0  0  0  0  0  0  0  0
    3.2030    0.0918   -0.5906 H   0  0  0  0  0  0  0  0  0  0  0  0
    1.0910   -0.4843   -1.5774 H   0  0  0  0  0  0  0  0  0  0  0  0
    0.8318   -1.7862   -0.3458 H   0  0  0  0  0  0  0  0  0  0  0  0
   -1.8683   -0.5498   -2.1317 H   0  0  0  0  0  0  0  0  0  0  0  0
   -2.1550    1.2168   -1.0024 H   0  0  0  0  0  0  0  0  0  0  0  0
   -0.3502    1.6946   -0.9671 H   0  0  0  0  0  0  0  0  0  0  0  0
   -2.0277    1.6156    1.3689 H   0  0  0  0  0  0  0  0  0  0  0  0
   -0.2417    1.3546    1.4405 H   0  0  0  0  0  0  0  0  0  0  0  0
   -2.4624   -0.7287    0.8350 H   0  0  0  0  0  0  0  0  0  0  0  0
   -0.8065   -1.0163    1.6308 H   0  0  0  0  0  0  0  0  0  0  0  0
  1  2  1  0
  2  3  1  0
  3  4  1  0
  4  5  1  0
  4  6  1  0
  6  7  1  0
  7  8  1  0
  8  4  1  0
  1  9  1  0
  1 10  1  0
  1 11  1  0
  3 12  1  0
  3 13  1  0
  5 14  1  0
  6 15  1  0
  6 16  1  0
  7 17  1  0
  7 18  1  0
  8 19  1  0
  8 20  1  0
M  END
