
     RDKit          3D

 19 20  0  0  0  0  0  0  0  0999 V2000
   -3.0664    0.1683    0.7936 C   0  0  0  0  0  0  0  0  0  0  0  0
   -1.9134   -0.5528    0.4704 O   0  0  0  0  0  0  0  0  0  0  0  0
   -1.1079    0.1545   -0.4196 C   0  0  0  0  0  0  0  0  0  0  0  0
    0.1154   -0.6611   -0.7348 C   0  0  0  0  0  0  0  0  0  0  0  0
    1.0132   -0.0926   -1.6061 O   0  0  0  0  0  0  0  0  0  0  0  0
    2.0640   -0.3635   -0.7161 C   0  0  0  0  0  0  0  0  0  0  0  0
    2.1058    0.5062    0.4763 C   0  0  0  0  0  0  0  0  0  0  0  0
    3.0607    0.3722    1.4529 O   0  0  0  0  0  0  0  0  0  0  0  0
    1.1110   -0.6123    0.3934 C   0  0  0  0  0  0  0  0  0  0  0  0
   -3.6561    0.3715   -0.1247 H   0  0  0  0  0  0  0  0  0  0  0  0
   -3.6903   -0.4355    1.4680 H   0  0  0  0  0  0  0  0  0  0  0  0
   -2.7890    1.0922    1.3364 H   0  0  0  0  0  0  0  0  0  0  0  0
   -1.6615    0.4522   -1.3353 H   0  0  0  0  0  0  0  0  0  0  0  0
   -0.8238    1.1055    0.0828 H   0  0  0  0  0  0  0  0  0  0  0  0
   -0.1565   -1.7052   -1.0252 H   0  0  0  0  0  0  0  0  0  0  0  0
    2.8419   -1.0762   -0.9825 H   0  0  0  0  0  0  0  0  0  0  0  0
    1.7505    1.5551    0.3224 H   0  0  0  0  0  0  0  0  0  0  0  0
    3.5999    1.2021    1.4839 H   0  0  0  0  0  0  0  0  0  0  0  0
    1.2024   -1.4808    1.0425 H   0  0  0  0  0  0  0  0  0  0  0  0
  1  2  1  0
  2  3  1  0
  3  4  1  0
  4  5  1  0
  5  6  1  0
  6  7  1  0
  7  8  1  0
  7  9  1  0
  9  4  1  0
  9  6  1  0
  1 10  1  0
  1 11  1  0
  1 12  1  0
  3 13  1  0
  3 14  1  0
  4 15  1  0
  6 16  1  0
  7 17  1  0
  8 18  1  0
  9 19  1  0
M  END
