
     RDKit          3D

 21 21  0  0  0  0  0  0  0  0999 V2000
   -2.4854   -0.1378   -1.4309 C   0  0  0  0  0  0  0  0  0  0  0  0
   -1.6297    0.0656   -0.3859 O   0  0  0  0  0  0  0  0  0  0  0  0
   -1.0517   -1.1037    0.0980 C   0  0  0  0  0  0  0  0  0  0  0  0
   -0.1175   -0.8315    1.2468 C   0  0  0  0  0  0  0  0  0  0  0  0
    1.0214    0.0737    0.9059 C   0  0  0  0  0  0  0  0  0  0  0  0
    0.7867    1.4437    0.4272 C   0  0  0  0  0  0  0  0  0  0  0  0
    1.3568    0.3970   -0.5089 C   0  0  0  0  0  0  0  0  0  0  0  0
    2.7711    0.6406   -0.8837 C   0  0  0  0  0  0  0  0  0  0  0  0
    3.1859    0.4464   -2.0026 O   0  0  0  0  0  0  0  0  0  0  0  0
   -2.0325   -0.6047   -2.3240 H   0  0  0  0  0  0  0  0  0  0  0  0
   -2.8674    0.8519   -1.7577 H   0  0  0  0  0  0  0  0  0  0  0  0
   -3.3799   -0.7456   -1.1623 H   0  0  0  0  0  0  0  0  0  0  0  0
   -0.5570   -1.6966   -0.6854 H   0  0  0  0  0  0  0  0  0  0  0  0
   -1.8823   -1.7256    0.5007 H   0  0  0  0  0  0  0  0  0  0  0  0
   -0.7404   -0.3090    2.0324 H   0  0  0  0  0  0  0  0  0  0  0  0
    0.1760   -1.7836    1.6816 H   0  0  0  0  0  0  0  0  0  0  0  0
    1.9240   -0.0877    1.5515 H   0  0  0  0  0  0  0  0  0  0  0  0
   -0.1821    1.8279    0.1133 H   0  0  0  0  0  0  0  0  0  0  0  0
    1.4662    2.2413    0.8152 H   0  0  0  0  0  0  0  0  0  0  0  0
    0.7285    0.0270   -1.3381 H   0  0  0  0  0  0  0  0  0  0  0  0
    3.5095    1.0107   -0.1559 H   0  0  0  0  0  0  0  0  0  0  0  0
  1  2  1  0
  2  3  1  0
  3  4  1  0
  4  5  1  0
  5  6  1  0
  6  7  1  0
  7  8  1  0
  8  9  2  0
  7  5  1  0
  1 10  1  0
  1 11  1  0
  1 12  1  0
  3 13  1  0
  3 14  1  0
  4 15  1  0
  4 16  1  0
  5 17  1  0
  6 18  1  0
  6 19  1  0
  7 20  1  0
  8 21  1  0
M  END
