
     RDKit          3D

 23 23  0  0  0  0  0  0  0  0999 V2000
    3.1924    0.9526   -0.1067 C   0  0  0  0  0  0  0  0  0  0  0  0
    1.9547    0.7251    0.4531 O   0  0  0  0  0  0  0  0  0  0  0  0
    1.3775   -0.4297   -0.0579 C   0  0  0  0  0  0  0  0  0  0  0  0
    0.0231   -0.6612    0.5676 C   0  0  0  0  0  0  0  0  0  0  0  0
   -0.6338   -1.9189    0.0277 C   0  0  0  0  0  0  0  0  0  0  0  0
   -1.9556   -1.1677    0.2527 C   0  0  0  0  0  0  0  0  0  0  0  0
   -1.1164    0.0592   -0.0768 C   0  0  0  0  0  0  0  0  0  0  0  0
   -1.6178    1.3039    0.5846 C   0  0  0  0  0  0  0  0  0  0  0  0
   -2.6782    1.7692   -0.2245 O   0  0  0  0  0  0  0  0  0  0  0  0
    3.6035    1.8959    0.3462 H   0  0  0  0  0  0  0  0  0  0  0  0
    3.1325    1.1117   -1.2082 H   0  0  0  0  0  0  0  0  0  0  0  0
    3.8693    0.1031    0.0578 H   0  0  0  0  0  0  0  0  0  0  0  0
    2.0104   -1.3129    0.1704 H   0  0  0  0  0  0  0  0  0  0  0  0
    1.2644   -0.3593   -1.1564 H   0  0  0  0  0  0  0  0  0  0  0  0
    0.0384   -0.7042    1.6644 H   0  0  0  0  0  0  0  0  0  0  0  0
   -0.4212   -2.0815   -1.0426 H   0  0  0  0  0  0  0  0  0  0  0  0
   -0.5343   -2.8136    0.6625 H   0  0  0  0  0  0  0  0  0  0  0  0
   -2.7399   -1.4028   -0.4597 H   0  0  0  0  0  0  0  0  0  0  0  0
   -2.1978   -1.1961    1.3208 H   0  0  0  0  0  0  0  0  0  0  0  0
   -0.9273    0.1630   -1.1646 H   0  0  0  0  0  0  0  0  0  0  0  0
   -2.0717    1.0815    1.5727 H   0  0  0  0  0  0  0  0  0  0  0  0
   -0.8890    2.1108    0.6332 H   0  0  0  0  0  0  0  0  0  0  0  0
   -2.6833    2.7721   -0.2289 H   0  0  0  0  0  0  0  0  0  0  0  0
  1  2  1  0
  2  3  1  0
  3  4  1  0
  4  5  1  0
  5  6  1  0
  6  7  1  0
  7  8  1  0
  8  9  1  0
  7  4  1  0
  1 10  1  0
  1 11  1  0
  1 12  1  0
  3 13  1  0
  3 14  1  0
  4 15  1  0
  5 16  1  0
  5 17  1  0
  6 18  1  0
  6 19  1  0
  7 20  1  0
  8 21  1  0
  8 22  1  0
  9 23  1  0
M  END
