
     RDKit          3D

 21 21  0  0  0  0  0  0  0  0999 V2000
   -2.9465    0.3605   -0.8452 C   0  0  0  0  0  0  0  0  0  0  0  0
   -1.6760   -0.1643   -1.0786 O   0  0  0  0  0  0  0  0  0  0  0  0
   -0.9576   -0.0594    0.0843 C   0  0  0  0  0  0  0  0  0  0  0  0
    0.4513   -0.5992   -0.0389 C   0  0  0  0  0  0  0  0  0  0  0  0
    0.4191   -1.9488   -0.3859 O   0  0  0  0  0  0  0  0  0  0  0  0
    1.2807    0.1672   -1.0152 C   0  0  0  0  0  0  0  0  0  0  0  0
    2.1845    0.9963   -0.1727 C   0  0  0  0  0  0  0  0  0  0  0  0
    2.1246    0.6557    1.1067 C   0  0  0  0  0  0  0  0  0  0  0  0
    1.1589   -0.4627    1.2931 C   0  0  0  0  0  0  0  0  0  0  0  0
   -3.5912    0.3096   -1.7490 H   0  0  0  0  0  0  0  0  0  0  0  0
   -2.8858    1.3939   -0.4433 H   0  0  0  0  0  0  0  0  0  0  0  0
   -3.3894   -0.2538   -0.0137 H   0  0  0  0  0  0  0  0  0  0  0  0
   -0.9459    1.0058    0.3916 H   0  0  0  0  0  0  0  0  0  0  0  0
   -1.4904   -0.6213    0.8782 H   0  0  0  0  0  0  0  0  0  0  0  0
    0.0058   -2.4980    0.3143 H   0  0  0  0  0  0  0  0  0  0  0  0
    0.6856    0.7889   -1.7131 H   0  0  0  0  0  0  0  0  0  0  0  0
    1.9410   -0.5096   -1.6109 H   0  0  0  0  0  0  0  0  0  0  0  0
    2.8360    1.8056   -0.5544 H   0  0  0  0  0  0  0  0  0  0  0  0
    2.7125    1.1459    1.8854 H   0  0  0  0  0  0  0  0  0  0  0  0
    1.6539   -1.4042    1.6004 H   0  0  0  0  0  0  0  0  0  0  0  0
    0.4288   -0.1080    2.0672 H   0  0  0  0  0  0  0  0  0  0  0  0
  1  2  1  0
  2  3  1  0
  3  4  1  0
  4  5  1  0
  4  6  1  0
  6  7  1  0
  7  8  2  0
  8  9  1  0
  9  4  1  0
  1 10  1  0
  1 11  1  0
  1 12  1  0
  3 13  1  0
  3 14  1  0
  5 15  1  0
  6 16  1  0
  6 17  1  0
  7 18  1  0
  8 19  1  0
  9 20  1  0
  9 21  1  0
M  END
