
     RDKit          3D

 14 13  0  0  0  0  0  0  0  0999 V2000
   -2.2991    0.2311   -0.0642 C   0  0  0  0  0  0  0  0  0  0  0  0
   -1.1539   -0.2669   -0.7247 O   0  0  0  0  0  0  0  0  0  0  0  0
   -0.0751    0.0582    0.1194 C   0  0  0  0  0  0  0  0  0  0  0  0
    1.2269   -0.4354   -0.4975 C   0  0  0  0  0  0  0  0  0  0  0  0
    2.3317   -0.0692    0.4280 C   0  0  0  0  0  0  0  0  0  0  0  0
    2.1288    0.5249    1.4787 O   0  0  0  0  0  0  0  0  0  0  0  0
   -2.1378    1.3283    0.0382 H   0  0  0  0  0  0  0  0  0  0  0  0
   -3.2200   -0.0099   -0.6106 H   0  0  0  0  0  0  0  0  0  0  0  0
   -2.2630   -0.2010    0.9571 H   0  0  0  0  0  0  0  0  0  0  0  0
   -0.0834    1.1566    0.2252 H   0  0  0  0  0  0  0  0  0  0  0  0
   -0.2855   -0.4727    1.0772 H   0  0  0  0  0  0  0  0  0  0  0  0
    1.3286    0.0064   -1.4986 H   0  0  0  0  0  0  0  0  0  0  0  0
    1.1291   -1.5413   -0.6160 H   0  0  0  0  0  0  0  0  0  0  0  0
    3.3726   -0.3092    0.2204 H   0  0  0  0  0  0  0  0  0  0  0  0
  1  2  1  0
  2  3  1  0
  3  4  1  0
  4  5  1  0
  5  6  2  0
  1  7  1  0
  1  8  1  0
  1  9  1  0
  3 10  1  0
  3 11  1  0
  4 12  1  0
  4 13  1  0
  5 14  1  0
M  END
