
     RDKit          3D

 19 20  0  0  0  0  0  0  0  0999 V2000
    3.2279   -0.0447    0.3659 C   0  0  0  0  0  0  0  0  0  0  0  0
    1.9889    0.3774    0.8848 O   0  0  0  0  0  0  0  0  0  0  0  0
    1.0229   -0.0622   -0.0237 C   0  0  0  0  0  0  0  0  0  0  0  0
   -0.3594    0.3000    0.3695 C   0  0  0  0  0  0  0  0  0  0  0  0
   -1.2720   -0.6954    0.9801 C   0  0  0  0  0  0  0  0  0  0  0  0
   -2.4373   -0.7051    0.3428 C   0  0  0  0  0  0  0  0  0  0  0  0
   -2.4375    0.2680   -0.7506 C   0  0  0  0  0  0  0  0  0  0  0  0
   -1.1633    1.0578   -0.6615 C   0  0  0  0  0  0  0  0  0  0  0  0
   -0.7528    1.6092    0.5341 O   0  0  0  0  0  0  0  0  0  0  0  0
    3.3875    0.4086   -0.6419 H   0  0  0  0  0  0  0  0  0  0  0  0
    3.1237   -1.1367    0.1893 H   0  0  0  0  0  0  0  0  0  0  0  0
    4.0658    0.2197    1.0210 H   0  0  0  0  0  0  0  0  0  0  0  0
    1.0568   -1.1885   -0.1189 H   0  0  0  0  0  0  0  0  0  0  0  0
    1.2297    0.3099   -1.0463 H   0  0  0  0  0  0  0  0  0  0  0  0
   -1.0179   -1.3108    1.8128 H   0  0  0  0  0  0  0  0  0  0  0  0
   -3.2580   -1.3493    0.6101 H   0  0  0  0  0  0  0  0  0  0  0  0
   -3.3454    0.8809   -0.8238 H   0  0  0  0  0  0  0  0  0  0  0  0
   -2.3845   -0.3181   -1.7151 H   0  0  0  0  0  0  0  0  0  0  0  0
   -0.6749    1.3794   -1.5977 H   0  0  0  0  0  0  0  0  0  0  0  0
  1  2  1  0
  2  3  1  0
  3  4  1  0
  4  5  1  0
  5  6  2  0
  6  7  1  0
  7  8  1  0
  8  9  1  0
  8  4  1  0
  9  4  1  0
  1 10  1  0
  1 11  1  0
  1 12  1  0
  3 13  1  0
  3 14  1  0
  5 15  1  0
  6 16  1  0
  7 17  1  0
  7 18  1  0
  8 19  1  0
M  END
