
     RDKit          3D

 19 19  0  0  0  0  0  0  0  0999 V2000
    3.0422    0.5539    0.0383 C   0  0  0  0  0  0  0  0  0  0  0  0
    1.7487    0.6276   -0.5195 O   0  0  0  0  0  0  0  0  0  0  0  0
    0.9385   -0.2132    0.2434 C   0  0  0  0  0  0  0  0  0  0  0  0
   -0.4895   -0.2321   -0.2073 C   0  0  0  0  0  0  0  0  0  0  0  0
   -1.3986    0.8267    0.3991 C   0  0  0  0  0  0  0  0  0  0  0  0
   -2.7863    0.7154   -0.1276 C   0  0  0  0  0  0  0  0  0  0  0  0
   -2.9501    0.7699   -1.3438 O   0  0  0  0  0  0  0  0  0  0  0  0
   -1.0955   -1.5865   -0.5096 C   0  0  0  0  0  0  0  0  0  0  0  0
   -0.8261   -0.6416   -1.4861 O   0  0  0  0  0  0  0  0  0  0  0  0
    3.7647    1.1983   -0.5177 H   0  0  0  0  0  0  0  0  0  0  0  0
    3.0133    0.7510    1.1220 H   0  0  0  0  0  0  0  0  0  0  0  0
    3.3485   -0.5190   -0.1106 H   0  0  0  0  0  0  0  0  0  0  0  0
    0.9636    0.0902    1.2940 H   0  0  0  0  0  0  0  0  0  0  0  0
    1.3795   -1.2452    0.2043 H   0  0  0  0  0  0  0  0  0  0  0  0
   -1.4436    0.6819    1.5030 H   0  0  0  0  0  0  0  0  0  0  0  0
   -1.0192    1.8486    0.2024 H   0  0  0  0  0  0  0  0  0  0  0  0
   -3.6783    0.5858    0.4865 H   0  0  0  0  0  0  0  0  0  0  0  0
   -0.3795   -2.4478   -0.5215 H   0  0  0  0  0  0  0  0  0  0  0  0
   -2.1323   -1.7637   -0.1494 H   0  0  0  0  0  0  0  0  0  0  0  0
  1  2  1  0
  2  3  1  0
  3  4  1  0
  4  5  1  0
  5  6  1  0
  6  7  2  0
  4  8  1  0
  8  9  1  0
  9  4  1  0
  1 10  1  0
  1 11  1  0
  1 12  1  0
  3 13  1  0
  3 14  1  0
  5 15  1  0
  5 16  1  0
  6 17  1  0
  8 18  1  0
  8 19  1  0
M  END
