
     RDKit          3D

 19 20  0  0  0  0  0  0  0  0999 V2000
    2.8542   -0.3849   -0.4149 C   0  0  0  0  0  0  0  0  0  0  0  0
    1.4459   -0.4597   -0.4488 O   0  0  0  0  0  0  0  0  0  0  0  0
    0.9758    0.5664    0.3346 C   0  0  0  0  0  0  0  0  0  0  0  0
   -0.5269    0.6233    0.4021 C   0  0  0  0  0  0  0  0  0  0  0  0
   -1.1581    0.8128   -0.9133 C   0  0  0  0  0  0  0  0  0  0  0  0
   -2.1768   -0.0127   -1.0451 C   0  0  0  0  0  0  0  0  0  0  0  0
   -2.3698   -0.8556    0.1371 C   0  0  0  0  0  0  0  0  0  0  0  0
   -2.4882   -0.3459    1.4122 O   0  0  0  0  0  0  0  0  0  0  0  0
   -1.1708   -0.5493    1.0013 C   0  0  0  0  0  0  0  0  0  0  0  0
    3.2280   -1.2044   -1.0405 H   0  0  0  0  0  0  0  0  0  0  0  0
    3.1850   -0.4454    0.6399 H   0  0  0  0  0  0  0  0  0  0  0  0
    3.2024    0.5849   -0.8704 H   0  0  0  0  0  0  0  0  0  0  0  0
    1.3461    0.4376    1.3798 H   0  0  0  0  0  0  0  0  0  0  0  0
    1.3768    1.5422   -0.0096 H   0  0  0  0  0  0  0  0  0  0  0  0
   -0.7699    1.5690    0.9813 H   0  0  0  0  0  0  0  0  0  0  0  0
   -0.8371    1.5433   -1.7004 H   0  0  0  0  0  0  0  0  0  0  0  0
   -2.8122   -0.0494   -1.9677 H   0  0  0  0  0  0  0  0  0  0  0  0
   -2.6779   -1.9240    0.0134 H   0  0  0  0  0  0  0  0  0  0  0  0
   -0.6267   -1.4482    1.3372 H   0  0  0  0  0  0  0  0  0  0  0  0
  1  2  1  0
  2  3  1  0
  3  4  1  0
  4  5  1  0
  5  6  2  0
  6  7  1  0
  7  8  1  0
  8  9  1  0
  9  4  1  0
  9  7  1  0
  1 10  1  0
  1 11  1  0
  1 12  1  0
  3 13  1  0
  3 14  1  0
  4 15  1  0
  5 16  1  0
  6 17  1  0
  7 18  1  0
  9 19  1  0
M  END
