
     RDKit          3D

 23 22  0  0  0  0  0  0  0  0999 V2000
    2.2507    1.2419   -0.3879 C   0  0  0  0  0  0  0  0  0  0  0  0
    1.5225    1.0684    0.7676 O   0  0  0  0  0  0  0  0  0  0  0  0
    0.9624   -0.1657    0.9129 C   0  0  0  0  0  0  0  0  0  0  0  0
   -0.0214   -0.6179   -0.0981 C   0  0  0  0  0  0  0  0  0  0  0  0
   -0.4226   -2.0575    0.2953 C   0  0  0  0  0  0  0  0  0  0  0  0
    0.4666   -0.7232   -1.3804 O   0  0  0  0  0  0  0  0  0  0  0  0
   -1.3247    0.1432   -0.0612 C   0  0  0  0  0  0  0  0  0  0  0  0
   -1.2515    1.5377   -0.5766 C   0  0  0  0  0  0  0  0  0  0  0  0
   -1.7308    0.1931    1.2721 O   0  0  0  0  0  0  0  0  0  0  0  0
    2.7236    2.2775   -0.4113 H   0  0  0  0  0  0  0  0  0  0  0  0
    3.0492    0.5128   -0.5137 H   0  0  0  0  0  0  0  0  0  0  0  0
    1.5357    1.2117   -1.2490 H   0  0  0  0  0  0  0  0  0  0  0  0
    1.8406   -0.8961    0.8989 H   0  0  0  0  0  0  0  0  0  0  0  0
    0.5822   -0.2973    1.9680 H   0  0  0  0  0  0  0  0  0  0  0  0
   -0.9689   -1.9569    1.2584 H   0  0  0  0  0  0  0  0  0  0  0  0
   -1.1766   -2.3536   -0.4635 H   0  0  0  0  0  0  0  0  0  0  0  0
    0.4438   -2.7178    0.3402 H   0  0  0  0  0  0  0  0  0  0  0  0
   -0.2147   -1.2168   -1.9208 H   0  0  0  0  0  0  0  0  0  0  0  0
   -2.0506   -0.4359   -0.6899 H   0  0  0  0  0  0  0  0  0  0  0  0
   -0.7291    2.2096    0.1555 H   0  0  0  0  0  0  0  0  0  0  0  0
   -0.8043    1.6204   -1.5852 H   0  0  0  0  0  0  0  0  0  0  0  0
   -2.2902    1.9153   -0.6692 H   0  0  0  0  0  0  0  0  0  0  0  0
   -2.3920   -0.4930    1.5011 H   0  0  0  0  0  0  0  0  0  0  0  0
  1  2  1  0
  2  3  1  0
  3  4  1  0
  4  5  1  0
  4  6  1  0
  4  7  1  0
  7  8  1  0
  7  9  1  0
  1 10  1  0
  1 11  1  0
  1 12  1  0
  3 13  1  0
  3 14  1  0
  5 15  1  0
  5 16  1  0
  5 17  1  0
  6 18  1  0
  7 19  1  0
  8 20  1  0
  8 21  1  0
  8 22  1  0
  9 23  1  0
M  END
