
     RDKit          3D

 21 21  0  0  0  0  0  0  0  0999 V2000
    3.4712    0.5761    0.1970 C   0  0  0  0  0  0  0  0  0  0  0  0
    2.0985    0.6845    0.4451 O   0  0  0  0  0  0  0  0  0  0  0  0
    1.4226   -0.0777   -0.5048 C   0  0  0  0  0  0  0  0  0  0  0  0
   -0.0335    0.0437   -0.2333 C   0  0  0  0  0  0  0  0  0  0  0  0
   -0.6140    0.7347    0.7196 C   0  0  0  0  0  0  0  0  0  0  0  0
   -2.0952    0.6170    0.6787 C   0  0  0  0  0  0  0  0  0  0  0  0
   -2.3315   -0.6186   -0.1443 C   0  0  0  0  0  0  0  0  0  0  0  0
   -2.3207   -1.7389    0.6812 O   0  0  0  0  0  0  0  0  0  0  0  0
   -1.0980   -0.6308   -1.0378 C   0  0  0  0  0  0  0  0  0  0  0  0
    3.6569    0.9551   -0.8143 H   0  0  0  0  0  0  0  0  0  0  0  0
    3.8075   -0.4842    0.2818 H   0  0  0  0  0  0  0  0  0  0  0  0
    3.9801    1.1528    0.9928 H   0  0  0  0  0  0  0  0  0  0  0  0
    1.7443   -1.1475   -0.4873 H   0  0  0  0  0  0  0  0  0  0  0  0
    1.6433    0.2728   -1.5411 H   0  0  0  0  0  0  0  0  0  0  0  0
   -0.1159    1.3494    1.4892 H   0  0  0  0  0  0  0  0  0  0  0  0
   -2.5461    0.5645    1.6908 H   0  0  0  0  0  0  0  0  0  0  0  0
   -2.5466    1.4947    0.1353 H   0  0  0  0  0  0  0  0  0  0  0  0
   -3.2138   -0.5690   -0.7901 H   0  0  0  0  0  0  0  0  0  0  0  0
   -2.8356   -1.5455    1.5127 H   0  0  0  0  0  0  0  0  0  0  0  0
   -0.8044   -1.6465   -1.3401 H   0  0  0  0  0  0  0  0  0  0  0  0
   -1.2691    0.0132   -1.9310 H   0  0  0  0  0  0  0  0  0  0  0  0
  1  2  1  0
  2  3  1  0
  3  4  1  0
  4  5  2  0
  5  6  1  0
  6  7  1  0
  7  8  1  0
  7  9  1  0
  9  4  1  0
  1 10  1  0
  1 11  1  0
  1 12  1  0
  3 13  1  0
  3 14  1  0
  5 15  1  0
  6 16  1  0
  6 17  1  0
  7 18  1  0
  8 19  1  0
  9 20  1  0
  9 21  1  0
M  END
