
     RDKit          3D

 23 24  0  0  0  0  0  0  0  0999 V2000
    3.3383   -0.1926   -0.3161 C   0  0  0  0  0  0  0  0  0  0  0  0
    2.1099   -0.7786   -0.7020 O   0  0  0  0  0  0  0  0  0  0  0  0
    1.1319    0.1712   -0.3864 C   0  0  0  0  0  0  0  0  0  0  0  0
   -0.2473   -0.3785   -0.7721 C   0  0  0  0  0  0  0  0  0  0  0  0
   -0.5077   -1.6747    0.0109 C   0  0  0  0  0  0  0  0  0  0  0  0
   -1.7841   -1.0555    0.6005 C   0  0  0  0  0  0  0  0  0  0  0  0
   -1.3356    0.2430    0.0216 C   0  0  0  0  0  0  0  0  0  0  0  0
   -2.1985    1.3146   -0.4073 C   0  0  0  0  0  0  0  0  0  0  0  0
   -1.2243    1.4862    0.7677 C   0  0  0  0  0  0  0  0  0  0  0  0
    3.3401    0.0323    0.7644 H   0  0  0  0  0  0  0  0  0  0  0  0
    3.3668    0.8036   -0.8354 H   0  0  0  0  0  0  0  0  0  0  0  0
    4.1638   -0.8231   -0.6453 H   0  0  0  0  0  0  0  0  0  0  0  0
    1.3203    1.1435   -0.8397 H   0  0  0  0  0  0  0  0  0  0  0  0
    1.1517    0.2960    0.7160 H   0  0  0  0  0  0  0  0  0  0  0  0
   -0.3943   -0.4780   -1.8539 H   0  0  0  0  0  0  0  0  0  0  0  0
   -0.6684   -2.5522   -0.6135 H   0  0  0  0  0  0  0  0  0  0  0  0
    0.2371   -1.8729    0.7990 H   0  0  0  0  0  0  0  0  0  0  0  0
   -1.8091   -1.0921    1.7085 H   0  0  0  0  0  0  0  0  0  0  0  0
   -2.6920   -1.5182    0.1409 H   0  0  0  0  0  0  0  0  0  0  0  0
   -1.9833    1.9269   -1.3264 H   0  0  0  0  0  0  0  0  0  0  0  0
   -3.2848    1.3422   -0.1534 H   0  0  0  0  0  0  0  0  0  0  0  0
   -1.6638    1.4845    1.7952 H   0  0  0  0  0  0  0  0  0  0  0  0
   -0.3666    2.1723    0.6016 H   0  0  0  0  0  0  0  0  0  0  0  0
  1  2  1  0
  2  3  1  0
  3  4  1  0
  4  5  1  0
  5  6  1  0
  6  7  1  0
  7  8  1  0
  8  9  1  0
  7  4  1  0
  9  7  1  0
  1 10  1  0
  1 11  1  0
  1 12  1  0
  3 13  1  0
  3 14  1  0
  4 15  1  0
  5 16  1  0
  5 17  1  0
  6 18  1  0
  6 19  1  0
  8 20  1  0
  8 21  1  0
  9 22  1  0
  9 23  1  0
M  END
