
     RDKit          3D

 16 15  0  0  0  0  0  0  0  0999 V2000
    2.9948   -0.6373    1.5800 C   0  0  0  0  0  0  0  0  0  0  0  0
    1.9774    0.0190    0.9260 O   0  0  0  0  0  0  0  0  0  0  0  0
    0.7215   -0.3869    1.4439 C   0  0  0  0  0  0  0  0  0  0  0  0
   -0.2833    0.0452    0.7651 C   0  0  0  0  0  0  0  0  0  0  0  0
   -1.3641    0.5040    0.0094 C   0  0  0  0  0  0  0  0  0  0  0  0
   -2.4481    0.9398   -0.7522 C   0  0  0  0  0  0  0  0  0  0  0  0
   -2.3489    0.4664   -2.1477 C   0  0  0  0  0  0  0  0  0  0  0  0
   -3.3202    0.5509   -2.8578 O   0  0  0  0  0  0  0  0  0  0  0  0
    4.0019   -0.2333    1.2049 H   0  0  0  0  0  0  0  0  0  0  0  0
    2.9792   -0.6330    2.6512 H   0  0  0  0  0  0  0  0  0  0  0  0
    2.9475   -1.7209    1.2380 H   0  0  0  0  0  0  0  0  0  0  0  0
    0.8298   -1.5159    1.6538 H   0  0  0  0  0  0  0  0  0  0  0  0
    0.7909   -0.0103    2.5591 H   0  0  0  0  0  0  0  0  0  0  0  0
   -3.4429    0.5141   -0.3682 H   0  0  0  0  0  0  0  0  0  0  0  0
   -2.6339    2.0553   -0.6657 H   0  0  0  0  0  0  0  0  0  0  0  0
   -1.4016    0.0428   -2.5125 H   0  0  0  0  0  0  0  0  0  0  0  0
  1  2  1  0
  2  3  1  0
  3  4  1  0
  4  5  3  0
  5  6  1  0
  6  7  1  0
  7  8  2  0
  1  9  1  0
  1 10  1  0
  1 11  1  0
  3 12  1  0
  3 13  1  0
  6 14  1  0
  6 15  1  0
  7 16  1  0
M  END
