
     RDKit          3D

 21 22  0  0  0  0  0  0  0  0999 V2000
    2.9391    0.3962   -1.1373 C   0  0  0  0  0  0  0  0  0  0  0  0
    1.5366    0.3116   -1.2014 O   0  0  0  0  0  0  0  0  0  0  0  0
    1.1180   -0.2184    0.0060 C   0  0  0  0  0  0  0  0  0  0  0  0
   -0.3755   -0.3742    0.0975 C   0  0  0  0  0  0  0  0  0  0  0  0
   -0.7322   -0.8749    1.5033 C   0  0  0  0  0  0  0  0  0  0  0  0
   -0.9499   -1.1978   -0.8491 O   0  0  0  0  0  0  0  0  0  0  0  0
   -2.0753   -0.3818   -0.8006 C   0  0  0  0  0  0  0  0  0  0  0  0
   -1.9497    0.9038   -1.5368 C   0  0  0  0  0  0  0  0  0  0  0  0
   -1.2082    0.7933   -0.2590 C   0  0  0  0  0  0  0  0  0  0  0  0
    3.3965   -0.6168   -0.9793 H   0  0  0  0  0  0  0  0  0  0  0  0
    3.2563    1.0197   -0.2862 H   0  0  0  0  0  0  0  0  0  0  0  0
    3.3684    0.8263   -2.0676 H   0  0  0  0  0  0  0  0  0  0  0  0
    1.4321    0.4270    0.8542 H   0  0  0  0  0  0  0  0  0  0  0  0
    1.5450   -1.2475    0.1133 H   0  0  0  0  0  0  0  0  0  0  0  0
   -0.1510   -0.2368    2.2280 H   0  0  0  0  0  0  0  0  0  0  0  0
   -1.8106   -0.6611    1.7118 H   0  0  0  0  0  0  0  0  0  0  0  0
   -0.4630   -1.9202    1.6527 H   0  0  0  0  0  0  0  0  0  0  0  0
   -2.9273   -0.6305   -0.1705 H   0  0  0  0  0  0  0  0  0  0  0  0
   -1.3909    0.8320   -2.5095 H   0  0  0  0  0  0  0  0  0  0  0  0
   -2.8936    1.4775   -1.6034 H   0  0  0  0  0  0  0  0  0  0  0  0
   -1.6646    1.3725    0.5887 H   0  0  0  0  0  0  0  0  0  0  0  0
  1  2  1  0
  2  3  1  0
  3  4  1  0
  4  5  1  0
  4  6  1  0
  6  7  1  0
  7  8  1  0
  8  9  1  0
  9  4  1  0
  9  7  1  0
  1 10  1  0
  1 11  1  0
  1 12  1  0
  3 13  1  0
  3 14  1  0
  5 15  1  0
  5 16  1  0
  5 17  1  0
  7 18  1  0
  8 19  1  0
  8 20  1  0
  9 21  1  0
M  END
