
     RDKit          3D

 23 23  0  0  0  0  0  0  0  0999 V2000
    3.4970    0.8489    0.0279 C   0  0  0  0  0  0  0  0  0  0  0  0
    2.2699    0.2746    0.3378 O   0  0  0  0  0  0  0  0  0  0  0  0
    1.7803   -0.4076   -0.7633 C   0  0  0  0  0  0  0  0  0  0  0  0
    0.4327   -1.0034   -0.3290 C   0  0  0  0  0  0  0  0  0  0  0  0
   -0.4125    0.1819    0.0555 C   0  0  0  0  0  0  0  0  0  0  0  0
   -1.7918   -0.1962    0.5167 C   0  0  0  0  0  0  0  0  0  0  0  0
   -2.6152   -0.9285   -0.4895 C   0  0  0  0  0  0  0  0  0  0  0  0
   -3.6788   -0.0237   -0.3087 O   0  0  0  0  0  0  0  0  0  0  0  0
   -2.7625    0.9217    0.1399 C   0  0  0  0  0  0  0  0  0  0  0  0
    3.3904    1.5654   -0.8203 H   0  0  0  0  0  0  0  0  0  0  0  0
    4.2778    0.0961   -0.1949 H   0  0  0  0  0  0  0  0  0  0  0  0
    3.8660    1.4189    0.9147 H   0  0  0  0  0  0  0  0  0  0  0  0
    2.4524   -1.1901   -1.1394 H   0  0  0  0  0  0  0  0  0  0  0  0
    1.5905    0.3400   -1.5617 H   0  0  0  0  0  0  0  0  0  0  0  0
    0.5962   -1.7034    0.5074 H   0  0  0  0  0  0  0  0  0  0  0  0
   -0.0161   -1.5912   -1.1542 H   0  0  0  0  0  0  0  0  0  0  0  0
   -0.4794    0.8453   -0.8177 H   0  0  0  0  0  0  0  0  0  0  0  0
    0.1172    0.7209    0.8660 H   0  0  0  0  0  0  0  0  0  0  0  0
   -1.8953   -0.4868    1.5703 H   0  0  0  0  0  0  0  0  0  0  0  0
   -2.9049   -1.9690   -0.2108 H   0  0  0  0  0  0  0  0  0  0  0  0
   -2.2041   -0.8096   -1.5085 H   0  0  0  0  0  0  0  0  0  0  0  0
   -3.0959    1.5475    0.9827 H   0  0  0  0  0  0  0  0  0  0  0  0
   -2.4140    1.5483   -0.7064 H   0  0  0  0  0  0  0  0  0  0  0  0
  1  2  1  0
  2  3  1  0
  3  4  1  0
  4  5  1  0
  5  6  1  0
  6  7  1  0
  7  8  1  0
  8  9  1  0
  9  6  1  0
  1 10  1  0
  1 11  1  0
  1 12  1  0
  3 13  1  0
  3 14  1  0
  4 15  1  0
  4 16  1  0
  5 17  1  0
  5 18  1  0
  6 19  1  0
  7 20  1  0
  7 21  1  0
  9 22  1  0
  9 23  1  0
M  END
