
     RDKit          3D

 19 20  0  0  0  0  0  0  0  0999 V2000
    2.9643   -0.4659    0.0015 C   0  0  0  0  0  0  0  0  0  0  0  0
    1.6033   -0.7611   -0.0435 O   0  0  0  0  0  0  0  0  0  0  0  0
    0.9525    0.3850   -0.4932 C   0  0  0  0  0  0  0  0  0  0  0  0
   -0.5335    0.1940   -0.5861 C   0  0  0  0  0  0  0  0  0  0  0  0
   -1.2657    1.2682   -1.0206 O   0  0  0  0  0  0  0  0  0  0  0  0
   -2.1272    1.2837    0.0725 C   0  0  0  0  0  0  0  0  0  0  0  0
   -1.2675    0.2197    0.7038 C   0  0  0  0  0  0  0  0  0  0  0  0
   -1.1574   -1.0452   -0.0727 C   0  0  0  0  0  0  0  0  0  0  0  0
   -2.3518   -1.5282   -0.5874 O   0  0  0  0  0  0  0  0  0  0  0  0
    3.2822   -0.1898   -1.0432 H   0  0  0  0  0  0  0  0  0  0  0  0
    3.1100    0.4543    0.6030 H   0  0  0  0  0  0  0  0  0  0  0  0
    3.5720   -1.3220    0.3612 H   0  0  0  0  0  0  0  0  0  0  0  0
    1.3742    0.6188   -1.4952 H   0  0  0  0  0  0  0  0  0  0  0  0
    1.2404    1.2115    0.1820 H   0  0  0  0  0  0  0  0  0  0  0  0
   -2.2109    2.2295    0.6173 H   0  0  0  0  0  0  0  0  0  0  0  0
   -3.1136    0.8587   -0.2526 H   0  0  0  0  0  0  0  0  0  0  0  0
   -0.7756    0.3748    1.6614 H   0  0  0  0  0  0  0  0  0  0  0  0
   -0.4573   -1.8398    0.2345 H   0  0  0  0  0  0  0  0  0  0  0  0
   -2.8383   -1.9462    0.1871 H   0  0  0  0  0  0  0  0  0  0  0  0
  1  2  1  0
  2  3  1  0
  3  4  1  0
  4  5  1  0
  5  6  1  0
  6  7  1  0
  7  8  1  0
  8  9  1  0
  7  4  1  0
  8  4  1  0
  1 10  1  0
  1 11  1  0
  1 12  1  0
  3 13  1  0
  3 14  1  0
  6 15  1  0
  6 16  1  0
  7 17  1  0
  8 18  1  0
  9 19  1  0
M  END
