
     RDKit          3D

 23 23  0  0  0  0  0  0  0  0999 V2000
    3.9737    0.1771   -0.0322 C   0  0  0  0  0  0  0  0  0  0  0  0
    2.7406   -0.1429    0.5452 O   0  0  0  0  0  0  0  0  0  0  0  0
    1.6875    0.0375   -0.3638 C   0  0  0  0  0  0  0  0  0  0  0  0
    0.4189   -0.3410    0.3824 C   0  0  0  0  0  0  0  0  0  0  0  0
    0.3439    0.5326    1.4814 O   0  0  0  0  0  0  0  0  0  0  0  0
   -0.7855   -0.0655   -0.4826 C   0  0  0  0  0  0  0  0  0  0  0  0
   -2.0458   -0.4333    0.2381 C   0  0  0  0  0  0  0  0  0  0  0  0
   -3.3289   -0.1870   -0.5665 C   0  0  0  0  0  0  0  0  0  0  0  0
   -3.0315    0.5453    0.6936 C   0  0  0  0  0  0  0  0  0  0  0  0
    4.1131   -0.4908   -0.8982 H   0  0  0  0  0  0  0  0  0  0  0  0
    3.9522    1.2524   -0.3195 H   0  0  0  0  0  0  0  0  0  0  0  0
    4.7397   -0.0458    0.7383 H   0  0  0  0  0  0  0  0  0  0  0  0
    1.6793    1.0924   -0.6720 H   0  0  0  0  0  0  0  0  0  0  0  0
    1.8821   -0.6412   -1.2238 H   0  0  0  0  0  0  0  0  0  0  0  0
    0.4928   -1.3868    0.6842 H   0  0  0  0  0  0  0  0  0  0  0  0
    0.3701    0.0146    2.3302 H   0  0  0  0  0  0  0  0  0  0  0  0
   -0.7376    0.9838   -0.8041 H   0  0  0  0  0  0  0  0  0  0  0  0
   -0.7094   -0.6924   -1.3950 H   0  0  0  0  0  0  0  0  0  0  0  0
   -1.9693   -1.4213    0.7746 H   0  0  0  0  0  0  0  0  0  0  0  0
   -3.2357    0.3956   -1.5145 H   0  0  0  0  0  0  0  0  0  0  0  0
   -4.0102   -1.0515   -0.5979 H   0  0  0  0  0  0  0  0  0  0  0  0
   -3.6711    0.2355    1.5702 H   0  0  0  0  0  0  0  0  0  0  0  0
   -2.8688    1.6326    0.6755 H   0  0  0  0  0  0  0  0  0  0  0  0
  1  2  1  0
  2  3  1  0
  3  4  1  0
  4  5  1  0
  4  6  1  0
  6  7  1  0
  7  8  1  0
  8  9  1  0
  9  7  1  0
  1 10  1  0
  1 11  1  0
  1 12  1  0
  3 13  1  0
  3 14  1  0
  4 15  1  0
  5 16  1  0
  6 17  1  0
  6 18  1  0
  7 19  1  0
  8 20  1  0
  8 21  1  0
  9 22  1  0
  9 23  1  0
M  END
