
     RDKit          3D

 23 22  0  0  0  0  0  0  0  0999 V2000
    3.4142   -0.1767   -0.6847 C   0  0  0  0  0  0  0  0  0  0  0  0
    2.4151    0.5169   -0.0518 O   0  0  0  0  0  0  0  0  0  0  0  0
    1.1825   -0.1670   -0.1039 C   0  0  0  0  0  0  0  0  0  0  0  0
    0.1068    0.6280    0.6038 C   0  0  0  0  0  0  0  0  0  0  0  0
   -0.0938    1.9820   -0.0234 C   0  0  0  0  0  0  0  0  0  0  0  0
   -1.1370   -0.1350    0.8374 C   0  0  0  0  0  0  0  0  0  0  0  0
   -1.8313   -0.6497   -0.3251 C   0  0  0  0  0  0  0  0  0  0  0  0
   -3.0828   -1.4291   -0.1574 C   0  0  0  0  0  0  0  0  0  0  0  0
   -1.4223   -0.4652   -1.4524 O   0  0  0  0  0  0  0  0  0  0  0  0
    3.1882   -0.3511   -1.7673 H   0  0  0  0  0  0  0  0  0  0  0  0
    3.5768   -1.1950   -0.2585 H   0  0  0  0  0  0  0  0  0  0  0  0
    4.3340    0.4025   -0.6392 H   0  0  0  0  0  0  0  0  0  0  0  0
    1.3440   -1.0916    0.5047 H   0  0  0  0  0  0  0  0  0  0  0  0
    0.8825   -0.3900   -1.1265 H   0  0  0  0  0  0  0  0  0  0  0  0
    0.5439    0.8538    1.6253 H   0  0  0  0  0  0  0  0  0  0  0  0
   -0.9778    2.0403   -0.6806 H   0  0  0  0  0  0  0  0  0  0  0  0
    0.7759    2.2266   -0.6737 H   0  0  0  0  0  0  0  0  0  0  0  0
   -0.2371    2.7788    0.7504 H   0  0  0  0  0  0  0  0  0  0  0  0
   -0.8904   -0.9752    1.5481 H   0  0  0  0  0  0  0  0  0  0  0  0
   -1.8454    0.5514    1.3867 H   0  0  0  0  0  0  0  0  0  0  0  0
   -3.9298   -1.0240   -0.7347 H   0  0  0  0  0  0  0  0  0  0  0  0
   -2.9068   -2.4615   -0.5285 H   0  0  0  0  0  0  0  0  0  0  0  0
   -3.4093   -1.4694    0.9039 H   0  0  0  0  0  0  0  0  0  0  0  0
  1  2  1  0
  2  3  1  0
  3  4  1  0
  4  5  1  0
  4  6  1  0
  6  7  1  0
  7  8  1  0
  7  9  2  0
  1 10  1  0
  1 11  1  0
  1 12  1  0
  3 13  1  0
  3 14  1  0
  4 15  1  0
  5 16  1  0
  5 17  1  0
  5 18  1  0
  6 19  1  0
  6 20  1  0
  8 21  1  0
  8 22  1  0
  8 23  1  0
M  END
