
     RDKit          3D

 21 21  0  0  0  0  0  0  0  0999 V2000
    3.2300    0.7222    0.4826 C   0  0  0  0  0  0  0  0  0  0  0  0
    1.8781    0.3593    0.4564 O   0  0  0  0  0  0  0  0  0  0  0  0
    1.5057   -0.0962   -0.7969 C   0  0  0  0  0  0  0  0  0  0  0  0
    0.0567   -0.4678   -0.7638 C   0  0  0  0  0  0  0  0  0  0  0  0
   -0.2402   -1.3812    0.4025 C   0  0  0  0  0  0  0  0  0  0  0  0
   -1.4716   -1.0741    0.7925 C   0  0  0  0  0  0  0  0  0  0  0  0
   -1.9334    0.0087   -0.1123 C   0  0  0  0  0  0  0  0  0  0  0  0
   -2.9364    0.9188    0.5414 C   0  0  0  0  0  0  0  0  0  0  0  0
   -0.7403    0.6519   -0.4195 O   0  0  0  0  0  0  0  0  0  0  0  0
    3.5456    1.0857    1.4658 H   0  0  0  0  0  0  0  0  0  0  0  0
    3.8135   -0.2031    0.2390 H   0  0  0  0  0  0  0  0  0  0  0  0
    3.4510    1.4404   -0.3220 H   0  0  0  0  0  0  0  0  0  0  0  0
    1.6192    0.7549   -1.5031 H   0  0  0  0  0  0  0  0  0  0  0  0
    2.0779   -0.9737   -1.1286 H   0  0  0  0  0  0  0  0  0  0  0  0
   -0.2803   -0.9187   -1.7208 H   0  0  0  0  0  0  0  0  0  0  0  0
    0.4179   -2.1305    0.8295 H   0  0  0  0  0  0  0  0  0  0  0  0
   -1.9742   -1.5589    1.6146 H   0  0  0  0  0  0  0  0  0  0  0  0
   -2.3073   -0.4601   -1.0332 H   0  0  0  0  0  0  0  0  0  0  0  0
   -2.7879    1.0070    1.6261 H   0  0  0  0  0  0  0  0  0  0  0  0
   -2.9832    1.8966    0.0437 H   0  0  0  0  0  0  0  0  0  0  0  0
   -3.9408    0.4187    0.4036 H   0  0  0  0  0  0  0  0  0  0  0  0
  1  2  1  0
  2  3  1  0
  3  4  1  0
  4  5  1  0
  5  6  2  0
  6  7  1  0
  7  8  1  0
  7  9  1  0
  9  4  1  0
  1 10  1  0
  1 11  1  0
  1 12  1  0
  3 13  1  0
  3 14  1  0
  4 15  1  0
  5 16  1  0
  6 17  1  0
  7 18  1  0
  8 19  1  0
  8 20  1  0
  8 21  1  0
M  END
