
     RDKit          3D

 21 21  0  0  0  0  0  0  0  0999 V2000
   -3.9030    0.2314    0.4542 C   0  0  0  0  0  0  0  0  0  0  0  0
   -3.3103   -0.9986    0.4447 O   0  0  0  0  0  0  0  0  0  0  0  0
   -1.9260   -0.9849    0.5191 C   0  0  0  0  0  0  0  0  0  0  0  0
   -1.3072   -0.2500   -0.6344 C   0  0  0  0  0  0  0  0  0  0  0  0
    0.1693   -0.2977   -0.4679 C   0  0  0  0  0  0  0  0  0  0  0  0
    1.3643   -0.3336   -0.3123 C   0  0  0  0  0  0  0  0  0  0  0  0
    2.8154   -0.3969   -0.1263 C   0  0  0  0  0  0  0  0  0  0  0  0
    3.6224    0.7826   -0.5472 C   0  0  0  0  0  0  0  0  0  0  0  0
    3.3281    0.5228    0.9463 C   0  0  0  0  0  0  0  0  0  0  0  0
   -3.6152    0.8981   -0.3824 H   0  0  0  0  0  0  0  0  0  0  0  0
   -5.0030    0.1050    0.3752 H   0  0  0  0  0  0  0  0  0  0  0  0
   -3.6604    0.7691    1.4181 H   0  0  0  0  0  0  0  0  0  0  0  0
   -1.5385   -2.0008    0.6523 H   0  0  0  0  0  0  0  0  0  0  0  0
   -1.6837   -0.4256    1.4678 H   0  0  0  0  0  0  0  0  0  0  0  0
   -1.6166   -0.7132   -1.5937 H   0  0  0  0  0  0  0  0  0  0  0  0
   -1.6257    0.8108   -0.6810 H   0  0  0  0  0  0  0  0  0  0  0  0
    3.3138   -1.3965   -0.1587 H   0  0  0  0  0  0  0  0  0  0  0  0
    4.6648    0.5721   -0.8721 H   0  0  0  0  0  0  0  0  0  0  0  0
    3.0945    1.6565   -0.9801 H   0  0  0  0  0  0  0  0  0  0  0  0
    2.6245    1.2250    1.4464 H   0  0  0  0  0  0  0  0  0  0  0  0
    4.1925    0.2243    1.5746 H   0  0  0  0  0  0  0  0  0  0  0  0
  1  2  1  0
  2  3  1  0
  3  4  1  0
  4  5  1  0
  5  6  3  0
  6  7  1  0
  7  8  1  0
  8  9  1  0
  9  7  1  0
  1 10  1  0
  1 11  1  0
  1 12  1  0
  3 13  1  0
  3 14  1  0
  4 15  1  0
  4 16  1  0
  7 17  1  0
  8 18  1  0
  8 19  1  0
  9 20  1  0
  9 21  1  0
M  END
