
     RDKit          3D

 18 17  0  0  0  0  0  0  0  0999 V2000
   -2.7967    0.2604   -0.0503 C   0  0  0  0  0  0  0  0  0  0  0  0
   -2.5392   -0.4049    1.1480 O   0  0  0  0  0  0  0  0  0  0  0  0
   -1.6700   -1.4724    0.8523 C   0  0  0  0  0  0  0  0  0  0  0  0
   -0.4296   -0.9493    0.2776 C   0  0  0  0  0  0  0  0  0  0  0  0
    0.5987   -0.4926   -0.1998 C   0  0  0  0  0  0  0  0  0  0  0  0
    1.8395    0.0440   -0.7606 C   0  0  0  0  0  0  0  0  0  0  0  0
    2.5254    0.8272    0.3271 C   0  0  0  0  0  0  0  0  0  0  0  0
    2.6854   -0.9536   -1.2194 O   0  0  0  0  0  0  0  0  0  0  0  0
   -3.4716    1.1154    0.0832 H   0  0  0  0  0  0  0  0  0  0  0  0
   -3.2437   -0.4911   -0.7440 H   0  0  0  0  0  0  0  0  0  0  0  0
   -1.8676    0.6256   -0.5343 H   0  0  0  0  0  0  0  0  0  0  0  0
   -2.1931   -2.1517    0.1235 H   0  0  0  0  0  0  0  0  0  0  0  0
   -1.4685   -2.0799    1.7588 H   0  0  0  0  0  0  0  0  0  0  0  0
    1.6125    0.7002   -1.6271 H   0  0  0  0  0  0  0  0  0  0  0  0
    2.1960    1.8863    0.2698 H   0  0  0  0  0  0  0  0  0  0  0  0
    3.6225    0.7858    0.1032 H   0  0  0  0  0  0  0  0  0  0  0  0
    2.2846    0.4410    1.3366 H   0  0  0  0  0  0  0  0  0  0  0  0
    2.3156   -1.8607   -1.1448 H   0  0  0  0  0  0  0  0  0  0  0  0
  1  2  1  0
  2  3  1  0
  3  4  1  0
  4  5  3  0
  5  6  1  0
  6  7  1  0
  6  8  1  0
  1  9  1  0
  1 10  1  0
  1 11  1  0
  3 12  1  0
  3 13  1  0
  6 14  1  0
  7 15  1  0
  7 16  1  0
  7 17  1  0
  8 18  1  0
M  END
