
     RDKit          3D

 21 22  0  0  0  0  0  0  0  0999 V2000
    3.0360   -0.6516   -0.1270 C   0  0  0  0  0  0  0  0  0  0  0  0
    2.0004    0.1917   -0.5156 O   0  0  0  0  0  0  0  0  0  0  0  0
    0.9123    0.0989    0.3504 C   0  0  0  0  0  0  0  0  0  0  0  0
   -0.1359    1.0442   -0.1626 C   0  0  0  0  0  0  0  0  0  0  0  0
   -1.4111    1.1215    0.6105 C   0  0  0  0  0  0  0  0  0  0  0  0
   -1.8009   -0.3263    0.8383 C   0  0  0  0  0  0  0  0  0  0  0  0
   -1.6431   -0.7954   -0.6223 C   0  0  0  0  0  0  0  0  0  0  0  0
   -1.0957    0.5044   -1.1696 C   0  0  0  0  0  0  0  0  0  0  0  0
   -2.0339    1.4166   -0.6272 O   0  0  0  0  0  0  0  0  0  0  0  0
    2.7416   -1.7205   -0.1056 H   0  0  0  0  0  0  0  0  0  0  0  0
    3.3246   -0.4134    0.9382 H   0  0  0  0  0  0  0  0  0  0  0  0
    3.9405   -0.5041   -0.7203 H   0  0  0  0  0  0  0  0  0  0  0  0
    1.2850    0.4406    1.3598 H   0  0  0  0  0  0  0  0  0  0  0  0
    0.6059   -0.9532    0.3692 H   0  0  0  0  0  0  0  0  0  0  0  0
    0.2756    2.0050   -0.4909 H   0  0  0  0  0  0  0  0  0  0  0  0
   -1.5307    1.8209    1.4014 H   0  0  0  0  0  0  0  0  0  0  0  0
   -2.8589   -0.4200    1.1517 H   0  0  0  0  0  0  0  0  0  0  0  0
   -1.0996   -0.8542    1.4836 H   0  0  0  0  0  0  0  0  0  0  0  0
   -2.6485   -0.9412   -1.0350 H   0  0  0  0  0  0  0  0  0  0  0  0
   -0.9736   -1.6438   -0.7160 H   0  0  0  0  0  0  0  0  0  0  0  0
   -0.8899    0.5799   -2.2112 H   0  0  0  0  0  0  0  0  0  0  0  0
  1  2  1  0
  2  3  1  0
  3  4  1  0
  4  5  1  0
  5  6  1  0
  6  7  1  0
  7  8  1  0
  8  9  1  0
  8  4  1  0
  9  5  1  0
  1 10  1  0
  1 11  1  0
  1 12  1  0
  3 13  1  0
  3 14  1  0
  4 15  1  0
  5 16  1  0
  6 17  1  0
  6 18  1  0
  7 19  1  0
  7 20  1  0
  8 21  1  0
M  END
