
     RDKit          3D

 18 17  0  0  0  0  0  0  0  0999 V2000
   -3.0494   -0.0289    0.6157 C   0  0  0  0  0  0  0  0  0  0  0  0
   -2.3318   -0.4502   -0.4741 O   0  0  0  0  0  0  0  0  0  0  0  0
   -1.0422    0.0430   -0.5460 C   0  0  0  0  0  0  0  0  0  0  0  0
   -0.2506   -0.3763    0.6611 C   0  0  0  0  0  0  0  0  0  0  0  0
    1.0653    0.0896    0.6507 O   0  0  0  0  0  0  0  0  0  0  0  0
    2.0207   -0.1824   -0.2889 C   0  0  0  0  0  0  0  0  0  0  0  0
    3.3726    0.4290   -0.0977 C   0  0  0  0  0  0  0  0  0  0  0  0
    1.7246   -0.9161   -1.2465 O   0  0  0  0  0  0  0  0  0  0  0  0
   -3.1362    1.0904    0.6130 H   0  0  0  0  0  0  0  0  0  0  0  0
   -2.6998   -0.3601    1.5931 H   0  0  0  0  0  0  0  0  0  0  0  0
   -4.0888   -0.4329    0.5092 H   0  0  0  0  0  0  0  0  0  0  0  0
   -0.5336   -0.3726   -1.4377 H   0  0  0  0  0  0  0  0  0  0  0  0
   -1.0139    1.1472   -0.6555 H   0  0  0  0  0  0  0  0  0  0  0  0
   -0.7110    0.0442    1.6035 H   0  0  0  0  0  0  0  0  0  0  0  0
   -0.3333   -1.4757    0.7749 H   0  0  0  0  0  0  0  0  0  0  0  0
    4.0963    0.0455   -0.8169 H   0  0  0  0  0  0  0  0  0  0  0  0
    3.2215    1.5320   -0.1632 H   0  0  0  0  0  0  0  0  0  0  0  0
    3.6898    0.1744    0.9358 H   0  0  0  0  0  0  0  0  0  0  0  0
  1  2  1  0
  2  3  1  0
  3  4  1  0
  4  5  1  0
  5  6  1  0
  6  7  1  0
  6  8  2  0
  1  9  1  0
  1 10  1  0
  1 11  1  0
  3 12  1  0
  3 13  1  0
  4 14  1  0
  4 15  1  0
  7 16  1  0
  7 17  1  0
  7 18  1  0
M  END
