
     RDKit          3D

 21 21  0  0  0  0  0  0  0  0999 V2000
    3.4560   -0.3049   -0.0420 C   0  0  0  0  0  0  0  0  0  0  0  0
    2.8233    0.7744    0.5082 O   0  0  0  0  0  0  0  0  0  0  0  0
    1.6231    0.5193    1.1051 C   0  0  0  0  0  0  0  0  0  0  0  0
    0.5878   -0.0668    0.1526 C   0  0  0  0  0  0  0  0  0  0  0  0
   -0.5442   -0.2561    0.9208 O   0  0  0  0  0  0  0  0  0  0  0  0
   -1.6282   -0.7994    0.3114 C   0  0  0  0  0  0  0  0  0  0  0  0
   -2.1248    0.0426   -0.8123 C   0  0  0  0  0  0  0  0  0  0  0  0
   -3.3826    0.7906   -0.7483 C   0  0  0  0  0  0  0  0  0  0  0  0
   -3.2835   -0.4999   -1.4711 O   0  0  0  0  0  0  0  0  0  0  0  0
    4.4133    0.0528   -0.4882 H   0  0  0  0  0  0  0  0  0  0  0  0
    3.7455   -1.0806    0.6985 H   0  0  0  0  0  0  0  0  0  0  0  0
    2.8860   -0.7578   -0.9003 H   0  0  0  0  0  0  0  0  0  0  0  0
    1.6613   -0.1493    1.9807 H   0  0  0  0  0  0  0  0  0  0  0  0
    1.1978    1.4833    1.4558 H   0  0  0  0  0  0  0  0  0  0  0  0
    0.3841    0.6850   -0.6172 H   0  0  0  0  0  0  0  0  0  0  0  0
    0.9153   -1.0446   -0.2569 H   0  0  0  0  0  0  0  0  0  0  0  0
   -2.4307   -1.0153    1.0723 H   0  0  0  0  0  0  0  0  0  0  0  0
   -1.3719   -1.8190   -0.0854 H   0  0  0  0  0  0  0  0  0  0  0  0
   -1.3582    0.4460   -1.5065 H   0  0  0  0  0  0  0  0  0  0  0  0
   -4.0343    0.6560    0.1360 H   0  0  0  0  0  0  0  0  0  0  0  0
   -3.5351    1.6423   -1.4131 H   0  0  0  0  0  0  0  0  0  0  0  0
  1  2  1  0
  2  3  1  0
  3  4  1  0
  4  5  1  0
  5  6  1  0
  6  7  1  0
  7  8  1  0
  8  9  1  0
  9  7  1  0
  1 10  1  0
  1 11  1  0
  1 12  1  0
  3 13  1  0
  3 14  1  0
  4 15  1  0
  4 16  1  0
  6 17  1  0
  6 18  1  0
  7 19  1  0
  8 20  1  0
  8 21  1  0
M  END
