
     RDKit          3D

 19 20  0  0  0  0  0  0  0  0999 V2000
    3.0241   -0.9994    0.1009 C   0  0  0  0  0  0  0  0  0  0  0  0
    1.8690   -0.5940   -0.5447 O   0  0  0  0  0  0  0  0  0  0  0  0
    1.2002    0.2970    0.2527 C   0  0  0  0  0  0  0  0  0  0  0  0
   -0.0830    0.7895   -0.3892 C   0  0  0  0  0  0  0  0  0  0  0  0
   -0.7709    1.7523    0.5139 O   0  0  0  0  0  0  0  0  0  0  0  0
   -1.2963    0.5475    0.1391 C   0  0  0  0  0  0  0  0  0  0  0  0
   -2.6825    0.4937   -0.3628 C   0  0  0  0  0  0  0  0  0  0  0  0
   -3.0854    0.1798    0.9580 O   0  0  0  0  0  0  0  0  0  0  0  0
   -1.8262   -0.4487    1.0880 C   0  0  0  0  0  0  0  0  0  0  0  0
    3.7064   -0.1445    0.3203 H   0  0  0  0  0  0  0  0  0  0  0  0
    2.8264   -1.5291    1.0566 H   0  0  0  0  0  0  0  0  0  0  0  0
    3.5332   -1.7578   -0.5521 H   0  0  0  0  0  0  0  0  0  0  0  0
    0.9762   -0.2082    1.2251 H   0  0  0  0  0  0  0  0  0  0  0  0
    1.8780    1.1397    0.5077 H   0  0  0  0  0  0  0  0  0  0  0  0
    0.0925    1.2553   -1.3815 H   0  0  0  0  0  0  0  0  0  0  0  0
   -2.9485   -0.3280   -1.0701 H   0  0  0  0  0  0  0  0  0  0  0  0
   -3.0849    1.4515   -0.7370 H   0  0  0  0  0  0  0  0  0  0  0  0
   -1.9104   -1.4640    0.6203 H   0  0  0  0  0  0  0  0  0  0  0  0
   -1.4179   -0.4324    2.1100 H   0  0  0  0  0  0  0  0  0  0  0  0
  1  2  1  0
  2  3  1  0
  3  4  1  0
  4  5  1  0
  5  6  1  0
  6  7  1  0
  7  8  1  0
  8  9  1  0
  6  4  1  0
  9  6  1  0
  1 10  1  0
  1 11  1  0
  1 12  1  0
  3 13  1  0
  3 14  1  0
  4 15  1  0
  7 16  1  0
  7 17  1  0
  9 18  1  0
  9 19  1  0
M  END
