
     RDKit          3D

 21 20  0  0  0  0  0  0  0  0999 V2000
    2.5174    1.1609   -0.3355 C   0  0  0  0  0  0  0  0  0  0  0  0
    1.3384    0.5080   -0.5853 O   0  0  0  0  0  0  0  0  0  0  0  0
    1.2629   -0.7469   -0.0007 C   0  0  0  0  0  0  0  0  0  0  0  0
   -0.0443   -1.4003   -0.3127 C   0  0  0  0  0  0  0  0  0  0  0  0
   -1.2309   -0.5978    0.1941 C   0  0  0  0  0  0  0  0  0  0  0  0
   -2.4470   -1.3582   -0.1837 C   0  0  0  0  0  0  0  0  0  0  0  0
   -2.6551   -2.4794    0.2665 O   0  0  0  0  0  0  0  0  0  0  0  0
   -1.2399    0.6135   -0.4408 O   0  0  0  0  0  0  0  0  0  0  0  0
   -1.2547    1.7076    0.4155 C   0  0  0  0  0  0  0  0  0  0  0  0
    3.4145    0.6070   -0.7096 H   0  0  0  0  0  0  0  0  0  0  0  0
    2.5011    2.1267   -0.8572 H   0  0  0  0  0  0  0  0  0  0  0  0
    2.6670    1.3098    0.7445 H   0  0  0  0  0  0  0  0  0  0  0  0
    2.0808   -1.3539   -0.4334 H   0  0  0  0  0  0  0  0  0  0  0  0
    1.4621   -0.6853    1.0966 H   0  0  0  0  0  0  0  0  0  0  0  0
   -0.0970   -1.5609   -1.4067 H   0  0  0  0  0  0  0  0  0  0  0  0
   -0.0345   -2.4240    0.1441 H   0  0  0  0  0  0  0  0  0  0  0  0
   -1.2330   -0.5273    1.2987 H   0  0  0  0  0  0  0  0  0  0  0  0
   -3.1360   -0.8815   -0.8692 H   0  0  0  0  0  0  0  0  0  0  0  0
   -2.1865    1.6478    1.0513 H   0  0  0  0  0  0  0  0  0  0  0  0
   -0.4224    1.7134    1.1429 H   0  0  0  0  0  0  0  0  0  0  0  0
   -1.2629    2.6208   -0.2192 H   0  0  0  0  0  0  0  0  0  0  0  0
  1  2  1  0
  2  3  1  0
  3  4  1  0
  4  5  1  0
  5  6  1  0
  6  7  2  0
  5  8  1  0
  8  9  1  0
  1 10  1  0
  1 11  1  0
  1 12  1  0
  3 13  1  0
  3 14  1  0
  4 15  1  0
  4 16  1  0
  5 17  1  0
  6 18  1  0
  9 19  1  0
  9 20  1  0
  9 21  1  0
M  END
