
     RDKit          3D

 18 19  0  0  0  0  0  0  0  0999 V2000
   -2.8341    0.0911   -0.4349 C   0  0  0  0  0  0  0  0  0  0  0  0
   -1.4580    0.1763   -0.6313 O   0  0  0  0  0  0  0  0  0  0  0  0
   -0.7476   -0.1596    0.5194 C   0  0  0  0  0  0  0  0  0  0  0  0
    0.6189   -0.0834    0.3519 C   0  0  0  0  0  0  0  0  0  0  0  0
    1.4490    1.0906    0.0205 C   0  0  0  0  0  0  0  0  0  0  0  0
    2.3843   -0.0525    0.2773 C   0  0  0  0  0  0  0  0  0  0  0  0
    1.4718   -0.9005   -0.5493 C   0  0  0  0  0  0  0  0  0  0  0  0
    1.5689   -0.3696    1.3561 O   0  0  0  0  0  0  0  0  0  0  0  0
   -3.0791    0.8055    0.3839 H   0  0  0  0  0  0  0  0  0  0  0  0
   -3.3379    0.4195   -1.3572 H   0  0  0  0  0  0  0  0  0  0  0  0
   -3.0691   -0.9503   -0.1958 H   0  0  0  0  0  0  0  0  0  0  0  0
   -1.1587    0.4756    1.3321 H   0  0  0  0  0  0  0  0  0  0  0  0
   -1.1002   -1.2011    0.7820 H   0  0  0  0  0  0  0  0  0  0  0  0
    1.4701    1.4290   -1.0321 H   0  0  0  0  0  0  0  0  0  0  0  0
    1.4619    1.8887    0.7835 H   0  0  0  0  0  0  0  0  0  0  0  0
    3.3914   -0.0327    0.2632 H   0  0  0  0  0  0  0  0  0  0  0  0
    1.5007   -1.9617   -0.2564 H   0  0  0  0  0  0  0  0  0  0  0  0
    1.4676   -0.6648   -1.6129 H   0  0  0  0  0  0  0  0  0  0  0  0
  1  2  1  0
  2  3  1  0
  3  4  1  0
  4  5  1  0
  5  6  1  0
  6  7  1  0
  6  8  1  0
  7  4  1  0
  8  4  1  0
  1  9  1  0
  1 10  1  0
  1 11  1  0
  3 12  1  0
  3 13  1  0
  5 14  1  0
  5 15  1  0
  6 16  1  0
  7 17  1  0
  7 18  1  0
M  END
