
     RDKit          3D

 19 19  0  0  0  0  0  0  0  0999 V2000
    2.6320    0.5345   -0.7863 C   0  0  0  0  0  0  0  0  0  0  0  0
    1.2350    0.5349   -0.6366 O   0  0  0  0  0  0  0  0  0  0  0  0
    0.9375   -0.3503    0.3809 C   0  0  0  0  0  0  0  0  0  0  0  0
   -0.5443   -0.4460    0.6467 C   0  0  0  0  0  0  0  0  0  0  0  0
   -0.8631   -1.3377    1.6737 O   0  0  0  0  0  0  0  0  0  0  0  0
   -1.4279    0.7107    0.4738 C   0  0  0  0  0  0  0  0  0  0  0  0
   -2.5510    0.8592    1.3109 O   0  0  0  0  0  0  0  0  0  0  0  0
   -1.5047   -0.4565   -0.4953 C   0  0  0  0  0  0  0  0  0  0  0  0
   -1.0645   -0.1825   -1.7834 O   0  0  0  0  0  0  0  0  0  0  0  0
    3.1461    0.8510    0.1443 H   0  0  0  0  0  0  0  0  0  0  0  0
    2.9832   -0.4740   -1.0949 H   0  0  0  0  0  0  0  0  0  0  0  0
    2.9214    1.2777   -1.5727 H   0  0  0  0  0  0  0  0  0  0  0  0
    1.4621   -0.0396    1.3005 H   0  0  0  0  0  0  0  0  0  0  0  0
    1.3197   -1.3522    0.0820 H   0  0  0  0  0  0  0  0  0  0  0  0
   -0.9289   -2.2291    1.2471 H   0  0  0  0  0  0  0  0  0  0  0  0
   -1.0595    1.6912    0.0979 H   0  0  0  0  0  0  0  0  0  0  0  0
   -2.4371    1.6845    1.8420 H   0  0  0  0  0  0  0  0  0  0  0  0
   -2.4024   -1.0963   -0.4472 H   0  0  0  0  0  0  0  0  0  0  0  0
   -1.8534   -0.1794   -2.3835 H   0  0  0  0  0  0  0  0  0  0  0  0
  1  2  1  0
  2  3  1  0
  3  4  1  0
  4  5  1  0
  4  6  1  0
  6  7  1  0
  6  8  1  0
  8  9  1  0
  8  4  1  0
  1 10  1  0
  1 11  1  0
  1 12  1  0
  3 13  1  0
  3 14  1  0
  5 15  1  0
  6 16  1  0
  7 17  1  0
  8 18  1  0
  9 19  1  0
M  END
