
     RDKit          3D

 21 21  0  0  0  0  0  0  0  0999 V2000
    3.1414   -0.4030    0.4471 C   0  0  0  0  0  0  0  0  0  0  0  0
    1.8711   -0.8172    0.0437 O   0  0  0  0  0  0  0  0  0  0  0  0
    1.0402    0.2696    0.0853 C   0  0  0  0  0  0  0  0  0  0  0  0
   -0.3754   -0.0225   -0.3260 C   0  0  0  0  0  0  0  0  0  0  0  0
   -1.0514   -1.0429    0.5217 C   0  0  0  0  0  0  0  0  0  0  0  0
   -0.4118   -2.2795    0.5143 O   0  0  0  0  0  0  0  0  0  0  0  0
   -1.1968    1.2287   -0.3446 C   0  0  0  0  0  0  0  0  0  0  0  0
   -2.5961    1.1921   -0.7122 C   0  0  0  0  0  0  0  0  0  0  0  0
   -2.1760    1.3706    0.7052 O   0  0  0  0  0  0  0  0  0  0  0  0
    3.8786   -1.2170    0.4439 H   0  0  0  0  0  0  0  0  0  0  0  0
    3.0919    0.0799    1.4646 H   0  0  0  0  0  0  0  0  0  0  0  0
    3.4241    0.4420   -0.2397 H   0  0  0  0  0  0  0  0  0  0  0  0
    1.0119    0.6395    1.1445 H   0  0  0  0  0  0  0  0  0  0  0  0
    1.4218    1.1249   -0.5091 H   0  0  0  0  0  0  0  0  0  0  0  0
   -0.3339   -0.4291   -1.3688 H   0  0  0  0  0  0  0  0  0  0  0  0
   -1.1370   -0.7137    1.5883 H   0  0  0  0  0  0  0  0  0  0  0  0
   -2.0666   -1.2122    0.1075 H   0  0  0  0  0  0  0  0  0  0  0  0
   -0.6595   -2.7692    1.3630 H   0  0  0  0  0  0  0  0  0  0  0  0
   -0.6401    2.1787   -0.4580 H   0  0  0  0  0  0  0  0  0  0  0  0
   -3.1303    0.2420   -0.8496 H   0  0  0  0  0  0  0  0  0  0  0  0
   -3.1059    2.1383   -1.0002 H   0  0  0  0  0  0  0  0  0  0  0  0
  1  2  1  0
  2  3  1  0
  3  4  1  0
  4  5  1  0
  5  6  1  0
  4  7  1  0
  7  8  1  0
  8  9  1  0
  9  7  1  0
  1 10  1  0
  1 11  1  0
  1 12  1  0
  3 13  1  0
  3 14  1  0
  4 15  1  0
  5 16  1  0
  5 17  1  0
  6 18  1  0
  7 19  1  0
  8 20  1  0
  8 21  1  0
M  END
