
     RDKit          3D

 25 25  0  0  0  0  0  0  0  0999 V2000
    3.8644   -0.1857   -0.1269 C   0  0  0  0  0  0  0  0  0  0  0  0
    2.6955   -0.5358    0.5684 O   0  0  0  0  0  0  0  0  0  0  0  0
    1.6932    0.2522    0.0437 C   0  0  0  0  0  0  0  0  0  0  0  0
    0.3411    0.0068    0.6839 C   0  0  0  0  0  0  0  0  0  0  0  0
    0.0111   -1.4521    0.4366 C   0  0  0  0  0  0  0  0  0  0  0  0
   -0.6272    0.8599   -0.0800 C   0  0  0  0  0  0  0  0  0  0  0  0
   -2.0392    0.8213    0.3458 C   0  0  0  0  0  0  0  0  0  0  0  0
   -2.9229   -0.3387    0.3747 C   0  0  0  0  0  0  0  0  0  0  0  0
   -3.0408    0.5890   -0.7917 C   0  0  0  0  0  0  0  0  0  0  0  0
    4.0395    0.9080    0.0588 H   0  0  0  0  0  0  0  0  0  0  0  0
    3.5862   -0.2433   -1.2148 H   0  0  0  0  0  0  0  0  0  0  0  0
    4.7167   -0.8141    0.1230 H   0  0  0  0  0  0  0  0  0  0  0  0
    1.9594    1.3123    0.2209 H   0  0  0  0  0  0  0  0  0  0  0  0
    1.5886    0.0821   -1.0295 H   0  0  0  0  0  0  0  0  0  0  0  0
    0.3378    0.1767    1.7575 H   0  0  0  0  0  0  0  0  0  0  0  0
   -0.6057   -1.8836    1.2546 H   0  0  0  0  0  0  0  0  0  0  0  0
   -0.4165   -1.6333   -0.5669 H   0  0  0  0  0  0  0  0  0  0  0  0
    0.9955   -2.0151    0.4772 H   0  0  0  0  0  0  0  0  0  0  0  0
   -0.2814    1.9381   -0.0494 H   0  0  0  0  0  0  0  0  0  0  0  0
   -0.5327    0.6128   -1.1733 H   0  0  0  0  0  0  0  0  0  0  0  0
   -2.3162    1.6952    1.0182 H   0  0  0  0  0  0  0  0  0  0  0  0
   -3.8138   -0.2646    1.0668 H   0  0  0  0  0  0  0  0  0  0  0  0
   -2.6548   -1.3730    0.1776 H   0  0  0  0  0  0  0  0  0  0  0  0
   -3.8983    1.2854   -0.8807 H   0  0  0  0  0  0  0  0  0  0  0  0
   -2.6795    0.1994   -1.7423 H   0  0  0  0  0  0  0  0  0  0  0  0
  1  2  1  0
  2  3  1  0
  3  4  1  0
  4  5  1  0
  4  6  1  0
  6  7  1  0
  7  8  1  0
  8  9  1  0
  9  7  1  0
  1 10  1  0
  1 11  1  0
  1 12  1  0
  3 13  1  0
  3 14  1  0
  4 15  1  0
  5 16  1  0
  5 17  1  0
  5 18  1  0
  6 19  1  0
  6 20  1  0
  7 21  1  0
  8 22  1  0
  8 23  1  0
  9 24  1  0
  9 25  1  0
M  END
