
     RDKit          3D

 23 22  0  0  0  0  0  0  0  0999 V2000
   -3.7782    0.1573   -0.5257 C   0  0  0  0  0  0  0  0  0  0  0  0
   -3.1021   -1.0101   -0.3510 O   0  0  0  0  0  0  0  0  0  0  0  0
   -1.8927   -0.8628    0.2834 C   0  0  0  0  0  0  0  0  0  0  0  0
   -0.9503    0.0180   -0.4653 C   0  0  0  0  0  0  0  0  0  0  0  0
    0.3934    0.1463    0.2439 C   0  0  0  0  0  0  0  0  0  0  0  0
    1.2533    0.9647   -0.4624 O   0  0  0  0  0  0  0  0  0  0  0  0
    2.4797    1.1193    0.1279 C   0  0  0  0  0  0  0  0  0  0  0  0
    3.2458   -0.1716    0.3095 C   0  0  0  0  0  0  0  0  0  0  0  0
    3.4875   -0.8044   -0.9117 O   0  0  0  0  0  0  0  0  0  0  0  0
   -3.9574    0.6412    0.4574 H   0  0  0  0  0  0  0  0  0  0  0  0
   -3.2397    0.8400   -1.1850 H   0  0  0  0  0  0  0  0  0  0  0  0
   -4.8180   -0.0035   -0.9288 H   0  0  0  0  0  0  0  0  0  0  0  0
   -2.0364   -0.5374    1.3416 H   0  0  0  0  0  0  0  0  0  0  0  0
   -1.4654   -1.9117    0.3470 H   0  0  0  0  0  0  0  0  0  0  0  0
   -1.4087    1.0487   -0.5304 H   0  0  0  0  0  0  0  0  0  0  0  0
   -0.7981   -0.3570   -1.4852 H   0  0  0  0  0  0  0  0  0  0  0  0
    0.8640   -0.8259    0.3862 H   0  0  0  0  0  0  0  0  0  0  0  0
    0.2264    0.5937    1.2475 H   0  0  0  0  0  0  0  0  0  0  0  0
    2.3263    1.5296    1.1605 H   0  0  0  0  0  0  0  0  0  0  0  0
    3.1318    1.7938   -0.4580 H   0  0  0  0  0  0  0  0  0  0  0  0
    2.7941   -0.8573    1.0368 H   0  0  0  0  0  0  0  0  0  0  0  0
    4.2608    0.1361    0.6986 H   0  0  0  0  0  0  0  0  0  0  0  0
    2.9840   -1.6471   -0.9465 H   0  0  0  0  0  0  0  0  0  0  0  0
  1  2  1  0
  2  3  1  0
  3  4  1  0
  4  5  1  0
  5  6  1  0
  6  7  1  0
  7  8  1  0
  8  9  1  0
  1 10  1  0
  1 11  1  0
  1 12  1  0
  3 13  1  0
  3 14  1  0
  4 15  1  0
  4 16  1  0
  5 17  1  0
  5 18  1  0
  7 19  1  0
  7 20  1  0
  8 21  1  0
  8 22  1  0
  9 23  1  0
M  END
