
     RDKit          3D

 23 23  0  0  0  0  0  0  0  0999 V2000
    3.0933    0.9383   -0.1465 C   0  0  0  0  0  0  0  0  0  0  0  0
    2.5006    0.0088    0.6775 O   0  0  0  0  0  0  0  0  0  0  0  0
    1.4783   -0.7258    0.0924 C   0  0  0  0  0  0  0  0  0  0  0  0
    0.3490    0.1191   -0.3870 C   0  0  0  0  0  0  0  0  0  0  0  0
   -0.2261    0.8430    0.6558 O   0  0  0  0  0  0  0  0  0  0  0  0
   -1.4837    0.4282    0.2751 C   0  0  0  0  0  0  0  0  0  0  0  0
   -2.3484    1.4587   -0.3934 C   0  0  0  0  0  0  0  0  0  0  0  0
   -0.9286   -0.5331   -0.7497 C   0  0  0  0  0  0  0  0  0  0  0  0
   -1.1844   -1.9359   -0.3327 C   0  0  0  0  0  0  0  0  0  0  0  0
    3.8891    1.4295    0.4811 H   0  0  0  0  0  0  0  0  0  0  0  0
    3.6069    0.5214   -1.0205 H   0  0  0  0  0  0  0  0  0  0  0  0
    2.3759    1.7371   -0.4939 H   0  0  0  0  0  0  0  0  0  0  0  0
    1.9537   -1.2843   -0.7611 H   0  0  0  0  0  0  0  0  0  0  0  0
    1.1855   -1.5053    0.8157 H   0  0  0  0  0  0  0  0  0  0  0  0
    0.6946    0.8259   -1.1691 H   0  0  0  0  0  0  0  0  0  0  0  0
   -2.0070   -0.0374    1.1257 H   0  0  0  0  0  0  0  0  0  0  0  0
   -1.9172    1.7310   -1.3863 H   0  0  0  0  0  0  0  0  0  0  0  0
   -3.3266    0.9652   -0.6156 H   0  0  0  0  0  0  0  0  0  0  0  0
   -2.5682    2.3271    0.2355 H   0  0  0  0  0  0  0  0  0  0  0  0
   -1.2280   -0.3515   -1.7953 H   0  0  0  0  0  0  0  0  0  0  0  0
   -2.1934   -2.2262   -0.6943 H   0  0  0  0  0  0  0  0  0  0  0  0
   -1.2325   -2.0522    0.7853 H   0  0  0  0  0  0  0  0  0  0  0  0
   -0.4827   -2.6818   -0.7029 H   0  0  0  0  0  0  0  0  0  0  0  0
  1  2  1  0
  2  3  1  0
  3  4  1  0
  4  5  1  0
  5  6  1  0
  6  7  1  0
  6  8  1  0
  8  9  1  0
  8  4  1  0
  1 10  1  0
  1 11  1  0
  1 12  1  0
  3 13  1  0
  3 14  1  0
  4 15  1  0
  6 16  1  0
  7 17  1  0
  7 18  1  0
  7 19  1  0
  8 20  1  0
  9 21  1  0
  9 22  1  0
  9 23  1  0
M  END
