
     RDKit          3D

 23 23  0  0  0  0  0  0  0  0999 V2000
   -3.8136    1.0368    0.8406 C   0  0  0  0  0  0  0  0  0  0  0  0
   -2.6400    0.7335    0.1377 O   0  0  0  0  0  0  0  0  0  0  0  0
   -2.2371   -0.5411    0.5941 C   0  0  0  0  0  0  0  0  0  0  0  0
   -0.9654   -0.9709   -0.1073 C   0  0  0  0  0  0  0  0  0  0  0  0
    0.1701    0.0121    0.1597 C   0  0  0  0  0  0  0  0  0  0  0  0
    1.2713   -0.4378   -0.4987 O   0  0  0  0  0  0  0  0  0  0  0  0
    2.4069    0.3178   -0.3804 C   0  0  0  0  0  0  0  0  0  0  0  0
    3.6687   -0.5327   -0.1162 C   0  0  0  0  0  0  0  0  0  0  0  0
    3.5135    0.3269   -1.3370 C   0  0  0  0  0  0  0  0  0  0  0  0
   -3.5731    1.0411    1.9188 H   0  0  0  0  0  0  0  0  0  0  0  0
   -4.6308    0.3445    0.5684 H   0  0  0  0  0  0  0  0  0  0  0  0
   -4.1568    2.0543    0.5802 H   0  0  0  0  0  0  0  0  0  0  0  0
   -3.0260   -1.2532    0.2761 H   0  0  0  0  0  0  0  0  0  0  0  0
   -2.1431   -0.5781    1.6800 H   0  0  0  0  0  0  0  0  0  0  0  0
   -0.7186   -1.9800    0.2816 H   0  0  0  0  0  0  0  0  0  0  0  0
   -1.1412   -1.0245   -1.1877 H   0  0  0  0  0  0  0  0  0  0  0  0
   -0.1500    1.0257   -0.0410 H   0  0  0  0  0  0  0  0  0  0  0  0
    0.3761   -0.0554    1.2642 H   0  0  0  0  0  0  0  0  0  0  0  0
    2.2706    1.2228    0.2562 H   0  0  0  0  0  0  0  0  0  0  0  0
    4.2591   -0.1894    0.7465 H   0  0  0  0  0  0  0  0  0  0  0  0
    3.6146   -1.6081   -0.2864 H   0  0  0  0  0  0  0  0  0  0  0  0
    3.4745   -0.1666   -2.3282 H   0  0  0  0  0  0  0  0  0  0  0  0
    4.1705    1.2223   -1.3480 H   0  0  0  0  0  0  0  0  0  0  0  0
  1  2  1  0
  2  3  1  0
  3  4  1  0
  4  5  1  0
  5  6  1  0
  6  7  1  0
  7  8  1  0
  8  9  1  0
  9  7  1  0
  1 10  1  0
  1 11  1  0
  1 12  1  0
  3 13  1  0
  3 14  1  0
  4 15  1  0
  4 16  1  0
  5 17  1  0
  5 18  1  0
  7 19  1  0
  8 20  1  0
  8 21  1  0
  9 22  1  0
  9 23  1  0
M  END
