
     RDKit          3D

 25 24  0  0  0  0  0  0  0  0999 V2000
    1.8999    1.6953    0.7159 C   0  0  0  0  0  0  0  0  0  0  0  0
    1.2454    1.5374   -0.5074 O   0  0  0  0  0  0  0  0  0  0  0  0
    1.3049    0.2525   -0.9776 C   0  0  0  0  0  0  0  0  0  0  0  0
    0.6961   -0.8144   -0.1515 C   0  0  0  0  0  0  0  0  0  0  0  0
    1.0020   -2.1335   -0.9573 C   0  0  0  0  0  0  0  0  0  0  0  0
   -0.7837   -0.7735    0.0702 C   0  0  0  0  0  0  0  0  0  0  0  0
   -1.2721    0.4667    0.7431 C   0  0  0  0  0  0  0  0  0  0  0  0
   -2.7871    0.3994    0.9824 C   0  0  0  0  0  0  0  0  0  0  0  0
   -1.1818    1.5044   -0.2330 O   0  0  0  0  0  0  0  0  0  0  0  0
    1.8077    2.7527    1.0334 H   0  0  0  0  0  0  0  0  0  0  0  0
    2.9942    1.5646    0.4850 H   0  0  0  0  0  0  0  0  0  0  0  0
    1.6540    0.9523    1.4690 H   0  0  0  0  0  0  0  0  0  0  0  0
    2.4056    0.0486   -1.1704 H   0  0  0  0  0  0  0  0  0  0  0  0
    0.8668    0.1734   -2.0045 H   0  0  0  0  0  0  0  0  0  0  0  0
    1.2113   -0.9791    0.8179 H   0  0  0  0  0  0  0  0  0  0  0  0
    0.8357   -1.9114   -2.0238 H   0  0  0  0  0  0  0  0  0  0  0  0
    0.3777   -2.9484   -0.5584 H   0  0  0  0  0  0  0  0  0  0  0  0
    2.0901   -2.2823   -0.7988 H   0  0  0  0  0  0  0  0  0  0  0  0
   -1.0747   -1.6559    0.7262 H   0  0  0  0  0  0  0  0  0  0  0  0
   -1.2824   -0.9251   -0.9274 H   0  0  0  0  0  0  0  0  0  0  0  0
   -0.7125    0.6725    1.6476 H   0  0  0  0  0  0  0  0  0  0  0  0
   -2.9332   -0.0748    1.9756 H   0  0  0  0  0  0  0  0  0  0  0  0
   -3.2988   -0.1645    0.2087 H   0  0  0  0  0  0  0  0  0  0  0  0
   -3.2261    1.4156    1.0555 H   0  0  0  0  0  0  0  0  0  0  0  0
   -1.8389    1.2274   -0.9285 H   0  0  0  0  0  0  0  0  0  0  0  0
  1  2  1  0
  2  3  1  0
  3  4  1  0
  4  5  1  0
  4  6  1  0
  6  7  1  0
  7  8  1  0
  7  9  1  0
  1 10  1  0
  1 11  1  0
  1 12  1  0
  3 13  1  0
  3 14  1  0
  4 15  1  0
  5 16  1  0
  5 17  1  0
  5 18  1  0
  6 19  1  0
  6 20  1  0
  7 21  1  0
  8 22  1  0
  8 23  1  0
  8 24  1  0
  9 25  1  0
M  END
