
     RDKit          3D

 21 22  0  0  0  0  0  0  0  0999 V2000
    3.3636    0.1934   -0.4906 C   0  0  0  0  0  0  0  0  0  0  0  0
    2.0081    0.4611   -0.3618 O   0  0  0  0  0  0  0  0  0  0  0  0
    1.3481   -0.6221    0.2307 C   0  0  0  0  0  0  0  0  0  0  0  0
   -0.0871   -0.2571    0.3316 C   0  0  0  0  0  0  0  0  0  0  0  0
   -0.8700   -0.1522    1.4346 C   0  0  0  0  0  0  0  0  0  0  0  0
   -2.1759    0.2389    0.8571 C   0  0  0  0  0  0  0  0  0  0  0  0
   -2.2516   -0.7159   -0.3368 C   0  0  0  0  0  0  0  0  0  0  0  0
   -1.0087    0.0813   -0.7612 C   0  0  0  0  0  0  0  0  0  0  0  0
   -1.7426    1.2708   -0.1827 C   0  0  0  0  0  0  0  0  0  0  0  0
    3.7650    0.0153    0.5331 H   0  0  0  0  0  0  0  0  0  0  0  0
    3.4950   -0.7020   -1.1474 H   0  0  0  0  0  0  0  0  0  0  0  0
    3.8514    1.0357   -1.0041 H   0  0  0  0  0  0  0  0  0  0  0  0
    1.7927   -0.8164    1.2183 H   0  0  0  0  0  0  0  0  0  0  0  0
    1.4909   -1.5542   -0.3832 H   0  0  0  0  0  0  0  0  0  0  0  0
   -0.6245   -0.3081    2.4633 H   0  0  0  0  0  0  0  0  0  0  0  0
   -3.0225    0.4080    1.4426 H   0  0  0  0  0  0  0  0  0  0  0  0
   -3.1171   -0.5966   -0.9776 H   0  0  0  0  0  0  0  0  0  0  0  0
   -1.9417   -1.7248   -0.0444 H   0  0  0  0  0  0  0  0  0  0  0  0
   -0.7225    0.0672   -1.7682 H   0  0  0  0  0  0  0  0  0  0  0  0
   -2.5457    1.6852   -0.7846 H   0  0  0  0  0  0  0  0  0  0  0  0
   -1.0048    1.9924    0.2321 H   0  0  0  0  0  0  0  0  0  0  0  0
  1  2  1  0
  2  3  1  0
  3  4  1  0
  4  5  2  0
  5  6  1  0
  6  7  1  0
  7  8  1  0
  8  9  1  0
  8  4  1  0
  9  6  1  0
  1 10  1  0
  1 11  1  0
  1 12  1  0
  3 13  1  0
  3 14  1  0
  5 15  1  0
  6 16  1  0
  7 17  1  0
  7 18  1  0
  8 19  1  0
  9 20  1  0
  9 21  1  0
M  END
