
     RDKit          3D

 23 24  0  0  0  0  0  0  0  0999 V2000
    3.2401    0.0883    0.2640 C   0  0  0  0  0  0  0  0  0  0  0  0
    2.0413   -0.6296    0.1172 O   0  0  0  0  0  0  0  0  0  0  0  0
    1.1452    0.1555   -0.5887 C   0  0  0  0  0  0  0  0  0  0  0  0
   -0.1394   -0.6034   -0.7507 C   0  0  0  0  0  0  0  0  0  0  0  0
   -0.8397   -1.0089    0.5180 C   0  0  0  0  0  0  0  0  0  0  0  0
   -1.0203    0.2446    1.3273 C   0  0  0  0  0  0  0  0  0  0  0  0
   -1.4370    1.2024    0.1926 C   0  0  0  0  0  0  0  0  0  0  0  0
   -1.3787    0.2522   -0.9617 C   0  0  0  0  0  0  0  0  0  0  0  0
   -2.1118   -0.9542   -0.3507 C   0  0  0  0  0  0  0  0  0  0  0  0
    3.0395    1.0468    0.8273 H   0  0  0  0  0  0  0  0  0  0  0  0
    3.7236    0.2919   -0.7105 H   0  0  0  0  0  0  0  0  0  0  0  0
    3.8720   -0.5212    0.9453 H   0  0  0  0  0  0  0  0  0  0  0  0
    1.5764    0.2625   -1.6231 H   0  0  0  0  0  0  0  0  0  0  0  0
    1.0214    1.1676   -0.2052 H   0  0  0  0  0  0  0  0  0  0  0  0
   -0.1070   -1.4424   -1.4514 H   0  0  0  0  0  0  0  0  0  0  0  0
   -0.6119   -1.9283    0.9868 H   0  0  0  0  0  0  0  0  0  0  0  0
   -1.8121    0.1102    2.0591 H   0  0  0  0  0  0  0  0  0  0  0  0
   -0.0421    0.5523    1.7414 H   0  0  0  0  0  0  0  0  0  0  0  0
   -2.5105    1.4924    0.3281 H   0  0  0  0  0  0  0  0  0  0  0  0
   -0.7791    2.0660    0.1232 H   0  0  0  0  0  0  0  0  0  0  0  0
   -1.6458    0.5475   -1.9399 H   0  0  0  0  0  0  0  0  0  0  0  0
   -2.2230   -1.7814   -1.0467 H   0  0  0  0  0  0  0  0  0  0  0  0
   -3.0010   -0.6109    0.1983 H   0  0  0  0  0  0  0  0  0  0  0  0
  1  2  1  0
  2  3  1  0
  3  4  1  0
  4  5  1  0
  5  6  1  0
  6  7  1  0
  7  8  1  0
  8  9  1  0
  8  4  1  0
  9  5  1  0
  1 10  1  0
  1 11  1  0
  1 12  1  0
  3 13  1  0
  3 14  1  0
  4 15  1  0
  5 16  1  0
  6 17  1  0
  6 18  1  0
  7 19  1  0
  7 20  1  0
  8 21  1  0
  9 22  1  0
  9 23  1  0
M  END
