
     RDKit          3D

 23 22  0  0  0  0  0  0  0  0999 V2000
    2.7539   -1.1354   -0.0804 C   0  0  0  0  0  0  0  0  0  0  0  0
    2.5795    0.1651   -0.5055 O   0  0  0  0  0  0  0  0  0  0  0  0
    1.2987    0.6179   -0.5153 C   0  0  0  0  0  0  0  0  0  0  0  0
    0.6390    0.5988    0.8419 C   0  0  0  0  0  0  0  0  0  0  0  0
   -0.7771    1.1253    0.7700 C   0  0  0  0  0  0  0  0  0  0  0  0
   -0.7213    2.4376    0.2987 O   0  0  0  0  0  0  0  0  0  0  0  0
   -1.6412    0.3383   -0.1697 C   0  0  0  0  0  0  0  0  0  0  0  0
   -1.7549   -1.1155    0.2237 C   0  0  0  0  0  0  0  0  0  0  0  0
   -2.5602   -1.8263   -0.6611 O   0  0  0  0  0  0  0  0  0  0  0  0
    2.1620   -1.8155   -0.7528 H   0  0  0  0  0  0  0  0  0  0  0  0
    3.8370   -1.4195   -0.1659 H   0  0  0  0  0  0  0  0  0  0  0  0
    2.4928   -1.2302    0.9864 H   0  0  0  0  0  0  0  0  0  0  0  0
    0.6600    0.1194   -1.2857 H   0  0  0  0  0  0  0  0  0  0  0  0
    1.3168    1.7050   -0.8183 H   0  0  0  0  0  0  0  0  0  0  0  0
    0.6749   -0.4422    1.2192 H   0  0  0  0  0  0  0  0  0  0  0  0
    1.2224    1.2681    1.5051 H   0  0  0  0  0  0  0  0  0  0  0  0
   -1.2133    1.0997    1.7859 H   0  0  0  0  0  0  0  0  0  0  0  0
   -0.6168    2.4155   -0.6883 H   0  0  0  0  0  0  0  0  0  0  0  0
   -1.3458    0.4671   -1.2186 H   0  0  0  0  0  0  0  0  0  0  0  0
   -2.6809    0.7624   -0.0636 H   0  0  0  0  0  0  0  0  0  0  0  0
   -2.2176   -1.2130    1.2218 H   0  0  0  0  0  0  0  0  0  0  0  0
   -0.7581   -1.6115    0.2328 H   0  0  0  0  0  0  0  0  0  0  0  0
   -3.3500   -1.3111   -0.9508 H   0  0  0  0  0  0  0  0  0  0  0  0
  1  2  1  0
  2  3  1  0
  3  4  1  0
  4  5  1  0
  5  6  1  0
  5  7  1  0
  7  8  1  0
  8  9  1  0
  1 10  1  0
  1 11  1  0
  1 12  1  0
  3 13  1  0
  3 14  1  0
  4 15  1  0
  4 16  1  0
  5 17  1  0
  6 18  1  0
  7 19  1  0
  7 20  1  0
  8 21  1  0
  8 22  1  0
  9 23  1  0
M  END
