
     RDKit          3D

 21 20  0  0  0  0  0  0  0  0999 V2000
    1.4789    0.2707   -2.1961 C   0  0  0  0  0  0  0  0  0  0  0  0
    2.5878    0.7637   -1.4966 O   0  0  0  0  0  0  0  0  0  0  0  0
    2.9270   -0.1160   -0.4327 C   0  0  0  0  0  0  0  0  0  0  0  0
    1.5840   -0.3395    0.1532 C   0  0  0  0  0  0  0  0  0  0  0  0
    0.3625   -0.5301    0.6734 C   0  0  0  0  0  0  0  0  0  0  0  0
   -1.1907   -0.8015    1.3407 C   0  0  0  0  0  0  0  0  0  0  0  0
   -1.7359   -1.5244    0.1091 C   0  0  0  0  0  0  0  0  0  0  0  0
   -1.5365    0.3833    1.4931 O   0  0  0  0  0  0  0  0  0  0  0  0
   -1.9278    1.5073    1.8661 C   0  0  0  0  0  0  0  0  0  0  0  0
    0.6735   -0.1579   -1.5379 H   0  0  0  0  0  0  0  0  0  0  0  0
    0.9623    1.4409   -2.3124 H   0  0  0  0  0  0  0  0  0  0  0  0
    1.4291   -0.0772   -3.1829 H   0  0  0  0  0  0  0  0  0  0  0  0
    3.4318    0.5830    0.3787 H   0  0  0  0  0  0  0  0  0  0  0  0
    3.5089   -0.9323   -0.4506 H   0  0  0  0  0  0  0  0  0  0  0  0
   -0.9786   -1.5054    2.1121 H   0  0  0  0  0  0  0  0  0  0  0  0
   -2.5801   -2.1576    0.3192 H   0  0  0  0  0  0  0  0  0  0  0  0
   -2.0355   -0.6544   -0.5784 H   0  0  0  0  0  0  0  0  0  0  0  0
   -0.9223   -2.1690   -0.3041 H   0  0  0  0  0  0  0  0  0  0  0  0
   -1.7610    2.2895    0.9402 H   0  0  0  0  0  0  0  0  0  0  0  0
   -1.3011    1.9889    2.6194 H   0  0  0  0  0  0  0  0  0  0  0  0
   -2.9761    1.7380    2.1498 H   0  0  0  0  0  0  0  0  0  0  0  0
  1  2  1  0
  2  3  1  0
  3  4  1  0
  4  5  3  0
  5  6  1  0
  6  7  1  0
  6  8  1  0
  8  9  1  0
  1 10  1  0
  1 11  1  0
  1 12  1  0
  3 13  1  0
  3 14  1  0
  6 15  1  0
  7 16  1  0
  7 17  1  0
  7 18  1  0
  9 19  1  0
  9 20  1  0
  9 21  1  0
M  END
