
     RDKit          3D

 23 22  0  0  0  0  0  0  0  0999 V2000
    3.7976    0.3813    0.8796 C   0  0  0  0  0  0  0  0  0  0  0  0
    2.5319   -0.1690    0.6979 O   0  0  0  0  0  0  0  0  0  0  0  0
    2.1192   -0.0086   -0.6245 C   0  0  0  0  0  0  0  0  0  0  0  0
    0.7449   -0.6235   -0.7574 C   0  0  0  0  0  0  0  0  0  0  0  0
   -0.1818   -0.0136    0.0878 O   0  0  0  0  0  0  0  0  0  0  0  0
   -1.3984   -0.6600   -0.1232 C   0  0  0  0  0  0  0  0  0  0  0  0
   -2.5050   -0.0941    0.7381 C   0  0  0  0  0  0  0  0  0  0  0  0
   -2.7369    1.3389    0.3380 C   0  0  0  0  0  0  0  0  0  0  0  0
   -3.6633   -0.8088    0.4465 O   0  0  0  0  0  0  0  0  0  0  0  0
    4.0691    0.2230    1.9457 H   0  0  0  0  0  0  0  0  0  0  0  0
    4.5545   -0.1172    0.2702 H   0  0  0  0  0  0  0  0  0  0  0  0
    3.7920    1.4653    0.6760 H   0  0  0  0  0  0  0  0  0  0  0  0
    2.7967   -0.6262   -1.2697 H   0  0  0  0  0  0  0  0  0  0  0  0
    2.1537    1.0365   -0.9503 H   0  0  0  0  0  0  0  0  0  0  0  0
    0.7937   -1.6925   -0.4687 H   0  0  0  0  0  0  0  0  0  0  0  0
    0.3437   -0.5343   -1.7860 H   0  0  0  0  0  0  0  0  0  0  0  0
   -1.6522   -0.5089   -1.1924 H   0  0  0  0  0  0  0  0  0  0  0  0
   -1.2720   -1.7561    0.0365 H   0  0  0  0  0  0  0  0  0  0  0  0
   -2.3056   -0.1855    1.8063 H   0  0  0  0  0  0  0  0  0  0  0  0
   -2.2117    2.0480    0.9907 H   0  0  0  0  0  0  0  0  0  0  0  0
   -2.3907    1.5085   -0.7065 H   0  0  0  0  0  0  0  0  0  0  0  0
   -3.8362    1.5894    0.3242 H   0  0  0  0  0  0  0  0  0  0  0  0
   -3.5431   -1.7927    0.5766 H   0  0  0  0  0  0  0  0  0  0  0  0
  1  2  1  0
  2  3  1  0
  3  4  1  0
  4  5  1  0
  5  6  1  0
  6  7  1  0
  7  8  1  0
  7  9  1  0
  1 10  1  0
  1 11  1  0
  1 12  1  0
  3 13  1  0
  3 14  1  0
  4 15  1  0
  4 16  1  0
  6 17  1  0
  6 18  1  0
  7 19  1  0
  8 20  1  0
  8 21  1  0
  8 22  1  0
  9 23  1  0
M  END
