
     RDKit          3D

 23 24  0  0  0  0  0  0  0  0999 V2000
    3.5227   -0.4082   -0.3231 C   0  0  0  0  0  0  0  0  0  0  0  0
    2.2876    0.1835   -0.5774 O   0  0  0  0  0  0  0  0  0  0  0  0
    1.3673   -0.0757    0.4352 C   0  0  0  0  0  0  0  0  0  0  0  0
    0.0796    0.5903    0.0860 C   0  0  0  0  0  0  0  0  0  0  0  0
   -1.1008    0.4684    1.0238 C   0  0  0  0  0  0  0  0  0  0  0  0
   -2.0150    0.2226   -0.1295 C   0  0  0  0  0  0  0  0  0  0  0  0
   -2.9478   -0.9330   -0.0372 C   0  0  0  0  0  0  0  0  0  0  0  0
   -0.7999    0.0480   -1.0016 C   0  0  0  0  0  0  0  0  0  0  0  0
   -0.0190    1.2854   -1.1974 C   0  0  0  0  0  0  0  0  0  0  0  0
    3.9495   -0.0240    0.6258 H   0  0  0  0  0  0  0  0  0  0  0  0
    4.1873   -0.1258   -1.1661 H   0  0  0  0  0  0  0  0  0  0  0  0
    3.4293   -1.5054   -0.3108 H   0  0  0  0  0  0  0  0  0  0  0  0
    1.2597   -1.1691    0.6231 H   0  0  0  0  0  0  0  0  0  0  0  0
    1.7805    0.3963    1.3562 H   0  0  0  0  0  0  0  0  0  0  0  0
   -1.3181    1.3908    1.6124 H   0  0  0  0  0  0  0  0  0  0  0  0
   -1.0443   -0.3963    1.7087 H   0  0  0  0  0  0  0  0  0  0  0  0
   -2.5548    1.1613   -0.4065 H   0  0  0  0  0  0  0  0  0  0  0  0
   -2.4860   -1.9179   -0.0839 H   0  0  0  0  0  0  0  0  0  0  0  0
   -3.6819   -0.8635   -0.8640 H   0  0  0  0  0  0  0  0  0  0  0  0
   -3.5308   -0.8711    0.9015 H   0  0  0  0  0  0  0  0  0  0  0  0
   -0.5642   -0.9060   -1.4640 H   0  0  0  0  0  0  0  0  0  0  0  0
   -0.6304    2.2153   -1.3235 H   0  0  0  0  0  0  0  0  0  0  0  0
    0.8294    1.2340   -1.8706 H   0  0  0  0  0  0  0  0  0  0  0  0
  1  2  1  0
  2  3  1  0
  3  4  1  0
  4  5  1  0
  5  6  1  0
  6  7  1  0
  6  8  1  0
  8  9  1  0
  8  4  1  0
  9  4  1  0
  1 10  1  0
  1 11  1  0
  1 12  1  0
  3 13  1  0
  3 14  1  0
  5 15  1  0
  5 16  1  0
  6 17  1  0
  7 18  1  0
  7 19  1  0
  7 20  1  0
  8 21  1  0
  9 22  1  0
  9 23  1  0
M  END
