
     RDKit          3D

 21 22  0  0  0  0  0  0  0  0999 V2000
    2.9050    0.6475   -0.8394 C   0  0  0  0  0  0  0  0  0  0  0  0
    1.6535    0.0849   -1.0867 O   0  0  0  0  0  0  0  0  0  0  0  0
    1.0337   -0.2013    0.1361 C   0  0  0  0  0  0  0  0  0  0  0  0
   -0.3265   -0.8128   -0.1230 C   0  0  0  0  0  0  0  0  0  0  0  0
   -1.0654   -1.1538    1.1228 C   0  0  0  0  0  0  0  0  0  0  0  0
   -1.8365    0.0978    1.4579 C   0  0  0  0  0  0  0  0  0  0  0  0
   -1.1545    1.2932    1.4252 O   0  0  0  0  0  0  0  0  0  0  0  0
   -1.8493    0.9293    0.2992 C   0  0  0  0  0  0  0  0  0  0  0  0
   -1.2240    0.1571   -0.8211 C   0  0  0  0  0  0  0  0  0  0  0  0
    3.5199   -0.0805   -0.2612 H   0  0  0  0  0  0  0  0  0  0  0  0
    2.8323    1.5571   -0.1950 H   0  0  0  0  0  0  0  0  0  0  0  0
    3.4512    0.8905   -1.7479 H   0  0  0  0  0  0  0  0  0  0  0  0
    0.9668    0.7646    0.6690 H   0  0  0  0  0  0  0  0  0  0  0  0
    1.6528   -0.9369    0.7100 H   0  0  0  0  0  0  0  0  0  0  0  0
   -0.2165   -1.7614   -0.7297 H   0  0  0  0  0  0  0  0  0  0  0  0
   -0.4161   -1.4945    1.9504 H   0  0  0  0  0  0  0  0  0  0  0  0
   -1.8320   -1.9301    0.8563 H   0  0  0  0  0  0  0  0  0  0  0  0
   -2.6864   -0.0347    2.1612 H   0  0  0  0  0  0  0  0  0  0  0  0
   -2.6790    1.5961   -0.0164 H   0  0  0  0  0  0  0  0  0  0  0  0
   -0.6911    0.8151   -1.5364 H   0  0  0  0  0  0  0  0  0  0  0  0
   -2.0379   -0.4273   -1.3265 H   0  0  0  0  0  0  0  0  0  0  0  0
  1  2  1  0
  2  3  1  0
  3  4  1  0
  4  5  1  0
  5  6  1  0
  6  7  1  0
  7  8  1  0
  8  9  1  0
  9  4  1  0
  8  6  1  0
  1 10  1  0
  1 11  1  0
  1 12  1  0
  3 13  1  0
  3 14  1  0
  4 15  1  0
  5 16  1  0
  5 17  1  0
  6 18  1  0
  8 19  1  0
  9 20  1  0
  9 21  1  0
M  END
