
     RDKit          3D

 19 20  0  0  0  0  0  0  0  0999 V2000
    2.8946    0.2536    0.5433 C   0  0  0  0  0  0  0  0  0  0  0  0
    1.5189    0.0198    0.7745 O   0  0  0  0  0  0  0  0  0  0  0  0
    0.8354    0.0296   -0.4404 C   0  0  0  0  0  0  0  0  0  0  0  0
   -0.5203   -0.1908   -0.3183 C   0  0  0  0  0  0  0  0  0  0  0  0
   -1.2101   -1.3592    0.2704 C   0  0  0  0  0  0  0  0  0  0  0  0
   -2.2659   -0.4221   -0.2293 C   0  0  0  0  0  0  0  0  0  0  0  0
   -1.4508   -0.2382   -1.3423 O   0  0  0  0  0  0  0  0  0  0  0  0
   -1.5019    0.6876    0.4081 C   0  0  0  0  0  0  0  0  0  0  0  0
   -1.7406    1.9070   -0.2252 O   0  0  0  0  0  0  0  0  0  0  0  0
    3.0205    1.2352    0.0565 H   0  0  0  0  0  0  0  0  0  0  0  0
    3.2384   -0.5981   -0.0815 H   0  0  0  0  0  0  0  0  0  0  0  0
    3.3887    0.2629    1.5431 H   0  0  0  0  0  0  0  0  0  0  0  0
    1.0712    1.0380   -0.8936 H   0  0  0  0  0  0  0  0  0  0  0  0
    1.3481   -0.6936   -1.1079 H   0  0  0  0  0  0  0  0  0  0  0  0
   -1.1580   -2.2699   -0.3538 H   0  0  0  0  0  0  0  0  0  0  0  0
   -1.1445   -1.5252    1.3449 H   0  0  0  0  0  0  0  0  0  0  0  0
   -3.2639   -0.5705   -0.2333 H   0  0  0  0  0  0  0  0  0  0  0  0
   -1.4416    0.7058    1.4950 H   0  0  0  0  0  0  0  0  0  0  0  0
   -1.6183    1.7281   -1.2100 H   0  0  0  0  0  0  0  0  0  0  0  0
  1  2  1  0
  2  3  1  0
  3  4  1  0
  4  5  1  0
  5  6  1  0
  6  7  1  0
  6  8  1  0
  8  9  1  0
  7  4  1  0
  8  4  1  0
  1 10  1  0
  1 11  1  0
  1 12  1  0
  3 13  1  0
  3 14  1  0
  5 15  1  0
  5 16  1  0
  6 17  1  0
  8 18  1  0
  9 19  1  0
M  END
