
     RDKit          3D

 25 25  0  0  0  0  0  0  0  0999 V2000
    2.9247    1.1796    0.9311 C   0  0  0  0  0  0  0  0  0  0  0  0
    1.5957    0.7832    0.8462 O   0  0  0  0  0  0  0  0  0  0  0  0
    1.5062   -0.3644    0.0826 C   0  0  0  0  0  0  0  0  0  0  0  0
    0.0855   -0.8475   -0.0484 C   0  0  0  0  0  0  0  0  0  0  0  0
    0.0882   -2.1027   -0.8942 C   0  0  0  0  0  0  0  0  0  0  0  0
   -0.7783    0.2245   -0.6033 C   0  0  0  0  0  0  0  0  0  0  0  0
   -0.9084    1.5329    0.1895 C   0  0  0  0  0  0  0  0  0  0  0  0
   -2.0810    0.6268   -0.0600 C   0  0  0  0  0  0  0  0  0  0  0  0
   -2.7187   -0.0537    1.1173 C   0  0  0  0  0  0  0  0  0  0  0  0
    3.5182    0.3825    1.3992 H   0  0  0  0  0  0  0  0  0  0  0  0
    3.2920    1.4278   -0.1012 H   0  0  0  0  0  0  0  0  0  0  0  0
    3.0097    2.1307    1.5138 H   0  0  0  0  0  0  0  0  0  0  0  0
    2.1443   -1.1303    0.6185 H   0  0  0  0  0  0  0  0  0  0  0  0
    1.9604   -0.2286   -0.9231 H   0  0  0  0  0  0  0  0  0  0  0  0
   -0.2916   -1.1449    0.9511 H   0  0  0  0  0  0  0  0  0  0  0  0
    1.1275   -2.4222   -1.1327 H   0  0  0  0  0  0  0  0  0  0  0  0
   -0.4021   -2.9581   -0.3845 H   0  0  0  0  0  0  0  0  0  0  0  0
   -0.4459   -1.9586   -1.8576 H   0  0  0  0  0  0  0  0  0  0  0  0
   -0.6079    0.4054   -1.6962 H   0  0  0  0  0  0  0  0  0  0  0  0
   -0.8647    2.4923   -0.3772 H   0  0  0  0  0  0  0  0  0  0  0  0
   -0.5056    1.5907    1.2175 H   0  0  0  0  0  0  0  0  0  0  0  0
   -2.8350    1.0325   -0.7857 H   0  0  0  0  0  0  0  0  0  0  0  0
   -3.3983    0.7116    1.5936 H   0  0  0  0  0  0  0  0  0  0  0  0
   -3.4147   -0.8449    0.7266 H   0  0  0  0  0  0  0  0  0  0  0  0
   -2.0002   -0.4646    1.8333 H   0  0  0  0  0  0  0  0  0  0  0  0
  1  2  1  0
  2  3  1  0
  3  4  1  0
  4  5  1  0
  4  6  1  0
  6  7  1  0
  7  8  1  0
  8  9  1  0
  8  6  1  0
  1 10  1  0
  1 11  1  0
  1 12  1  0
  3 13  1  0
  3 14  1  0
  4 15  1  0
  5 16  1  0
  5 17  1  0
  5 18  1  0
  6 19  1  0
  7 20  1  0
  7 21  1  0
  8 22  1  0
  9 23  1  0
  9 24  1  0
  9 25  1  0
M  END
