
     RDKit          3D

 21 21  0  0  0  0  0  0  0  0999 V2000
    3.1613    0.0889   -0.4666 C   0  0  0  0  0  0  0  0  0  0  0  0
    1.8368   -0.1721   -0.8700 O   0  0  0  0  0  0  0  0  0  0  0  0
    1.0548   -0.0615    0.2694 C   0  0  0  0  0  0  0  0  0  0  0  0
   -0.4057   -0.3159   -0.0009 C   0  0  0  0  0  0  0  0  0  0  0  0
   -0.6453   -1.7200   -0.5145 C   0  0  0  0  0  0  0  0  0  0  0  0
   -0.9058    0.5701   -0.9086 O   0  0  0  0  0  0  0  0  0  0  0  0
   -1.9926    1.2164   -0.3692 C   0  0  0  0  0  0  0  0  0  0  0  0
   -2.0533    0.7674    1.0543 C   0  0  0  0  0  0  0  0  0  0  0  0
   -1.0887   -0.1898    1.1867 O   0  0  0  0  0  0  0  0  0  0  0  0
    3.4200   -0.6732    0.2955 H   0  0  0  0  0  0  0  0  0  0  0  0
    3.1869    1.0755    0.0312 H   0  0  0  0  0  0  0  0  0  0  0  0
    3.8670    0.0529   -1.3167 H   0  0  0  0  0  0  0  0  0  0  0  0
    1.1322    1.0041    0.6031 H   0  0  0  0  0  0  0  0  0  0  0  0
    1.4332   -0.7452    1.0506 H   0  0  0  0  0  0  0  0  0  0  0  0
   -0.5151   -2.4285    0.3287 H   0  0  0  0  0  0  0  0  0  0  0  0
   -1.7366   -1.7680   -0.7786 H   0  0  0  0  0  0  0  0  0  0  0  0
   -0.0765   -1.9650   -1.4086 H   0  0  0  0  0  0  0  0  0  0  0  0
   -1.8702    2.3201   -0.4358 H   0  0  0  0  0  0  0  0  0  0  0  0
   -2.9564    0.9735   -0.8478 H   0  0  0  0  0  0  0  0  0  0  0  0
   -1.8127    1.6058    1.7334 H   0  0  0  0  0  0  0  0  0  0  0  0
   -3.0333    0.3643    1.3644 H   0  0  0  0  0  0  0  0  0  0  0  0
  1  2  1  0
  2  3  1  0
  3  4  1  0
  4  5  1  0
  4  6  1  0
  6  7  1  0
  7  8  1  0
  8  9  1  0
  9  4  1  0
  1 10  1  0
  1 11  1  0
  1 12  1  0
  3 13  1  0
  3 14  1  0
  5 15  1  0
  5 16  1  0
  5 17  1  0
  7 18  1  0
  7 19  1  0
  8 20  1  0
  8 21  1  0
M  END
