
     RDKit          3D

 24 23  0  0  0  0  0  0  0  0999 V2000
    3.1012    0.4567   -0.3831 C   0  0  0  0  0  0  0  0  0  0  0  0
    1.8294   -0.1175   -0.5448 O   0  0  0  0  0  0  0  0  0  0  0  0
    1.3144   -0.3266    0.7103 C   0  0  0  0  0  0  0  0  0  0  0  0
   -0.0520   -0.9404    0.7185 C   0  0  0  0  0  0  0  0  0  0  0  0
   -1.0798   -0.1072    0.0139 C   0  0  0  0  0  0  0  0  0  0  0  0
   -0.7768    0.1410   -1.4240 C   0  0  0  0  0  0  0  0  0  0  0  0
   -1.2173    1.2261    0.7084 C   0  0  0  0  0  0  0  0  0  0  0  0
   -2.3974   -0.8872    0.0761 C   0  0  0  0  0  0  0  0  0  0  0  0
    3.0778    1.4075    0.1499 H   0  0  0  0  0  0  0  0  0  0  0  0
    3.7535   -0.2422    0.2161 H   0  0  0  0  0  0  0  0  0  0  0  0
    3.5876    0.6095   -1.3566 H   0  0  0  0  0  0  0  0  0  0  0  0
    1.3476    0.6105    1.2796 H   0  0  0  0  0  0  0  0  0  0  0  0
    1.9969   -1.0446    1.2316 H   0  0  0  0  0  0  0  0  0  0  0  0
   -0.0173   -1.9764    0.3483 H   0  0  0  0  0  0  0  0  0  0  0  0
   -0.3702   -1.0057    1.7925 H   0  0  0  0  0  0  0  0  0  0  0  0
   -1.7572    0.3912   -1.9267 H   0  0  0  0  0  0  0  0  0  0  0  0
   -0.3837   -0.7289   -1.9680 H   0  0  0  0  0  0  0  0  0  0  0  0
   -0.1467    1.0516   -1.5946 H   0  0  0  0  0  0  0  0  0  0  0  0
   -0.6528    1.2911    1.6465 H   0  0  0  0  0  0  0  0  0  0  0  0
   -2.3058    1.4557    0.8998 H   0  0  0  0  0  0  0  0  0  0  0  0
   -0.8826    2.0659    0.0386 H   0  0  0  0  0  0  0  0  0  0  0  0
   -2.1960   -1.8566   -0.4364 H   0  0  0  0  0  0  0  0  0  0  0  0
   -2.5411   -1.1457    1.1499 H   0  0  0  0  0  0  0  0  0  0  0  0
   -3.2316   -0.3279   -0.3547 H   0  0  0  0  0  0  0  0  0  0  0  0
  1  2  1  0
  2  3  1  0
  3  4  1  0
  4  5  1  0
  5  6  1  0
  5  7  1  0
  5  8  1  0
  1  9  1  0
  1 10  1  0
  1 11  1  0
  3 12  1  0
  3 13  1  0
  4 14  1  0
  4 15  1  0
  6 16  1  0
  6 17  1  0
  6 18  1  0
  7 19  1  0
  7 20  1  0
  7 21  1  0
  8 22  1  0
  8 23  1  0
  8 24  1  0
M  END
