
     RDKit          3D

 23 23  0  0  0  0  0  0  0  0999 V2000
    3.0518   -0.3165    0.3722 C   0  0  0  0  0  0  0  0  0  0  0  0
    1.9420    0.3031   -0.1831 O   0  0  0  0  0  0  0  0  0  0  0  0
    0.7426   -0.2880    0.2374 C   0  0  0  0  0  0  0  0  0  0  0  0
   -0.3949    0.4567   -0.4206 C   0  0  0  0  0  0  0  0  0  0  0  0
   -0.4525    1.8116   -0.1070 O   0  0  0  0  0  0  0  0  0  0  0  0
   -0.6079    2.0215    1.2449 C   0  0  0  0  0  0  0  0  0  0  0  0
   -0.6764    0.0263   -1.8445 C   0  0  0  0  0  0  0  0  0  0  0  0
   -1.6717   -0.2074   -0.7456 C   0  0  0  0  0  0  0  0  0  0  0  0
   -1.9677   -1.6111   -0.2785 C   0  0  0  0  0  0  0  0  0  0  0  0
    3.0479   -0.2720    1.4883 H   0  0  0  0  0  0  0  0  0  0  0  0
    3.2061   -1.3471    0.0215 H   0  0  0  0  0  0  0  0  0  0  0  0
    3.9369    0.2737    0.0558 H   0  0  0  0  0  0  0  0  0  0  0  0
    0.6750   -0.3096    1.3367 H   0  0  0  0  0  0  0  0  0  0  0  0
    0.7974   -1.3468   -0.0938 H   0  0  0  0  0  0  0  0  0  0  0  0
    0.2120    1.6048    1.8654 H   0  0  0  0  0  0  0  0  0  0  0  0
   -0.6368    3.1187    1.4165 H   0  0  0  0  0  0  0  0  0  0  0  0
   -1.5455    1.5603    1.6456 H   0  0  0  0  0  0  0  0  0  0  0  0
   -0.1338   -0.8461   -2.2651 H   0  0  0  0  0  0  0  0  0  0  0  0
   -0.8222    0.8438   -2.5750 H   0  0  0  0  0  0  0  0  0  0  0  0
   -2.5766    0.4333   -0.8042 H   0  0  0  0  0  0  0  0  0  0  0  0
   -3.0209   -1.7209    0.0875 H   0  0  0  0  0  0  0  0  0  0  0  0
   -1.2938   -1.8124    0.5826 H   0  0  0  0  0  0  0  0  0  0  0  0
   -1.8112   -2.3758   -1.0368 H   0  0  0  0  0  0  0  0  0  0  0  0
  1  2  1  0
  2  3  1  0
  3  4  1  0
  4  5  1  0
  5  6  1  0
  4  7  1  0
  7  8  1  0
  8  9  1  0
  8  4  1  0
  1 10  1  0
  1 11  1  0
  1 12  1  0
  3 13  1  0
  3 14  1  0
  6 15  1  0
  6 16  1  0
  6 17  1  0
  7 18  1  0
  7 19  1  0
  8 20  1  0
  9 21  1  0
  9 22  1  0
  9 23  1  0
M  END
