
     RDKit          3D

 19 20  0  0  0  0  0  0  0  0999 V2000
    2.8811   -0.5644   -0.4401 C   0  0  0  0  0  0  0  0  0  0  0  0
    1.5503   -0.2443   -0.7526 O   0  0  0  0  0  0  0  0  0  0  0  0
    0.9410    0.2418    0.3972 C   0  0  0  0  0  0  0  0  0  0  0  0
   -0.4686    0.6277    0.2444 C   0  0  0  0  0  0  0  0  0  0  0  0
   -1.4211    0.2654    1.4291 C   0  0  0  0  0  0  0  0  0  0  0  0
   -1.5929   -0.2722    0.0644 C   0  0  0  0  0  0  0  0  0  0  0  0
   -1.5006   -1.6031   -0.2350 O   0  0  0  0  0  0  0  0  0  0  0  0
   -1.9612    0.7409   -0.9950 C   0  0  0  0  0  0  0  0  0  0  0  0
   -0.9109    1.5899   -0.6195 O   0  0  0  0  0  0  0  0  0  0  0  0
    3.4196   -0.9587   -1.3219 H   0  0  0  0  0  0  0  0  0  0  0  0
    2.8737   -1.3103    0.4051 H   0  0  0  0  0  0  0  0  0  0  0  0
    3.3967    0.3288   -0.0220 H   0  0  0  0  0  0  0  0  0  0  0  0
    1.0318   -0.5181    1.1954 H   0  0  0  0  0  0  0  0  0  0  0  0
    1.5274    1.1219    0.7402 H   0  0  0  0  0  0  0  0  0  0  0  0
   -2.0150    1.1423    1.7286 H   0  0  0  0  0  0  0  0  0  0  0  0
   -0.9655   -0.4009    2.1810 H   0  0  0  0  0  0  0  0  0  0  0  0
   -1.9989   -1.7429   -1.1023 H   0  0  0  0  0  0  0  0  0  0  0  0
   -1.8265    0.3882   -2.0357 H   0  0  0  0  0  0  0  0  0  0  0  0
   -2.9606    1.1681   -0.8613 H   0  0  0  0  0  0  0  0  0  0  0  0
  1  2  1  0
  2  3  1  0
  3  4  1  0
  4  5  1  0
  5  6  1  0
  6  7  1  0
  6  8  1  0
  8  9  1  0
  6  4  1  0
  9  4  1  0
  1 10  1  0
  1 11  1  0
  1 12  1  0
  3 13  1  0
  3 14  1  0
  5 15  1  0
  5 16  1  0
  7 17  1  0
  8 18  1  0
  8 19  1  0
M  END
