
     RDKit          3D

 23 23  0  0  0  0  0  0  0  0999 V2000
    3.0769    0.6363   -0.3434 C   0  0  0  0  0  0  0  0  0  0  0  0
    1.6823    0.5593   -0.4624 O   0  0  0  0  0  0  0  0  0  0  0  0
    1.2614   -0.4092    0.4392 C   0  0  0  0  0  0  0  0  0  0  0  0
   -0.2446   -0.5915    0.4088 C   0  0  0  0  0  0  0  0  0  0  0  0
   -0.7215   -1.0155   -0.9552 C   0  0  0  0  0  0  0  0  0  0  0  0
   -0.0703   -2.2427   -1.2276 O   0  0  0  0  0  0  0  0  0  0  0  0
   -0.9573    0.6414    0.9146 C   0  0  0  0  0  0  0  0  0  0  0  0
   -2.4969    0.5527    0.9263 C   0  0  0  0  0  0  0  0  0  0  0  0
   -1.7662    1.4614   -0.0273 C   0  0  0  0  0  0  0  0  0  0  0  0
    3.2847    0.9228    0.7158 H   0  0  0  0  0  0  0  0  0  0  0  0
    3.4487   -0.4273   -0.4230 H   0  0  0  0  0  0  0  0  0  0  0  0
    3.5378    1.2922   -1.0809 H   0  0  0  0  0  0  0  0  0  0  0  0
    1.7035   -1.3954    0.1814 H   0  0  0  0  0  0  0  0  0  0  0  0
    1.5271   -0.0628    1.4555 H   0  0  0  0  0  0  0  0  0  0  0  0
   -0.4623   -1.4275    1.1042 H   0  0  0  0  0  0  0  0  0  0  0  0
   -0.4969   -0.2715   -1.7414 H   0  0  0  0  0  0  0  0  0  0  0  0
   -1.7845   -1.2652   -0.8980 H   0  0  0  0  0  0  0  0  0  0  0  0
   -0.3637   -2.6038   -2.1016 H   0  0  0  0  0  0  0  0  0  0  0  0
   -0.5006    1.1878    1.7606 H   0  0  0  0  0  0  0  0  0  0  0  0
   -2.9645   -0.3343    0.4591 H   0  0  0  0  0  0  0  0  0  0  0  0
   -3.0105    0.9977    1.8036 H   0  0  0  0  0  0  0  0  0  0  0  0
   -1.9106    2.5450    0.1969 H   0  0  0  0  0  0  0  0  0  0  0  0
   -1.7722    1.2501   -1.1053 H   0  0  0  0  0  0  0  0  0  0  0  0
  1  2  1  0
  2  3  1  0
  3  4  1  0
  4  5  1  0
  5  6  1  0
  4  7  1  0
  7  8  1  0
  8  9  1  0
  9  7  1  0
  1 10  1  0
  1 11  1  0
  1 12  1  0
  3 13  1  0
  3 14  1  0
  4 15  1  0
  5 16  1  0
  5 17  1  0
  6 18  1  0
  7 19  1  0
  8 20  1  0
  8 21  1  0
  9 22  1  0
  9 23  1  0
M  END
