
     RDKit          3D

 23 23  0  0  0  0  0  0  0  0999 V2000
    3.4603   -0.6452   -0.2184 C   0  0  0  0  0  0  0  0  0  0  0  0
    2.1761   -0.6889   -0.7513 O   0  0  0  0  0  0  0  0  0  0  0  0
    1.4090    0.2316   -0.0609 C   0  0  0  0  0  0  0  0  0  0  0  0
   -0.0234    0.2617   -0.5712 C   0  0  0  0  0  0  0  0  0  0  0  0
   -0.6609   -1.1017   -0.4051 C   0  0  0  0  0  0  0  0  0  0  0  0
   -1.9249   -0.8920    0.3997 C   0  0  0  0  0  0  0  0  0  0  0  0
   -2.2322    0.5594    0.1165 C   0  0  0  0  0  0  0  0  0  0  0  0
   -3.1760    1.0928    0.9429 O   0  0  0  0  0  0  0  0  0  0  0  0
   -0.8451    1.1673    0.3130 C   0  0  0  0  0  0  0  0  0  0  0  0
    4.1340   -1.3669   -0.7325 H   0  0  0  0  0  0  0  0  0  0  0  0
    3.4373   -0.7999    0.8819 H   0  0  0  0  0  0  0  0  0  0  0  0
    3.9367    0.3608   -0.3793 H   0  0  0  0  0  0  0  0  0  0  0  0
    1.8742    1.2101   -0.1262 H   0  0  0  0  0  0  0  0  0  0  0  0
    1.3371   -0.1288    1.0008 H   0  0  0  0  0  0  0  0  0  0  0  0
   -0.0854    0.6380   -1.6114 H   0  0  0  0  0  0  0  0  0  0  0  0
    0.0222   -1.8223    0.0955 H   0  0  0  0  0  0  0  0  0  0  0  0
   -0.9799   -1.4726   -1.4149 H   0  0  0  0  0  0  0  0  0  0  0  0
   -1.7007   -1.0290    1.4951 H   0  0  0  0  0  0  0  0  0  0  0  0
   -2.7476   -1.5698    0.0846 H   0  0  0  0  0  0  0  0  0  0  0  0
   -2.4550    0.6529   -0.9658 H   0  0  0  0  0  0  0  0  0  0  0  0
   -3.5691    1.8940    0.5243 H   0  0  0  0  0  0  0  0  0  0  0  0
   -0.5609    0.9869    1.3658 H   0  0  0  0  0  0  0  0  0  0  0  0
   -0.8257    2.2145    0.0169 H   0  0  0  0  0  0  0  0  0  0  0  0
  1  2  1  0
  2  3  1  0
  3  4  1  0
  4  5  1  0
  5  6  1  0
  6  7  1  0
  7  8  1  0
  7  9  1  0
  9  4  1  0
  1 10  1  0
  1 11  1  0
  1 12  1  0
  3 13  1  0
  3 14  1  0
  4 15  1  0
  5 16  1  0
  5 17  1  0
  6 18  1  0
  6 19  1  0
  7 20  1  0
  8 21  1  0
  9 22  1  0
  9 23  1  0
M  END
