
     RDKit          3D

 21 21  0  0  0  0  0  0  0  0999 V2000
    3.3354   -0.0432   -0.5261 C   0  0  0  0  0  0  0  0  0  0  0  0
    2.0690    0.5332   -0.5202 O   0  0  0  0  0  0  0  0  0  0  0  0
    1.2342   -0.3254    0.1882 C   0  0  0  0  0  0  0  0  0  0  0  0
   -0.1723    0.1683    0.2780 C   0  0  0  0  0  0  0  0  0  0  0  0
   -0.2990    1.4140    0.9159 O   0  0  0  0  0  0  0  0  0  0  0  0
   -1.1660   -0.9272    0.6949 C   0  0  0  0  0  0  0  0  0  0  0  0
   -1.2462   -0.2662   -0.6209 C   0  0  0  0  0  0  0  0  0  0  0  0
   -2.3911    0.7272   -0.8391 C   0  0  0  0  0  0  0  0  0  0  0  0
   -2.9748    0.9799    0.4020 O   0  0  0  0  0  0  0  0  0  0  0  0
    4.0112    0.6130   -1.0775 H   0  0  0  0  0  0  0  0  0  0  0  0
    3.3146   -1.0791   -0.9625 H   0  0  0  0  0  0  0  0  0  0  0  0
    3.7310   -0.1607    0.4950 H   0  0  0  0  0  0  0  0  0  0  0  0
    1.6301   -0.3183    1.2475 H   0  0  0  0  0  0  0  0  0  0  0  0
    1.3214   -1.3724   -0.1430 H   0  0  0  0  0  0  0  0  0  0  0  0
   -0.0693    1.2352    1.8742 H   0  0  0  0  0  0  0  0  0  0  0  0
   -1.7983   -0.6557    1.5514 H   0  0  0  0  0  0  0  0  0  0  0  0
   -0.8302   -1.9697    0.6987 H   0  0  0  0  0  0  0  0  0  0  0  0
   -0.9996   -0.8491   -1.5216 H   0  0  0  0  0  0  0  0  0  0  0  0
   -3.1851    0.2659   -1.4676 H   0  0  0  0  0  0  0  0  0  0  0  0
   -2.0353    1.6485   -1.3340 H   0  0  0  0  0  0  0  0  0  0  0  0
   -3.4797    0.1602    0.6668 H   0  0  0  0  0  0  0  0  0  0  0  0
  1  2  1  0
  2  3  1  0
  3  4  1  0
  4  5  1  0
  4  6  1  0
  6  7  1  0
  7  8  1  0
  8  9  1  0
  7  4  1  0
  1 10  1  0
  1 11  1  0
  1 12  1  0
  3 13  1  0
  3 14  1  0
  5 15  1  0
  6 16  1  0
  6 17  1  0
  7 18  1  0
  8 19  1  0
  8 20  1  0
  9 21  1  0
M  END
