
     RDKit          3D

 23 24  0  0  0  0  0  0  0  0999 V2000
   -3.5382    0.3947    0.2508 C   0  0  0  0  0  0  0  0  0  0  0  0
   -2.1769    0.6522    0.2540 O   0  0  0  0  0  0  0  0  0  0  0  0
   -1.4433   -0.5327    0.0071 C   0  0  0  0  0  0  0  0  0  0  0  0
   -0.0919   -0.2976    0.0063 C   0  0  0  0  0  0  0  0  0  0  0  0
    0.7241    0.2477    1.1490 C   0  0  0  0  0  0  0  0  0  0  0  0
    1.7134    0.0963    0.0186 C   0  0  0  0  0  0  0  0  0  0  0  0
    3.0517    0.3663    0.0315 C   0  0  0  0  0  0  0  0  0  0  0  0
    1.0332   -1.2236   -0.2496 C   0  0  0  0  0  0  0  0  0  0  0  0
    0.6446    0.7014   -0.8495 C   0  0  0  0  0  0  0  0  0  0  0  0
   -3.7210   -0.3588    1.0683 H   0  0  0  0  0  0  0  0  0  0  0  0
   -4.0519    1.3459    0.4647 H   0  0  0  0  0  0  0  0  0  0  0  0
   -3.8137    0.0133   -0.7410 H   0  0  0  0  0  0  0  0  0  0  0  0
   -1.7513   -1.2094    0.8555 H   0  0  0  0  0  0  0  0  0  0  0  0
   -1.8289   -1.0042   -0.8972 H   0  0  0  0  0  0  0  0  0  0  0  0
    0.8968   -0.4593    1.9837 H   0  0  0  0  0  0  0  0  0  0  0  0
    0.4859    1.2832    1.4215 H   0  0  0  0  0  0  0  0  0  0  0  0
    3.6994   -0.5275    0.2311 H   0  0  0  0  0  0  0  0  0  0  0  0
    3.3619    1.1021    0.8301 H   0  0  0  0  0  0  0  0  0  0  0  0
    3.4425    0.8209   -0.9143 H   0  0  0  0  0  0  0  0  0  0  0  0
    1.2247   -2.0232    0.4699 H   0  0  0  0  0  0  0  0  0  0  0  0
    1.0815   -1.5801   -1.2911 H   0  0  0  0  0  0  0  0  0  0  0  0
    0.3659    1.7462   -0.6164 H   0  0  0  0  0  0  0  0  0  0  0  0
    0.6915    0.4459   -1.9194 H   0  0  0  0  0  0  0  0  0  0  0  0
  1  2  1  0
  2  3  1  0
  3  4  1  0
  4  5  1  0
  5  6  1  0
  6  7  1  0
  6  8  1  0
  6  9  1  0
  8  4  1  0
  9  4  1  0
  1 10  1  0
  1 11  1  0
  1 12  1  0
  3 13  1  0
  3 14  1  0
  5 15  1  0
  5 16  1  0
  7 17  1  0
  7 18  1  0
  7 19  1  0
  8 20  1  0
  8 21  1  0
  9 22  1  0
  9 23  1  0
M  END
