
     RDKit          3D

 19 18  0  0  0  0  0  0  0  0999 V2000
   -2.7319    0.9340   -1.0441 C   0  0  0  0  0  0  0  0  0  0  0  0
   -1.4387    0.3892   -1.1229 O   0  0  0  0  0  0  0  0  0  0  0  0
   -1.3046   -0.4821   -0.0443 C   0  0  0  0  0  0  0  0  0  0  0  0
    0.0611   -1.1305   -0.0296 C   0  0  0  0  0  0  0  0  0  0  0  0
    0.1320   -1.9770    1.0551 O   0  0  0  0  0  0  0  0  0  0  0  0
    1.1535   -0.1364   -0.0490 C   0  0  0  0  0  0  0  0  0  0  0  0
    1.1736    0.6836   -1.0046 O   0  0  0  0  0  0  0  0  0  0  0  0
    2.1476   -0.0527    0.9117 O   0  0  0  0  0  0  0  0  0  0  0  0
    3.1706    0.9275    0.8348 C   0  0  0  0  0  0  0  0  0  0  0  0
   -3.4664    0.1028   -1.1023 H   0  0  0  0  0  0  0  0  0  0  0  0
   -2.9342    1.6117   -1.9087 H   0  0  0  0  0  0  0  0  0  0  0  0
   -2.8973    1.4611   -0.0776 H   0  0  0  0  0  0  0  0  0  0  0  0
   -2.0505   -1.2845   -0.1567 H   0  0  0  0  0  0  0  0  0  0  0  0
   -1.5301    0.0629    0.8861 H   0  0  0  0  0  0  0  0  0  0  0  0
    0.1416   -1.7200   -0.9655 H   0  0  0  0  0  0  0  0  0  0  0  0
    0.1111   -2.9109    0.7587 H   0  0  0  0  0  0  0  0  0  0  0  0
    4.0959    0.5067    1.2492 H   0  0  0  0  0  0  0  0  0  0  0  0
    2.8428    1.8511    1.3540 H   0  0  0  0  0  0  0  0  0  0  0  0
    3.3239    1.1635   -0.2372 H   0  0  0  0  0  0  0  0  0  0  0  0
  1  2  1  0
  2  3  1  0
  3  4  1  0
  4  5  1  0
  4  6  1  0
  6  7  2  0
  6  8  1  0
  8  9  1  0
  1 10  1  0
  1 11  1  0
  1 12  1  0
  3 13  1  0
  3 14  1  0
  4 15  1  0
  5 16  1  0
  9 17  1  0
  9 18  1  0
  9 19  1  0
M  END
