
     RDKit          3D

 19 18  0  0  0  0  0  0  0  0999 V2000
    3.1383    0.1868    0.4214 C   0  0  0  0  0  0  0  0  0  0  0  0
    2.0546   -0.5728    0.0132 O   0  0  0  0  0  0  0  0  0  0  0  0
    0.8593    0.1433    0.0728 C   0  0  0  0  0  0  0  0  0  0  0  0
   -0.2612   -0.7599   -0.3879 C   0  0  0  0  0  0  0  0  0  0  0  0
   -1.5984   -0.0843   -0.3623 C   0  0  0  0  0  0  0  0  0  0  0  0
   -2.0202    0.3984    0.9781 C   0  0  0  0  0  0  0  0  0  0  0  0
   -2.5273   -0.9863   -0.9025 O   0  0  0  0  0  0  0  0  0  0  0  0
    4.0366   -0.4590    0.3412 H   0  0  0  0  0  0  0  0  0  0  0  0
    2.9642    0.5635    1.4300 H   0  0  0  0  0  0  0  0  0  0  0  0
    3.2926    1.0740   -0.2584 H   0  0  0  0  0  0  0  0  0  0  0  0
    0.9124    1.0784   -0.4810 H   0  0  0  0  0  0  0  0  0  0  0  0
    0.6755    0.3396    1.1570 H   0  0  0  0  0  0  0  0  0  0  0  0
   -0.0415   -1.0016   -1.4616 H   0  0  0  0  0  0  0  0  0  0  0  0
   -0.2254   -1.7106    0.1580 H   0  0  0  0  0  0  0  0  0  0  0  0
   -1.5510    0.7697   -1.0720 H   0  0  0  0  0  0  0  0  0  0  0  0
   -2.9636   -0.1352    1.2669 H   0  0  0  0  0  0  0  0  0  0  0  0
   -2.2085    1.4911    0.9601 H   0  0  0  0  0  0  0  0  0  0  0  0
   -1.2982    0.1953    1.7912 H   0  0  0  0  0  0  0  0  0  0  0  0
   -3.2381   -0.5303   -1.4040 H   0  0  0  0  0  0  0  0  0  0  0  0
  1  2  1  0
  2  3  1  0
  3  4  1  0
  4  5  1  0
  5  6  1  0
  5  7  1  0
  1  8  1  0
  1  9  1  0
  1 10  1  0
  3 11  1  0
  3 12  1  0
  4 13  1  0
  4 14  1  0
  5 15  1  0
  6 16  1  0
  6 17  1  0
  6 18  1  0
  7 19  1  0
M  END
