
     RDKit          3D

 21 20  0  0  0  0  0  0  0  0999 V2000
    3.7889    1.4707   -0.6737 C   0  0  0  0  0  0  0  0  0  0  0  0
    3.2619    0.2375   -0.3463 O   0  0  0  0  0  0  0  0  0  0  0  0
    1.8704    0.2544   -0.2603 C   0  0  0  0  0  0  0  0  0  0  0  0
    1.3899   -1.1315    0.1002 C   0  0  0  0  0  0  0  0  0  0  0  0
   -0.0707   -1.1575    0.2008 C   0  0  0  0  0  0  0  0  0  0  0  0
   -1.2738   -1.1639    0.2985 C   0  0  0  0  0  0  0  0  0  0  0  0
   -2.7335   -1.1583    0.4162 C   0  0  0  0  0  0  0  0  0  0  0  0
   -3.2933    0.2369    0.1431 C   0  0  0  0  0  0  0  0  0  0  0  0
   -4.6615    0.2688    0.2473 O   0  0  0  0  0  0  0  0  0  0  0  0
    3.4259    1.8459   -1.6506 H   0  0  0  0  0  0  0  0  0  0  0  0
    3.6022    2.2516    0.0793 H   0  0  0  0  0  0  0  0  0  0  0  0
    4.8947    1.3453   -0.7250 H   0  0  0  0  0  0  0  0  0  0  0  0
    1.6132    1.0054    0.5110 H   0  0  0  0  0  0  0  0  0  0  0  0
    1.4944    0.5888   -1.2491 H   0  0  0  0  0  0  0  0  0  0  0  0
    1.8695   -1.3802    1.0817 H   0  0  0  0  0  0  0  0  0  0  0  0
    1.7721   -1.8434   -0.6375 H   0  0  0  0  0  0  0  0  0  0  0  0
   -3.1209   -1.8960   -0.2875 H   0  0  0  0  0  0  0  0  0  0  0  0
   -3.0465   -1.4168    1.4474 H   0  0  0  0  0  0  0  0  0  0  0  0
   -2.9909    0.6052   -0.8365 H   0  0  0  0  0  0  0  0  0  0  0  0
   -2.8717    0.8818    0.9521 H   0  0  0  0  0  0  0  0  0  0  0  0
   -4.9203    0.1553    1.1890 H   0  0  0  0  0  0  0  0  0  0  0  0
  1  2  1  0
  2  3  1  0
  3  4  1  0
  4  5  1  0
  5  6  3  0
  6  7  1  0
  7  8  1  0
  8  9  1  0
  1 10  1  0
  1 11  1  0
  1 12  1  0
  3 13  1  0
  3 14  1  0
  4 15  1  0
  4 16  1  0
  7 17  1  0
  7 18  1  0
  8 19  1  0
  8 20  1  0
  9 21  1  0
M  END
