
     RDKit          3D

 23 22  0  0  0  0  0  0  0  0999 V2000
    2.6945    1.2908   -0.4722 C   0  0  0  0  0  0  0  0  0  0  0  0
    1.6197    0.4518   -0.6457 O   0  0  0  0  0  0  0  0  0  0  0  0
    1.4629   -0.4206    0.3922 C   0  0  0  0  0  0  0  0  0  0  0  0
    0.3396   -1.3756    0.3217 C   0  0  0  0  0  0  0  0  0  0  0  0
    0.4209   -2.1915   -0.8197 O   0  0  0  0  0  0  0  0  0  0  0  0
   -1.0334   -0.8543    0.5026 C   0  0  0  0  0  0  0  0  0  0  0  0
   -1.4792    0.1776   -0.4813 C   0  0  0  0  0  0  0  0  0  0  0  0
   -2.9248    0.5954   -0.1545 C   0  0  0  0  0  0  0  0  0  0  0  0
   -0.7650    1.3897   -0.3150 O   0  0  0  0  0  0  0  0  0  0  0  0
    2.7677    1.9653   -1.3357 H   0  0  0  0  0  0  0  0  0  0  0  0
    2.6220    1.9176    0.4574 H   0  0  0  0  0  0  0  0  0  0  0  0
    3.6744    0.7505   -0.4149 H   0  0  0  0  0  0  0  0  0  0  0  0
    1.4334    0.1632    1.3545 H   0  0  0  0  0  0  0  0  0  0  0  0
    2.4199   -1.0176    0.4639 H   0  0  0  0  0  0  0  0  0  0  0  0
    0.5045   -2.1117    1.1799 H   0  0  0  0  0  0  0  0  0  0  0  0
    1.3874   -2.2545   -1.1064 H   0  0  0  0  0  0  0  0  0  0  0  0
   -1.2241   -0.5316    1.5546 H   0  0  0  0  0  0  0  0  0  0  0  0
   -1.7310   -1.7331    0.3711 H   0  0  0  0  0  0  0  0  0  0  0  0
   -1.3776   -0.2154   -1.4901 H   0  0  0  0  0  0  0  0  0  0  0  0
   -3.2855    1.2344   -0.9619 H   0  0  0  0  0  0  0  0  0  0  0  0
   -3.5560   -0.2730    0.0285 H   0  0  0  0  0  0  0  0  0  0  0  0
   -2.8344    1.1537    0.8162 H   0  0  0  0  0  0  0  0  0  0  0  0
   -1.1359    1.8888    0.4298 H   0  0  0  0  0  0  0  0  0  0  0  0
  1  2  1  0
  2  3  1  0
  3  4  1  0
  4  5  1  0
  4  6  1  0
  6  7  1  0
  7  8  1  0
  7  9  1  0
  1 10  1  0
  1 11  1  0
  1 12  1  0
  3 13  1  0
  3 14  1  0
  4 15  1  0
  5 16  1  0
  6 17  1  0
  6 18  1  0
  7 19  1  0
  8 20  1  0
  8 21  1  0
  8 22  1  0
  9 23  1  0
M  END
