
     RDKit          3D

 22 22  0  0  0  0  0  0  0  0999 V2000
    3.3811   -0.1575    0.9397 C   0  0  0  0  0  0  0  0  0  0  0  0
    2.1009    0.3601    0.9449 O   0  0  0  0  0  0  0  0  0  0  0  0
    1.5037    0.2932   -0.2959 C   0  0  0  0  0  0  0  0  0  0  0  0
    0.1135    0.8497   -0.3123 C   0  0  0  0  0  0  0  0  0  0  0  0
   -0.8298    0.1532    0.6104 C   0  0  0  0  0  0  0  0  0  0  0  0
   -2.2515    0.7546    0.5656 C   0  0  0  0  0  0  0  0  0  0  0  0
   -1.9669   -0.6481    0.1723 C   0  0  0  0  0  0  0  0  0  0  0  0
   -2.1437   -1.1153   -1.2481 C   0  0  0  0  0  0  0  0  0  0  0  0
    3.4277   -1.2153    0.6434 H   0  0  0  0  0  0  0  0  0  0  0  0
    3.9337    0.0765    1.8720 H   0  0  0  0  0  0  0  0  0  0  0  0
    3.9381    0.4010    0.1317 H   0  0  0  0  0  0  0  0  0  0  0  0
    2.1157    0.9533   -0.9777 H   0  0  0  0  0  0  0  0  0  0  0  0
    1.5531   -0.7116   -0.7620 H   0  0  0  0  0  0  0  0  0  0  0  0
    0.0827    1.9330   -0.0843 H   0  0  0  0  0  0  0  0  0  0  0  0
   -0.2462    0.7722   -1.3799 H   0  0  0  0  0  0  0  0  0  0  0  0
   -0.4162    0.0055    1.6494 H   0  0  0  0  0  0  0  0  0  0  0  0
   -2.5014    1.4577   -0.2260 H   0  0  0  0  0  0  0  0  0  0  0  0
   -2.7139    0.9709    1.5703 H   0  0  0  0  0  0  0  0  0  0  0  0
   -2.3406   -1.4099    0.9180 H   0  0  0  0  0  0  0  0  0  0  0  0
   -3.2550   -1.2223   -1.4042 H   0  0  0  0  0  0  0  0  0  0  0  0
   -1.6816   -2.1071   -1.3342 H   0  0  0  0  0  0  0  0  0  0  0  0
   -1.8037   -0.3938   -1.9930 H   0  0  0  0  0  0  0  0  0  0  0  0
  1  2  1  0
  2  3  1  0
  3  4  1  0
  4  5  1  0
  5  6  1  0
  6  7  1  0
  7  8  1  0
  7  5  1  0
  1  9  1  0
  1 10  1  0
  1 11  1  0
  3 12  1  0
  3 13  1  0
  4 14  1  0
  4 15  1  0
  5 16  1  0
  6 17  1  0
  6 18  1  0
  7 19  1  0
  8 20  1  0
  8 21  1  0
  8 22  1  0
M  END
