
     RDKit          3D

 21 22  0  0  0  0  0  0  0  0999 V2000
    3.2194   -0.0541    0.3629 C   0  0  0  0  0  0  0  0  0  0  0  0
    1.8825    0.3182    0.5148 O   0  0  0  0  0  0  0  0  0  0  0  0
    1.0918   -0.4973   -0.2642 C   0  0  0  0  0  0  0  0  0  0  0  0
   -0.3342   -0.2266   -0.2081 C   0  0  0  0  0  0  0  0  0  0  0  0
   -0.9999   -0.0530    1.1400 C   0  0  0  0  0  0  0  0  0  0  0  0
   -2.4492   -0.0242    0.6060 C   0  0  0  0  0  0  0  0  0  0  0  0
   -2.0988    0.0738   -0.8649 C   0  0  0  0  0  0  0  0  0  0  0  0
   -0.8872    0.9636   -0.9686 C   0  0  0  0  0  0  0  0  0  0  0  0
   -1.1965   -1.0122   -0.9687 O   0  0  0  0  0  0  0  0  0  0  0  0
    3.8996    0.5673    0.9659 H   0  0  0  0  0  0  0  0  0  0  0  0
    3.4878    0.1162   -0.7085 H   0  0  0  0  0  0  0  0  0  0  0  0
    3.3890   -1.1075    0.5784 H   0  0  0  0  0  0  0  0  0  0  0  0
    1.4536   -0.3982   -1.3204 H   0  0  0  0  0  0  0  0  0  0  0  0
    1.2799   -1.5699   -0.0025 H   0  0  0  0  0  0  0  0  0  0  0  0
   -0.8375   -0.8821    1.8229 H   0  0  0  0  0  0  0  0  0  0  0  0
   -0.7228    0.9452    1.5516 H   0  0  0  0  0  0  0  0  0  0  0  0
   -3.0016    0.8289    0.9791 H   0  0  0  0  0  0  0  0  0  0  0  0
   -2.8762   -1.0069    0.7800 H   0  0  0  0  0  0  0  0  0  0  0  0
   -2.8764    0.1439   -1.5864 H   0  0  0  0  0  0  0  0  0  0  0  0
   -0.5009    0.9707   -1.9877 H   0  0  0  0  0  0  0  0  0  0  0  0
   -0.9221    1.9042   -0.4217 H   0  0  0  0  0  0  0  0  0  0  0  0
  1  2  1  0
  2  3  1  0
  3  4  1  0
  4  5  1  0
  5  6  1  0
  6  7  1  0
  7  8  1  0
  7  9  1  0
  8  4  1  0
  9  4  1  0
  1 10  1  0
  1 11  1  0
  1 12  1  0
  3 13  1  0
  3 14  1  0
  5 15  1  0
  5 16  1  0
  6 17  1  0
  6 18  1  0
  7 19  1  0
  8 20  1  0
  8 21  1  0
M  END
