
     RDKit          3D

 21 21  0  0  0  0  0  0  0  0999 V2000
    2.7922    0.7653   -0.1227 C   0  0  0  0  0  0  0  0  0  0  0  0
    1.5796    0.5727    0.5057 O   0  0  0  0  0  0  0  0  0  0  0  0
    0.8837   -0.4140   -0.1449 C   0  0  0  0  0  0  0  0  0  0  0  0
   -0.4655   -0.7040    0.4669 C   0  0  0  0  0  0  0  0  0  0  0  0
   -0.4455   -1.1199    1.7719 O   0  0  0  0  0  0  0  0  0  0  0  0
   -1.2448   -1.6278   -0.4785 C   0  0  0  0  0  0  0  0  0  0  0  0
   -1.6120   -0.4812   -1.1809 O   0  0  0  0  0  0  0  0  0  0  0  0
   -1.5836    0.1926    0.0463 C   0  0  0  0  0  0  0  0  0  0  0  0
   -1.2940    1.6544   -0.0339 C   0  0  0  0  0  0  0  0  0  0  0  0
    3.4154   -0.1559   -0.1242 H   0  0  0  0  0  0  0  0  0  0  0  0
    3.3017    1.6046    0.3867 H   0  0  0  0  0  0  0  0  0  0  0  0
    2.6536    1.0781   -1.1842 H   0  0  0  0  0  0  0  0  0  0  0  0
    0.8080   -0.2240   -1.2334 H   0  0  0  0  0  0  0  0  0  0  0  0
    1.4890   -1.3597   -0.0429 H   0  0  0  0  0  0  0  0  0  0  0  0
   -1.3221   -1.5529    1.9630 H   0  0  0  0  0  0  0  0  0  0  0  0
   -0.6127   -2.3390   -1.0109 H   0  0  0  0  0  0  0  0  0  0  0  0
   -2.1125   -2.0301    0.0708 H   0  0  0  0  0  0  0  0  0  0  0  0
   -2.4922   -0.0141    0.6280 H   0  0  0  0  0  0  0  0  0  0  0  0
   -0.3106    1.9411    0.3585 H   0  0  0  0  0  0  0  0  0  0  0  0
   -2.0839    2.2640    0.4801 H   0  0  0  0  0  0  0  0  0  0  0  0
   -1.3439    1.9499   -1.1211 H   0  0  0  0  0  0  0  0  0  0  0  0
  1  2  1  0
  2  3  1  0
  3  4  1  0
  4  5  1  0
  4  6  1  0
  6  7  1  0
  7  8  1  0
  8  9  1  0
  8  4  1  0
  1 10  1  0
  1 11  1  0
  1 12  1  0
  3 13  1  0
  3 14  1  0
  5 15  1  0
  6 16  1  0
  6 17  1  0
  8 18  1  0
  9 19  1  0
  9 20  1  0
  9 21  1  0
M  END
