
     RDKit          3D

 22 22  0  0  0  0  0  0  0  0999 V2000
    3.1689   -0.5232   -0.3166 C   0  0  0  0  0  0  0  0  0  0  0  0
    2.0247    0.0509    0.2064 O   0  0  0  0  0  0  0  0  0  0  0  0
    1.2750    0.6861   -0.8068 C   0  0  0  0  0  0  0  0  0  0  0  0
    0.0314    1.2996   -0.1825 C   0  0  0  0  0  0  0  0  0  0  0  0
   -0.7485    0.1867    0.4394 C   0  0  0  0  0  0  0  0  0  0  0  0
   -1.2063   -0.9052   -0.4945 C   0  0  0  0  0  0  0  0  0  0  0  0
   -2.4033   -1.0417    0.4580 C   0  0  0  0  0  0  0  0  0  0  0  0
   -2.2380    0.4775    0.6415 C   0  0  0  0  0  0  0  0  0  0  0  0
    3.7625    0.2996   -0.7743 H   0  0  0  0  0  0  0  0  0  0  0  0
    2.9202   -1.2902   -1.0984 H   0  0  0  0  0  0  0  0  0  0  0  0
    3.7479   -0.9828    0.4925 H   0  0  0  0  0  0  0  0  0  0  0  0
    1.8943    1.4854   -1.2277 H   0  0  0  0  0  0  0  0  0  0  0  0
    1.0223   -0.0689   -1.5744 H   0  0  0  0  0  0  0  0  0  0  0  0
   -0.5182    1.8675   -0.9450 H   0  0  0  0  0  0  0  0  0  0  0  0
    0.3343    1.9955    0.6068 H   0  0  0  0  0  0  0  0  0  0  0  0
   -0.2581   -0.1976    1.3434 H   0  0  0  0  0  0  0  0  0  0  0  0
   -1.5854   -0.5258   -1.4584 H   0  0  0  0  0  0  0  0  0  0  0  0
   -0.5705   -1.7968   -0.5569 H   0  0  0  0  0  0  0  0  0  0  0  0
   -3.3379   -1.3337   -0.0192 H   0  0  0  0  0  0  0  0  0  0  0  0
   -2.1481   -1.5279    1.4205 H   0  0  0  0  0  0  0  0  0  0  0  0
   -2.5238    0.7767    1.6471 H   0  0  0  0  0  0  0  0  0  0  0  0
   -2.6436    1.0684   -0.2009 H   0  0  0  0  0  0  0  0  0  0  0  0
  1  2  1  0
  2  3  1  0
  3  4  1  0
  4  5  1  0
  5  6  1  0
  6  7  1  0
  7  8  1  0
  8  5  1  0
  1  9  1  0
  1 10  1  0
  1 11  1  0
  3 12  1  0
  3 13  1  0
  4 14  1  0
  4 15  1  0
  5 16  1  0
  6 17  1  0
  6 18  1  0
  7 19  1  0
  7 20  1  0
  8 21  1  0
  8 22  1  0
M  END
