
     RDKit          3D

 21 21  0  0  0  0  0  0  0  0999 V2000
    3.5011   -0.3142   -0.7428 C   0  0  0  0  0  0  0  0  0  0  0  0
    2.5524    0.2930    0.0732 O   0  0  0  0  0  0  0  0  0  0  0  0
    1.2818   -0.2445   -0.1218 C   0  0  0  0  0  0  0  0  0  0  0  0
    0.2948    0.4325    0.7703 C   0  0  0  0  0  0  0  0  0  0  0  0
   -1.1064   -0.1060    0.6069 C   0  0  0  0  0  0  0  0  0  0  0  0
   -1.6372    0.0529   -0.7836 C   0  0  0  0  0  0  0  0  0  0  0  0
   -2.7294    0.9293   -0.5885 O   0  0  0  0  0  0  0  0  0  0  0  0
   -3.1817    0.4798    0.6526 C   0  0  0  0  0  0  0  0  0  0  0  0
   -2.0159    0.5664    1.4203 O   0  0  0  0  0  0  0  0  0  0  0  0
    4.4793    0.1644   -0.5309 H   0  0  0  0  0  0  0  0  0  0  0  0
    3.5044   -1.4038   -0.5673 H   0  0  0  0  0  0  0  0  0  0  0  0
    3.2126   -0.1110   -1.8070 H   0  0  0  0  0  0  0  0  0  0  0  0
    1.3360   -1.3202    0.1522 H   0  0  0  0  0  0  0  0  0  0  0  0
    1.0346   -0.0968   -1.1891 H   0  0  0  0  0  0  0  0  0  0  0  0
    0.5933    0.2891    1.8256 H   0  0  0  0  0  0  0  0  0  0  0  0
    0.3312    1.5303    0.5686 H   0  0  0  0  0  0  0  0  0  0  0  0
   -1.0620   -1.1952    0.8480 H   0  0  0  0  0  0  0  0  0  0  0  0
   -0.9039    0.4893   -1.4871 H   0  0  0  0  0  0  0  0  0  0  0  0
   -2.0776   -0.8969   -1.1687 H   0  0  0  0  0  0  0  0  0  0  0  0
   -4.0077    1.0661    1.0516 H   0  0  0  0  0  0  0  0  0  0  0  0
   -3.3999   -0.6046    0.5395 H   0  0  0  0  0  0  0  0  0  0  0  0
  1  2  1  0
  2  3  1  0
  3  4  1  0
  4  5  1  0
  5  6  1  0
  6  7  1  0
  7  8  1  0
  8  9  1  0
  9  5  1  0
  1 10  1  0
  1 11  1  0
  1 12  1  0
  3 13  1  0
  3 14  1  0
  4 15  1  0
  4 16  1  0
  5 17  1  0
  6 18  1  0
  6 19  1  0
  8 20  1  0
  8 21  1  0
M  END
