
     RDKit          3D

 23 23  0  0  0  0  0  0  0  0999 V2000
    4.0389    0.4937    0.2840 C   0  0  0  0  0  0  0  0  0  0  0  0
    2.7502    0.4658    0.8056 O   0  0  0  0  0  0  0  0  0  0  0  0
    1.9204   -0.0359   -0.2173 C   0  0  0  0  0  0  0  0  0  0  0  0
    0.5269   -0.0641    0.3521 C   0  0  0  0  0  0  0  0  0  0  0  0
   -0.4996   -0.5804   -0.6201 C   0  0  0  0  0  0  0  0  0  0  0  0
   -1.8376   -0.5586    0.0645 C   0  0  0  0  0  0  0  0  0  0  0  0
   -3.0666   -0.9973   -0.5954 C   0  0  0  0  0  0  0  0  0  0  0  0
   -2.8096    0.4918   -0.4854 C   0  0  0  0  0  0  0  0  0  0  0  0
   -3.4736    1.2355    0.4689 O   0  0  0  0  0  0  0  0  0  0  0  0
    4.3282   -0.5281   -0.0008 H   0  0  0  0  0  0  0  0  0  0  0  0
    4.0244    1.2033   -0.5827 H   0  0  0  0  0  0  0  0  0  0  0  0
    4.7298    0.9585    1.0244 H   0  0  0  0  0  0  0  0  0  0  0  0
    2.2201   -1.0825   -0.4136 H   0  0  0  0  0  0  0  0  0  0  0  0
    1.9502    0.6043   -1.1121 H   0  0  0  0  0  0  0  0  0  0  0  0
    0.1904    0.9463    0.6684 H   0  0  0  0  0  0  0  0  0  0  0  0
    0.5151   -0.7541    1.2273 H   0  0  0  0  0  0  0  0  0  0  0  0
   -0.2339   -1.5832   -1.0287 H   0  0  0  0  0  0  0  0  0  0  0  0
   -0.4729    0.1123   -1.5059 H   0  0  0  0  0  0  0  0  0  0  0  0
   -1.8112   -0.6644    1.1868 H   0  0  0  0  0  0  0  0  0  0  0  0
   -3.0813   -1.4701   -1.5980 H   0  0  0  0  0  0  0  0  0  0  0  0
   -3.9124   -1.3379    0.0401 H   0  0  0  0  0  0  0  0  0  0  0  0
   -2.5426    0.9541   -1.4576 H   0  0  0  0  0  0  0  0  0  0  0  0
   -3.4534    2.1910    0.1418 H   0  0  0  0  0  0  0  0  0  0  0  0
  1  2  1  0
  2  3  1  0
  3  4  1  0
  4  5  1  0
  5  6  1  0
  6  7  1  0
  7  8  1  0
  8  9  1  0
  8  6  1  0
  1 10  1  0
  1 11  1  0
  1 12  1  0
  3 13  1  0
  3 14  1  0
  4 15  1  0
  4 16  1  0
  5 17  1  0
  5 18  1  0
  6 19  1  0
  7 20  1  0
  7 21  1  0
  8 22  1  0
  9 23  1  0
M  END
