
     RDKit          3D

 20 20  0  0  0  0  0  0  0  0999 V2000
    2.8725   -0.1987    0.2326 C   0  0  0  0  0  0  0  0  0  0  0  0
    1.5889   -0.2801   -0.2852 O   0  0  0  0  0  0  0  0  0  0  0  0
    0.6173    0.1487    0.6178 C   0  0  0  0  0  0  0  0  0  0  0  0
   -0.7104   -0.0012   -0.0910 C   0  0  0  0  0  0  0  0  0  0  0  0
   -1.0165   -1.4054   -0.5102 C   0  0  0  0  0  0  0  0  0  0  0  0
   -1.8880    0.6264    0.6061 C   0  0  0  0  0  0  0  0  0  0  0  0
   -2.3982    0.9299   -0.6786 O   0  0  0  0  0  0  0  0  0  0  0  0
   -1.0458    1.0833   -1.0673 C   0  0  0  0  0  0  0  0  0  0  0  0
    3.1725    0.8146    0.5226 H   0  0  0  0  0  0  0  0  0  0  0  0
    2.9076   -0.9131    1.0990 H   0  0  0  0  0  0  0  0  0  0  0  0
    3.5623   -0.5307   -0.5711 H   0  0  0  0  0  0  0  0  0  0  0  0
    0.6563   -0.5537    1.4746 H   0  0  0  0  0  0  0  0  0  0  0  0
    0.7704    1.1958    0.9342 H   0  0  0  0  0  0  0  0  0  0  0  0
   -1.2368   -2.0540    0.3865 H   0  0  0  0  0  0  0  0  0  0  0  0
   -0.1767   -1.8488   -1.0701 H   0  0  0  0  0  0  0  0  0  0  0  0
   -1.9256   -1.3880   -1.1369 H   0  0  0  0  0  0  0  0  0  0  0  0
   -2.5253   -0.0582    1.1766 H   0  0  0  0  0  0  0  0  0  0  0  0
   -1.6827    1.5424    1.1809 H   0  0  0  0  0  0  0  0  0  0  0  0
   -0.8427    0.8307   -2.1144 H   0  0  0  0  0  0  0  0  0  0  0  0
   -0.6992    2.0603   -0.7062 H   0  0  0  0  0  0  0  0  0  0  0  0
  1  2  1  0
  2  3  1  0
  3  4  1  0
  4  5  1  0
  4  6  1  0
  6  7  1  0
  7  8  1  0
  8  4  1  0
  1  9  1  0
  1 10  1  0
  1 11  1  0
  3 12  1  0
  3 13  1  0
  5 14  1  0
  5 15  1  0
  5 16  1  0
  6 17  1  0
  6 18  1  0
  8 19  1  0
  8 20  1  0
M  END
