
     RDKit          3D

 23 24  0  0  0  0  0  0  0  0999 V2000
    3.3402    0.4090    0.2469 C   0  0  0  0  0  0  0  0  0  0  0  0
    2.1624   -0.3716    0.3089 O   0  0  0  0  0  0  0  0  0  0  0  0
    1.1111    0.5127    0.1844 C   0  0  0  0  0  0  0  0  0  0  0  0
   -0.2380   -0.1184    0.2254 C   0  0  0  0  0  0  0  0  0  0  0  0
   -0.7093   -0.8914    1.3931 C   0  0  0  0  0  0  0  0  0  0  0  0
   -0.4838   -1.5465    0.0735 C   0  0  0  0  0  0  0  0  0  0  0  0
   -1.5452   -1.2642   -0.9636 C   0  0  0  0  0  0  0  0  0  0  0  0
   -1.1566    0.1769   -0.9348 C   0  0  0  0  0  0  0  0  0  0  0  0
   -2.2214    1.1511   -0.5050 C   0  0  0  0  0  0  0  0  0  0  0  0
    3.3270    0.9215   -0.7472 H   0  0  0  0  0  0  0  0  0  0  0  0
    3.1850    1.2096    1.0238 H   0  0  0  0  0  0  0  0  0  0  0  0
    4.2412   -0.1805    0.4084 H   0  0  0  0  0  0  0  0  0  0  0  0
    1.2017    1.1669   -0.7044 H   0  0  0  0  0  0  0  0  0  0  0  0
    1.1724    1.2129    1.0681 H   0  0  0  0  0  0  0  0  0  0  0  0
   -1.7856   -0.7050    1.6669 H   0  0  0  0  0  0  0  0  0  0  0  0
    0.0113   -1.0459    2.1968 H   0  0  0  0  0  0  0  0  0  0  0  0
    0.2721   -2.3130   -0.0860 H   0  0  0  0  0  0  0  0  0  0  0  0
   -1.3781   -1.7099   -1.9543 H   0  0  0  0  0  0  0  0  0  0  0  0
   -2.5767   -1.3957   -0.5725 H   0  0  0  0  0  0  0  0  0  0  0  0
   -0.5603    0.4895   -1.8256 H   0  0  0  0  0  0  0  0  0  0  0  0
   -2.3712    1.0877    0.6004 H   0  0  0  0  0  0  0  0  0  0  0  0
   -3.1700    1.0308   -1.0308 H   0  0  0  0  0  0  0  0  0  0  0  0
   -1.8282    2.1735   -0.7095 H   0  0  0  0  0  0  0  0  0  0  0  0
  1  2  1  0
  2  3  1  0
  3  4  1  0
  4  5  1  0
  5  6  1  0
  6  7  1  0
  7  8  1  0
  8  9  1  0
  6  4  1  0
  8  4  1  0
  1 10  1  0
  1 11  1  0
  1 12  1  0
  3 13  1  0
  3 14  1  0
  5 15  1  0
  5 16  1  0
  6 17  1  0
  7 18  1  0
  7 19  1  0
  8 20  1  0
  9 21  1  0
  9 22  1  0
  9 23  1  0
M  END
