
     RDKit          3D

 19 18  0  0  0  0  0  0  0  0999 V2000
    2.6245    1.0329    0.3287 C   0  0  0  0  0  0  0  0  0  0  0  0
    1.2278    1.0585    0.1929 O   0  0  0  0  0  0  0  0  0  0  0  0
    0.8434   -0.2301   -0.1482 C   0  0  0  0  0  0  0  0  0  0  0  0
   -0.6527   -0.3560   -0.3294 C   0  0  0  0  0  0  0  0  0  0  0  0
   -0.9400   -1.7923   -0.7081 C   0  0  0  0  0  0  0  0  0  0  0  0
   -1.2523   -0.0125    0.8636 O   0  0  0  0  0  0  0  0  0  0  0  0
   -2.1285    1.0560    0.7468 C   0  0  0  0  0  0  0  0  0  0  0  0
    3.0486    1.9962    0.5974 H   0  0  0  0  0  0  0  0  0  0  0  0
    3.0645    0.6672   -0.6400 H   0  0  0  0  0  0  0  0  0  0  0  0
    2.8756    0.2253    1.0657 H   0  0  0  0  0  0  0  0  0  0  0  0
    1.3576   -0.4580   -1.1231 H   0  0  0  0  0  0  0  0  0  0  0  0
    1.2337   -0.9600    0.5736 H   0  0  0  0  0  0  0  0  0  0  0  0
   -0.9746    0.2799   -1.1715 H   0  0  0  0  0  0  0  0  0  0  0  0
   -1.2915   -1.8977   -1.7548 H   0  0  0  0  0  0  0  0  0  0  0  0
   -1.7667   -2.2138   -0.0710 H   0  0  0  0  0  0  0  0  0  0  0  0
   -0.0372   -2.4334   -0.6234 H   0  0  0  0  0  0  0  0  0  0  0  0
   -2.5568    1.2553    1.7500 H   0  0  0  0  0  0  0  0  0  0  0  0
   -2.9986    0.8117    0.0858 H   0  0  0  0  0  0  0  0  0  0  0  0
   -1.6769    1.9710    0.3650 H   0  0  0  0  0  0  0  0  0  0  0  0
  1  2  1  0
  2  3  1  0
  3  4  1  0
  4  5  1  0
  4  6  1  0
  6  7  1  0
  1  8  1  0
  1  9  1  0
  1 10  1  0
  3 11  1  0
  3 12  1  0
  4 13  1  0
  5 14  1  0
  5 15  1  0
  5 16  1  0
  7 17  1  0
  7 18  1  0
  7 19  1  0
M  END
