
     RDKit          3D

 20 19  0  0  0  0  0  0  0  0999 V2000
    2.8590   -1.0041   -0.2587 C   0  0  0  0  0  0  0  0  0  0  0  0
    2.9190    0.1464   -1.0691 O   0  0  0  0  0  0  0  0  0  0  0  0
    2.2878    1.1575   -0.3091 C   0  0  0  0  0  0  0  0  0  0  0  0
    0.8934    0.7529   -0.0282 C   0  0  0  0  0  0  0  0  0  0  0  0
   -0.2423    0.4184    0.1800 C   0  0  0  0  0  0  0  0  0  0  0  0
   -1.6345    0.0129    0.4139 C   0  0  0  0  0  0  0  0  0  0  0  0
   -1.8877   -1.2402   -0.3729 C   0  0  0  0  0  0  0  0  0  0  0  0
   -2.5918    1.1110   -0.0067 C   0  0  0  0  0  0  0  0  0  0  0  0
    3.3824   -0.8454    0.6994 H   0  0  0  0  0  0  0  0  0  0  0  0
    1.7581   -1.1527   -0.0654 H   0  0  0  0  0  0  0  0  0  0  0  0
    3.1964   -1.8726   -0.8285 H   0  0  0  0  0  0  0  0  0  0  0  0
    2.3431    2.1003   -0.8669 H   0  0  0  0  0  0  0  0  0  0  0  0
    2.8529    1.2876    0.6467 H   0  0  0  0  0  0  0  0  0  0  0  0
   -1.7633   -0.2412    1.4914 H   0  0  0  0  0  0  0  0  0  0  0  0
   -1.6514   -2.1265    0.2600 H   0  0  0  0  0  0  0  0  0  0  0  0
   -1.3043   -1.2627   -1.3326 H   0  0  0  0  0  0  0  0  0  0  0  0
   -2.9810   -1.3147   -0.6123 H   0  0  0  0  0  0  0  0  0  0  0  0
   -1.9729    2.0147   -0.2646 H   0  0  0  0  0  0  0  0  0  0  0  0
   -3.1803    0.7482   -0.8606 H   0  0  0  0  0  0  0  0  0  0  0  0
   -3.2827    1.3102    0.8332 H   0  0  0  0  0  0  0  0  0  0  0  0
  1  2  1  0
  2  3  1  0
  3  4  1  0
  4  5  3  0
  5  6  1  0
  6  7  1  0
  6  8  1  0
  1  9  1  0
  1 10  1  0
  1 11  1  0
  3 12  1  0
  3 13  1  0
  6 14  1  0
  7 15  1  0
  7 16  1  0
  7 17  1  0
  8 18  1  0
  8 19  1  0
  8 20  1  0
M  END
