
     RDKit          3D

 21 22  0  0  0  0  0  0  0  0999 V2000
    2.8812   -0.1134   -0.6199 C   0  0  0  0  0  0  0  0  0  0  0  0
    1.5373    0.1900   -0.8219 O   0  0  0  0  0  0  0  0  0  0  0  0
    0.8804   -0.0582    0.3871 C   0  0  0  0  0  0  0  0  0  0  0  0
   -0.5778    0.2626    0.1962 C   0  0  0  0  0  0  0  0  0  0  0  0
   -0.7670    1.6902   -0.1879 C   0  0  0  0  0  0  0  0  0  0  0  0
   -1.2873   -0.7620   -0.6489 C   0  0  0  0  0  0  0  0  0  0  0  0
   -2.3446   -0.9581    0.3782 C   0  0  0  0  0  0  0  0  0  0  0  0
   -2.7533    0.0063    1.2494 O   0  0  0  0  0  0  0  0  0  0  0  0
   -1.4108   -0.2367    1.3542 C   0  0  0  0  0  0  0  0  0  0  0  0
    3.0072   -1.1916   -0.3243 H   0  0  0  0  0  0  0  0  0  0  0  0
    3.3197    0.4713    0.2015 H   0  0  0  0  0  0  0  0  0  0  0  0
    3.4237    0.0224   -1.5844 H   0  0  0  0  0  0  0  0  0  0  0  0
    1.3545    0.5225    1.1897 H   0  0  0  0  0  0  0  0  0  0  0  0
    1.0216   -1.1357    0.5970 H   0  0  0  0  0  0  0  0  0  0  0  0
   -1.6674    2.1613    0.2682 H   0  0  0  0  0  0  0  0  0  0  0  0
   -0.7367    1.8119   -1.2832 H   0  0  0  0  0  0  0  0  0  0  0  0
    0.1028    2.2882    0.2033 H   0  0  0  0  0  0  0  0  0  0  0  0
   -1.6735   -0.4043   -1.6183 H   0  0  0  0  0  0  0  0  0  0  0  0
   -0.6646   -1.6708   -0.7908 H   0  0  0  0  0  0  0  0  0  0  0  0
   -2.6612   -1.9818    0.6013 H   0  0  0  0  0  0  0  0  0  0  0  0
   -0.9840   -0.9140    2.1002 H   0  0  0  0  0  0  0  0  0  0  0  0
  1  2  1  0
  2  3  1  0
  3  4  1  0
  4  5  1  0
  4  6  1  0
  6  7  1  0
  7  8  1  0
  8  9  1  0
  9  4  1  0
  9  7  1  0
  1 10  1  0
  1 11  1  0
  1 12  1  0
  3 13  1  0
  3 14  1  0
  5 15  1  0
  5 16  1  0
  5 17  1  0
  6 18  1  0
  6 19  1  0
  7 20  1  0
  9 21  1  0
M  END
