
     RDKit          3D

 21 21  0  0  0  0  0  0  0  0999 V2000
    3.3786    0.1308    0.0273 C   0  0  0  0  0  0  0  0  0  0  0  0
    2.2231   -0.6337    0.0399 O   0  0  0  0  0  0  0  0  0  0  0  0
    1.0826    0.1630    0.0517 C   0  0  0  0  0  0  0  0  0  0  0  0
   -0.1416   -0.7131    0.0649 C   0  0  0  0  0  0  0  0  0  0  0  0
   -0.2680   -1.5717   -1.0255 O   0  0  0  0  0  0  0  0  0  0  0  0
   -1.6636   -1.3738   -0.9038 C   0  0  0  0  0  0  0  0  0  0  0  0
   -1.3418    0.0491   -0.4846 C   0  0  0  0  0  0  0  0  0  0  0  0
   -2.2480    0.6148    0.5724 C   0  0  0  0  0  0  0  0  0  0  0  0
   -1.5128    1.4951    1.3564 O   0  0  0  0  0  0  0  0  0  0  0  0
    3.3896    0.7656    0.9423 H   0  0  0  0  0  0  0  0  0  0  0  0
    4.2374   -0.5687    0.0846 H   0  0  0  0  0  0  0  0  0  0  0  0
    3.4117    0.7163   -0.8990 H   0  0  0  0  0  0  0  0  0  0  0  0
    1.0755    0.7324    1.0125 H   0  0  0  0  0  0  0  0  0  0  0  0
    1.0772    0.9013   -0.7510 H   0  0  0  0  0  0  0  0  0  0  0  0
   -0.3504   -1.2334    1.0035 H   0  0  0  0  0  0  0  0  0  0  0  0
   -2.2260   -1.4801   -1.8281 H   0  0  0  0  0  0  0  0  0  0  0  0
   -2.0062   -1.9790   -0.0327 H   0  0  0  0  0  0  0  0  0  0  0  0
   -1.0567    0.7088   -1.3000 H   0  0  0  0  0  0  0  0  0  0  0  0
   -2.6724   -0.2124    1.1611 H   0  0  0  0  0  0  0  0  0  0  0  0
   -3.0536    1.1671    0.0543 H   0  0  0  0  0  0  0  0  0  0  0  0
   -1.3345    2.3216    0.8539 H   0  0  0  0  0  0  0  0  0  0  0  0
  1  2  1  0
  2  3  1  0
  3  4  1  0
  4  5  1  0
  5  6  1  0
  6  7  1  0
  7  8  1  0
  8  9  1  0
  7  4  1  0
  1 10  1  0
  1 11  1  0
  1 12  1  0
  3 13  1  0
  3 14  1  0
  4 15  1  0
  6 16  1  0
  6 17  1  0
  7 18  1  0
  8 19  1  0
  8 20  1  0
  9 21  1  0
M  END
