
     RDKit          3D

 21 21  0  0  0  0  0  0  0  0999 V2000
    2.8741    0.7517    0.8871 C   0  0  0  0  0  0  0  0  0  0  0  0
    1.7061    0.6764    0.1335 O   0  0  0  0  0  0  0  0  0  0  0  0
    1.2396   -0.6297    0.0256 C   0  0  0  0  0  0  0  0  0  0  0  0
   -0.0188   -0.5869   -0.8052 C   0  0  0  0  0  0  0  0  0  0  0  0
   -0.6443   -1.7852   -1.0339 O   0  0  0  0  0  0  0  0  0  0  0  0
   -1.8650   -1.0843   -1.0061 C   0  0  0  0  0  0  0  0  0  0  0  0
   -1.2352   -0.1679    0.0121 C   0  0  0  0  0  0  0  0  0  0  0  0
   -1.5807    1.2830   -0.1101 C   0  0  0  0  0  0  0  0  0  0  0  0
   -1.2868   -0.7083    1.2805 O   0  0  0  0  0  0  0  0  0  0  0  0
    2.5989    0.3463    1.9052 H   0  0  0  0  0  0  0  0  0  0  0  0
    3.2320    1.7789    1.0216 H   0  0  0  0  0  0  0  0  0  0  0  0
    3.6550    0.1206    0.4133 H   0  0  0  0  0  0  0  0  0  0  0  0
    2.0050   -1.1784   -0.5952 H   0  0  0  0  0  0  0  0  0  0  0  0
    1.1144   -1.1291    0.9819 H   0  0  0  0  0  0  0  0  0  0  0  0
    0.0437    0.0284   -1.7019 H   0  0  0  0  0  0  0  0  0  0  0  0
   -2.7206   -1.6817   -0.6594 H   0  0  0  0  0  0  0  0  0  0  0  0
   -1.9884   -0.5604   -1.9645 H   0  0  0  0  0  0  0  0  0  0  0  0
   -1.5202    1.8111    0.8637 H   0  0  0  0  0  0  0  0  0  0  0  0
   -0.8500    1.8131   -0.7815 H   0  0  0  0  0  0  0  0  0  0  0  0
   -2.5979    1.3780   -0.5333 H   0  0  0  0  0  0  0  0  0  0  0  0
   -2.1611   -0.4756    1.6668 H   0  0  0  0  0  0  0  0  0  0  0  0
  1  2  1  0
  2  3  1  0
  3  4  1  0
  4  5  1  0
  5  6  1  0
  6  7  1  0
  7  8  1  0
  7  9  1  0
  7  4  1  0
  1 10  1  0
  1 11  1  0
  1 12  1  0
  3 13  1  0
  3 14  1  0
  4 15  1  0
  6 16  1  0
  6 17  1  0
  8 18  1  0
  8 19  1  0
  8 20  1  0
  9 21  1  0
M  END
