
     RDKit          3D

 21 22  0  0  0  0  0  0  0  0999 V2000
   -0.4669   -0.4595    2.6378 C   0  0  0  0  0  0  0  0  0  0  0  0
   -0.9890   -1.1686    1.5673 O   0  0  0  0  0  0  0  0  0  0  0  0
   -0.0781   -1.4380    0.5580 C   0  0  0  0  0  0  0  0  0  0  0  0
    0.4451   -0.1622    0.0128 C   0  0  0  0  0  0  0  0  0  0  0  0
   -0.5392    0.7917   -0.5803 C   0  0  0  0  0  0  0  0  0  0  0  0
    0.3988    1.8843   -1.0529 C   0  0  0  0  0  0  0  0  0  0  0  0
    1.4105    1.0637   -1.6188 O   0  0  0  0  0  0  0  0  0  0  0  0
    0.9540   -0.2169   -1.4223 C   0  0  0  0  0  0  0  0  0  0  0  0
   -0.5210   -0.0870   -1.8181 C   0  0  0  0  0  0  0  0  0  0  0  0
    0.3685   -1.0910    3.0473 H   0  0  0  0  0  0  0  0  0  0  0  0
   -1.2312   -0.2791    3.4272 H   0  0  0  0  0  0  0  0  0  0  0  0
   -0.0513    0.4868    2.2437 H   0  0  0  0  0  0  0  0  0  0  0  0
    0.7352   -2.0439    1.0554 H   0  0  0  0  0  0  0  0  0  0  0  0
   -0.5852   -2.0803   -0.1738 H   0  0  0  0  0  0  0  0  0  0  0  0
    1.2012    0.3182    0.6834 H   0  0  0  0  0  0  0  0  0  0  0  0
   -1.4457    1.0291   -0.1141 H   0  0  0  0  0  0  0  0  0  0  0  0
    0.7911    2.4713   -0.2108 H   0  0  0  0  0  0  0  0  0  0  0  0
   -0.1298    2.4633   -1.8175 H   0  0  0  0  0  0  0  0  0  0  0  0
    1.4909   -1.0611   -1.7481 H   0  0  0  0  0  0  0  0  0  0  0  0
   -0.6479    0.5741   -2.7144 H   0  0  0  0  0  0  0  0  0  0  0  0
   -1.1099   -0.9950   -1.8040 H   0  0  0  0  0  0  0  0  0  0  0  0
  1  2  1  0
  2  3  1  0
  3  4  1  0
  4  5  1  0
  5  6  1  0
  6  7  1  0
  7  8  1  0
  8  9  1  0
  8  4  1  0
  9  5  1  0
  1 10  1  0
  1 11  1  0
  1 12  1  0
  3 13  1  0
  3 14  1  0
  4 15  1  0
  5 16  1  0
  6 17  1  0
  6 18  1  0
  8 19  1  0
  9 20  1  0
  9 21  1  0
M  END
