
     RDKit          3D

 17 16  0  0  0  0  0  0  0  0999 V2000
    2.9741   -0.0958   -0.0501 C   0  0  0  0  0  0  0  0  0  0  0  0
    1.7735    0.5945   -0.1891 O   0  0  0  0  0  0  0  0  0  0  0  0
    0.6859   -0.2412   -0.0254 C   0  0  0  0  0  0  0  0  0  0  0  0
   -0.5681    0.5979   -0.2079 C   0  0  0  0  0  0  0  0  0  0  0  0
   -1.7495   -0.3510   -0.0587 C   0  0  0  0  0  0  0  0  0  0  0  0
   -3.0435    0.3058   -0.1962 C   0  0  0  0  0  0  0  0  0  0  0  0
   -3.3243    1.2655    0.4886 O   0  0  0  0  0  0  0  0  0  0  0  0
    3.7978    0.6491   -0.2113 H   0  0  0  0  0  0  0  0  0  0  0  0
    3.0817   -0.9472   -0.7374 H   0  0  0  0  0  0  0  0  0  0  0  0
    3.0271   -0.4640    1.0034 H   0  0  0  0  0  0  0  0  0  0  0  0
    0.6975   -1.1416   -0.6320 H   0  0  0  0  0  0  0  0  0  0  0  0
    0.7551   -0.6039    1.0425 H   0  0  0  0  0  0  0  0  0  0  0  0
   -0.6267    1.3748    0.5840 H   0  0  0  0  0  0  0  0  0  0  0  0
   -0.5318    1.1011   -1.1953 H   0  0  0  0  0  0  0  0  0  0  0  0
   -1.6018   -0.8323    0.9566 H   0  0  0  0  0  0  0  0  0  0  0  0
   -1.5800   -1.1542   -0.8244 H   0  0  0  0  0  0  0  0  0  0  0  0
   -3.7670   -0.0573   -0.9143 H   0  0  0  0  0  0  0  0  0  0  0  0
  1  2  1  0
  2  3  1  0
  3  4  1  0
  4  5  1  0
  5  6  1  0
  6  7  2  0
  1  8  1  0
  1  9  1  0
  1 10  1  0
  3 11  1  0
  3 12  1  0
  4 13  1  0
  4 14  1  0
  5 15  1  0
  5 16  1  0
  6 17  1  0
M  END
