
     RDKit          3D

 25 24  0  0  0  0  0  0  0  0999 V2000
    3.2238    0.2695    0.1445 C   0  0  0  0  0  0  0  0  0  0  0  0
    2.1638   -0.0496   -0.7297 O   0  0  0  0  0  0  0  0  0  0  0  0
    1.0030    0.1005    0.0666 C   0  0  0  0  0  0  0  0  0  0  0  0
   -0.2383   -0.2075   -0.7265 C   0  0  0  0  0  0  0  0  0  0  0  0
   -0.2273   -1.5720   -1.3349 C   0  0  0  0  0  0  0  0  0  0  0  0
   -0.2564    0.7129   -1.8004 O   0  0  0  0  0  0  0  0  0  0  0  0
   -1.4698    0.0331    0.0724 C   0  0  0  0  0  0  0  0  0  0  0  0
   -1.5534   -0.7991    1.3258 C   0  0  0  0  0  0  0  0  0  0  0  0
   -1.6905    1.4763    0.4506 C   0  0  0  0  0  0  0  0  0  0  0  0
    4.1979    0.1942   -0.3460 H   0  0  0  0  0  0  0  0  0  0  0  0
    3.1447   -0.3453    1.0639 H   0  0  0  0  0  0  0  0  0  0  0  0
    3.0418    1.3249    0.4547 H   0  0  0  0  0  0  0  0  0  0  0  0
    1.0120    1.1681    0.3647 H   0  0  0  0  0  0  0  0  0  0  0  0
    1.1415   -0.5202    0.9505 H   0  0  0  0  0  0  0  0  0  0  0  0
   -0.7463   -2.2978   -0.7011 H   0  0  0  0  0  0  0  0  0  0  0  0
   -0.8173   -1.5296   -2.2959 H   0  0  0  0  0  0  0  0  0  0  0  0
    0.7879   -1.8958   -1.6407 H   0  0  0  0  0  0  0  0  0  0  0  0
   -0.0163    1.6004   -1.4838 H   0  0  0  0  0  0  0  0  0  0  0  0
   -2.3561   -0.2878   -0.5533 H   0  0  0  0  0  0  0  0  0  0  0  0
   -1.4814   -1.8777    1.1543 H   0  0  0  0  0  0  0  0  0  0  0  0
   -0.8569   -0.4314    2.1283 H   0  0  0  0  0  0  0  0  0  0  0  0
   -2.5847   -0.6252    1.7507 H   0  0  0  0  0  0  0  0  0  0  0  0
   -0.7894    2.0915    0.4881 H   0  0  0  0  0  0  0  0  0  0  0  0
   -2.4417    1.9372   -0.2562 H   0  0  0  0  0  0  0  0  0  0  0  0
   -2.1906    1.5304    1.4533 H   0  0  0  0  0  0  0  0  0  0  0  0
  1  2  1  0
  2  3  1  0
  3  4  1  0
  4  5  1  0
  4  6  1  0
  4  7  1  0
  7  8  1  0
  7  9  1  0
  1 10  1  0
  1 11  1  0
  1 12  1  0
  3 13  1  0
  3 14  1  0
  5 15  1  0
  5 16  1  0
  5 17  1  0
  6 18  1  0
  7 19  1  0
  8 20  1  0
  8 21  1  0
  8 22  1  0
  9 23  1  0
  9 24  1  0
  9 25  1  0
M  END
