
     RDKit          3D

 25 24  0  0  0  0  0  0  0  0999 V2000
    3.5246   -0.8844   -0.6674 C   0  0  0  0  0  0  0  0  0  0  0  0
    2.1962   -0.4930   -0.7312 O   0  0  0  0  0  0  0  0  0  0  0  0
    1.8509    0.4066    0.2580 C   0  0  0  0  0  0  0  0  0  0  0  0
    0.3691    0.7368    0.0526 C   0  0  0  0  0  0  0  0  0  0  0  0
   -0.4119   -0.5569    0.1745 C   0  0  0  0  0  0  0  0  0  0  0  0
   -0.0295   -1.4873   -0.7575 O   0  0  0  0  0  0  0  0  0  0  0  0
   -1.8918   -0.2436    0.1458 C   0  0  0  0  0  0  0  0  0  0  0  0
   -2.1593    0.6816    1.3395 C   0  0  0  0  0  0  0  0  0  0  0  0
   -2.3219    0.4075   -1.1362 C   0  0  0  0  0  0  0  0  0  0  0  0
    3.6908   -1.6035   -1.5041 H   0  0  0  0  0  0  0  0  0  0  0  0
    3.7600   -1.4497    0.2643 H   0  0  0  0  0  0  0  0  0  0  0  0
    4.2362   -0.0524   -0.8425 H   0  0  0  0  0  0  0  0  0  0  0  0
    1.9994    0.0223    1.2853 H   0  0  0  0  0  0  0  0  0  0  0  0
    2.4143    1.3632    0.1832 H   0  0  0  0  0  0  0  0  0  0  0  0
    0.2034    1.1390   -0.9661 H   0  0  0  0  0  0  0  0  0  0  0  0
    0.0156    1.4984    0.7685 H   0  0  0  0  0  0  0  0  0  0  0  0
   -0.2068   -0.9856    1.1899 H   0  0  0  0  0  0  0  0  0  0  0  0
   -0.6971   -1.7031   -1.4356 H   0  0  0  0  0  0  0  0  0  0  0  0
   -2.4749   -1.1759    0.3483 H   0  0  0  0  0  0  0  0  0  0  0  0
   -1.4233    0.4616    2.1406 H   0  0  0  0  0  0  0  0  0  0  0  0
   -3.1590    0.4305    1.7749 H   0  0  0  0  0  0  0  0  0  0  0  0
   -2.1466    1.7481    1.0230 H   0  0  0  0  0  0  0  0  0  0  0  0
   -2.6692    1.4701   -0.9811 H   0  0  0  0  0  0  0  0  0  0  0  0
   -3.1724   -0.2020   -1.5617 H   0  0  0  0  0  0  0  0  0  0  0  0
   -1.4967    0.4717   -1.8803 H   0  0  0  0  0  0  0  0  0  0  0  0
  1  2  1  0
  2  3  1  0
  3  4  1  0
  4  5  1  0
  5  6  1  0
  5  7  1  0
  7  8  1  0
  7  9  1  0
  1 10  1  0
  1 11  1  0
  1 12  1  0
  3 13  1  0
  3 14  1  0
  4 15  1  0
  4 16  1  0
  5 17  1  0
  6 18  1  0
  7 19  1  0
  8 20  1  0
  8 21  1  0
  8 22  1  0
  9 23  1  0
  9 24  1  0
  9 25  1  0
M  END
