
     RDKit          3D

 23 23  0  0  0  0  0  0  0  0999 V2000
    2.8083    0.4584    0.9674 C   0  0  0  0  0  0  0  0  0  0  0  0
    1.4335    0.5333    0.7486 O   0  0  0  0  0  0  0  0  0  0  0  0
    1.0537   -0.5584    0.0193 C   0  0  0  0  0  0  0  0  0  0  0  0
   -0.3959   -0.6436   -0.3101 C   0  0  0  0  0  0  0  0  0  0  0  0
   -0.7216   -1.9046   -1.1307 C   0  0  0  0  0  0  0  0  0  0  0  0
   -1.4208   -0.3753    0.7605 C   0  0  0  0  0  0  0  0  0  0  0  0
   -1.2888    0.4850   -0.4994 C   0  0  0  0  0  0  0  0  0  0  0  0
   -0.9440    1.9094   -0.2184 C   0  0  0  0  0  0  0  0  0  0  0  0
   -2.3335    0.3519   -1.4428 O   0  0  0  0  0  0  0  0  0  0  0  0
    3.0593   -0.4805    1.5317 H   0  0  0  0  0  0  0  0  0  0  0  0
    3.3576    0.4292   -0.0161 H   0  0  0  0  0  0  0  0  0  0  0  0
    3.1424    1.3160    1.5836 H   0  0  0  0  0  0  0  0  0  0  0  0
    1.6317   -0.5394   -0.9411 H   0  0  0  0  0  0  0  0  0  0  0  0
    1.3663   -1.4992    0.5384 H   0  0  0  0  0  0  0  0  0  0  0  0
    0.1020   -2.0236   -1.8627 H   0  0  0  0  0  0  0  0  0  0  0  0
   -0.6546   -2.7403   -0.4220 H   0  0  0  0  0  0  0  0  0  0  0  0
   -1.7049   -1.8124   -1.6216 H   0  0  0  0  0  0  0  0  0  0  0  0
   -1.0097    0.0299    1.7032 H   0  0  0  0  0  0  0  0  0  0  0  0
   -2.3365   -1.0047    0.8217 H   0  0  0  0  0  0  0  0  0  0  0  0
   -0.3518    2.0414    0.7256 H   0  0  0  0  0  0  0  0  0  0  0  0
   -1.9096    2.4534   -0.0006 H   0  0  0  0  0  0  0  0  0  0  0  0
   -0.4834    2.4475   -1.0521 H   0  0  0  0  0  0  0  0  0  0  0  0
   -2.3999    1.1265   -2.0238 H   0  0  0  0  0  0  0  0  0  0  0  0
  1  2  1  0
  2  3  1  0
  3  4  1  0
  4  5  1  0
  4  6  1  0
  6  7  1  0
  7  8  1  0
  7  9  1  0
  7  4  1  0
  1 10  1  0
  1 11  1  0
  1 12  1  0
  3 13  1  0
  3 14  1  0
  5 15  1  0
  5 16  1  0
  5 17  1  0
  6 18  1  0
  6 19  1  0
  8 20  1  0
  8 21  1  0
  8 22  1  0
  9 23  1  0
M  END
