
     RDKit          3D

 23 23  0  0  0  0  0  0  0  0999 V2000
    3.1226    0.7620    0.5355 C   0  0  0  0  0  0  0  0  0  0  0  0
    2.2943   -0.0724    1.2692 O   0  0  0  0  0  0  0  0  0  0  0  0
    1.4557   -0.7507    0.4018 C   0  0  0  0  0  0  0  0  0  0  0  0
    0.5940    0.1918   -0.3953 C   0  0  0  0  0  0  0  0  0  0  0  0
   -0.6563   -0.5184   -0.9268 C   0  0  0  0  0  0  0  0  0  0  0  0
   -1.3052    0.1528    0.2496 C   0  0  0  0  0  0  0  0  0  0  0  0
   -1.5305   -0.7189    1.4630 C   0  0  0  0  0  0  0  0  0  0  0  0
   -2.6004    0.8303   -0.1712 C   0  0  0  0  0  0  0  0  0  0  0  0
   -0.2276    1.0131    0.3757 O   0  0  0  0  0  0  0  0  0  0  0  0
    2.5067    1.4797   -0.0086 H   0  0  0  0  0  0  0  0  0  0  0  0
    3.6878    0.0966   -0.1741 H   0  0  0  0  0  0  0  0  0  0  0  0
    3.8690    1.2576    1.2119 H   0  0  0  0  0  0  0  0  0  0  0  0
    2.0697   -1.3365   -0.3424 H   0  0  0  0  0  0  0  0  0  0  0  0
    0.8570   -1.5239    0.9323 H   0  0  0  0  0  0  0  0  0  0  0  0
    1.1382    0.6729   -1.2261 H   0  0  0  0  0  0  0  0  0  0  0  0
   -0.9632   -0.0808   -1.8879 H   0  0  0  0  0  0  0  0  0  0  0  0
   -0.5952   -1.6163   -0.8834 H   0  0  0  0  0  0  0  0  0  0  0  0
   -0.8206   -0.4706    2.2859 H   0  0  0  0  0  0  0  0  0  0  0  0
   -2.5498   -0.5177    1.9060 H   0  0  0  0  0  0  0  0  0  0  0  0
   -1.5089   -1.8115    1.2088 H   0  0  0  0  0  0  0  0  0  0  0  0
   -2.7420    1.8007    0.3830 H   0  0  0  0  0  0  0  0  0  0  0  0
   -3.4740    0.2015    0.1351 H   0  0  0  0  0  0  0  0  0  0  0  0
   -2.6214    0.9585   -1.2580 H   0  0  0  0  0  0  0  0  0  0  0  0
  1  2  1  0
  2  3  1  0
  3  4  1  0
  4  5  1  0
  5  6  1  0
  6  7  1  0
  6  8  1  0
  6  9  1  0
  9  4  1  0
  1 10  1  0
  1 11  1  0
  1 12  1  0
  3 13  1  0
  3 14  1  0
  4 15  1  0
  5 16  1  0
  5 17  1  0
  7 18  1  0
  7 19  1  0
  7 20  1  0
  8 21  1  0
  8 22  1  0
  8 23  1  0
M  END
