
     RDKit          3D

 21 20  0  0  0  0  0  0  0  0999 V2000
   -3.0763   -0.3973   -0.6251 C   0  0  0  0  0  0  0  0  0  0  0  0
   -2.7622    0.3044    0.5111 O   0  0  0  0  0  0  0  0  0  0  0  0
   -1.5369    0.0650    1.0606 C   0  0  0  0  0  0  0  0  0  0  0  0
   -0.4412    0.3925    0.1097 C   0  0  0  0  0  0  0  0  0  0  0  0
    0.9418    0.1354    0.7198 C   0  0  0  0  0  0  0  0  0  0  0  0
    1.0224   -1.2127    1.0539 O   0  0  0  0  0  0  0  0  0  0  0  0
    1.9715    0.4579   -0.3723 C   0  0  0  0  0  0  0  0  0  0  0  0
    3.3270    0.2275    0.1594 C   0  0  0  0  0  0  0  0  0  0  0  0
    3.7754   -0.8895    0.1924 O   0  0  0  0  0  0  0  0  0  0  0  0
   -3.0344   -1.4769   -0.3995 H   0  0  0  0  0  0  0  0  0  0  0  0
   -4.1205   -0.1911   -0.9669 H   0  0  0  0  0  0  0  0  0  0  0  0
   -2.4248   -0.1116   -1.4525 H   0  0  0  0  0  0  0  0  0  0  0  0
   -1.4595    0.7393    1.9603 H   0  0  0  0  0  0  0  0  0  0  0  0
   -1.5021   -0.9623    1.4638 H   0  0  0  0  0  0  0  0  0  0  0  0
   -0.5210   -0.1645   -0.8496 H   0  0  0  0  0  0  0  0  0  0  0  0
   -0.5339    1.4690   -0.1595 H   0  0  0  0  0  0  0  0  0  0  0  0
    1.1367    0.8036    1.5645 H   0  0  0  0  0  0  0  0  0  0  0  0
    1.6791   -1.4113    1.7480 H   0  0  0  0  0  0  0  0  0  0  0  0
    1.8217    1.4711   -0.7630 H   0  0  0  0  0  0  0  0  0  0  0  0
    1.8253   -0.3003   -1.1982 H   0  0  0  0  0  0  0  0  0  0  0  0
    3.9118    1.0520    0.5156 H   0  0  0  0  0  0  0  0  0  0  0  0
  1  2  1  0
  2  3  1  0
  3  4  1  0
  4  5  1  0
  5  6  1  0
  5  7  1  0
  7  8  1  0
  8  9  2  0
  1 10  1  0
  1 11  1  0
  1 12  1  0
  3 13  1  0
  3 14  1  0
  4 15  1  0
  4 16  1  0
  5 17  1  0
  6 18  1  0
  7 19  1  0
  7 20  1  0
  8 21  1  0
M  END
