
     RDKit          3D

 23 23  0  0  0  0  0  0  0  0999 V2000
   -3.7412    0.0294   -0.1805 C   0  0  0  0  0  0  0  0  0  0  0  0
   -2.5271   -0.4525   -0.6969 O   0  0  0  0  0  0  0  0  0  0  0  0
   -1.5413   -0.0961    0.2052 C   0  0  0  0  0  0  0  0  0  0  0  0
   -0.1676   -0.5437   -0.2065 C   0  0  0  0  0  0  0  0  0  0  0  0
    0.2783    0.0209   -1.5178 C   0  0  0  0  0  0  0  0  0  0  0  0
    1.7606    0.0738   -1.3570 C   0  0  0  0  0  0  0  0  0  0  0  0
    2.0790    0.0899   -0.0554 C   0  0  0  0  0  0  0  0  0  0  0  0
    3.4385    0.1401    0.5540 C   0  0  0  0  0  0  0  0  0  0  0  0
    0.8346    0.0490    0.7607 C   0  0  0  0  0  0  0  0  0  0  0  0
   -3.8749   -0.4606    0.8032 H   0  0  0  0  0  0  0  0  0  0  0  0
   -3.7189    1.1258   -0.0380 H   0  0  0  0  0  0  0  0  0  0  0  0
   -4.5980   -0.2085   -0.8458 H   0  0  0  0  0  0  0  0  0  0  0  0
   -1.7709   -0.6052    1.1721 H   0  0  0  0  0  0  0  0  0  0  0  0
   -1.5714    0.9920    0.3733 H   0  0  0  0  0  0  0  0  0  0  0  0
   -0.1046   -1.6369   -0.2596 H   0  0  0  0  0  0  0  0  0  0  0  0
   -0.0119   -0.6424   -2.3786 H   0  0  0  0  0  0  0  0  0  0  0  0
   -0.0620    1.0708   -1.6860 H   0  0  0  0  0  0  0  0  0  0  0  0
    2.5271    0.0980   -2.1283 H   0  0  0  0  0  0  0  0  0  0  0  0
    3.6452    1.2052    0.7969 H   0  0  0  0  0  0  0  0  0  0  0  0
    3.4254   -0.3928    1.5319 H   0  0  0  0  0  0  0  0  0  0  0  0
    4.2097   -0.3292   -0.0558 H   0  0  0  0  0  0  0  0  0  0  0  0
    1.0088   -0.5841    1.6391 H   0  0  0  0  0  0  0  0  0  0  0  0
    0.4825    1.0569    1.0363 H   0  0  0  0  0  0  0  0  0  0  0  0
  1  2  1  0
  2  3  1  0
  3  4  1  0
  4  5  1  0
  5  6  1  0
  6  7  2  0
  7  8  1  0
  7  9  1  0
  9  4  1  0
  1 10  1  0
  1 11  1  0
  1 12  1  0
  3 13  1  0
  3 14  1  0
  4 15  1  0
  5 16  1  0
  5 17  1  0
  6 18  1  0
  8 19  1  0
  8 20  1  0
  8 21  1  0
  9 22  1  0
  9 23  1  0
M  END
