
     RDKit          3D

 20 20  0  0  0  0  0  0  0  0999 V2000
    3.1011    0.1575   -0.1374 C   0  0  0  0  0  0  0  0  0  0  0  0
    1.8512    0.2199    0.4229 O   0  0  0  0  0  0  0  0  0  0  0  0
    0.9014   -0.5259   -0.2589 C   0  0  0  0  0  0  0  0  0  0  0  0
   -0.4618   -0.4299    0.3910 C   0  0  0  0  0  0  0  0  0  0  0  0
   -0.9183    1.0363    0.4054 C   0  0  0  0  0  0  0  0  0  0  0  0
   -2.4154    0.8053    0.4400 C   0  0  0  0  0  0  0  0  0  0  0  0
   -2.6493   -0.2469   -0.4023 O   0  0  0  0  0  0  0  0  0  0  0  0
   -1.5343   -1.0290   -0.4908 C   0  0  0  0  0  0  0  0  0  0  0  0
    3.0902    0.5359   -1.1758 H   0  0  0  0  0  0  0  0  0  0  0  0
    3.5221   -0.8869   -0.1597 H   0  0  0  0  0  0  0  0  0  0  0  0
    3.7941    0.7702    0.4653 H   0  0  0  0  0  0  0  0  0  0  0  0
    1.2078   -1.5965   -0.1995 H   0  0  0  0  0  0  0  0  0  0  0  0
    0.8093   -0.1986   -1.3038 H   0  0  0  0  0  0  0  0  0  0  0  0
   -0.4649   -0.8384    1.4033 H   0  0  0  0  0  0  0  0  0  0  0  0
   -0.6679    1.5293   -0.5317 H   0  0  0  0  0  0  0  0  0  0  0  0
   -0.5642    1.5535    1.3112 H   0  0  0  0  0  0  0  0  0  0  0  0
   -2.7611    0.5627    1.4654 H   0  0  0  0  0  0  0  0  0  0  0  0
   -2.8885    1.7512    0.1169 H   0  0  0  0  0  0  0  0  0  0  0  0
   -1.7408   -2.0946   -0.2060 H   0  0  0  0  0  0  0  0  0  0  0  0
   -1.2109   -1.0752   -1.5552 H   0  0  0  0  0  0  0  0  0  0  0  0
  1  2  1  0
  2  3  1  0
  3  4  1  0
  4  5  1  0
  5  6  1  0
  6  7  1  0
  7  8  1  0
  8  4  1  0
  1  9  1  0
  1 10  1  0
  1 11  1  0
  3 12  1  0
  3 13  1  0
  4 14  1  0
  5 15  1  0
  5 16  1  0
  6 17  1  0
  6 18  1  0
  8 19  1  0
  8 20  1  0
M  END
