
     RDKit          3D

 19 19  0  0  0  0  0  0  0  0999 V2000
    3.1693   -0.0951    0.0101 C   0  0  0  0  0  0  0  0  0  0  0  0
    1.8501   -0.5113    0.1494 O   0  0  0  0  0  0  0  0  0  0  0  0
    0.9606    0.3425   -0.4964 C   0  0  0  0  0  0  0  0  0  0  0  0
   -0.4621   -0.1308   -0.3330 C   0  0  0  0  0  0  0  0  0  0  0  0
   -1.5588    0.8569   -0.3258 C   0  0  0  0  0  0  0  0  0  0  0  0
   -2.9043    0.5206    0.2000 C   0  0  0  0  0  0  0  0  0  0  0  0
   -1.3486    1.9820   -0.7655 O   0  0  0  0  0  0  0  0  0  0  0  0
   -0.7060   -1.3394    0.5365 C   0  0  0  0  0  0  0  0  0  0  0  0
   -0.6759   -1.4144   -0.8560 O   0  0  0  0  0  0  0  0  0  0  0  0
    3.7842   -0.8529    0.5650 H   0  0  0  0  0  0  0  0  0  0  0  0
    3.3348    0.9094    0.4509 H   0  0  0  0  0  0  0  0  0  0  0  0
    3.5108   -0.1366   -1.0390 H   0  0  0  0  0  0  0  0  0  0  0  0
    1.2643    0.4135   -1.5609 H   0  0  0  0  0  0  0  0  0  0  0  0
    1.0625    1.3472   -0.0451 H   0  0  0  0  0  0  0  0  0  0  0  0
   -3.5411    1.4379    0.2345 H   0  0  0  0  0  0  0  0  0  0  0  0
   -3.3340   -0.2584   -0.4503 H   0  0  0  0  0  0  0  0  0  0  0  0
   -2.8695    0.1659    1.2671 H   0  0  0  0  0  0  0  0  0  0  0  0
    0.1651   -1.7580    1.1086 H   0  0  0  0  0  0  0  0  0  0  0  0
   -1.7012   -1.4789    0.9731 H   0  0  0  0  0  0  0  0  0  0  0  0
  1  2  1  0
  2  3  1  0
  3  4  1  0
  4  5  1  0
  5  6  1  0
  5  7  2  0
  4  8  1  0
  8  9  1  0
  9  4  1  0
  1 10  1  0
  1 11  1  0
  1 12  1  0
  3 13  1  0
  3 14  1  0
  6 15  1  0
  6 16  1  0
  6 17  1  0
  8 18  1  0
  8 19  1  0
M  END
