
     RDKit          3D

 15 14  0  0  0  0  0  0  0  0999 V2000
    2.7826   -0.0165   -0.7736 C   0  0  0  0  0  0  0  0  0  0  0  0
    1.5373   -0.6626   -0.8735 O   0  0  0  0  0  0  0  0  0  0  0  0
    0.6203    0.1158   -0.2176 C   0  0  0  0  0  0  0  0  0  0  0  0
   -0.7466   -0.4204   -0.2266 C   0  0  0  0  0  0  0  0  0  0  0  0
   -0.9599   -1.5037   -0.8095 O   0  0  0  0  0  0  0  0  0  0  0  0
   -1.8055    0.3253    0.4421 C   0  0  0  0  0  0  0  0  0  0  0  0
   -1.5841    1.4168    1.0278 O   0  0  0  0  0  0  0  0  0  0  0  0
   -3.1796   -0.1823    0.4516 C   0  0  0  0  0  0  0  0  0  0  0  0
   -3.4837   -1.2698   -0.1136 O   0  0  0  0  0  0  0  0  0  0  0  0
    2.6388    0.9818   -1.2649 H   0  0  0  0  0  0  0  0  0  0  0  0
    2.9234    0.1509    0.3348 H   0  0  0  0  0  0  0  0  0  0  0  0
    3.6009   -0.5960   -1.2023 H   0  0  0  0  0  0  0  0  0  0  0  0
    0.9406    0.1572    0.8636 H   0  0  0  0  0  0  0  0  0  0  0  0
    0.6949    1.1593   -0.5759 H   0  0  0  0  0  0  0  0  0  0  0  0
   -3.9793    0.3441    0.9352 H   0  0  0  0  0  0  0  0  0  0  0  0
  1  2  1  0
  2  3  1  0
  3  4  1  0
  4  5  2  0
  4  6  1  0
  6  7  2  0
  6  8  1  0
  8  9  2  0
  1 10  1  0
  1 11  1  0
  1 12  1  0
  3 13  1  0
  3 14  1  0
  8 15  1  0
M  END
