
     RDKit          3D

 20 20  0  0  0  0  0  0  0  0999 V2000
    3.0146    0.2750   -0.0634 C   0  0  0  0  0  0  0  0  0  0  0  0
    2.2528   -0.8723   -0.1536 O   0  0  0  0  0  0  0  0  0  0  0  0
    1.0997   -0.8584    0.5959 C   0  0  0  0  0  0  0  0  0  0  0  0
    0.1871    0.2702    0.1802 C   0  0  0  0  0  0  0  0  0  0  0  0
   -0.1572    0.0731   -1.2490 O   0  0  0  0  0  0  0  0  0  0  0  0
   -1.1671    0.0967   -0.2655 C   0  0  0  0  0  0  0  0  0  0  0  0
   -2.0206    1.3619   -0.3451 C   0  0  0  0  0  0  0  0  0  0  0  0
   -1.9573   -1.1502   -0.0358 C   0  0  0  0  0  0  0  0  0  0  0  0
    3.9102    0.1001   -0.7268 H   0  0  0  0  0  0  0  0  0  0  0  0
    2.4406    1.1604   -0.3923 H   0  0  0  0  0  0  0  0  0  0  0  0
    3.3784    0.3585    0.9783 H   0  0  0  0  0  0  0  0  0  0  0  0
    0.5901   -1.8452    0.3869 H   0  0  0  0  0  0  0  0  0  0  0  0
    1.2973   -0.8255    1.6921 H   0  0  0  0  0  0  0  0  0  0  0  0
    0.5701    1.2860    0.4010 H   0  0  0  0  0  0  0  0  0  0  0  0
   -3.0471    1.0921   -0.6828 H   0  0  0  0  0  0  0  0  0  0  0  0
   -1.6248    2.0908   -1.0710 H   0  0  0  0  0  0  0  0  0  0  0  0
   -2.1222    1.8114    0.6699 H   0  0  0  0  0  0  0  0  0  0  0  0
   -2.8596   -0.8786    0.5692 H   0  0  0  0  0  0  0  0  0  0  0  0
   -1.4393   -1.9488    0.4966 H   0  0  0  0  0  0  0  0  0  0  0  0
   -2.3458   -1.5972   -0.9847 H   0  0  0  0  0  0  0  0  0  0  0  0
  1  2  1  0
  2  3  1  0
  3  4  1  0
  4  5  1  0
  5  6  1  0
  6  7  1  0
  6  8  1  0
  6  4  1  0
  1  9  1  0
  1 10  1  0
  1 11  1  0
  3 12  1  0
  3 13  1  0
  4 14  1  0
  7 15  1  0
  7 16  1  0
  7 17  1  0
  8 18  1  0
  8 19  1  0
  8 20  1  0
M  END
