
     RDKit          3D

 22 21  0  0  0  0  0  0  0  0999 V2000
    2.4414    1.3294   -1.2752 C   0  0  0  0  0  0  0  0  0  0  0  0
    1.9810    1.6943   -0.0208 O   0  0  0  0  0  0  0  0  0  0  0  0
    1.8598    0.5876    0.7754 C   0  0  0  0  0  0  0  0  0  0  0  0
    0.8940   -0.4504    0.2535 C   0  0  0  0  0  0  0  0  0  0  0  0
   -0.3542    0.1368    0.1489 O   0  0  0  0  0  0  0  0  0  0  0  0
   -1.3481   -0.6560   -0.3067 C   0  0  0  0  0  0  0  0  0  0  0  0
   -2.5248   -0.8385    0.5910 C   0  0  0  0  0  0  0  0  0  0  0  0
   -1.8207   -0.1270   -1.6456 C   0  0  0  0  0  0  0  0  0  0  0  0
    1.7925    0.6366   -1.8238 H   0  0  0  0  0  0  0  0  0  0  0  0
    2.4579    2.2841   -1.8795 H   0  0  0  0  0  0  0  0  0  0  0  0
    3.4892    0.9136   -1.2222 H   0  0  0  0  0  0  0  0  0  0  0  0
    2.8973    0.1583    0.8798 H   0  0  0  0  0  0  0  0  0  0  0  0
    1.5754    0.8446    1.8249 H   0  0  0  0  0  0  0  0  0  0  0  0
    0.8276   -1.2128    1.0821 H   0  0  0  0  0  0  0  0  0  0  0  0
    1.1815   -0.9020   -0.6953 H   0  0  0  0  0  0  0  0  0  0  0  0
   -0.9185   -1.6798   -0.5136 H   0  0  0  0  0  0  0  0  0  0  0  0
   -2.2700   -0.9840    1.6542 H   0  0  0  0  0  0  0  0  0  0  0  0
   -3.2308    0.0202    0.5347 H   0  0  0  0  0  0  0  0  0  0  0  0
   -3.1050   -1.7354    0.2835 H   0  0  0  0  0  0  0  0  0  0  0  0
   -2.6786   -0.7661   -1.9907 H   0  0  0  0  0  0  0  0  0  0  0  0
   -1.0045   -0.1750   -2.3808 H   0  0  0  0  0  0  0  0  0  0  0  0
   -2.1426    0.9217   -1.5126 H   0  0  0  0  0  0  0  0  0  0  0  0
  1  2  1  0
  2  3  1  0
  3  4  1  0
  4  5  1  0
  5  6  1  0
  6  7  1  0
  6  8  1  0
  1  9  1  0
  1 10  1  0
  1 11  1  0
  3 12  1  0
  3 13  1  0
  4 14  1  0
  4 15  1  0
  6 16  1  0
  7 17  1  0
  7 18  1  0
  7 19  1  0
  8 20  1  0
  8 21  1  0
  8 22  1  0
M  END
