
     RDKit          3D

 21 22  0  0  0  0  0  0  0  0999 V2000
   -2.5950    1.0115    0.4658 C   0  0  0  0  0  0  0  0  0  0  0  0
   -2.7270   -0.2636   -0.0667 O   0  0  0  0  0  0  0  0  0  0  0  0
   -1.6336   -1.0686    0.2076 C   0  0  0  0  0  0  0  0  0  0  0  0
   -0.4204   -0.4492   -0.3555 C   0  0  0  0  0  0  0  0  0  0  0  0
    0.8822   -1.1631   -0.1865 C   0  0  0  0  0  0  0  0  0  0  0  0
    0.8279   -0.8669    1.1343 O   0  0  0  0  0  0  0  0  0  0  0  0
    0.4390    0.3557    0.5832 C   0  0  0  0  0  0  0  0  0  0  0  0
    1.5191    0.1872   -0.4139 C   0  0  0  0  0  0  0  0  0  0  0  0
    2.9263    0.3439    0.0181 C   0  0  0  0  0  0  0  0  0  0  0  0
   -2.4703    0.9797    1.5641 H   0  0  0  0  0  0  0  0  0  0  0  0
   -1.8279    1.6259   -0.0349 H   0  0  0  0  0  0  0  0  0  0  0  0
   -3.5712    1.5332    0.2969 H   0  0  0  0  0  0  0  0  0  0  0  0
   -1.8506   -2.0655   -0.2341 H   0  0  0  0  0  0  0  0  0  0  0  0
   -1.5434   -1.1479    1.3104 H   0  0  0  0  0  0  0  0  0  0  0  0
   -0.4850    0.0119   -1.3568 H   0  0  0  0  0  0  0  0  0  0  0  0
    1.1657   -2.0179   -0.6439 H   0  0  0  0  0  0  0  0  0  0  0  0
    0.1846    1.1696    1.1146 H   0  0  0  0  0  0  0  0  0  0  0  0
    1.2632    0.6206   -1.4140 H   0  0  0  0  0  0  0  0  0  0  0  0
    3.5558    0.4907   -0.9075 H   0  0  0  0  0  0  0  0  0  0  0  0
    3.0312    1.2690    0.6094 H   0  0  0  0  0  0  0  0  0  0  0  0
    3.3294   -0.5564    0.5178 H   0  0  0  0  0  0  0  0  0  0  0  0
  1  2  1  0
  2  3  1  0
  3  4  1  0
  4  5  1  0
  5  6  1  0
  6  7  1  0
  7  8  1  0
  8  9  1  0
  7  4  1  0
  8  5  1  0
  1 10  1  0
  1 11  1  0
  1 12  1  0
  3 13  1  0
  3 14  1  0
  4 15  1  0
  5 16  1  0
  7 17  1  0
  8 18  1  0
  9 19  1  0
  9 20  1  0
  9 21  1  0
M  END
