
     RDKit          3D

 19 19  0  0  0  0  0  0  0  0999 V2000
    2.9632   -0.4156   -0.5749 C   0  0  0  0  0  0  0  0  0  0  0  0
    1.6300   -0.4002   -1.0031 O   0  0  0  0  0  0  0  0  0  0  0  0
    0.8618    0.1324    0.0384 C   0  0  0  0  0  0  0  0  0  0  0  0
   -0.5952    0.1915   -0.3254 C   0  0  0  0  0  0  0  0  0  0  0  0
   -1.2548   -1.1034   -0.6527 C   0  0  0  0  0  0  0  0  0  0  0  0
   -2.1561   -0.9528    0.4112 O   0  0  0  0  0  0  0  0  0  0  0  0
   -1.5000    0.2037    0.8664 C   0  0  0  0  0  0  0  0  0  0  0  0
   -2.4266    1.3596    0.9523 C   0  0  0  0  0  0  0  0  0  0  0  0
   -1.9655    2.4360    1.3410 O   0  0  0  0  0  0  0  0  0  0  0  0
    3.2543    0.6207   -0.3529 H   0  0  0  0  0  0  0  0  0  0  0  0
    3.0087   -1.0901    0.2998 H   0  0  0  0  0  0  0  0  0  0  0  0
    3.6037   -0.8739   -1.3736 H   0  0  0  0  0  0  0  0  0  0  0  0
    1.2200    1.1581    0.2254 H   0  0  0  0  0  0  0  0  0  0  0  0
    1.0587   -0.4564    0.9534 H   0  0  0  0  0  0  0  0  0  0  0  0
   -0.7834    0.9819   -1.0701 H   0  0  0  0  0  0  0  0  0  0  0  0
   -0.6348   -2.0057   -0.6253 H   0  0  0  0  0  0  0  0  0  0  0  0
   -1.8344   -1.0861   -1.6116 H   0  0  0  0  0  0  0  0  0  0  0  0
   -0.9889   -0.0076    1.8040 H   0  0  0  0  0  0  0  0  0  0  0  0
   -3.4607    1.3079    0.6975 H   0  0  0  0  0  0  0  0  0  0  0  0
  1  2  1  0
  2  3  1  0
  3  4  1  0
  4  5  1  0
  5  6  1  0
  6  7  1  0
  7  8  1  0
  8  9  2  0
  7  4  1  0
  1 10  1  0
  1 11  1  0
  1 12  1  0
  3 13  1  0
  3 14  1  0
  4 15  1  0
  5 16  1  0
  5 17  1  0
  7 18  1  0
  8 19  1  0
M  END
