
     RDKit          3D

 21 21  0  0  0  0  0  0  0  0999 V2000
    2.9717    0.8579    0.7171 C   0  0  0  0  0  0  0  0  0  0  0  0
    1.9588   -0.0936    0.8344 O   0  0  0  0  0  0  0  0  0  0  0  0
    1.1603    0.0136   -0.2798 C   0  0  0  0  0  0  0  0  0  0  0  0
    0.0081   -0.9831   -0.2669 C   0  0  0  0  0  0  0  0  0  0  0  0
   -0.7605   -0.7733   -1.4901 C   0  0  0  0  0  0  0  0  0  0  0  0
   -1.7677    0.0193   -1.2996 C   0  0  0  0  0  0  0  0  0  0  0  0
   -1.8054    0.4539    0.1115 C   0  0  0  0  0  0  0  0  0  0  0  0
   -3.1558    0.3687    0.5197 O   0  0  0  0  0  0  0  0  0  0  0  0
   -0.9828   -0.6086    0.8314 C   0  0  0  0  0  0  0  0  0  0  0  0
    3.6250    0.7836    1.6097 H   0  0  0  0  0  0  0  0  0  0  0  0
    3.5335    0.6271   -0.2194 H   0  0  0  0  0  0  0  0  0  0  0  0
    2.5511    1.8813    0.6161 H   0  0  0  0  0  0  0  0  0  0  0  0
    0.7317    1.0341   -0.3388 H   0  0  0  0  0  0  0  0  0  0  0  0
    1.7790   -0.1162   -1.1899 H   0  0  0  0  0  0  0  0  0  0  0  0
    0.3753   -2.0214   -0.1361 H   0  0  0  0  0  0  0  0  0  0  0  0
   -0.5262   -1.2276   -2.4693 H   0  0  0  0  0  0  0  0  0  0  0  0
   -2.5282    0.3590   -2.0525 H   0  0  0  0  0  0  0  0  0  0  0  0
   -1.4214    1.4704    0.2810 H   0  0  0  0  0  0  0  0  0  0  0  0
   -3.6295   -0.3644    0.0350 H   0  0  0  0  0  0  0  0  0  0  0  0
   -0.4732   -0.2124    1.7164 H   0  0  0  0  0  0  0  0  0  0  0  0
   -1.6439   -1.4683    1.0227 H   0  0  0  0  0  0  0  0  0  0  0  0
  1  2  1  0
  2  3  1  0
  3  4  1  0
  4  5  1  0
  5  6  2  0
  6  7  1  0
  7  8  1  0
  7  9  1  0
  9  4  1  0
  1 10  1  0
  1 11  1  0
  1 12  1  0
  3 13  1  0
  3 14  1  0
  4 15  1  0
  5 16  1  0
  6 17  1  0
  7 18  1  0
  8 19  1  0
  9 20  1  0
  9 21  1  0
M  END
