
     RDKit          3D

 23 22  0  0  0  0  0  0  0  0999 V2000
    3.6168   -0.3385    0.1261 C   0  0  0  0  0  0  0  0  0  0  0  0
    2.4945    0.3602    0.5659 O   0  0  0  0  0  0  0  0  0  0  0  0
    1.4033   -0.1504   -0.1340 C   0  0  0  0  0  0  0  0  0  0  0  0
    0.1377    0.5739    0.3017 C   0  0  0  0  0  0  0  0  0  0  0  0
    0.3157    2.0492    0.0335 C   0  0  0  0  0  0  0  0  0  0  0  0
   -0.9026    0.0238   -0.4254 O   0  0  0  0  0  0  0  0  0  0  0  0
   -1.8817   -0.5486    0.3782 C   0  0  0  0  0  0  0  0  0  0  0  0
   -2.9344   -1.0969   -0.5908 C   0  0  0  0  0  0  0  0  0  0  0  0
   -3.9340   -1.6793    0.1775 O   0  0  0  0  0  0  0  0  0  0  0  0
    3.6954   -0.1533   -0.9637 H   0  0  0  0  0  0  0  0  0  0  0  0
    3.4807   -1.4448    0.2588 H   0  0  0  0  0  0  0  0  0  0  0  0
    4.4755   -0.0042    0.7087 H   0  0  0  0  0  0  0  0  0  0  0  0
    1.5494    0.0335   -1.2313 H   0  0  0  0  0  0  0  0  0  0  0  0
    1.2477   -1.2301    0.0327 H   0  0  0  0  0  0  0  0  0  0  0  0
   -0.0128    0.4506    1.3852 H   0  0  0  0  0  0  0  0  0  0  0  0
    1.3796    2.3527   -0.0238 H   0  0  0  0  0  0  0  0  0  0  0  0
   -0.1456    2.6822    0.8238 H   0  0  0  0  0  0  0  0  0  0  0  0
   -0.1241    2.2496   -0.9617 H   0  0  0  0  0  0  0  0  0  0  0  0
   -2.3179    0.2603    1.0178 H   0  0  0  0  0  0  0  0  0  0  0  0
   -1.4956   -1.3846    1.0009 H   0  0  0  0  0  0  0  0  0  0  0  0
   -3.2950   -0.2376   -1.1941 H   0  0  0  0  0  0  0  0  0  0  0  0
   -2.4049   -1.8359   -1.2260 H   0  0  0  0  0  0  0  0  0  0  0  0
   -4.3475   -0.9317    0.7013 H   0  0  0  0  0  0  0  0  0  0  0  0
  1  2  1  0
  2  3  1  0
  3  4  1  0
  4  5  1  0
  4  6  1  0
  6  7  1  0
  7  8  1  0
  8  9  1  0
  1 10  1  0
  1 11  1  0
  1 12  1  0
  3 13  1  0
  3 14  1  0
  4 15  1  0
  5 16  1  0
  5 17  1  0
  5 18  1  0
  7 19  1  0
  7 20  1  0
  8 21  1  0
  8 22  1  0
  9 23  1  0
M  END
