
     RDKit          3D

 21 22  0  0  0  0  0  0  0  0999 V2000
    3.0845    0.1055    0.0759 C   0  0  0  0  0  0  0  0  0  0  0  0
    1.8249   -0.3834    0.2711 O   0  0  0  0  0  0  0  0  0  0  0  0
    0.8646    0.2737   -0.4980 C   0  0  0  0  0  0  0  0  0  0  0  0
   -0.4999   -0.3625   -0.1916 C   0  0  0  0  0  0  0  0  0  0  0  0
   -0.4712   -1.8589   -0.5477 C   0  0  0  0  0  0  0  0  0  0  0  0
   -1.1649    0.1492    0.9820 C   0  0  0  0  0  0  0  0  0  0  0  0
   -2.1866    1.2997    0.9884 C   0  0  0  0  0  0  0  0  0  0  0  0
   -2.9103    0.3615    0.2014 O   0  0  0  0  0  0  0  0  0  0  0  0
   -1.6987    0.3335   -0.4960 C   0  0  0  0  0  0  0  0  0  0  0  0
    3.7818   -0.4690    0.7212 H   0  0  0  0  0  0  0  0  0  0  0  0
    3.4595    0.0169   -0.9609 H   0  0  0  0  0  0  0  0  0  0  0  0
    3.1222    1.1538    0.4470 H   0  0  0  0  0  0  0  0  0  0  0  0
    1.0472    0.1454   -1.5853 H   0  0  0  0  0  0  0  0  0  0  0  0
    0.8523    1.3540   -0.2246 H   0  0  0  0  0  0  0  0  0  0  0  0
   -0.3446   -1.9360   -1.6305 H   0  0  0  0  0  0  0  0  0  0  0  0
    0.3778   -2.2778    0.0395 H   0  0  0  0  0  0  0  0  0  0  0  0
   -1.4514   -2.2589   -0.1902 H   0  0  0  0  0  0  0  0  0  0  0  0
   -1.6685   -0.6989    1.5480 H   0  0  0  0  0  0  0  0  0  0  0  0
   -2.6025    1.4684    1.9869 H   0  0  0  0  0  0  0  0  0  0  0  0
   -1.8787    2.2081    0.4860 H   0  0  0  0  0  0  0  0  0  0  0  0
   -1.5374    1.3757   -0.9157 H   0  0  0  0  0  0  0  0  0  0  0  0
  1  2  1  0
  2  3  1  0
  3  4  1  0
  4  5  1  0
  4  6  1  0
  6  7  1  0
  7  8  1  0
  8  9  1  0
  9  4  1  0
  9  6  1  0
  1 10  1  0
  1 11  1  0
  1 12  1  0
  3 13  1  0
  3 14  1  0
  5 15  1  0
  5 16  1  0
  5 17  1  0
  6 18  1  0
  7 19  1  0
  7 20  1  0
  9 21  1  0
M  END
