
     RDKit          3D

 23 23  0  0  0  0  0  0  0  0999 V2000
    2.7082   -0.9510    1.5975 C   0  0  0  0  0  0  0  0  0  0  0  0
    2.0579    0.2227    1.1636 O   0  0  0  0  0  0  0  0  0  0  0  0
    1.8992    0.0917   -0.2131 C   0  0  0  0  0  0  0  0  0  0  0  0
    1.2141    1.2765   -0.8283 C   0  0  0  0  0  0  0  0  0  0  0  0
   -0.0428    1.5345   -0.3572 O   0  0  0  0  0  0  0  0  0  0  0  0
   -0.9582    0.5208   -0.5401 C   0  0  0  0  0  0  0  0  0  0  0  0
   -2.3767    0.7787   -0.8451 C   0  0  0  0  0  0  0  0  0  0  0  0
   -1.9574    0.3517    0.5418 C   0  0  0  0  0  0  0  0  0  0  0  0
   -2.4431   -1.0240    0.9403 C   0  0  0  0  0  0  0  0  0  0  0  0
    3.6894   -1.0823    1.1193 H   0  0  0  0  0  0  0  0  0  0  0  0
    2.0969   -1.8429    1.3096 H   0  0  0  0  0  0  0  0  0  0  0  0
    2.8671   -0.9150    2.6947 H   0  0  0  0  0  0  0  0  0  0  0  0
    1.3569   -0.8294   -0.4394 H   0  0  0  0  0  0  0  0  0  0  0  0
    2.9440    0.0821   -0.6464 H   0  0  0  0  0  0  0  0  0  0  0  0
    1.8527    2.1843   -0.7405 H   0  0  0  0  0  0  0  0  0  0  0  0
    1.1811    1.0712   -1.9371 H   0  0  0  0  0  0  0  0  0  0  0  0
   -0.5237   -0.3726   -1.0581 H   0  0  0  0  0  0  0  0  0  0  0  0
   -2.8029    1.8015   -0.8745 H   0  0  0  0  0  0  0  0  0  0  0  0
   -2.9325    0.0685   -1.4859 H   0  0  0  0  0  0  0  0  0  0  0  0
   -1.9769    1.0850    1.3675 H   0  0  0  0  0  0  0  0  0  0  0  0
   -2.1000   -1.3033    1.9570 H   0  0  0  0  0  0  0  0  0  0  0  0
   -3.5516   -0.9622    0.9874 H   0  0  0  0  0  0  0  0  0  0  0  0
   -2.2017   -1.7867    0.1812 H   0  0  0  0  0  0  0  0  0  0  0  0
  1  2  1  0
  2  3  1  0
  3  4  1  0
  4  5  1  0
  5  6  1  0
  6  7  1  0
  7  8  1  0
  8  9  1  0
  8  6  1  0
  1 10  1  0
  1 11  1  0
  1 12  1  0
  3 13  1  0
  3 14  1  0
  4 15  1  0
  4 16  1  0
  6 17  1  0
  7 18  1  0
  7 19  1  0
  8 20  1  0
  9 21  1  0
  9 22  1  0
  9 23  1  0
M  END
