
     RDKit          3D

 19 19  0  0  0  0  0  0  0  0999 V2000
    3.3322   -0.0105    0.3703 C   0  0  0  0  0  0  0  0  0  0  0  0
    2.1684   -0.7423    0.3408 O   0  0  0  0  0  0  0  0  0  0  0  0
    1.0413    0.0483    0.1255 C   0  0  0  0  0  0  0  0  0  0  0  0
   -0.1770   -0.7694    0.1010 C   0  0  0  0  0  0  0  0  0  0  0  0
   -0.0760   -1.9750    0.2617 O   0  0  0  0  0  0  0  0  0  0  0  0
   -1.5412   -0.2392   -0.1066 C   0  0  0  0  0  0  0  0  0  0  0  0
   -1.6300    1.2552   -0.3019 C   0  0  0  0  0  0  0  0  0  0  0  0
   -2.6889   -1.0503   -0.3910 C   0  0  0  0  0  0  0  0  0  0  0  0
   -2.4360   -0.7250    0.9795 O   0  0  0  0  0  0  0  0  0  0  0  0
    3.5130    0.5428   -0.5965 H   0  0  0  0  0  0  0  0  0  0  0  0
    4.1761   -0.7260    0.4492 H   0  0  0  0  0  0  0  0  0  0  0  0
    3.3546    0.7604    1.1626 H   0  0  0  0  0  0  0  0  0  0  0  0
    1.2186    0.5789   -0.8478 H   0  0  0  0  0  0  0  0  0  0  0  0
    1.0398    0.8262    0.9152 H   0  0  0  0  0  0  0  0  0  0  0  0
   -2.6563    1.5855    0.0092 H   0  0  0  0  0  0  0  0  0  0  0  0
   -0.8513    1.7993    0.3095 H   0  0  0  0  0  0  0  0  0  0  0  0
   -1.5385    1.5416   -1.3709 H   0  0  0  0  0  0  0  0  0  0  0  0
   -3.6017   -0.5644   -0.7670 H   0  0  0  0  0  0  0  0  0  0  0  0
   -2.6473   -2.1360   -0.6430 H   0  0  0  0  0  0  0  0  0  0  0  0
  1  2  1  0
  2  3  1  0
  3  4  1  0
  4  5  2  0
  4  6  1  0
  6  7  1  0
  6  8  1  0
  8  9  1  0
  9  6  1  0
  1 10  1  0
  1 11  1  0
  1 12  1  0
  3 13  1  0
  3 14  1  0
  7 15  1  0
  7 16  1  0
  7 17  1  0
  8 18  1  0
  8 19  1  0
M  END
