
     RDKit          3D

 20 19  0  0  0  0  0  0  0  0999 V2000
    2.8732    0.5169   -0.0618 C   0  0  0  0  0  0  0  0  0  0  0  0
    1.5336    0.6788    0.2577 O   0  0  0  0  0  0  0  0  0  0  0  0
    0.7809   -0.4559   -0.0271 C   0  0  0  0  0  0  0  0  0  0  0  0
   -0.6602   -0.1758    0.3567 C   0  0  0  0  0  0  0  0  0  0  0  0
   -1.5612   -1.3443    0.0607 C   0  0  0  0  0  0  0  0  0  0  0  0
   -0.7625    0.1202    1.7110 O   0  0  0  0  0  0  0  0  0  0  0  0
   -1.1403    0.9814   -0.5052 C   0  0  0  0  0  0  0  0  0  0  0  0
   -2.4734    1.2120   -0.1749 O   0  0  0  0  0  0  0  0  0  0  0  0
    3.3983    1.4598    0.1942 H   0  0  0  0  0  0  0  0  0  0  0  0
    2.9256    0.3194   -1.1522 H   0  0  0  0  0  0  0  0  0  0  0  0
    3.3540   -0.2847    0.5333 H   0  0  0  0  0  0  0  0  0  0  0  0
    1.1961   -1.3143    0.5423 H   0  0  0  0  0  0  0  0  0  0  0  0
    0.8704   -0.6426   -1.1129 H   0  0  0  0  0  0  0  0  0  0  0  0
   -1.4024   -2.1486    0.7978 H   0  0  0  0  0  0  0  0  0  0  0  0
   -2.6105   -0.9918    0.1892 H   0  0  0  0  0  0  0  0  0  0  0  0
   -1.4868   -1.6862   -0.9919 H   0  0  0  0  0  0  0  0  0  0  0  0
   -0.7214   -0.7034    2.2396 H   0  0  0  0  0  0  0  0  0  0  0  0
   -1.0840    0.6267   -1.5553 H   0  0  0  0  0  0  0  0  0  0  0  0
   -0.5127    1.8853   -0.3810 H   0  0  0  0  0  0  0  0  0  0  0  0
   -2.5168    1.9473    0.4752 H   0  0  0  0  0  0  0  0  0  0  0  0
  1  2  1  0
  2  3  1  0
  3  4  1  0
  4  5  1  0
  4  6  1  0
  4  7  1  0
  7  8  1  0
  1  9  1  0
  1 10  1  0
  1 11  1  0
  3 12  1  0
  3 13  1  0
  5 14  1  0
  5 15  1  0
  5 16  1  0
  6 17  1  0
  7 18  1  0
  7 19  1  0
  8 20  1  0
M  END
