
     RDKit          3D

 18 17  0  0  0  0  0  0  0  0999 V2000
    2.0253    0.8813    0.5736 C   0  0  0  0  0  0  0  0  0  0  0  0
    1.4557   -0.1026    1.3312 O   0  0  0  0  0  0  0  0  0  0  0  0
    0.6625   -1.0092    0.7245 C   0  0  0  0  0  0  0  0  0  0  0  0
   -0.6034   -0.5516    0.0809 C   0  0  0  0  0  0  0  0  0  0  0  0
   -1.2554   -1.7972   -0.5173 C   0  0  0  0  0  0  0  0  0  0  0  0
   -1.5145   -2.7385    0.1816 O   0  0  0  0  0  0  0  0  0  0  0  0
   -0.4159    0.3644   -0.9156 O   0  0  0  0  0  0  0  0  0  0  0  0
   -1.2997    1.4477   -0.8388 C   0  0  0  0  0  0  0  0  0  0  0  0
    1.3269    1.5462    0.0659 H   0  0  0  0  0  0  0  0  0  0  0  0
    2.7624    0.4840   -0.1702 H   0  0  0  0  0  0  0  0  0  0  0  0
    2.6533    1.5278    1.2534 H   0  0  0  0  0  0  0  0  0  0  0  0
    0.3489   -1.7599    1.5324 H   0  0  0  0  0  0  0  0  0  0  0  0
    1.2907   -1.5958   -0.0302 H   0  0  0  0  0  0  0  0  0  0  0  0
   -1.3951   -0.2191    0.8109 H   0  0  0  0  0  0  0  0  0  0  0  0
   -1.4663   -1.7953   -1.5596 H   0  0  0  0  0  0  0  0  0  0  0  0
   -2.3539    1.1504   -0.9063 H   0  0  0  0  0  0  0  0  0  0  0  0
   -1.1331    2.0544    0.0854 H   0  0  0  0  0  0  0  0  0  0  0  0
   -1.0883    2.1131   -1.7017 H   0  0  0  0  0  0  0  0  0  0  0  0
  1  2  1  0
  2  3  1  0
  3  4  1  0
  4  5  1  0
  5  6  2  0
  4  7  1  0
  7  8  1  0
  1  9  1  0
  1 10  1  0
  1 11  1  0
  3 12  1  0
  3 13  1  0
  4 14  1  0
  5 15  1  0
  8 16  1  0
  8 17  1  0
  8 18  1  0
M  END
