
     RDKit          3D

 23 22  0  0  0  0  0  0  0  0999 V2000
   -3.1839    0.0585    0.0166 C   0  0  0  0  0  0  0  0  0  0  0  0
   -2.3462    0.6991   -0.8791 O   0  0  0  0  0  0  0  0  0  0  0  0
   -1.0785    0.1809   -0.9668 C   0  0  0  0  0  0  0  0  0  0  0  0
   -0.3264    0.2100    0.3224 C   0  0  0  0  0  0  0  0  0  0  0  0
    1.0590   -0.3546    0.2233 C   0  0  0  0  0  0  0  0  0  0  0  0
    1.0656   -1.7997   -0.2194 C   0  0  0  0  0  0  0  0  0  0  0  0
    1.9756    0.4176   -0.6644 C   0  0  0  0  0  0  0  0  0  0  0  0
    2.1633    1.8197   -0.2224 C   0  0  0  0  0  0  0  0  0  0  0  0
    1.3123    2.6358   -0.4982 O   0  0  0  0  0  0  0  0  0  0  0  0
   -4.1634    0.6012   -0.0369 H   0  0  0  0  0  0  0  0  0  0  0  0
   -2.8257    0.1629    1.0608 H   0  0  0  0  0  0  0  0  0  0  0  0
   -3.3540   -1.0112   -0.2298 H   0  0  0  0  0  0  0  0  0  0  0  0
   -1.1315   -0.8356   -1.4213 H   0  0  0  0  0  0  0  0  0  0  0  0
   -0.5094    0.8072   -1.6922 H   0  0  0  0  0  0  0  0  0  0  0  0
   -0.8915   -0.4390    1.0505 H   0  0  0  0  0  0  0  0  0  0  0  0
   -0.3325    1.2356    0.7093 H   0  0  0  0  0  0  0  0  0  0  0  0
    1.5020   -0.3132    1.2538 H   0  0  0  0  0  0  0  0  0  0  0  0
    0.2661   -2.3876    0.2812 H   0  0  0  0  0  0  0  0  0  0  0  0
    2.0871   -2.1924    0.0630 H   0  0  0  0  0  0  0  0  0  0  0  0
    1.0388   -1.9070   -1.3348 H   0  0  0  0  0  0  0  0  0  0  0  0
    2.9835   -0.0805   -0.5953 H   0  0  0  0  0  0  0  0  0  0  0  0
    1.6597    0.3254   -1.7126 H   0  0  0  0  0  0  0  0  0  0  0  0
    3.0299    2.1669    0.3426 H   0  0  0  0  0  0  0  0  0  0  0  0
  1  2  1  0
  2  3  1  0
  3  4  1  0
  4  5  1  0
  5  6  1  0
  5  7  1  0
  7  8  1  0
  8  9  2  0
  1 10  1  0
  1 11  1  0
  1 12  1  0
  3 13  1  0
  3 14  1  0
  4 15  1  0
  4 16  1  0
  5 17  1  0
  6 18  1  0
  6 19  1  0
  6 20  1  0
  7 21  1  0
  7 22  1  0
  8 23  1  0
M  END
