
     RDKit          3D

 23 23  0  0  0  0  0  0  0  0999 V2000
    2.7361    1.1926   -0.1384 C   0  0  0  0  0  0  0  0  0  0  0  0
    1.5685    0.7103   -0.7098 O   0  0  0  0  0  0  0  0  0  0  0  0
    1.0100   -0.3297    0.0213 C   0  0  0  0  0  0  0  0  0  0  0  0
   -0.2475   -0.8637   -0.5759 C   0  0  0  0  0  0  0  0  0  0  0  0
   -0.7275   -1.9954    0.3477 C   0  0  0  0  0  0  0  0  0  0  0  0
   -1.3009   -1.1916    1.4622 C   0  0  0  0  0  0  0  0  0  0  0  0
   -1.6993   -0.0048    1.0182 C   0  0  0  0  0  0  0  0  0  0  0  0
   -1.4181    0.0747   -0.4481 C   0  0  0  0  0  0  0  0  0  0  0  0
   -1.1126    1.4734   -0.8918 C   0  0  0  0  0  0  0  0  0  0  0  0
    3.1275    2.0134   -0.7650 H   0  0  0  0  0  0  0  0  0  0  0  0
    3.5324    0.4339   -0.0691 H   0  0  0  0  0  0  0  0  0  0  0  0
    2.4739    1.6207    0.8748 H   0  0  0  0  0  0  0  0  0  0  0  0
    0.8542   -0.0211    1.0647 H   0  0  0  0  0  0  0  0  0  0  0  0
    1.7576   -1.1496    0.0360 H   0  0  0  0  0  0  0  0  0  0  0  0
   -0.0861   -1.2346   -1.5996 H   0  0  0  0  0  0  0  0  0  0  0  0
   -1.5711   -2.4853   -0.1669 H   0  0  0  0  0  0  0  0  0  0  0  0
    0.0839   -2.6528    0.6471 H   0  0  0  0  0  0  0  0  0  0  0  0
   -1.3979   -1.4911    2.4961 H   0  0  0  0  0  0  0  0  0  0  0  0
   -2.1483    0.7849    1.5800 H   0  0  0  0  0  0  0  0  0  0  0  0
   -2.2511   -0.3087   -1.0410 H   0  0  0  0  0  0  0  0  0  0  0  0
   -0.3451    1.9804   -0.2758 H   0  0  0  0  0  0  0  0  0  0  0  0
   -0.7609    1.4171   -1.9430 H   0  0  0  0  0  0  0  0  0  0  0  0
   -2.0779    2.0270   -0.9236 H   0  0  0  0  0  0  0  0  0  0  0  0
  1  2  1  0
  2  3  1  0
  3  4  1  0
  4  5  1  0
  5  6  1  0
  6  7  2  0
  7  8  1  0
  8  9  1  0
  8  4  1  0
  1 10  1  0
  1 11  1  0
  1 12  1  0
  3 13  1  0
  3 14  1  0
  4 15  1  0
  5 16  1  0
  5 17  1  0
  6 18  1  0
  7 19  1  0
  8 20  1  0
  9 21  1  0
  9 22  1  0
  9 23  1  0
M  END
