
     RDKit          3D

 18 18  0  0  0  0  0  0  0  0999 V2000
    2.4916   -0.5774   -0.5835 C   0  0  0  0  0  0  0  0  0  0  0  0
    1.7296    0.4320   -1.1647 O   0  0  0  0  0  0  0  0  0  0  0  0
    0.7761    0.8784   -0.2768 C   0  0  0  0  0  0  0  0  0  0  0  0
   -0.1813   -0.1964    0.1671 C   0  0  0  0  0  0  0  0  0  0  0  0
   -0.9132   -0.7870   -0.8647 O   0  0  0  0  0  0  0  0  0  0  0  0
   -1.9443   -0.9568    0.0631 C   0  0  0  0  0  0  0  0  0  0  0  0
   -1.5013    0.3682    0.6557 C   0  0  0  0  0  0  0  0  0  0  0  0
   -1.9484    1.3937   -0.1289 O   0  0  0  0  0  0  0  0  0  0  0  0
    1.8984   -1.4522   -0.2799 H   0  0  0  0  0  0  0  0  0  0  0  0
    2.9396   -0.1648    0.3546 H   0  0  0  0  0  0  0  0  0  0  0  0
    3.2733   -0.9083   -1.2987 H   0  0  0  0  0  0  0  0  0  0  0  0
    0.2030    1.7339   -0.6781 H   0  0  0  0  0  0  0  0  0  0  0  0
    1.2908    1.2358    0.6611 H   0  0  0  0  0  0  0  0  0  0  0  0
    0.2716   -0.9386    0.8360 H   0  0  0  0  0  0  0  0  0  0  0  0
   -2.9623   -0.9668   -0.3594 H   0  0  0  0  0  0  0  0  0  0  0  0
   -1.6827   -1.7866    0.7457 H   0  0  0  0  0  0  0  0  0  0  0  0
   -1.6100    0.4570    1.7445 H   0  0  0  0  0  0  0  0  0  0  0  0
   -2.1304    2.2358    0.3438 H   0  0  0  0  0  0  0  0  0  0  0  0
  1  2  1  0
  2  3  1  0
  3  4  1  0
  4  5  1  0
  5  6  1  0
  6  7  1  0
  7  8  1  0
  7  4  1  0
  1  9  1  0
  1 10  1  0
  1 11  1  0
  3 12  1  0
  3 13  1  0
  4 14  1  0
  6 15  1  0
  6 16  1  0
  7 17  1  0
  8 18  1  0
M  END
