
     RDKit          3D

 23 22  0  0  0  0  0  0  0  0999 V2000
   -3.0238    0.8067   -0.1911 C   0  0  0  0  0  0  0  0  0  0  0  0
   -2.2076   -0.0974   -0.8160 O   0  0  0  0  0  0  0  0  0  0  0  0
   -1.9163   -1.2296   -0.1118 C   0  0  0  0  0  0  0  0  0  0  0  0
   -1.2086   -0.9422    1.1850 C   0  0  0  0  0  0  0  0  0  0  0  0
   -0.0072   -0.2831    1.0078 O   0  0  0  0  0  0  0  0  0  0  0  0
    0.9096   -0.9620    0.2505 C   0  0  0  0  0  0  0  0  0  0  0  0
    2.1599   -0.1089    0.1540 C   0  0  0  0  0  0  0  0  0  0  0  0
    1.8868    1.1180   -0.4414 O   0  0  0  0  0  0  0  0  0  0  0  0
    3.0835    1.8376   -0.4914 C   0  0  0  0  0  0  0  0  0  0  0  0
   -2.6465    1.2122    0.7414 H   0  0  0  0  0  0  0  0  0  0  0  0
   -3.1812    1.6625   -0.9011 H   0  0  0  0  0  0  0  0  0  0  0  0
   -4.0527    0.4129   -0.0030 H   0  0  0  0  0  0  0  0  0  0  0  0
   -2.8858   -1.7210    0.1723 H   0  0  0  0  0  0  0  0  0  0  0  0
   -1.3580   -1.9752   -0.7115 H   0  0  0  0  0  0  0  0  0  0  0  0
   -1.0936   -1.8998    1.7406 H   0  0  0  0  0  0  0  0  0  0  0  0
   -1.8721   -0.3037    1.7967 H   0  0  0  0  0  0  0  0  0  0  0  0
    1.1813   -1.9536    0.6377 H   0  0  0  0  0  0  0  0  0  0  0  0
    0.5687   -1.1101   -0.8154 H   0  0  0  0  0  0  0  0  0  0  0  0
    2.9668   -0.5805   -0.4121 H   0  0  0  0  0  0  0  0  0  0  0  0
    2.5539    0.1242    1.1744 H   0  0  0  0  0  0  0  0  0  0  0  0
    3.4275    1.9577    0.5506 H   0  0  0  0  0  0  0  0  0  0  0  0
    3.8104    1.2282   -1.0936 H   0  0  0  0  0  0  0  0  0  0  0  0
    2.9049    2.8071   -0.9823 H   0  0  0  0  0  0  0  0  0  0  0  0
  1  2  1  0
  2  3  1  0
  3  4  1  0
  4  5  1  0
  5  6  1  0
  6  7  1  0
  7  8  1  0
  8  9  1  0
  1 10  1  0
  1 11  1  0
  1 12  1  0
  3 13  1  0
  3 14  1  0
  4 15  1  0
  4 16  1  0
  6 17  1  0
  6 18  1  0
  7 19  1  0
  7 20  1  0
  9 21  1  0
  9 22  1  0
  9 23  1  0
M  END
