
     RDKit          3D

 23 24  0  0  0  0  0  0  0  0999 V2000
    3.1410    0.8222    0.4727 C   0  0  0  0  0  0  0  0  0  0  0  0
    1.7565    0.5828    0.3528 O   0  0  0  0  0  0  0  0  0  0  0  0
    1.6355   -0.6181   -0.3444 C   0  0  0  0  0  0  0  0  0  0  0  0
    0.1875   -0.9692   -0.5284 C   0  0  0  0  0  0  0  0  0  0  0  0
   -0.6316    0.0407   -1.2959 C   0  0  0  0  0  0  0  0  0  0  0  0
   -1.6680    0.0200   -0.2355 C   0  0  0  0  0  0  0  0  0  0  0  0
   -2.3437    1.2958    0.1015 C   0  0  0  0  0  0  0  0  0  0  0  0
   -2.0897   -1.1906    0.4874 C   0  0  0  0  0  0  0  0  0  0  0  0
   -0.7122   -0.6702    0.6496 C   0  0  0  0  0  0  0  0  0  0  0  0
    3.5911   -0.0376    1.0367 H   0  0  0  0  0  0  0  0  0  0  0  0
    3.5433    0.7456   -0.5551 H   0  0  0  0  0  0  0  0  0  0  0  0
    3.3444    1.7693    0.9717 H   0  0  0  0  0  0  0  0  0  0  0  0
    2.1167   -0.4883   -1.3139 H   0  0  0  0  0  0  0  0  0  0  0  0
    2.1276   -1.4309    0.2265 H   0  0  0  0  0  0  0  0  0  0  0  0
    0.0449   -1.9698   -0.9798 H   0  0  0  0  0  0  0  0  0  0  0  0
   -0.9406   -0.2756   -2.3151 H   0  0  0  0  0  0  0  0  0  0  0  0
   -0.0774    1.0246   -1.2971 H   0  0  0  0  0  0  0  0  0  0  0  0
   -3.1848    1.4414   -0.6387 H   0  0  0  0  0  0  0  0  0  0  0  0
   -2.8622    1.2062    1.0877 H   0  0  0  0  0  0  0  0  0  0  0  0
   -1.7328    2.1956    0.0454 H   0  0  0  0  0  0  0  0  0  0  0  0
   -2.1701   -2.1783    0.0011 H   0  0  0  0  0  0  0  0  0  0  0  0
   -2.7546   -1.0539    1.3417 H   0  0  0  0  0  0  0  0  0  0  0  0
   -0.3210   -0.2615    1.5733 H   0  0  0  0  0  0  0  0  0  0  0  0
  1  2  1  0
  2  3  1  0
  3  4  1  0
  4  5  1  0
  5  6  1  0
  6  7  1  0
  6  8  1  0
  8  9  1  0
  9  4  1  0
  9  6  1  0
  1 10  1  0
  1 11  1  0
  1 12  1  0
  3 13  1  0
  3 14  1  0
  4 15  1  0
  5 16  1  0
  5 17  1  0
  7 18  1  0
  7 19  1  0
  7 20  1  0
  8 21  1  0
  8 22  1  0
  9 23  1  0
M  END
