
     RDKit          3D

 19 19  0  0  0  0  0  0  0  0999 V2000
    2.9286    0.0795   -1.0227 C   0  0  0  0  0  0  0  0  0  0  0  0
    1.6149    0.1221   -0.6117 O   0  0  0  0  0  0  0  0  0  0  0  0
    1.3126   -0.9352    0.2443 C   0  0  0  0  0  0  0  0  0  0  0  0
   -0.1012   -0.8541    0.6614 C   0  0  0  0  0  0  0  0  0  0  0  0
   -0.5040   -1.7422    1.4305 O   0  0  0  0  0  0  0  0  0  0  0  0
   -0.9751    0.2248    0.1853 C   0  0  0  0  0  0  0  0  0  0  0  0
   -1.9078    0.8303    1.1808 C   0  0  0  0  0  0  0  0  0  0  0  0
   -2.4474    0.0133    0.0489 C   0  0  0  0  0  0  0  0  0  0  0  0
   -3.1486    0.7367   -0.9064 O   0  0  0  0  0  0  0  0  0  0  0  0
    3.1251    0.9319   -1.6969 H   0  0  0  0  0  0  0  0  0  0  0  0
    3.1832   -0.8979   -1.4932 H   0  0  0  0  0  0  0  0  0  0  0  0
    3.5937    0.2279   -0.1383 H   0  0  0  0  0  0  0  0  0  0  0  0
    1.9470   -0.7793    1.1615 H   0  0  0  0  0  0  0  0  0  0  0  0
    1.5724   -1.8621   -0.2859 H   0  0  0  0  0  0  0  0  0  0  0  0
   -0.4837    0.9472   -0.4952 H   0  0  0  0  0  0  0  0  0  0  0  0
   -2.0575    0.3654    2.1811 H   0  0  0  0  0  0  0  0  0  0  0  0
   -2.0155    1.9254    1.2021 H   0  0  0  0  0  0  0  0  0  0  0  0
   -2.8233   -1.0005    0.2358 H   0  0  0  0  0  0  0  0  0  0  0  0
   -2.8136    1.6669   -0.9800 H   0  0  0  0  0  0  0  0  0  0  0  0
  1  2  1  0
  2  3  1  0
  3  4  1  0
  4  5  2  0
  4  6  1  0
  6  7  1  0
  7  8  1  0
  8  9  1  0
  8  6  1  0
  1 10  1  0
  1 11  1  0
  1 12  1  0
  3 13  1  0
  3 14  1  0
  6 15  1  0
  7 16  1  0
  7 17  1  0
  8 18  1  0
  9 19  1  0
M  END
