
     RDKit          3D

 23 23  0  0  0  0  0  0  0  0999 V2000
    3.2869   -0.0601    0.5545 C   0  0  0  0  0  0  0  0  0  0  0  0
    1.8868    0.0625    0.6632 O   0  0  0  0  0  0  0  0  0  0  0  0
    1.3783   -0.0621   -0.6117 C   0  0  0  0  0  0  0  0  0  0  0  0
   -0.1061    0.0421   -0.6972 C   0  0  0  0  0  0  0  0  0  0  0  0
   -0.5762    1.3921   -0.1797 C   0  0  0  0  0  0  0  0  0  0  0  0
   -1.5844    0.6850    0.6935 C   0  0  0  0  0  0  0  0  0  0  0  0
   -2.8590    0.8341    0.1427 O   0  0  0  0  0  0  0  0  0  0  0  0
   -0.9095   -0.6211    0.3663 C   0  0  0  0  0  0  0  0  0  0  0  0
   -1.9456   -1.6163   -0.1302 C   0  0  0  0  0  0  0  0  0  0  0  0
    3.4893   -1.0457    0.1282 H   0  0  0  0  0  0  0  0  0  0  0  0
    3.7839    0.0438    1.5362 H   0  0  0  0  0  0  0  0  0  0  0  0
    3.6911    0.7566   -0.1060 H   0  0  0  0  0  0  0  0  0  0  0  0
    1.7519   -0.9915   -1.0927 H   0  0  0  0  0  0  0  0  0  0  0  0
    1.8065    0.7931   -1.2115 H   0  0  0  0  0  0  0  0  0  0  0  0
   -0.4561   -0.2120   -1.7158 H   0  0  0  0  0  0  0  0  0  0  0  0
    0.1882    1.8835    0.4751 H   0  0  0  0  0  0  0  0  0  0  0  0
   -0.9966    2.0548   -0.9569 H   0  0  0  0  0  0  0  0  0  0  0  0
   -1.5911    0.9571    1.7539 H   0  0  0  0  0  0  0  0  0  0  0  0
   -3.1889    1.7215    0.4896 H   0  0  0  0  0  0  0  0  0  0  0  0
   -0.3642   -1.0447    1.2284 H   0  0  0  0  0  0  0  0  0  0  0  0
   -2.8162   -1.0651   -0.5704 H   0  0  0  0  0  0  0  0  0  0  0  0
   -1.5257   -2.3578   -0.8190 H   0  0  0  0  0  0  0  0  0  0  0  0
   -2.3434   -2.1498    0.7575 H   0  0  0  0  0  0  0  0  0  0  0  0
  1  2  1  0
  2  3  1  0
  3  4  1  0
  4  5  1  0
  5  6  1  0
  6  7  1  0
  6  8  1  0
  8  9  1  0
  8  4  1  0
  1 10  1  0
  1 11  1  0
  1 12  1  0
  3 13  1  0
  3 14  1  0
  4 15  1  0
  5 16  1  0
  5 17  1  0
  6 18  1  0
  7 19  1  0
  8 20  1  0
  9 21  1  0
  9 22  1  0
  9 23  1  0
M  END
