
     RDKit          3D

 21 20  0  0  0  0  0  0  0  0999 V2000
    2.5486    0.1794    0.6517 C   0  0  0  0  0  0  0  0  0  0  0  0
    1.6326    1.0818    0.1879 O   0  0  0  0  0  0  0  0  0  0  0  0
    0.9526    0.7537   -0.9458 C   0  0  0  0  0  0  0  0  0  0  0  0
    0.1252   -0.4710   -0.7855 C   0  0  0  0  0  0  0  0  0  0  0  0
   -0.9440   -0.3358    0.2824 C   0  0  0  0  0  0  0  0  0  0  0  0
   -1.9023    0.7931   -0.0437 C   0  0  0  0  0  0  0  0  0  0  0  0
   -0.4387   -0.0901    1.5416 O   0  0  0  0  0  0  0  0  0  0  0  0
   -1.6772   -1.6204    0.3009 C   0  0  0  0  0  0  0  0  0  0  0  0
   -1.7389   -2.2476    1.3350 O   0  0  0  0  0  0  0  0  0  0  0  0
    2.0955   -0.7878    0.8854 H   0  0  0  0  0  0  0  0  0  0  0  0
    3.3870    0.0105   -0.0667 H   0  0  0  0  0  0  0  0  0  0  0  0
    3.0256    0.6490    1.5615 H   0  0  0  0  0  0  0  0  0  0  0  0
    0.2746    1.6308   -1.1702 H   0  0  0  0  0  0  0  0  0  0  0  0
    1.6895    0.6371   -1.7669 H   0  0  0  0  0  0  0  0  0  0  0  0
    0.7393   -1.3475   -0.5193 H   0  0  0  0  0  0  0  0  0  0  0  0
   -0.4080   -0.7407   -1.7183 H   0  0  0  0  0  0  0  0  0  0  0  0
   -1.5040    1.7500    0.2992 H   0  0  0  0  0  0  0  0  0  0  0  0
   -2.1991    0.8159   -1.0987 H   0  0  0  0  0  0  0  0  0  0  0  0
   -2.8257    0.5925    0.5474 H   0  0  0  0  0  0  0  0  0  0  0  0
   -0.6631    0.7896    1.9072 H   0  0  0  0  0  0  0  0  0  0  0  0
   -2.1696   -2.0425   -0.5632 H   0  0  0  0  0  0  0  0  0  0  0  0
  1  2  1  0
  2  3  1  0
  3  4  1  0
  4  5  1  0
  5  6  1  0
  5  7  1  0
  5  8  1  0
  8  9  2  0
  1 10  1  0
  1 11  1  0
  1 12  1  0
  3 13  1  0
  3 14  1  0
  4 15  1  0
  4 16  1  0
  6 17  1  0
  6 18  1  0
  6 19  1  0
  7 20  1  0
  8 21  1  0
M  END
