
     RDKit          3D

 19 20  0  0  0  0  0  0  0  0999 V2000
    2.9826   -0.2151    0.0706 C   0  0  0  0  0  0  0  0  0  0  0  0
    1.7210    0.3920    0.1617 O   0  0  0  0  0  0  0  0  0  0  0  0
    0.8312   -0.3865   -0.5791 C   0  0  0  0  0  0  0  0  0  0  0  0
   -0.5572    0.1471   -0.5686 C   0  0  0  0  0  0  0  0  0  0  0  0
   -1.7401   -0.8058   -0.4892 C   0  0  0  0  0  0  0  0  0  0  0  0
   -2.7849   -0.0686    0.0227 O   0  0  0  0  0  0  0  0  0  0  0  0
   -2.2022    0.7550    0.9822 C   0  0  0  0  0  0  0  0  0  0  0  0
   -0.9579    1.2692    0.3170 C   0  0  0  0  0  0  0  0  0  0  0  0
   -0.8709    1.3938   -1.0435 O   0  0  0  0  0  0  0  0  0  0  0  0
    3.7484    0.3503    0.6384 H   0  0  0  0  0  0  0  0  0  0  0  0
    3.3030   -0.2272   -0.9764 H   0  0  0  0  0  0  0  0  0  0  0  0
    2.9219   -1.2612    0.4468 H   0  0  0  0  0  0  0  0  0  0  0  0
    1.2083   -0.5620   -1.6081 H   0  0  0  0  0  0  0  0  0  0  0  0
    0.8038   -1.3920   -0.0690 H   0  0  0  0  0  0  0  0  0  0  0  0
   -1.4498   -1.6678    0.1601 H   0  0  0  0  0  0  0  0  0  0  0  0
   -1.9444   -1.1564   -1.5394 H   0  0  0  0  0  0  0  0  0  0  0  0
   -1.9110    0.0643    1.8290 H   0  0  0  0  0  0  0  0  0  0  0  0
   -2.8875    1.5489    1.3260 H   0  0  0  0  0  0  0  0  0  0  0  0
   -0.2144    1.8218    0.9187 H   0  0  0  0  0  0  0  0  0  0  0  0
  1  2  1  0
  2  3  1  0
  3  4  1  0
  4  5  1  0
  5  6  1  0
  6  7  1  0
  7  8  1  0
  8  9  1  0
  8  4  1  0
  9  4  1  0
  1 10  1  0
  1 11  1  0
  1 12  1  0
  3 13  1  0
  3 14  1  0
  5 15  1  0
  5 16  1  0
  7 17  1  0
  7 18  1  0
  8 19  1  0
M  END
