
     RDKit          3D

 21 21  0  0  0  0  0  0  0  0999 V2000
    3.0199    0.4403    0.4253 C   0  0  0  0  0  0  0  0  0  0  0  0
    1.9341    0.4483   -0.4679 O   0  0  0  0  0  0  0  0  0  0  0  0
    0.7783    0.6369    0.2997 C   0  0  0  0  0  0  0  0  0  0  0  0
   -0.3876    0.6439   -0.6748 C   0  0  0  0  0  0  0  0  0  0  0  0
   -0.3785   -0.6914   -1.3716 C   0  0  0  0  0  0  0  0  0  0  0  0
   -1.4629   -1.4112   -0.9244 O   0  0  0  0  0  0  0  0  0  0  0  0
   -1.9334   -0.8460    0.2300 C   0  0  0  0  0  0  0  0  0  0  0  0
   -1.7099    0.6141    0.0306 C   0  0  0  0  0  0  0  0  0  0  0  0
   -1.7458    1.3680    1.1767 O   0  0  0  0  0  0  0  0  0  0  0  0
    2.9506   -0.3557    1.1709 H   0  0  0  0  0  0  0  0  0  0  0  0
    3.9291    0.3917   -0.2073 H   0  0  0  0  0  0  0  0  0  0  0  0
    3.0294    1.4700    0.8734 H   0  0  0  0  0  0  0  0  0  0  0  0
    0.6781   -0.3037    0.9172 H   0  0  0  0  0  0  0  0  0  0  0  0
    0.8186    1.5325    0.9287 H   0  0  0  0  0  0  0  0  0  0  0  0
   -0.2974    1.4964   -1.3755 H   0  0  0  0  0  0  0  0  0  0  0  0
    0.5571   -1.2608   -1.2136 H   0  0  0  0  0  0  0  0  0  0  0  0
   -0.4658   -0.4842   -2.4775 H   0  0  0  0  0  0  0  0  0  0  0  0
   -1.4426   -1.2659    1.1316 H   0  0  0  0  0  0  0  0  0  0  0  0
   -3.0238   -1.0166    0.3340 H   0  0  0  0  0  0  0  0  0  0  0  0
   -2.4733    0.9982   -0.6624 H   0  0  0  0  0  0  0  0  0  0  0  0
   -2.3742    1.0740    1.8572 H   0  0  0  0  0  0  0  0  0  0  0  0
  1  2  1  0
  2  3  1  0
  3  4  1  0
  4  5  1  0
  5  6  1  0
  6  7  1  0
  7  8  1  0
  8  9  1  0
  8  4  1  0
  1 10  1  0
  1 11  1  0
  1 12  1  0
  3 13  1  0
  3 14  1  0
  4 15  1  0
  5 16  1  0
  5 17  1  0
  7 18  1  0
  7 19  1  0
  8 20  1  0
  9 21  1  0
M  END
