
     RDKit          3D

 18 18  0  0  0  0  0  0  0  0999 V2000
    2.3449   -0.2822   -0.7602 C   0  0  0  0  0  0  0  0  0  0  0  0
    1.2906    0.5192   -1.2037 O   0  0  0  0  0  0  0  0  0  0  0  0
    0.5624    0.9446   -0.0766 C   0  0  0  0  0  0  0  0  0  0  0  0
    0.0285   -0.2351    0.6601 C   0  0  0  0  0  0  0  0  0  0  0  0
   -0.8877   -1.2192    0.0799 C   0  0  0  0  0  0  0  0  0  0  0  0
   -1.4168   -0.1542    1.0545 C   0  0  0  0  0  0  0  0  0  0  0  0
   -2.3233    0.8047    0.4314 C   0  0  0  0  0  0  0  0  0  0  0  0
   -3.2747    1.2244    1.0578 O   0  0  0  0  0  0  0  0  0  0  0  0
    2.9974    0.3168   -0.0789 H   0  0  0  0  0  0  0  0  0  0  0  0
    1.9086   -1.1297   -0.1876 H   0  0  0  0  0  0  0  0  0  0  0  0
    2.9180   -0.6517   -1.6363 H   0  0  0  0  0  0  0  0  0  0  0  0
   -0.2213    1.6583   -0.4040 H   0  0  0  0  0  0  0  0  0  0  0  0
    1.2099    1.5152    0.6192 H   0  0  0  0  0  0  0  0  0  0  0  0
    0.7501   -0.6372    1.4180 H   0  0  0  0  0  0  0  0  0  0  0  0
   -1.1581   -1.1434   -0.9806 H   0  0  0  0  0  0  0  0  0  0  0  0
   -0.9008   -2.2309    0.5016 H   0  0  0  0  0  0  0  0  0  0  0  0
   -1.6323   -0.4702    2.0936 H   0  0  0  0  0  0  0  0  0  0  0  0
   -2.1954    1.1706   -0.5748 H   0  0  0  0  0  0  0  0  0  0  0  0
  1  2  1  0
  2  3  1  0
  3  4  1  0
  4  5  1  0
  5  6  1  0
  6  7  1  0
  7  8  2  0
  6  4  1  0
  1  9  1  0
  1 10  1  0
  1 11  1  0
  3 12  1  0
  3 13  1  0
  4 14  1  0
  5 15  1  0
  5 16  1  0
  6 17  1  0
  7 18  1  0
M  END
