
     RDKit          3D

 21 21  0  0  0  0  0  0  0  0999 V2000
    2.6072    0.8702    0.1153 C   0  0  0  0  0  0  0  0  0  0  0  0
    2.1680    0.0530   -0.8771 O   0  0  0  0  0  0  0  0  0  0  0  0
    1.3188   -0.9566   -0.6174 C   0  0  0  0  0  0  0  0  0  0  0  0
   -0.0526   -0.5408   -0.1988 C   0  0  0  0  0  0  0  0  0  0  0  0
   -0.9951   -1.7345   -0.0610 C   0  0  0  0  0  0  0  0  0  0  0  0
   -0.0321    0.3066    0.9661 O   0  0  0  0  0  0  0  0  0  0  0  0
   -0.5157    0.7789   -0.3601 C   0  0  0  0  0  0  0  0  0  0  0  0
   -1.9523    1.2226   -0.1955 C   0  0  0  0  0  0  0  0  0  0  0  0
   -2.7432    0.1889    0.2400 O   0  0  0  0  0  0  0  0  0  0  0  0
    3.3006    1.6205   -0.4005 H   0  0  0  0  0  0  0  0  0  0  0  0
    3.3312    0.3022    0.8008 H   0  0  0  0  0  0  0  0  0  0  0  0
    1.9043    1.3903    0.7512 H   0  0  0  0  0  0  0  0  0  0  0  0
    1.1711   -1.5474   -1.5704 H   0  0  0  0  0  0  0  0  0  0  0  0
    1.6899   -1.6616    0.1853 H   0  0  0  0  0  0  0  0  0  0  0  0
   -0.4858   -2.7025   -0.2377 H   0  0  0  0  0  0  0  0  0  0  0  0
   -1.8061   -1.6737   -0.8126 H   0  0  0  0  0  0  0  0  0  0  0  0
   -1.3671   -1.7705    0.9792 H   0  0  0  0  0  0  0  0  0  0  0  0
    0.1468    1.5810   -0.6959 H   0  0  0  0  0  0  0  0  0  0  0  0
   -2.2767    1.6756   -1.1459 H   0  0  0  0  0  0  0  0  0  0  0  0
   -1.9625    2.0272    0.5767 H   0  0  0  0  0  0  0  0  0  0  0  0
   -3.4489    0.5706    0.8468 H   0  0  0  0  0  0  0  0  0  0  0  0
  1  2  1  0
  2  3  1  0
  3  4  1  0
  4  5  1  0
  4  6  1  0
  6  7  1  0
  7  8  1  0
  8  9  1  0
  7  4  1  0
  1 10  1  0
  1 11  1  0
  1 12  1  0
  3 13  1  0
  3 14  1  0
  5 15  1  0
  5 16  1  0
  5 17  1  0
  7 18  1  0
  8 19  1  0
  8 20  1  0
  9 21  1  0
M  END
