
     RDKit          3D

 21 21  0  0  0  0  0  0  0  0999 V2000
    3.6895   -0.0086    0.4319 C   0  0  0  0  0  0  0  0  0  0  0  0
    2.5804    0.2972   -0.3806 O   0  0  0  0  0  0  0  0  0  0  0  0
    1.5263   -0.4719    0.0870 C   0  0  0  0  0  0  0  0  0  0  0  0
    0.2550   -0.2600   -0.6820 C   0  0  0  0  0  0  0  0  0  0  0  0
   -0.8352   -0.9949    0.0474 C   0  0  0  0  0  0  0  0  0  0  0  0
   -1.9153   -0.2362   -0.0366 C   0  0  0  0  0  0  0  0  0  0  0  0
   -3.2818   -0.4798    0.5104 C   0  0  0  0  0  0  0  0  0  0  0  0
   -1.5470    0.9773   -0.8108 C   0  0  0  0  0  0  0  0  0  0  0  0
   -0.1814    1.0631   -0.6301 O   0  0  0  0  0  0  0  0  0  0  0  0
    4.5835    0.5625    0.1302 H   0  0  0  0  0  0  0  0  0  0  0  0
    3.8484   -1.1124    0.3125 H   0  0  0  0  0  0  0  0  0  0  0  0
    3.3650    0.2026    1.4701 H   0  0  0  0  0  0  0  0  0  0  0  0
    1.3922   -0.2622    1.1526 H   0  0  0  0  0  0  0  0  0  0  0  0
    1.7971   -1.5453   -0.0175 H   0  0  0  0  0  0  0  0  0  0  0  0
    0.3190   -0.6635   -1.6987 H   0  0  0  0  0  0  0  0  0  0  0  0
   -0.7708   -1.9494    0.5458 H   0  0  0  0  0  0  0  0  0  0  0  0
   -3.9827   -0.6119   -0.3498 H   0  0  0  0  0  0  0  0  0  0  0  0
   -3.6038    0.4499    1.0313 H   0  0  0  0  0  0  0  0  0  0  0  0
   -3.2971   -1.3638    1.1869 H   0  0  0  0  0  0  0  0  0  0  0  0
   -1.8423    0.8061   -1.8688 H   0  0  0  0  0  0  0  0  0  0  0  0
   -2.0989    1.8731   -0.4311 H   0  0  0  0  0  0  0  0  0  0  0  0
  1  2  1  0
  2  3  1  0
  3  4  1  0
  4  5  1  0
  5  6  2  0
  6  7  1  0
  6  8  1  0
  8  9  1  0
  9  4  1  0
  1 10  1  0
  1 11  1  0
  1 12  1  0
  3 13  1  0
  3 14  1  0
  4 15  1  0
  5 16  1  0
  7 17  1  0
  7 18  1  0
  7 19  1  0
  8 20  1  0
  8 21  1  0
M  END
