
     RDKit          3D

 19 19  0  0  0  0  0  0  0  0999 V2000
    2.6587   -0.6581   -0.2283 C   0  0  0  0  0  0  0  0  0  0  0  0
    1.2751   -0.8420   -0.1414 O   0  0  0  0  0  0  0  0  0  0  0  0
    0.6912    0.4281   -0.0559 C   0  0  0  0  0  0  0  0  0  0  0  0
   -0.8098    0.3392    0.0424 C   0  0  0  0  0  0  0  0  0  0  0  0
   -1.4119    1.6714    0.1315 C   0  0  0  0  0  0  0  0  0  0  0  0
   -1.5768    2.3320   -0.8630 O   0  0  0  0  0  0  0  0  0  0  0  0
   -1.2594   -0.6774    1.0440 C   0  0  0  0  0  0  0  0  0  0  0  0
   -1.2064   -1.6462    0.0412 O   0  0  0  0  0  0  0  0  0  0  0  0
   -1.4659   -0.6417   -0.8849 C   0  0  0  0  0  0  0  0  0  0  0  0
    2.9532   -0.1216    0.7006 H   0  0  0  0  0  0  0  0  0  0  0  0
    2.9346   -0.0962   -1.1411 H   0  0  0  0  0  0  0  0  0  0  0  0
    3.2002   -1.6264   -0.2113 H   0  0  0  0  0  0  0  0  0  0  0  0
    1.0302    1.0953   -0.8617 H   0  0  0  0  0  0  0  0  0  0  0  0
    1.0441    0.8698    0.9099 H   0  0  0  0  0  0  0  0  0  0  0  0
   -1.7111    2.0717    1.0770 H   0  0  0  0  0  0  0  0  0  0  0  0
   -0.5010   -0.8157    1.8346 H   0  0  0  0  0  0  0  0  0  0  0  0
   -2.2681   -0.4917    1.4599 H   0  0  0  0  0  0  0  0  0  0  0  0
   -1.0204   -0.7695   -1.8757 H   0  0  0  0  0  0  0  0  0  0  0  0
   -2.5566   -0.4209   -0.9777 H   0  0  0  0  0  0  0  0  0  0  0  0
  1  2  1  0
  2  3  1  0
  3  4  1  0
  4  5  1  0
  5  6  2  0
  4  7  1  0
  7  8  1  0
  8  9  1  0
  9  4  1  0
  1 10  1  0
  1 11  1  0
  1 12  1  0
  3 13  1  0
  3 14  1  0
  5 15  1  0
  7 16  1  0
  7 17  1  0
  9 18  1  0
  9 19  1  0
M  END
