
     RDKit          3D

 21 21  0  0  0  0  0  0  0  0999 V2000
    3.2663    0.2921    0.4895 C   0  0  0  0  0  0  0  0  0  0  0  0
    2.4928   -0.8095    0.7750 O   0  0  0  0  0  0  0  0  0  0  0  0
    1.3807   -0.9948   -0.0033 C   0  0  0  0  0  0  0  0  0  0  0  0
    0.3703    0.0750    0.1023 C   0  0  0  0  0  0  0  0  0  0  0  0
    0.5388    0.9896    0.8694 O   0  0  0  0  0  0  0  0  0  0  0  0
   -0.8416   -0.0064   -0.7507 C   0  0  0  0  0  0  0  0  0  0  0  0
   -1.8199    1.1265   -0.5787 C   0  0  0  0  0  0  0  0  0  0  0  0
   -2.4128    0.3265    0.5899 C   0  0  0  0  0  0  0  0  0  0  0  0
   -1.9265   -0.9189   -0.1615 C   0  0  0  0  0  0  0  0  0  0  0  0
    4.1544    0.3352    1.1879 H   0  0  0  0  0  0  0  0  0  0  0  0
    3.6496    0.2377   -0.5724 H   0  0  0  0  0  0  0  0  0  0  0  0
    2.7538    1.2526    0.6038 H   0  0  0  0  0  0  0  0  0  0  0  0
    1.6655   -1.0149   -1.0957 H   0  0  0  0  0  0  0  0  0  0  0  0
    0.9424   -2.0010    0.2512 H   0  0  0  0  0  0  0  0  0  0  0  0
   -0.6154   -0.2607   -1.7885 H   0  0  0  0  0  0  0  0  0  0  0  0
   -2.5650    1.1132   -1.4105 H   0  0  0  0  0  0  0  0  0  0  0  0
   -1.4080    2.0978   -0.3088 H   0  0  0  0  0  0  0  0  0  0  0  0
   -1.9127    0.4902    1.5497 H   0  0  0  0  0  0  0  0  0  0  0  0
   -3.4992    0.4018    0.6891 H   0  0  0  0  0  0  0  0  0  0  0  0
   -1.5281   -1.7117    0.4732 H   0  0  0  0  0  0  0  0  0  0  0  0
   -2.6855   -1.1864   -0.9111 H   0  0  0  0  0  0  0  0  0  0  0  0
  1  2  1  0
  2  3  1  0
  3  4  1  0
  4  5  2  0
  4  6  1  0
  6  7  1  0
  7  8  1  0
  8  9  1  0
  9  6  1  0
  1 10  1  0
  1 11  1  0
  1 12  1  0
  3 13  1  0
  3 14  1  0
  6 15  1  0
  7 16  1  0
  7 17  1  0
  8 18  1  0
  8 19  1  0
  9 20  1  0
  9 21  1  0
M  END
