
     RDKit          3D

 23 24  0  0  0  0  0  0  0  0999 V2000
    2.9202    1.1994    0.5623 C   0  0  0  0  0  0  0  0  0  0  0  0
    1.6535    0.7025    0.9505 O   0  0  0  0  0  0  0  0  0  0  0  0
    1.2286   -0.1159   -0.0793 C   0  0  0  0  0  0  0  0  0  0  0  0
   -0.0897   -0.7426    0.1298 C   0  0  0  0  0  0  0  0  0  0  0  0
   -0.5875   -1.6364   -0.9609 C   0  0  0  0  0  0  0  0  0  0  0  0
   -1.8733   -0.8377   -0.9664 C   0  0  0  0  0  0  0  0  0  0  0  0
   -1.3662   -0.0896    0.2289 C   0  0  0  0  0  0  0  0  0  0  0  0
   -1.6182    1.3660    0.3272 C   0  0  0  0  0  0  0  0  0  0  0  0
   -0.8053   -0.7841    1.4085 C   0  0  0  0  0  0  0  0  0  0  0  0
    3.5877    0.3106    0.4230 H   0  0  0  0  0  0  0  0  0  0  0  0
    2.8356    1.6630   -0.4538 H   0  0  0  0  0  0  0  0  0  0  0  0
    3.3335    1.8927    1.3153 H   0  0  0  0  0  0  0  0  0  0  0  0
    1.9935   -0.9440   -0.1513 H   0  0  0  0  0  0  0  0  0  0  0  0
    1.3359    0.4549   -1.0222 H   0  0  0  0  0  0  0  0  0  0  0  0
   -0.6736   -2.6857   -0.6503 H   0  0  0  0  0  0  0  0  0  0  0  0
   -0.0624   -1.5263   -1.9212 H   0  0  0  0  0  0  0  0  0  0  0  0
   -2.7344   -1.4885   -0.8275 H   0  0  0  0  0  0  0  0  0  0  0  0
   -1.9564   -0.1411   -1.8388 H   0  0  0  0  0  0  0  0  0  0  0  0
   -2.7248    1.5566    0.2061 H   0  0  0  0  0  0  0  0  0  0  0  0
   -1.4058    1.7140    1.3789 H   0  0  0  0  0  0  0  0  0  0  0  0
   -1.1205    1.9972   -0.4066 H   0  0  0  0  0  0  0  0  0  0  0  0
   -0.5101   -0.1562    2.2488 H   0  0  0  0  0  0  0  0  0  0  0  0
   -1.3603   -1.7088    1.7110 H   0  0  0  0  0  0  0  0  0  0  0  0
  1  2  1  0
  2  3  1  0
  3  4  1  0
  4  5  1  0
  5  6  1  0
  6  7  1  0
  7  8  1  0
  7  9  1  0
  7  4  1  0
  9  4  1  0
  1 10  1  0
  1 11  1  0
  1 12  1  0
  3 13  1  0
  3 14  1  0
  5 15  1  0
  5 16  1  0
  6 17  1  0
  6 18  1  0
  8 19  1  0
  8 20  1  0
  8 21  1  0
  9 22  1  0
  9 23  1  0
M  END
