
     RDKit          3D

 23 23  0  0  0  0  0  0  0  0999 V2000
    2.6491    0.6182    1.1545 C   0  0  0  0  0  0  0  0  0  0  0  0
    2.2313   -0.6434    0.8614 O   0  0  0  0  0  0  0  0  0  0  0  0
    1.5390   -0.8427   -0.2932 C   0  0  0  0  0  0  0  0  0  0  0  0
    0.2783   -0.0569   -0.3123 C   0  0  0  0  0  0  0  0  0  0  0  0
   -0.5696   -0.2177   -1.5688 C   0  0  0  0  0  0  0  0  0  0  0  0
   -1.7894   -0.2276   -0.6353 C   0  0  0  0  0  0  0  0  0  0  0  0
   -2.2789    1.1673   -0.3251 C   0  0  0  0  0  0  0  0  0  0  0  0
   -0.8560   -0.7720    0.4313 C   0  0  0  0  0  0  0  0  0  0  0  0
   -1.0782   -0.3197    1.7067 O   0  0  0  0  0  0  0  0  0  0  0  0
    3.2022    0.5536    2.1411 H   0  0  0  0  0  0  0  0  0  0  0  0
    3.4643    0.8821    0.4190 H   0  0  0  0  0  0  0  0  0  0  0  0
    1.9107    1.4109    1.1859 H   0  0  0  0  0  0  0  0  0  0  0  0
    1.2359   -1.9333   -0.2909 H   0  0  0  0  0  0  0  0  0  0  0  0
    2.1494   -0.7417   -1.2152 H   0  0  0  0  0  0  0  0  0  0  0  0
    0.3431    0.9854    0.0167 H   0  0  0  0  0  0  0  0  0  0  0  0
   -0.6273    0.6527   -2.2178 H   0  0  0  0  0  0  0  0  0  0  0  0
   -0.4208   -1.2050   -2.0196 H   0  0  0  0  0  0  0  0  0  0  0  0
   -2.5750   -0.9391   -0.9329 H   0  0  0  0  0  0  0  0  0  0  0  0
   -1.7712    1.5655    0.5814 H   0  0  0  0  0  0  0  0  0  0  0  0
   -2.0125    1.8291   -1.1584 H   0  0  0  0  0  0  0  0  0  0  0  0
   -3.3550    1.1714   -0.1650 H   0  0  0  0  0  0  0  0  0  0  0  0
   -0.7284   -1.8698    0.3057 H   0  0  0  0  0  0  0  0  0  0  0  0
   -0.9407   -1.0671    2.3310 H   0  0  0  0  0  0  0  0  0  0  0  0
  1  2  1  0
  2  3  1  0
  3  4  1  0
  4  5  1  0
  5  6  1  0
  6  7  1  0
  6  8  1  0
  8  9  1  0
  8  4  1  0
  1 10  1  0
  1 11  1  0
  1 12  1  0
  3 13  1  0
  3 14  1  0
  4 15  1  0
  5 16  1  0
  5 17  1  0
  6 18  1  0
  7 19  1  0
  7 20  1  0
  7 21  1  0
  8 22  1  0
  9 23  1  0
M  END
