
     RDKit          3D

 19 20  0  0  0  0  0  0  0  0999 V2000
    2.6088    0.4273    0.3731 C   0  0  0  0  0  0  0  0  0  0  0  0
    2.3534   -0.3433   -0.7492 O   0  0  0  0  0  0  0  0  0  0  0  0
    1.0817   -0.8692   -0.7619 C   0  0  0  0  0  0  0  0  0  0  0  0
    0.0190    0.2431   -0.7374 C   0  0  0  0  0  0  0  0  0  0  0  0
   -1.3250   -0.2264   -0.7489 C   0  0  0  0  0  0  0  0  0  0  0  0
   -2.1822   -0.6374    0.4369 C   0  0  0  0  0  0  0  0  0  0  0  0
   -2.1475    0.8725    0.6264 C   0  0  0  0  0  0  0  0  0  0  0  0
   -2.9406    1.7471    0.8141 O   0  0  0  0  0  0  0  0  0  0  0  0
   -0.6884    0.5975    0.4517 C   0  0  0  0  0  0  0  0  0  0  0  0
    3.6591    0.8034    0.2854 H   0  0  0  0  0  0  0  0  0  0  0  0
    2.5882   -0.1729    1.3056 H   0  0  0  0  0  0  0  0  0  0  0  0
    1.9269    1.2706    0.5073 H   0  0  0  0  0  0  0  0  0  0  0  0
    0.9558   -1.3929   -1.7463 H   0  0  0  0  0  0  0  0  0  0  0  0
    0.8652   -1.5586    0.0689 H   0  0  0  0  0  0  0  0  0  0  0  0
    0.3747    1.1067   -1.3748 H   0  0  0  0  0  0  0  0  0  0  0  0
   -1.9938    0.4047   -1.4190 H   0  0  0  0  0  0  0  0  0  0  0  0
   -1.6193   -1.1863    1.1978 H   0  0  0  0  0  0  0  0  0  0  0  0
   -3.1514   -1.0301    0.1378 H   0  0  0  0  0  0  0  0  0  0  0  0
   -0.3846   -0.0556    1.3325 H   0  0  0  0  0  0  0  0  0  0  0  0
  1  2  1  0
  2  3  1  0
  3  4  1  0
  4  5  1  0
  5  6  1  0
  6  7  1  0
  7  8  2  0
  7  9  1  0
  9  4  1  0
  9  5  1  0
  1 10  1  0
  1 11  1  0
  1 12  1  0
  3 13  1  0
  3 14  1  0
  4 15  1  0
  5 16  1  0
  6 17  1  0
  6 18  1  0
  9 19  1  0
M  END
