
     RDKit          3D

 19 19  0  0  0  0  0  0  0  0999 V2000
    2.5501    0.2350    0.3851 C   0  0  0  0  0  0  0  0  0  0  0  0
    1.7570   -0.8058    0.7914 O   0  0  0  0  0  0  0  0  0  0  0  0
    0.7458   -1.1748   -0.0495 C   0  0  0  0  0  0  0  0  0  0  0  0
   -0.1839   -0.0217   -0.2563 C   0  0  0  0  0  0  0  0  0  0  0  0
   -0.8125    0.4654    1.0371 C   0  0  0  0  0  0  0  0  0  0  0  0
   -1.8811    1.1981    0.6025 O   0  0  0  0  0  0  0  0  0  0  0  0
   -2.3873    0.6353   -0.5486 C   0  0  0  0  0  0  0  0  0  0  0  0
   -1.4177   -0.3949   -0.9950 C   0  0  0  0  0  0  0  0  0  0  0  0
   -1.4972   -1.3310   -1.7502 O   0  0  0  0  0  0  0  0  0  0  0  0
    2.0303    1.1973    0.2201 H   0  0  0  0  0  0  0  0  0  0  0  0
    3.3572    0.3667    1.1486 H   0  0  0  0  0  0  0  0  0  0  0  0
    3.0877    0.0183   -0.5695 H   0  0  0  0  0  0  0  0  0  0  0  0
    1.1142   -1.4833   -1.0505 H   0  0  0  0  0  0  0  0  0  0  0  0
    0.2245   -2.0384    0.3983 H   0  0  0  0  0  0  0  0  0  0  0  0
    0.3088    0.8037   -0.7802 H   0  0  0  0  0  0  0  0  0  0  0  0
   -0.0459    1.0458    1.5651 H   0  0  0  0  0  0  0  0  0  0  0  0
   -1.1797   -0.3958    1.6279 H   0  0  0  0  0  0  0  0  0  0  0  0
   -2.3550    1.4453   -1.3360 H   0  0  0  0  0  0  0  0  0  0  0  0
   -3.4154    0.2348   -0.4402 H   0  0  0  0  0  0  0  0  0  0  0  0
  1  2  1  0
  2  3  1  0
  3  4  1  0
  4  5  1  0
  5  6  1  0
  6  7  1  0
  7  8  1  0
  8  9  2  0
  8  4  1  0
  1 10  1  0
  1 11  1  0
  1 12  1  0
  3 13  1  0
  3 14  1  0
  4 15  1  0
  5 16  1  0
  5 17  1  0
  7 18  1  0
  7 19  1  0
M  END
