
     RDKit          3D

 21 22  0  0  0  0  0  0  0  0999 V2000
    2.8398    1.0617   -0.3632 C   0  0  0  0  0  0  0  0  0  0  0  0
    1.7575    0.8017    0.4418 O   0  0  0  0  0  0  0  0  0  0  0  0
    1.0473   -0.2794   -0.0173 C   0  0  0  0  0  0  0  0  0  0  0  0
   -0.1477   -0.5999    0.8352 C   0  0  0  0  0  0  0  0  0  0  0  0
   -0.9680   -1.7724    0.3877 C   0  0  0  0  0  0  0  0  0  0  0  0
   -2.2261   -0.9549    0.4989 C   0  0  0  0  0  0  0  0  0  0  0  0
   -2.4058   -0.0508    1.5098 O   0  0  0  0  0  0  0  0  0  0  0  0
   -1.3415    0.2694    0.6876 C   0  0  0  0  0  0  0  0  0  0  0  0
   -1.4680    1.2904   -0.3845 C   0  0  0  0  0  0  0  0  0  0  0  0
    3.5317    0.1773   -0.3916 H   0  0  0  0  0  0  0  0  0  0  0  0
    2.5568    1.2507   -1.4229 H   0  0  0  0  0  0  0  0  0  0  0  0
    3.4607    1.8909    0.0552 H   0  0  0  0  0  0  0  0  0  0  0  0
    0.7529   -0.2208   -1.0742 H   0  0  0  0  0  0  0  0  0  0  0  0
    1.7329   -1.1742    0.0632 H   0  0  0  0  0  0  0  0  0  0  0  0
    0.1555   -0.7329    1.8950 H   0  0  0  0  0  0  0  0  0  0  0  0
   -0.9237   -2.6698    1.0411 H   0  0  0  0  0  0  0  0  0  0  0  0
   -0.7987   -2.0262   -0.6973 H   0  0  0  0  0  0  0  0  0  0  0  0
   -2.9797   -0.9613   -0.2866 H   0  0  0  0  0  0  0  0  0  0  0  0
   -1.7918    2.3000    0.0004 H   0  0  0  0  0  0  0  0  0  0  0  0
   -2.2570    1.0374   -1.1523 H   0  0  0  0  0  0  0  0  0  0  0  0
   -0.5270    1.3632   -0.9308 H   0  0  0  0  0  0  0  0  0  0  0  0
  1  2  1  0
  2  3  1  0
  3  4  1  0
  4  5  1  0
  5  6  1  0
  6  7  1  0
  7  8  1  0
  8  9  1  0
  8  4  1  0
  8  6  1  0
  1 10  1  0
  1 11  1  0
  1 12  1  0
  3 13  1  0
  3 14  1  0
  4 15  1  0
  5 16  1  0
  5 17  1  0
  6 18  1  0
  9 19  1  0
  9 20  1  0
  9 21  1  0
M  END
