
     RDKit          3D

 23 23  0  0  0  0  0  0  0  0999 V2000
    2.9939    0.4257    0.1257 C   0  0  0  0  0  0  0  0  0  0  0  0
    2.6495   -0.8053   -0.2406 O   0  0  0  0  0  0  0  0  0  0  0  0
    1.4782   -1.3974    0.0230 C   0  0  0  0  0  0  0  0  0  0  0  0
    0.2591   -0.7262   -0.4559 C   0  0  0  0  0  0  0  0  0  0  0  0
   -0.0756    0.5974    0.0686 C   0  0  0  0  0  0  0  0  0  0  0  0
   -1.3923    0.7830    0.0381 C   0  0  0  0  0  0  0  0  0  0  0  0
   -2.1174    2.0371    0.4991 C   0  0  0  0  0  0  0  0  0  0  0  0
   -2.0508   -0.4265   -0.4943 C   0  0  0  0  0  0  0  0  0  0  0  0
   -1.0107   -1.5273   -0.2135 C   0  0  0  0  0  0  0  0  0  0  0  0
    2.9035    0.5911    1.2325 H   0  0  0  0  0  0  0  0  0  0  0  0
    4.1481    0.5126   -0.0793 H   0  0  0  0  0  0  0  0  0  0  0  0
    2.6165    1.2895   -0.4452 H   0  0  0  0  0  0  0  0  0  0  0  0
    1.4213   -1.5096    1.1572 H   0  0  0  0  0  0  0  0  0  0  0  0
    1.4801   -2.4863   -0.3457 H   0  0  0  0  0  0  0  0  0  0  0  0
    0.3486   -0.5803   -1.5866 H   0  0  0  0  0  0  0  0  0  0  0  0
    0.6013    1.3956    0.4716 H   0  0  0  0  0  0  0  0  0  0  0  0
   -1.5326    2.9382    0.2126 H   0  0  0  0  0  0  0  0  0  0  0  0
   -2.2803    2.0314    1.5799 H   0  0  0  0  0  0  0  0  0  0  0  0
   -3.0578    2.0877   -0.0869 H   0  0  0  0  0  0  0  0  0  0  0  0
   -2.9083   -0.6630    0.1615 H   0  0  0  0  0  0  0  0  0  0  0  0
   -2.2930   -0.3744   -1.5602 H   0  0  0  0  0  0  0  0  0  0  0  0
   -1.1116   -2.2720   -1.0164 H   0  0  0  0  0  0  0  0  0  0  0  0
   -1.0697   -1.9210    0.7982 H   0  0  0  0  0  0  0  0  0  0  0  0
  1  2  1  0
  2  3  1  0
  3  4  1  0
  4  5  1  0
  5  6  2  0
  6  7  1  0
  6  8  1  0
  8  9  1  0
  9  4  1  0
  1 10  1  0
  1 11  1  0
  1 12  1  0
  3 13  1  0
  3 14  1  0
  4 15  1  0
  5 16  1  0
  7 17  1  0
  7 18  1  0
  7 19  1  0
  8 20  1  0
  8 21  1  0
  9 22  1  0
  9 23  1  0
M  END
