
     RDKit          3D

 21 21  0  0  0  0  0  0  0  0999 V2000
    3.5210   -0.0242    0.0531 C   0  0  0  0  0  0  0  0  0  0  0  0
    2.5875   -0.6429    0.7993 O   0  0  0  0  0  0  0  0  0  0  0  0
    1.2805   -0.5013    0.5248 C   0  0  0  0  0  0  0  0  0  0  0  0
    0.6766    0.8473    0.5589 C   0  0  0  0  0  0  0  0  0  0  0  0
   -0.7967    0.7272    0.2139 C   0  0  0  0  0  0  0  0  0  0  0  0
   -1.0996    0.1785   -1.0690 O   0  0  0  0  0  0  0  0  0  0  0  0
   -1.4738   -0.5502    0.0772 C   0  0  0  0  0  0  0  0  0  0  0  0
   -2.9586   -0.6358    0.3822 C   0  0  0  0  0  0  0  0  0  0  0  0
   -3.4159    0.6906    0.5602 O   0  0  0  0  0  0  0  0  0  0  0  0
    3.5729   -0.2506   -1.0050 H   0  0  0  0  0  0  0  0  0  0  0  0
    4.5230   -0.2241    0.4878 H   0  0  0  0  0  0  0  0  0  0  0  0
    3.3836    1.0895    0.1457 H   0  0  0  0  0  0  0  0  0  0  0  0
    0.7057   -1.1422    1.2328 H   0  0  0  0  0  0  0  0  0  0  0  0
    1.0701   -0.9524   -0.4881 H   0  0  0  0  0  0  0  0  0  0  0  0
    1.1047    1.5980   -0.1047 H   0  0  0  0  0  0  0  0  0  0  0  0
    0.7224    1.2392    1.5917 H   0  0  0  0  0  0  0  0  0  0  0  0
   -1.4456    1.6179    0.4043 H   0  0  0  0  0  0  0  0  0  0  0  0
   -0.9678   -1.5238    0.1319 H   0  0  0  0  0  0  0  0  0  0  0  0
   -3.5177   -1.1268   -0.4196 H   0  0  0  0  0  0  0  0  0  0  0  0
   -3.1395   -1.1324    1.3560 H   0  0  0  0  0  0  0  0  0  0  0  0
   -4.3327    0.7184    0.1699 H   0  0  0  0  0  0  0  0  0  0  0  0
  1  2  1  0
  2  3  1  0
  3  4  1  0
  4  5  1  0
  5  6  1  0
  6  7  1  0
  7  8  1  0
  8  9  1  0
  7  5  1  0
  1 10  1  0
  1 11  1  0
  1 12  1  0
  3 13  1  0
  3 14  1  0
  4 15  1  0
  4 16  1  0
  5 17  1  0
  7 18  1  0
  8 19  1  0
  8 20  1  0
  9 21  1  0
M  END
