
     RDKit          3D

 21 22  0  0  0  0  0  0  0  0999 V2000
   -3.1241   -0.1847   -0.0501 C   0  0  0  0  0  0  0  0  0  0  0  0
   -2.5452   -0.1922    1.1895 O   0  0  0  0  0  0  0  0  0  0  0  0
   -1.1862   -0.3019    1.1393 C   0  0  0  0  0  0  0  0  0  0  0  0
   -0.5046    0.8265    0.3977 C   0  0  0  0  0  0  0  0  0  0  0  0
    0.9790    0.5327    0.4607 C   0  0  0  0  0  0  0  0  0  0  0  0
    1.8035    1.4387   -0.1564 O   0  0  0  0  0  0  0  0  0  0  0  0
    2.4811    0.5587   -0.9708 C   0  0  0  0  0  0  0  0  0  0  0  0
    2.8478   -0.8048   -0.5574 C   0  0  0  0  0  0  0  0  0  0  0  0
    1.3984   -0.4924   -0.5788 C   0  0  0  0  0  0  0  0  0  0  0  0
   -2.8888   -1.1204   -0.6209 H   0  0  0  0  0  0  0  0  0  0  0  0
   -2.8362    0.6840   -0.6667 H   0  0  0  0  0  0  0  0  0  0  0  0
   -4.2386   -0.0917    0.0814 H   0  0  0  0  0  0  0  0  0  0  0  0
   -0.8271   -0.3488    2.2085 H   0  0  0  0  0  0  0  0  0  0  0  0
   -0.8725   -1.2844    0.7127 H   0  0  0  0  0  0  0  0  0  0  0  0
   -0.8470    0.8896   -0.6366 H   0  0  0  0  0  0  0  0  0  0  0  0
   -0.7154    1.7904    0.8821 H   0  0  0  0  0  0  0  0  0  0  0  0
    1.2914    0.1886    1.4529 H   0  0  0  0  0  0  0  0  0  0  0  0
    2.5514    0.8052   -2.0490 H   0  0  0  0  0  0  0  0  0  0  0  0
    3.2223   -1.4771   -1.3249 H   0  0  0  0  0  0  0  0  0  0  0  0
    3.2803   -0.9190    0.4762 H   0  0  0  0  0  0  0  0  0  0  0  0
    0.7305   -0.7683   -1.3893 H   0  0  0  0  0  0  0  0  0  0  0  0
  1  2  1  0
  2  3  1  0
  3  4  1  0
  4  5  1  0
  5  6  1  0
  6  7  1  0
  7  8  1  0
  8  9  1  0
  9  5  1  0
  9  7  1  0
  1 10  1  0
  1 11  1  0
  1 12  1  0
  3 13  1  0
  3 14  1  0
  4 15  1  0
  4 16  1  0
  5 17  1  0
  7 18  1  0
  8 19  1  0
  8 20  1  0
  9 21  1  0
M  END
