
     RDKit          3D

 27 26  0  0  0  0  0  0  0  0999 V2000
    2.8716    0.1381    1.5534 C   0  0  0  0  0  0  0  0  0  0  0  0
    1.8186    0.4538    0.6992 O   0  0  0  0  0  0  0  0  0  0  0  0
    1.0375   -0.6829    0.5529 C   0  0  0  0  0  0  0  0  0  0  0  0
   -0.1425   -0.4843   -0.3491 C   0  0  0  0  0  0  0  0  0  0  0  0
    0.3165   -0.0855   -1.7232 C   0  0  0  0  0  0  0  0  0  0  0  0
   -0.8300   -1.8390   -0.4870 C   0  0  0  0  0  0  0  0  0  0  0  0
   -1.1590    0.4715    0.2206 C   0  0  0  0  0  0  0  0  0  0  0  0
   -0.5862    1.8422    0.4671 C   0  0  0  0  0  0  0  0  0  0  0  0
   -2.3828    0.5920   -0.6603 C   0  0  0  0  0  0  0  0  0  0  0  0
    3.5387    1.0189    1.7105 H   0  0  0  0  0  0  0  0  0  0  0  0
    3.4709   -0.7189    1.1468 H   0  0  0  0  0  0  0  0  0  0  0  0
    2.4741   -0.2191    2.5321 H   0  0  0  0  0  0  0  0  0  0  0  0
    0.7193   -1.1021    1.5372 H   0  0  0  0  0  0  0  0  0  0  0  0
    1.6807   -1.4635    0.0888 H   0  0  0  0  0  0  0  0  0  0  0  0
   -0.5876    0.0221   -2.3561 H   0  0  0  0  0  0  0  0  0  0  0  0
    0.8305    0.8966   -1.7458 H   0  0  0  0  0  0  0  0  0  0  0  0
    0.9799   -0.9059   -2.0937 H   0  0  0  0  0  0  0  0  0  0  0  0
   -0.0271   -2.6285   -0.5134 H   0  0  0  0  0  0  0  0  0  0  0  0
   -1.3952   -2.0142    0.4493 H   0  0  0  0  0  0  0  0  0  0  0  0
   -1.4441   -1.8847   -1.3962 H   0  0  0  0  0  0  0  0  0  0  0  0
   -1.5146    0.0894    1.1998 H   0  0  0  0  0  0  0  0  0  0  0  0
    0.0666    1.8524    1.3624 H   0  0  0  0  0  0  0  0  0  0  0  0
   -0.1383    2.3012   -0.4215 H   0  0  0  0  0  0  0  0  0  0  0  0
   -1.4613    2.4990    0.7406 H   0  0  0  0  0  0  0  0  0  0  0  0
   -2.1828    1.1945   -1.5700 H   0  0  0  0  0  0  0  0  0  0  0  0
   -2.7775   -0.4118   -0.9247 H   0  0  0  0  0  0  0  0  0  0  0  0
   -3.1757    1.0688   -0.0195 H   0  0  0  0  0  0  0  0  0  0  0  0
  1  2  1  0
  2  3  1  0
  3  4  1  0
  4  5  1  0
  4  6  1  0
  4  7  1  0
  7  8  1  0
  7  9  1  0
  1 10  1  0
  1 11  1  0
  1 12  1  0
  3 13  1  0
  3 14  1  0
  5 15  1  0
  5 16  1  0
  5 17  1  0
  6 18  1  0
  6 19  1  0
  6 20  1  0
  7 21  1  0
  8 22  1  0
  8 23  1  0
  8 24  1  0
  9 25  1  0
  9 26  1  0
  9 27  1  0
M  END
