
     RDKit          3D

 23 23  0  0  0  0  0  0  0  0999 V2000
    3.7254    0.3945    0.1806 C   0  0  0  0  0  0  0  0  0  0  0  0
    2.9108   -0.5035   -0.5019 O   0  0  0  0  0  0  0  0  0  0  0  0
    1.5970   -0.5135   -0.0779 C   0  0  0  0  0  0  0  0  0  0  0  0
    0.8895    0.8121   -0.2248 C   0  0  0  0  0  0  0  0  0  0  0  0
   -0.4183    0.7725    0.2018 O   0  0  0  0  0  0  0  0  0  0  0  0
   -1.2030   -0.1143   -0.4850 C   0  0  0  0  0  0  0  0  0  0  0  0
   -2.5737    0.3774   -0.8784 C   0  0  0  0  0  0  0  0  0  0  0  0
   -3.1044   -0.1299    0.4226 C   0  0  0  0  0  0  0  0  0  0  0  0
   -1.9067   -1.0507    0.5066 C   0  0  0  0  0  0  0  0  0  0  0  0
    4.7772    0.3364   -0.2100 H   0  0  0  0  0  0  0  0  0  0  0  0
    3.4476    1.4708   -0.0324 H   0  0  0  0  0  0  0  0  0  0  0  0
    3.6992    0.1982    1.2740 H   0  0  0  0  0  0  0  0  0  0  0  0
    1.6441   -0.8165    1.0123 H   0  0  0  0  0  0  0  0  0  0  0  0
    1.0771   -1.3588   -0.5588 H   0  0  0  0  0  0  0  0  0  0  0  0
    1.4868    1.5454    0.3914 H   0  0  0  0  0  0  0  0  0  0  0  0
    0.9374    1.1613   -1.2722 H   0  0  0  0  0  0  0  0  0  0  0  0
   -0.6722   -0.6578   -1.2811 H   0  0  0  0  0  0  0  0  0  0  0  0
   -2.6577    1.4746   -1.0219 H   0  0  0  0  0  0  0  0  0  0  0  0
   -2.9552   -0.1884   -1.7450 H   0  0  0  0  0  0  0  0  0  0  0  0
   -4.0410   -0.7218    0.3787 H   0  0  0  0  0  0  0  0  0  0  0  0
   -3.1710    0.6035    1.2381 H   0  0  0  0  0  0  0  0  0  0  0  0
   -2.0487   -2.0332    0.0267 H   0  0  0  0  0  0  0  0  0  0  0  0
   -1.4402   -1.0583    1.4991 H   0  0  0  0  0  0  0  0  0  0  0  0
  1  2  1  0
  2  3  1  0
  3  4  1  0
  4  5  1  0
  5  6  1  0
  6  7  1  0
  7  8  1  0
  8  9  1  0
  9  6  1  0
  1 10  1  0
  1 11  1  0
  1 12  1  0
  3 13  1  0
  3 14  1  0
  4 15  1  0
  4 16  1  0
  6 17  1  0
  7 18  1  0
  7 19  1  0
  8 20  1  0
  8 21  1  0
  9 22  1  0
  9 23  1  0
M  END
