
     RDKit          3D

 23 23  0  0  0  0  0  0  0  0999 V2000
    3.2775   -0.4995    0.1543 C   0  0  0  0  0  0  0  0  0  0  0  0
    1.9598   -0.9506   -0.0333 O   0  0  0  0  0  0  0  0  0  0  0  0
    1.1123    0.1514   -0.1342 C   0  0  0  0  0  0  0  0  0  0  0  0
   -0.2876   -0.3640   -0.3340 C   0  0  0  0  0  0  0  0  0  0  0  0
   -1.3510    0.6968   -0.4651 C   0  0  0  0  0  0  0  0  0  0  0  0
   -0.9116    1.8977   -1.2426 C   0  0  0  0  0  0  0  0  0  0  0  0
   -1.3652    0.8207    0.9123 O   0  0  0  0  0  0  0  0  0  0  0  0
   -0.9820   -0.5202    0.9896 C   0  0  0  0  0  0  0  0  0  0  0  0
   -2.1418   -1.4728    1.0093 C   0  0  0  0  0  0  0  0  0  0  0  0
    3.9071   -1.3994    0.2281 H   0  0  0  0  0  0  0  0  0  0  0  0
    3.5565    0.1795   -0.6742 H   0  0  0  0  0  0  0  0  0  0  0  0
    3.3168    0.1155    1.0823 H   0  0  0  0  0  0  0  0  0  0  0  0
    1.1721    0.6949    0.8306 H   0  0  0  0  0  0  0  0  0  0  0  0
    1.4823    0.7847   -0.9401 H   0  0  0  0  0  0  0  0  0  0  0  0
   -0.4150   -1.1632   -1.0653 H   0  0  0  0  0  0  0  0  0  0  0  0
   -2.2869    0.2852   -0.8926 H   0  0  0  0  0  0  0  0  0  0  0  0
   -0.0949    1.5887   -1.9540 H   0  0  0  0  0  0  0  0  0  0  0  0
   -0.6171    2.7578   -0.6190 H   0  0  0  0  0  0  0  0  0  0  0  0
   -1.7320    2.2662   -1.9251 H   0  0  0  0  0  0  0  0  0  0  0  0
   -0.2863   -0.7353    1.8064 H   0  0  0  0  0  0  0  0  0  0  0  0
   -2.6271   -1.3559    2.0229 H   0  0  0  0  0  0  0  0  0  0  0  0
   -1.7733   -2.5049    0.9777 H   0  0  0  0  0  0  0  0  0  0  0  0
   -2.9125   -1.2731    0.2658 H   0  0  0  0  0  0  0  0  0  0  0  0
  1  2  1  0
  2  3  1  0
  3  4  1  0
  4  5  1  0
  5  6  1  0
  5  7  1  0
  7  8  1  0
  8  9  1  0
  8  4  1  0
  1 10  1  0
  1 11  1  0
  1 12  1  0
  3 13  1  0
  3 14  1  0
  4 15  1  0
  5 16  1  0
  6 17  1  0
  6 18  1  0
  6 19  1  0
  8 20  1  0
  9 21  1  0
  9 22  1  0
  9 23  1  0
M  END
