
     RDKit          3D

 19 20  0  0  0  0  0  0  0  0999 V2000
    2.7883    0.5316    0.5774 C   0  0  0  0  0  0  0  0  0  0  0  0
    1.3810    0.6386    0.6494 O   0  0  0  0  0  0  0  0  0  0  0  0
    0.8961   -0.2195   -0.3484 C   0  0  0  0  0  0  0  0  0  0  0  0
   -0.5914   -0.2445   -0.4301 C   0  0  0  0  0  0  0  0  0  0  0  0
   -1.3626    1.0102   -0.7239 C   0  0  0  0  0  0  0  0  0  0  0  0
   -2.3831    0.6200    0.2854 C   0  0  0  0  0  0  0  0  0  0  0  0
   -3.4679    1.0358    0.6032 O   0  0  0  0  0  0  0  0  0  0  0  0
   -1.4790   -0.4828    0.7077 C   0  0  0  0  0  0  0  0  0  0  0  0
   -1.2639   -1.5455   -0.2955 C   0  0  0  0  0  0  0  0  0  0  0  0
    3.0249   -0.5424    0.7707 H   0  0  0  0  0  0  0  0  0  0  0  0
    3.2950    1.2199    1.2533 H   0  0  0  0  0  0  0  0  0  0  0  0
    3.1320    0.7077   -0.4821 H   0  0  0  0  0  0  0  0  0  0  0  0
    1.2832   -1.2147   -0.1239 H   0  0  0  0  0  0  0  0  0  0  0  0
    1.3069    0.1919   -1.3097 H   0  0  0  0  0  0  0  0  0  0  0  0
   -1.7543    1.1205   -1.7426 H   0  0  0  0  0  0  0  0  0  0  0  0
   -0.8527    1.9425   -0.4028 H   0  0  0  0  0  0  0  0  0  0  0  0
   -1.1616   -0.5739    1.7442 H   0  0  0  0  0  0  0  0  0  0  0  0
   -2.1415   -1.7999   -0.9282 H   0  0  0  0  0  0  0  0  0  0  0  0
   -0.6494   -2.3956    0.0146 H   0  0  0  0  0  0  0  0  0  0  0  0
  1  2  1  0
  2  3  1  0
  3  4  1  0
  4  5  1  0
  5  6  1  0
  6  7  2  0
  6  8  1  0
  8  9  1  0
  8  4  1  0
  9  4  1  0
  1 10  1  0
  1 11  1  0
  1 12  1  0
  3 13  1  0
  3 14  1  0
  5 15  1  0
  5 16  1  0
  8 17  1  0
  9 18  1  0
  9 19  1  0
M  END
