
     RDKit          3D

 23 23  0  0  0  0  0  0  0  0999 V2000
    2.8297    0.9568    0.0098 C   0  0  0  0  0  0  0  0  0  0  0  0
    1.5531    0.9177   -0.5703 O   0  0  0  0  0  0  0  0  0  0  0  0
    1.0450   -0.3485   -0.3229 C   0  0  0  0  0  0  0  0  0  0  0  0
   -0.3425   -0.5330   -0.8991 C   0  0  0  0  0  0  0  0  0  0  0  0
   -0.7713   -1.9077   -0.5732 C   0  0  0  0  0  0  0  0  0  0  0  0
   -1.4600   -1.8827    0.5456 C   0  0  0  0  0  0  0  0  0  0  0  0
   -1.5570   -0.4725    1.0765 C   0  0  0  0  0  0  0  0  0  0  0  0
   -1.3683    0.3094   -0.2058 C   0  0  0  0  0  0  0  0  0  0  0  0
   -0.9712    1.7206    0.0108 C   0  0  0  0  0  0  0  0  0  0  0  0
    3.4634    0.1572   -0.4720 H   0  0  0  0  0  0  0  0  0  0  0  0
    3.3183    1.9258   -0.1324 H   0  0  0  0  0  0  0  0  0  0  0  0
    2.7748    0.7377    1.1055 H   0  0  0  0  0  0  0  0  0  0  0  0
    1.7052   -1.0658   -0.8706 H   0  0  0  0  0  0  0  0  0  0  0  0
    1.0343   -0.5700    0.7461 H   0  0  0  0  0  0  0  0  0  0  0  0
   -0.3230   -0.3577   -2.0004 H   0  0  0  0  0  0  0  0  0  0  0  0
   -0.5428   -2.7775   -1.1740 H   0  0  0  0  0  0  0  0  0  0  0  0
   -1.9049   -2.7576    1.0320 H   0  0  0  0  0  0  0  0  0  0  0  0
   -2.5868   -0.3702    1.4614 H   0  0  0  0  0  0  0  0  0  0  0  0
   -0.8115   -0.2617    1.8394 H   0  0  0  0  0  0  0  0  0  0  0  0
   -2.3106    0.2518   -0.7686 H   0  0  0  0  0  0  0  0  0  0  0  0
   -0.6106    2.1392   -0.9507 H   0  0  0  0  0  0  0  0  0  0  0  0
   -0.2692    1.8831    0.8510 H   0  0  0  0  0  0  0  0  0  0  0  0
   -1.8941    2.3055    0.2619 H   0  0  0  0  0  0  0  0  0  0  0  0
  1  2  1  0
  2  3  1  0
  3  4  1  0
  4  5  1  0
  5  6  2  0
  6  7  1  0
  7  8  1  0
  8  9  1  0
  8  4  1  0
  1 10  1  0
  1 11  1  0
  1 12  1  0
  3 13  1  0
  3 14  1  0
  4 15  1  0
  5 16  1  0
  6 17  1  0
  7 18  1  0
  7 19  1  0
  8 20  1  0
  9 21  1  0
  9 22  1  0
  9 23  1  0
M  END
