
     RDKit          3D

 19 20  0  0  0  0  0  0  0  0999 V2000
    2.8319    0.0500   -0.1912 C   0  0  0  0  0  0  0  0  0  0  0  0
    2.1633   -1.0969    0.0909 O   0  0  0  0  0  0  0  0  0  0  0  0
    0.9690   -0.9217    0.7021 C   0  0  0  0  0  0  0  0  0  0  0  0
   -0.0039   -0.1462   -0.1038 C   0  0  0  0  0  0  0  0  0  0  0  0
   -1.3542   -0.7484   -0.4362 C   0  0  0  0  0  0  0  0  0  0  0  0
   -2.0458    0.5364   -0.1327 C   0  0  0  0  0  0  0  0  0  0  0  0
   -3.1523    0.4896    0.6784 O   0  0  0  0  0  0  0  0  0  0  0  0
   -0.7707    1.0229    0.4814 C   0  0  0  0  0  0  0  0  0  0  0  0
    0.2831    1.1435   -0.4095 O   0  0  0  0  0  0  0  0  0  0  0  0
    3.8595   -0.1730   -0.6367 H   0  0  0  0  0  0  0  0  0  0  0  0
    2.2947    0.6569   -0.9822 H   0  0  0  0  0  0  0  0  0  0  0  0
    2.9373    0.6962    0.6938 H   0  0  0  0  0  0  0  0  0  0  0  0
    1.0893   -0.4382    1.7380 H   0  0  0  0  0  0  0  0  0  0  0  0
    0.5254   -1.9469    0.8568 H   0  0  0  0  0  0  0  0  0  0  0  0
   -1.5601   -1.5530    0.3246 H   0  0  0  0  0  0  0  0  0  0  0  0
   -1.4535   -1.1545   -1.4486 H   0  0  0  0  0  0  0  0  0  0  0  0
   -2.2544    1.1297   -1.0663 H   0  0  0  0  0  0  0  0  0  0  0  0
   -3.7163    1.3072    0.4924 H   0  0  0  0  0  0  0  0  0  0  0  0
   -0.6425    1.1465    1.5511 H   0  0  0  0  0  0  0  0  0  0  0  0
  1  2  1  0
  2  3  1  0
  3  4  1  0
  4  5  1  0
  5  6  1  0
  6  7  1  0
  6  8  1  0
  8  9  1  0
  8  4  1  0
  9  4  1  0
  1 10  1  0
  1 11  1  0
  1 12  1  0
  3 13  1  0
  3 14  1  0
  5 15  1  0
  5 16  1  0
  6 17  1  0
  7 18  1  0
  8 19  1  0
M  END
