
     RDKit          3D

 11 10  0  0  0  0  0  0  0  0999 V2000
    1.4260    0.1326    0.1426 C   0  0  0  0  0  0  0  0  0  0  0  0
    0.2491    0.5896   -0.3783 O   0  0  0  0  0  0  0  0  0  0  0  0
   -0.8545    0.5630    0.4338 C   0  0  0  0  0  0  0  0  0  0  0  0
   -1.2070   -0.8220    0.7881 C   0  0  0  0  0  0  0  0  0  0  0  0
   -0.5960   -1.7523    0.3231 O   0  0  0  0  0  0  0  0  0  0  0  0
    2.1939    0.2417   -0.6598 H   0  0  0  0  0  0  0  0  0  0  0  0
    1.4632   -0.9173    0.4503 H   0  0  0  0  0  0  0  0  0  0  0  0
    1.7637    0.7369    1.0240 H   0  0  0  0  0  0  0  0  0  0  0  0
   -1.6903    1.0169   -0.1802 H   0  0  0  0  0  0  0  0  0  0  0  0
   -0.7179    1.1993    1.3499 H   0  0  0  0  0  0  0  0  0  0  0  0
   -2.0303   -0.9885    1.4784 H   0  0  0  0  0  0  0  0  0  0  0  0
  1  2  1  0
  2  3  1  0
  3  4  1  0
  4  5  2  0
  1  6  1  0
  1  7  1  0
  1  8  1  0
  3  9  1  0
  3 10  1  0
  4 11  1  0
M  END
