
     RDKit          3D

 24 23  0  0  0  0  0  0  0  0999 V2000
   -3.1749   -0.2976   -0.0574 C   0  0  0  0  0  0  0  0  0  0  0  0
   -2.6404    0.8169   -0.6870 O   0  0  0  0  0  0  0  0  0  0  0  0
   -1.7366    1.4465    0.1281 C   0  0  0  0  0  0  0  0  0  0  0  0
   -0.5636    0.6213    0.5483 C   0  0  0  0  0  0  0  0  0  0  0  0
    0.2613    0.1320   -0.6143 C   0  0  0  0  0  0  0  0  0  0  0  0
    1.4040   -0.6833   -0.0238 C   0  0  0  0  0  0  0  0  0  0  0  0
    2.3077   -1.2306   -1.1151 C   0  0  0  0  0  0  0  0  0  0  0  0
    2.2285    0.1537    0.9273 C   0  0  0  0  0  0  0  0  0  0  0  0
   -3.7049   -0.0566    0.8871 H   0  0  0  0  0  0  0  0  0  0  0  0
   -3.9066   -0.7359   -0.7985 H   0  0  0  0  0  0  0  0  0  0  0  0
   -2.4273   -1.0770    0.1885 H   0  0  0  0  0  0  0  0  0  0  0  0
   -2.2879    1.7153    1.0768 H   0  0  0  0  0  0  0  0  0  0  0  0
   -1.3728    2.3975   -0.3288 H   0  0  0  0  0  0  0  0  0  0  0  0
   -0.8462   -0.2400    1.1563 H   0  0  0  0  0  0  0  0  0  0  0  0
    0.1109    1.3033    1.1348 H   0  0  0  0  0  0  0  0  0  0  0  0
   -0.3754   -0.4481   -1.2741 H   0  0  0  0  0  0  0  0  0  0  0  0
    0.7067    0.9846   -1.1363 H   0  0  0  0  0  0  0  0  0  0  0  0
    1.0378   -1.5630    0.5450 H   0  0  0  0  0  0  0  0  0  0  0  0
    3.1087   -1.7964   -0.5959 H   0  0  0  0  0  0  0  0  0  0  0  0
    1.7264   -1.9552   -1.6985 H   0  0  0  0  0  0  0  0  0  0  0  0
    2.7598   -0.4275   -1.7283 H   0  0  0  0  0  0  0  0  0  0  0  0
    2.5190    1.1248    0.4760 H   0  0  0  0  0  0  0  0  0  0  0  0
    1.6879    0.2347    1.8716 H   0  0  0  0  0  0  0  0  0  0  0  0
    3.1780   -0.4194    1.1184 H   0  0  0  0  0  0  0  0  0  0  0  0
  1  2  1  0
  2  3  1  0
  3  4  1  0
  4  5  1  0
  5  6  1  0
  6  7  1  0
  6  8  1  0
  1  9  1  0
  1 10  1  0
  1 11  1  0
  3 12  1  0
  3 13  1  0
  4 14  1  0
  4 15  1  0
  5 16  1  0
  5 17  1  0
  6 18  1  0
  7 19  1  0
  7 20  1  0
  7 21  1  0
  8 22  1  0
  8 23  1  0
  8 24  1  0
M  END
