
     RDKit          3D

 21 20  0  0  0  0  0  0  0  0999 V2000
    3.4025    0.4934    0.5482 C   0  0  0  0  0  0  0  0  0  0  0  0
    2.1221   -0.0534    0.5851 O   0  0  0  0  0  0  0  0  0  0  0  0
    1.7285   -0.5633   -0.6226 C   0  0  0  0  0  0  0  0  0  0  0  0
    0.3259   -1.1372   -0.5138 C   0  0  0  0  0  0  0  0  0  0  0  0
   -0.6398   -0.0809   -0.0995 C   0  0  0  0  0  0  0  0  0  0  0  0
   -0.4369    0.5386    0.9223 O   0  0  0  0  0  0  0  0  0  0  0  0
   -1.8347    0.2132   -0.9241 C   0  0  0  0  0  0  0  0  0  0  0  0
   -2.7017    1.1362   -0.4280 O   0  0  0  0  0  0  0  0  0  0  0  0
   -3.2636    0.6991    0.7511 C   0  0  0  0  0  0  0  0  0  0  0  0
    3.4413    1.3203   -0.1912 H   0  0  0  0  0  0  0  0  0  0  0  0
    3.6554    0.8648    1.5605 H   0  0  0  0  0  0  0  0  0  0  0  0
    4.1734   -0.2444    0.2746 H   0  0  0  0  0  0  0  0  0  0  0  0
    2.3750   -1.4011   -0.9800 H   0  0  0  0  0  0  0  0  0  0  0  0
    1.6906    0.2587   -1.3982 H   0  0  0  0  0  0  0  0  0  0  0  0
   -0.0170   -1.6172   -1.4511 H   0  0  0  0  0  0  0  0  0  0  0  0
    0.3342   -1.9491    0.2797 H   0  0  0  0  0  0  0  0  0  0  0  0
   -1.4697    0.4716   -1.9501 H   0  0  0  0  0  0  0  0  0  0  0  0
   -2.4413   -0.7256   -1.1083 H   0  0  0  0  0  0  0  0  0  0  0  0
   -3.9772    1.4899    1.1158 H   0  0  0  0  0  0  0  0  0  0  0  0
   -3.8685   -0.2087    0.4956 H   0  0  0  0  0  0  0  0  0  0  0  0
   -2.5987    0.4949    1.5827 H   0  0  0  0  0  0  0  0  0  0  0  0
  1  2  1  0
  2  3  1  0
  3  4  1  0
  4  5  1  0
  5  6  2  0
  5  7  1  0
  7  8  1  0
  8  9  1  0
  1 10  1  0
  1 11  1  0
  1 12  1  0
  3 13  1  0
  3 14  1  0
  4 15  1  0
  4 16  1  0
  7 17  1  0
  7 18  1  0
  9 19  1  0
  9 20  1  0
  9 21  1  0
M  END
