
     RDKit          3D

 21 22  0  0  0  0  0  0  0  0999 V2000
    3.0976    0.3026    0.2508 C   0  0  0  0  0  0  0  0  0  0  0  0
    1.8980   -0.3596    0.4519 O   0  0  0  0  0  0  0  0  0  0  0  0
    0.9877    0.1252   -0.4888 C   0  0  0  0  0  0  0  0  0  0  0  0
   -0.3495   -0.5069   -0.3822 C   0  0  0  0  0  0  0  0  0  0  0  0
   -0.2943   -1.9133   -0.5757 O   0  0  0  0  0  0  0  0  0  0  0  0
   -1.4694    0.0966   -1.1363 C   0  0  0  0  0  0  0  0  0  0  0  0
   -2.3557   -0.6930   -0.1906 C   0  0  0  0  0  0  0  0  0  0  0  0
   -1.2792   -0.0864    0.6952 C   0  0  0  0  0  0  0  0  0  0  0  0
   -1.5378    1.1537   -0.0872 C   0  0  0  0  0  0  0  0  0  0  0  0
    3.8547   -0.0714    1.0008 H   0  0  0  0  0  0  0  0  0  0  0  0
    3.0060    1.3965    0.3782 H   0  0  0  0  0  0  0  0  0  0  0  0
    3.5447    0.0715   -0.7436 H   0  0  0  0  0  0  0  0  0  0  0  0
    1.4489   -0.1294   -1.4894 H   0  0  0  0  0  0  0  0  0  0  0  0
    0.9942    1.2107   -0.4416 H   0  0  0  0  0  0  0  0  0  0  0  0
    0.3525   -2.0446   -1.3137 H   0  0  0  0  0  0  0  0  0  0  0  0
   -1.6043    0.1861   -2.1222 H   0  0  0  0  0  0  0  0  0  0  0  0
   -2.3383   -1.7730   -0.2947 H   0  0  0  0  0  0  0  0  0  0  0  0
   -3.3216   -0.1958   -0.0138 H   0  0  0  0  0  0  0  0  0  0  0  0
   -1.2074   -0.2050    1.6827 H   0  0  0  0  0  0  0  0  0  0  0  0
   -2.6109    1.4758    0.0291 H   0  0  0  0  0  0  0  0  0  0  0  0
   -0.8159    1.9596   -0.0723 H   0  0  0  0  0  0  0  0  0  0  0  0
  1  2  1  0
  2  3  1  0
  3  4  1  0
  4  5  1  0
  4  6  1  0
  6  7  1  0
  7  8  1  0
  8  9  1  0
  8  4  1  0
  9  6  1  0
  1 10  1  0
  1 11  1  0
  1 12  1  0
  3 13  1  0
  3 14  1  0
  5 15  1  0
  6 16  1  0
  7 17  1  0
  7 18  1  0
  8 19  1  0
  9 20  1  0
  9 21  1  0
M  END
