
     RDKit          3D

 19 19  0  0  0  0  0  0  0  0999 V2000
   -2.5958   -0.0723   -1.3112 C   0  0  0  0  0  0  0  0  0  0  0  0
   -2.5544    0.0842    0.0563 O   0  0  0  0  0  0  0  0  0  0  0  0
   -1.2911    0.4068    0.4849 C   0  0  0  0  0  0  0  0  0  0  0  0
   -0.2169   -0.6020    0.1937 C   0  0  0  0  0  0  0  0  0  0  0  0
    1.0676   -0.0344    0.7749 C   0  0  0  0  0  0  0  0  0  0  0  0
    2.1864   -0.8614    0.5888 O   0  0  0  0  0  0  0  0  0  0  0  0
    2.9442    0.3289    0.4986 C   0  0  0  0  0  0  0  0  0  0  0  0
    1.7413    0.9732   -0.0679 C   0  0  0  0  0  0  0  0  0  0  0  0
    1.4884    1.8643   -0.8276 O   0  0  0  0  0  0  0  0  0  0  0  0
   -3.6462   -0.3063   -1.6222 H   0  0  0  0  0  0  0  0  0  0  0  0
   -2.2823    0.8487   -1.8425 H   0  0  0  0  0  0  0  0  0  0  0  0
   -1.9232   -0.9251   -1.5904 H   0  0  0  0  0  0  0  0  0  0  0  0
   -0.9296    1.3642   -0.0010 H   0  0  0  0  0  0  0  0  0  0  0  0
   -1.3574    0.6456    1.5691 H   0  0  0  0  0  0  0  0  0  0  0  0
   -0.1041   -0.8521   -0.8669 H   0  0  0  0  0  0  0  0  0  0  0  0
   -0.4675   -1.5381    0.7340 H   0  0  0  0  0  0  0  0  0  0  0  0
    0.9678    0.3055    1.8199 H   0  0  0  0  0  0  0  0  0  0  0  0
    3.8236    0.2682   -0.1493 H   0  0  0  0  0  0  0  0  0  0  0  0
    3.1493    0.6579    1.5586 H   0  0  0  0  0  0  0  0  0  0  0  0
  1  2  1  0
  2  3  1  0
  3  4  1  0
  4  5  1  0
  5  6  1  0
  6  7  1  0
  7  8  1  0
  8  9  2  0
  8  5  1  0
  1 10  1  0
  1 11  1  0
  1 12  1  0
  3 13  1  0
  3 14  1  0
  4 15  1  0
  4 16  1  0
  5 17  1  0
  7 18  1  0
  7 19  1  0
M  END
