
     RDKit          3D

 25 24  0  0  0  0  0  0  0  0999 V2000
    3.1347    0.0559   -0.7484 C   0  0  0  0  0  0  0  0  0  0  0  0
    1.8751   -0.3237   -0.3424 O   0  0  0  0  0  0  0  0  0  0  0  0
    1.2640    0.6346    0.4653 C   0  0  0  0  0  0  0  0  0  0  0  0
   -0.1028    0.1678    0.8764 C   0  0  0  0  0  0  0  0  0  0  0  0
    0.0334   -1.1192    1.6415 C   0  0  0  0  0  0  0  0  0  0  0  0
   -1.0315    0.0327   -0.3108 C   0  0  0  0  0  0  0  0  0  0  0  0
   -1.1895    1.3546   -1.0083 C   0  0  0  0  0  0  0  0  0  0  0  0
   -2.4120   -0.4244    0.1130 C   0  0  0  0  0  0  0  0  0  0  0  0
   -2.3714   -1.6626    0.7488 O   0  0  0  0  0  0  0  0  0  0  0  0
    3.8416    0.2344    0.0765 H   0  0  0  0  0  0  0  0  0  0  0  0
    3.0809    0.9427   -1.4234 H   0  0  0  0  0  0  0  0  0  0  0  0
    3.5415   -0.7684   -1.3750 H   0  0  0  0  0  0  0  0  0  0  0  0
    1.8583    0.8458    1.3643 H   0  0  0  0  0  0  0  0  0  0  0  0
    1.1826    1.5839   -0.1036 H   0  0  0  0  0  0  0  0  0  0  0  0
   -0.5668    0.9197    1.5532 H   0  0  0  0  0  0  0  0  0  0  0  0
    1.0006   -1.0353    2.2159 H   0  0  0  0  0  0  0  0  0  0  0  0
    0.1455   -2.0014    0.9941 H   0  0  0  0  0  0  0  0  0  0  0  0
   -0.7568   -1.2242    2.4095 H   0  0  0  0  0  0  0  0  0  0  0  0
   -0.6535   -0.7276   -1.0386 H   0  0  0  0  0  0  0  0  0  0  0  0
   -0.6904    1.4014   -1.9916 H   0  0  0  0  0  0  0  0  0  0  0  0
   -0.7964    2.1511   -0.3412 H   0  0  0  0  0  0  0  0  0  0  0  0
   -2.2714    1.5948   -1.2147 H   0  0  0  0  0  0  0  0  0  0  0  0
   -2.9756   -0.5827   -0.8531 H   0  0  0  0  0  0  0  0  0  0  0  0
   -2.9629    0.3332    0.6676 H   0  0  0  0  0  0  0  0  0  0  0  0
   -2.1771   -2.3831    0.1142 H   0  0  0  0  0  0  0  0  0  0  0  0
  1  2  1  0
  2  3  1  0
  3  4  1  0
  4  5  1  0
  4  6  1  0
  6  7  1  0
  6  8  1  0
  8  9  1  0
  1 10  1  0
  1 11  1  0
  1 12  1  0
  3 13  1  0
  3 14  1  0
  4 15  1  0
  5 16  1  0
  5 17  1  0
  5 18  1  0
  6 19  1  0
  7 20  1  0
  7 21  1  0
  7 22  1  0
  8 23  1  0
  8 24  1  0
  9 25  1  0
M  END
