
     RDKit          3D

 23 22  0  0  0  0  0  0  0  0999 V2000
    2.6806   -0.6478    1.4118 C   0  0  0  0  0  0  0  0  0  0  0  0
    1.9955    0.5527    1.4289 O   0  0  0  0  0  0  0  0  0  0  0  0
    2.2507    1.3175    0.2977 C   0  0  0  0  0  0  0  0  0  0  0  0
    1.8277    0.5697   -0.9219 C   0  0  0  0  0  0  0  0  0  0  0  0
    0.3793    0.3023   -0.7767 C   0  0  0  0  0  0  0  0  0  0  0  0
   -0.7994    0.0979   -0.6433 C   0  0  0  0  0  0  0  0  0  0  0  0
   -2.2453   -0.1417   -0.4621 C   0  0  0  0  0  0  0  0  0  0  0  0
   -2.4919   -1.5844   -0.0946 C   0  0  0  0  0  0  0  0  0  0  0  0
   -2.7249    0.7456    0.6772 C   0  0  0  0  0  0  0  0  0  0  0  0
    3.7875   -0.4951    1.3565 H   0  0  0  0  0  0  0  0  0  0  0  0
    2.4334   -1.1490    2.3947 H   0  0  0  0  0  0  0  0  0  0  0  0
    2.3435   -1.3705    0.6447 H   0  0  0  0  0  0  0  0  0  0  0  0
    1.8071    2.3267    0.3728 H   0  0  0  0  0  0  0  0  0  0  0  0
    3.3638    1.5168    0.2331 H   0  0  0  0  0  0  0  0  0  0  0  0
    2.0037    1.1736   -1.8616 H   0  0  0  0  0  0  0  0  0  0  0  0
    2.4184   -0.3497   -1.0848 H   0  0  0  0  0  0  0  0  0  0  0  0
   -2.8284    0.1532   -1.3545 H   0  0  0  0  0  0  0  0  0  0  0  0
   -3.0151   -2.0649   -0.9466 H   0  0  0  0  0  0  0  0  0  0  0  0
   -1.5306   -2.1199    0.0383 H   0  0  0  0  0  0  0  0  0  0  0  0
   -3.1312   -1.6601    0.8262 H   0  0  0  0  0  0  0  0  0  0  0  0
   -3.4973    0.1831    1.2337 H   0  0  0  0  0  0  0  0  0  0  0  0
   -1.8723    0.9567    1.3785 H   0  0  0  0  0  0  0  0  0  0  0  0
   -3.1546    1.6872    0.3057 H   0  0  0  0  0  0  0  0  0  0  0  0
  1  2  1  0
  2  3  1  0
  3  4  1  0
  4  5  1  0
  5  6  3  0
  6  7  1  0
  7  8  1  0
  7  9  1  0
  1 10  1  0
  1 11  1  0
  1 12  1  0
  3 13  1  0
  3 14  1  0
  4 15  1  0
  4 16  1  0
  7 17  1  0
  8 18  1  0
  8 19  1  0
  8 20  1  0
  9 21  1  0
  9 22  1  0
  9 23  1  0
M  END
