
     RDKit          3D

 23 22  0  0  0  0  0  0  0  0999 V2000
    3.0218   -0.8510   -0.1818 C   0  0  0  0  0  0  0  0  0  0  0  0
    2.7139    0.2498   -0.9465 O   0  0  0  0  0  0  0  0  0  0  0  0
    1.3802    0.5340   -1.0220 C   0  0  0  0  0  0  0  0  0  0  0  0
    0.7242    0.8210    0.3081 C   0  0  0  0  0  0  0  0  0  0  0  0
   -0.7346    1.1298    0.1732 C   0  0  0  0  0  0  0  0  0  0  0  0
   -1.5421    0.0283   -0.4350 C   0  0  0  0  0  0  0  0  0  0  0  0
   -1.4797   -1.2500    0.3673 C   0  0  0  0  0  0  0  0  0  0  0  0
   -2.9782    0.4626   -0.4301 C   0  0  0  0  0  0  0  0  0  0  0  0
   -3.8817   -0.3421   -0.5851 O   0  0  0  0  0  0  0  0  0  0  0  0
    2.5504   -1.7918   -0.5510 H   0  0  0  0  0  0  0  0  0  0  0  0
    2.7719   -0.6453    0.8761 H   0  0  0  0  0  0  0  0  0  0  0  0
    4.1266   -1.0817   -0.2079 H   0  0  0  0  0  0  0  0  0  0  0  0
    0.8497   -0.3391   -1.4970 H   0  0  0  0  0  0  0  0  0  0  0  0
    1.2312    1.3763   -1.7202 H   0  0  0  0  0  0  0  0  0  0  0  0
    0.8390   -0.0393    0.9995 H   0  0  0  0  0  0  0  0  0  0  0  0
    1.2176    1.7089    0.7436 H   0  0  0  0  0  0  0  0  0  0  0  0
   -1.1091    1.4049    1.1858 H   0  0  0  0  0  0  0  0  0  0  0  0
   -0.8412    2.0220   -0.4828 H   0  0  0  0  0  0  0  0  0  0  0  0
   -1.1804   -0.1619   -1.4588 H   0  0  0  0  0  0  0  0  0  0  0  0
   -1.4527   -1.0690    1.4550 H   0  0  0  0  0  0  0  0  0  0  0  0
   -0.5621   -1.8121    0.0900 H   0  0  0  0  0  0  0  0  0  0  0  0
   -2.4031   -1.8541    0.1477 H   0  0  0  0  0  0  0  0  0  0  0  0
   -3.2617    1.5001   -0.2894 H   0  0  0  0  0  0  0  0  0  0  0  0
  1  2  1  0
  2  3  1  0
  3  4  1  0
  4  5  1  0
  5  6  1  0
  6  7  1  0
  6  8  1  0
  8  9  2  0
  1 10  1  0
  1 11  1  0
  1 12  1  0
  3 13  1  0
  3 14  1  0
  4 15  1  0
  4 16  1  0
  5 17  1  0
  5 18  1  0
  6 19  1  0
  7 20  1  0
  7 21  1  0
  7 22  1  0
  8 23  1  0
M  END
