
     RDKit          3D

 17 16  0  0  0  0  0  0  0  0999 V2000
   -4.0096   -0.5100    0.2351 C   0  0  0  0  0  0  0  0  0  0  0  0
   -2.6366   -0.7420    0.4835 O   0  0  0  0  0  0  0  0  0  0  0  0
   -1.9578    0.0721   -0.4359 C   0  0  0  0  0  0  0  0  0  0  0  0
   -0.5060   -0.0655   -0.2945 C   0  0  0  0  0  0  0  0  0  0  0  0
    0.6913   -0.1618   -0.1657 C   0  0  0  0  0  0  0  0  0  0  0  0
    2.1131   -0.2753   -0.0095 C   0  0  0  0  0  0  0  0  0  0  0  0
    2.6990   -1.2406    0.5353 O   0  0  0  0  0  0  0  0  0  0  0  0
    2.8969    0.7546   -0.4950 O   0  0  0  0  0  0  0  0  0  0  0  0
    4.3015    0.6667   -0.3535 C   0  0  0  0  0  0  0  0  0  0  0  0
   -4.6169   -1.1184    0.9232 H   0  0  0  0  0  0  0  0  0  0  0  0
   -4.1594    0.5775    0.4002 H   0  0  0  0  0  0  0  0  0  0  0  0
   -4.2433   -0.7344   -0.8415 H   0  0  0  0  0  0  0  0  0  0  0  0
   -2.2430    1.1383   -0.3393 H   0  0  0  0  0  0  0  0  0  0  0  0
   -2.3072   -0.2548   -1.4401 H   0  0  0  0  0  0  0  0  0  0  0  0
    4.5008    0.3078    0.6824 H   0  0  0  0  0  0  0  0  0  0  0  0
    4.7896    1.6485   -0.5561 H   0  0  0  0  0  0  0  0  0  0  0  0
    4.6878   -0.0628   -1.1137 H   0  0  0  0  0  0  0  0  0  0  0  0
  1  2  1  0
  2  3  1  0
  3  4  1  0
  4  5  3  0
  5  6  1  0
  6  7  2  0
  6  8  1  0
  8  9  1  0
  1 10  1  0
  1 11  1  0
  1 12  1  0
  3 13  1  0
  3 14  1  0
  9 15  1  0
  9 16  1  0
  9 17  1  0
M  END
