
     RDKit          3D

 20 21  0  0  0  0  0  0  0  0999 V2000
    3.1414    0.0640    0.1322 C   0  0  0  0  0  0  0  0  0  0  0  0
    1.9615    0.7256    0.5161 O   0  0  0  0  0  0  0  0  0  0  0  0
    0.9457    0.1073   -0.2690 C   0  0  0  0  0  0  0  0  0  0  0  0
   -0.3848    0.6736   -0.0048 C   0  0  0  0  0  0  0  0  0  0  0  0
   -1.4968    0.1048   -0.7797 C   0  0  0  0  0  0  0  0  0  0  0  0
   -1.3819   -1.1355    0.0216 C   0  0  0  0  0  0  0  0  0  0  0  0
   -1.1613   -0.0765    1.0320 C   0  0  0  0  0  0  0  0  0  0  0  0
   -2.3667    0.5795    0.3907 C   0  0  0  0  0  0  0  0  0  0  0  0
    3.0717   -1.0370    0.3436 H   0  0  0  0  0  0  0  0  0  0  0  0
    3.1753    0.1662   -0.9881 H   0  0  0  0  0  0  0  0  0  0  0  0
    4.0431    0.5292    0.5280 H   0  0  0  0  0  0  0  0  0  0  0  0
    1.2803    0.3064   -1.3294 H   0  0  0  0  0  0  0  0  0  0  0  0
    1.0501   -0.9610   -0.0120 H   0  0  0  0  0  0  0  0  0  0  0  0
   -0.4398    1.7895    0.0901 H   0  0  0  0  0  0  0  0  0  0  0  0
   -1.7467    0.2204   -1.7420 H   0  0  0  0  0  0  0  0  0  0  0  0
   -0.6282   -1.8763   -0.1871 H   0  0  0  0  0  0  0  0  0  0  0  0
   -2.3722   -1.6396    0.2038 H   0  0  0  0  0  0  0  0  0  0  0  0
   -0.9756   -0.1489    2.0099 H   0  0  0  0  0  0  0  0  0  0  0  0
   -2.4585    1.6590    0.4989 H   0  0  0  0  0  0  0  0  0  0  0  0
   -3.2566   -0.0507    0.4472 H   0  0  0  0  0  0  0  0  0  0  0  0
  1  2  1  0
  2  3  1  0
  3  4  1  0
  4  5  1  0
  5  6  1  0
  6  7  1  0
  7  8  1  0
  7  4  1  0
  8  5  1  0
  1  9  1  0
  1 10  1  0
  1 11  1  0
  3 12  1  0
  3 13  1  0
  4 14  1  0
  5 15  1  0
  6 16  1  0
  6 17  1  0
  7 18  1  0
  8 19  1  0
  8 20  1  0
M  END
