
     RDKit          3D

 23 23  0  0  0  0  0  0  0  0999 V2000
    3.0991    0.3775    0.4449 C   0  0  0  0  0  0  0  0  0  0  0  0
    2.3332   -0.5450    1.1239 O   0  0  0  0  0  0  0  0  0  0  0  0
    1.5626   -1.2797    0.2588 C   0  0  0  0  0  0  0  0  0  0  0  0
    0.5937   -0.5103   -0.5721 C   0  0  0  0  0  0  0  0  0  0  0  0
   -0.4098    0.2611    0.2385 C   0  0  0  0  0  0  0  0  0  0  0  0
   -1.3520    1.0112   -0.6994 C   0  0  0  0  0  0  0  0  0  0  0  0
   -2.5072    0.1381   -0.2917 C   0  0  0  0  0  0  0  0  0  0  0  0
   -3.5316    0.9044    0.2374 O   0  0  0  0  0  0  0  0  0  0  0  0
   -1.6038   -0.5289    0.7163 C   0  0  0  0  0  0  0  0  0  0  0  0
    3.7437    0.9817    1.1396 H   0  0  0  0  0  0  0  0  0  0  0  0
    2.3780    1.1106   -0.0282 H   0  0  0  0  0  0  0  0  0  0  0  0
    3.6902   -0.0584   -0.3741 H   0  0  0  0  0  0  0  0  0  0  0  0
    1.0467   -2.1151    0.7768 H   0  0  0  0  0  0  0  0  0  0  0  0
    2.2743   -1.7837   -0.4568 H   0  0  0  0  0  0  0  0  0  0  0  0
    0.0836   -1.2679   -1.2409 H   0  0  0  0  0  0  0  0  0  0  0  0
    1.1045    0.1723   -1.2792 H   0  0  0  0  0  0  0  0  0  0  0  0
    0.0766    0.8659    1.0023 H   0  0  0  0  0  0  0  0  0  0  0  0
   -1.1205    0.9195   -1.7621 H   0  0  0  0  0  0  0  0  0  0  0  0
   -1.4615    2.0909   -0.4220 H   0  0  0  0  0  0  0  0  0  0  0  0
   -2.8945   -0.5548   -1.0518 H   0  0  0  0  0  0  0  0  0  0  0  0
   -3.6333    1.7086   -0.3660 H   0  0  0  0  0  0  0  0  0  0  0  0
   -1.9509   -0.2747    1.7519 H   0  0  0  0  0  0  0  0  0  0  0  0
   -1.5210   -1.6232    0.6129 H   0  0  0  0  0  0  0  0  0  0  0  0
  1  2  1  0
  2  3  1  0
  3  4  1  0
  4  5  1  0
  5  6  1  0
  6  7  1  0
  7  8  1  0
  7  9  1  0
  9  5  1  0
  1 10  1  0
  1 11  1  0
  1 12  1  0
  3 13  1  0
  3 14  1  0
  4 15  1  0
  4 16  1  0
  5 17  1  0
  6 18  1  0
  6 19  1  0
  7 20  1  0
  8 21  1  0
  9 22  1  0
  9 23  1  0
M  END
