
     RDKit          3D

 23 23  0  0  0  0  0  0  0  0999 V2000
    2.9274    0.2369    0.7251 C   0  0  0  0  0  0  0  0  0  0  0  0
    1.6923   -0.2583    0.3775 O   0  0  0  0  0  0  0  0  0  0  0  0
    1.1481    0.4357   -0.7031 C   0  0  0  0  0  0  0  0  0  0  0  0
   -0.2099   -0.1235   -1.0704 C   0  0  0  0  0  0  0  0  0  0  0  0
   -0.0270   -1.4630   -1.4079 O   0  0  0  0  0  0  0  0  0  0  0  0
   -1.1328   -0.0027    0.1285 C   0  0  0  0  0  0  0  0  0  0  0  0
   -1.3687    1.3794    0.6347 C   0  0  0  0  0  0  0  0  0  0  0  0
   -2.4156   -0.8602    0.0684 C   0  0  0  0  0  0  0  0  0  0  0  0
   -1.2557   -1.2009    0.9787 C   0  0  0  0  0  0  0  0  0  0  0  0
    3.3520   -0.3100    1.5739 H   0  0  0  0  0  0  0  0  0  0  0  0
    3.6031    0.0694   -0.1651 H   0  0  0  0  0  0  0  0  0  0  0  0
    2.9171    1.3405    0.9305 H   0  0  0  0  0  0  0  0  0  0  0  0
    1.0967    1.5011   -0.3874 H   0  0  0  0  0  0  0  0  0  0  0  0
    1.8112    0.4055   -1.5907 H   0  0  0  0  0  0  0  0  0  0  0  0
   -0.6461    0.3824   -1.9461 H   0  0  0  0  0  0  0  0  0  0  0  0
    0.9023   -1.6716   -1.6578 H   0  0  0  0  0  0  0  0  0  0  0  0
   -2.4535    1.5746    0.8818 H   0  0  0  0  0  0  0  0  0  0  0  0
   -0.8254    1.6021    1.5813 H   0  0  0  0  0  0  0  0  0  0  0  0
   -1.1257    2.0988   -0.1682 H   0  0  0  0  0  0  0  0  0  0  0  0
   -2.5418   -1.4522   -0.8811 H   0  0  0  0  0  0  0  0  0  0  0  0
   -3.3327   -0.4516    0.4952 H   0  0  0  0  0  0  0  0  0  0  0  0
   -1.4190   -1.1246    2.0829 H   0  0  0  0  0  0  0  0  0  0  0  0
   -0.6965   -2.1078    0.6988 H   0  0  0  0  0  0  0  0  0  0  0  0
  1  2  1  0
  2  3  1  0
  3  4  1  0
  4  5  1  0
  4  6  1  0
  6  7  1  0
  6  8  1  0
  8  9  1  0
  9  6  1  0
  1 10  1  0
  1 11  1  0
  1 12  1  0
  3 13  1  0
  3 14  1  0
  4 15  1  0
  5 16  1  0
  7 17  1  0
  7 18  1  0
  7 19  1  0
  8 20  1  0
  8 21  1  0
  9 22  1  0
  9 23  1  0
M  END
