
     RDKit          3D

 23 23  0  0  0  0  0  0  0  0999 V2000
    3.0162    1.0227    0.2807 C   0  0  0  0  0  0  0  0  0  0  0  0
    2.7953    0.2617   -0.8183 O   0  0  0  0  0  0  0  0  0  0  0  0
    1.8397   -0.7045   -0.6312 C   0  0  0  0  0  0  0  0  0  0  0  0
    0.5165   -0.0567   -0.2826 C   0  0  0  0  0  0  0  0  0  0  0  0
   -0.5624   -1.1031   -0.0992 C   0  0  0  0  0  0  0  0  0  0  0  0
   -1.8757   -0.4705    0.2209 C   0  0  0  0  0  0  0  0  0  0  0  0
   -2.9097   -1.4351    0.3929 O   0  0  0  0  0  0  0  0  0  0  0  0
   -2.3123    0.7983   -0.3962 C   0  0  0  0  0  0  0  0  0  0  0  0
   -1.9527    0.7034    1.1019 C   0  0  0  0  0  0  0  0  0  0  0  0
    2.1573    1.6077    0.6498 H   0  0  0  0  0  0  0  0  0  0  0  0
    3.3437    0.3824    1.1353 H   0  0  0  0  0  0  0  0  0  0  0  0
    3.8853    1.7108    0.0404 H   0  0  0  0  0  0  0  0  0  0  0  0
    1.7268   -1.2240   -1.6296 H   0  0  0  0  0  0  0  0  0  0  0  0
    2.1271   -1.4565    0.1357 H   0  0  0  0  0  0  0  0  0  0  0  0
    0.5942    0.4485    0.7086 H   0  0  0  0  0  0  0  0  0  0  0  0
    0.2808    0.6863   -1.0375 H   0  0  0  0  0  0  0  0  0  0  0  0
   -0.6085   -1.7183   -1.0471 H   0  0  0  0  0  0  0  0  0  0  0  0
   -0.2925   -1.8375    0.6874 H   0  0  0  0  0  0  0  0  0  0  0  0
   -2.8667   -2.0652   -0.3850 H   0  0  0  0  0  0  0  0  0  0  0  0
   -3.3876    0.9248   -0.6362 H   0  0  0  0  0  0  0  0  0  0  0  0
   -1.6522    1.4637   -0.9455 H   0  0  0  0  0  0  0  0  0  0  0  0
   -1.0534    1.2100    1.4480 H   0  0  0  0  0  0  0  0  0  0  0  0
   -2.8090    0.8511    1.8023 H   0  0  0  0  0  0  0  0  0  0  0  0
  1  2  1  0
  2  3  1  0
  3  4  1  0
  4  5  1  0
  5  6  1  0
  6  7  1  0
  6  8  1  0
  8  9  1  0
  9  6  1  0
  1 10  1  0
  1 11  1  0
  1 12  1  0
  3 13  1  0
  3 14  1  0
  4 15  1  0
  4 16  1  0
  5 17  1  0
  5 18  1  0
  7 19  1  0
  8 20  1  0
  8 21  1  0
  9 22  1  0
  9 23  1  0
M  END
