
     RDKit          3D

 23 23  0  0  0  0  0  0  0  0999 V2000
    3.3948   -0.8994    0.2157 C   0  0  0  0  0  0  0  0  0  0  0  0
    2.2555   -0.7192   -0.5825 O   0  0  0  0  0  0  0  0  0  0  0  0
    1.4682    0.2271    0.0731 C   0  0  0  0  0  0  0  0  0  0  0  0
    0.1983    0.5461   -0.6434 C   0  0  0  0  0  0  0  0  0  0  0  0
   -0.7543   -0.5809   -0.8770 C   0  0  0  0  0  0  0  0  0  0  0  0
   -1.8416    0.2565   -0.2337 C   0  0  0  0  0  0  0  0  0  0  0  0
   -2.5686   -0.5245    0.8108 C   0  0  0  0  0  0  0  0  0  0  0  0
   -2.6631    0.9351   -1.1195 O   0  0  0  0  0  0  0  0  0  0  0  0
   -0.7876    1.1956    0.3356 C   0  0  0  0  0  0  0  0  0  0  0  0
    3.1566   -1.2564    1.2244 H   0  0  0  0  0  0  0  0  0  0  0  0
    3.8346    0.1304    0.3316 H   0  0  0  0  0  0  0  0  0  0  0  0
    4.1522   -1.5388   -0.2745 H   0  0  0  0  0  0  0  0  0  0  0  0
    1.2550   -0.1394    1.1083 H   0  0  0  0  0  0  0  0  0  0  0  0
    2.0389    1.1727    0.1882 H   0  0  0  0  0  0  0  0  0  0  0  0
    0.3786    1.1641   -1.5557 H   0  0  0  0  0  0  0  0  0  0  0  0
   -1.0154   -0.7113   -1.9664 H   0  0  0  0  0  0  0  0  0  0  0  0
   -0.5405   -1.5381   -0.3973 H   0  0  0  0  0  0  0  0  0  0  0  0
   -3.3214   -1.1586    0.3007 H   0  0  0  0  0  0  0  0  0  0  0  0
   -1.8171   -1.1301    1.3668 H   0  0  0  0  0  0  0  0  0  0  0  0
   -3.0729    0.1082    1.5483 H   0  0  0  0  0  0  0  0  0  0  0  0
   -2.1986    1.2163   -1.9298 H   0  0  0  0  0  0  0  0  0  0  0  0
   -0.5881    0.9829    1.3918 H   0  0  0  0  0  0  0  0  0  0  0  0
   -0.9636    2.2617    0.1269 H   0  0  0  0  0  0  0  0  0  0  0  0
  1  2  1  0
  2  3  1  0
  3  4  1  0
  4  5  1  0
  5  6  1  0
  6  7  1  0
  6  8  1  0
  6  9  1  0
  9  4  1  0
  1 10  1  0
  1 11  1  0
  1 12  1  0
  3 13  1  0
  3 14  1  0
  4 15  1  0
  5 16  1  0
  5 17  1  0
  7 18  1  0
  7 19  1  0
  7 20  1  0
  8 21  1  0
  9 22  1  0
  9 23  1  0
M  END
