
     RDKit          3D

 18 18  0  0  0  0  0  0  0  0999 V2000
    3.0898    0.3454   -0.0218 C   0  0  0  0  0  0  0  0  0  0  0  0
    1.9419   -0.2590    0.5393 O   0  0  0  0  0  0  0  0  0  0  0  0
    0.9322   -0.0993   -0.4070 C   0  0  0  0  0  0  0  0  0  0  0  0
   -0.3775   -0.6942    0.0359 C   0  0  0  0  0  0  0  0  0  0  0  0
   -1.3024   -0.4818   -0.9687 O   0  0  0  0  0  0  0  0  0  0  0  0
   -2.2967    0.3485   -0.4474 C   0  0  0  0  0  0  0  0  0  0  0  0
   -2.2681   -0.1447    1.0081 C   0  0  0  0  0  0  0  0  0  0  0  0
   -0.8673   -0.1243    1.1959 O   0  0  0  0  0  0  0  0  0  0  0  0
    3.3596   -0.1555   -0.9836 H   0  0  0  0  0  0  0  0  0  0  0  0
    3.9230    0.3389    0.7092 H   0  0  0  0  0  0  0  0  0  0  0  0
    2.7680    1.3731   -0.3025 H   0  0  0  0  0  0  0  0  0  0  0  0
    0.7571    0.9794   -0.6354 H   0  0  0  0  0  0  0  0  0  0  0  0
    1.2202   -0.6004   -1.3477 H   0  0  0  0  0  0  0  0  0  0  0  0
   -0.2322   -1.7946    0.2410 H   0  0  0  0  0  0  0  0  0  0  0  0
   -3.2710    0.2163   -0.9087 H   0  0  0  0  0  0  0  0  0  0  0  0
   -1.9306    1.4124   -0.4616 H   0  0  0  0  0  0  0  0  0  0  0  0
   -2.6523   -1.1828    0.9737 H   0  0  0  0  0  0  0  0  0  0  0  0
   -2.7938    0.5227    1.6812 H   0  0  0  0  0  0  0  0  0  0  0  0
  1  2  1  0
  2  3  1  0
  3  4  1  0
  4  5  1  0
  5  6  1  0
  6  7  1  0
  7  8  1  0
  8  4  1  0
  1  9  1  0
  1 10  1  0
  1 11  1  0
  3 12  1  0
  3 13  1  0
  4 14  1  0
  6 15  1  0
  6 16  1  0
  7 17  1  0
  7 18  1  0
M  END
