
     RDKit          3D

 25 24  0  0  0  0  0  0  0  0999 V2000
   -3.8946   -0.5515   -0.3919 C   0  0  0  0  0  0  0  0  0  0  0  0
   -2.5546   -0.5188   -0.0714 O   0  0  0  0  0  0  0  0  0  0  0  0
   -2.0816    0.7525    0.2109 C   0  0  0  0  0  0  0  0  0  0  0  0
   -0.6134    0.6271    0.5406 C   0  0  0  0  0  0  0  0  0  0  0  0
    0.1916    0.0535   -0.5797 C   0  0  0  0  0  0  0  0  0  0  0  0
    1.6461   -0.0076   -0.0896 C   0  0  0  0  0  0  0  0  0  0  0  0
    2.1002    1.4056    0.2519 C   0  0  0  0  0  0  0  0  0  0  0  0
    2.4617   -0.5916   -1.0421 O   0  0  0  0  0  0  0  0  0  0  0  0
    3.0865   -1.7169   -0.5108 C   0  0  0  0  0  0  0  0  0  0  0  0
   -4.1673   -1.6000   -0.5971 H   0  0  0  0  0  0  0  0  0  0  0  0
   -4.0615    0.1218   -1.2436 H   0  0  0  0  0  0  0  0  0  0  0  0
   -4.5357   -0.2098    0.4460 H   0  0  0  0  0  0  0  0  0  0  0  0
   -2.5972    1.0752    1.1548 H   0  0  0  0  0  0  0  0  0  0  0  0
   -2.2877    1.4988   -0.5554 H   0  0  0  0  0  0  0  0  0  0  0  0
   -0.4607    0.0296    1.4472 H   0  0  0  0  0  0  0  0  0  0  0  0
   -0.2314    1.6631    0.7461 H   0  0  0  0  0  0  0  0  0  0  0  0
    0.1125    0.6005   -1.5207 H   0  0  0  0  0  0  0  0  0  0  0  0
   -0.1054   -1.0080   -0.7723 H   0  0  0  0  0  0  0  0  0  0  0  0
    1.7046   -0.5921    0.8515 H   0  0  0  0  0  0  0  0  0  0  0  0
    1.7330    2.1153   -0.5080 H   0  0  0  0  0  0  0  0  0  0  0  0
    1.7374    1.6194    1.2757 H   0  0  0  0  0  0  0  0  0  0  0  0
    3.2054    1.3649    0.3141 H   0  0  0  0  0  0  0  0  0  0  0  0
    2.2599   -2.4121   -0.2089 H   0  0  0  0  0  0  0  0  0  0  0  0
    3.6423   -1.4738    0.4199 H   0  0  0  0  0  0  0  0  0  0  0  0
    3.7099   -2.2449   -1.2337 H   0  0  0  0  0  0  0  0  0  0  0  0
  1  2  1  0
  2  3  1  0
  3  4  1  0
  4  5  1  0
  5  6  1  0
  6  7  1  0
  6  8  1  0
  8  9  1  0
  1 10  1  0
  1 11  1  0
  1 12  1  0
  3 13  1  0
  3 14  1  0
  4 15  1  0
  4 16  1  0
  5 17  1  0
  5 18  1  0
  6 19  1  0
  7 20  1  0
  7 21  1  0
  7 22  1  0
  9 23  1  0
  9 24  1  0
  9 25  1  0
M  END
