
     RDKit          3D

 21 22  0  0  0  0  0  0  0  0999 V2000
    3.4692    0.4751    0.0790 C   0  0  0  0  0  0  0  0  0  0  0  0
    2.3304   -0.0306   -0.5257 O   0  0  0  0  0  0  0  0  0  0  0  0
    1.2859   -0.2048    0.3707 C   0  0  0  0  0  0  0  0  0  0  0  0
    0.1142   -0.7529   -0.3907 C   0  0  0  0  0  0  0  0  0  0  0  0
   -1.1335   -1.0110    0.4296 C   0  0  0  0  0  0  0  0  0  0  0  0
   -1.8769   -0.1494   -0.5806 C   0  0  0  0  0  0  0  0  0  0  0  0
   -3.0956    0.5942   -0.1627 C   0  0  0  0  0  0  0  0  0  0  0  0
   -1.7145   -0.3645   -1.9243 O   0  0  0  0  0  0  0  0  0  0  0  0
   -0.7062    0.2610   -1.1507 C   0  0  0  0  0  0  0  0  0  0  0  0
    3.8709   -0.1589    0.8732 H   0  0  0  0  0  0  0  0  0  0  0  0
    3.2649    1.5230    0.4094 H   0  0  0  0  0  0  0  0  0  0  0  0
    4.2492    0.5533   -0.7195 H   0  0  0  0  0  0  0  0  0  0  0  0
    1.6120   -0.9609    1.1162 H   0  0  0  0  0  0  0  0  0  0  0  0
    1.0470    0.7104    0.9376 H   0  0  0  0  0  0  0  0  0  0  0  0
    0.4135   -1.5792   -1.0504 H   0  0  0  0  0  0  0  0  0  0  0  0
   -1.1070   -0.4774    1.4022 H   0  0  0  0  0  0  0  0  0  0  0  0
   -1.4695   -2.0596    0.4709 H   0  0  0  0  0  0  0  0  0  0  0  0
   -3.1250    1.5546   -0.7137 H   0  0  0  0  0  0  0  0  0  0  0  0
   -4.0407    0.0416   -0.3942 H   0  0  0  0  0  0  0  0  0  0  0  0
   -3.0999    0.8311    0.9297 H   0  0  0  0  0  0  0  0  0  0  0  0
   -0.2886    1.2049   -1.4772 H   0  0  0  0  0  0  0  0  0  0  0  0
  1  2  1  0
  2  3  1  0
  3  4  1  0
  4  5  1  0
  5  6  1  0
  6  7  1  0
  6  8  1  0
  8  9  1  0
  9  4  1  0
  9  6  1  0
  1 10  1  0
  1 11  1  0
  1 12  1  0
  3 13  1  0
  3 14  1  0
  4 15  1  0
  5 16  1  0
  5 17  1  0
  7 18  1  0
  7 19  1  0
  7 20  1  0
  9 21  1  0
M  END
