
     RDKit          3D

 20 20  0  0  0  0  0  0  0  0999 V2000
    2.9234   -0.0877    0.2032 C   0  0  0  0  0  0  0  0  0  0  0  0
    1.5864   -0.2186    0.5132 O   0  0  0  0  0  0  0  0  0  0  0  0
    0.7652    0.0716   -0.5660 C   0  0  0  0  0  0  0  0  0  0  0  0
   -0.6807   -0.1078   -0.1004 C   0  0  0  0  0  0  0  0  0  0  0  0
   -0.8279   -1.4822    0.5063 C   0  0  0  0  0  0  0  0  0  0  0  0
   -1.1582    1.0352    0.7199 C   0  0  0  0  0  0  0  0  0  0  0  0
   -2.3387    0.9384   -0.1961 C   0  0  0  0  0  0  0  0  0  0  0  0
   -1.6243    0.1437   -1.0600 O   0  0  0  0  0  0  0  0  0  0  0  0
    3.5207   -0.3309    1.0986 H   0  0  0  0  0  0  0  0  0  0  0  0
    3.1234    0.9393   -0.1304 H   0  0  0  0  0  0  0  0  0  0  0  0
    3.1629   -0.8535   -0.5629 H   0  0  0  0  0  0  0  0  0  0  0  0
    0.9998   -0.7026   -1.3518 H   0  0  0  0  0  0  0  0  0  0  0  0
    0.8654    1.0884   -0.9502 H   0  0  0  0  0  0  0  0  0  0  0  0
   -1.8208   -1.6906    0.9063 H   0  0  0  0  0  0  0  0  0  0  0  0
   -0.0365   -1.6324    1.2520 H   0  0  0  0  0  0  0  0  0  0  0  0
   -0.6109   -2.2095   -0.3280 H   0  0  0  0  0  0  0  0  0  0  0  0
   -0.5999    1.9607    0.5337 H   0  0  0  0  0  0  0  0  0  0  0  0
   -1.4174    0.8355    1.7770 H   0  0  0  0  0  0  0  0  0  0  0  0
   -2.6451    1.9164   -0.6206 H   0  0  0  0  0  0  0  0  0  0  0  0
   -3.1867    0.3866    0.2455 H   0  0  0  0  0  0  0  0  0  0  0  0
  1  2  1  0
  2  3  1  0
  3  4  1  0
  4  5  1  0
  4  6  1  0
  6  7  1  0
  7  8  1  0
  8  4  1  0
  1  9  1  0
  1 10  1  0
  1 11  1  0
  3 12  1  0
  3 13  1  0
  5 14  1  0
  5 15  1  0
  5 16  1  0
  6 17  1  0
  6 18  1  0
  7 19  1  0
  7 20  1  0
M  END
