
     RDKit          3D

 15 14  0  0  0  0  0  0  0  0999 V2000
    2.4397    0.6633   -0.1585 C   0  0  0  0  0  0  0  0  0  0  0  0
    1.5147   -0.2311    0.3650 O   0  0  0  0  0  0  0  0  0  0  0  0
    0.2431   -0.0553   -0.1664 C   0  0  0  0  0  0  0  0  0  0  0  0
   -0.6693   -1.0722    0.4699 C   0  0  0  0  0  0  0  0  0  0  0  0
   -1.9954   -0.9822   -0.0013 O   0  0  0  0  0  0  0  0  0  0  0  0
   -2.7897    0.1347    0.1162 C   0  0  0  0  0  0  0  0  0  0  0  0
   -2.3280    1.1466    0.6725 O   0  0  0  0  0  0  0  0  0  0  0  0
    2.1079    1.6937    0.0698 H   0  0  0  0  0  0  0  0  0  0  0  0
    2.5904    0.4882   -1.2496 H   0  0  0  0  0  0  0  0  0  0  0  0
    3.4127    0.4353    0.3360 H   0  0  0  0  0  0  0  0  0  0  0  0
   -0.0637    0.9884    0.0185 H   0  0  0  0  0  0  0  0  0  0  0  0
    0.2188   -0.2170   -1.2610 H   0  0  0  0  0  0  0  0  0  0  0  0
   -0.2931   -2.0743    0.1659 H   0  0  0  0  0  0  0  0  0  0  0  0
   -0.6016   -1.0398    1.5753 H   0  0  0  0  0  0  0  0  0  0  0  0
   -3.7864    0.1219   -0.2682 H   0  0  0  0  0  0  0  0  0  0  0  0
  1  2  1  0
  2  3  1  0
  3  4  1  0
  4  5  1  0
  5  6  1  0
  6  7  2  0
  1  8  1  0
  1  9  1  0
  1 10  1  0
  3 11  1  0
  3 12  1  0
  4 13  1  0
  4 14  1  0
  6 15  1  0
M  END
