
     RDKit          3D

 19 19  0  0  0  0  0  0  0  0999 V2000
   -3.2157    0.2833    0.3613 C   0  0  0  0  0  0  0  0  0  0  0  0
   -2.8141   -0.4921   -0.6916 O   0  0  0  0  0  0  0  0  0  0  0  0
   -1.5694   -1.0032   -0.5810 C   0  0  0  0  0  0  0  0  0  0  0  0
   -0.4795   -0.0203   -0.5632 C   0  0  0  0  0  0  0  0  0  0  0  0
   -0.7239    1.1593   -0.7190 O   0  0  0  0  0  0  0  0  0  0  0  0
    0.9511   -0.4097   -0.3575 C   0  0  0  0  0  0  0  0  0  0  0  0
    1.7789    0.0616   -1.4978 O   0  0  0  0  0  0  0  0  0  0  0  0
    1.9039    0.5929   -0.1030 C   0  0  0  0  0  0  0  0  0  0  0  0
    3.3155    0.3809    0.3546 C   0  0  0  0  0  0  0  0  0  0  0  0
   -3.2035   -0.2934    1.3387 H   0  0  0  0  0  0  0  0  0  0  0  0
   -4.2700    0.6797    0.2022 H   0  0  0  0  0  0  0  0  0  0  0  0
   -2.5971    1.1777    0.4527 H   0  0  0  0  0  0  0  0  0  0  0  0
   -1.4388   -1.7705   -1.3865 H   0  0  0  0  0  0  0  0  0  0  0  0
   -1.5070   -1.5844    0.3941 H   0  0  0  0  0  0  0  0  0  0  0  0
    1.1719   -1.4789   -0.2181 H   0  0  0  0  0  0  0  0  0  0  0  0
    1.6073    1.6762   -0.1643 H   0  0  0  0  0  0  0  0  0  0  0  0
    3.4071    0.3821    1.4578 H   0  0  0  0  0  0  0  0  0  0  0  0
    3.7525   -0.5612   -0.0877 H   0  0  0  0  0  0  0  0  0  0  0  0
    3.9307    1.2198   -0.0339 H   0  0  0  0  0  0  0  0  0  0  0  0
  1  2  1  0
  2  3  1  0
  3  4  1  0
  4  5  2  0
  4  6  1  0
  6  7  1  0
  7  8  1  0
  8  9  1  0
  8  6  1  0
  1 10  1  0
  1 11  1  0
  1 12  1  0
  3 13  1  0
  3 14  1  0
  6 15  1  0
  8 16  1  0
  9 17  1  0
  9 18  1  0
  9 19  1  0
M  END
