
     RDKit          3D

 17 16  0  0  0  0  0  0  0  0999 V2000
   -1.6058    1.7376   -0.8085 C   0  0  0  0  0  0  0  0  0  0  0  0
   -2.3292    0.6008   -1.1432 O   0  0  0  0  0  0  0  0  0  0  0  0
   -2.2635   -0.3222   -0.1572 C   0  0  0  0  0  0  0  0  0  0  0  0
   -0.8264   -0.7110   -0.0125 C   0  0  0  0  0  0  0  0  0  0  0  0
    0.3868   -1.0188    0.1047 C   0  0  0  0  0  0  0  0  0  0  0  0
    1.8362   -1.3848    0.2185 C   0  0  0  0  0  0  0  0  0  0  0  0
    2.0590   -1.5048    1.5543 O   0  0  0  0  0  0  0  0  0  0  0  0
    2.5946   -0.1950   -0.3433 C   0  0  0  0  0  0  0  0  0  0  0  0
    2.5808    0.0374   -1.5648 O   0  0  0  0  0  0  0  0  0  0  0  0
   -1.6733    2.4990   -1.6292 H   0  0  0  0  0  0  0  0  0  0  0  0
   -0.5300    1.5620   -0.6567 H   0  0  0  0  0  0  0  0  0  0  0  0
   -1.9955    2.2801    0.0878 H   0  0  0  0  0  0  0  0  0  0  0  0
   -2.6412    0.0415    0.8046 H   0  0  0  0  0  0  0  0  0  0  0  0
   -2.8144   -1.2435   -0.4571 H   0  0  0  0  0  0  0  0  0  0  0  0
    2.0793   -2.2349   -0.4136 H   0  0  0  0  0  0  0  0  0  0  0  0
    2.0049   -0.5775    1.9534 H   0  0  0  0  0  0  0  0  0  0  0  0
    3.1376    0.4340    0.3187 H   0  0  0  0  0  0  0  0  0  0  0  0
  1  2  1  0
  2  3  1  0
  3  4  1  0
  4  5  3  0
  5  6  1  0
  6  7  1  0
  6  8  1  0
  8  9  2  0
  1 10  1  0
  1 11  1  0
  1 12  1  0
  3 13  1  0
  3 14  1  0
  6 15  1  0
  7 16  1  0
  8 17  1  0
M  END
