
     RDKit          3D

 18 18  0  0  0  0  0  0  0  0999 V2000
    2.9301    0.5567   -0.3191 C   0  0  0  0  0  0  0  0  0  0  0  0
    1.5523    0.3531   -0.3588 O   0  0  0  0  0  0  0  0  0  0  0  0
    1.2024   -0.7106    0.4864 C   0  0  0  0  0  0  0  0  0  0  0  0
   -0.2893   -0.9412    0.4520 C   0  0  0  0  0  0  0  0  0  0  0  0
   -0.9126   -1.2588   -0.7271 O   0  0  0  0  0  0  0  0  0  0  0  0
   -1.1296    0.0083   -0.2487 C   0  0  0  0  0  0  0  0  0  0  0  0
   -2.4415    0.3865    0.3847 C   0  0  0  0  0  0  0  0  0  0  0  0
   -3.5091    0.2283   -0.4967 O   0  0  0  0  0  0  0  0  0  0  0  0
    3.2571    1.3739   -0.9595 H   0  0  0  0  0  0  0  0  0  0  0  0
    3.4225   -0.4047   -0.5263 H   0  0  0  0  0  0  0  0  0  0  0  0
    3.1713    0.8360    0.7441 H   0  0  0  0  0  0  0  0  0  0  0  0
    1.7922   -1.5744    0.1598 H   0  0  0  0  0  0  0  0  0  0  0  0
    1.5587   -0.4332    1.4973 H   0  0  0  0  0  0  0  0  0  0  0  0
   -0.6813   -1.4515    1.3377 H   0  0  0  0  0  0  0  0  0  0  0  0
   -0.7143    0.8120   -0.9064 H   0  0  0  0  0  0  0  0  0  0  0  0
   -2.6165   -0.1405    1.3500 H   0  0  0  0  0  0  0  0  0  0  0  0
   -2.3919    1.4661    0.6365 H   0  0  0  0  0  0  0  0  0  0  0  0
   -4.2006    0.8941   -0.2592 H   0  0  0  0  0  0  0  0  0  0  0  0
  1  2  1  0
  2  3  1  0
  3  4  1  0
  4  5  1  0
  5  6  1  0
  6  7  1  0
  7  8  1  0
  6  4  1  0
  1  9  1  0
  1 10  1  0
  1 11  1  0
  3 12  1  0
  3 13  1  0
  4 14  1  0
  6 15  1  0
  7 16  1  0
  7 17  1  0
  8 18  1  0
M  END
