
     RDKit          3D

 20 20  0  0  0  0  0  0  0  0999 V2000
   -2.7454   -0.8037    0.3948 C   0  0  0  0  0  0  0  0  0  0  0  0
   -1.6799    0.0695    0.2619 O   0  0  0  0  0  0  0  0  0  0  0  0
   -0.5382   -0.5693   -0.2219 C   0  0  0  0  0  0  0  0  0  0  0  0
    0.6146    0.3968   -0.3612 C   0  0  0  0  0  0  0  0  0  0  0  0
    1.8294   -0.0206   -0.8192 O   0  0  0  0  0  0  0  0  0  0  0  0
    2.4386   -0.9951   -0.0700 C   0  0  0  0  0  0  0  0  0  0  0  0
    0.1610    1.8193   -0.6958 C   0  0  0  0  0  0  0  0  0  0  0  0
    0.7008    1.5444    0.6524 C   0  0  0  0  0  0  0  0  0  0  0  0
   -2.5267   -1.6417    1.1003 H   0  0  0  0  0  0  0  0  0  0  0  0
   -3.6332   -0.2492    0.7619 H   0  0  0  0  0  0  0  0  0  0  0  0
   -3.0456   -1.2224   -0.6104 H   0  0  0  0  0  0  0  0  0  0  0  0
   -0.7993   -0.8948   -1.2674 H   0  0  0  0  0  0  0  0  0  0  0  0
   -0.2995   -1.4574    0.3776 H   0  0  0  0  0  0  0  0  0  0  0  0
    2.6319   -0.6747    0.9803 H   0  0  0  0  0  0  0  0  0  0  0  0
    3.4521   -1.1714   -0.5166 H   0  0  0  0  0  0  0  0  0  0  0  0
    1.8899   -1.9565   -0.1129 H   0  0  0  0  0  0  0  0  0  0  0  0
    0.7747    2.2884   -1.4873 H   0  0  0  0  0  0  0  0  0  0  0  0
   -0.9086    2.0375   -0.7662 H   0  0  0  0  0  0  0  0  0  0  0  0
    0.0023    1.5310    1.5111 H   0  0  0  0  0  0  0  0  0  0  0  0
    1.6810    1.9696    0.8884 H   0  0  0  0  0  0  0  0  0  0  0  0
  1  2  1  0
  2  3  1  0
  3  4  1  0
  4  5  1  0
  5  6  1  0
  4  7  1  0
  7  8  1  0
  8  4  1  0
  1  9  1  0
  1 10  1  0
  1 11  1  0
  3 12  1  0
  3 13  1  0
  6 14  1  0
  6 15  1  0
  6 16  1  0
  7 17  1  0
  7 18  1  0
  8 19  1  0
  8 20  1  0
M  END
