
     RDKit          3D

 19 19  0  0  0  0  0  0  0  0999 V2000
    2.7193   -0.5962    0.0691 C   0  0  0  0  0  0  0  0  0  0  0  0
    1.4700   -0.2062    0.5232 O   0  0  0  0  0  0  0  0  0  0  0  0
    0.5362   -0.1152   -0.5064 C   0  0  0  0  0  0  0  0  0  0  0  0
   -0.7678    0.3096    0.0885 C   0  0  0  0  0  0  0  0  0  0  0  0
   -1.3116   -0.5465    1.0594 O   0  0  0  0  0  0  0  0  0  0  0  0
   -1.6375   -1.8603    0.7895 C   0  0  0  0  0  0  0  0  0  0  0  0
   -1.4605   -2.3576   -0.3524 O   0  0  0  0  0  0  0  0  0  0  0  0
   -0.8110    1.7933    0.4838 C   0  0  0  0  0  0  0  0  0  0  0  0
   -1.6795    1.2454   -0.5977 C   0  0  0  0  0  0  0  0  0  0  0  0
    2.7209   -1.5788   -0.4230 H   0  0  0  0  0  0  0  0  0  0  0  0
    3.1226    0.2188   -0.5550 H   0  0  0  0  0  0  0  0  0  0  0  0
    3.3787   -0.6640    0.9611 H   0  0  0  0  0  0  0  0  0  0  0  0
    0.8440    0.6470   -1.2558 H   0  0  0  0  0  0  0  0  0  0  0  0
    0.3963   -1.0956   -0.9933 H   0  0  0  0  0  0  0  0  0  0  0  0
   -2.0574   -2.4571    1.6082 H   0  0  0  0  0  0  0  0  0  0  0  0
   -1.2342    2.0540    1.4741 H   0  0  0  0  0  0  0  0  0  0  0  0
    0.0311    2.4399    0.1579 H   0  0  0  0  0  0  0  0  0  0  0  0
   -2.7548    1.1524   -0.3460 H   0  0  0  0  0  0  0  0  0  0  0  0
   -1.5049    1.6171   -1.6160 H   0  0  0  0  0  0  0  0  0  0  0  0
  1  2  1  0
  2  3  1  0
  3  4  1  0
  4  5  1  0
  5  6  1  0
  6  7  2  0
  4  8  1  0
  8  9  1  0
  9  4  1  0
  1 10  1  0
  1 11  1  0
  1 12  1  0
  3 13  1  0
  3 14  1  0
  6 15  1  0
  8 16  1  0
  8 17  1  0
  9 18  1  0
  9 19  1  0
M  END
