
     RDKit          3D

 21 21  0  0  0  0  0  0  0  0999 V2000
   -3.3673    0.5050    0.3370 C   0  0  0  0  0  0  0  0  0  0  0  0
   -2.0926    0.4427    0.8889 O   0  0  0  0  0  0  0  0  0  0  0  0
   -1.2486   -0.4002    0.1576 C   0  0  0  0  0  0  0  0  0  0  0  0
    0.0939   -0.3680    0.8726 C   0  0  0  0  0  0  0  0  0  0  0  0
    1.1675   -1.2049    0.2642 C   0  0  0  0  0  0  0  0  0  0  0  0
    1.7845   -0.0046   -0.3972 C   0  0  0  0  0  0  0  0  0  0  0  0
    3.2113    0.2543   -0.0394 C   0  0  0  0  0  0  0  0  0  0  0  0
    3.5603    1.1838    0.6685 O   0  0  0  0  0  0  0  0  0  0  0  0
    0.8642    0.8675    0.4327 C   0  0  0  0  0  0  0  0  0  0  0  0
   -3.3199    0.8897   -0.6966 H   0  0  0  0  0  0  0  0  0  0  0  0
   -3.9516    1.2059    0.9646 H   0  0  0  0  0  0  0  0  0  0  0  0
   -3.8580   -0.5008    0.3313 H   0  0  0  0  0  0  0  0  0  0  0  0
   -1.1301    0.0954   -0.8464 H   0  0  0  0  0  0  0  0  0  0  0  0
   -1.6431   -1.4045    0.0203 H   0  0  0  0  0  0  0  0  0  0  0  0
   -0.0401   -0.4704    1.9619 H   0  0  0  0  0  0  0  0  0  0  0  0
    1.8917   -1.6036    1.0308 H   0  0  0  0  0  0  0  0  0  0  0  0
    0.8566   -2.0063   -0.4053 H   0  0  0  0  0  0  0  0  0  0  0  0
    1.5678   -0.0133   -1.4759 H   0  0  0  0  0  0  0  0  0  0  0  0
    4.0174   -0.3942   -0.4066 H   0  0  0  0  0  0  0  0  0  0  0  0
    1.3288    1.3797    1.2851 H   0  0  0  0  0  0  0  0  0  0  0  0
    0.3075    1.5468   -0.2444 H   0  0  0  0  0  0  0  0  0  0  0  0
  1  2  1  0
  2  3  1  0
  3  4  1  0
  4  5  1  0
  5  6  1  0
  6  7  1  0
  7  8  2  0
  6  9  1  0
  9  4  1  0
  1 10  1  0
  1 11  1  0
  1 12  1  0
  3 13  1  0
  3 14  1  0
  4 15  1  0
  5 16  1  0
  5 17  1  0
  6 18  1  0
  7 19  1  0
  9 20  1  0
  9 21  1  0
M  END
