
     RDKit          3D

 21 22  0  0  0  0  0  0  0  0999 V2000
    3.4523    0.3898   -0.7556 C   0  0  0  0  0  0  0  0  0  0  0  0
    2.1480    0.6599   -0.4408 O   0  0  0  0  0  0  0  0  0  0  0  0
    1.3502   -0.4483   -0.3106 C   0  0  0  0  0  0  0  0  0  0  0  0
   -0.0500   -0.0843    0.0309 C   0  0  0  0  0  0  0  0  0  0  0  0
   -0.4581    1.1587    0.1862 C   0  0  0  0  0  0  0  0  0  0  0  0
   -1.8965    1.1990    0.5207 C   0  0  0  0  0  0  0  0  0  0  0  0
   -2.3334   -0.2188    0.5075 C   0  0  0  0  0  0  0  0  0  0  0  0
   -2.3045   -1.0004   -0.7444 C   0  0  0  0  0  0  0  0  0  0  0  0
   -1.1558   -1.0380    0.2397 C   0  0  0  0  0  0  0  0  0  0  0  0
    3.9866    1.3733   -0.8310 H   0  0  0  0  0  0  0  0  0  0  0  0
    3.9296   -0.1332    0.1032 H   0  0  0  0  0  0  0  0  0  0  0  0
    3.5807   -0.1836   -1.6972 H   0  0  0  0  0  0  0  0  0  0  0  0
    1.8071   -1.0890    0.4993 H   0  0  0  0  0  0  0  0  0  0  0  0
    1.3256   -1.0999   -1.2088 H   0  0  0  0  0  0  0  0  0  0  0  0
    0.1560    2.0610    0.0884 H   0  0  0  0  0  0  0  0  0  0  0  0
   -2.0708    1.6546    1.5165 H   0  0  0  0  0  0  0  0  0  0  0  0
   -2.4578    1.7497   -0.2712 H   0  0  0  0  0  0  0  0  0  0  0  0
   -3.0242   -0.5534    1.3049 H   0  0  0  0  0  0  0  0  0  0  0  0
   -2.0585   -0.5148   -1.7158 H   0  0  0  0  0  0  0  0  0  0  0  0
   -2.9612   -1.8758   -0.8041 H   0  0  0  0  0  0  0  0  0  0  0  0
   -0.9654   -2.0066    0.7656 H   0  0  0  0  0  0  0  0  0  0  0  0
  1  2  1  0
  2  3  1  0
  3  4  1  0
  4  5  2  0
  5  6  1  0
  6  7  1  0
  7  8  1  0
  8  9  1  0
  9  4  1  0
  9  7  1  0
  1 10  1  0
  1 11  1  0
  1 12  1  0
  3 13  1  0
  3 14  1  0
  5 15  1  0
  6 16  1  0
  6 17  1  0
  7 18  1  0
  8 19  1  0
  8 20  1  0
  9 21  1  0
M  END
