
     RDKit          3D

 25 25  0  0  0  0  0  0  0  0999 V2000
    3.4759   -0.0465   -0.1950 C   0  0  0  0  0  0  0  0  0  0  0  0
    2.6209   -1.1097   -0.1464 O   0  0  0  0  0  0  0  0  0  0  0  0
    1.5123   -0.9747    0.6373 C   0  0  0  0  0  0  0  0  0  0  0  0
    0.6351    0.1549    0.2192 C   0  0  0  0  0  0  0  0  0  0  0  0
   -0.5911    0.2790    1.1100 C   0  0  0  0  0  0  0  0  0  0  0  0
   -1.4388    0.1958   -0.1293 C   0  0  0  0  0  0  0  0  0  0  0  0
   -2.1088    1.5091   -0.4133 C   0  0  0  0  0  0  0  0  0  0  0  0
   -2.4496   -0.9234   -0.1491 C   0  0  0  0  0  0  0  0  0  0  0  0
   -0.2573   -0.1363   -0.9896 C   0  0  0  0  0  0  0  0  0  0  0  0
    4.3201   -0.3460   -0.8820 H   0  0  0  0  0  0  0  0  0  0  0  0
    3.0501    0.8636   -0.7064 H   0  0  0  0  0  0  0  0  0  0  0  0
    3.9312    0.2422    0.7601 H   0  0  0  0  0  0  0  0  0  0  0  0
    1.7439   -0.8470    1.7141 H   0  0  0  0  0  0  0  0  0  0  0  0
    0.9535   -1.9521    0.5783 H   0  0  0  0  0  0  0  0  0  0  0  0
    1.1763    1.0828    0.0488 H   0  0  0  0  0  0  0  0  0  0  0  0
   -0.5732    1.2417    1.6331 H   0  0  0  0  0  0  0  0  0  0  0  0
   -0.7340   -0.5529    1.8170 H   0  0  0  0  0  0  0  0  0  0  0  0
   -1.4690    2.1574   -1.0628 H   0  0  0  0  0  0  0  0  0  0  0  0
   -3.1075    1.3502   -0.8809 H   0  0  0  0  0  0  0  0  0  0  0  0
   -2.2491    2.0377    0.5519 H   0  0  0  0  0  0  0  0  0  0  0  0
   -1.9707   -1.8908    0.0985 H   0  0  0  0  0  0  0  0  0  0  0  0
   -3.2475   -0.7418    0.6203 H   0  0  0  0  0  0  0  0  0  0  0  0
   -2.9150   -0.9159   -1.1601 H   0  0  0  0  0  0  0  0  0  0  0  0
   -0.1738   -1.2172   -1.2393 H   0  0  0  0  0  0  0  0  0  0  0  0
   -0.1337    0.5399   -1.8343 H   0  0  0  0  0  0  0  0  0  0  0  0
  1  2  1  0
  2  3  1  0
  3  4  1  0
  4  5  1  0
  5  6  1  0
  6  7  1  0
  6  8  1  0
  6  9  1  0
  9  4  1  0
  1 10  1  0
  1 11  1  0
  1 12  1  0
  3 13  1  0
  3 14  1  0
  4 15  1  0
  5 16  1  0
  5 17  1  0
  7 18  1  0
  7 19  1  0
  7 20  1  0
  8 21  1  0
  8 22  1  0
  8 23  1  0
  9 24  1  0
  9 25  1  0
M  END
