
     RDKit          3D

 23 23  0  0  0  0  0  0  0  0999 V2000
    2.3396   -1.8229   -0.2520 C   0  0  0  0  0  0  0  0  0  0  0  0
    1.1591   -1.1254   -0.3476 O   0  0  0  0  0  0  0  0  0  0  0  0
    1.4107    0.2290   -0.3388 C   0  0  0  0  0  0  0  0  0  0  0  0
    0.0871    0.9880   -0.4458 C   0  0  0  0  0  0  0  0  0  0  0  0
    0.3216    2.4816   -0.4394 C   0  0  0  0  0  0  0  0  0  0  0  0
   -0.8753    0.5463    0.5997 C   0  0  0  0  0  0  0  0  0  0  0  0
   -2.1306    1.0887    0.6988 O   0  0  0  0  0  0  0  0  0  0  0  0
   -2.1189   -0.1268    0.0733 C   0  0  0  0  0  0  0  0  0  0  0  0
   -2.4959   -1.3880    0.7807 C   0  0  0  0  0  0  0  0  0  0  0  0
    2.8230   -1.5232    0.7099 H   0  0  0  0  0  0  0  0  0  0  0  0
    3.0395   -1.6454   -1.0724 H   0  0  0  0  0  0  0  0  0  0  0  0
    2.0846   -2.9074   -0.1240 H   0  0  0  0  0  0  0  0  0  0  0  0
    1.9939    0.5007   -1.2395 H   0  0  0  0  0  0  0  0  0  0  0  0
    1.9317    0.5698    0.5742 H   0  0  0  0  0  0  0  0  0  0  0  0
   -0.3160    0.7376   -1.4446 H   0  0  0  0  0  0  0  0  0  0  0  0
    0.4023    2.8872   -1.4875 H   0  0  0  0  0  0  0  0  0  0  0  0
    1.2869    2.6783    0.0341 H   0  0  0  0  0  0  0  0  0  0  0  0
   -0.4927    3.0443    0.0387 H   0  0  0  0  0  0  0  0  0  0  0  0
   -0.4308    0.1554    1.5395 H   0  0  0  0  0  0  0  0  0  0  0  0
   -2.3308   -0.1046   -1.0100 H   0  0  0  0  0  0  0  0  0  0  0  0
   -3.2780   -1.9271    0.1745 H   0  0  0  0  0  0  0  0  0  0  0  0
   -2.8030   -1.2656    1.8207 H   0  0  0  0  0  0  0  0  0  0  0  0
   -1.6080   -2.0703    0.7566 H   0  0  0  0  0  0  0  0  0  0  0  0
  1  2  1  0
  2  3  1  0
  3  4  1  0
  4  5  1  0
  4  6  1  0
  6  7  1  0
  7  8  1  0
  8  9  1  0
  8  6  1  0
  1 10  1  0
  1 11  1  0
  1 12  1  0
  3 13  1  0
  3 14  1  0
  4 15  1  0
  5 16  1  0
  5 17  1  0
  5 18  1  0
  6 19  1  0
  8 20  1  0
  9 21  1  0
  9 22  1  0
  9 23  1  0
M  END
