
     RDKit          3D

 21 21  0  0  0  0  0  0  0  0999 V2000
    3.0136    0.0399    0.0239 C   0  0  0  0  0  0  0  0  0  0  0  0
    1.7301   -0.1571   -0.4827 O   0  0  0  0  0  0  0  0  0  0  0  0
    0.8344    0.4409    0.3828 C   0  0  0  0  0  0  0  0  0  0  0  0
   -0.5952    0.3079   -0.0385 C   0  0  0  0  0  0  0  0  0  0  0  0
   -0.8274    0.7774   -1.4592 C   0  0  0  0  0  0  0  0  0  0  0  0
   -1.4277    0.9381    0.8892 O   0  0  0  0  0  0  0  0  0  0  0  0
   -2.3810   -0.0252    0.6625 C   0  0  0  0  0  0  0  0  0  0  0  0
   -1.2847   -0.9739    0.2218 C   0  0  0  0  0  0  0  0  0  0  0  0
   -0.8002   -1.7955    1.2053 O   0  0  0  0  0  0  0  0  0  0  0  0
    3.0121   -0.4497    1.0394 H   0  0  0  0  0  0  0  0  0  0  0  0
    3.7948   -0.4246   -0.5859 H   0  0  0  0  0  0  0  0  0  0  0  0
    3.2178    1.1153    0.2293 H   0  0  0  0  0  0  0  0  0  0  0  0
    1.0792    1.5229    0.4290 H   0  0  0  0  0  0  0  0  0  0  0  0
    0.9903    0.0409    1.4025 H   0  0  0  0  0  0  0  0  0  0  0  0
    0.1632    0.9053   -1.9650 H   0  0  0  0  0  0  0  0  0  0  0  0
   -1.3747    0.0253   -2.0594 H   0  0  0  0  0  0  0  0  0  0  0  0
   -1.2970    1.7666   -1.4504 H   0  0  0  0  0  0  0  0  0  0  0  0
   -3.0877    0.2806   -0.1355 H   0  0  0  0  0  0  0  0  0  0  0  0
   -2.8750   -0.3060    1.6188 H   0  0  0  0  0  0  0  0  0  0  0  0
   -1.6486   -1.5324   -0.6788 H   0  0  0  0  0  0  0  0  0  0  0  0
   -0.2364   -2.4968    0.7508 H   0  0  0  0  0  0  0  0  0  0  0  0
  1  2  1  0
  2  3  1  0
  3  4  1  0
  4  5  1  0
  4  6  1  0
  6  7  1  0
  7  8  1  0
  8  9  1  0
  8  4  1  0
  1 10  1  0
  1 11  1  0
  1 12  1  0
  3 13  1  0
  3 14  1  0
  5 15  1  0
  5 16  1  0
  5 17  1  0
  7 18  1  0
  7 19  1  0
  8 20  1  0
  9 21  1  0
M  END
