
     RDKit          3D

 23 23  0  0  0  0  0  0  0  0999 V2000
    3.0020    0.4631    0.5028 C   0  0  0  0  0  0  0  0  0  0  0  0
    2.4482   -0.7620    0.2630 O   0  0  0  0  0  0  0  0  0  0  0  0
    1.3853   -0.6856   -0.6160 C   0  0  0  0  0  0  0  0  0  0  0  0
    0.2540    0.1559   -0.1426 C   0  0  0  0  0  0  0  0  0  0  0  0
   -0.9058    0.2159   -1.1392 C   0  0  0  0  0  0  0  0  0  0  0  0
   -1.0733   -0.4010    0.1866 C   0  0  0  0  0  0  0  0  0  0  0  0
   -1.2893   -1.9130    0.1672 C   0  0  0  0  0  0  0  0  0  0  0  0
   -1.8344    0.2093    1.1758 O   0  0  0  0  0  0  0  0  0  0  0  0
   -2.0971    1.5131    0.7822 C   0  0  0  0  0  0  0  0  0  0  0  0
    3.3513    0.8800   -0.4709 H   0  0  0  0  0  0  0  0  0  0  0  0
    3.9160    0.3327    1.1638 H   0  0  0  0  0  0  0  0  0  0  0  0
    2.3885    1.1952    1.0381 H   0  0  0  0  0  0  0  0  0  0  0  0
    1.0901   -1.7214   -0.8836 H   0  0  0  0  0  0  0  0  0  0  0  0
    1.7966   -0.1777   -1.5397 H   0  0  0  0  0  0  0  0  0  0  0  0
    0.5090    1.0905    0.3893 H   0  0  0  0  0  0  0  0  0  0  0  0
   -1.1793    1.2360   -1.4070 H   0  0  0  0  0  0  0  0  0  0  0  0
   -0.8630   -0.4536   -2.0394 H   0  0  0  0  0  0  0  0  0  0  0  0
   -2.4070   -2.0382    0.0731 H   0  0  0  0  0  0  0  0  0  0  0  0
   -1.0179   -2.3700    1.1358 H   0  0  0  0  0  0  0  0  0  0  0  0
   -0.8254   -2.3973   -0.6917 H   0  0  0  0  0  0  0  0  0  0  0  0
   -2.7081    2.0493    1.5600 H   0  0  0  0  0  0  0  0  0  0  0  0
   -1.2018    2.1307    0.6324 H   0  0  0  0  0  0  0  0  0  0  0  0
   -2.7388    1.4480   -0.1399 H   0  0  0  0  0  0  0  0  0  0  0  0
  1  2  1  0
  2  3  1  0
  3  4  1  0
  4  5  1  0
  5  6  1  0
  6  7  1  0
  6  8  1  0
  8  9  1  0
  6  4  1  0
  1 10  1  0
  1 11  1  0
  1 12  1  0
  3 13  1  0
  3 14  1  0
  4 15  1  0
  5 16  1  0
  5 17  1  0
  7 18  1  0
  7 19  1  0
  7 20  1  0
  9 21  1  0
  9 22  1  0
  9 23  1  0
M  END
