
     RDKit          3D

 19 18  0  0  0  0  0  0  0  0999 V2000
   -3.6443    0.4815   -0.4658 C   0  0  0  0  0  0  0  0  0  0  0  0
   -2.2947    0.6580   -0.7240 O   0  0  0  0  0  0  0  0  0  0  0  0
   -1.5148   -0.0711    0.1622 C   0  0  0  0  0  0  0  0  0  0  0  0
   -0.0662    0.1896   -0.2037 C   0  0  0  0  0  0  0  0  0  0  0  0
    0.7888   -0.6060    0.7630 C   0  0  0  0  0  0  0  0  0  0  0  0
    2.1945   -0.3365    0.3874 C   0  0  0  0  0  0  0  0  0  0  0  0
    3.3394   -0.0963    0.0852 C   0  0  0  0  0  0  0  0  0  0  0  0
    4.7016    0.1757   -0.2733 C   0  0  0  0  0  0  0  0  0  0  0  0
    5.6989   -0.2588    0.3532 O   0  0  0  0  0  0  0  0  0  0  0  0
   -3.9471    0.7953    0.5409 H   0  0  0  0  0  0  0  0  0  0  0  0
   -4.2008    1.0858   -1.2307 H   0  0  0  0  0  0  0  0  0  0  0  0
   -3.9609   -0.5823   -0.6714 H   0  0  0  0  0  0  0  0  0  0  0  0
   -1.7196    0.2453    1.1901 H   0  0  0  0  0  0  0  0  0  0  0  0
   -1.7301   -1.1522    0.0971 H   0  0  0  0  0  0  0  0  0  0  0  0
    0.1445   -0.0943   -1.2372 H   0  0  0  0  0  0  0  0  0  0  0  0
    0.1977    1.2486   -0.0634 H   0  0  0  0  0  0  0  0  0  0  0  0
    0.5201   -1.6615    0.6418 H   0  0  0  0  0  0  0  0  0  0  0  0
    0.6202   -0.2596    1.7881 H   0  0  0  0  0  0  0  0  0  0  0  0
    4.8727    0.7954   -1.1398 H   0  0  0  0  0  0  0  0  0  0  0  0
  1  2  1  0
  2  3  1  0
  3  4  1  0
  4  5  1  0
  5  6  1  0
  6  7  3  0
  7  8  1  0
  8  9  2  0
  1 10  1  0
  1 11  1  0
  1 12  1  0
  3 13  1  0
  3 14  1  0
  4 15  1  0
  4 16  1  0
  5 17  1  0
  5 18  1  0
  8 19  1  0
M  END
