
     RDKit          3D

 21 21  0  0  0  0  0  0  0  0999 V2000
    2.9159    0.4296    0.2220 C   0  0  0  0  0  0  0  0  0  0  0  0
    2.0551    0.6384   -0.8256 O   0  0  0  0  0  0  0  0  0  0  0  0
    1.0128   -0.2444   -0.9142 C   0  0  0  0  0  0  0  0  0  0  0  0
    0.1165   -0.2319    0.3229 C   0  0  0  0  0  0  0  0  0  0  0  0
   -0.8754   -1.3385    0.2916 C   0  0  0  0  0  0  0  0  0  0  0  0
   -2.1148   -1.0349   -0.1730 O   0  0  0  0  0  0  0  0  0  0  0  0
   -2.5523    0.1971    0.3092 C   0  0  0  0  0  0  0  0  0  0  0  0
   -1.5514    1.2098   -0.2665 C   0  0  0  0  0  0  0  0  0  0  0  0
   -0.3870    1.0250    0.4575 O   0  0  0  0  0  0  0  0  0  0  0  0
    3.3981   -0.5740    0.1840 H   0  0  0  0  0  0  0  0  0  0  0  0
    2.5039    0.6771    1.2181 H   0  0  0  0  0  0  0  0  0  0  0  0
    3.7721    1.1527    0.0786 H   0  0  0  0  0  0  0  0  0  0  0  0
    0.3627    0.0593   -1.7576 H   0  0  0  0  0  0  0  0  0  0  0  0
    1.3248   -1.2896   -1.1195 H   0  0  0  0  0  0  0  0  0  0  0  0
    0.7985   -0.4382    1.1892 H   0  0  0  0  0  0  0  0  0  0  0  0
   -0.9883   -1.8506    1.2878 H   0  0  0  0  0  0  0  0  0  0  0  0
   -0.4513   -2.1463   -0.3748 H   0  0  0  0  0  0  0  0  0  0  0  0
   -2.3977    0.1691    1.4263 H   0  0  0  0  0  0  0  0  0  0  0  0
   -3.5784    0.4332    0.0326 H   0  0  0  0  0  0  0  0  0  0  0  0
   -1.4353    0.9305   -1.3457 H   0  0  0  0  0  0  0  0  0  0  0  0
   -1.9286    2.2264   -0.2427 H   0  0  0  0  0  0  0  0  0  0  0  0
  1  2  1  0
  2  3  1  0
  3  4  1  0
  4  5  1  0
  5  6  1  0
  6  7  1  0
  7  8  1  0
  8  9  1  0
  9  4  1  0
  1 10  1  0
  1 11  1  0
  1 12  1  0
  3 13  1  0
  3 14  1  0
  4 15  1  0
  5 16  1  0
  5 17  1  0
  7 18  1  0
  7 19  1  0
  8 20  1  0
  8 21  1  0
M  END
