
     RDKit          3D

 19 20  0  0  0  0  0  0  0  0999 V2000
    2.8809   -0.1242    0.4083 C   0  0  0  0  0  0  0  0  0  0  0  0
    1.7204   -0.6693   -0.1370 O   0  0  0  0  0  0  0  0  0  0  0  0
    0.6390    0.2194    0.0272 C   0  0  0  0  0  0  0  0  0  0  0  0
   -0.6190   -0.3375   -0.5475 C   0  0  0  0  0  0  0  0  0  0  0  0
   -1.9061    0.2410   -0.0265 C   0  0  0  0  0  0  0  0  0  0  0  0
   -2.0289    1.5850    0.4628 C   0  0  0  0  0  0  0  0  0  0  0  0
   -1.7559    0.4896    1.4314 O   0  0  0  0  0  0  0  0  0  0  0  0
   -0.6708   -1.7673   -0.9438 C   0  0  0  0  0  0  0  0  0  0  0  0
   -0.6050   -0.6283   -1.9174 O   0  0  0  0  0  0  0  0  0  0  0  0
    2.7077    0.0583    1.4983 H   0  0  0  0  0  0  0  0  0  0  0  0
    3.6990   -0.8243    0.2111 H   0  0  0  0  0  0  0  0  0  0  0  0
    3.1024    0.8551   -0.0802 H   0  0  0  0  0  0  0  0  0  0  0  0
    0.5112    0.3349    1.1232 H   0  0  0  0  0  0  0  0  0  0  0  0
    0.8755    1.2259   -0.3720 H   0  0  0  0  0  0  0  0  0  0  0  0
   -2.8319   -0.3193   -0.2686 H   0  0  0  0  0  0  0  0  0  0  0  0
   -3.0399    1.9670    0.6917 H   0  0  0  0  0  0  0  0  0  0  0  0
   -1.2294    2.3230    0.5210 H   0  0  0  0  0  0  0  0  0  0  0  0
    0.2086   -2.3813   -1.1066 H   0  0  0  0  0  0  0  0  0  0  0  0
   -1.6578   -2.2475   -1.0432 H   0  0  0  0  0  0  0  0  0  0  0  0
  1  2  1  0
  2  3  1  0
  3  4  1  0
  4  5  1  0
  5  6  1  0
  6  7  1  0
  4  8  1  0
  8  9  1  0
  9  4  1  0
  7  5  1  0
  1 10  1  0
  1 11  1  0
  1 12  1  0
  3 13  1  0
  3 14  1  0
  5 15  1  0
  6 16  1  0
  6 17  1  0
  8 18  1  0
  8 19  1  0
M  END
