
     RDKit          3D

 23 22  0  0  0  0  0  0  0  0999 V2000
    4.0758   -0.5526    0.2606 C   0  0  0  0  0  0  0  0  0  0  0  0
    2.7656   -0.7462   -0.1805 O   0  0  0  0  0  0  0  0  0  0  0  0
    1.8970    0.1865    0.3297 C   0  0  0  0  0  0  0  0  0  0  0  0
    0.5291   -0.0826   -0.1816 C   0  0  0  0  0  0  0  0  0  0  0  0
    0.3954   -1.0337   -0.9311 O   0  0  0  0  0  0  0  0  0  0  0  0
   -0.6397    0.7791    0.2074 C   0  0  0  0  0  0  0  0  0  0  0  0
   -1.8529    0.2119   -0.4946 C   0  0  0  0  0  0  0  0  0  0  0  0
   -2.0368   -1.2170   -0.0271 C   0  0  0  0  0  0  0  0  0  0  0  0
   -3.0991    0.9852   -0.2142 C   0  0  0  0  0  0  0  0  0  0  0  0
    4.7454   -1.3120   -0.1633 H   0  0  0  0  0  0  0  0  0  0  0  0
    4.0561   -0.6739    1.3685 H   0  0  0  0  0  0  0  0  0  0  0  0
    4.4702    0.4456   -0.0375 H   0  0  0  0  0  0  0  0  0  0  0  0
    1.9051    0.2528    1.4341 H   0  0  0  0  0  0  0  0  0  0  0  0
    2.2557    1.1891   -0.0242 H   0  0  0  0  0  0  0  0  0  0  0  0
   -0.4629    1.8383   -0.0370 H   0  0  0  0  0  0  0  0  0  0  0  0
   -0.7921    0.7187    1.3178 H   0  0  0  0  0  0  0  0  0  0  0  0
   -1.6259    0.2565   -1.5893 H   0  0  0  0  0  0  0  0  0  0  0  0
   -1.3063   -1.4846    0.7764 H   0  0  0  0  0  0  0  0  0  0  0  0
   -3.0518   -1.3887    0.3575 H   0  0  0  0  0  0  0  0  0  0  0  0
   -1.8806   -1.9345   -0.8735 H   0  0  0  0  0  0  0  0  0  0  0  0
   -3.7002    1.0211   -1.1464 H   0  0  0  0  0  0  0  0  0  0  0  0
   -2.9130    2.0253    0.1122 H   0  0  0  0  0  0  0  0  0  0  0  0
   -3.7341    0.5157    0.5751 H   0  0  0  0  0  0  0  0  0  0  0  0
  1  2  1  0
  2  3  1  0
  3  4  1  0
  4  5  2  0
  4  6  1  0
  6  7  1  0
  7  8  1  0
  7  9  1  0
  1 10  1  0
  1 11  1  0
  1 12  1  0
  3 13  1  0
  3 14  1  0
  6 15  1  0
  6 16  1  0
  7 17  1  0
  8 18  1  0
  8 19  1  0
  8 20  1  0
  9 21  1  0
  9 22  1  0
  9 23  1  0
M  END
