
     RDKit          3D

 16 15  0  0  0  0  0  0  0  0999 V2000
    3.0413    0.2650   -0.7036 C   0  0  0  0  0  0  0  0  0  0  0  0
    1.6987    0.3690   -1.0287 O   0  0  0  0  0  0  0  0  0  0  0  0
    0.8636   -0.0638   -0.0225 C   0  0  0  0  0  0  0  0  0  0  0  0
   -0.5382    0.0823   -0.4531 C   0  0  0  0  0  0  0  0  0  0  0  0
   -0.7545    0.5519   -1.6051 O   0  0  0  0  0  0  0  0  0  0  0  0
   -1.6872   -0.2725    0.3464 C   0  0  0  0  0  0  0  0  0  0  0  0
   -3.0568   -0.0970   -0.1537 C   0  0  0  0  0  0  0  0  0  0  0  0
   -1.4987   -0.7383    1.4873 O   0  0  0  0  0  0  0  0  0  0  0  0
    3.6346    0.6319   -1.5629 H   0  0  0  0  0  0  0  0  0  0  0  0
    3.2912    0.8903    0.1857 H   0  0  0  0  0  0  0  0  0  0  0  0
    3.2788   -0.7766   -0.4155 H   0  0  0  0  0  0  0  0  0  0  0  0
    1.0482   -1.1568    0.1115 H   0  0  0  0  0  0  0  0  0  0  0  0
    1.0686    0.4071    0.9563 H   0  0  0  0  0  0  0  0  0  0  0  0
   -3.0966    0.0891   -1.2516 H   0  0  0  0  0  0  0  0  0  0  0  0
   -3.5749    0.7810    0.3288 H   0  0  0  0  0  0  0  0  0  0  0  0
   -3.7181   -0.9627    0.0488 H   0  0  0  0  0  0  0  0  0  0  0  0
  1  2  1  0
  2  3  1  0
  3  4  1  0
  4  5  2  0
  4  6  1  0
  6  7  1  0
  6  8  2  0
  1  9  1  0
  1 10  1  0
  1 11  1  0
  3 12  1  0
  3 13  1  0
  7 14  1  0
  7 15  1  0
  7 16  1  0
M  END
