
     RDKit          3D

 21 22  0  0  0  0  0  0  0  0999 V2000
    2.8306    0.5048    0.8426 C   0  0  0  0  0  0  0  0  0  0  0  0
    1.4656    0.1808    0.8188 O   0  0  0  0  0  0  0  0  0  0  0  0
    1.0735   -0.0044   -0.5061 C   0  0  0  0  0  0  0  0  0  0  0  0
   -0.3987   -0.3551   -0.5483 C   0  0  0  0  0  0  0  0  0  0  0  0
   -1.0696   -0.5945   -1.7061 C   0  0  0  0  0  0  0  0  0  0  0  0
   -1.3404    0.6421   -0.8701 C   0  0  0  0  0  0  0  0  0  0  0  0
   -1.3667    0.8018    0.5933 C   0  0  0  0  0  0  0  0  0  0  0  0
   -1.0781   -0.6456    0.7957 C   0  0  0  0  0  0  0  0  0  0  0  0
   -2.1900   -1.4602    0.6021 O   0  0  0  0  0  0  0  0  0  0  0  0
    3.1476    0.6536    1.8997 H   0  0  0  0  0  0  0  0  0  0  0  0
    3.0482    1.4221    0.2740 H   0  0  0  0  0  0  0  0  0  0  0  0
    3.4449   -0.3356    0.4585 H   0  0  0  0  0  0  0  0  0  0  0  0
    1.6686   -0.8690   -0.8793 H   0  0  0  0  0  0  0  0  0  0  0  0
    1.3262    0.8641   -1.1423 H   0  0  0  0  0  0  0  0  0  0  0  0
   -1.8497   -1.3889   -1.7987 H   0  0  0  0  0  0  0  0  0  0  0  0
   -0.6781   -0.3172   -2.7225 H   0  0  0  0  0  0  0  0  0  0  0  0
   -2.2253    1.0062   -1.2948 H   0  0  0  0  0  0  0  0  0  0  0  0
   -2.2811    1.1006    1.1088 H   0  0  0  0  0  0  0  0  0  0  0  0
   -0.5142    1.4125    1.0143 H   0  0  0  0  0  0  0  0  0  0  0  0
   -0.4048   -0.9099    1.6070 H   0  0  0  0  0  0  0  0  0  0  0  0
   -2.6085   -1.7081    1.4535 H   0  0  0  0  0  0  0  0  0  0  0  0
  1  2  1  0
  2  3  1  0
  3  4  1  0
  4  5  1  0
  5  6  1  0
  6  7  1  0
  7  8  1  0
  8  9  1  0
  6  4  1  0
  8  4  1  0
  1 10  1  0
  1 11  1  0
  1 12  1  0
  3 13  1  0
  3 14  1  0
  5 15  1  0
  5 16  1  0
  6 17  1  0
  7 18  1  0
  7 19  1  0
  8 20  1  0
  9 21  1  0
M  END
