
     RDKit          3D

 19 18  0  0  0  0  0  0  0  0999 V2000
    3.0504    0.2386    0.4986 C   0  0  0  0  0  0  0  0  0  0  0  0
    2.1041    1.1737    0.8178 O   0  0  0  0  0  0  0  0  0  0  0  0
    0.7993    0.7240    0.8464 C   0  0  0  0  0  0  0  0  0  0  0  0
    0.4191    0.1945   -0.5054 C   0  0  0  0  0  0  0  0  0  0  0  0
   -1.0112   -0.3082   -0.5391 C   0  0  0  0  0  0  0  0  0  0  0  0
   -1.9181    0.7004   -0.2286 O   0  0  0  0  0  0  0  0  0  0  0  0
   -3.1938    0.1130   -0.2933 C   0  0  0  0  0  0  0  0  0  0  0  0
    4.0802    0.7072    0.5126 H   0  0  0  0  0  0  0  0  0  0  0  0
    2.9759   -0.1504   -0.5550 H   0  0  0  0  0  0  0  0  0  0  0  0
    3.0968   -0.6289    1.1674 H   0  0  0  0  0  0  0  0  0  0  0  0
    0.6884   -0.0844    1.5971 H   0  0  0  0  0  0  0  0  0  0  0  0
    0.1664    1.5910    1.1400 H   0  0  0  0  0  0  0  0  0  0  0  0
    0.6554    0.8943   -1.3079 H   0  0  0  0  0  0  0  0  0  0  0  0
    1.0491   -0.7290   -0.6769 H   0  0  0  0  0  0  0  0  0  0  0  0
   -1.1160   -1.1262    0.1766 H   0  0  0  0  0  0  0  0  0  0  0  0
   -1.2233   -0.6241   -1.5811 H   0  0  0  0  0  0  0  0  0  0  0  0
   -3.2974   -0.7228    0.4222 H   0  0  0  0  0  0  0  0  0  0  0  0
   -3.9578    0.8993   -0.1797 H   0  0  0  0  0  0  0  0  0  0  0  0
   -3.3675   -0.3406   -1.3117 H   0  0  0  0  0  0  0  0  0  0  0  0
  1  2  1  0
  2  3  1  0
  3  4  1  0
  4  5  1  0
  5  6  1  0
  6  7  1  0
  1  8  1  0
  1  9  1  0
  1 10  1  0
  3 11  1  0
  3 12  1  0
  4 13  1  0
  4 14  1  0
  5 15  1  0
  5 16  1  0
  7 17  1  0
  7 18  1  0
  7 19  1  0
M  END
