
     RDKit          3D

 23 23  0  0  0  0  0  0  0  0999 V2000
   -2.7119   -0.8804   -0.5299 C   0  0  0  0  0  0  0  0  0  0  0  0
   -2.2885   -0.5216    0.7284 O   0  0  0  0  0  0  0  0  0  0  0  0
   -0.9967   -0.8894    1.0160 C   0  0  0  0  0  0  0  0  0  0  0  0
    0.0373   -0.2838    0.0799 C   0  0  0  0  0  0  0  0  0  0  0  0
    1.2764   -0.7439    0.5020 O   0  0  0  0  0  0  0  0  0  0  0  0
    1.9522   -1.4512   -0.4673 C   0  0  0  0  0  0  0  0  0  0  0  0
    0.0159    1.2155    0.2094 C   0  0  0  0  0  0  0  0  0  0  0  0
    0.9071    2.0829   -0.5713 C   0  0  0  0  0  0  0  0  0  0  0  0
    1.2386    1.8250    0.8755 C   0  0  0  0  0  0  0  0  0  0  0  0
   -3.7781   -0.5573   -0.7061 H   0  0  0  0  0  0  0  0  0  0  0  0
   -2.1373   -0.2536   -1.2756 H   0  0  0  0  0  0  0  0  0  0  0  0
   -2.5300   -1.9243   -0.8056 H   0  0  0  0  0  0  0  0  0  0  0  0
   -0.8611   -1.9888    1.0933 H   0  0  0  0  0  0  0  0  0  0  0  0
   -0.7702   -0.4962    2.0431 H   0  0  0  0  0  0  0  0  0  0  0  0
   -0.1599   -0.5856   -0.9726 H   0  0  0  0  0  0  0  0  0  0  0  0
    2.9210   -1.7709   -0.0321 H   0  0  0  0  0  0  0  0  0  0  0  0
    2.2226   -0.7282   -1.2841 H   0  0  0  0  0  0  0  0  0  0  0  0
    1.3781   -2.2639   -0.9287 H   0  0  0  0  0  0  0  0  0  0  0  0
   -0.9873    1.6399    0.5064 H   0  0  0  0  0  0  0  0  0  0  0  0
    1.5717    1.7022   -1.3717 H   0  0  0  0  0  0  0  0  0  0  0  0
    0.5534    3.1174   -0.7680 H   0  0  0  0  0  0  0  0  0  0  0  0
    1.0231    2.5863    1.6381 H   0  0  0  0  0  0  0  0  0  0  0  0
    2.1238    1.1700    1.0206 H   0  0  0  0  0  0  0  0  0  0  0  0
  1  2  1  0
  2  3  1  0
  3  4  1  0
  4  5  1  0
  5  6  1  0
  4  7  1  0
  7  8  1  0
  8  9  1  0
  9  7  1  0
  1 10  1  0
  1 11  1  0
  1 12  1  0
  3 13  1  0
  3 14  1  0
  4 15  1  0
  6 16  1  0
  6 17  1  0
  6 18  1  0
  7 19  1  0
  8 20  1  0
  8 21  1  0
  9 22  1  0
  9 23  1  0
M  END
