
     RDKit          3D

 18 17  0  0  0  0  0  0  0  0999 V2000
    2.5622    0.8930    0.1369 C   0  0  0  0  0  0  0  0  0  0  0  0
    1.5073    0.1034    0.5809 O   0  0  0  0  0  0  0  0  0  0  0  0
    0.9932   -0.5686   -0.5349 C   0  0  0  0  0  0  0  0  0  0  0  0
   -0.1481   -1.4394   -0.1297 C   0  0  0  0  0  0  0  0  0  0  0  0
   -1.2103   -0.7841    0.4517 O   0  0  0  0  0  0  0  0  0  0  0  0
   -1.7381    0.1281   -0.4185 C   0  0  0  0  0  0  0  0  0  0  0  0
   -2.9250    0.8462    0.1534 C   0  0  0  0  0  0  0  0  0  0  0  0
   -3.3567    0.6334    1.2605 O   0  0  0  0  0  0  0  0  0  0  0  0
    3.3067    0.2194   -0.3084 H   0  0  0  0  0  0  0  0  0  0  0  0
    2.9596    1.5320    0.9457 H   0  0  0  0  0  0  0  0  0  0  0  0
    2.1530    1.5924   -0.6493 H   0  0  0  0  0  0  0  0  0  0  0  0
    0.7409    0.1899   -1.2855 H   0  0  0  0  0  0  0  0  0  0  0  0
    1.8447   -1.1643   -0.9624 H   0  0  0  0  0  0  0  0  0  0  0  0
    0.1713   -2.2346    0.5960 H   0  0  0  0  0  0  0  0  0  0  0  0
   -0.4752   -2.0309   -1.0303 H   0  0  0  0  0  0  0  0  0  0  0  0
   -2.0314   -0.4002   -1.3417 H   0  0  0  0  0  0  0  0  0  0  0  0
   -0.9714    0.9004   -0.6455 H   0  0  0  0  0  0  0  0  0  0  0  0
   -3.3827    1.5837   -0.4994 H   0  0  0  0  0  0  0  0  0  0  0  0
  1  2  1  0
  2  3  1  0
  3  4  1  0
  4  5  1  0
  5  6  1  0
  6  7  1  0
  7  8  2  0
  1  9  1  0
  1 10  1  0
  1 11  1  0
  3 12  1  0
  3 13  1  0
  4 14  1  0
  4 15  1  0
  6 16  1  0
  6 17  1  0
  7 18  1  0
M  END
