
     RDKit          3D

 21 21  0  0  0  0  0  0  0  0999 V2000
    2.7191    0.2257   -0.3077 C   0  0  0  0  0  0  0  0  0  0  0  0
    2.0500   -0.4829    0.6624 O   0  0  0  0  0  0  0  0  0  0  0  0
    1.1456   -1.3438    0.0717 C   0  0  0  0  0  0  0  0  0  0  0  0
    0.1305   -0.5788   -0.7450 C   0  0  0  0  0  0  0  0  0  0  0  0
   -0.5935    0.3764    0.1789 C   0  0  0  0  0  0  0  0  0  0  0  0
   -1.6497    1.2171   -0.5064 C   0  0  0  0  0  0  0  0  0  0  0  0
   -2.5166    0.9994    0.6773 C   0  0  0  0  0  0  0  0  0  0  0  0
   -3.4257    1.5898    1.2124 O   0  0  0  0  0  0  0  0  0  0  0  0
   -1.7767   -0.2636    0.9164 C   0  0  0  0  0  0  0  0  0  0  0  0
    3.4545    0.8970    0.2381 H   0  0  0  0  0  0  0  0  0  0  0  0
    3.2334   -0.4268   -1.0378 H   0  0  0  0  0  0  0  0  0  0  0  0
    2.0648    0.9526   -0.8373 H   0  0  0  0  0  0  0  0  0  0  0  0
    1.6714   -2.1070   -0.5612 H   0  0  0  0  0  0  0  0  0  0  0  0
    0.6277   -1.8919    0.8889 H   0  0  0  0  0  0  0  0  0  0  0  0
    0.5553   -0.0796   -1.6356 H   0  0  0  0  0  0  0  0  0  0  0  0
   -0.6138   -1.3456   -1.0894 H   0  0  0  0  0  0  0  0  0  0  0  0
    0.0904    0.9394    0.8441 H   0  0  0  0  0  0  0  0  0  0  0  0
   -1.3692    2.2581   -0.7099 H   0  0  0  0  0  0  0  0  0  0  0  0
   -2.0446    0.6582   -1.3896 H   0  0  0  0  0  0  0  0  0  0  0  0
   -1.5758   -0.5236    1.9586 H   0  0  0  0  0  0  0  0  0  0  0  0
   -2.1771   -1.0703    0.2664 H   0  0  0  0  0  0  0  0  0  0  0  0
  1  2  1  0
  2  3  1  0
  3  4  1  0
  4  5  1  0
  5  6  1  0
  6  7  1  0
  7  8  2  0
  7  9  1  0
  9  5  1  0
  1 10  1  0
  1 11  1  0
  1 12  1  0
  3 13  1  0
  3 14  1  0
  4 15  1  0
  4 16  1  0
  5 17  1  0
  6 18  1  0
  6 19  1  0
  9 20  1  0
  9 21  1  0
M  END
