
     RDKit          3D

 19 19  0  0  0  0  0  0  0  0999 V2000
    2.6344    0.5046   -0.4403 C   0  0  0  0  0  0  0  0  0  0  0  0
    2.1070   -0.7642   -0.6699 O   0  0  0  0  0  0  0  0  0  0  0  0
    1.0309   -0.9991    0.1549 C   0  0  0  0  0  0  0  0  0  0  0  0
   -0.1011   -0.0320   -0.0235 C   0  0  0  0  0  0  0  0  0  0  0  0
   -1.3025   -0.6079    0.7378 C   0  0  0  0  0  0  0  0  0  0  0  0
   -2.4182    0.0067   -0.0318 C   0  0  0  0  0  0  0  0  0  0  0  0
   -3.5812   -0.0742    0.2349 O   0  0  0  0  0  0  0  0  0  0  0  0
   -1.7777    0.7171   -1.1651 C   0  0  0  0  0  0  0  0  0  0  0  0
   -0.6070   -0.0593   -1.3308 O   0  0  0  0  0  0  0  0  0  0  0  0
    1.8420    1.2539   -0.6463 H   0  0  0  0  0  0  0  0  0  0  0  0
    2.8995    0.6459    0.6373 H   0  0  0  0  0  0  0  0  0  0  0  0
    3.4874    0.7294   -1.0980 H   0  0  0  0  0  0  0  0  0  0  0  0
    0.6333   -2.0103    0.0907 H   0  0  0  0  0  0  0  0  0  0  0  0
    1.3828   -0.8721    1.2193 H   0  0  0  0  0  0  0  0  0  0  0  0
    0.0874    0.9778    0.3446 H   0  0  0  0  0  0  0  0  0  0  0  0
   -1.2264   -0.1967    1.7722 H   0  0  0  0  0  0  0  0  0  0  0  0
   -1.3065   -1.6982    0.7276 H   0  0  0  0  0  0  0  0  0  0  0  0
   -2.3876    0.7494   -2.0647 H   0  0  0  0  0  0  0  0  0  0  0  0
   -1.3967    1.7291   -0.8567 H   0  0  0  0  0  0  0  0  0  0  0  0
  1  2  1  0
  2  3  1  0
  3  4  1  0
  4  5  1  0
  5  6  1  0
  6  7  2  0
  6  8  1  0
  8  9  1  0
  9  4  1  0
  1 10  1  0
  1 11  1  0
  1 12  1  0
  3 13  1  0
  3 14  1  0
  4 15  1  0
  5 16  1  0
  5 17  1  0
  8 18  1  0
  8 19  1  0
M  END
