
     RDKit          3D

 19 19  0  0  0  0  0  0  0  0999 V2000
    2.6897   -1.1602   -0.5953 C   0  0  0  0  0  0  0  0  0  0  0  0
    1.9342   -2.0066   -1.4361 O   0  0  0  0  0  0  0  0  0  0  0  0
    1.0629   -1.1396   -2.1190 C   0  0  0  0  0  0  0  0  0  0  0  0
    0.2401   -0.4604   -1.1228 C   0  0  0  0  0  0  0  0  0  0  0  0
   -0.4468    0.1001   -0.2664 C   0  0  0  0  0  0  0  0  0  0  0  0
   -1.2687    0.7782    0.7385 C   0  0  0  0  0  0  0  0  0  0  0  0
   -2.7074    0.2833    0.9138 C   0  0  0  0  0  0  0  0  0  0  0  0
   -0.8657    1.9811    1.3324 C   0  0  0  0  0  0  0  0  0  0  0  0
   -0.6151    0.7948    2.0906 O   0  0  0  0  0  0  0  0  0  0  0  0
    3.2152   -0.4484   -1.2771 H   0  0  0  0  0  0  0  0  0  0  0  0
    3.3994   -1.7459   -0.0014 H   0  0  0  0  0  0  0  0  0  0  0  0
    1.9893   -0.5489    0.0089 H   0  0  0  0  0  0  0  0  0  0  0  0
    1.6829   -0.4016   -2.6435 H   0  0  0  0  0  0  0  0  0  0  0  0
    0.4464   -1.7668   -2.8074 H   0  0  0  0  0  0  0  0  0  0  0  0
   -3.2936    0.7976    0.1243 H   0  0  0  0  0  0  0  0  0  0  0  0
   -2.7844   -0.8045    0.6988 H   0  0  0  0  0  0  0  0  0  0  0  0
   -3.0947    0.5683    1.8885 H   0  0  0  0  0  0  0  0  0  0  0  0
   -1.6150    2.6237    1.8744 H   0  0  0  0  0  0  0  0  0  0  0  0
    0.0314    2.5561    1.0391 H   0  0  0  0  0  0  0  0  0  0  0  0
  1  2  1  0
  2  3  1  0
  3  4  1  0
  4  5  3  0
  5  6  1  0
  6  7  1  0
  6  8  1  0
  8  9  1  0
  9  6  1  0
  1 10  1  0
  1 11  1  0
  1 12  1  0
  3 13  1  0
  3 14  1  0
  7 15  1  0
  7 16  1  0
  7 17  1  0
  8 18  1  0
  8 19  1  0
M  END
