
     RDKit          3D

 21 22  0  0  0  0  0  0  0  0999 V2000
    2.7686   -0.7169   -0.7981 C   0  0  0  0  0  0  0  0  0  0  0  0
    1.6464    0.1150   -0.8753 O   0  0  0  0  0  0  0  0  0  0  0  0
    0.7433   -0.3419    0.0733 C   0  0  0  0  0  0  0  0  0  0  0  0
   -0.5287    0.4848    0.0903 C   0  0  0  0  0  0  0  0  0  0  0  0
   -1.5150   -0.0209    1.1323 C   0  0  0  0  0  0  0  0  0  0  0  0
   -1.9336   -1.4600    0.8880 C   0  0  0  0  0  0  0  0  0  0  0  0
   -2.7896   -0.3467    0.7795 O   0  0  0  0  0  0  0  0  0  0  0  0
   -0.4056    1.9991    0.0074 C   0  0  0  0  0  0  0  0  0  0  0  0
   -0.9788    1.1465   -1.1341 C   0  0  0  0  0  0  0  0  0  0  0  0
    3.1479   -0.6015    0.2555 H   0  0  0  0  0  0  0  0  0  0  0  0
    3.5746   -0.4121   -1.4690 H   0  0  0  0  0  0  0  0  0  0  0  0
    2.4945   -1.7939   -0.9262 H   0  0  0  0  0  0  0  0  0  0  0  0
    0.4677   -1.3907   -0.1135 H   0  0  0  0  0  0  0  0  0  0  0  0
    1.1643   -0.2642    1.1127 H   0  0  0  0  0  0  0  0  0  0  0  0
   -1.3139    0.2877    2.1614 H   0  0  0  0  0  0  0  0  0  0  0  0
   -1.7257   -1.9273   -0.0889 H   0  0  0  0  0  0  0  0  0  0  0  0
   -1.9802   -2.0815    1.7976 H   0  0  0  0  0  0  0  0  0  0  0  0
   -1.1226    2.6196    0.5726 H   0  0  0  0  0  0  0  0  0  0  0  0
    0.6460    2.3401   -0.0807 H   0  0  0  0  0  0  0  0  0  0  0  0
   -2.0508    1.3322   -1.3515 H   0  0  0  0  0  0  0  0  0  0  0  0
   -0.3091    1.0324   -2.0332 H   0  0  0  0  0  0  0  0  0  0  0  0
  1  2  1  0
  2  3  1  0
  3  4  1  0
  4  5  1  0
  5  6  1  0
  6  7  1  0
  4  8  1  0
  8  9  1  0
  9  4  1  0
  7  5  1  0
  1 10  1  0
  1 11  1  0
  1 12  1  0
  3 13  1  0
  3 14  1  0
  5 15  1  0
  6 16  1  0
  6 17  1  0
  8 18  1  0
  8 19  1  0
  9 20  1  0
  9 21  1  0
M  END
