
     RDKit          3D

 21 22  0  0  0  0  0  0  0  0999 V2000
    2.9970    0.7004   -0.6660 C   0  0  0  0  0  0  0  0  0  0  0  0
    1.8070    0.8773    0.0800 O   0  0  0  0  0  0  0  0  0  0  0  0
    1.1440   -0.3182    0.0449 C   0  0  0  0  0  0  0  0  0  0  0  0
   -0.1508   -0.3576    0.7758 C   0  0  0  0  0  0  0  0  0  0  0  0
   -0.7398   -1.7679    0.6231 C   0  0  0  0  0  0  0  0  0  0  0  0
   -1.2860   -1.3047   -0.5970 O   0  0  0  0  0  0  0  0  0  0  0  0
   -1.3339   -0.0623   -0.0548 C   0  0  0  0  0  0  0  0  0  0  0  0
   -2.5500    0.5992    0.4194 C   0  0  0  0  0  0  0  0  0  0  0  0
   -1.6242    1.1887   -0.6918 C   0  0  0  0  0  0  0  0  0  0  0  0
    3.6030    1.6150   -0.6959 H   0  0  0  0  0  0  0  0  0  0  0  0
    2.7441    0.4238   -1.7121 H   0  0  0  0  0  0  0  0  0  0  0  0
    3.5180   -0.1502   -0.1794 H   0  0  0  0  0  0  0  0  0  0  0  0
    1.8174   -1.0885    0.5210 H   0  0  0  0  0  0  0  0  0  0  0  0
    0.9719   -0.6602   -0.9913 H   0  0  0  0  0  0  0  0  0  0  0  0
   -0.1646    0.0199    1.8083 H   0  0  0  0  0  0  0  0  0  0  0  0
    0.0249   -2.5392    0.4988 H   0  0  0  0  0  0  0  0  0  0  0  0
   -1.4714   -2.0352    1.3791 H   0  0  0  0  0  0  0  0  0  0  0  0
   -2.6015    1.1669    1.3624 H   0  0  0  0  0  0  0  0  0  0  0  0
   -3.5482    0.2529    0.0738 H   0  0  0  0  0  0  0  0  0  0  0  0
   -1.0461    2.0940   -0.3423 H   0  0  0  0  0  0  0  0  0  0  0  0
   -2.1109    1.3459   -1.6559 H   0  0  0  0  0  0  0  0  0  0  0  0
  1  2  1  0
  2  3  1  0
  3  4  1  0
  4  5  1  0
  5  6  1  0
  6  7  1  0
  7  8  1  0
  8  9  1  0
  7  4  1  0
  9  7  1  0
  1 10  1  0
  1 11  1  0
  1 12  1  0
  3 13  1  0
  3 14  1  0
  4 15  1  0
  5 16  1  0
  5 17  1  0
  8 18  1  0
  8 19  1  0
  9 20  1  0
  9 21  1  0
M  END
