
     RDKit          3D

 23 23  0  0  0  0  0  0  0  0999 V2000
    3.0585   -0.0755   -0.7723 C   0  0  0  0  0  0  0  0  0  0  0  0
    1.6672    0.0277   -0.8200 O   0  0  0  0  0  0  0  0  0  0  0  0
    1.1596   -0.5301    0.3206 C   0  0  0  0  0  0  0  0  0  0  0  0
   -0.3360   -0.4917    0.4103 C   0  0  0  0  0  0  0  0  0  0  0  0
   -0.8847   -1.0469    1.5504 O   0  0  0  0  0  0  0  0  0  0  0  0
   -1.0073   -0.9427   -0.8940 C   0  0  0  0  0  0  0  0  0  0  0  0
   -2.0884    0.0870   -0.5566 C   0  0  0  0  0  0  0  0  0  0  0  0
   -0.9716    0.8600    0.1570 C   0  0  0  0  0  0  0  0  0  0  0  0
   -1.4155    1.5579    1.4141 C   0  0  0  0  0  0  0  0  0  0  0  0
    3.3975   -1.1303   -0.7077 H   0  0  0  0  0  0  0  0  0  0  0  0
    3.4414    0.4320    0.1274 H   0  0  0  0  0  0  0  0  0  0  0  0
    3.4916    0.4115   -1.6531 H   0  0  0  0  0  0  0  0  0  0  0  0
    1.4648   -1.5973    0.3767 H   0  0  0  0  0  0  0  0  0  0  0  0
    1.5550   -0.0554    1.2506 H   0  0  0  0  0  0  0  0  0  0  0  0
   -0.4472   -1.9102    1.7407 H   0  0  0  0  0  0  0  0  0  0  0  0
   -0.4047   -0.6130   -1.7581 H   0  0  0  0  0  0  0  0  0  0  0  0
   -1.3358   -1.9841   -0.8742 H   0  0  0  0  0  0  0  0  0  0  0  0
   -2.8074   -0.3998    0.1294 H   0  0  0  0  0  0  0  0  0  0  0  0
   -2.5094    0.6025   -1.4216 H   0  0  0  0  0  0  0  0  0  0  0  0
   -0.4491    1.5009   -0.5682 H   0  0  0  0  0  0  0  0  0  0  0  0
   -0.5894    1.6003    2.1606 H   0  0  0  0  0  0  0  0  0  0  0  0
   -1.6852    2.6091    1.1479 H   0  0  0  0  0  0  0  0  0  0  0  0
   -2.3039    1.0880    1.8761 H   0  0  0  0  0  0  0  0  0  0  0  0
  1  2  1  0
  2  3  1  0
  3  4  1  0
  4  5  1  0
  4  6  1  0
  6  7  1  0
  7  8  1  0
  8  9  1  0
  8  4  1  0
  1 10  1  0
  1 11  1  0
  1 12  1  0
  3 13  1  0
  3 14  1  0
  5 15  1  0
  6 16  1  0
  6 17  1  0
  7 18  1  0
  7 19  1  0
  8 20  1  0
  9 21  1  0
  9 22  1  0
  9 23  1  0
M  END
