
     RDKit          3D

 20 19  0  0  0  0  0  0  0  0999 V2000
    2.7373    0.5491    0.5250 C   0  0  0  0  0  0  0  0  0  0  0  0
    2.1669    0.1209   -0.6483 O   0  0  0  0  0  0  0  0  0  0  0  0
    0.7797    0.2154   -0.6822 C   0  0  0  0  0  0  0  0  0  0  0  0
    0.1848   -0.6233    0.4220 C   0  0  0  0  0  0  0  0  0  0  0  0
   -1.3201   -0.5742    0.4501 C   0  0  0  0  0  0  0  0  0  0  0  0
   -1.8013    0.8452    0.6599 C   0  0  0  0  0  0  0  0  0  0  0  0
   -1.9411   -1.2199   -0.7167 C   0  0  0  0  0  0  0  0  0  0  0  0
   -1.9373   -2.4268   -0.8296 O   0  0  0  0  0  0  0  0  0  0  0  0
    2.5195    1.6125    0.7572 H   0  0  0  0  0  0  0  0  0  0  0  0
    2.5632   -0.1405    1.3659 H   0  0  0  0  0  0  0  0  0  0  0  0
    3.8525    0.5149    0.3514 H   0  0  0  0  0  0  0  0  0  0  0  0
    0.5017    1.2842   -0.5703 H   0  0  0  0  0  0  0  0  0  0  0  0
    0.4544   -0.1105   -1.6865 H   0  0  0  0  0  0  0  0  0  0  0  0
    0.5278   -1.6648    0.3102 H   0  0  0  0  0  0  0  0  0  0  0  0
    0.5313   -0.2327    1.4005 H   0  0  0  0  0  0  0  0  0  0  0  0
   -1.6386   -1.1461    1.3529 H   0  0  0  0  0  0  0  0  0  0  0  0
   -0.9282    1.4881    0.9117 H   0  0  0  0  0  0  0  0  0  0  0  0
   -2.3240    1.2058   -0.2451 H   0  0  0  0  0  0  0  0  0  0  0  0
   -2.5242    0.9221    1.4991 H   0  0  0  0  0  0  0  0  0  0  0  0
   -2.4043   -0.6192   -1.4795 H   0  0  0  0  0  0  0  0  0  0  0  0
  1  2  1  0
  2  3  1  0
  3  4  1  0
  4  5  1  0
  5  6  1  0
  5  7  1  0
  7  8  2  0
  1  9  1  0
  1 10  1  0
  1 11  1  0
  3 12  1  0
  3 13  1  0
  4 14  1  0
  4 15  1  0
  5 16  1  0
  6 17  1  0
  6 18  1  0
  6 19  1  0
  7 20  1  0
M  END
