
     RDKit          3D

 19 18  0  0  0  0  0  0  0  0999 V2000
    2.6164    0.8819   -0.0078 C   0  0  0  0  0  0  0  0  0  0  0  0
    1.2853    0.9303   -0.4412 O   0  0  0  0  0  0  0  0  0  0  0  0
    0.6379   -0.1607    0.1056 C   0  0  0  0  0  0  0  0  0  0  0  0
   -0.8171   -0.2324   -0.2834 C   0  0  0  0  0  0  0  0  0  0  0  0
   -1.6205    0.9099    0.2773 C   0  0  0  0  0  0  0  0  0  0  0  0
   -1.3696   -1.5376    0.2847 C   0  0  0  0  0  0  0  0  0  0  0  0
   -0.9106   -0.3248   -1.6651 O   0  0  0  0  0  0  0  0  0  0  0  0
    3.0708   -0.0825   -0.3687 H   0  0  0  0  0  0  0  0  0  0  0  0
    2.6715    0.8135    1.1178 H   0  0  0  0  0  0  0  0  0  0  0  0
    3.1992    1.7631   -0.3286 H   0  0  0  0  0  0  0  0  0  0  0  0
    1.1065   -1.1105   -0.2794 H   0  0  0  0  0  0  0  0  0  0  0  0
    0.7860   -0.1674    1.1922 H   0  0  0  0  0  0  0  0  0  0  0  0
   -1.0216    1.8396    0.3717 H   0  0  0  0  0  0  0  0  0  0  0  0
   -2.0368    0.5773    1.2531 H   0  0  0  0  0  0  0  0  0  0  0  0
   -2.5023    1.0627   -0.3984 H   0  0  0  0  0  0  0  0  0  0  0  0
   -0.7040   -1.9616    1.0488 H   0  0  0  0  0  0  0  0  0  0  0  0
   -2.3505   -1.3595    0.7643 H   0  0  0  0  0  0  0  0  0  0  0  0
   -1.5154   -2.2959   -0.5072 H   0  0  0  0  0  0  0  0  0  0  0  0
   -0.5249    0.4547   -2.1356 H   0  0  0  0  0  0  0  0  0  0  0  0
  1  2  1  0
  2  3  1  0
  3  4  1  0
  4  5  1  0
  4  6  1  0
  4  7  1  0
  1  8  1  0
  1  9  1  0
  1 10  1  0
  3 11  1  0
  3 12  1  0
  5 13  1  0
  5 14  1  0
  5 15  1  0
  6 16  1  0
  6 17  1  0
  6 18  1  0
  7 19  1  0
M  END
