
     RDKit          3D

 14 13  0  0  0  0  0  0  0  0999 V2000
   -2.1618   -0.2790    0.0545 C   0  0  0  0  0  0  0  0  0  0  0  0
   -1.3780    0.4469    0.9335 O   0  0  0  0  0  0  0  0  0  0  0  0
   -0.1356    0.7306    0.4632 C   0  0  0  0  0  0  0  0  0  0  0  0
    0.7447   -0.4174    0.1669 C   0  0  0  0  0  0  0  0  0  0  0  0
    2.1002   -0.0951   -0.3868 C   0  0  0  0  0  0  0  0  0  0  0  0
    0.4801   -1.5892    0.3266 O   0  0  0  0  0  0  0  0  0  0  0  0
   -1.7117   -1.2514   -0.1897 H   0  0  0  0  0  0  0  0  0  0  0  0
   -2.3383    0.3041   -0.8981 H   0  0  0  0  0  0  0  0  0  0  0  0
   -3.1660   -0.5209    0.5087 H   0  0  0  0  0  0  0  0  0  0  0  0
   -0.1891    1.3053   -0.5148 H   0  0  0  0  0  0  0  0  0  0  0  0
    0.4065    1.3497    1.2255 H   0  0  0  0  0  0  0  0  0  0  0  0
    2.5549   -0.9945   -0.8721 H   0  0  0  0  0  0  0  0  0  0  0  0
    2.0311    0.6652   -1.2034 H   0  0  0  0  0  0  0  0  0  0  0  0
    2.7629    0.3456    0.3861 H   0  0  0  0  0  0  0  0  0  0  0  0
  1  2  1  0
  2  3  1  0
  3  4  1  0
  4  5  1  0
  4  6  2  0
  1  7  1  0
  1  8  1  0
  1  9  1  0
  3 10  1  0
  3 11  1  0
  5 12  1  0
  5 13  1  0
  5 14  1  0
M  END
