
     RDKit          3D

 18 17  0  0  0  0  0  0  0  0999 V2000
    2.6630    0.5498    0.0299 C   0  0  0  0  0  0  0  0  0  0  0  0
    1.2838    0.5542   -0.1720 O   0  0  0  0  0  0  0  0  0  0  0  0
    0.8109   -0.7243    0.0789 C   0  0  0  0  0  0  0  0  0  0  0  0
   -0.6819   -0.8294   -0.1122 C   0  0  0  0  0  0  0  0  0  0  0  0
   -0.9990   -0.5003   -1.4196 O   0  0  0  0  0  0  0  0  0  0  0  0
   -1.4432    0.0380    0.8060 C   0  0  0  0  0  0  0  0  0  0  0  0
   -2.3854    1.0799    0.3205 C   0  0  0  0  0  0  0  0  0  0  0  0
   -1.2970   -0.1021    2.0038 O   0  0  0  0  0  0  0  0  0  0  0  0
    3.1195    1.5362   -0.1502 H   0  0  0  0  0  0  0  0  0  0  0  0
    2.9005    0.2788    1.0823 H   0  0  0  0  0  0  0  0  0  0  0  0
    3.1647   -0.1933   -0.6197 H   0  0  0  0  0  0  0  0  0  0  0  0
    1.2986   -1.4070   -0.6474 H   0  0  0  0  0  0  0  0  0  0  0  0
    1.1244   -1.0573    1.0897 H   0  0  0  0  0  0  0  0  0  0  0  0
   -0.9371   -1.9188    0.0240 H   0  0  0  0  0  0  0  0  0  0  0  0
   -0.6655   -1.2578   -1.9858 H   0  0  0  0  0  0  0  0  0  0  0  0
   -3.1851    1.3063    1.0566 H   0  0  0  0  0  0  0  0  0  0  0  0
   -2.8972    0.6453   -0.5717 H   0  0  0  0  0  0  0  0  0  0  0  0
   -1.8739    2.0016   -0.0168 H   0  0  0  0  0  0  0  0  0  0  0  0
  1  2  1  0
  2  3  1  0
  3  4  1  0
  4  5  1  0
  4  6  1  0
  6  7  1  0
  6  8  2  0
  1  9  1  0
  1 10  1  0
  1 11  1  0
  3 12  1  0
  3 13  1  0
  4 14  1  0
  5 15  1  0
  7 16  1  0
  7 17  1  0
  7 18  1  0
M  END
