
     RDKit          3D

 21 21  0  0  0  0  0  0  0  0999 V2000
    2.8680    0.5208   -0.2227 C   0  0  0  0  0  0  0  0  0  0  0  0
    2.3267   -0.3254    0.7239 O   0  0  0  0  0  0  0  0  0  0  0  0
    1.2748   -1.0095    0.2298 C   0  0  0  0  0  0  0  0  0  0  0  0
    0.0486   -0.2592    0.0258 C   0  0  0  0  0  0  0  0  0  0  0  0
   -0.1903    1.0139    0.2794 C   0  0  0  0  0  0  0  0  0  0  0  0
   -1.5624    1.4924   -0.0488 C   0  0  0  0  0  0  0  0  0  0  0  0
   -2.4606    0.6890    0.6494 O   0  0  0  0  0  0  0  0  0  0  0  0
   -2.2969   -0.6508    0.4280 C   0  0  0  0  0  0  0  0  0  0  0  0
   -1.1756   -0.9657   -0.5573 C   0  0  0  0  0  0  0  0  0  0  0  0
    2.1614    1.2214   -0.6079 H   0  0  0  0  0  0  0  0  0  0  0  0
    3.2503   -0.0788   -1.1127 H   0  0  0  0  0  0  0  0  0  0  0  0
    3.7406    1.0197    0.2779 H   0  0  0  0  0  0  0  0  0  0  0  0
    1.0876   -1.9843    0.7952 H   0  0  0  0  0  0  0  0  0  0  0  0
    1.5658   -1.4105   -0.7992 H   0  0  0  0  0  0  0  0  0  0  0  0
    0.5214    1.6775    0.7222 H   0  0  0  0  0  0  0  0  0  0  0  0
   -1.7331    2.5340    0.2881 H   0  0  0  0  0  0  0  0  0  0  0  0
   -1.7714    1.3778   -1.1454 H   0  0  0  0  0  0  0  0  0  0  0  0
   -2.0153   -1.1616    1.3746 H   0  0  0  0  0  0  0  0  0  0  0  0
   -3.2641   -1.0675    0.0822 H   0  0  0  0  0  0  0  0  0  0  0  0
   -1.3787   -0.5898   -1.5636 H   0  0  0  0  0  0  0  0  0  0  0  0
   -0.9970   -2.0437   -0.4816 H   0  0  0  0  0  0  0  0  0  0  0  0
  1  2  1  0
  2  3  1  0
  3  4  1  0
  4  5  2  0
  5  6  1  0
  6  7  1  0
  7  8  1  0
  8  9  1  0
  9  4  1  0
  1 10  1  0
  1 11  1  0
  1 12  1  0
  3 13  1  0
  3 14  1  0
  5 15  1  0
  6 16  1  0
  6 17  1  0
  8 18  1  0
  8 19  1  0
  9 20  1  0
  9 21  1  0
M  END
