
     RDKit          3D

 21 21  0  0  0  0  0  0  0  0999 V2000
    2.7203    0.6130   -0.3756 C   0  0  0  0  0  0  0  0  0  0  0  0
    2.1257    0.3431    0.8252 O   0  0  0  0  0  0  0  0  0  0  0  0
    1.1040   -0.5425    0.8678 C   0  0  0  0  0  0  0  0  0  0  0  0
   -0.0634   -0.1474    0.0421 C   0  0  0  0  0  0  0  0  0  0  0  0
    0.2075   -0.0383   -1.3134 O   0  0  0  0  0  0  0  0  0  0  0  0
   -0.6803    1.1324    0.4585 C   0  0  0  0  0  0  0  0  0  0  0  0
   -1.9790    1.0757    0.2202 C   0  0  0  0  0  0  0  0  0  0  0  0
   -2.3394   -0.2488   -0.3752 C   0  0  0  0  0  0  0  0  0  0  0  0
   -1.2422   -1.1079    0.2779 C   0  0  0  0  0  0  0  0  0  0  0  0
    3.5542    1.3479   -0.1357 H   0  0  0  0  0  0  0  0  0  0  0  0
    2.0898    1.1798   -1.1051 H   0  0  0  0  0  0  0  0  0  0  0  0
    3.2361   -0.2503   -0.8442 H   0  0  0  0  0  0  0  0  0  0  0  0
    1.4401   -1.5458    0.4522 H   0  0  0  0  0  0  0  0  0  0  0  0
    0.7425   -0.7513    1.9136 H   0  0  0  0  0  0  0  0  0  0  0  0
   -0.0416   -0.8624   -1.7970 H   0  0  0  0  0  0  0  0  0  0  0  0
   -0.1379    1.9847    0.8938 H   0  0  0  0  0  0  0  0  0  0  0  0
   -2.7006    1.8769    0.4246 H   0  0  0  0  0  0  0  0  0  0  0  0
   -3.3422   -0.5809   -0.0843 H   0  0  0  0  0  0  0  0  0  0  0  0
   -2.1788   -0.2729   -1.4725 H   0  0  0  0  0  0  0  0  0  0  0  0
   -1.4064   -1.1480    1.3565 H   0  0  0  0  0  0  0  0  0  0  0  0
   -1.1083   -2.0571   -0.2294 H   0  0  0  0  0  0  0  0  0  0  0  0
  1  2  1  0
  2  3  1  0
  3  4  1  0
  4  5  1  0
  4  6  1  0
  6  7  2  0
  7  8  1  0
  8  9  1  0
  9  4  1  0
  1 10  1  0
  1 11  1  0
  1 12  1  0
  3 13  1  0
  3 14  1  0
  5 15  1  0
  6 16  1  0
  7 17  1  0
  8 18  1  0
  8 19  1  0
  9 20  1  0
  9 21  1  0
M  END
