
     RDKit          3D

 17 16  0  0  0  0  0  0  0  0999 V2000
   -2.7796   -1.0121    0.3117 C   0  0  0  0  0  0  0  0  0  0  0  0
   -1.4447   -0.6436    0.3016 O   0  0  0  0  0  0  0  0  0  0  0  0
   -1.2303    0.2052   -0.7748 C   0  0  0  0  0  0  0  0  0  0  0  0
    0.2071    0.6382   -0.8351 C   0  0  0  0  0  0  0  0  0  0  0  0
    0.5547    1.3876   -1.7272 O   0  0  0  0  0  0  0  0  0  0  0  0
    1.2064    0.1809    0.1548 C   0  0  0  0  0  0  0  0  0  0  0  0
    2.4543    0.7488   -0.1593 O   0  0  0  0  0  0  0  0  0  0  0  0
    3.6110    0.5314    0.5618 C   0  0  0  0  0  0  0  0  0  0  0  0
    3.5662   -0.2203    1.5683 O   0  0  0  0  0  0  0  0  0  0  0  0
   -3.0245   -1.5296   -0.6307 H   0  0  0  0  0  0  0  0  0  0  0  0
   -3.3884   -0.0792    0.3204 H   0  0  0  0  0  0  0  0  0  0  0  0
   -2.9547   -1.6454    1.2082 H   0  0  0  0  0  0  0  0  0  0  0  0
   -1.8266    1.1140   -0.5967 H   0  0  0  0  0  0  0  0  0  0  0  0
   -1.5582   -0.2585   -1.7050 H   0  0  0  0  0  0  0  0  0  0  0  0
    1.2279   -0.9284    0.1305 H   0  0  0  0  0  0  0  0  0  0  0  0
    0.8722    0.4825    1.1875 H   0  0  0  0  0  0  0  0  0  0  0  0
    4.5073    1.0284    0.2150 H   0  0  0  0  0  0  0  0  0  0  0  0
  1  2  1  0
  2  3  1  0
  3  4  1  0
  4  5  2  0
  4  6  1  0
  6  7  1  0
  7  8  1  0
  8  9  2  0
  1 10  1  0
  1 11  1  0
  1 12  1  0
  3 13  1  0
  3 14  1  0
  6 15  1  0
  6 16  1  0
  8 17  1  0
M  END
