
     RDKit          3D

 15 14  0  0  0  0  0  0  0  0999 V2000
    2.7831   -1.2831    1.0672 C   0  0  0  0  0  0  0  0  0  0  0  0
    1.5489   -0.8425    1.5157 O   0  0  0  0  0  0  0  0  0  0  0  0
    0.7605   -0.3578    0.4886 C   0  0  0  0  0  0  0  0  0  0  0  0
   -0.5358    0.0950    1.0234 C   0  0  0  0  0  0  0  0  0  0  0  0
   -0.7811    0.0040    2.2666 O   0  0  0  0  0  0  0  0  0  0  0  0
   -1.5539    0.6473    0.1724 C   0  0  0  0  0  0  0  0  0  0  0  0
   -2.4072    1.1173   -0.5406 C   0  0  0  0  0  0  0  0  0  0  0  0
   -3.4097    1.6946   -1.4026 C   0  0  0  0  0  0  0  0  0  0  0  0
   -3.8759    2.8416   -1.1769 O   0  0  0  0  0  0  0  0  0  0  0  0
    3.3631   -1.6558    1.9270 H   0  0  0  0  0  0  0  0  0  0  0  0
    2.6153   -2.1609    0.4009 H   0  0  0  0  0  0  0  0  0  0  0  0
    3.3739   -0.4979    0.5753 H   0  0  0  0  0  0  0  0  0  0  0  0
    0.5833   -1.2276   -0.2063 H   0  0  0  0  0  0  0  0  0  0  0  0
    1.3340    0.4522   -0.0196 H   0  0  0  0  0  0  0  0  0  0  0  0
   -3.7984    1.1735   -2.2679 H   0  0  0  0  0  0  0  0  0  0  0  0
  1  2  1  0
  2  3  1  0
  3  4  1  0
  4  5  2  0
  4  6  1  0
  6  7  3  0
  7  8  1  0
  8  9  2  0
  1 10  1  0
  1 11  1  0
  1 12  1  0
  3 13  1  0
  3 14  1  0
  8 15  1  0
M  END
