
     RDKit          3D

 17 16  0  0  0  0  0  0  0  0999 V2000
    2.5003   -0.0523    0.2505 C   0  0  0  0  0  0  0  0  0  0  0  0
    1.6589    0.7632   -0.4199 O   0  0  0  0  0  0  0  0  0  0  0  0
    0.4048    0.3619   -0.7452 C   0  0  0  0  0  0  0  0  0  0  0  0
   -0.4178    0.0379    0.4495 C   0  0  0  0  0  0  0  0  0  0  0  0
    0.1148   -1.0178    1.1650 O   0  0  0  0  0  0  0  0  0  0  0  0
   -1.8232   -0.2984    0.1129 C   0  0  0  0  0  0  0  0  0  0  0  0
   -2.2675   -1.4120    0.4911 O   0  0  0  0  0  0  0  0  0  0  0  0
   -2.6973    0.5881   -0.6234 C   0  0  0  0  0  0  0  0  0  0  0  0
   -2.3039    1.7012   -1.0169 O   0  0  0  0  0  0  0  0  0  0  0  0
    2.2273   -0.3842    1.2596 H   0  0  0  0  0  0  0  0  0  0  0  0
    2.7992   -0.9633   -0.3347 H   0  0  0  0  0  0  0  0  0  0  0  0
    3.4688    0.5283    0.3882 H   0  0  0  0  0  0  0  0  0  0  0  0
   -0.0512    1.2102   -1.3474 H   0  0  0  0  0  0  0  0  0  0  0  0
    0.4009   -0.4772   -1.5038 H   0  0  0  0  0  0  0  0  0  0  0  0
   -0.4221    0.9539    1.1000 H   0  0  0  0  0  0  0  0  0  0  0  0
    0.1066   -1.8162    0.6052 H   0  0  0  0  0  0  0  0  0  0  0  0
   -3.6987    0.2766   -0.8308 H   0  0  0  0  0  0  0  0  0  0  0  0
  1  2  1  0
  2  3  1  0
  3  4  1  0
  4  5  1  0
  4  6  1  0
  6  7  2  0
  6  8  1  0
  8  9  2  0
  1 10  1  0
  1 11  1  0
  1 12  1  0
  3 13  1  0
  3 14  1  0
  4 15  1  0
  5 16  1  0
  8 17  1  0
M  END
