
     RDKit          3D

 23 23  0  0  0  0  0  0  0  0999 V2000
   -3.0287   -1.1637    0.7206 C   0  0  0  0  0  0  0  0  0  0  0  0
   -1.6654   -0.7999    0.6884 O   0  0  0  0  0  0  0  0  0  0  0  0
   -1.6386    0.5666    0.4233 C   0  0  0  0  0  0  0  0  0  0  0  0
   -0.2529    1.1209    0.3546 C   0  0  0  0  0  0  0  0  0  0  0  0
    0.5896    0.4812   -0.7266 C   0  0  0  0  0  0  0  0  0  0  0  0
    0.7139   -0.9798   -0.4877 C   0  0  0  0  0  0  0  0  0  0  0  0
    1.8858   -1.2714    0.0607 C   0  0  0  0  0  0  0  0  0  0  0  0
    2.7193   -0.0557    0.2703 C   0  0  0  0  0  0  0  0  0  0  0  0
    2.0228    0.9677   -0.6071 C   0  0  0  0  0  0  0  0  0  0  0  0
   -3.1668   -2.2345    0.9251 H   0  0  0  0  0  0  0  0  0  0  0  0
   -3.4639   -0.6084    1.5857 H   0  0  0  0  0  0  0  0  0  0  0  0
   -3.5542   -0.7995   -0.1785 H   0  0  0  0  0  0  0  0  0  0  0  0
   -2.1950    1.0571    1.2457 H   0  0  0  0  0  0  0  0  0  0  0  0
   -2.2079    0.7436   -0.5107 H   0  0  0  0  0  0  0  0  0  0  0  0
   -0.3209    2.2098    0.1085 H   0  0  0  0  0  0  0  0  0  0  0  0
    0.2298    1.0678    1.3423 H   0  0  0  0  0  0  0  0  0  0  0  0
    0.1795    0.6414   -1.7314 H   0  0  0  0  0  0  0  0  0  0  0  0
   -0.0584   -1.6980   -0.7354 H   0  0  0  0  0  0  0  0  0  0  0  0
    2.2293   -2.2682    0.3368 H   0  0  0  0  0  0  0  0  0  0  0  0
    3.7636   -0.1936   -0.1136 H   0  0  0  0  0  0  0  0  0  0  0  0
    2.7077    0.2290    1.3428 H   0  0  0  0  0  0  0  0  0  0  0  0
    2.5176    1.0670   -1.5898 H   0  0  0  0  0  0  0  0  0  0  0  0
    1.9939    1.9207   -0.0442 H   0  0  0  0  0  0  0  0  0  0  0  0
  1  2  1  0
  2  3  1  0
  3  4  1  0
  4  5  1  0
  5  6  1  0
  6  7  2  0
  7  8  1  0
  8  9  1  0
  9  5  1  0
  1 10  1  0
  1 11  1  0
  1 12  1  0
  3 13  1  0
  3 14  1  0
  4 15  1  0
  4 16  1  0
  5 17  1  0
  6 18  1  0
  7 19  1  0
  8 20  1  0
  8 21  1  0
  9 22  1  0
  9 23  1  0
M  END
