
     RDKit          3D

 22 21  0  0  0  0  0  0  0  0999 V2000
    3.1424   -0.6044    0.7281 C   0  0  0  0  0  0  0  0  0  0  0  0
    2.2169   -1.1144   -0.1648 O   0  0  0  0  0  0  0  0  0  0  0  0
    1.2111   -0.2557   -0.5189 C   0  0  0  0  0  0  0  0  0  0  0  0
    0.4026    0.1785    0.6789 C   0  0  0  0  0  0  0  0  0  0  0  0
   -0.7146    1.1208    0.2750 C   0  0  0  0  0  0  0  0  0  0  0  0
   -1.6651    0.4644   -0.7039 C   0  0  0  0  0  0  0  0  0  0  0  0
   -2.3016   -0.7702   -0.0997 C   0  0  0  0  0  0  0  0  0  0  0  0
   -2.7019    1.3587   -0.9697 O   0  0  0  0  0  0  0  0  0  0  0  0
    2.7278   -0.2980    1.6985 H   0  0  0  0  0  0  0  0  0  0  0  0
    3.8891   -1.4161    0.9437 H   0  0  0  0  0  0  0  0  0  0  0  0
    3.7441    0.2143    0.2715 H   0  0  0  0  0  0  0  0  0  0  0  0
    0.5411   -0.8216   -1.2196 H   0  0  0  0  0  0  0  0  0  0  0  0
    1.5616    0.6343   -1.0755 H   0  0  0  0  0  0  0  0  0  0  0  0
    1.0925    0.8051    1.3186 H   0  0  0  0  0  0  0  0  0  0  0  0
    0.0645   -0.6584    1.2849 H   0  0  0  0  0  0  0  0  0  0  0  0
   -0.2848    2.0253   -0.1843 H   0  0  0  0  0  0  0  0  0  0  0  0
   -1.2858    1.3971    1.1837 H   0  0  0  0  0  0  0  0  0  0  0  0
   -1.1857    0.2404   -1.6696 H   0  0  0  0  0  0  0  0  0  0  0  0
   -2.9961   -0.3969    0.6964 H   0  0  0  0  0  0  0  0  0  0  0  0
   -2.9114   -1.2453   -0.8817 H   0  0  0  0  0  0  0  0  0  0  0  0
   -1.5509   -1.4705    0.3211 H   0  0  0  0  0  0  0  0  0  0  0  0
   -2.9957    1.3037   -1.9127 H   0  0  0  0  0  0  0  0  0  0  0  0
  1  2  1  0
  2  3  1  0
  3  4  1  0
  4  5  1  0
  5  6  1  0
  6  7  1  0
  6  8  1  0
  1  9  1  0
  1 10  1  0
  1 11  1  0
  3 12  1  0
  3 13  1  0
  4 14  1  0
  4 15  1  0
  5 16  1  0
  5 17  1  0
  6 18  1  0
  7 19  1  0
  7 20  1  0
  7 21  1  0
  8 22  1  0
M  END
