
     RDKit          3D

 21 21  0  0  0  0  0  0  0  0999 V2000
    2.6620    1.0562    0.2015 C   0  0  0  0  0  0  0  0  0  0  0  0
    2.3991    0.2395   -0.8655 O   0  0  0  0  0  0  0  0  0  0  0  0
    1.5503   -0.8098   -0.6459 C   0  0  0  0  0  0  0  0  0  0  0  0
    0.1466   -0.4354   -0.3924 C   0  0  0  0  0  0  0  0  0  0  0  0
   -0.4547    0.7326   -0.3493 C   0  0  0  0  0  0  0  0  0  0  0  0
   -1.9047    0.5231   -0.0452 C   0  0  0  0  0  0  0  0  0  0  0  0
   -2.4550    1.5707    0.6612 O   0  0  0  0  0  0  0  0  0  0  0  0
   -1.8228   -0.7340    0.7960 C   0  0  0  0  0  0  0  0  0  0  0  0
   -0.8806   -1.5290   -0.1175 C   0  0  0  0  0  0  0  0  0  0  0  0
    3.1428    0.3901    0.9832 H   0  0  0  0  0  0  0  0  0  0  0  0
    1.8448    1.6183    0.6334 H   0  0  0  0  0  0  0  0  0  0  0  0
    3.4275    1.8321   -0.1076 H   0  0  0  0  0  0  0  0  0  0  0  0
    1.9255   -1.4145    0.2383 H   0  0  0  0  0  0  0  0  0  0  0  0
    1.5277   -1.4863   -1.5552 H   0  0  0  0  0  0  0  0  0  0  0  0
   -0.0613    1.7156   -0.5115 H   0  0  0  0  0  0  0  0  0  0  0  0
   -2.4210    0.2699   -0.9691 H   0  0  0  0  0  0  0  0  0  0  0  0
   -2.7443    2.2991    0.0913 H   0  0  0  0  0  0  0  0  0  0  0  0
   -2.7862   -1.2356    0.9199 H   0  0  0  0  0  0  0  0  0  0  0  0
   -1.3037   -0.4850    1.7238 H   0  0  0  0  0  0  0  0  0  0  0  0
   -0.4379   -2.3814    0.3881 H   0  0  0  0  0  0  0  0  0  0  0  0
   -1.3543   -1.7361   -1.0775 H   0  0  0  0  0  0  0  0  0  0  0  0
  1  2  1  0
  2  3  1  0
  3  4  1  0
  4  5  2  0
  5  6  1  0
  6  7  1  0
  6  8  1  0
  8  9  1  0
  9  4  1  0
  1 10  1  0
  1 11  1  0
  1 12  1  0
  3 13  1  0
  3 14  1  0
  5 15  1  0
  6 16  1  0
  7 17  1  0
  8 18  1  0
  8 19  1  0
  9 20  1  0
  9 21  1  0
M  END
