
     RDKit          3D

 19 20  0  0  0  0  0  0  0  0999 V2000
    2.5096    0.0068    0.6514 C   0  0  0  0  0  0  0  0  0  0  0  0
    2.1583    1.0172   -0.1959 O   0  0  0  0  0  0  0  0  0  0  0  0
    1.1150    0.7765   -1.0108 C   0  0  0  0  0  0  0  0  0  0  0  0
   -0.1235    0.4219   -0.3243 C   0  0  0  0  0  0  0  0  0  0  0  0
   -1.3163    1.1031   -0.3671 C   0  0  0  0  0  0  0  0  0  0  0  0
   -2.1602    0.1852    0.4586 C   0  0  0  0  0  0  0  0  0  0  0  0
   -1.8314   -1.1462   -0.1486 C   0  0  0  0  0  0  0  0  0  0  0  0
   -0.5133   -0.7264    0.5208 C   0  0  0  0  0  0  0  0  0  0  0  0
   -1.2851   -0.1511    1.4928 O   0  0  0  0  0  0  0  0  0  0  0  0
    3.4394    0.2595    1.2358 H   0  0  0  0  0  0  0  0  0  0  0  0
    2.5548   -0.9437    0.1133 H   0  0  0  0  0  0  0  0  0  0  0  0
    1.7101   -0.1261    1.4621 H   0  0  0  0  0  0  0  0  0  0  0  0
    0.9468    1.6046   -1.7553 H   0  0  0  0  0  0  0  0  0  0  0  0
    1.3191   -0.1086   -1.7112 H   0  0  0  0  0  0  0  0  0  0  0  0
   -1.5352    2.0277   -0.8638 H   0  0  0  0  0  0  0  0  0  0  0  0
   -3.1555    0.4519    0.6770 H   0  0  0  0  0  0  0  0  0  0  0  0
   -2.2936   -2.0296    0.2798 H   0  0  0  0  0  0  0  0  0  0  0  0
   -1.7004   -1.0838   -1.2315 H   0  0  0  0  0  0  0  0  0  0  0  0
    0.1614   -1.5386    0.7167 H   0  0  0  0  0  0  0  0  0  0  0  0
  1  2  1  0
  2  3  1  0
  3  4  1  0
  4  5  2  0
  5  6  1  0
  6  7  1  0
  7  8  1  0
  8  9  1  0
  8  4  1  0
  9  6  1  0
  1 10  1  0
  1 11  1  0
  1 12  1  0
  3 13  1  0
  3 14  1  0
  5 15  1  0
  6 16  1  0
  7 17  1  0
  7 18  1  0
  8 19  1  0
M  END
