
     RDKit          3D

 22 21  0  0  0  0  0  0  0  0999 V2000
   -2.7930    1.2894   -0.1636 C   0  0  0  0  0  0  0  0  0  0  0  0
   -1.6849    0.5317   -0.5346 O   0  0  0  0  0  0  0  0  0  0  0  0
   -1.6903   -0.6792    0.0989 C   0  0  0  0  0  0  0  0  0  0  0  0
   -0.5458   -1.5900   -0.2177 C   0  0  0  0  0  0  0  0  0  0  0  0
    0.8061   -1.0720    0.1213 C   0  0  0  0  0  0  0  0  0  0  0  0
    1.2018    0.1955   -0.5651 C   0  0  0  0  0  0  0  0  0  0  0  0
    2.6078    0.6291   -0.1562 C   0  0  0  0  0  0  0  0  0  0  0  0
    2.9716    1.8068   -0.7961 O   0  0  0  0  0  0  0  0  0  0  0  0
   -2.7646    2.2521   -0.6837 H   0  0  0  0  0  0  0  0  0  0  0  0
   -2.7869    1.3734    0.9466 H   0  0  0  0  0  0  0  0  0  0  0  0
   -3.7500    0.7912   -0.4927 H   0  0  0  0  0  0  0  0  0  0  0  0
   -2.6273   -1.2561   -0.1511 H   0  0  0  0  0  0  0  0  0  0  0  0
   -1.7320   -0.5498    1.2050 H   0  0  0  0  0  0  0  0  0  0  0  0
   -0.7319   -2.5246    0.3923 H   0  0  0  0  0  0  0  0  0  0  0  0
   -0.6175   -1.9626   -1.2729 H   0  0  0  0  0  0  0  0  0  0  0  0
    0.9071   -1.0079    1.2338 H   0  0  0  0  0  0  0  0  0  0  0  0
    1.5634   -1.8488   -0.1958 H   0  0  0  0  0  0  0  0  0  0  0  0
    0.5348    1.0236   -0.2379 H   0  0  0  0  0  0  0  0  0  0  0  0
    1.2306    0.0593   -1.6642 H   0  0  0  0  0  0  0  0  0  0  0  0
    2.5684    0.8390    0.9292 H   0  0  0  0  0  0  0  0  0  0  0  0
    3.3591   -0.1379   -0.4317 H   0  0  0  0  0  0  0  0  0  0  0  0
    3.9735    1.8379   -0.7769 H   0  0  0  0  0  0  0  0  0  0  0  0
  1  2  1  0
  2  3  1  0
  3  4  1  0
  4  5  1  0
  5  6  1  0
  6  7  1  0
  7  8  1  0
  1  9  1  0
  1 10  1  0
  1 11  1  0
  3 12  1  0
  3 13  1  0
  4 14  1  0
  4 15  1  0
  5 16  1  0
  5 17  1  0
  6 18  1  0
  6 19  1  0
  7 20  1  0
  7 21  1  0
  8 22  1  0
M  END
