
     RDKit          3D

 23 23  0  0  0  0  0  0  0  0999 V2000
    2.5895    1.6358   -0.0633 C   0  0  0  0  0  0  0  0  0  0  0  0
    1.2308    1.2700   -0.1073 O   0  0  0  0  0  0  0  0  0  0  0  0
    1.1821   -0.1012   -0.0107 C   0  0  0  0  0  0  0  0  0  0  0  0
   -0.2024   -0.6688   -0.0415 C   0  0  0  0  0  0  0  0  0  0  0  0
   -0.1319   -2.1911    0.0721 C   0  0  0  0  0  0  0  0  0  0  0  0
   -1.1061   -0.2022   -1.1328 C   0  0  0  0  0  0  0  0  0  0  0  0
   -2.0135    0.4377   -0.0982 C   0  0  0  0  0  0  0  0  0  0  0  0
   -1.9653    1.8267   -0.1240 O   0  0  0  0  0  0  0  0  0  0  0  0
   -1.1604   -0.1361    0.9854 C   0  0  0  0  0  0  0  0  0  0  0  0
    2.7161    2.7394   -0.1365 H   0  0  0  0  0  0  0  0  0  0  0  0
    2.9454    1.3546    0.9577 H   0  0  0  0  0  0  0  0  0  0  0  0
    3.1517    1.1124   -0.8661 H   0  0  0  0  0  0  0  0  0  0  0  0
    1.6525   -0.4311    0.9461 H   0  0  0  0  0  0  0  0  0  0  0  0
    1.7607   -0.5837   -0.8254 H   0  0  0  0  0  0  0  0  0  0  0  0
   -1.1320   -2.6293    0.0851 H   0  0  0  0  0  0  0  0  0  0  0  0
    0.4215   -2.3783    1.0371 H   0  0  0  0  0  0  0  0  0  0  0  0
    0.5048   -2.5257   -0.7739 H   0  0  0  0  0  0  0  0  0  0  0  0
   -1.5896   -1.0366   -1.6925 H   0  0  0  0  0  0  0  0  0  0  0  0
   -0.7312    0.5434   -1.8329 H   0  0  0  0  0  0  0  0  0  0  0  0
   -3.0492    0.0560   -0.1460 H   0  0  0  0  0  0  0  0  0  0  0  0
   -2.5879    2.1903    0.5391 H   0  0  0  0  0  0  0  0  0  0  0  0
   -1.7200   -0.9023    1.5531 H   0  0  0  0  0  0  0  0  0  0  0  0
   -0.7655    0.6203    1.6755 H   0  0  0  0  0  0  0  0  0  0  0  0
  1  2  1  0
  2  3  1  0
  3  4  1  0
  4  5  1  0
  4  6  1  0
  6  7  1  0
  7  8  1  0
  7  9  1  0
  9  4  1  0
  1 10  1  0
  1 11  1  0
  1 12  1  0
  3 13  1  0
  3 14  1  0
  5 15  1  0
  5 16  1  0
  5 17  1  0
  6 18  1  0
  6 19  1  0
  7 20  1  0
  8 21  1  0
  9 22  1  0
  9 23  1  0
M  END
