
     RDKit          3D

 21 20  0  0  0  0  0  0  0  0999 V2000
   -2.4927    0.9657   -1.3630 C   0  0  0  0  0  0  0  0  0  0  0  0
   -1.5190   -0.0010   -1.1532 O   0  0  0  0  0  0  0  0  0  0  0  0
   -1.2348   -0.0405    0.2126 C   0  0  0  0  0  0  0  0  0  0  0  0
   -0.1652   -1.0903    0.5088 C   0  0  0  0  0  0  0  0  0  0  0  0
    0.0472   -1.0271    2.0277 C   0  0  0  0  0  0  0  0  0  0  0  0
    1.0727   -0.6899   -0.1971 C   0  0  0  0  0  0  0  0  0  0  0  0
    1.5492   -1.4731   -1.0505 O   0  0  0  0  0  0  0  0  0  0  0  0
    1.7371    0.5015    0.0300 O   0  0  0  0  0  0  0  0  0  0  0  0
    2.9106    0.7941   -0.6931 C   0  0  0  0  0  0  0  0  0  0  0  0
   -2.1335    1.9794   -1.0251 H   0  0  0  0  0  0  0  0  0  0  0  0
   -3.3836    0.7582   -0.7337 H   0  0  0  0  0  0  0  0  0  0  0  0
   -2.7763    1.0370   -2.4334 H   0  0  0  0  0  0  0  0  0  0  0  0
   -2.1794   -0.2786    0.7457 H   0  0  0  0  0  0  0  0  0  0  0  0
   -0.8460    0.9218    0.5870 H   0  0  0  0  0  0  0  0  0  0  0  0
   -0.4978   -2.0836    0.1965 H   0  0  0  0  0  0  0  0  0  0  0  0
    0.3781    0.0202    2.2290 H   0  0  0  0  0  0  0  0  0  0  0  0
    0.7652   -1.7800    2.3728 H   0  0  0  0  0  0  0  0  0  0  0  0
   -0.9596   -1.1412    2.4687 H   0  0  0  0  0  0  0  0  0  0  0  0
    2.7332    0.6026   -1.7734 H   0  0  0  0  0  0  0  0  0  0  0  0
    3.2192    1.8454   -0.6078 H   0  0  0  0  0  0  0  0  0  0  0  0
    3.7754    0.1795   -0.3484 H   0  0  0  0  0  0  0  0  0  0  0  0
  1  2  1  0
  2  3  1  0
  3  4  1  0
  4  5  1  0
  4  6  1  0
  6  7  2  0
  6  8  1  0
  8  9  1  0
  1 10  1  0
  1 11  1  0
  1 12  1  0
  3 13  1  0
  3 14  1  0
  4 15  1  0
  5 16  1  0
  5 17  1  0
  5 18  1  0
  9 19  1  0
  9 20  1  0
  9 21  1  0
M  END
