
     RDKit          3D

 19 18  0  0  0  0  0  0  0  0999 V2000
    3.7403   -0.1574   -0.0127 C   0  0  0  0  0  0  0  0  0  0  0  0
    2.4974    0.1775    0.4629 O   0  0  0  0  0  0  0  0  0  0  0  0
    1.4554   -0.2305   -0.3269 C   0  0  0  0  0  0  0  0  0  0  0  0
    0.1628    0.1786    0.2727 C   0  0  0  0  0  0  0  0  0  0  0  0
    0.1890    0.7917    1.3328 O   0  0  0  0  0  0  0  0  0  0  0  0
   -1.1417   -0.1228   -0.3550 C   0  0  0  0  0  0  0  0  0  0  0  0
   -2.2419    0.4152    0.4829 C   0  0  0  0  0  0  0  0  0  0  0  0
   -3.6496    0.2231    0.0355 C   0  0  0  0  0  0  0  0  0  0  0  0
   -1.9604    0.9992    1.5138 O   0  0  0  0  0  0  0  0  0  0  0  0
    4.4896    0.2368    0.7292 H   0  0  0  0  0  0  0  0  0  0  0  0
    3.8035   -1.2755   -0.0630 H   0  0  0  0  0  0  0  0  0  0  0  0
    3.9959    0.2878   -0.9879 H   0  0  0  0  0  0  0  0  0  0  0  0
    1.5414    0.1036   -1.3790 H   0  0  0  0  0  0  0  0  0  0  0  0
    1.4737   -1.3568   -0.3375 H   0  0  0  0  0  0  0  0  0  0  0  0
   -1.1766    0.4139   -1.3421 H   0  0  0  0  0  0  0  0  0  0  0  0
   -1.2835   -1.2200   -0.5468 H   0  0  0  0  0  0  0  0  0  0  0  0
   -3.7428    0.5896   -1.0151 H   0  0  0  0  0  0  0  0  0  0  0  0
   -4.2916    0.8096    0.7215 H   0  0  0  0  0  0  0  0  0  0  0  0
   -3.8608   -0.8635    0.1109 H   0  0  0  0  0  0  0  0  0  0  0  0
  1  2  1  0
  2  3  1  0
  3  4  1  0
  4  5  2  0
  4  6  1  0
  6  7  1  0
  7  8  1  0
  7  9  2  0
  1 10  1  0
  1 11  1  0
  1 12  1  0
  3 13  1  0
  3 14  1  0
  6 15  1  0
  6 16  1  0
  8 17  1  0
  8 18  1  0
  8 19  1  0
M  END
