
     RDKit          3D

 18 18  0  0  0  0  0  0  0  0999 V2000
    2.6713   -0.6197   -0.6087 C   0  0  0  0  0  0  0  0  0  0  0  0
    1.3340   -0.4519   -1.0516 O   0  0  0  0  0  0  0  0  0  0  0  0
    0.6418   -0.0755    0.0805 C   0  0  0  0  0  0  0  0  0  0  0  0
   -0.8124    0.0755    0.0231 C   0  0  0  0  0  0  0  0  0  0  0  0
   -1.5020   -1.1756   -0.4562 C   0  0  0  0  0  0  0  0  0  0  0  0
   -2.3548   -1.7251    0.2467 O   0  0  0  0  0  0  0  0  0  0  0  0
   -1.5008    0.7566    1.1516 C   0  0  0  0  0  0  0  0  0  0  0  0
   -1.4966    1.3261   -0.2054 C   0  0  0  0  0  0  0  0  0  0  0  0
    3.3501   -0.9905   -1.3858 H   0  0  0  0  0  0  0  0  0  0  0  0
    3.0212    0.4413   -0.3634 H   0  0  0  0  0  0  0  0  0  0  0  0
    2.6989   -1.1609    0.3422 H   0  0  0  0  0  0  0  0  0  0  0  0
    0.8874   -0.7853    0.9018 H   0  0  0  0  0  0  0  0  0  0  0  0
    1.0987    0.9247    0.4110 H   0  0  0  0  0  0  0  0  0  0  0  0
   -1.2779   -1.6365   -1.4349 H   0  0  0  0  0  0  0  0  0  0  0  0
   -2.4395    0.2761    1.5835 H   0  0  0  0  0  0  0  0  0  0  0  0
   -0.9198    1.2223    1.9521 H   0  0  0  0  0  0  0  0  0  0  0  0
   -2.4428    1.2995   -0.8315 H   0  0  0  0  0  0  0  0  0  0  0  0
   -0.9569    2.2988   -0.3550 H   0  0  0  0  0  0  0  0  0  0  0  0
  1  2  1  0
  2  3  1  0
  3  4  1  0
  4  5  1  0
  5  6  2  0
  4  7  1  0
  7  8  1  0
  8  4  1  0
  1  9  1  0
  1 10  1  0
  1 11  1  0
  3 12  1  0
  3 13  1  0
  5 14  1  0
  7 15  1  0
  7 16  1  0
  8 17  1  0
  8 18  1  0
M  END
