
     RDKit          3D

 19 21  0  0  0  0  0  0  0  0999 V2000
    2.5766    0.2087   -0.6492 C   0  0  0  0  0  0  0  0  0  0  0  0
    1.9908   -1.0086   -0.3069 O   0  0  0  0  0  0  0  0  0  0  0  0
    1.1663   -0.8452    0.7813 C   0  0  0  0  0  0  0  0  0  0  0  0
    0.0465    0.1248    0.5674 C   0  0  0  0  0  0  0  0  0  0  0  0
   -0.9250   -0.1229   -0.4860 C   0  0  0  0  0  0  0  0  0  0  0  0
   -1.9054    0.9956   -0.7264 C   0  0  0  0  0  0  0  0  0  0  0  0
   -3.1860    1.1438   -0.2613 O   0  0  0  0  0  0  0  0  0  0  0  0
   -2.6234    0.1221    0.3043 C   0  0  0  0  0  0  0  0  0  0  0  0
   -1.3437   -0.0888    1.0021 C   0  0  0  0  0  0  0  0  0  0  0  0
    3.1815    0.5980    0.2092 H   0  0  0  0  0  0  0  0  0  0  0  0
    3.2398    0.0846   -1.5365 H   0  0  0  0  0  0  0  0  0  0  0  0
    1.7574    0.9448   -0.8386 H   0  0  0  0  0  0  0  0  0  0  0  0
    1.7495   -0.4969    1.6742 H   0  0  0  0  0  0  0  0  0  0  0  0
    0.7509   -1.8477    1.0761 H   0  0  0  0  0  0  0  0  0  0  0  0
    0.3950    1.1977    0.6593 H   0  0  0  0  0  0  0  0  0  0  0  0
   -1.0692   -1.0981   -0.9768 H   0  0  0  0  0  0  0  0  0  0  0  0
   -1.4515    1.9815   -0.4965 H   0  0  0  0  0  0  0  0  0  0  0  0
   -2.9811   -0.8341   -0.2201 H   0  0  0  0  0  0  0  0  0  0  0  0
   -1.3690   -1.0594    1.5901 H   0  0  0  0  0  0  0  0  0  0  0  0
  1  2  1  0
  2  3  1  0
  3  4  1  0
  4  5  1  0
  5  6  1  0
  6  7  1  0
  7  8  1  0
  8  9  1  0
  9  4  1  0
  9  5  1  0
  8  6  1  0
  1 10  1  0
  1 11  1  0
  1 12  1  0
  3 13  1  0
  3 14  1  0
  4 15  1  0
  5 16  1  0
  6 17  1  0
  8 18  1  0
  9 19  1  0
M  END
