
     RDKit          3D

 21 22  0  0  0  0  0  0  0  0999 V2000
    3.2942    0.4868   -0.2179 C   0  0  0  0  0  0  0  0  0  0  0  0
    2.1288   -0.0518   -0.7406 O   0  0  0  0  0  0  0  0  0  0  0  0
    1.1714   -0.1865    0.2713 C   0  0  0  0  0  0  0  0  0  0  0  0
   -0.0992   -0.7757   -0.3081 C   0  0  0  0  0  0  0  0  0  0  0  0
   -0.7842    0.0299   -1.4280 C   0  0  0  0  0  0  0  0  0  0  0  0
   -1.3887   -0.1367   -0.1430 C   0  0  0  0  0  0  0  0  0  0  0  0
   -1.7365    0.8909    0.8511 C   0  0  0  0  0  0  0  0  0  0  0  0
   -3.0611    0.3907    0.8284 O   0  0  0  0  0  0  0  0  0  0  0  0
   -2.6602   -0.8044    0.1821 C   0  0  0  0  0  0  0  0  0  0  0  0
    4.0173    0.5694   -1.0714 H   0  0  0  0  0  0  0  0  0  0  0  0
    3.1093    1.4812    0.2508 H   0  0  0  0  0  0  0  0  0  0  0  0
    3.7818   -0.2008    0.5069 H   0  0  0  0  0  0  0  0  0  0  0  0
    1.5856   -0.9250    0.9870 H   0  0  0  0  0  0  0  0  0  0  0  0
    0.9662    0.7376    0.8081 H   0  0  0  0  0  0  0  0  0  0  0  0
   -0.1086   -1.8903   -0.4249 H   0  0  0  0  0  0  0  0  0  0  0  0
   -0.2733    0.9923   -1.7248 H   0  0  0  0  0  0  0  0  0  0  0  0
   -1.0970   -0.5646   -2.2933 H   0  0  0  0  0  0  0  0  0  0  0  0
   -1.2590    0.6879    1.8320 H   0  0  0  0  0  0  0  0  0  0  0  0
   -1.7486    1.9466    0.5448 H   0  0  0  0  0  0  0  0  0  0  0  0
   -3.3207   -1.1080   -0.6340 H   0  0  0  0  0  0  0  0  0  0  0  0
   -2.5176   -1.5696    1.0001 H   0  0  0  0  0  0  0  0  0  0  0  0
  1  2  1  0
  2  3  1  0
  3  4  1  0
  4  5  1  0
  5  6  1  0
  6  7  1  0
  7  8  1  0
  8  9  1  0
  6  4  1  0
  9  6  1  0
  1 10  1  0
  1 11  1  0
  1 12  1  0
  3 13  1  0
  3 14  1  0
  4 15  1  0
  5 16  1  0
  5 17  1  0
  7 18  1  0
  7 19  1  0
  9 20  1  0
  9 21  1  0
M  END
