
     RDKit          3D

 19 19  0  0  0  0  0  0  0  0999 V2000
    3.0910   -0.2033   -0.1704 C   0  0  0  0  0  0  0  0  0  0  0  0
    1.8572   -0.4807   -0.7597 O   0  0  0  0  0  0  0  0  0  0  0  0
    0.8844   -0.2052    0.1873 C   0  0  0  0  0  0  0  0  0  0  0  0
   -0.5138   -0.4842   -0.3793 C   0  0  0  0  0  0  0  0  0  0  0  0
   -1.5428   -0.1755    0.6719 C   0  0  0  0  0  0  0  0  0  0  0  0
   -2.6588    0.5556   -0.0785 C   0  0  0  0  0  0  0  0  0  0  0  0
   -1.9110    1.2966   -1.0183 O   0  0  0  0  0  0  0  0  0  0  0  0
   -0.8427    0.4911   -1.4500 C   0  0  0  0  0  0  0  0  0  0  0  0
   -0.3109    0.6444   -2.5821 O   0  0  0  0  0  0  0  0  0  0  0  0
    3.1607   -0.8833    0.7280 H   0  0  0  0  0  0  0  0  0  0  0  0
    3.9362   -0.3146   -0.8508 H   0  0  0  0  0  0  0  0  0  0  0  0
    2.9954    0.8447    0.2385 H   0  0  0  0  0  0  0  0  0  0  0  0
    1.0038   -0.9548    1.0167 H   0  0  0  0  0  0  0  0  0  0  0  0
    0.9845    0.8244    0.5244 H   0  0  0  0  0  0  0  0  0  0  0  0
   -0.5532   -1.5214   -0.7266 H   0  0  0  0  0  0  0  0  0  0  0  0
   -1.9092   -1.0466    1.2136 H   0  0  0  0  0  0  0  0  0  0  0  0
   -1.1060    0.5995    1.3639 H   0  0  0  0  0  0  0  0  0  0  0  0
   -3.3567   -0.1524   -0.5513 H   0  0  0  0  0  0  0  0  0  0  0  0
   -3.2081    1.1655    0.6393 H   0  0  0  0  0  0  0  0  0  0  0  0
  1  2  1  0
  2  3  1  0
  3  4  1  0
  4  5  1  0
  5  6  1  0
  6  7  1  0
  7  8  1  0
  8  9  2  0
  8  4  1  0
  1 10  1  0
  1 11  1  0
  1 12  1  0
  3 13  1  0
  3 14  1  0
  4 15  1  0
  5 16  1  0
  5 17  1  0
  6 18  1  0
  6 19  1  0
M  END
