
     RDKit          3D

 21 22  0  0  0  0  0  0  0  0999 V2000
    2.9854   -0.5789    0.1916 C   0  0  0  0  0  0  0  0  0  0  0  0
    2.4166    0.3828    1.0076 O   0  0  0  0  0  0  0  0  0  0  0  0
    1.3186    0.9886    0.4598 C   0  0  0  0  0  0  0  0  0  0  0  0
    0.1763    0.0921    0.1379 C   0  0  0  0  0  0  0  0  0  0  0  0
   -1.0250    0.8008   -0.4667 C   0  0  0  0  0  0  0  0  0  0  0  0
   -1.8613   -0.0575   -1.3499 C   0  0  0  0  0  0  0  0  0  0  0  0
   -1.9721   -1.2721   -0.6765 O   0  0  0  0  0  0  0  0  0  0  0  0
   -2.1140   -0.9226    0.6859 C   0  0  0  0  0  0  0  0  0  0  0  0
   -1.0808    0.1305    0.9288 C   0  0  0  0  0  0  0  0  0  0  0  0
    3.3186   -0.1489   -0.7945 H   0  0  0  0  0  0  0  0  0  0  0  0
    3.9217   -0.9099    0.7169 H   0  0  0  0  0  0  0  0  0  0  0  0
    2.3415   -1.4607    0.0949 H   0  0  0  0  0  0  0  0  0  0  0  0
    1.0072    1.8630    1.0935 H   0  0  0  0  0  0  0  0  0  0  0  0
    1.6278    1.4756   -0.5133 H   0  0  0  0  0  0  0  0  0  0  0  0
    0.4504   -0.8945   -0.2819 H   0  0  0  0  0  0  0  0  0  0  0  0
   -1.0560    1.8886   -0.5097 H   0  0  0  0  0  0  0  0  0  0  0  0
   -1.2625   -0.2775   -2.2739 H   0  0  0  0  0  0  0  0  0  0  0  0
   -2.8259    0.3659   -1.6441 H   0  0  0  0  0  0  0  0  0  0  0  0
   -2.0364   -1.8096    1.3081 H   0  0  0  0  0  0  0  0  0  0  0  0
   -3.1362   -0.4465    0.7404 H   0  0  0  0  0  0  0  0  0  0  0  0
   -1.1941    0.7910    1.7921 H   0  0  0  0  0  0  0  0  0  0  0  0
  1  2  1  0
  2  3  1  0
  3  4  1  0
  4  5  1  0
  5  6  1  0
  6  7  1  0
  7  8  1  0
  8  9  1  0
  9  4  1  0
  9  5  1  0
  1 10  1  0
  1 11  1  0
  1 12  1  0
  3 13  1  0
  3 14  1  0
  4 15  1  0
  5 16  1  0
  6 17  1  0
  6 18  1  0
  8 19  1  0
  8 20  1  0
  9 21  1  0
M  END
