
     RDKit          3D

 23 23  0  0  0  0  0  0  0  0999 V2000
    3.3354    0.3850   -0.4395 C   0  0  0  0  0  0  0  0  0  0  0  0
    2.9146   -0.8847   -0.7393 O   0  0  0  0  0  0  0  0  0  0  0  0
    1.7798   -1.2987   -0.0605 C   0  0  0  0  0  0  0  0  0  0  0  0
    0.5697   -0.4437   -0.3198 C   0  0  0  0  0  0  0  0  0  0  0  0
   -0.5428   -0.9213    0.3977 O   0  0  0  0  0  0  0  0  0  0  0  0
   -1.6189   -0.0962    0.1182 C   0  0  0  0  0  0  0  0  0  0  0  0
   -1.9857   -0.0558   -1.3514 C   0  0  0  0  0  0  0  0  0  0  0  0
   -1.6083    1.2047    0.8893 C   0  0  0  0  0  0  0  0  0  0  0  0
   -2.6843    0.1820    1.0898 C   0  0  0  0  0  0  0  0  0  0  0  0
    2.6328    1.1941   -0.6458 H   0  0  0  0  0  0  0  0  0  0  0  0
    4.2427    0.5722   -1.0824 H   0  0  0  0  0  0  0  0  0  0  0  0
    3.7215    0.4512    0.6049 H   0  0  0  0  0  0  0  0  0  0  0  0
    1.5984   -2.3595   -0.3869 H   0  0  0  0  0  0  0  0  0  0  0  0
    1.9828   -1.3912    1.0450 H   0  0  0  0  0  0  0  0  0  0  0  0
    0.8059    0.5972   -0.0218 H   0  0  0  0  0  0  0  0  0  0  0  0
    0.3468   -0.5037   -1.4050 H   0  0  0  0  0  0  0  0  0  0  0  0
   -1.9968   -1.1187   -1.7018 H   0  0  0  0  0  0  0  0  0  0  0  0
   -1.3345    0.5844   -1.9482 H   0  0  0  0  0  0  0  0  0  0  0  0
   -3.0282    0.3468   -1.4525 H   0  0  0  0  0  0  0  0  0  0  0  0
   -0.9038    1.3068    1.7405 H   0  0  0  0  0  0  0  0  0  0  0  0
   -1.7900    2.1007    0.2583 H   0  0  0  0  0  0  0  0  0  0  0  0
   -2.7561   -0.3244    2.0738 H   0  0  0  0  0  0  0  0  0  0  0  0
   -3.6811    0.4728    0.6814 H   0  0  0  0  0  0  0  0  0  0  0  0
  1  2  1  0
  2  3  1  0
  3  4  1  0
  4  5  1  0
  5  6  1  0
  6  7  1  0
  6  8  1  0
  8  9  1  0
  9  6  1  0
  1 10  1  0
  1 11  1  0
  1 12  1  0
  3 13  1  0
  3 14  1  0
  4 15  1  0
  4 16  1  0
  7 17  1  0
  7 18  1  0
  7 19  1  0
  8 20  1  0
  8 21  1  0
  9 22  1  0
  9 23  1  0
M  END
