
     RDKit          3D

 23 22  0  0  0  0  0  0  0  0999 V2000
    2.9571    0.0069   -0.7911 C   0  0  0  0  0  0  0  0  0  0  0  0
    1.5872    0.2739   -0.8981 O   0  0  0  0  0  0  0  0  0  0  0  0
    0.9743   -0.2822    0.2122 C   0  0  0  0  0  0  0  0  0  0  0  0
   -0.5004   -0.0792    0.2420 C   0  0  0  0  0  0  0  0  0  0  0  0
   -1.0445   -0.7317    1.4998 C   0  0  0  0  0  0  0  0  0  0  0  0
   -1.2028   -0.7488   -0.9323 C   0  0  0  0  0  0  0  0  0  0  0  0
   -2.5755   -0.5238   -0.8487 O   0  0  0  0  0  0  0  0  0  0  0  0
   -0.9087    1.3623    0.2694 C   0  0  0  0  0  0  0  0  0  0  0  0
   -0.4567    2.0692   -0.8434 O   0  0  0  0  0  0  0  0  0  0  0  0
    3.5302    0.4145   -1.6366 H   0  0  0  0  0  0  0  0  0  0  0  0
    3.3144    0.4801    0.1502 H   0  0  0  0  0  0  0  0  0  0  0  0
    3.1696   -1.0775   -0.6912 H   0  0  0  0  0  0  0  0  0  0  0  0
    1.3963    0.0765    1.1637 H   0  0  0  0  0  0  0  0  0  0  0  0
    1.1636   -1.3810    0.1624 H   0  0  0  0  0  0  0  0  0  0  0  0
   -0.4723   -0.4502    2.3930 H   0  0  0  0  0  0  0  0  0  0  0  0
   -0.9393   -1.8328    1.3775 H   0  0  0  0  0  0  0  0  0  0  0  0
   -2.1349   -0.5210    1.5960 H   0  0  0  0  0  0  0  0  0  0  0  0
   -0.9465   -1.8123   -0.9584 H   0  0  0  0  0  0  0  0  0  0  0  0
   -0.8634   -0.1997   -1.8577 H   0  0  0  0  0  0  0  0  0  0  0  0
   -2.9639   -1.3484   -0.4295 H   0  0  0  0  0  0  0  0  0  0  0  0
   -2.0359    1.3806    0.2375 H   0  0  0  0  0  0  0  0  0  0  0  0
   -0.5968    1.8966    1.1782 H   0  0  0  0  0  0  0  0  0  0  0  0
   -0.4511    3.0280   -0.5948 H   0  0  0  0  0  0  0  0  0  0  0  0
  1  2  1  0
  2  3  1  0
  3  4  1  0
  4  5  1  0
  4  6  1  0
  6  7  1  0
  4  8  1  0
  8  9  1  0
  1 10  1  0
  1 11  1  0
  1 12  1  0
  3 13  1  0
  3 14  1  0
  5 15  1  0
  5 16  1  0
  5 17  1  0
  6 18  1  0
  6 19  1  0
  7 20  1  0
  8 21  1  0
  8 22  1  0
  9 23  1  0
M  END
