
     RDKit          3D

 22 21  0  0  0  0  0  0  0  0999 V2000
    2.3298    0.8360   -0.4735 C   0  0  0  0  0  0  0  0  0  0  0  0
    1.8337   -0.4164   -0.8261 O   0  0  0  0  0  0  0  0  0  0  0  0
    1.3745   -1.1618    0.2248 C   0  0  0  0  0  0  0  0  0  0  0  0
    0.2217   -0.4732    0.8788 C   0  0  0  0  0  0  0  0  0  0  0  0
   -0.9758   -0.2556    0.0357 C   0  0  0  0  0  0  0  0  0  0  0  0
   -2.0226    0.4590    0.8920 C   0  0  0  0  0  0  0  0  0  0  0  0
   -0.8111    0.5167   -1.2143 C   0  0  0  0  0  0  0  0  0  0  0  0
   -1.4893   -1.5133   -0.3056 O   0  0  0  0  0  0  0  0  0  0  0  0
    3.1903    0.6653    0.2277 H   0  0  0  0  0  0  0  0  0  0  0  0
    2.6982    1.2990   -1.4197 H   0  0  0  0  0  0  0  0  0  0  0  0
    1.5940    1.4966   -0.0152 H   0  0  0  0  0  0  0  0  0  0  0  0
    2.1691   -1.3051    1.0035 H   0  0  0  0  0  0  0  0  0  0  0  0
    1.0732   -2.1571   -0.1999 H   0  0  0  0  0  0  0  0  0  0  0  0
    0.5885    0.4364    1.3996 H   0  0  0  0  0  0  0  0  0  0  0  0
   -0.1099   -1.1485    1.7243 H   0  0  0  0  0  0  0  0  0  0  0  0
   -3.0059    0.1004    0.5505 H   0  0  0  0  0  0  0  0  0  0  0  0
   -1.8595    1.5450    0.7188 H   0  0  0  0  0  0  0  0  0  0  0  0
   -1.8243    0.2719    1.9537 H   0  0  0  0  0  0  0  0  0  0  0  0
   -0.1355    0.0624   -1.9656 H   0  0  0  0  0  0  0  0  0  0  0  0
   -1.8249    0.5503   -1.7106 H   0  0  0  0  0  0  0  0  0  0  0  0
   -0.5398    1.5820   -1.0855 H   0  0  0  0  0  0  0  0  0  0  0  0
   -2.4743   -1.3899   -0.3933 H   0  0  0  0  0  0  0  0  0  0  0  0
  1  2  1  0
  2  3  1  0
  3  4  1  0
  4  5  1  0
  5  6  1  0
  5  7  1  0
  5  8  1  0
  1  9  1  0
  1 10  1  0
  1 11  1  0
  3 12  1  0
  3 13  1  0
  4 14  1  0
  4 15  1  0
  6 16  1  0
  6 17  1  0
  6 18  1  0
  7 19  1  0
  7 20  1  0
  7 21  1  0
  8 22  1  0
M  END
