
     RDKit          3D

 21 22  0  0  0  0  0  0  0  0999 V2000
    3.5773    0.5437   -0.6060 C   0  0  0  0  0  0  0  0  0  0  0  0
    2.2814    0.6583   -1.1016 O   0  0  0  0  0  0  0  0  0  0  0  0
    1.3631    0.3045   -0.1320 C   0  0  0  0  0  0  0  0  0  0  0  0
   -0.0397    0.4297   -0.6719 C   0  0  0  0  0  0  0  0  0  0  0  0
   -1.0491    0.0533    0.3563 C   0  0  0  0  0  0  0  0  0  0  0  0
   -2.4648    0.1652   -0.1450 C   0  0  0  0  0  0  0  0  0  0  0  0
   -2.8527   -0.7601    0.9550 C   0  0  0  0  0  0  0  0  0  0  0  0
   -1.6261   -1.3142    0.2983 C   0  0  0  0  0  0  0  0  0  0  0  0
   -2.1977   -0.9514   -0.9154 O   0  0  0  0  0  0  0  0  0  0  0  0
    3.8113   -0.4849   -0.2844 H   0  0  0  0  0  0  0  0  0  0  0  0
    4.3043    0.9500   -1.3411 H   0  0  0  0  0  0  0  0  0  0  0  0
    3.6734    1.2126    0.2968 H   0  0  0  0  0  0  0  0  0  0  0  0
    1.4405    0.9075    0.7913 H   0  0  0  0  0  0  0  0  0  0  0  0
    1.4892   -0.7660    0.1772 H   0  0  0  0  0  0  0  0  0  0  0  0
   -0.1614   -0.1210   -1.6192 H   0  0  0  0  0  0  0  0  0  0  0  0
   -0.1907    1.5166   -0.9194 H   0  0  0  0  0  0  0  0  0  0  0  0
   -0.8390    0.4510    1.3458 H   0  0  0  0  0  0  0  0  0  0  0  0
   -2.9261    1.0116   -0.4356 H   0  0  0  0  0  0  0  0  0  0  0  0
   -2.6427   -0.2956    1.9464 H   0  0  0  0  0  0  0  0  0  0  0  0
   -3.7773   -1.3195    0.8588 H   0  0  0  0  0  0  0  0  0  0  0  0
   -1.1733   -2.1914    0.5065 H   0  0  0  0  0  0  0  0  0  0  0  0
  1  2  1  0
  2  3  1  0
  3  4  1  0
  4  5  1  0
  5  6  1  0
  6  7  1  0
  7  8  1  0
  8  9  1  0
  8  5  1  0
  9  6  1  0
  1 10  1  0
  1 11  1  0
  1 12  1  0
  3 13  1  0
  3 14  1  0
  4 15  1  0
  4 16  1  0
  5 17  1  0
  6 18  1  0
  7 19  1  0
  7 20  1  0
  8 21  1  0
M  END
