
     RDKit          3D

 21 22  0  0  0  0  0  0  0  0999 V2000
    3.1127    0.2912   -0.1214 C   0  0  0  0  0  0  0  0  0  0  0  0
    1.7835    0.3799    0.2329 O   0  0  0  0  0  0  0  0  0  0  0  0
    0.9992   -0.2446   -0.7403 C   0  0  0  0  0  0  0  0  0  0  0  0
   -0.4704   -0.1719   -0.3928 C   0  0  0  0  0  0  0  0  0  0  0  0
   -1.0055    1.2083   -0.2650 C   0  0  0  0  0  0  0  0  0  0  0  0
   -2.1061    1.1327    0.6846 C   0  0  0  0  0  0  0  0  0  0  0  0
   -2.1370   -0.0581    1.2566 C   0  0  0  0  0  0  0  0  0  0  0  0
   -1.0382   -0.9075    0.7321 C   0  0  0  0  0  0  0  0  0  0  0  0
   -1.3019   -1.3540   -0.7034 C   0  0  0  0  0  0  0  0  0  0  0  0
    3.4019   -0.7761   -0.2012 H   0  0  0  0  0  0  0  0  0  0  0  0
    3.3057    0.8263   -1.0514 H   0  0  0  0  0  0  0  0  0  0  0  0
    3.7016    0.7902    0.6912 H   0  0  0  0  0  0  0  0  0  0  0  0
    1.3025   -1.3079   -0.8288 H   0  0  0  0  0  0  0  0  0  0  0  0
    1.1281    0.2115   -1.7436 H   0  0  0  0  0  0  0  0  0  0  0  0
   -0.1914    1.8146    0.2386 H   0  0  0  0  0  0  0  0  0  0  0  0
   -1.2743    1.6752   -1.2375 H   0  0  0  0  0  0  0  0  0  0  0  0
   -2.8148    1.9646    0.8921 H   0  0  0  0  0  0  0  0  0  0  0  0
   -2.8566   -0.3769    2.0016 H   0  0  0  0  0  0  0  0  0  0  0  0
   -0.4690   -1.5629    1.3996 H   0  0  0  0  0  0  0  0  0  0  0  0
   -0.7503   -2.2605   -1.0242 H   0  0  0  0  0  0  0  0  0  0  0  0
   -2.3196   -1.2739   -1.1159 H   0  0  0  0  0  0  0  0  0  0  0  0
  1  2  1  0
  2  3  1  0
  3  4  1  0
  4  5  1  0
  5  6  1  0
  6  7  2  0
  7  8  1  0
  8  9  1  0
  8  4  1  0
  9  4  1  0
  1 10  1  0
  1 11  1  0
  1 12  1  0
  3 13  1  0
  3 14  1  0
  5 15  1  0
  5 16  1  0
  6 17  1  0
  7 18  1  0
  8 19  1  0
  9 20  1  0
  9 21  1  0
M  END
