
     RDKit          3D

 23 23  0  0  0  0  0  0  0  0999 V2000
    2.8947   -0.4613   -0.5798 C   0  0  0  0  0  0  0  0  0  0  0  0
    1.6971   -0.2147    0.0545 O   0  0  0  0  0  0  0  0  0  0  0  0
    0.7985    0.5013   -0.6928 C   0  0  0  0  0  0  0  0  0  0  0  0
   -0.4580    0.6738    0.1717 C   0  0  0  0  0  0  0  0  0  0  0  0
   -0.0141    1.3992    1.4347 C   0  0  0  0  0  0  0  0  0  0  0  0
   -1.4264    1.3940   -0.5145 O   0  0  0  0  0  0  0  0  0  0  0  0
   -1.0061   -0.6765    0.5745 C   0  0  0  0  0  0  0  0  0  0  0  0
   -1.4301   -1.6360   -0.5023 C   0  0  0  0  0  0  0  0  0  0  0  0
   -2.4651   -0.8894    0.2851 C   0  0  0  0  0  0  0  0  0  0  0  0
    3.5302   -1.0469    0.1315 H   0  0  0  0  0  0  0  0  0  0  0  0
    3.4322    0.4611   -0.8827 H   0  0  0  0  0  0  0  0  0  0  0  0
    2.6977   -1.0947   -1.4769 H   0  0  0  0  0  0  0  0  0  0  0  0
    1.1723    1.4776   -1.0412 H   0  0  0  0  0  0  0  0  0  0  0  0
    0.4679   -0.0466   -1.6156 H   0  0  0  0  0  0  0  0  0  0  0  0
    1.0936    1.2938    1.5747 H   0  0  0  0  0  0  0  0  0  0  0  0
   -0.1920    2.4942    1.3529 H   0  0  0  0  0  0  0  0  0  0  0  0
   -0.5213    0.9511    2.3173 H   0  0  0  0  0  0  0  0  0  0  0  0
   -1.0588    2.1839   -0.9637 H   0  0  0  0  0  0  0  0  0  0  0  0
   -0.5614   -1.1741    1.4620 H   0  0  0  0  0  0  0  0  0  0  0  0
   -1.3825   -2.7095   -0.3194 H   0  0  0  0  0  0  0  0  0  0  0  0
   -1.1917   -1.3041   -1.5293 H   0  0  0  0  0  0  0  0  0  0  0  0
   -3.0583   -1.4456    1.0323 H   0  0  0  0  0  0  0  0  0  0  0  0
   -3.0185   -0.1306   -0.2729 H   0  0  0  0  0  0  0  0  0  0  0  0
  1  2  1  0
  2  3  1  0
  3  4  1  0
  4  5  1  0
  4  6  1  0
  4  7  1  0
  7  8  1  0
  8  9  1  0
  9  7  1  0
  1 10  1  0
  1 11  1  0
  1 12  1  0
  3 13  1  0
  3 14  1  0
  5 15  1  0
  5 16  1  0
  5 17  1  0
  6 18  1  0
  7 19  1  0
  8 20  1  0
  8 21  1  0
  9 22  1  0
  9 23  1  0
M  END
