
     RDKit          3D

 21 21  0  0  0  0  0  0  0  0999 V2000
    2.9398    0.0223    0.1820 C   0  0  0  0  0  0  0  0  0  0  0  0
    2.2668    0.1400   -0.9920 O   0  0  0  0  0  0  0  0  0  0  0  0
    0.9583    0.5198   -0.9811 C   0  0  0  0  0  0  0  0  0  0  0  0
    0.0977   -0.4140   -0.2205 C   0  0  0  0  0  0  0  0  0  0  0  0
    0.4588   -0.4594    1.1165 O   0  0  0  0  0  0  0  0  0  0  0  0
   -1.3728   -0.0793   -0.2860 C   0  0  0  0  0  0  0  0  0  0  0  0
   -2.2006   -0.7360    0.7922 C   0  0  0  0  0  0  0  0  0  0  0  0
   -1.7660    1.2295   -0.8503 C   0  0  0  0  0  0  0  0  0  0  0  0
   -2.0102    0.0285   -1.5115 O   0  0  0  0  0  0  0  0  0  0  0  0
    4.0090   -0.2515   -0.0830 H   0  0  0  0  0  0  0  0  0  0  0  0
    2.6057   -0.8984    0.7449 H   0  0  0  0  0  0  0  0  0  0  0  0
    2.8901    0.8614    0.8751 H   0  0  0  0  0  0  0  0  0  0  0  0
    0.6415    0.5553   -2.0720 H   0  0  0  0  0  0  0  0  0  0  0  0
    0.8624    1.5691   -0.5793 H   0  0  0  0  0  0  0  0  0  0  0  0
    0.2017   -1.4496   -0.6140 H   0  0  0  0  0  0  0  0  0  0  0  0
    0.2903   -1.3591    1.4835 H   0  0  0  0  0  0  0  0  0  0  0  0
   -3.2191   -0.2915    0.8392 H   0  0  0  0  0  0  0  0  0  0  0  0
   -1.6888   -0.7644    1.7691 H   0  0  0  0  0  0  0  0  0  0  0  0
   -2.3734   -1.8083    0.4825 H   0  0  0  0  0  0  0  0  0  0  0  0
   -0.9928    1.8444   -1.3515 H   0  0  0  0  0  0  0  0  0  0  0  0
   -2.5987    1.7416   -0.3241 H   0  0  0  0  0  0  0  0  0  0  0  0
  1  2  1  0
  2  3  1  0
  3  4  1  0
  4  5  1  0
  4  6  1  0
  6  7  1  0
  6  8  1  0
  8  9  1  0
  9  6  1  0
  1 10  1  0
  1 11  1  0
  1 12  1  0
  3 13  1  0
  3 14  1  0
  4 15  1  0
  5 16  1  0
  7 17  1  0
  7 18  1  0
  7 19  1  0
  8 20  1  0
  8 21  1  0
M  END
