
     RDKit          3D

 22 21  0  0  0  0  0  0  0  0999 V2000
    3.0855    0.6104    0.4486 C   0  0  0  0  0  0  0  0  0  0  0  0
    1.7661    0.7069    0.0366 O   0  0  0  0  0  0  0  0  0  0  0  0
    0.9650   -0.2715    0.5812 C   0  0  0  0  0  0  0  0  0  0  0  0
   -0.4487   -0.1510    0.1268 C   0  0  0  0  0  0  0  0  0  0  0  0
   -1.2166   -1.3482    0.6192 C   0  0  0  0  0  0  0  0  0  0  0  0
   -0.4417   -0.2837   -1.4036 C   0  0  0  0  0  0  0  0  0  0  0  0
   -0.9565    1.0503    0.4909 O   0  0  0  0  0  0  0  0  0  0  0  0
   -2.2549    1.3102    0.1416 C   0  0  0  0  0  0  0  0  0  0  0  0
    3.7265    1.3997    0.0079 H   0  0  0  0  0  0  0  0  0  0  0  0
    3.5431   -0.3772    0.1675 H   0  0  0  0  0  0  0  0  0  0  0  0
    3.2058    0.6911    1.5531 H   0  0  0  0  0  0  0  0  0  0  0  0
    1.0218   -0.1711    1.6891 H   0  0  0  0  0  0  0  0  0  0  0  0
    1.3733   -1.2857    0.3271 H   0  0  0  0  0  0  0  0  0  0  0  0
   -0.5381   -2.2366    0.5058 H   0  0  0  0  0  0  0  0  0  0  0  0
   -1.5297   -1.2818    1.6580 H   0  0  0  0  0  0  0  0  0  0  0  0
   -2.0507   -1.5323   -0.0948 H   0  0  0  0  0  0  0  0  0  0  0  0
   -0.0658   -1.3243   -1.6293 H   0  0  0  0  0  0  0  0  0  0  0  0
   -1.4918   -0.2779   -1.7638 H   0  0  0  0  0  0  0  0  0  0  0  0
    0.2042    0.4584   -1.8728 H   0  0  0  0  0  0  0  0  0  0  0  0
   -3.0010    0.6219    0.5449 H   0  0  0  0  0  0  0  0  0  0  0  0
   -2.3856    1.3681   -0.9562 H   0  0  0  0  0  0  0  0  0  0  0  0
   -2.5103    2.3244    0.5350 H   0  0  0  0  0  0  0  0  0  0  0  0
  1  2  1  0
  2  3  1  0
  3  4  1  0
  4  5  1  0
  4  6  1  0
  4  7  1  0
  7  8  1  0
  1  9  1  0
  1 10  1  0
  1 11  1  0
  3 12  1  0
  3 13  1  0
  5 14  1  0
  5 15  1  0
  5 16  1  0
  6 17  1  0
  6 18  1  0
  6 19  1  0
  8 20  1  0
  8 21  1  0
  8 22  1  0
M  END
