
     RDKit          3D

 25 25  0  0  0  0  0  0  0  0999 V2000
    3.1042    0.9837    0.5792 C   0  0  0  0  0  0  0  0  0  0  0  0
    1.7346    0.8896    0.3627 O   0  0  0  0  0  0  0  0  0  0  0  0
    1.3684   -0.4548    0.2263 C   0  0  0  0  0  0  0  0  0  0  0  0
   -0.1153   -0.4866   -0.0040 C   0  0  0  0  0  0  0  0  0  0  0  0
   -0.6681   -1.8661   -0.1713 C   0  0  0  0  0  0  0  0  0  0  0  0
   -0.4184    0.4135   -1.1875 C   0  0  0  0  0  0  0  0  0  0  0  0
   -1.8929    0.5767   -1.0775 C   0  0  0  0  0  0  0  0  0  0  0  0
   -2.1596    0.5947    0.3893 C   0  0  0  0  0  0  0  0  0  0  0  0
   -0.8904    0.1964    1.0989 C   0  0  0  0  0  0  0  0  0  0  0  0
    3.3723    2.0385    0.6833 H   0  0  0  0  0  0  0  0  0  0  0  0
    3.6973    0.4420   -0.1859 H   0  0  0  0  0  0  0  0  0  0  0  0
    3.2836    0.5183    1.5918 H   0  0  0  0  0  0  0  0  0  0  0  0
    1.8444   -0.8019   -0.7316 H   0  0  0  0  0  0  0  0  0  0  0  0
    1.7012   -1.0415    1.0883 H   0  0  0  0  0  0  0  0  0  0  0  0
   -0.5145   -2.2566   -1.2069 H   0  0  0  0  0  0  0  0  0  0  0  0
   -0.1493   -2.5342    0.5603 H   0  0  0  0  0  0  0  0  0  0  0  0
   -1.7681   -1.8225    0.0519 H   0  0  0  0  0  0  0  0  0  0  0  0
    0.0652    1.3866   -1.0044 H   0  0  0  0  0  0  0  0  0  0  0  0
   -0.0782   -0.0788   -2.1158 H   0  0  0  0  0  0  0  0  0  0  0  0
   -2.2744    1.4951   -1.5709 H   0  0  0  0  0  0  0  0  0  0  0  0
   -2.3908   -0.2748   -1.6075 H   0  0  0  0  0  0  0  0  0  0  0  0
   -2.4185    1.6185    0.7646 H   0  0  0  0  0  0  0  0  0  0  0  0
   -2.9872   -0.0730    0.7005 H   0  0  0  0  0  0  0  0  0  0  0  0
   -0.3201    1.0722    1.4641 H   0  0  0  0  0  0  0  0  0  0  0  0
   -1.1251   -0.5348    1.8996 H   0  0  0  0  0  0  0  0  0  0  0  0
  1  2  1  0
  2  3  1  0
  3  4  1  0
  4  5  1  0
  4  6  1  0
  6  7  1  0
  7  8  1  0
  8  9  1  0
  9  4  1  0
  1 10  1  0
  1 11  1  0
  1 12  1  0
  3 13  1  0
  3 14  1  0
  5 15  1  0
  5 16  1  0
  5 17  1  0
  6 18  1  0
  6 19  1  0
  7 20  1  0
  7 21  1  0
  8 22  1  0
  8 23  1  0
  9 24  1  0
  9 25  1  0
M  END
