
     RDKit          3D

 25 24  0  0  0  0  0  0  0  0999 V2000
   -2.4239   -1.1497    0.3858 C   0  0  0  0  0  0  0  0  0  0  0  0
   -1.4791   -0.6198    1.1631 O   0  0  0  0  0  0  0  0  0  0  0  0
   -0.8061    0.4707    0.8792 C   0  0  0  0  0  0  0  0  0  0  0  0
    0.0415    0.4961   -0.3452 C   0  0  0  0  0  0  0  0  0  0  0  0
   -0.7736    0.3273   -1.5875 C   0  0  0  0  0  0  0  0  0  0  0  0
    0.7516    1.8506   -0.4650 C   0  0  0  0  0  0  0  0  0  0  0  0
    1.1014   -0.5843   -0.2249 C   0  0  0  0  0  0  0  0  0  0  0  0
    2.0000   -0.4330    0.9348 C   0  0  0  0  0  0  0  0  0  0  0  0
    2.9160   -1.5118    0.8894 O   0  0  0  0  0  0  0  0  0  0  0  0
   -2.1015   -1.4937   -0.5894 H   0  0  0  0  0  0  0  0  0  0  0  0
   -3.2170   -0.3662    0.1683 H   0  0  0  0  0  0  0  0  0  0  0  0
   -2.9513   -1.9948    0.9501 H   0  0  0  0  0  0  0  0  0  0  0  0
   -1.5155    1.3934    0.8271 H   0  0  0  0  0  0  0  0  0  0  0  0
   -0.1261    0.6955    1.7826 H   0  0  0  0  0  0  0  0  0  0  0  0
   -0.6254   -0.6667   -2.0989 H   0  0  0  0  0  0  0  0  0  0  0  0
   -1.8422    0.5933   -1.5044 H   0  0  0  0  0  0  0  0  0  0  0  0
   -0.4042    1.0745   -2.3883 H   0  0  0  0  0  0  0  0  0  0  0  0
    0.0394    2.5756   -0.9070 H   0  0  0  0  0  0  0  0  0  0  0  0
    1.5789    1.7359   -1.1607 H   0  0  0  0  0  0  0  0  0  0  0  0
    1.0146    2.1467    0.5533 H   0  0  0  0  0  0  0  0  0  0  0  0
    1.6640   -0.5745   -1.1787 H   0  0  0  0  0  0  0  0  0  0  0  0
    0.6004   -1.5719   -0.1664 H   0  0  0  0  0  0  0  0  0  0  0  0
    2.5870    0.4820    0.9748 H   0  0  0  0  0  0  0  0  0  0  0  0
    1.4798   -0.5395    1.9067 H   0  0  0  0  0  0  0  0  0  0  0  0
    2.4912   -2.3359    1.2010 H   0  0  0  0  0  0  0  0  0  0  0  0
  1  2  1  0
  2  3  1  0
  3  4  1  0
  4  5  1  0
  4  6  1  0
  4  7  1  0
  7  8  1  0
  8  9  1  0
  1 10  1  0
  1 11  1  0
  1 12  1  0
  3 13  1  0
  3 14  1  0
  5 15  1  0
  5 16  1  0
  5 17  1  0
  6 18  1  0
  6 19  1  0
  6 20  1  0
  7 21  1  0
  7 22  1  0
  8 23  1  0
  8 24  1  0
  9 25  1  0
M  END
