
     RDKit          3D

 21 21  0  0  0  0  0  0  0  0999 V2000
    2.6755    0.7077   -0.3469 C   0  0  0  0  0  0  0  0  0  0  0  0
    2.5278   -0.5394    0.1650 O   0  0  0  0  0  0  0  0  0  0  0  0
    1.3066   -0.8416    0.6286 C   0  0  0  0  0  0  0  0  0  0  0  0
    0.1669   -0.8053   -0.3420 C   0  0  0  0  0  0  0  0  0  0  0  0
   -1.0351   -1.3887    0.3281 C   0  0  0  0  0  0  0  0  0  0  0  0
   -2.1867   -0.7533    0.4091 C   0  0  0  0  0  0  0  0  0  0  0  0
   -2.2756    0.5929   -0.1939 C   0  0  0  0  0  0  0  0  0  0  0  0
   -0.8937    1.2185   -0.0475 C   0  0  0  0  0  0  0  0  0  0  0  0
   -0.0370    0.4375   -0.8437 O   0  0  0  0  0  0  0  0  0  0  0  0
    2.0543    0.8952   -1.2327 H   0  0  0  0  0  0  0  0  0  0  0  0
    2.2807    1.4435    0.4238 H   0  0  0  0  0  0  0  0  0  0  0  0
    3.7588    0.9565   -0.5546 H   0  0  0  0  0  0  0  0  0  0  0  0
    0.9784   -0.1423    1.4755 H   0  0  0  0  0  0  0  0  0  0  0  0
    1.3104   -1.8469    1.1797 H   0  0  0  0  0  0  0  0  0  0  0  0
    0.3788   -1.5054   -1.2042 H   0  0  0  0  0  0  0  0  0  0  0  0
   -0.9335   -2.3793    0.7599 H   0  0  0  0  0  0  0  0  0  0  0  0
   -3.0393   -1.1808    0.8909 H   0  0  0  0  0  0  0  0  0  0  0  0
   -3.0295    1.2361    0.3008 H   0  0  0  0  0  0  0  0  0  0  0  0
   -2.5145    0.4909   -1.2937 H   0  0  0  0  0  0  0  0  0  0  0  0
   -0.8709    2.2547   -0.3989 H   0  0  0  0  0  0  0  0  0  0  0  0
   -0.6223    1.1498    1.0311 H   0  0  0  0  0  0  0  0  0  0  0  0
  1  2  1  0
  2  3  1  0
  3  4  1  0
  4  5  1  0
  5  6  2  0
  6  7  1  0
  7  8  1  0
  8  9  1  0
  9  4  1  0
  1 10  1  0
  1 11  1  0
  1 12  1  0
  3 13  1  0
  3 14  1  0
  4 15  1  0
  5 16  1  0
  6 17  1  0
  7 18  1  0
  7 19  1  0
  8 20  1  0
  8 21  1  0
M  END
