
     RDKit          3D

 21 22  0  0  0  0  0  0  0  0999 V2000
    2.5687    1.2123   -0.4914 C   0  0  0  0  0  0  0  0  0  0  0  0
    1.2049    0.8574   -0.6113 O   0  0  0  0  0  0  0  0  0  0  0  0
    0.9850   -0.3071    0.1276 C   0  0  0  0  0  0  0  0  0  0  0  0
   -0.3673   -0.7342    0.0600 C   0  0  0  0  0  0  0  0  0  0  0  0
   -0.5906   -1.9984    0.8569 C   0  0  0  0  0  0  0  0  0  0  0  0
   -1.4928   -1.3456    1.6953 O   0  0  0  0  0  0  0  0  0  0  0  0
   -1.7137   -0.7042    0.4800 C   0  0  0  0  0  0  0  0  0  0  0  0
   -1.2490    0.5238    0.1184 C   0  0  0  0  0  0  0  0  0  0  0  0
   -1.6299    1.1537   -1.2083 C   0  0  0  0  0  0  0  0  0  0  0  0
    3.1859    0.3756   -0.8895 H   0  0  0  0  0  0  0  0  0  0  0  0
    2.8533    1.3148    0.5772 H   0  0  0  0  0  0  0  0  0  0  0  0
    2.8064    2.1045   -1.0744 H   0  0  0  0  0  0  0  0  0  0  0  0
    1.4042   -0.0555    1.1524 H   0  0  0  0  0  0  0  0  0  0  0  0
    1.7671   -1.0332   -0.2593 H   0  0  0  0  0  0  0  0  0  0  0  0
    0.2224   -2.4066    1.4424 H   0  0  0  0  0  0  0  0  0  0  0  0
   -1.1117   -2.8010    0.2649 H   0  0  0  0  0  0  0  0  0  0  0  0
   -2.4517   -1.2815   -0.1547 H   0  0  0  0  0  0  0  0  0  0  0  0
   -1.0193    1.2913    0.9020 H   0  0  0  0  0  0  0  0  0  0  0  0
   -1.8781    2.2205   -1.0924 H   0  0  0  0  0  0  0  0  0  0  0  0
   -2.5891    0.6537   -1.5152 H   0  0  0  0  0  0  0  0  0  0  0  0
   -0.9046    0.9597   -2.0053 H   0  0  0  0  0  0  0  0  0  0  0  0
  1  2  1  0
  2  3  1  0
  3  4  1  0
  4  5  1  0
  5  6  1  0
  6  7  1  0
  7  8  1  0
  8  9  1  0
  7  4  1  0
  8  4  1  0
  1 10  1  0
  1 11  1  0
  1 12  1  0
  3 13  1  0
  3 14  1  0
  5 15  1  0
  5 16  1  0
  7 17  1  0
  8 18  1  0
  9 19  1  0
  9 20  1  0
  9 21  1  0
M  END
