
     RDKit          3D

 20 20  0  0  0  0  0  0  0  0999 V2000
    3.1622    0.3809    0.3912 C   0  0  0  0  0  0  0  0  0  0  0  0
    1.8941   -0.1052    0.7172 O   0  0  0  0  0  0  0  0  0  0  0  0
    1.0821   -0.1206   -0.4304 C   0  0  0  0  0  0  0  0  0  0  0  0
   -0.2875   -0.6310   -0.1446 C   0  0  0  0  0  0  0  0  0  0  0  0
   -1.0284   -0.6179   -1.3148 O   0  0  0  0  0  0  0  0  0  0  0  0
   -1.0397    0.1648    0.8879 C   0  0  0  0  0  0  0  0  0  0  0  0
   -2.4380   -0.3579    1.1783 C   0  0  0  0  0  0  0  0  0  0  0  0
   -2.2450    0.9493    0.5020 C   0  0  0  0  0  0  0  0  0  0  0  0
    3.0050    1.4098   -0.0004 H   0  0  0  0  0  0  0  0  0  0  0  0
    3.5571   -0.2001   -0.4931 H   0  0  0  0  0  0  0  0  0  0  0  0
    3.8348    0.3300    1.2555 H   0  0  0  0  0  0  0  0  0  0  0  0
    1.5706   -0.8374   -1.1240 H   0  0  0  0  0  0  0  0  0  0  0  0
    1.1023    0.8639   -0.9338 H   0  0  0  0  0  0  0  0  0  0  0  0
   -0.1750   -1.6716    0.2532 H   0  0  0  0  0  0  0  0  0  0  0  0
   -0.9887   -1.5080   -1.7060 H   0  0  0  0  0  0  0  0  0  0  0  0
   -0.4443    0.5370    1.7231 H   0  0  0  0  0  0  0  0  0  0  0  0
   -2.8203   -1.2031    0.5560 H   0  0  0  0  0  0  0  0  0  0  0  0
   -2.8080   -0.3174    2.2205 H   0  0  0  0  0  0  0  0  0  0  0  0
   -2.4518    1.0507   -0.6002 H   0  0  0  0  0  0  0  0  0  0  0  0
   -2.4815    1.8838    1.0555 H   0  0  0  0  0  0  0  0  0  0  0  0
  1  2  1  0
  2  3  1  0
  3  4  1  0
  4  5  1  0
  4  6  1  0
  6  7  1  0
  7  8  1  0
  8  6  1  0
  1  9  1  0
  1 10  1  0
  1 11  1  0
  3 12  1  0
  3 13  1  0
  4 14  1  0
  5 15  1  0
  6 16  1  0
  7 17  1  0
  7 18  1  0
  8 19  1  0
  8 20  1  0
M  END
