
     RDKit          3D

 21 22  0  0  0  0  0  0  0  0999 V2000
   -2.8184   -0.0125    1.0713 C   0  0  0  0  0  0  0  0  0  0  0  0
   -1.6108   -0.4642    0.5472 O   0  0  0  0  0  0  0  0  0  0  0  0
   -1.4094    0.2391   -0.6471 C   0  0  0  0  0  0  0  0  0  0  0  0
   -0.0898   -0.1972   -1.3010 C   0  0  0  0  0  0  0  0  0  0  0  0
    1.0015    0.0354   -0.4904 C   0  0  0  0  0  0  0  0  0  0  0  0
    1.2824   -0.5019    0.8585 C   0  0  0  0  0  0  0  0  0  0  0  0
    2.3686    0.4686    0.5392 C   0  0  0  0  0  0  0  0  0  0  0  0
    2.4387   -0.1377   -0.8226 C   0  0  0  0  0  0  0  0  0  0  0  0
    1.3641    1.2935    0.0282 O   0  0  0  0  0  0  0  0  0  0  0  0
   -2.8084    1.0840    1.2797 H   0  0  0  0  0  0  0  0  0  0  0  0
   -3.1346   -0.5665    1.9677 H   0  0  0  0  0  0  0  0  0  0  0  0
   -3.5838   -0.1559    0.2600 H   0  0  0  0  0  0  0  0  0  0  0  0
   -2.2622   -0.0508   -1.3214 H   0  0  0  0  0  0  0  0  0  0  0  0
   -1.3969    1.3279   -0.5076 H   0  0  0  0  0  0  0  0  0  0  0  0
   -0.0627    0.3507   -2.2681 H   0  0  0  0  0  0  0  0  0  0  0  0
   -0.2488   -1.2616   -1.5694 H   0  0  0  0  0  0  0  0  0  0  0  0
    0.6543   -0.1016    1.6996 H   0  0  0  0  0  0  0  0  0  0  0  0
    1.5520   -1.5545    0.9651 H   0  0  0  0  0  0  0  0  0  0  0  0
    3.1343    0.7618    1.1286 H   0  0  0  0  0  0  0  0  0  0  0  0
    2.8002    0.5955   -1.5859 H   0  0  0  0  0  0  0  0  0  0  0  0
    2.8298   -1.1521   -0.8971 H   0  0  0  0  0  0  0  0  0  0  0  0
  1  2  1  0
  2  3  1  0
  3  4  1  0
  4  5  1  0
  5  6  1  0
  6  7  1  0
  7  8  1  0
  7  9  1  0
  8  5  1  0
  9  5  1  0
  1 10  1  0
  1 11  1  0
  1 12  1  0
  3 13  1  0
  3 14  1  0
  4 15  1  0
  4 16  1  0
  6 17  1  0
  6 18  1  0
  7 19  1  0
  8 20  1  0
  8 21  1  0
M  END
