
     RDKit          3D

 21 22  0  0  0  0  0  0  0  0999 V2000
    3.0894    0.2471   -0.2528 C   0  0  0  0  0  0  0  0  0  0  0  0
    1.7394    0.3675   -0.5015 O   0  0  0  0  0  0  0  0  0  0  0  0
    0.9617   -0.1658    0.5108 C   0  0  0  0  0  0  0  0  0  0  0  0
   -0.4887    0.0309    0.1144 C   0  0  0  0  0  0  0  0  0  0  0  0
   -0.8621    1.4590   -0.0718 C   0  0  0  0  0  0  0  0  0  0  0  0
   -1.4854   -0.7961    0.8509 C   0  0  0  0  0  0  0  0  0  0  0  0
   -2.4024   -0.6745   -0.3150 C   0  0  0  0  0  0  0  0  0  0  0  0
   -1.0327   -0.9666   -0.8409 C   0  0  0  0  0  0  0  0  0  0  0  0
   -0.9344   -1.8981    0.1911 O   0  0  0  0  0  0  0  0  0  0  0  0
    3.3605    0.7819    0.6956 H   0  0  0  0  0  0  0  0  0  0  0  0
    3.3850   -0.8356   -0.1663 H   0  0  0  0  0  0  0  0  0  0  0  0
    3.6453    0.7554   -1.0667 H   0  0  0  0  0  0  0  0  0  0  0  0
    1.1172    0.4939    1.4109 H   0  0  0  0  0  0  0  0  0  0  0  0
    1.1679   -1.2163    0.7369 H   0  0  0  0  0  0  0  0  0  0  0  0
   -1.2382    1.6168   -1.1133 H   0  0  0  0  0  0  0  0  0  0  0  0
    0.0151    2.1487    0.0775 H   0  0  0  0  0  0  0  0  0  0  0  0
   -1.6051    1.7429    0.6931 H   0  0  0  0  0  0  0  0  0  0  0  0
   -1.7190   -0.7573    1.8314 H   0  0  0  0  0  0  0  0  0  0  0  0
   -3.1151   -1.5179   -0.4395 H   0  0  0  0  0  0  0  0  0  0  0  0
   -2.8277    0.3047   -0.5419 H   0  0  0  0  0  0  0  0  0  0  0  0
   -0.7706   -1.1208   -1.8028 H   0  0  0  0  0  0  0  0  0  0  0  0
  1  2  1  0
  2  3  1  0
  3  4  1  0
  4  5  1  0
  4  6  1  0
  6  7  1  0
  7  8  1  0
  8  9  1  0
  8  4  1  0
  9  6  1  0
  1 10  1  0
  1 11  1  0
  1 12  1  0
  3 13  1  0
  3 14  1  0
  5 15  1  0
  5 16  1  0
  5 17  1  0
  6 18  1  0
  7 19  1  0
  7 20  1  0
  8 21  1  0
M  END
