
     RDKit          3D

 23 23  0  0  0  0  0  0  0  0999 V2000
    3.2694   -0.3005    0.9716 C   0  0  0  0  0  0  0  0  0  0  0  0
    1.9327   -0.3972    0.5868 O   0  0  0  0  0  0  0  0  0  0  0  0
    1.6407    0.7461   -0.1497 C   0  0  0  0  0  0  0  0  0  0  0  0
    0.2160    0.7606   -0.6257 C   0  0  0  0  0  0  0  0  0  0  0  0
   -0.1511   -0.3493   -1.4827 C   0  0  0  0  0  0  0  0  0  0  0  0
   -1.4129   -0.6794   -1.3097 C   0  0  0  0  0  0  0  0  0  0  0  0
   -1.9975    0.2270   -0.2789 C   0  0  0  0  0  0  0  0  0  0  0  0
   -2.9288   -0.5782    0.5745 C   0  0  0  0  0  0  0  0  0  0  0  0
   -0.7723    0.6899    0.5101 C   0  0  0  0  0  0  0  0  0  0  0  0
    3.8879   -0.2417    0.0405 H   0  0  0  0  0  0  0  0  0  0  0  0
    3.5986   -1.1913    1.5518 H   0  0  0  0  0  0  0  0  0  0  0  0
    3.4720    0.6348    1.5317 H   0  0  0  0  0  0  0  0  0  0  0  0
    1.7740    1.6205    0.5154 H   0  0  0  0  0  0  0  0  0  0  0  0
    2.3024    0.8657   -1.0066 H   0  0  0  0  0  0  0  0  0  0  0  0
    0.0484    1.7033   -1.1797 H   0  0  0  0  0  0  0  0  0  0  0  0
    0.4710   -0.9127   -2.2179 H   0  0  0  0  0  0  0  0  0  0  0  0
   -1.9945   -1.4551   -1.7896 H   0  0  0  0  0  0  0  0  0  0  0  0
   -2.4766    1.1130   -0.6941 H   0  0  0  0  0  0  0  0  0  0  0  0
   -3.0118   -0.2027    1.6123 H   0  0  0  0  0  0  0  0  0  0  0  0
   -3.9263   -0.5824    0.0930 H   0  0  0  0  0  0  0  0  0  0  0  0
   -2.5855   -1.6493    0.5755 H   0  0  0  0  0  0  0  0  0  0  0  0
   -0.8947    1.7064    0.9060 H   0  0  0  0  0  0  0  0  0  0  0  0
   -0.4612   -0.0450    1.2652 H   0  0  0  0  0  0  0  0  0  0  0  0
  1  2  1  0
  2  3  1  0
  3  4  1  0
  4  5  1  0
  5  6  2  0
  6  7  1  0
  7  8  1  0
  7  9  1  0
  9  4  1  0
  1 10  1  0
  1 11  1  0
  1 12  1  0
  3 13  1  0
  3 14  1  0
  4 15  1  0
  5 16  1  0
  6 17  1  0
  7 18  1  0
  8 19  1  0
  8 20  1  0
  8 21  1  0
  9 22  1  0
  9 23  1  0
M  END
