
     RDKit          3D

 21 21  0  0  0  0  0  0  0  0999 V2000
    2.6712    0.5813    0.6099 C   0  0  0  0  0  0  0  0  0  0  0  0
    1.3229    0.2077    0.7432 O   0  0  0  0  0  0  0  0  0  0  0  0
    0.9311   -0.2943   -0.4929 C   0  0  0  0  0  0  0  0  0  0  0  0
   -0.5035   -0.7348   -0.4900 C   0  0  0  0  0  0  0  0  0  0  0  0
   -1.5241    0.3105   -0.1400 C   0  0  0  0  0  0  0  0  0  0  0  0
   -1.3648    0.8561    1.2379 C   0  0  0  0  0  0  0  0  0  0  0  0
   -1.4231    1.3279   -1.1178 O   0  0  0  0  0  0  0  0  0  0  0  0
   -0.8057   -2.1242   -0.6700 C   0  0  0  0  0  0  0  0  0  0  0  0
   -0.8233   -1.2518   -1.8461 O   0  0  0  0  0  0  0  0  0  0  0  0
    2.7781    1.3516   -0.1755 H   0  0  0  0  0  0  0  0  0  0  0  0
    3.1042    0.9348    1.5551 H   0  0  0  0  0  0  0  0  0  0  0  0
    3.2903   -0.2913    0.2644 H   0  0  0  0  0  0  0  0  0  0  0  0
    1.0113    0.5156   -1.2749 H   0  0  0  0  0  0  0  0  0  0  0  0
    1.6376   -1.0674   -0.7839 H   0  0  0  0  0  0  0  0  0  0  0  0
   -2.5627   -0.0732   -0.2358 H   0  0  0  0  0  0  0  0  0  0  0  0
   -0.9315    1.8941    1.2169 H   0  0  0  0  0  0  0  0  0  0  0  0
   -0.7144    0.2610    1.8895 H   0  0  0  0  0  0  0  0  0  0  0  0
   -2.3563    0.9843    1.7622 H   0  0  0  0  0  0  0  0  0  0  0  0
   -1.9986    2.0640   -0.8224 H   0  0  0  0  0  0  0  0  0  0  0  0
    0.0415   -2.8483   -0.6601 H   0  0  0  0  0  0  0  0  0  0  0  0
   -1.7801   -2.6039   -0.5697 H   0  0  0  0  0  0  0  0  0  0  0  0
  1  2  1  0
  2  3  1  0
  3  4  1  0
  4  5  1  0
  5  6  1  0
  5  7  1  0
  4  8  1  0
  8  9  1  0
  9  4  1  0
  1 10  1  0
  1 11  1  0
  1 12  1  0
  3 13  1  0
  3 14  1  0
  5 15  1  0
  6 16  1  0
  6 17  1  0
  6 18  1  0
  7 19  1  0
  8 20  1  0
  8 21  1  0
M  END
