
     RDKit          3D

 17 18  0  0  0  0  0  0  0  0999 V2000
   -2.6603   -0.3873    0.8801 C   0  0  0  0  0  0  0  0  0  0  0  0
   -1.2793   -0.3427    0.7567 O   0  0  0  0  0  0  0  0  0  0  0  0
   -0.8526    0.1249   -0.4638 C   0  0  0  0  0  0  0  0  0  0  0  0
    0.6343    0.1319   -0.4898 C   0  0  0  0  0  0  0  0  0  0  0  0
    1.2060    0.5856   -1.6747 O   0  0  0  0  0  0  0  0  0  0  0  0
    1.5490   -0.6385   -1.1309 C   0  0  0  0  0  0  0  0  0  0  0  0
    2.5143   -0.5120    0.0476 C   0  0  0  0  0  0  0  0  0  0  0  0
    1.4238    0.1961    0.7628 C   0  0  0  0  0  0  0  0  0  0  0  0
    1.2978    0.6141    1.8770 O   0  0  0  0  0  0  0  0  0  0  0  0
   -3.0458   -1.0694    0.0840 H   0  0  0  0  0  0  0  0  0  0  0  0
   -3.1409    0.6061    0.8089 H   0  0  0  0  0  0  0  0  0  0  0  0
   -2.8987   -0.7998    1.8820 H   0  0  0  0  0  0  0  0  0  0  0  0
   -1.2244   -0.4524   -1.3224 H   0  0  0  0  0  0  0  0  0  0  0  0
   -1.2287    1.1781   -0.6223 H   0  0  0  0  0  0  0  0  0  0  0  0
    1.5346   -1.5566   -1.7112 H   0  0  0  0  0  0  0  0  0  0  0  0
    3.3427    0.1618   -0.1705 H   0  0  0  0  0  0  0  0  0  0  0  0
    2.8281   -1.4702    0.4867 H   0  0  0  0  0  0  0  0  0  0  0  0
  1  2  1  0
  2  3  1  0
  3  4  1  0
  4  5  1  0
  5  6  1  0
  6  7  1  0
  7  8  1  0
  8  9  2  0
  6  4  1  0
  8  4  1  0
  1 10  1  0
  1 11  1  0
  1 12  1  0
  3 13  1  0
  3 14  1  0
  6 15  1  0
  7 16  1  0
  7 17  1  0
M  END
