
     RDKit          3D

 21 20  0  0  0  0  0  0  0  0999 V2000
    2.9958    0.7181    0.1808 C   0  0  0  0  0  0  0  0  0  0  0  0
    2.0052    0.1967   -0.6712 O   0  0  0  0  0  0  0  0  0  0  0  0
    0.8383    0.1342    0.0640 C   0  0  0  0  0  0  0  0  0  0  0  0
   -0.3316   -0.4018   -0.6908 C   0  0  0  0  0  0  0  0  0  0  0  0
   -0.1698   -1.7568   -1.2032 C   0  0  0  0  0  0  0  0  0  0  0  0
    0.6825   -2.5180   -0.7849 O   0  0  0  0  0  0  0  0  0  0  0  0
   -1.5367   -0.3661    0.2281 C   0  0  0  0  0  0  0  0  0  0  0  0
   -1.7575    1.0595    0.6254 C   0  0  0  0  0  0  0  0  0  0  0  0
   -2.6517   -0.9451   -0.3771 O   0  0  0  0  0  0  0  0  0  0  0  0
    3.1539    0.0846    1.0711 H   0  0  0  0  0  0  0  0  0  0  0  0
    2.6932    1.7294    0.5607 H   0  0  0  0  0  0  0  0  0  0  0  0
    3.9480    0.8982   -0.3794 H   0  0  0  0  0  0  0  0  0  0  0  0
    0.5801    1.1586    0.4088 H   0  0  0  0  0  0  0  0  0  0  0  0
    1.0242   -0.4643    0.9912 H   0  0  0  0  0  0  0  0  0  0  0  0
   -0.5251    0.2947   -1.5527 H   0  0  0  0  0  0  0  0  0  0  0  0
   -0.8206   -2.1229   -1.9857 H   0  0  0  0  0  0  0  0  0  0  0  0
   -1.3068   -0.9593    1.1436 H   0  0  0  0  0  0  0  0  0  0  0  0
   -2.8449    1.2415    0.7150 H   0  0  0  0  0  0  0  0  0  0  0  0
   -1.2119    1.2648    1.5683 H   0  0  0  0  0  0  0  0  0  0  0  0
   -1.3791    1.7163   -0.1710 H   0  0  0  0  0  0  0  0  0  0  0  0
   -3.3858   -0.9623    0.2590 H   0  0  0  0  0  0  0  0  0  0  0  0
  1  2  1  0
  2  3  1  0
  3  4  1  0
  4  5  1  0
  5  6  2  0
  4  7  1  0
  7  8  1  0
  7  9  1  0
  1 10  1  0
  1 11  1  0
  1 12  1  0
  3 13  1  0
  3 14  1  0
  4 15  1  0
  5 16  1  0
  7 17  1  0
  8 18  1  0
  8 19  1  0
  8 20  1  0
  9 21  1  0
M  END
