
     RDKit          3D

 23 22  0  0  0  0  0  0  0  0999 V2000
    3.4804    0.0369   -0.1002 C   0  0  0  0  0  0  0  0  0  0  0  0
    2.7562   -1.0299   -0.5942 O   0  0  0  0  0  0  0  0  0  0  0  0
    1.4692   -0.6951   -0.9828 C   0  0  0  0  0  0  0  0  0  0  0  0
    0.6402   -0.1384    0.1406 C   0  0  0  0  0  0  0  0  0  0  0  0
   -0.7328    0.1848   -0.4113 C   0  0  0  0  0  0  0  0  0  0  0  0
   -1.4190   -1.0428   -0.9725 C   0  0  0  0  0  0  0  0  0  0  0  0
   -1.6206    0.7513    0.6632 C   0  0  0  0  0  0  0  0  0  0  0  0
   -2.9984    1.1237    0.3013 C   0  0  0  0  0  0  0  0  0  0  0  0
   -1.1881    0.8868    1.7880 O   0  0  0  0  0  0  0  0  0  0  0  0
    3.6000    0.8616   -0.8409 H   0  0  0  0  0  0  0  0  0  0  0  0
    4.4970   -0.3419    0.1376 H   0  0  0  0  0  0  0  0  0  0  0  0
    3.0709    0.4817    0.8078 H   0  0  0  0  0  0  0  0  0  0  0  0
    0.9787   -1.6631   -1.2840 H   0  0  0  0  0  0  0  0  0  0  0  0
    1.4423   -0.0266   -1.8545 H   0  0  0  0  0  0  0  0  0  0  0  0
    1.0482    0.8029    0.5518 H   0  0  0  0  0  0  0  0  0  0  0  0
    0.5098   -0.9261    0.9041 H   0  0  0  0  0  0  0  0  0  0  0  0
   -0.6938    0.9652   -1.2012 H   0  0  0  0  0  0  0  0  0  0  0  0
   -2.4669   -0.7246   -1.2109 H   0  0  0  0  0  0  0  0  0  0  0  0
   -1.4602   -1.8336   -0.1876 H   0  0  0  0  0  0  0  0  0  0  0  0
   -0.9453   -1.3727   -1.8969 H   0  0  0  0  0  0  0  0  0  0  0  0
   -3.6519    0.2336    0.2975 H   0  0  0  0  0  0  0  0  0  0  0  0
   -2.9722    1.5670   -0.7219 H   0  0  0  0  0  0  0  0  0  0  0  0
   -3.3439    1.8993    1.0195 H   0  0  0  0  0  0  0  0  0  0  0  0
  1  2  1  0
  2  3  1  0
  3  4  1  0
  4  5  1  0
  5  6  1  0
  5  7  1  0
  7  8  1  0
  7  9  2  0
  1 10  1  0
  1 11  1  0
  1 12  1  0
  3 13  1  0
  3 14  1  0
  4 15  1  0
  4 16  1  0
  5 17  1  0
  6 18  1  0
  6 19  1  0
  6 20  1  0
  8 21  1  0
  8 22  1  0
  8 23  1  0
M  END
