
     RDKit          3D

 18 19  0  0  0  0  0  0  0  0999 V2000
    2.4902    0.6510   -0.5564 C   0  0  0  0  0  0  0  0  0  0  0  0
    1.9517   -0.5848   -0.8286 O   0  0  0  0  0  0  0  0  0  0  0  0
    1.0165   -1.0078    0.1048 C   0  0  0  0  0  0  0  0  0  0  0  0
   -0.1343   -0.0434    0.1691 C   0  0  0  0  0  0  0  0  0  0  0  0
   -1.1143   -0.4365    1.1065 O   0  0  0  0  0  0  0  0  0  0  0  0
   -2.1455   -0.4190    0.1843 C   0  0  0  0  0  0  0  0  0  0  0  0
   -2.3758    0.7322   -0.7016 C   0  0  0  0  0  0  0  0  0  0  0  0
   -1.1635   -0.1322   -0.8920 C   0  0  0  0  0  0  0  0  0  0  0  0
    3.0127    0.6871    0.4239 H   0  0  0  0  0  0  0  0  0  0  0  0
    1.8154    1.4959   -0.6860 H   0  0  0  0  0  0  0  0  0  0  0  0
    3.3206    0.7937   -1.3098 H   0  0  0  0  0  0  0  0  0  0  0  0
    0.7178   -2.0455   -0.0114 H   0  0  0  0  0  0  0  0  0  0  0  0
    1.5354   -0.9400    1.1046 H   0  0  0  0  0  0  0  0  0  0  0  0
    0.1602    0.9993    0.3815 H   0  0  0  0  0  0  0  0  0  0  0  0
   -2.7625   -1.3339    0.0964 H   0  0  0  0  0  0  0  0  0  0  0  0
   -2.1234    1.7540   -0.3055 H   0  0  0  0  0  0  0  0  0  0  0  0
   -3.1350    0.6228   -1.4778 H   0  0  0  0  0  0  0  0  0  0  0  0
   -1.0661   -0.7929   -1.7664 H   0  0  0  0  0  0  0  0  0  0  0  0
  1  2  1  0
  2  3  1  0
  3  4  1  0
  4  5  1  0
  5  6  1  0
  6  7  1  0
  7  8  1  0
  8  4  1  0
  8  6  1  0
  1  9  1  0
  1 10  1  0
  1 11  1  0
  3 12  1  0
  3 13  1  0
  4 14  1  0
  6 15  1  0
  7 16  1  0
  7 17  1  0
  8 18  1  0
M  END
