
     RDKit          3D

 13 12  0  0  0  0  0  0  0  0999 V2000
   -1.9248   -0.4779   -0.3177 C   0  0  0  0  0  0  0  0  0  0  0  0
   -0.6574    0.0068   -0.5173 O   0  0  0  0  0  0  0  0  0  0  0  0
    0.0292    0.1376    0.6883 C   0  0  0  0  0  0  0  0  0  0  0  0
    1.4251    0.6745    0.4388 C   0  0  0  0  0  0  0  0  0  0  0  0
    2.1292   -0.1985   -0.3893 O   0  0  0  0  0  0  0  0  0  0  0  0
   -2.4404   -0.5700   -1.2844 H   0  0  0  0  0  0  0  0  0  0  0  0
   -2.5189    0.1904    0.3348 H   0  0  0  0  0  0  0  0  0  0  0  0
   -1.8239   -1.5064    0.1134 H   0  0  0  0  0  0  0  0  0  0  0  0
   -0.5564    0.8032    1.3464 H   0  0  0  0  0  0  0  0  0  0  0  0
    0.0528   -0.8620    1.1535 H   0  0  0  0  0  0  0  0  0  0  0  0
    1.9315    0.6869    1.4352 H   0  0  0  0  0  0  0  0  0  0  0  0
    1.3999    1.6461   -0.0497 H   0  0  0  0  0  0  0  0  0  0  0  0
    2.9542   -0.5307    0.0372 H   0  0  0  0  0  0  0  0  0  0  0  0
  1  2  1  0
  2  3  1  0
  3  4  1  0
  4  5  1  0
  1  6  1  0
  1  7  1  0
  1  8  1  0
  3  9  1  0
  3 10  1  0
  4 11  1  0
  4 12  1  0
  5 13  1  0
M  END
