
     RDKit          3D

 23 24  0  0  0  0  0  0  0  0999 V2000
    3.0187    1.2071    0.0004 C   0  0  0  0  0  0  0  0  0  0  0  0
    1.7355    0.6799   -0.1330 O   0  0  0  0  0  0  0  0  0  0  0  0
    1.6558   -0.4343    0.6938 C   0  0  0  0  0  0  0  0  0  0  0  0
    0.2570   -1.0582    0.5864 C   0  0  0  0  0  0  0  0  0  0  0  0
   -0.0675   -1.4955   -0.8034 C   0  0  0  0  0  0  0  0  0  0  0  0
   -1.0971   -0.3987   -0.8850 C   0  0  0  0  0  0  0  0  0  0  0  0
   -2.1811   -0.2916    0.0986 C   0  0  0  0  0  0  0  0  0  0  0  0
   -3.0818    0.9081   -0.0188 C   0  0  0  0  0  0  0  0  0  0  0  0
   -0.7560    0.0567    0.4838 C   0  0  0  0  0  0  0  0  0  0  0  0
    3.2508    1.5134    1.0376 H   0  0  0  0  0  0  0  0  0  0  0  0
    3.7453    0.3999   -0.2488 H   0  0  0  0  0  0  0  0  0  0  0  0
    3.1293    2.0075   -0.7386 H   0  0  0  0  0  0  0  0  0  0  0  0
    1.8349   -0.0907    1.7331 H   0  0  0  0  0  0  0  0  0  0  0  0
    2.3661   -1.2258    0.4165 H   0  0  0  0  0  0  0  0  0  0  0  0
    0.0710   -1.7986    1.3759 H   0  0  0  0  0  0  0  0  0  0  0  0
   -0.5726   -2.4847   -0.8986 H   0  0  0  0  0  0  0  0  0  0  0  0
    0.7057   -1.3485   -1.5749 H   0  0  0  0  0  0  0  0  0  0  0  0
   -1.0834    0.3026   -1.7444 H   0  0  0  0  0  0  0  0  0  0  0  0
   -2.5667   -1.1817    0.6547 H   0  0  0  0  0  0  0  0  0  0  0  0
   -2.4838    1.7831   -0.3112 H   0  0  0  0  0  0  0  0  0  0  0  0
   -3.8911    0.7657   -0.7628 H   0  0  0  0  0  0  0  0  0  0  0  0
   -3.5125    1.0946    0.9842 H   0  0  0  0  0  0  0  0  0  0  0  0
   -0.4763    1.0896    0.7006 H   0  0  0  0  0  0  0  0  0  0  0  0
  1  2  1  0
  2  3  1  0
  3  4  1  0
  4  5  1  0
  5  6  1  0
  6  7  1  0
  7  8  1  0
  7  9  1  0
  9  4  1  0
  9  6  1  0
  1 10  1  0
  1 11  1  0
  1 12  1  0
  3 13  1  0
  3 14  1  0
  4 15  1  0
  5 16  1  0
  5 17  1  0
  6 18  1  0
  7 19  1  0
  8 20  1  0
  8 21  1  0
  8 22  1  0
  9 23  1  0
M  END
