
     RDKit          3D

 19 20  0  0  0  0  0  0  0  0999 V2000
    3.0676   -0.6522   -0.1927 C   0  0  0  0  0  0  0  0  0  0  0  0
    1.7387   -0.8729    0.1671 O   0  0  0  0  0  0  0  0  0  0  0  0
    1.0506    0.3256   -0.0347 C   0  0  0  0  0  0  0  0  0  0  0  0
   -0.4192    0.1864    0.3322 C   0  0  0  0  0  0  0  0  0  0  0  0
   -1.2933    1.1648   -0.4116 C   0  0  0  0  0  0  0  0  0  0  0  0
   -2.6322    0.5885   -0.3167 C   0  0  0  0  0  0  0  0  0  0  0  0
   -2.5601   -0.6286    0.1735 C   0  0  0  0  0  0  0  0  0  0  0  0
   -1.1420   -0.9873    0.4580 C   0  0  0  0  0  0  0  0  0  0  0  0
   -0.6982   -0.1646    1.6396 O   0  0  0  0  0  0  0  0  0  0  0  0
    3.5062    0.1572    0.4388 H   0  0  0  0  0  0  0  0  0  0  0  0
    3.6598   -1.5905   -0.0896 H   0  0  0  0  0  0  0  0  0  0  0  0
    3.1712   -0.3142   -1.2394 H   0  0  0  0  0  0  0  0  0  0  0  0
    1.1508    0.7112   -1.0488 H   0  0  0  0  0  0  0  0  0  0  0  0
    1.4727    1.0591    0.6880 H   0  0  0  0  0  0  0  0  0  0  0  0
   -1.2286    2.1909   -0.0034 H   0  0  0  0  0  0  0  0  0  0  0  0
   -0.9907    1.1255   -1.4851 H   0  0  0  0  0  0  0  0  0  0  0  0
   -3.6021    1.0393   -0.5924 H   0  0  0  0  0  0  0  0  0  0  0  0
   -3.3860   -1.3097    0.3608 H   0  0  0  0  0  0  0  0  0  0  0  0
   -0.8652   -2.0284    0.5667 H   0  0  0  0  0  0  0  0  0  0  0  0
  1  2  1  0
  2  3  1  0
  3  4  1  0
  4  5  1  0
  5  6  1  0
  6  7  2  0
  7  8  1  0
  8  9  1  0
  8  4  1  0
  9  4  1  0
  1 10  1  0
  1 11  1  0
  1 12  1  0
  3 13  1  0
  3 14  1  0
  5 15  1  0
  5 16  1  0
  6 17  1  0
  7 18  1  0
  8 19  1  0
M  END
