
     RDKit          3D

 21 20  0  0  0  0  0  0  0  0999 V2000
    2.7593   -0.4324   -0.4086 C   0  0  0  0  0  0  0  0  0  0  0  0
    1.4303   -0.8790   -0.4151 O   0  0  0  0  0  0  0  0  0  0  0  0
    0.6824    0.1010    0.2395 C   0  0  0  0  0  0  0  0  0  0  0  0
   -0.7805   -0.2539    0.3055 C   0  0  0  0  0  0  0  0  0  0  0  0
   -1.0116   -1.5683    1.0130 C   0  0  0  0  0  0  0  0  0  0  0  0
   -1.2799   -0.4210   -1.0822 C   0  0  0  0  0  0  0  0  0  0  0  0
   -0.7821   -1.2645   -1.7992 O   0  0  0  0  0  0  0  0  0  0  0  0
   -1.4609    0.7525    0.9712 O   0  0  0  0  0  0  0  0  0  0  0  0
   -1.3769    1.9946    0.3879 C   0  0  0  0  0  0  0  0  0  0  0  0
    3.1328   -0.2945    0.6406 H   0  0  0  0  0  0  0  0  0  0  0  0
    3.4166   -1.1509   -0.9651 H   0  0  0  0  0  0  0  0  0  0  0  0
    2.8514    0.5591   -0.8980 H   0  0  0  0  0  0  0  0  0  0  0  0
    1.0944    0.2943    1.2337 H   0  0  0  0  0  0  0  0  0  0  0  0
    0.7872    1.0077   -0.4066 H   0  0  0  0  0  0  0  0  0  0  0  0
   -0.0540   -2.1001    1.2265 H   0  0  0  0  0  0  0  0  0  0  0  0
   -1.6338   -2.2742    0.4135 H   0  0  0  0  0  0  0  0  0  0  0  0
   -1.5182   -1.3879    1.9851 H   0  0  0  0  0  0  0  0  0  0  0  0
   -2.0765    0.1811   -1.4892 H   0  0  0  0  0  0  0  0  0  0  0  0
   -1.7830    2.0153   -0.6576 H   0  0  0  0  0  0  0  0  0  0  0  0
   -0.3831    2.4544    0.3842 H   0  0  0  0  0  0  0  0  0  0  0  0
   -2.0137    2.6668    1.0424 H   0  0  0  0  0  0  0  0  0  0  0  0
  1  2  1  0
  2  3  1  0
  3  4  1  0
  4  5  1  0
  4  6  1  0
  6  7  2  0
  4  8  1  0
  8  9  1  0
  1 10  1  0
  1 11  1  0
  1 12  1  0
  3 13  1  0
  3 14  1  0
  5 15  1  0
  5 16  1  0
  5 17  1  0
  6 18  1  0
  9 19  1  0
  9 20  1  0
  9 21  1  0
M  END
