
     RDKit          3D

 23 22  0  0  0  0  0  0  0  0999 V2000
    3.0979   -0.1194    1.0967 C   0  0  0  0  0  0  0  0  0  0  0  0
    2.0272    0.7176    1.1443 O   0  0  0  0  0  0  0  0  0  0  0  0
    0.8423    0.2583    0.6319 C   0  0  0  0  0  0  0  0  0  0  0  0
    0.9447   -0.0718   -0.8008 C   0  0  0  0  0  0  0  0  0  0  0  0
   -0.3068   -0.5723   -1.4535 C   0  0  0  0  0  0  0  0  0  0  0  0
   -1.4719    0.3264   -1.5083 C   0  0  0  0  0  0  0  0  0  0  0  0
   -2.0856    0.8052   -0.2780 C   0  0  0  0  0  0  0  0  0  0  0  0
   -2.5875   -0.1281    0.7558 C   0  0  0  0  0  0  0  0  0  0  0  0
   -2.1983    2.0021   -0.0759 O   0  0  0  0  0  0  0  0  0  0  0  0
    3.3810   -0.3897    0.0656 H   0  0  0  0  0  0  0  0  0  0  0  0
    4.0227    0.3599    1.5316 H   0  0  0  0  0  0  0  0  0  0  0  0
    2.9468   -1.0672    1.6565 H   0  0  0  0  0  0  0  0  0  0  0  0
    0.5248   -0.6623    1.1892 H   0  0  0  0  0  0  0  0  0  0  0  0
    0.0989    1.0759    0.7663 H   0  0  0  0  0  0  0  0  0  0  0  0
    1.7619   -0.8566   -0.8977 H   0  0  0  0  0  0  0  0  0  0  0  0
    1.3534    0.8130   -1.3674 H   0  0  0  0  0  0  0  0  0  0  0  0
   -0.0077   -0.7321   -2.5475 H   0  0  0  0  0  0  0  0  0  0  0  0
   -0.5583   -1.6131   -1.1063 H   0  0  0  0  0  0  0  0  0  0  0  0
   -1.1415    1.2002   -2.1714 H   0  0  0  0  0  0  0  0  0  0  0  0
   -2.2819   -0.1506   -2.1520 H   0  0  0  0  0  0  0  0  0  0  0  0
   -3.3811    0.3555    1.3964 H   0  0  0  0  0  0  0  0  0  0  0  0
   -1.8392   -0.5828    1.3895 H   0  0  0  0  0  0  0  0  0  0  0  0
   -3.1420   -0.9681    0.2485 H   0  0  0  0  0  0  0  0  0  0  0  0
  1  2  1  0
  2  3  1  0
  3  4  1  0
  4  5  1  0
  5  6  1  0
  6  7  1  0
  7  8  1  0
  7  9  2  0
  1 10  1  0
  1 11  1  0
  1 12  1  0
  3 13  1  0
  3 14  1  0
  4 15  1  0
  4 16  1  0
  5 17  1  0
  5 18  1  0
  6 19  1  0
  6 20  1  0
  8 21  1  0
  8 22  1  0
  8 23  1  0
M  END
