
     RDKit          3D

 23 23  0  0  0  0  0  0  0  0999 V2000
    2.9433    0.9002   -0.2505 C   0  0  0  0  0  0  0  0  0  0  0  0
    2.7018    0.1443    0.8694 O   0  0  0  0  0  0  0  0  0  0  0  0
    1.5505   -0.6110    0.7718 C   0  0  0  0  0  0  0  0  0  0  0  0
    0.2890    0.1835    0.5809 C   0  0  0  0  0  0  0  0  0  0  0  0
   -0.9203   -0.7098    0.5108 C   0  0  0  0  0  0  0  0  0  0  0  0
   -0.9032   -1.7092   -0.6166 C   0  0  0  0  0  0  0  0  0  0  0  0
   -1.1806   -0.6184   -1.4756 O   0  0  0  0  0  0  0  0  0  0  0  0
   -2.0068   -0.1553   -0.4249 C   0  0  0  0  0  0  0  0  0  0  0  0
   -2.1760    1.3255   -0.3677 C   0  0  0  0  0  0  0  0  0  0  0  0
    2.1117    1.6076   -0.3996 H   0  0  0  0  0  0  0  0  0  0  0  0
    3.0892    0.2871   -1.1697 H   0  0  0  0  0  0  0  0  0  0  0  0
    3.8475    1.5438   -0.0883 H   0  0  0  0  0  0  0  0  0  0  0  0
    1.6468   -1.3939   -0.0249 H   0  0  0  0  0  0  0  0  0  0  0  0
    1.4298   -1.1111    1.7804 H   0  0  0  0  0  0  0  0  0  0  0  0
    0.1619    0.8525    1.4494 H   0  0  0  0  0  0  0  0  0  0  0  0
    0.3281    0.7713   -0.3838 H   0  0  0  0  0  0  0  0  0  0  0  0
   -1.3306   -1.0630    1.4647 H   0  0  0  0  0  0  0  0  0  0  0  0
    0.0159   -2.2484   -0.8151 H   0  0  0  0  0  0  0  0  0  0  0  0
   -1.8210   -2.3428   -0.5580 H   0  0  0  0  0  0  0  0  0  0  0  0
   -2.9063   -0.7769   -0.3782 H   0  0  0  0  0  0  0  0  0  0  0  0
   -1.7196    1.8827   -1.1864 H   0  0  0  0  0  0  0  0  0  0  0  0
   -1.8697    1.6972    0.6446 H   0  0  0  0  0  0  0  0  0  0  0  0
   -3.2815    1.5441   -0.4195 H   0  0  0  0  0  0  0  0  0  0  0  0
  1  2  1  0
  2  3  1  0
  3  4  1  0
  4  5  1  0
  5  6  1  0
  6  7  1  0
  7  8  1  0
  8  9  1  0
  8  5  1  0
  1 10  1  0
  1 11  1  0
  1 12  1  0
  3 13  1  0
  3 14  1  0
  4 15  1  0
  4 16  1  0
  5 17  1  0
  6 18  1  0
  6 19  1  0
  8 20  1  0
  9 21  1  0
  9 22  1  0
  9 23  1  0
M  END
