
     RDKit          3D

 21 20  0  0  0  0  0  0  0  0999 V2000
    3.5239   -0.1217    0.6572 C   0  0  0  0  0  0  0  0  0  0  0  0
    2.1415   -0.2716    0.7903 O   0  0  0  0  0  0  0  0  0  0  0  0
    1.4573    0.7338    0.1143 C   0  0  0  0  0  0  0  0  0  0  0  0
   -0.0359    0.5853    0.2487 C   0  0  0  0  0  0  0  0  0  0  0  0
   -0.4559   -0.7185   -0.3135 C   0  0  0  0  0  0  0  0  0  0  0  0
    0.4012   -1.4448   -0.7847 O   0  0  0  0  0  0  0  0  0  0  0  0
   -1.8554   -1.1753   -0.3287 C   0  0  0  0  0  0  0  0  0  0  0  0
   -2.8131   -0.2006    0.2711 C   0  0  0  0  0  0  0  0  0  0  0  0
   -2.8521    1.0284   -0.3539 O   0  0  0  0  0  0  0  0  0  0  0  0
    4.0749   -0.9165    1.1913 H   0  0  0  0  0  0  0  0  0  0  0  0
    3.8352   -0.1762   -0.4083 H   0  0  0  0  0  0  0  0  0  0  0  0
    3.7993    0.8451    1.1281 H   0  0  0  0  0  0  0  0  0  0  0  0
    1.7846    0.6496   -0.9585 H   0  0  0  0  0  0  0  0  0  0  0  0
    1.8105    1.7283    0.4561 H   0  0  0  0  0  0  0  0  0  0  0  0
   -0.2513    0.5185    1.3570 H   0  0  0  0  0  0  0  0  0  0  0  0
   -0.5679    1.4491   -0.1962 H   0  0  0  0  0  0  0  0  0  0  0  0
   -2.1544   -1.3520   -1.3924 H   0  0  0  0  0  0  0  0  0  0  0  0
   -1.9998   -2.1486    0.1825 H   0  0  0  0  0  0  0  0  0  0  0  0
   -3.8388   -0.6054    0.3255 H   0  0  0  0  0  0  0  0  0  0  0  0
   -2.5157    0.0009    1.3359 H   0  0  0  0  0  0  0  0  0  0  0  0
   -3.4880    1.5921    0.1543 H   0  0  0  0  0  0  0  0  0  0  0  0
  1  2  1  0
  2  3  1  0
  3  4  1  0
  4  5  1  0
  5  6  2  0
  5  7  1  0
  7  8  1  0
  8  9  1  0
  1 10  1  0
  1 11  1  0
  1 12  1  0
  3 13  1  0
  3 14  1  0
  4 15  1  0
  4 16  1  0
  7 17  1  0
  7 18  1  0
  8 19  1  0
  8 20  1  0
  9 21  1  0
M  END
