
     RDKit          3D

 23 23  0  0  0  0  0  0  0  0999 V2000
   -3.0462   -0.6897    0.6535 C   0  0  0  0  0  0  0  0  0  0  0  0
   -2.6374    0.6169    0.4582 O   0  0  0  0  0  0  0  0  0  0  0  0
   -1.8113    0.7664   -0.6275 C   0  0  0  0  0  0  0  0  0  0  0  0
   -0.5460   -0.0333   -0.5351 C   0  0  0  0  0  0  0  0  0  0  0  0
    0.3458    0.4075    0.6016 C   0  0  0  0  0  0  0  0  0  0  0  0
    1.6261   -0.3417    0.2042 C   0  0  0  0  0  0  0  0  0  0  0  0
    2.8480    0.2732    0.7893 C   0  0  0  0  0  0  0  0  0  0  0  0
    1.5472   -0.2359   -1.2989 C   0  0  0  0  0  0  0  0  0  0  0  0
    0.2704    0.1319   -1.6341 O   0  0  0  0  0  0  0  0  0  0  0  0
   -3.6052   -1.0314   -0.2662 H   0  0  0  0  0  0  0  0  0  0  0  0
   -2.2305   -1.3843    0.9295 H   0  0  0  0  0  0  0  0  0  0  0  0
   -3.8022   -0.7702    1.4711 H   0  0  0  0  0  0  0  0  0  0  0  0
   -1.5364    1.8305   -0.7705 H   0  0  0  0  0  0  0  0  0  0  0  0
   -2.3093    0.4620   -1.5878 H   0  0  0  0  0  0  0  0  0  0  0  0
   -0.7379   -1.1174   -0.4273 H   0  0  0  0  0  0  0  0  0  0  0  0
    0.0073    0.0378    1.5807 H   0  0  0  0  0  0  0  0  0  0  0  0
    0.5353    1.4967    0.5773 H   0  0  0  0  0  0  0  0  0  0  0  0
    1.4570   -1.3899    0.4727 H   0  0  0  0  0  0  0  0  0  0  0  0
    2.6451    1.0469    1.5525 H   0  0  0  0  0  0  0  0  0  0  0  0
    3.4425   -0.5609    1.2662 H   0  0  0  0  0  0  0  0  0  0  0  0
    3.4379    0.7446   -0.0170 H   0  0  0  0  0  0  0  0  0  0  0  0
    1.8423   -1.1913   -1.8081 H   0  0  0  0  0  0  0  0  0  0  0  0
    2.2577    0.5951   -1.5844 H   0  0  0  0  0  0  0  0  0  0  0  0
  1  2  1  0
  2  3  1  0
  3  4  1  0
  4  5  1  0
  5  6  1  0
  6  7  1  0
  6  8  1  0
  8  9  1  0
  9  4  1  0
  1 10  1  0
  1 11  1  0
  1 12  1  0
  3 13  1  0
  3 14  1  0
  4 15  1  0
  5 16  1  0
  5 17  1  0
  6 18  1  0
  7 19  1  0
  7 20  1  0
  7 21  1  0
  8 22  1  0
  8 23  1  0
M  END
