
     RDKit          3D

 21 22  0  0  0  0  0  0  0  0999 V2000
   -2.6101    1.1711   -0.2832 C   0  0  0  0  0  0  0  0  0  0  0  0
   -2.5475   -0.0779   -0.7804 O   0  0  0  0  0  0  0  0  0  0  0  0
   -1.5692   -0.9395   -0.3872 C   0  0  0  0  0  0  0  0  0  0  0  0
   -0.2158   -0.4488   -0.7071 C   0  0  0  0  0  0  0  0  0  0  0  0
    0.8942   -1.3503   -0.1971 C   0  0  0  0  0  0  0  0  0  0  0  0
    2.0877   -0.4073   -0.3536 C   0  0  0  0  0  0  0  0  0  0  0  0
    2.3856    0.5661    0.6992 C   0  0  0  0  0  0  0  0  0  0  0  0
    1.4010    0.9403   -0.3240 C   0  0  0  0  0  0  0  0  0  0  0  0
    0.0705    0.7248   -0.0519 O   0  0  0  0  0  0  0  0  0  0  0  0
   -1.7851    1.8621   -0.4593 H   0  0  0  0  0  0  0  0  0  0  0  0
   -2.7759    1.0871    0.8202 H   0  0  0  0  0  0  0  0  0  0  0  0
   -3.5397    1.6514   -0.6701 H   0  0  0  0  0  0  0  0  0  0  0  0
   -1.7858   -1.9295   -0.8893 H   0  0  0  0  0  0  0  0  0  0  0  0
   -1.6365   -1.0606    0.7233 H   0  0  0  0  0  0  0  0  0  0  0  0
   -0.0256   -0.3226   -1.7971 H   0  0  0  0  0  0  0  0  0  0  0  0
    0.7433   -1.6357    0.8635 H   0  0  0  0  0  0  0  0  0  0  0  0
    1.0669   -2.2173   -0.8388 H   0  0  0  0  0  0  0  0  0  0  0  0
    2.8028   -0.6153   -1.1872 H   0  0  0  0  0  0  0  0  0  0  0  0
    3.3707    1.0559    0.6613 H   0  0  0  0  0  0  0  0  0  0  0  0
    2.0415    0.3294    1.7226 H   0  0  0  0  0  0  0  0  0  0  0  0
    1.6268    1.6165   -1.1623 H   0  0  0  0  0  0  0  0  0  0  0  0
  1  2  1  0
  2  3  1  0
  3  4  1  0
  4  5  1  0
  5  6  1  0
  6  7  1  0
  7  8  1  0
  8  9  1  0
  9  4  1  0
  8  6  1  0
  1 10  1  0
  1 11  1  0
  1 12  1  0
  3 13  1  0
  3 14  1  0
  4 15  1  0
  5 16  1  0
  5 17  1  0
  6 18  1  0
  7 19  1  0
  7 20  1  0
  8 21  1  0
M  END
