
     RDKit          3D

 23 23  0  0  0  0  0  0  0  0999 V2000
    3.0549   -0.7833    0.7443 C   0  0  0  0  0  0  0  0  0  0  0  0
    1.6819   -0.5755    0.8181 O   0  0  0  0  0  0  0  0  0  0  0  0
    1.3084    0.1071   -0.3302 C   0  0  0  0  0  0  0  0  0  0  0  0
   -0.1869    0.3913   -0.3581 C   0  0  0  0  0  0  0  0  0  0  0  0
   -1.0342   -0.8401   -0.3169 C   0  0  0  0  0  0  0  0  0  0  0  0
   -2.4970   -0.6024   -0.3425 C   0  0  0  0  0  0  0  0  0  0  0  0
   -0.7313   -1.5068    0.8942 O   0  0  0  0  0  0  0  0  0  0  0  0
   -0.6945    1.5087    0.5497 C   0  0  0  0  0  0  0  0  0  0  0  0
   -0.6201    1.6672   -0.9194 C   0  0  0  0  0  0  0  0  0  0  0  0
    3.4046   -1.3280    1.6432 H   0  0  0  0  0  0  0  0  0  0  0  0
    3.2518   -1.4550   -0.1354 H   0  0  0  0  0  0  0  0  0  0  0  0
    3.6314    0.1516    0.6330 H   0  0  0  0  0  0  0  0  0  0  0  0
    1.8435    1.0849   -0.3375 H   0  0  0  0  0  0  0  0  0  0  0  0
    1.6060   -0.4471   -1.2298 H   0  0  0  0  0  0  0  0  0  0  0  0
   -0.7265   -1.5623   -1.1170 H   0  0  0  0  0  0  0  0  0  0  0  0
   -3.0120   -1.4165   -0.9327 H   0  0  0  0  0  0  0  0  0  0  0  0
   -2.8049    0.3411   -0.8270 H   0  0  0  0  0  0  0  0  0  0  0  0
   -2.9218   -0.5972    0.6739 H   0  0  0  0  0  0  0  0  0  0  0  0
   -1.5260   -1.6149    1.4599 H   0  0  0  0  0  0  0  0  0  0  0  0
   -1.7158    1.4191    0.9768 H   0  0  0  0  0  0  0  0  0  0  0  0
    0.0541    1.9002    1.2388 H   0  0  0  0  0  0  0  0  0  0  0  0
   -1.5506    1.7977   -1.5101 H   0  0  0  0  0  0  0  0  0  0  0  0
    0.1852    2.3603   -1.2752 H   0  0  0  0  0  0  0  0  0  0  0  0
  1  2  1  0
  2  3  1  0
  3  4  1  0
  4  5  1  0
  5  6  1  0
  5  7  1  0
  4  8  1  0
  8  9  1  0
  9  4  1  0
  1 10  1  0
  1 11  1  0
  1 12  1  0
  3 13  1  0
  3 14  1  0
  5 15  1  0
  6 16  1  0
  6 17  1  0
  6 18  1  0
  7 19  1  0
  8 20  1  0
  8 21  1  0
  9 22  1  0
  9 23  1  0
M  END
