
     RDKit          3D

 19 20  0  0  0  0  0  0  0  0999 V2000
   -2.9768    0.6357   -0.4599 C   0  0  0  0  0  0  0  0  0  0  0  0
   -1.6270    0.5408   -0.0991 O   0  0  0  0  0  0  0  0  0  0  0  0
   -1.0782   -0.4709   -0.8437 C   0  0  0  0  0  0  0  0  0  0  0  0
    0.3831   -0.7010   -0.5698 C   0  0  0  0  0  0  0  0  0  0  0  0
    1.3033    0.4465   -0.8257 C   0  0  0  0  0  0  0  0  0  0  0  0
    0.7243    1.0586    0.2728 O   0  0  0  0  0  0  0  0  0  0  0  0
    0.9005   -0.2280    0.7474 C   0  0  0  0  0  0  0  0  0  0  0  0
    2.2679   -0.1853    0.1261 C   0  0  0  0  0  0  0  0  0  0  0  0
    3.1731    0.6653    0.7421 O   0  0  0  0  0  0  0  0  0  0  0  0
   -3.5075   -0.3174   -0.2542 H   0  0  0  0  0  0  0  0  0  0  0  0
   -3.4804    1.4913    0.0158 H   0  0  0  0  0  0  0  0  0  0  0  0
   -2.9680    0.7419   -1.5841 H   0  0  0  0  0  0  0  0  0  0  0  0
   -1.1771   -0.3154   -1.9474 H   0  0  0  0  0  0  0  0  0  0  0  0
   -1.6057   -1.4248   -0.6108 H   0  0  0  0  0  0  0  0  0  0  0  0
    0.7891   -1.6655   -0.8640 H   0  0  0  0  0  0  0  0  0  0  0  0
    1.5161    0.8730   -1.7131 H   0  0  0  0  0  0  0  0  0  0  0  0
    0.6683   -0.5793    1.6629 H   0  0  0  0  0  0  0  0  0  0  0  0
    2.6559   -1.1494   -0.2288 H   0  0  0  0  0  0  0  0  0  0  0  0
    4.0391    0.5838    0.2723 H   0  0  0  0  0  0  0  0  0  0  0  0
  1  2  1  0
  2  3  1  0
  3  4  1  0
  4  5  1  0
  5  6  1  0
  6  7  1  0
  7  8  1  0
  8  9  1  0
  7  4  1  0
  8  5  1  0
  1 10  1  0
  1 11  1  0
  1 12  1  0
  3 13  1  0
  3 14  1  0
  4 15  1  0
  5 16  1  0
  7 17  1  0
  8 18  1  0
  9 19  1  0
M  END
