
     RDKit          3D

 19 19  0  0  0  0  0  0  0  0999 V2000
    2.4585    0.6933    0.9166 C   0  0  0  0  0  0  0  0  0  0  0  0
    1.1367    0.4083    0.6335 O   0  0  0  0  0  0  0  0  0  0  0  0
    1.0624   -0.5872   -0.3279 C   0  0  0  0  0  0  0  0  0  0  0  0
   -0.3610   -0.9396   -0.6766 C   0  0  0  0  0  0  0  0  0  0  0  0
   -1.1132    0.2397   -1.2175 C   0  0  0  0  0  0  0  0  0  0  0  0
   -2.0190    0.2416   -0.0319 C   0  0  0  0  0  0  0  0  0  0  0  0
   -1.8948    1.3729    0.7717 O   0  0  0  0  0  0  0  0  0  0  0  0
   -1.3003   -0.9601    0.4754 C   0  0  0  0  0  0  0  0  0  0  0  0
   -1.5001   -1.6298    1.4795 O   0  0  0  0  0  0  0  0  0  0  0  0
    2.6007    1.4681    1.6653 H   0  0  0  0  0  0  0  0  0  0  0  0
    2.9395    1.0256   -0.0449 H   0  0  0  0  0  0  0  0  0  0  0  0
    2.9463   -0.2516    1.2321 H   0  0  0  0  0  0  0  0  0  0  0  0
    1.5426   -0.2053   -1.2658 H   0  0  0  0  0  0  0  0  0  0  0  0
    1.6367   -1.5006   -0.0393 H   0  0  0  0  0  0  0  0  0  0  0  0
   -0.4431   -1.8781   -1.2448 H   0  0  0  0  0  0  0  0  0  0  0  0
   -0.4889    1.1517   -1.3139 H   0  0  0  0  0  0  0  0  0  0  0  0
   -1.5883   -0.0387   -2.1900 H   0  0  0  0  0  0  0  0  0  0  0  0
   -3.0752    0.0498   -0.3395 H   0  0  0  0  0  0  0  0  0  0  0  0
   -2.5396    1.3397    1.5183 H   0  0  0  0  0  0  0  0  0  0  0  0
  1  2  1  0
  2  3  1  0
  3  4  1  0
  4  5  1  0
  5  6  1  0
  6  7  1  0
  6  8  1  0
  8  9  2  0
  8  4  1  0
  1 10  1  0
  1 11  1  0
  1 12  1  0
  3 13  1  0
  3 14  1  0
  4 15  1  0
  5 16  1  0
  5 17  1  0
  6 18  1  0
  7 19  1  0
M  END
