
     RDKit          3D

 21 21  0  0  0  0  0  0  0  0999 V2000
    2.7833    0.8171    0.4124 C   0  0  0  0  0  0  0  0  0  0  0  0
    2.1160   -0.3579    0.7025 O   0  0  0  0  0  0  0  0  0  0  0  0
    1.3907   -0.8652   -0.3486 C   0  0  0  0  0  0  0  0  0  0  0  0
    0.3291    0.0826   -0.8300 C   0  0  0  0  0  0  0  0  0  0  0  0
   -0.6804    0.4559    0.1830 C   0  0  0  0  0  0  0  0  0  0  0  0
   -1.5616   -0.5133    0.8639 C   0  0  0  0  0  0  0  0  0  0  0  0
   -1.3376   -1.8838    0.7564 O   0  0  0  0  0  0  0  0  0  0  0  0
   -2.1330    0.2415   -0.2732 C   0  0  0  0  0  0  0  0  0  0  0  0
   -3.0020    1.3176   -0.0543 O   0  0  0  0  0  0  0  0  0  0  0  0
    3.5154    0.6858   -0.4325 H   0  0  0  0  0  0  0  0  0  0  0  0
    2.1238    1.6877    0.2276 H   0  0  0  0  0  0  0  0  0  0  0  0
    3.3902    1.0540    1.3386 H   0  0  0  0  0  0  0  0  0  0  0  0
    1.0192   -1.8841   -0.1717 H   0  0  0  0  0  0  0  0  0  0  0  0
    2.1178   -0.9658   -1.2101 H   0  0  0  0  0  0  0  0  0  0  0  0
    0.8366    1.0022   -1.1855 H   0  0  0  0  0  0  0  0  0  0  0  0
   -0.1385   -0.3675   -1.7565 H   0  0  0  0  0  0  0  0  0  0  0  0
   -0.4912    1.4335    0.7163 H   0  0  0  0  0  0  0  0  0  0  0  0
   -1.9446   -0.2173    1.8626 H   0  0  0  0  0  0  0  0  0  0  0  0
   -2.1683   -2.3940    0.9705 H   0  0  0  0  0  0  0  0  0  0  0  0
   -2.3123   -0.3328   -1.1900 H   0  0  0  0  0  0  0  0  0  0  0  0
   -3.8525    1.0039    0.3480 H   0  0  0  0  0  0  0  0  0  0  0  0
  1  2  1  0
  2  3  1  0
  3  4  1  0
  4  5  1  0
  5  6  1  0
  6  7  1  0
  6  8  1  0
  8  9  1  0
  8  5  1  0
  1 10  1  0
  1 11  1  0
  1 12  1  0
  3 13  1  0
  3 14  1  0
  4 15  1  0
  4 16  1  0
  5 17  1  0
  6 18  1  0
  7 19  1  0
  8 20  1  0
  9 21  1  0
M  END
