
     RDKit          3D

 19 20  0  0  0  0  0  0  0  0999 V2000
    2.4182    0.7907    0.2930 C   0  0  0  0  0  0  0  0  0  0  0  0
    1.5318    1.1763   -0.7062 O   0  0  0  0  0  0  0  0  0  0  0  0
    0.8525    0.1013   -1.2745 C   0  0  0  0  0  0  0  0  0  0  0  0
    0.0488   -0.6347   -0.2520 C   0  0  0  0  0  0  0  0  0  0  0  0
   -0.6216   -1.7107   -0.8836 O   0  0  0  0  0  0  0  0  0  0  0  0
   -1.6315   -1.5273    0.0864 C   0  0  0  0  0  0  0  0  0  0  0  0
   -1.2571   -0.0987    0.1379 C   0  0  0  0  0  0  0  0  0  0  0  0
   -1.9644    1.0149   -0.1776 C   0  0  0  0  0  0  0  0  0  0  0  0
   -1.4874    0.7149    1.2000 O   0  0  0  0  0  0  0  0  0  0  0  0
    3.1495    0.0931   -0.2047 H   0  0  0  0  0  0  0  0  0  0  0  0
    3.0103    1.7256    0.5275 H   0  0  0  0  0  0  0  0  0  0  0  0
    1.9618    0.3567    1.1781 H   0  0  0  0  0  0  0  0  0  0  0  0
    1.6635   -0.5996   -1.6322 H   0  0  0  0  0  0  0  0  0  0  0  0
    0.2395    0.4421   -2.1304 H   0  0  0  0  0  0  0  0  0  0  0  0
    0.6962   -1.0928    0.5336 H   0  0  0  0  0  0  0  0  0  0  0  0
   -1.3337   -2.0550    1.0318 H   0  0  0  0  0  0  0  0  0  0  0  0
   -2.6488   -1.7250   -0.2623 H   0  0  0  0  0  0  0  0  0  0  0  0
   -1.5348    1.9881   -0.4643 H   0  0  0  0  0  0  0  0  0  0  0  0
   -3.0928    1.0400   -0.2121 H   0  0  0  0  0  0  0  0  0  0  0  0
  1  2  1  0
  2  3  1  0
  3  4  1  0
  4  5  1  0
  5  6  1  0
  6  7  1  0
  7  8  1  0
  8  9  1  0
  7  4  1  0
  9  7  1  0
  1 10  1  0
  1 11  1  0
  1 12  1  0
  3 13  1  0
  3 14  1  0
  4 15  1  0
  6 16  1  0
  6 17  1  0
  8 18  1  0
  8 19  1  0
M  END
