
     RDKit          3D

 21 20  0  0  0  0  0  0  0  0999 V2000
   -3.4141    0.7245   -0.6305 C   0  0  0  0  0  0  0  0  0  0  0  0
   -3.1598   -0.0135    0.5214 O   0  0  0  0  0  0  0  0  0  0  0  0
   -1.9631   -0.7166    0.4356 C   0  0  0  0  0  0  0  0  0  0  0  0
   -0.7590    0.1816    0.2379 C   0  0  0  0  0  0  0  0  0  0  0  0
    0.4497   -0.7578    0.1725 C   0  0  0  0  0  0  0  0  0  0  0  0
    1.6992    0.0166   -0.0212 C   0  0  0  0  0  0  0  0  0  0  0  0
    1.6148    1.2679   -0.1023 O   0  0  0  0  0  0  0  0  0  0  0  0
    2.9436   -0.5468   -0.1178 O   0  0  0  0  0  0  0  0  0  0  0  0
    4.1484    0.1380   -0.3002 C   0  0  0  0  0  0  0  0  0  0  0  0
   -3.4719    0.0393   -1.5151 H   0  0  0  0  0  0  0  0  0  0  0  0
   -4.4020    1.2567   -0.4952 H   0  0  0  0  0  0  0  0  0  0  0  0
   -2.6567    1.4821   -0.8577 H   0  0  0  0  0  0  0  0  0  0  0  0
   -1.9765   -1.4194   -0.4490 H   0  0  0  0  0  0  0  0  0  0  0  0
   -1.8460   -1.3376    1.3526 H   0  0  0  0  0  0  0  0  0  0  0  0
   -0.7889    0.7214   -0.7059 H   0  0  0  0  0  0  0  0  0  0  0  0
   -0.6821    0.8575    1.1092 H   0  0  0  0  0  0  0  0  0  0  0  0
    0.2465   -1.4290   -0.6972 H   0  0  0  0  0  0  0  0  0  0  0  0
    0.4584   -1.3657    1.0941 H   0  0  0  0  0  0  0  0  0  0  0  0
    4.2124    0.6377   -1.3083 H   0  0  0  0  0  0  0  0  0  0  0  0
    4.9721   -0.6308   -0.2508 H   0  0  0  0  0  0  0  0  0  0  0  0
    4.3751    0.8940    0.4523 H   0  0  0  0  0  0  0  0  0  0  0  0
  1  2  1  0
  2  3  1  0
  3  4  1  0
  4  5  1  0
  5  6  1  0
  6  7  2  0
  6  8  1  0
  8  9  1  0
  1 10  1  0
  1 11  1  0
  1 12  1  0
  3 13  1  0
  3 14  1  0
  4 15  1  0
  4 16  1  0
  5 17  1  0
  5 18  1  0
  9 19  1  0
  9 20  1  0
  9 21  1  0
M  END
