
     RDKit          3D

 21 22  0  0  0  0  0  0  0  0999 V2000
    3.2968    0.0797    0.1023 C   0  0  0  0  0  0  0  0  0  0  0  0
    2.0745   -0.4209   -0.3365 O   0  0  0  0  0  0  0  0  0  0  0  0
    1.0967   -0.2917    0.6521 C   0  0  0  0  0  0  0  0  0  0  0  0
   -0.2305   -0.8118    0.2345 C   0  0  0  0  0  0  0  0  0  0  0  0
   -1.1703   -0.6681    1.2340 O   0  0  0  0  0  0  0  0  0  0  0  0
   -1.9972    0.2235    0.5896 C   0  0  0  0  0  0  0  0  0  0  0  0
   -1.4982    1.4154   -0.1194 C   0  0  0  0  0  0  0  0  0  0  0  0
   -1.0702    0.0990   -0.6294 C   0  0  0  0  0  0  0  0  0  0  0  0
   -1.7604   -0.4675   -1.8490 C   0  0  0  0  0  0  0  0  0  0  0  0
    3.1519    1.1484    0.3452 H   0  0  0  0  0  0  0  0  0  0  0  0
    4.0655    0.0075   -0.6711 H   0  0  0  0  0  0  0  0  0  0  0  0
    3.6719   -0.5067    0.9846 H   0  0  0  0  0  0  0  0  0  0  0  0
    0.9847    0.7845    0.9515 H   0  0  0  0  0  0  0  0  0  0  0  0
    1.4384   -0.8468    1.5513 H   0  0  0  0  0  0  0  0  0  0  0  0
   -0.1747   -1.8169   -0.2331 H   0  0  0  0  0  0  0  0  0  0  0  0
   -3.0404   -0.1148    0.4887 H   0  0  0  0  0  0  0  0  0  0  0  0
   -0.6915    2.0325    0.3371 H   0  0  0  0  0  0  0  0  0  0  0  0
   -2.2173    1.9753   -0.7149 H   0  0  0  0  0  0  0  0  0  0  0  0
   -2.6825    0.1562   -2.0379 H   0  0  0  0  0  0  0  0  0  0  0  0
   -2.1532   -1.4659   -1.5558 H   0  0  0  0  0  0  0  0  0  0  0  0
   -1.0941   -0.5107   -2.7154 H   0  0  0  0  0  0  0  0  0  0  0  0
  1  2  1  0
  2  3  1  0
  3  4  1  0
  4  5  1  0
  5  6  1  0
  6  7  1  0
  7  8  1  0
  8  9  1  0
  8  4  1  0
  8  6  1  0
  1 10  1  0
  1 11  1  0
  1 12  1  0
  3 13  1  0
  3 14  1  0
  4 15  1  0
  6 16  1  0
  7 17  1  0
  7 18  1  0
  9 19  1  0
  9 20  1  0
  9 21  1  0
M  END
