
     RDKit          3D

 23 22  0  0  0  0  0  0  0  0999 V2000
    3.0392    0.3989   -0.2577 C   0  0  0  0  0  0  0  0  0  0  0  0
    2.5264    0.0007    0.9676 O   0  0  0  0  0  0  0  0  0  0  0  0
    1.1487    0.2594    1.0559 C   0  0  0  0  0  0  0  0  0  0  0  0
    0.3713   -0.4511    0.0115 C   0  0  0  0  0  0  0  0  0  0  0  0
   -1.1069   -0.2449    0.0928 C   0  0  0  0  0  0  0  0  0  0  0  0
   -1.8411   -0.9928   -1.0094 C   0  0  0  0  0  0  0  0  0  0  0  0
   -1.5948   -2.3651   -0.9153 O   0  0  0  0  0  0  0  0  0  0  0  0
   -1.5706    1.1426    0.2603 C   0  0  0  0  0  0  0  0  0  0  0  0
   -1.1344    1.7590    1.4210 O   0  0  0  0  0  0  0  0  0  0  0  0
    2.8985    1.5002   -0.4400 H   0  0  0  0  0  0  0  0  0  0  0  0
    4.1474    0.2678   -0.1902 H   0  0  0  0  0  0  0  0  0  0  0  0
    2.7010   -0.2180   -1.1032 H   0  0  0  0  0  0  0  0  0  0  0  0
    0.9811    1.3666    0.9381 H   0  0  0  0  0  0  0  0  0  0  0  0
    0.8236   -0.0668    2.0527 H   0  0  0  0  0  0  0  0  0  0  0  0
    0.6687   -0.0361   -1.0033 H   0  0  0  0  0  0  0  0  0  0  0  0
    0.6344   -1.5374   -0.0674 H   0  0  0  0  0  0  0  0  0  0  0  0
   -1.4187   -0.8220    1.0327 H   0  0  0  0  0  0  0  0  0  0  0  0
   -1.5764   -0.5805   -1.9968 H   0  0  0  0  0  0  0  0  0  0  0  0
   -2.9359   -0.8674   -0.8840 H   0  0  0  0  0  0  0  0  0  0  0  0
   -1.4288   -2.7361   -1.8176 H   0  0  0  0  0  0  0  0  0  0  0  0
   -2.6829    1.2380    0.2212 H   0  0  0  0  0  0  0  0  0  0  0  0
   -1.2074    1.7649   -0.5870 H   0  0  0  0  0  0  0  0  0  0  0  0
   -1.4424    1.2199    2.2178 H   0  0  0  0  0  0  0  0  0  0  0  0
  1  2  1  0
  2  3  1  0
  3  4  1  0
  4  5  1  0
  5  6  1  0
  6  7  1  0
  5  8  1  0
  8  9  1  0
  1 10  1  0
  1 11  1  0
  1 12  1  0
  3 13  1  0
  3 14  1  0
  4 15  1  0
  4 16  1  0
  5 17  1  0
  6 18  1  0
  6 19  1  0
  7 20  1  0
  8 21  1  0
  8 22  1  0
  9 23  1  0
M  END
