
     RDKit          3D

 23 23  0  0  0  0  0  0  0  0999 V2000
    3.1885    0.5909    1.0364 C   0  0  0  0  0  0  0  0  0  0  0  0
    2.0675   -0.2001    0.7163 O   0  0  0  0  0  0  0  0  0  0  0  0
    1.7329   -0.0728   -0.6263 C   0  0  0  0  0  0  0  0  0  0  0  0
    0.5360   -0.9386   -0.8950 C   0  0  0  0  0  0  0  0  0  0  0  0
   -0.6678   -0.5760   -0.0834 C   0  0  0  0  0  0  0  0  0  0  0  0
   -0.4516   -0.6701    1.3016 O   0  0  0  0  0  0  0  0  0  0  0  0
   -1.9709   -1.1656   -0.6296 C   0  0  0  0  0  0  0  0  0  0  0  0
   -1.6918    0.3429   -0.6276 C   0  0  0  0  0  0  0  0  0  0  0  0
   -2.6160    1.1097    0.2634 C   0  0  0  0  0  0  0  0  0  0  0  0
    2.8938    1.6320    0.8046 H   0  0  0  0  0  0  0  0  0  0  0  0
    3.3226    0.5036    2.1396 H   0  0  0  0  0  0  0  0  0  0  0  0
    4.0836    0.2930    0.4802 H   0  0  0  0  0  0  0  0  0  0  0  0
    2.5637   -0.4529   -1.2508 H   0  0  0  0  0  0  0  0  0  0  0  0
    1.4978    0.9828   -0.8592 H   0  0  0  0  0  0  0  0  0  0  0  0
    0.3153   -0.9987   -1.9814 H   0  0  0  0  0  0  0  0  0  0  0  0
    0.8271   -1.9857   -0.5927 H   0  0  0  0  0  0  0  0  0  0  0  0
   -0.8130    0.0798    1.8013 H   0  0  0  0  0  0  0  0  0  0  0  0
   -2.6254   -1.5768    0.1445 H   0  0  0  0  0  0  0  0  0  0  0  0
   -1.9582   -1.6098   -1.6443 H   0  0  0  0  0  0  0  0  0  0  0  0
   -1.5030    0.8346   -1.6077 H   0  0  0  0  0  0  0  0  0  0  0  0
   -2.6860    0.7031    1.2873 H   0  0  0  0  0  0  0  0  0  0  0  0
   -2.3911    2.1743    0.3425 H   0  0  0  0  0  0  0  0  0  0  0  0
   -3.6539    1.0005   -0.1684 H   0  0  0  0  0  0  0  0  0  0  0  0
  1  2  1  0
  2  3  1  0
  3  4  1  0
  4  5  1  0
  5  6  1  0
  5  7  1  0
  7  8  1  0
  8  9  1  0
  8  5  1  0
  1 10  1  0
  1 11  1  0
  1 12  1  0
  3 13  1  0
  3 14  1  0
  4 15  1  0
  4 16  1  0
  6 17  1  0
  7 18  1  0
  7 19  1  0
  8 20  1  0
  9 21  1  0
  9 22  1  0
  9 23  1  0
M  END
