
     RDKit          3D

 21 22  0  0  0  0  0  0  0  0999 V2000
    2.7109   -0.8980    0.7269 C   0  0  0  0  0  0  0  0  0  0  0  0
    1.6352   -0.0307    0.5737 O   0  0  0  0  0  0  0  0  0  0  0  0
    0.8971   -0.2904   -0.5768 C   0  0  0  0  0  0  0  0  0  0  0  0
   -0.2275    0.6831   -0.6553 C   0  0  0  0  0  0  0  0  0  0  0  0
   -1.1828    0.6108   -1.8219 C   0  0  0  0  0  0  0  0  0  0  0  0
   -2.2700    0.8976   -1.0033 O   0  0  0  0  0  0  0  0  0  0  0  0
   -1.4719    0.5668    0.0864 C   0  0  0  0  0  0  0  0  0  0  0  0
   -1.8575   -0.5921    0.9294 C   0  0  0  0  0  0  0  0  0  0  0  0
   -0.4665    1.5686    0.4842 C   0  0  0  0  0  0  0  0  0  0  0  0
    3.2272   -0.6116    1.6598 H   0  0  0  0  0  0  0  0  0  0  0  0
    3.4485   -0.7289   -0.1039 H   0  0  0  0  0  0  0  0  0  0  0  0
    2.3638   -1.9506    0.7528 H   0  0  0  0  0  0  0  0  0  0  0  0
    0.5226   -1.3355   -0.6078 H   0  0  0  0  0  0  0  0  0  0  0  0
    1.5538   -0.1068   -1.4769 H   0  0  0  0  0  0  0  0  0  0  0  0
   -0.9877    1.3332   -2.6361 H   0  0  0  0  0  0  0  0  0  0  0  0
   -1.2118   -0.4321   -2.2419 H   0  0  0  0  0  0  0  0  0  0  0  0
   -2.9861   -0.5882    0.9923 H   0  0  0  0  0  0  0  0  0  0  0  0
   -1.5165   -0.5246    1.9810 H   0  0  0  0  0  0  0  0  0  0  0  0
   -1.4979   -1.5702    0.5505 H   0  0  0  0  0  0  0  0  0  0  0  0
   -0.7913    2.6395    0.3332 H   0  0  0  0  0  0  0  0  0  0  0  0
    0.1084    1.3601    1.4089 H   0  0  0  0  0  0  0  0  0  0  0  0
  1  2  1  0
  2  3  1  0
  3  4  1  0
  4  5  1  0
  5  6  1  0
  6  7  1  0
  7  8  1  0
  7  9  1  0
  7  4  1  0
  9  4  1  0
  1 10  1  0
  1 11  1  0
  1 12  1  0
  3 13  1  0
  3 14  1  0
  5 15  1  0
  5 16  1  0
  8 17  1  0
  8 18  1  0
  8 19  1  0
  9 20  1  0
  9 21  1  0
M  END
