
     RDKit          3D

 21 21  0  0  0  0  0  0  0  0999 V2000
    2.9432    0.5753    0.1755 C   0  0  0  0  0  0  0  0  0  0  0  0
    1.6949    0.1020    0.5300 O   0  0  0  0  0  0  0  0  0  0  0  0
    0.8103    0.0531   -0.5613 C   0  0  0  0  0  0  0  0  0  0  0  0
   -0.4603   -0.5619   -0.0147 C   0  0  0  0  0  0  0  0  0  0  0  0
   -1.1383    0.2213    1.0239 C   0  0  0  0  0  0  0  0  0  0  0  0
   -1.6339    1.5943    0.7113 C   0  0  0  0  0  0  0  0  0  0  0  0
   -1.2789   -0.3102    2.1285 O   0  0  0  0  0  0  0  0  0  0  0  0
   -1.4420   -1.0840   -1.0057 C   0  0  0  0  0  0  0  0  0  0  0  0
   -0.7542   -2.0400   -0.1656 C   0  0  0  0  0  0  0  0  0  0  0  0
    3.6131    0.4864    1.0942 H   0  0  0  0  0  0  0  0  0  0  0  0
    2.8708    1.6838   -0.0369 H   0  0  0  0  0  0  0  0  0  0  0  0
    3.3232    0.0581   -0.6844 H   0  0  0  0  0  0  0  0  0  0  0  0
    1.2255   -0.5279   -1.3685 H   0  0  0  0  0  0  0  0  0  0  0  0
    0.5780    1.0799   -0.8824 H   0  0  0  0  0  0  0  0  0  0  0  0
   -1.2731    2.3053    1.4515 H   0  0  0  0  0  0  0  0  0  0  0  0
   -1.3275    1.8423   -0.3400 H   0  0  0  0  0  0  0  0  0  0  0  0
   -2.8040    1.5318    0.7192 H   0  0  0  0  0  0  0  0  0  0  0  0
   -2.5432   -0.8670   -0.8465 H   0  0  0  0  0  0  0  0  0  0  0  0
   -1.1518   -0.9494   -2.0786 H   0  0  0  0  0  0  0  0  0  0  0  0
   -1.2190   -2.4706    0.7618 H   0  0  0  0  0  0  0  0  0  0  0  0
   -0.0328   -2.7225   -0.6115 H   0  0  0  0  0  0  0  0  0  0  0  0
  1  2  1  0
  2  3  1  0
  3  4  1  0
  4  5  1  0
  5  6  1  0
  5  7  2  0
  4  8  1  0
  8  9  1  0
  9  4  1  0
  1 10  1  0
  1 11  1  0
  1 12  1  0
  3 13  1  0
  3 14  1  0
  6 15  1  0
  6 16  1  0
  6 17  1  0
  8 18  1  0
  8 19  1  0
  9 20  1  0
  9 21  1  0
M  END
