
     RDKit          3D

 21 22  0  0  0  0  0  0  0  0999 V2000
    3.2413    0.4072    0.5932 C   0  0  0  0  0  0  0  0  0  0  0  0
    1.9124    0.1311    0.9816 O   0  0  0  0  0  0  0  0  0  0  0  0
    1.1511   -0.0544   -0.1874 C   0  0  0  0  0  0  0  0  0  0  0  0
   -0.2454   -0.3450    0.1926 C   0  0  0  0  0  0  0  0  0  0  0  0
   -1.0217    0.6690    0.9964 C   0  0  0  0  0  0  0  0  0  0  0  0
   -2.0874    0.6217   -0.1047 C   0  0  0  0  0  0  0  0  0  0  0  0
   -3.3464    0.2300    0.3557 O   0  0  0  0  0  0  0  0  0  0  0  0
   -1.3506   -0.5101   -0.7641 C   0  0  0  0  0  0  0  0  0  0  0  0
   -0.8800   -1.6725    0.0257 C   0  0  0  0  0  0  0  0  0  0  0  0
    3.8496    0.5549    1.5001 H   0  0  0  0  0  0  0  0  0  0  0  0
    3.2196    1.3313   -0.0512 H   0  0  0  0  0  0  0  0  0  0  0  0
    3.5620   -0.4879    0.0087 H   0  0  0  0  0  0  0  0  0  0  0  0
    1.5952   -0.9211   -0.7085 H   0  0  0  0  0  0  0  0  0  0  0  0
    1.2990    0.8222   -0.8355 H   0  0  0  0  0  0  0  0  0  0  0  0
   -1.3470    0.2186    1.9491 H   0  0  0  0  0  0  0  0  0  0  0  0
   -0.4980    1.6262    1.0819 H   0  0  0  0  0  0  0  0  0  0  0  0
   -2.0813    1.5633   -0.6951 H   0  0  0  0  0  0  0  0  0  0  0  0
   -4.0071    0.7762   -0.1631 H   0  0  0  0  0  0  0  0  0  0  0  0
   -1.2069   -0.5008   -1.8554 H   0  0  0  0  0  0  0  0  0  0  0  0
   -0.3089   -2.4291   -0.5431 H   0  0  0  0  0  0  0  0  0  0  0  0
   -1.4496   -2.0305    0.9187 H   0  0  0  0  0  0  0  0  0  0  0  0
  1  2  1  0
  2  3  1  0
  3  4  1  0
  4  5  1  0
  5  6  1  0
  6  7  1  0
  6  8  1  0
  8  9  1  0
  8  4  1  0
  9  4  1  0
  1 10  1  0
  1 11  1  0
  1 12  1  0
  3 13  1  0
  3 14  1  0
  5 15  1  0
  5 16  1  0
  6 17  1  0
  7 18  1  0
  8 19  1  0
  9 20  1  0
  9 21  1  0
M  END
