
     RDKit          3D

 23 23  0  0  0  0  0  0  0  0999 V2000
    3.6496    0.6928   -0.3792 C   0  0  0  0  0  0  0  0  0  0  0  0
    2.3284    1.0585   -0.0577 O   0  0  0  0  0  0  0  0  0  0  0  0
    1.5702   -0.1070   -0.1376 C   0  0  0  0  0  0  0  0  0  0  0  0
    0.1263    0.1165    0.1799 C   0  0  0  0  0  0  0  0  0  0  0  0
   -0.5923   -1.2122    0.0084 C   0  0  0  0  0  0  0  0  0  0  0  0
   -2.0571   -1.0729    0.3804 C   0  0  0  0  0  0  0  0  0  0  0  0
   -2.6363    0.0624   -0.4052 C   0  0  0  0  0  0  0  0  0  0  0  0
   -1.7624    1.2734   -0.4418 C   0  0  0  0  0  0  0  0  0  0  0  0
   -0.4376    1.0214   -0.6924 O   0  0  0  0  0  0  0  0  0  0  0  0
    3.9290   -0.0743    0.4007 H   0  0  0  0  0  0  0  0  0  0  0  0
    3.7139    0.1827   -1.3467 H   0  0  0  0  0  0  0  0  0  0  0  0
    4.3510    1.5246   -0.2449 H   0  0  0  0  0  0  0  0  0  0  0  0
    1.9897   -0.8032    0.6368 H   0  0  0  0  0  0  0  0  0  0  0  0
    1.7276   -0.5789   -1.1268 H   0  0  0  0  0  0  0  0  0  0  0  0
    0.0562    0.4552    1.2323 H   0  0  0  0  0  0  0  0  0  0  0  0
   -0.5737   -1.4382   -1.0824 H   0  0  0  0  0  0  0  0  0  0  0  0
   -0.0934   -2.0100    0.5749 H   0  0  0  0  0  0  0  0  0  0  0  0
   -2.5569   -2.0199    0.0949 H   0  0  0  0  0  0  0  0  0  0  0  0
   -2.1307   -0.9340    1.4787 H   0  0  0  0  0  0  0  0  0  0  0  0
   -3.6202    0.3862    0.0430 H   0  0  0  0  0  0  0  0  0  0  0  0
   -2.9105   -0.3131   -1.4221 H   0  0  0  0  0  0  0  0  0  0  0  0
   -1.9422    1.8458    0.4994 H   0  0  0  0  0  0  0  0  0  0  0  0
   -2.1286    1.9441   -1.2689 H   0  0  0  0  0  0  0  0  0  0  0  0
  1  2  1  0
  2  3  1  0
  3  4  1  0
  4  5  1  0
  5  6  1  0
  6  7  1  0
  7  8  1  0
  8  9  1  0
  9  4  1  0
  1 10  1  0
  1 11  1  0
  1 12  1  0
  3 13  1  0
  3 14  1  0
  4 15  1  0
  5 16  1  0
  5 17  1  0
  6 18  1  0
  6 19  1  0
  7 20  1  0
  7 21  1  0
  8 22  1  0
  8 23  1  0
M  END
