
     RDKit          3D

 19 20  0  0  0  0  0  0  0  0999 V2000
    2.0313    0.4966   -0.9168 C   0  0  0  0  0  0  0  0  0  0  0  0
    1.5834   -0.7718   -1.0543 O   0  0  0  0  0  0  0  0  0  0  0  0
    0.9973   -1.3998   -0.0069 C   0  0  0  0  0  0  0  0  0  0  0  0
   -0.2523   -0.7496    0.5069 C   0  0  0  0  0  0  0  0  0  0  0  0
    0.0010    0.5437    0.9535 O   0  0  0  0  0  0  0  0  0  0  0  0
   -1.1476    1.3231    0.6691 C   0  0  0  0  0  0  0  0  0  0  0  0
   -2.1743    0.3024    0.4349 C   0  0  0  0  0  0  0  0  0  0  0  0
   -2.5620   -0.4117   -0.5881 O   0  0  0  0  0  0  0  0  0  0  0  0
   -1.2625   -0.4920   -0.5607 C   0  0  0  0  0  0  0  0  0  0  0  0
    2.7952    0.6453   -0.1266 H   0  0  0  0  0  0  0  0  0  0  0  0
    1.2798    1.2977   -0.8270 H   0  0  0  0  0  0  0  0  0  0  0  0
    2.5768    0.7422   -1.8874 H   0  0  0  0  0  0  0  0  0  0  0  0
    0.6987   -2.4271   -0.3934 H   0  0  0  0  0  0  0  0  0  0  0  0
    1.6666   -1.5301    0.8780 H   0  0  0  0  0  0  0  0  0  0  0  0
   -0.7510   -1.3637    1.2917 H   0  0  0  0  0  0  0  0  0  0  0  0
   -1.3619    1.9083    1.5746 H   0  0  0  0  0  0  0  0  0  0  0  0
   -0.9272    1.9871   -0.1843 H   0  0  0  0  0  0  0  0  0  0  0  0
   -2.4076   -0.2399    1.4068 H   0  0  0  0  0  0  0  0  0  0  0  0
   -0.7837    0.1392   -1.3745 H   0  0  0  0  0  0  0  0  0  0  0  0
  1  2  1  0
  2  3  1  0
  3  4  1  0
  4  5  1  0
  5  6  1  0
  6  7  1  0
  7  8  1  0
  8  9  1  0
  9  4  1  0
  9  7  1  0
  1 10  1  0
  1 11  1  0
  1 12  1  0
  3 13  1  0
  3 14  1  0
  4 15  1  0
  6 16  1  0
  6 17  1  0
  7 18  1  0
  9 19  1  0
M  END
