
     RDKit          3D

 19 19  0  0  0  0  0  0  0  0999 V2000
    3.1975   -0.3724   -0.2172 C   0  0  0  0  0  0  0  0  0  0  0  0
    2.0392    0.4081   -0.3020 O   0  0  0  0  0  0  0  0  0  0  0  0
    1.0052   -0.1295    0.4636 C   0  0  0  0  0  0  0  0  0  0  0  0
   -0.1868    0.7915    0.2961 C   0  0  0  0  0  0  0  0  0  0  0  0
   -0.5683    0.8557   -1.1154 O   0  0  0  0  0  0  0  0  0  0  0  0
   -1.4859    0.3510   -0.1267 C   0  0  0  0  0  0  0  0  0  0  0  0
   -1.8349   -1.1060   -0.2836 C   0  0  0  0  0  0  0  0  0  0  0  0
   -2.6268    1.2748    0.0899 C   0  0  0  0  0  0  0  0  0  0  0  0
   -2.5040    2.4782    0.2337 O   0  0  0  0  0  0  0  0  0  0  0  0
    3.9576    0.1306   -0.8534 H   0  0  0  0  0  0  0  0  0  0  0  0
    3.0269   -1.4208   -0.4915 H   0  0  0  0  0  0  0  0  0  0  0  0
    3.5581   -0.2538    0.8381 H   0  0  0  0  0  0  0  0  0  0  0  0
    1.3334   -0.1527    1.5157 H   0  0  0  0  0  0  0  0  0  0  0  0
    0.7103   -1.1365    0.1685 H   0  0  0  0  0  0  0  0  0  0  0  0
   -0.0498    1.7790    0.7526 H   0  0  0  0  0  0  0  0  0  0  0  0
   -2.2242   -1.5042    0.6589 H   0  0  0  0  0  0  0  0  0  0  0  0
   -2.6909   -1.1594   -1.0154 H   0  0  0  0  0  0  0  0  0  0  0  0
   -1.0280   -1.7036   -0.7360 H   0  0  0  0  0  0  0  0  0  0  0  0
   -3.6286    0.8699    0.1242 H   0  0  0  0  0  0  0  0  0  0  0  0
  1  2  1  0
  2  3  1  0
  3  4  1  0
  4  5  1  0
  5  6  1  0
  6  7  1  0
  6  8  1  0
  8  9  2  0
  6  4  1  0
  1 10  1  0
  1 11  1  0
  1 12  1  0
  3 13  1  0
  3 14  1  0
  4 15  1  0
  7 16  1  0
  7 17  1  0
  7 18  1  0
  8 19  1  0
M  END
