
     RDKit          3D

 23 22  0  0  0  0  0  0  0  0999 V2000
   -2.5507    1.5074    0.3926 C   0  0  0  0  0  0  0  0  0  0  0  0
   -1.4756    0.6487    0.6522 O   0  0  0  0  0  0  0  0  0  0  0  0
   -1.0388    0.0760   -0.5541 C   0  0  0  0  0  0  0  0  0  0  0  0
    0.1145   -0.8547   -0.3315 C   0  0  0  0  0  0  0  0  0  0  0  0
   -0.3084   -1.9674    0.6030 C   0  0  0  0  0  0  0  0  0  0  0  0
   -1.3702   -2.6982    0.0760 O   0  0  0  0  0  0  0  0  0  0  0  0
    1.3193   -0.1602    0.2494 C   0  0  0  0  0  0  0  0  0  0  0  0
    1.8076    0.8460   -0.5414 O   0  0  0  0  0  0  0  0  0  0  0  0
    2.9127    1.4015    0.1067 C   0  0  0  0  0  0  0  0  0  0  0  0
   -2.9022    1.9641    1.3379 H   0  0  0  0  0  0  0  0  0  0  0  0
   -3.3763    0.9347   -0.1166 H   0  0  0  0  0  0  0  0  0  0  0  0
   -2.2795    2.3173   -0.3166 H   0  0  0  0  0  0  0  0  0  0  0  0
   -0.8400    0.8810   -1.2571 H   0  0  0  0  0  0  0  0  0  0  0  0
   -1.8992   -0.5118   -0.9335 H   0  0  0  0  0  0  0  0  0  0  0  0
    0.3855   -1.3204   -1.2950 H   0  0  0  0  0  0  0  0  0  0  0  0
    0.5211   -2.6934    0.7582 H   0  0  0  0  0  0  0  0  0  0  0  0
   -0.5470   -1.5329    1.5989 H   0  0  0  0  0  0  0  0  0  0  0  0
   -1.2267   -2.7266   -0.9180 H   0  0  0  0  0  0  0  0  0  0  0  0
    1.0454    0.2125    1.2707 H   0  0  0  0  0  0  0  0  0  0  0  0
    2.1192   -0.9107    0.4130 H   0  0  0  0  0  0  0  0  0  0  0  0
    3.7115    0.6433    0.2735 H   0  0  0  0  0  0  0  0  0  0  0  0
    3.3236    2.2651   -0.4413 H   0  0  0  0  0  0  0  0  0  0  0  0
    2.5543    1.6786    1.1308 H   0  0  0  0  0  0  0  0  0  0  0  0
  1  2  1  0
  2  3  1  0
  3  4  1  0
  4  5  1  0
  5  6  1  0
  4  7  1  0
  7  8  1  0
  8  9  1  0
  1 10  1  0
  1 11  1  0
  1 12  1  0
  3 13  1  0
  3 14  1  0
  4 15  1  0
  5 16  1  0
  5 17  1  0
  6 18  1  0
  7 19  1  0
  7 20  1  0
  9 21  1  0
  9 22  1  0
  9 23  1  0
M  END
