
     RDKit          3D

 21 20  0  0  0  0  0  0  0  0999 V2000
    3.6093    0.0555   -0.1138 C   0  0  0  0  0  0  0  0  0  0  0  0
    2.6402   -0.0148   -1.0767 O   0  0  0  0  0  0  0  0  0  0  0  0
    1.3932   -0.4010   -0.6327 C   0  0  0  0  0  0  0  0  0  0  0  0
    0.9022    0.5707    0.3875 C   0  0  0  0  0  0  0  0  0  0  0  0
   -0.4618    0.2273    0.9307 C   0  0  0  0  0  0  0  0  0  0  0  0
   -1.4492    0.1932   -0.0766 O   0  0  0  0  0  0  0  0  0  0  0  0
   -2.7417   -0.1141    0.3205 C   0  0  0  0  0  0  0  0  0  0  0  0
   -3.8808   -0.1865   -0.6253 C   0  0  0  0  0  0  0  0  0  0  0  0
   -3.0096   -0.3520    1.5404 O   0  0  0  0  0  0  0  0  0  0  0  0
    3.7916   -0.9155    0.4035 H   0  0  0  0  0  0  0  0  0  0  0  0
    3.5035    0.8442    0.6283 H   0  0  0  0  0  0  0  0  0  0  0  0
    4.5759    0.2748   -0.6573 H   0  0  0  0  0  0  0  0  0  0  0  0
    1.4636   -1.4406   -0.2558 H   0  0  0  0  0  0  0  0  0  0  0  0
    0.7283   -0.4295   -1.5334 H   0  0  0  0  0  0  0  0  0  0  0  0
    1.6031    0.4953    1.2696 H   0  0  0  0  0  0  0  0  0  0  0  0
    0.9507    1.5823   -0.0142 H   0  0  0  0  0  0  0  0  0  0  0  0
   -0.4128   -0.7077    1.5204 H   0  0  0  0  0  0  0  0  0  0  0  0
   -0.7451    1.0328    1.6399 H   0  0  0  0  0  0  0  0  0  0  0  0
   -4.6561    0.5074   -0.2465 H   0  0  0  0  0  0  0  0  0  0  0  0
   -4.2479   -1.2491   -0.5913 H   0  0  0  0  0  0  0  0  0  0  0  0
   -3.5566    0.0272   -1.6456 H   0  0  0  0  0  0  0  0  0  0  0  0
  1  2  1  0
  2  3  1  0
  3  4  1  0
  4  5  1  0
  5  6  1  0
  6  7  1  0
  7  8  1  0
  7  9  2  0
  1 10  1  0
  1 11  1  0
  1 12  1  0
  3 13  1  0
  3 14  1  0
  4 15  1  0
  4 16  1  0
  5 17  1  0
  5 18  1  0
  8 19  1  0
  8 20  1  0
  8 21  1  0
M  END
