
     RDKit          3D

 23 23  0  0  0  0  0  0  0  0999 V2000
    2.8692    1.0711    0.3413 C   0  0  0  0  0  0  0  0  0  0  0  0
    2.8204   -0.2513   -0.0224 O   0  0  0  0  0  0  0  0  0  0  0  0
    1.5735   -0.7300   -0.3424 C   0  0  0  0  0  0  0  0  0  0  0  0
    0.6147   -0.6020    0.8264 C   0  0  0  0  0  0  0  0  0  0  0  0
   -0.7551   -1.1279    0.4777 C   0  0  0  0  0  0  0  0  0  0  0  0
   -1.5553   -0.9640    1.6155 O   0  0  0  0  0  0  0  0  0  0  0  0
   -1.3849   -0.3943   -0.6746 C   0  0  0  0  0  0  0  0  0  0  0  0
   -1.6230    1.0655   -0.5512 C   0  0  0  0  0  0  0  0  0  0  0  0
   -2.8025    0.1437   -0.4354 C   0  0  0  0  0  0  0  0  0  0  0  0
    2.5096    1.7622   -0.4494 H   0  0  0  0  0  0  0  0  0  0  0  0
    3.9610    1.3051    0.5147 H   0  0  0  0  0  0  0  0  0  0  0  0
    2.3823    1.2919    1.3111 H   0  0  0  0  0  0  0  0  0  0  0  0
    1.0999   -0.2293   -1.1997 H   0  0  0  0  0  0  0  0  0  0  0  0
    1.6869   -1.7984   -0.6191 H   0  0  0  0  0  0  0  0  0  0  0  0
    0.5416    0.4317    1.1846 H   0  0  0  0  0  0  0  0  0  0  0  0
    1.0108   -1.2479    1.6397 H   0  0  0  0  0  0  0  0  0  0  0  0
   -0.6714   -2.1972    0.1868 H   0  0  0  0  0  0  0  0  0  0  0  0
   -1.4972   -0.0272    1.8901 H   0  0  0  0  0  0  0  0  0  0  0  0
   -1.2727   -0.8571   -1.6824 H   0  0  0  0  0  0  0  0  0  0  0  0
   -1.5515    1.7057   -1.4642 H   0  0  0  0  0  0  0  0  0  0  0  0
   -1.2112    1.5384    0.3713 H   0  0  0  0  0  0  0  0  0  0  0  0
   -3.5296    0.0962   -1.2482 H   0  0  0  0  0  0  0  0  0  0  0  0
   -3.2155    0.0152    0.5970 H   0  0  0  0  0  0  0  0  0  0  0  0
  1  2  1  0
  2  3  1  0
  3  4  1  0
  4  5  1  0
  5  6  1  0
  5  7  1  0
  7  8  1  0
  8  9  1  0
  9  7  1  0
  1 10  1  0
  1 11  1  0
  1 12  1  0
  3 13  1  0
  3 14  1  0
  4 15  1  0
  4 16  1  0
  5 17  1  0
  6 18  1  0
  7 19  1  0
  8 20  1  0
  8 21  1  0
  9 22  1  0
  9 23  1  0
M  END
