
     RDKit          3D

 25 25  0  0  0  0  0  0  0  0999 V2000
    3.7258   -0.8476   -0.0737 C   0  0  0  0  0  0  0  0  0  0  0  0
    2.3843   -0.6002   -0.4007 O   0  0  0  0  0  0  0  0  0  0  0  0
    2.0474    0.7186   -0.0275 C   0  0  0  0  0  0  0  0  0  0  0  0
    0.5940    0.9129   -0.4086 C   0  0  0  0  0  0  0  0  0  0  0  0
   -0.2146   -0.1099    0.3501 C   0  0  0  0  0  0  0  0  0  0  0  0
   -1.6807   -0.0289    0.0644 C   0  0  0  0  0  0  0  0  0  0  0  0
   -2.3254    1.2834    0.4026 C   0  0  0  0  0  0  0  0  0  0  0  0
   -2.4513   -1.3217    0.4059 C   0  0  0  0  0  0  0  0  0  0  0  0
   -2.3267   -0.8410   -0.9904 C   0  0  0  0  0  0  0  0  0  0  0  0
    3.9693   -1.8751   -0.3705 H   0  0  0  0  0  0  0  0  0  0  0  0
    3.8121   -0.6694    1.0257 H   0  0  0  0  0  0  0  0  0  0  0  0
    4.4059   -0.1209   -0.5524 H   0  0  0  0  0  0  0  0  0  0  0  0
    2.7032    1.4561   -0.5551 H   0  0  0  0  0  0  0  0  0  0  0  0
    2.1362    0.8659    1.0552 H   0  0  0  0  0  0  0  0  0  0  0  0
    0.5386    0.7081   -1.5109 H   0  0  0  0  0  0  0  0  0  0  0  0
    0.2388    1.9269   -0.2246 H   0  0  0  0  0  0  0  0  0  0  0  0
   -0.0626    0.1013    1.4333 H   0  0  0  0  0  0  0  0  0  0  0  0
    0.1846   -1.1146    0.1342 H   0  0  0  0  0  0  0  0  0  0  0  0
   -2.2880    2.0128   -0.4307 H   0  0  0  0  0  0  0  0  0  0  0  0
   -3.3990    1.0975    0.6148 H   0  0  0  0  0  0  0  0  0  0  0  0
   -1.7934    1.6761    1.3116 H   0  0  0  0  0  0  0  0  0  0  0  0
   -3.3562   -1.1523    1.0133 H   0  0  0  0  0  0  0  0  0  0  0  0
   -1.8767   -2.2113    0.6660 H   0  0  0  0  0  0  0  0  0  0  0  0
   -3.2387   -0.4183   -1.4824 H   0  0  0  0  0  0  0  0  0  0  0  0
   -1.7272   -1.4485   -1.6975 H   0  0  0  0  0  0  0  0  0  0  0  0
  1  2  1  0
  2  3  1  0
  3  4  1  0
  4  5  1  0
  5  6  1  0
  6  7  1  0
  6  8  1  0
  8  9  1  0
  9  6  1  0
  1 10  1  0
  1 11  1  0
  1 12  1  0
  3 13  1  0
  3 14  1  0
  4 15  1  0
  4 16  1  0
  5 17  1  0
  5 18  1  0
  7 19  1  0
  7 20  1  0
  7 21  1  0
  8 22  1  0
  8 23  1  0
  9 24  1  0
  9 25  1  0
M  END
