
     RDKit          3D

 17 16  0  0  0  0  0  0  0  0999 V2000
    2.8603    0.1512   -0.6166 C   0  0  0  0  0  0  0  0  0  0  0  0
    1.8051   -0.7379   -0.3808 O   0  0  0  0  0  0  0  0  0  0  0  0
    0.7149    0.0302    0.0070 C   0  0  0  0  0  0  0  0  0  0  0  0
   -0.4817   -0.7599    0.2932 C   0  0  0  0  0  0  0  0  0  0  0  0
   -0.4906   -1.9678    0.1926 O   0  0  0  0  0  0  0  0  0  0  0  0
   -1.7298   -0.0878    0.7196 C   0  0  0  0  0  0  0  0  0  0  0  0
   -1.4952    1.2795    0.7670 O   0  0  0  0  0  0  0  0  0  0  0  0
   -2.8623   -0.3984   -0.1894 C   0  0  0  0  0  0  0  0  0  0  0  0
   -3.4258    0.5079   -0.7567 O   0  0  0  0  0  0  0  0  0  0  0  0
    3.1193    0.7351    0.2846 H   0  0  0  0  0  0  0  0  0  0  0  0
    3.7549   -0.4421   -0.9006 H   0  0  0  0  0  0  0  0  0  0  0  0
    2.6496    0.8422   -1.4431 H   0  0  0  0  0  0  0  0  0  0  0  0
    1.0370    0.5586    0.9516 H   0  0  0  0  0  0  0  0  0  0  0  0
    0.5467    0.7795   -0.8034 H   0  0  0  0  0  0  0  0  0  0  0  0
   -2.0013   -0.4782    1.7433 H   0  0  0  0  0  0  0  0  0  0  0  0
   -0.8365    1.4136    1.5179 H   0  0  0  0  0  0  0  0  0  0  0  0
   -3.1648   -1.4257   -0.3298 H   0  0  0  0  0  0  0  0  0  0  0  0
  1  2  1  0
  2  3  1  0
  3  4  1  0
  4  5  2  0
  4  6  1  0
  6  7  1  0
  6  8  1  0
  8  9  2  0
  1 10  1  0
  1 11  1  0
  1 12  1  0
  3 13  1  0
  3 14  1  0
  6 15  1  0
  7 16  1  0
  8 17  1  0
M  END
