
     RDKit          3D

 21 22  0  0  0  0  0  0  0  0999 V2000
    3.2860   -0.2328   -0.2986 C   0  0  0  0  0  0  0  0  0  0  0  0
    1.9992   -0.7956   -0.3617 O   0  0  0  0  0  0  0  0  0  0  0  0
    1.1347    0.1624    0.1672 C   0  0  0  0  0  0  0  0  0  0  0  0
   -0.3037   -0.3108    0.1632 C   0  0  0  0  0  0  0  0  0  0  0  0
   -0.8861   -0.6443   -1.1640 C   0  0  0  0  0  0  0  0  0  0  0  0
   -2.0643   -0.0645   -1.3441 C   0  0  0  0  0  0  0  0  0  0  0  0
   -2.4089    0.7339   -0.1410 C   0  0  0  0  0  0  0  0  0  0  0  0
   -1.2664    0.6275    0.8081 C   0  0  0  0  0  0  0  0  0  0  0  0
   -0.9729   -0.7011    1.4226 C   0  0  0  0  0  0  0  0  0  0  0  0
    3.2992    0.6824   -0.8861 H   0  0  0  0  0  0  0  0  0  0  0  0
    3.4457    0.0547    0.7733 H   0  0  0  0  0  0  0  0  0  0  0  0
    4.0659   -0.9416   -0.6175 H   0  0  0  0  0  0  0  0  0  0  0  0
    1.2296    1.0885   -0.4130 H   0  0  0  0  0  0  0  0  0  0  0  0
    1.4301    0.3432    1.2069 H   0  0  0  0  0  0  0  0  0  0  0  0
   -0.4217   -1.2925   -1.9310 H   0  0  0  0  0  0  0  0  0  0  0  0
   -2.6765   -0.1735   -2.2572 H   0  0  0  0  0  0  0  0  0  0  0  0
   -3.3314    0.3206    0.3044 H   0  0  0  0  0  0  0  0  0  0  0  0
   -2.5382    1.7851   -0.4856 H   0  0  0  0  0  0  0  0  0  0  0  0
   -0.9158    1.5227    1.3514 H   0  0  0  0  0  0  0  0  0  0  0  0
   -0.3232   -0.7071    2.3219 H   0  0  0  0  0  0  0  0  0  0  0  0
   -1.7813   -1.4572    1.3808 H   0  0  0  0  0  0  0  0  0  0  0  0
  1  2  1  0
  2  3  1  0
  3  4  1  0
  4  5  1  0
  5  6  2  0
  6  7  1  0
  7  8  1  0
  8  9  1  0
  8  4  1  0
  9  4  1  0
  1 10  1  0
  1 11  1  0
  1 12  1  0
  3 13  1  0
  3 14  1  0
  5 15  1  0
  6 16  1  0
  7 17  1  0
  7 18  1  0
  8 19  1  0
  9 20  1  0
  9 21  1  0
M  END
