
     RDKit          3D

 20 20  0  0  0  0  0  0  0  0999 V2000
    2.5199    0.8856   -0.1039 C   0  0  0  0  0  0  0  0  0  0  0  0
    1.2035    0.7432    0.2615 O   0  0  0  0  0  0  0  0  0  0  0  0
    0.8129   -0.5932    0.2676 C   0  0  0  0  0  0  0  0  0  0  0  0
   -0.6113   -0.7864    0.6599 C   0  0  0  0  0  0  0  0  0  0  0  0
   -1.2422   -2.0513    0.1252 C   0  0  0  0  0  0  0  0  0  0  0  0
   -0.9440   -0.3276    1.9196 O   0  0  0  0  0  0  0  0  0  0  0  0
   -1.5417    0.3434    0.8579 C   0  0  0  0  0  0  0  0  0  0  0  0
   -1.1440    1.7313    0.5069 C   0  0  0  0  0  0  0  0  0  0  0  0
    3.1372    0.3287    0.6282 H   0  0  0  0  0  0  0  0  0  0  0  0
    2.6706    0.5646   -1.1409 H   0  0  0  0  0  0  0  0  0  0  0  0
    2.8052    1.9536   -0.0219 H   0  0  0  0  0  0  0  0  0  0  0  0
    1.0289   -1.1111   -0.6815 H   0  0  0  0  0  0  0  0  0  0  0  0
    1.4509   -1.0930    1.0521 H   0  0  0  0  0  0  0  0  0  0  0  0
   -1.9493   -1.7425   -0.6779 H   0  0  0  0  0  0  0  0  0  0  0  0
   -0.5105   -2.7427   -0.2993 H   0  0  0  0  0  0  0  0  0  0  0  0
   -1.8733   -2.5326    0.9068 H   0  0  0  0  0  0  0  0  0  0  0  0
   -2.6337    0.1392    0.7982 H   0  0  0  0  0  0  0  0  0  0  0  0
   -2.0294    2.3970    0.4743 H   0  0  0  0  0  0  0  0  0  0  0  0
   -0.3934    2.1736    1.1885 H   0  0  0  0  0  0  0  0  0  0  0  0
   -0.7565    1.7200   -0.5544 H   0  0  0  0  0  0  0  0  0  0  0  0
  1  2  1  0
  2  3  1  0
  3  4  1  0
  4  5  1  0
  4  6  1  0
  6  7  1  0
  7  8  1  0
  7  4  1  0
  1  9  1  0
  1 10  1  0
  1 11  1  0
  3 12  1  0
  3 13  1  0
  5 14  1  0
  5 15  1  0
  5 16  1  0
  7 17  1  0
  8 18  1  0
  8 19  1  0
  8 20  1  0
M  END
