
     RDKit          3D

 21 20  0  0  0  0  0  0  0  0999 V2000
    2.3438    1.3152    0.3782 C   0  0  0  0  0  0  0  0  0  0  0  0
    2.5047    0.0250    0.4345 O   0  0  0  0  0  0  0  0  0  0  0  0
    1.9320   -1.0069   -0.1044 C   0  0  0  0  0  0  0  0  0  0  0  0
    0.4834   -1.2745    0.1377 C   0  0  0  0  0  0  0  0  0  0  0  0
   -0.4396   -0.2608   -0.3893 C   0  0  0  0  0  0  0  0  0  0  0  0
   -1.8824   -0.6015   -0.1416 C   0  0  0  0  0  0  0  0  0  0  0  0
   -2.2344   -1.6015    0.4291 O   0  0  0  0  0  0  0  0  0  0  0  0
   -2.8970    0.3569   -0.6339 C   0  0  0  0  0  0  0  0  0  0  0  0
   -2.2840    1.4146   -1.2472 O   0  0  0  0  0  0  0  0  0  0  0  0
    1.4250    1.7807    0.7382 H   0  0  0  0  0  0  0  0  0  0  0  0
    3.2389    1.8282    0.8960 H   0  0  0  0  0  0  0  0  0  0  0  0
    2.5389    1.6694   -0.7033 H   0  0  0  0  0  0  0  0  0  0  0  0
    2.0950   -1.0943   -1.2440 H   0  0  0  0  0  0  0  0  0  0  0  0
    2.5346   -1.9561    0.2133 H   0  0  0  0  0  0  0  0  0  0  0  0
    0.2714   -2.2844   -0.3548 H   0  0  0  0  0  0  0  0  0  0  0  0
    0.3140   -1.5184    1.2228 H   0  0  0  0  0  0  0  0  0  0  0  0
   -0.3177    0.7540   -0.0164 H   0  0  0  0  0  0  0  0  0  0  0  0
   -0.3363   -0.2214   -1.5140 H   0  0  0  0  0  0  0  0  0  0  0  0
   -3.4649   -0.1944   -1.4419 H   0  0  0  0  0  0  0  0  0  0  0  0
   -3.6210    0.6512    0.1547 H   0  0  0  0  0  0  0  0  0  0  0  0
   -2.2045    2.2191   -0.6761 H   0  0  0  0  0  0  0  0  0  0  0  0
  1  2  1  0
  2  3  1  0
  3  4  1  0
  4  5  1  0
  5  6  1  0
  6  7  2  0
  6  8  1  0
  8  9  1  0
  1 10  1  0
  1 11  1  0
  1 12  1  0
  3 13  1  0
  3 14  1  0
  4 15  1  0
  4 16  1  0
  5 17  1  0
  5 18  1  0
  8 19  1  0
  8 20  1  0
  9 21  1  0
M  END
