
     RDKit          3D

  3  2  0  0  0  0  0  0  0  0999 V2000
   -0.0078    0.3767   -0.0000 O   0  0  0  0  0  0  0  0  0  0  0  0
    0.8169   -0.1856    0.0000 H   0  0  0  0  0  0  0  0  0  0  0  0
   -0.8092   -0.1910   -0.0000 H   0  0  0  0  0  0  0  0  0  0  0  0
  1  2  1  0
  1  3  1  0
M  END
