
     RDKit          3D

 17 21  0  0  0  0  0  0  0  0999 V2000
   -1.1515    1.3902    0.3312 O   0  0  0  0  0  0  0  0  0  0  0  0
   -0.6555    0.9563   -0.9004 C   0  0  0  0  0  0  0  0  0  0  0  0
   -0.8108   -0.5145   -0.8482 C   0  0  0  0  0  0  0  0  0  0  0  0
   -0.7701   -0.8167    0.6094 C   0  0  0  0  0  0  0  0  0  0  0  0
   -0.5826    0.5135    1.2478 C   0  0  0  0  0  0  0  0  0  0  0  0
    0.8546    0.4733    0.8255 C   0  0  0  0  0  0  0  0  0  0  0  0
    0.8071    0.7747   -0.6180 C   0  0  0  0  0  0  0  0  0  0  0  0
    0.6629   -0.6720   -0.8971 C   0  0  0  0  0  0  0  0  0  0  0  0
    0.6991   -0.9687    0.5149 C   0  0  0  0  0  0  0  0  0  0  0  0
   -0.9487    1.5045   -1.7774 H   0  0  0  0  0  0  0  0  0  0  0  0
   -1.4524   -1.0404   -1.5052 H   0  0  0  0  0  0  0  0  0  0  0  0
   -1.3890   -1.5598    1.0399 H   0  0  0  0  0  0  0  0  0  0  0  0
   -0.8160    0.6460    2.2897 H   0  0  0  0  0  0  0  0  0  0  0  0
    1.6195    0.8313    1.4642 H   0  0  0  0  0  0  0  0  0  0  0  0
    1.5298    1.3751   -1.1046 H   0  0  0  0  0  0  0  0  0  0  0  0
    1.1659   -1.1690   -1.6648 H   0  0  0  0  0  0  0  0  0  0  0  0
    1.2379   -1.7239    0.9931 H   0  0  0  0  0  0  0  0  0  0  0  0
  1  2  1  0
  2  3  1  0
  3  4  1  0
  4  5  1  0
  5  6  1  0
  6  7  1  0
  7  8  1  0
  8  9  1  0
  5  1  1  0
  9  6  1  0
  7  2  1  0
  8  3  1  0
  9  4  1  0
  2 10  1  0
  3 11  1  0
  4 12  1  0
  5 13  1  0
  6 14  1  0
  7 15  1  0
  8 16  1  0
  9 17  1  0
M  END
