
     RDKit          2D

 13 16  0  0  0  0  0  0  0  0999 V2000
    1.0607    0.0000    0.0000 O   0  0  0  0  0  0  0  0  0  0  0  0
   -0.0000   -1.0607    0.0000 C   0  0  0  0  0  0  0  0  0  0  0  0
   -1.0607    0.0000    0.0000 C   0  0  0  0  0  0  0  0  0  0  0  0
    0.0000    1.0607    0.0000 C   0  0  0  0  0  0  0  0  0  0  0  0
   -2.5095   -2.5095    0.0000 C   0  0  0  0  0  0  0  0  0  0  0  0
   -1.0607   -2.1213    0.0000 C   0  0  0  0  0  0  0  0  0  0  0  0
   -2.1213   -1.0607    0.0000 C   0  0  0  0  0  0  0  0  0  0  0  0
    1.0607   -2.1213    0.0000 H   0  0  0  0  0  0  0  0  0  0  0  0
   -2.1213    1.0607    0.0000 H   0  0  0  0  0  0  0  0  0  0  0  0
    0.0000    2.5607    0.0000 H   0  0  0  0  0  0  0  0  0  0  0  0
   -3.5702   -3.5702    0.0000 H   0  0  0  0  0  0  0  0  0  0  0  0
   -0.3107   -3.4204    0.0000 H   0  0  0  0  0  0  0  0  0  0  0  0
   -3.4204   -0.3107    0.0000 H   0  0  0  0  0  0  0  0  0  0  0  0
  1  2  1  0
  2  3  1  0
  3  4  1  0
  4  5  1  0
  5  6  1  0
  6  7  1  0
  4  1  1  0
  7  5  1  0
  6  2  1  0
  7  3  1  0
  2  8  1  0
  3  9  1  0
  4 10  1  0
  5 11  1  0
  6 12  1  0
  7 13  1  0
M  END
