
     RDKit          3D

 15 18  0  0  0  0  0  0  0  0999 V2000
   -1.8418   -0.5288    0.8315 O   0  0  0  0  0  0  0  0  0  0  0  0
   -1.0462   -1.0213   -0.2107 C   0  0  0  0  0  0  0  0  0  0  0  0
    0.3773   -1.3831    0.0685 C   0  0  0  0  0  0  0  0  0  0  0  0
    0.9328   -1.0167    1.2952 O   0  0  0  0  0  0  0  0  0  0  0  0
    1.3626   -0.4003   -0.0082 C   0  0  0  0  0  0  0  0  0  0  0  0
    1.0358    1.0365    0.0057 C   0  0  0  0  0  0  0  0  0  0  0  0
    0.4378    1.6731   -1.0713 O   0  0  0  0  0  0  0  0  0  0  0  0
   -0.3267    1.3522    0.1858 C   0  0  0  0  0  0  0  0  0  0  0  0
   -1.3673    0.3489   -0.1545 C   0  0  0  0  0  0  0  0  0  0  0  0
   -1.6059   -1.6883   -0.9313 H   0  0  0  0  0  0  0  0  0  0  0  0
    0.6495   -2.4362   -0.2089 H   0  0  0  0  0  0  0  0  0  0  0  0
    2.4224   -0.6488   -0.2256 H   0  0  0  0  0  0  0  0  0  0  0  0
    1.8025    1.6799    0.5112 H   0  0  0  0  0  0  0  0  0  0  0  0
   -0.6348    2.2788    0.7025 H   0  0  0  0  0  0  0  0  0  0  0  0
   -2.1980    0.7541   -0.7899 H   0  0  0  0  0  0  0  0  0  0  0  0
  1  2  1  0
  2  3  1  0
  3  4  1  0
  4  5  1  0
  5  6  1  0
  6  7  1  0
  7  8  1  0
  8  9  1  0
  9  1  1  0
  9  2  1  0
  5  3  1  0
  8  6  1  0
  2 10  1  0
  3 11  1  0
  5 12  1  0
  6 13  1  0
  8 14  1  0
  9 15  1  0
M  END
