
     RDKit          3D

 17 21  0  0  0  0  0  0  0  0999 V2000
   -1.6533    0.9063   -0.9283 O   0  0  0  0  0  0  0  0  0  0  0  0
   -1.4608   -0.4334   -0.6911 C   0  0  0  0  0  0  0  0  0  0  0  0
   -1.4936    0.5943    0.4188 C   0  0  0  0  0  0  0  0  0  0  0  0
   -0.1390    0.6151    1.0482 C   0  0  0  0  0  0  0  0  0  0  0  0
    0.3811   -0.7697    0.7088 C   0  0  0  0  0  0  0  0  0  0  0  0
   -0.0659   -0.9817   -0.7195 C   0  0  0  0  0  0  0  0  0  0  0  0
    0.9414    0.1300   -1.0618 C   0  0  0  0  0  0  0  0  0  0  0  0
    0.9298    1.1058    0.0551 C   0  0  0  0  0  0  0  0  0  0  0  0
    1.6063   -0.1609    0.1991 C   0  0  0  0  0  0  0  0  0  0  0  0
   -2.3133   -1.1502   -0.7755 H   0  0  0  0  0  0  0  0  0  0  0  0
   -2.4102    0.7221    1.0222 H   0  0  0  0  0  0  0  0  0  0  0  0
   -0.0314    0.9517    2.0620 H   0  0  0  0  0  0  0  0  0  0  0  0
    0.3318   -1.5457    1.4133 H   0  0  0  0  0  0  0  0  0  0  0  0
    0.1134   -1.9386   -1.1709 H   0  0  0  0  0  0  0  0  0  0  0  0
    1.3515    0.2533   -2.0285 H   0  0  0  0  0  0  0  0  0  0  0  0
    1.2986    2.0955    0.0555 H   0  0  0  0  0  0  0  0  0  0  0  0
    2.6137   -0.3939    0.3926 H   0  0  0  0  0  0  0  0  0  0  0  0
  1  2  1  0
  2  3  1  0
  3  4  1  0
  4  5  1  0
  5  6  1  0
  6  7  1  0
  7  8  1  0
  8  9  1  0
  3  1  1  0
  8  4  1  0
  6  2  1  0
  9  7  1  0
  9  5  1  0
  2 10  1  0
  3 11  1  0
  4 12  1  0
  5 13  1  0
  6 14  1  0
  7 15  1  0
  8 16  1  0
  9 17  1  0
M  END
