
     RDKit          3D

 10 12  0  0  0  0  0  0  0  0999 V2000
    1.4095   -0.0850   -1.0296 O   0  0  0  0  0  0  0  0  0  0  0  0
    0.5587    0.7650   -0.3473 C   0  0  0  0  0  0  0  0  0  0  0  0
    0.9109   -0.3929    0.2545 C   0  0  0  0  0  0  0  0  0  0  0  0
   -0.5105   -0.9057    0.3079 C   0  0  0  0  0  0  0  0  0  0  0  0
   -1.2786   -0.8693   -0.8339 O   0  0  0  0  0  0  0  0  0  0  0  0
   -0.9167    0.3867   -0.4173 C   0  0  0  0  0  0  0  0  0  0  0  0
    0.7743    1.8259   -0.2292 H   0  0  0  0  0  0  0  0  0  0  0  0
    1.6673   -0.7443    0.9446 H   0  0  0  0  0  0  0  0  0  0  0  0
   -0.9488   -1.0027    1.3012 H   0  0  0  0  0  0  0  0  0  0  0  0
   -1.6662    1.0224    0.0490 H   0  0  0  0  0  0  0  0  0  0  0  0
  1  2  1  0
  2  3  1  0
  3  4  1  0
  4  5  1  0
  5  6  1  0
  3  1  1  0
  6  4  1  0
  6  2  1  0
  2  7  1  0
  3  8  1  0
  4  9  1  0
  6 10  1  0
M  END
