
     RDKit          3D

 15 18  0  0  0  0  0  0  0  0999 V2000
   -0.7483    1.5881   -0.3423 O   0  0  0  0  0  0  0  0  0  0  0  0
   -1.2311    0.3165    0.0467 C   0  0  0  0  0  0  0  0  0  0  0  0
   -0.6338   -0.8024   -0.7684 C   0  0  0  0  0  0  0  0  0  0  0  0
    0.2515   -0.3008   -1.7480 O   0  0  0  0  0  0  0  0  0  0  0  0
    1.0806    0.0626   -0.6608 C   0  0  0  0  0  0  0  0  0  0  0  0
    0.4943    1.1687    0.1746 C   0  0  0  0  0  0  0  0  0  0  0  0
   -0.2827    0.4031    1.2140 C   0  0  0  0  0  0  0  0  0  0  0  0
    0.3223   -0.8222    1.3421 O   0  0  0  0  0  0  0  0  0  0  0  0
    0.5833   -1.1710    0.0371 C   0  0  0  0  0  0  0  0  0  0  0  0
   -2.2925    0.2659    0.2646 H   0  0  0  0  0  0  0  0  0  0  0  0
   -1.2905   -1.5995   -1.0867 H   0  0  0  0  0  0  0  0  0  0  0  0
    2.1298    0.1195   -0.9129 H   0  0  0  0  0  0  0  0  0  0  0  0
    1.1578    1.9517    0.5164 H   0  0  0  0  0  0  0  0  0  0  0  0
   -0.6081    0.9301    2.0950 H   0  0  0  0  0  0  0  0  0  0  0  0
    1.0672   -2.1102   -0.1714 H   0  0  0  0  0  0  0  0  0  0  0  0
  1  2  1  0
  2  3  1  0
  3  4  1  0
  4  5  1  0
  5  6  1  0
  6  7  1  0
  7  8  1  0
  8  9  1  0
  6  1  1  0
  7  2  1  0
  9  3  1  0
  9  5  1  0
  2 10  1  0
  3 11  1  0
  5 12  1  0
  6 13  1  0
  7 14  1  0
  9 15  1  0
M  END
