
     RDKit          3D

 14 17  0  0  0  0  0  0  0  0999 V2000
   -1.4478    0.8200   -0.5528 O   0  0  0  0  0  0  0  0  0  0  0  0
   -1.0719   -0.5146   -0.2781 C   0  0  0  0  0  0  0  0  0  0  0  0
   -0.6822   -0.0161    1.0913 C   0  0  0  0  0  0  0  0  0  0  0  0
    0.4999   -0.6088    1.4125 O   0  0  0  0  0  0  0  0  0  0  0  0
    1.2311   -0.6212    0.2204 C   0  0  0  0  0  0  0  0  0  0  0  0
    0.2897   -0.7627   -0.8687 C   0  0  0  0  0  0  0  0  0  0  0  0
    0.9168    0.6173   -0.4594 C   0  0  0  0  0  0  0  0  0  0  0  0
   -0.3183    1.1730    0.1971 C   0  0  0  0  0  0  0  0  0  0  0  0
   -1.8276   -1.2652   -0.3614 H   0  0  0  0  0  0  0  0  0  0  0  0
   -1.4441    0.1401    1.8188 H   0  0  0  0  0  0  0  0  0  0  0  0
    2.2062   -1.1316    0.1870 H   0  0  0  0  0  0  0  0  0  0  0  0
    0.4512   -1.1118   -1.8636 H   0  0  0  0  0  0  0  0  0  0  0  0
    1.4847    1.1460   -1.1946 H   0  0  0  0  0  0  0  0  0  0  0  0
   -0.2875    2.1356    0.6516 H   0  0  0  0  0  0  0  0  0  0  0  0
  1  2  1  0
  2  3  1  0
  3  4  1  0
  4  5  1  0
  5  6  1  0
  6  7  1  0
  7  8  1  0
  8  1  1  0
  6  2  1  0
  8  3  1  0
  7  5  1  0
  2  9  1  0
  3 10  1  0
  5 11  1  0
  6 12  1  0
  7 13  1  0
  8 14  1  0
M  END
