
     RDKit          3D

 15 18  0  0  0  0  0  0  0  0999 V2000
    0.0122    1.4391   -0.6069 O   0  0  0  0  0  0  0  0  0  0  0  0
   -1.1062    0.9075   -0.0593 C   0  0  0  0  0  0  0  0  0  0  0  0
   -0.9232    0.0056    1.0984 C   0  0  0  0  0  0  0  0  0  0  0  0
    0.3580   -0.1713    1.5069 O   0  0  0  0  0  0  0  0  0  0  0  0
    1.3045   -0.2449    0.5376 C   0  0  0  0  0  0  0  0  0  0  0  0
    1.1183    0.6515   -0.6326 C   0  0  0  0  0  0  0  0  0  0  0  0
    0.9145   -0.7933   -0.7602 C   0  0  0  0  0  0  0  0  0  0  0  0
   -0.3665   -1.2334   -0.8954 O   0  0  0  0  0  0  0  0  0  0  0  0
   -1.3104   -0.5401   -0.2020 C   0  0  0  0  0  0  0  0  0  0  0  0
   -1.9874    1.5640   -0.0224 H   0  0  0  0  0  0  0  0  0  0  0  0
   -1.6787    0.0163    1.9138 H   0  0  0  0  0  0  0  0  0  0  0  0
    2.3250   -0.5063    0.8966 H   0  0  0  0  0  0  0  0  0  0  0  0
    2.0275    1.1271   -1.0505 H   0  0  0  0  0  0  0  0  0  0  0  0
    1.6682   -1.3528   -1.3475 H   0  0  0  0  0  0  0  0  0  0  0  0
   -2.3557   -0.8690   -0.3765 H   0  0  0  0  0  0  0  0  0  0  0  0
  1  2  1  0
  2  3  1  0
  3  4  1  0
  4  5  1  0
  5  6  1  0
  6  7  1  0
  7  8  1  0
  8  9  1  0
  6  1  1  0
  9  2  1  0
  9  3  1  0
  7  5  1  0
  2 10  1  0
  3 11  1  0
  5 12  1  0
  6 13  1  0
  7 14  1  0
  9 15  1  0
M  END
