
     RDKit          3D

 14 17  0  0  0  0  0  0  0  0999 V2000
   -1.5309    0.5727    0.3717 O   0  0  0  0  0  0  0  0  0  0  0  0
   -0.7738   -0.3689    1.1109 C   0  0  0  0  0  0  0  0  0  0  0  0
   -0.8148   -1.4437    0.1924 O   0  0  0  0  0  0  0  0  0  0  0  0
   -0.2355   -0.8001   -0.9171 C   0  0  0  0  0  0  0  0  0  0  0  0
   -0.7403    0.6084   -0.7871 C   0  0  0  0  0  0  0  0  0  0  0  0
    0.5959    0.9805   -0.2054 C   0  0  0  0  0  0  0  0  0  0  0  0
    0.6180    0.1514    1.0192 C   0  0  0  0  0  0  0  0  0  0  0  0
    1.0635   -0.3483   -0.3428 C   0  0  0  0  0  0  0  0  0  0  0  0
   -1.1642   -0.5919    2.0753 H   0  0  0  0  0  0  0  0  0  0  0  0
   -0.2739   -1.2929   -1.8604 H   0  0  0  0  0  0  0  0  0  0  0  0
   -1.1079    1.1237   -1.6402 H   0  0  0  0  0  0  0  0  0  0  0  0
    1.0581    1.9316   -0.3325 H   0  0  0  0  0  0  0  0  0  0  0  0
    1.2938    0.2584    1.8405 H   0  0  0  0  0  0  0  0  0  0  0  0
    2.0122   -0.7808   -0.5244 H   0  0  0  0  0  0  0  0  0  0  0  0
  1  2  1  0
  2  3  1  0
  3  4  1  0
  4  5  1  0
  5  6  1  0
  6  7  1  0
  7  8  1  0
  5  1  1  0
  8  6  1  0
  7  2  1  0
  8  4  1  0
  2  9  1  0
  4 10  1  0
  5 11  1  0
  6 12  1  0
  7 13  1  0
  8 14  1  0
M  END
