
     RDKit          2D

 15 18  0  0  0  0  0  0  0  0999 V2000
    1.2760    0.0000    0.0000 O   0  0  0  0  0  0  0  0  0  0  0  0
    0.3943    1.2135    0.0000 C   0  0  0  0  0  0  0  0  0  0  0  0
   -1.0323    0.7500    0.0000 O   0  0  0  0  0  0  0  0  0  0  0  0
   -1.0323   -0.7500    0.0000 C   0  0  0  0  0  0  0  0  0  0  0  0
    0.3943   -1.2135    0.0000 C   0  0  0  0  0  0  0  0  0  0  0  0
   -0.0692   -2.6401    0.0000 C   0  0  0  0  0  0  0  0  0  0  0  0
   -0.5328   -4.0667    0.0000 O   0  0  0  0  0  0  0  0  0  0  0  0
   -1.9593   -3.6032    0.0000 C   0  0  0  0  0  0  0  0  0  0  0  0
   -1.4958   -2.1766    0.0000 C   0  0  0  0  0  0  0  0  0  0  0  0
    0.8578    2.6401    0.0000 H   0  0  0  0  0  0  0  0  0  0  0  0
   -2.5138   -0.5153    0.0000 H   0  0  0  0  0  0  0  0  0  0  0  0
    1.7308   -1.8945    0.0000 H   0  0  0  0  0  0  0  0  0  0  0  0
    1.3574   -3.1036    0.0000 H   0  0  0  0  0  0  0  0  0  0  0  0
   -3.2958   -4.2842    0.0000 H   0  0  0  0  0  0  0  0  0  0  0  0
   -2.9224   -1.7131    0.0000 H   0  0  0  0  0  0  0  0  0  0  0  0
  1  2  1  0
  2  3  1  0
  3  4  1  0
  4  5  1  0
  5  6  1  0
  6  7  1  0
  7  8  1  0
  8  9  1  0
  5  1  1  0
  9  6  1  0
  8  2  1  0
  9  4  1  0
  2 10  1  0
  4 11  1  0
  5 12  1  0
  6 13  1  0
  8 14  1  0
  9 15  1  0
M  END
