
     RDKit          3D

 15 18  0  0  0  0  0  0  0  0999 V2000
    1.5862   -0.3728    1.2206 O   0  0  0  0  0  0  0  0  0  0  0  0
    1.4163    0.5813    0.2462 C   0  0  0  0  0  0  0  0  0  0  0  0
    0.1245    1.3641    0.2916 C   0  0  0  0  0  0  0  0  0  0  0  0
   -0.7438    0.7778    1.2245 O   0  0  0  0  0  0  0  0  0  0  0  0
   -1.2609   -0.3270    0.5775 C   0  0  0  0  0  0  0  0  0  0  0  0
   -1.0688   -0.0439   -0.9232 C   0  0  0  0  0  0  0  0  0  0  0  0
   -0.4835    1.1984   -0.9569 O   0  0  0  0  0  0  0  0  0  0  0  0
   -0.3202   -1.1007   -0.2341 C   0  0  0  0  0  0  0  0  0  0  0  0
    1.1306   -0.8310   -0.0049 C   0  0  0  0  0  0  0  0  0  0  0  0
    2.2628    1.0280   -0.2889 H   0  0  0  0  0  0  0  0  0  0  0  0
    0.2561    2.4184    0.5575 H   0  0  0  0  0  0  0  0  0  0  0  0
   -2.2265   -0.7673    0.8856 H   0  0  0  0  0  0  0  0  0  0  0  0
   -1.9077   -0.2725   -1.6030 H   0  0  0  0  0  0  0  0  0  0  0  0
   -0.5896   -2.1422   -0.4583 H   0  0  0  0  0  0  0  0  0  0  0  0
    1.8243   -1.5106   -0.5340 H   0  0  0  0  0  0  0  0  0  0  0  0
  1  2  1  0
  2  3  1  0
  3  4  1  0
  4  5  1  0
  5  6  1  0
  6  7  1  0
  6  8  1  0
  8  9  1  0
  9  1  1  0
  9  2  1  0
  7  3  1  0
  8  5  1  0
  2 10  1  0
  3 11  1  0
  5 12  1  0
  6 13  1  0
  8 14  1  0
  9 15  1  0
M  END
