
     RDKit          3D

 18 18  0  0  0  0  0  0  0  0999 V2000
    1.0915    1.7183   -0.1914 O   0  0  0  0  0  0  0  0  0  0  0  0
    0.9706    0.5087   -0.2573 C   0  0  0  0  0  0  0  0  0  0  0  0
    2.1567   -0.3409   -0.0235 C   0  0  0  0  0  0  0  0  0  0  0  0
    3.2968    0.4109    0.2522 O   0  0  0  0  0  0  0  0  0  0  0  0
   -0.3301   -0.0879   -0.5634 C   0  0  0  0  0  0  0  0  0  0  0  0
   -0.9248   -1.0074    0.4441 C   0  0  0  0  0  0  0  0  0  0  0  0
   -2.1660   -0.1521    0.5740 C   0  0  0  0  0  0  0  0  0  0  0  0
   -1.4711    0.8911   -0.2705 C   0  0  0  0  0  0  0  0  0  0  0  0
    2.4122   -0.9642   -0.9248 H   0  0  0  0  0  0  0  0  0  0  0  0
    2.0187   -1.0112    0.8738 H   0  0  0  0  0  0  0  0  0  0  0  0
    3.4367    1.1403   -0.4169 H   0  0  0  0  0  0  0  0  0  0  0  0
   -0.3529   -0.5091   -1.5755 H   0  0  0  0  0  0  0  0  0  0  0  0
   -1.1923   -2.0039    0.0284 H   0  0  0  0  0  0  0  0  0  0  0  0
   -0.3890   -1.1433    1.3895 H   0  0  0  0  0  0  0  0  0  0  0  0
   -3.0578   -0.5252    0.0264 H   0  0  0  0  0  0  0  0  0  0  0  0
   -2.3806    0.1478    1.6205 H   0  0  0  0  0  0  0  0  0  0  0  0
   -1.9754    1.1806   -1.1909 H   0  0  0  0  0  0  0  0  0  0  0  0
   -1.1433    1.7475    0.3541 H   0  0  0  0  0  0  0  0  0  0  0  0
  1  2  2  0
  2  3  1  0
  3  4  1  0
  2  5  1  0
  5  6  1  0
  6  7  1  0
  7  8  1  0
  8  5  1  0
  3  9  1  0
  3 10  1  0
  4 11  1  0
  5 12  1  0
  6 13  1  0
  6 14  1  0
  7 15  1  0
  7 16  1  0
  8 17  1  0
  8 18  1  0
M  END
