
     RDKit          3D

 18 18  0  0  0  0  0  0  0  0999 V2000
    1.6885   -1.7528   -0.9282 O   0  0  0  0  0  0  0  0  0  0  0  0
    1.3760   -0.8053   -0.2342 C   0  0  0  0  0  0  0  0  0  0  0  0
    2.3859    0.2749   -0.0654 C   0  0  0  0  0  0  0  0  0  0  0  0
    1.8869    1.3008    0.7569 O   0  0  0  0  0  0  0  0  0  0  0  0
    0.0532   -0.7584    0.3958 C   0  0  0  0  0  0  0  0  0  0  0  0
   -1.0386   -0.3107   -0.5623 C   0  0  0  0  0  0  0  0  0  0  0  0
   -2.4124   -0.2577    0.0812 C   0  0  0  0  0  0  0  0  0  0  0  0
   -1.7214    1.0067   -0.2976 C   0  0  0  0  0  0  0  0  0  0  0  0
    3.3158   -0.0774    0.4197 H   0  0  0  0  0  0  0  0  0  0  0  0
    2.6688    0.7398   -1.0200 H   0  0  0  0  0  0  0  0  0  0  0  0
    2.0940    1.0653    1.6913 H   0  0  0  0  0  0  0  0  0  0  0  0
    0.0170   -0.0925    1.2820 H   0  0  0  0  0  0  0  0  0  0  0  0
   -0.2652   -1.7708    0.7752 H   0  0  0  0  0  0  0  0  0  0  0  0
   -0.9418   -0.6569   -1.6128 H   0  0  0  0  0  0  0  0  0  0  0  0
   -2.5140   -0.4607    1.1527 H   0  0  0  0  0  0  0  0  0  0  0  0
   -3.2367   -0.6449   -0.5492 H   0  0  0  0  0  0  0  0  0  0  0  0
   -1.3128    1.6560    0.4985 H   0  0  0  0  0  0  0  0  0  0  0  0
   -2.0431    1.5447   -1.2207 H   0  0  0  0  0  0  0  0  0  0  0  0
  1  2  2  0
  2  3  1  0
  3  4  1  0
  2  5  1  0
  5  6  1  0
  6  7  1  0
  7  8  1  0
  8  6  1  0
  3  9  1  0
  3 10  1  0
  4 11  1  0
  5 12  1  0
  5 13  1  0
  6 14  1  0
  7 15  1  0
  7 16  1  0
  8 17  1  0
  8 18  1  0
M  END
