
     RDKit          3D

 17 17  0  0  0  0  0  0  0  0999 V2000
    1.3694   -0.6941   -2.0677 O   0  0  0  0  0  0  0  0  0  0  0  0
    1.0943   -0.3146   -0.9427 C   0  0  0  0  0  0  0  0  0  0  0  0
    2.0663   -0.5415    0.1570 C   0  0  0  0  0  0  0  0  0  0  0  0
    1.5362   -0.0300    1.3233 O   0  0  0  0  0  0  0  0  0  0  0  0
   -0.1803    0.3508   -0.7085 C   0  0  0  0  0  0  0  0  0  0  0  0
   -1.3149   -0.6652   -0.9059 C   0  0  0  0  0  0  0  0  0  0  0  0
   -2.3397   -0.0359   -0.2365 O   0  0  0  0  0  0  0  0  0  0  0  0
   -1.7865    0.8223    0.6966 C   0  0  0  0  0  0  0  0  0  0  0  0
   -0.4099    0.7449    0.5830 O   0  0  0  0  0  0  0  0  0  0  0  0
    2.9995    0.0300   -0.0580 H   0  0  0  0  0  0  0  0  0  0  0  0
    2.2802   -1.6407    0.2287 H   0  0  0  0  0  0  0  0  0  0  0  0
    1.7795    0.9246    1.3949 H   0  0  0  0  0  0  0  0  0  0  0  0
   -0.3942    1.1999   -1.3752 H   0  0  0  0  0  0  0  0  0  0  0  0
   -1.5036   -0.8719   -1.9597 H   0  0  0  0  0  0  0  0  0  0  0  0
   -0.9619   -1.5827   -0.3587 H   0  0  0  0  0  0  0  0  0  0  0  0
   -2.0588    0.4633    1.7087 H   0  0  0  0  0  0  0  0  0  0  0  0
   -2.1755    1.8407    0.4800 H   0  0  0  0  0  0  0  0  0  0  0  0
  1  2  2  0
  2  3  1  0
  3  4  1  0
  2  5  1  0
  5  6  1  0
  6  7  1  0
  7  8  1  0
  8  9  1  0
  9  5  1  0
  3 10  1  0
  3 11  1  0
  4 12  1  0
  5 13  1  0
  6 14  1  0
  6 15  1  0
  8 16  1  0
  8 17  1  0
M  END
