
     RDKit          3D

 19 20  0  0  0  0  0  0  0  0999 V2000
   -0.1247   -0.2565    2.3469 O   0  0  0  0  0  0  0  0  0  0  0  0
   -0.5654   -0.1772    1.1986 C   0  0  0  0  0  0  0  0  0  0  0  0
    0.3115   -0.0460    0.1527 O   0  0  0  0  0  0  0  0  0  0  0  0
    1.7063    0.0092    0.2598 C   0  0  0  0  0  0  0  0  0  0  0  0
    2.6276   -0.5681   -0.7135 C   0  0  0  0  0  0  0  0  0  0  0  0
    2.5220    0.9389   -0.5654 C   0  0  0  0  0  0  0  0  0  0  0  0
   -2.0220   -0.2222    0.9415 C   0  0  0  0  0  0  0  0  0  0  0  0
   -2.4081   -0.8248   -0.3672 C   0  0  0  0  0  0  0  0  0  0  0  0
   -2.4874    0.6660   -0.1664 C   0  0  0  0  0  0  0  0  0  0  0  0
    2.0455   -0.0683    1.3322 H   0  0  0  0  0  0  0  0  0  0  0  0
    2.3158   -0.9165   -1.7247 H   0  0  0  0  0  0  0  0  0  0  0  0
    3.5831   -1.0548   -0.3924 H   0  0  0  0  0  0  0  0  0  0  0  0
    3.3861    1.4888   -0.1248 H   0  0  0  0  0  0  0  0  0  0  0  0
    1.9922    1.5227   -1.3287 H   0  0  0  0  0  0  0  0  0  0  0  0
   -2.6706   -0.3290    1.8281 H   0  0  0  0  0  0  0  0  0  0  0  0
   -1.6250   -1.2054   -1.0355 H   0  0  0  0  0  0  0  0  0  0  0  0
   -3.3362   -1.4183   -0.3482 H   0  0  0  0  0  0  0  0  0  0  0  0
   -1.7649    1.3233   -0.6844 H   0  0  0  0  0  0  0  0  0  0  0  0
   -3.4858    1.1381   -0.0283 H   0  0  0  0  0  0  0  0  0  0  0  0
  1  2  2  0
  2  3  1  0
  3  4  1  0
  4  5  1  0
  5  6  1  0
  2  7  1  0
  7  8  1  0
  8  9  1  0
  6  4  1  0
  9  7  1  0
  4 10  1  0
  5 11  1  0
  5 12  1  0
  6 13  1  0
  6 14  1  0
  7 15  1  0
  8 16  1  0
  8 17  1  0
  9 18  1  0
  9 19  1  0
M  END
