
     RDKit          3D

 19 19  0  0  0  0  0  0  0  0999 V2000
   -1.8477   -0.0146   -1.7342 O   0  0  0  0  0  0  0  0  0  0  0  0
   -1.5478   -0.0711   -0.5557 C   0  0  0  0  0  0  0  0  0  0  0  0
   -2.6503   -0.2743    0.4198 C   0  0  0  0  0  0  0  0  0  0  0  0
   -2.1607   -0.3188    1.7286 O   0  0  0  0  0  0  0  0  0  0  0  0
   -0.1744    0.0499   -0.0612 C   0  0  0  0  0  0  0  0  0  0  0  0
    0.6020    1.2083   -0.7549 C   0  0  0  0  0  0  0  0  0  0  0  0
    1.0095   -0.2700   -0.8763 C   0  0  0  0  0  0  0  0  0  0  0  0
    2.2581   -0.7100   -0.1437 C   0  0  0  0  0  0  0  0  0  0  0  0
    2.6427    0.3023    0.7061 O   0  0  0  0  0  0  0  0  0  0  0  0
   -3.1413   -1.2666    0.2207 H   0  0  0  0  0  0  0  0  0  0  0  0
   -3.4000    0.5411    0.3781 H   0  0  0  0  0  0  0  0  0  0  0  0
   -1.9647    0.5955    2.0504 H   0  0  0  0  0  0  0  0  0  0  0  0
   -0.0383   -0.0196    1.0401 H   0  0  0  0  0  0  0  0  0  0  0  0
    1.1917    1.8459   -0.0665 H   0  0  0  0  0  0  0  0  0  0  0  0
    0.1491    1.6895   -1.6215 H   0  0  0  0  0  0  0  0  0  0  0  0
    0.9264   -0.6664   -1.9071 H   0  0  0  0  0  0  0  0  0  0  0  0
    3.0624   -1.0212   -0.8363 H   0  0  0  0  0  0  0  0  0  0  0  0
    1.9637   -1.5891    0.4986 H   0  0  0  0  0  0  0  0  0  0  0  0
    3.1195   -0.0108    1.5151 H   0  0  0  0  0  0  0  0  0  0  0  0
  1  2  2  0
  2  3  1  0
  3  4  1  0
  2  5  1  0
  5  6  1  0
  6  7  1  0
  7  8  1  0
  8  9  1  0
  7  5  1  0
  3 10  1  0
  3 11  1  0
  4 12  1  0
  5 13  1  0
  6 14  1  0
  6 15  1  0
  7 16  1  0
  8 17  1  0
  8 18  1  0
  9 19  1  0
M  END
