
     RDKit          3D

 21 21  0  0  0  0  0  0  0  0999 V2000
    0.6194    1.2619    0.3189 O   0  0  0  0  0  0  0  0  0  0  0  0
    1.2289    0.2447    0.0855 C   0  0  0  0  0  0  0  0  0  0  0  0
    2.7088    0.2474    0.1136 C   0  0  0  0  0  0  0  0  0  0  0  0
    3.2315    1.4976    0.4242 O   0  0  0  0  0  0  0  0  0  0  0  0
    0.5031   -0.9908   -0.2251 C   0  0  0  0  0  0  0  0  0  0  0  0
   -0.9773   -0.8844   -0.2395 C   0  0  0  0  0  0  0  0  0  0  0  0
   -1.6488   -0.4515    1.0228 C   0  0  0  0  0  0  0  0  0  0  0  0
   -2.3299    0.6926    0.2592 C   0  0  0  0  0  0  0  0  0  0  0  0
   -1.5921    0.2656   -0.9925 C   0  0  0  0  0  0  0  0  0  0  0  0
    3.1398   -0.1049   -0.8682 H   0  0  0  0  0  0  0  0  0  0  0  0
    3.0936   -0.4508    0.9094 H   0  0  0  0  0  0  0  0  0  0  0  0
    3.9111    1.7972   -0.2268 H   0  0  0  0  0  0  0  0  0  0  0  0
    0.7852   -1.8416    0.4615 H   0  0  0  0  0  0  0  0  0  0  0  0
    0.8126   -1.3707   -1.2436 H   0  0  0  0  0  0  0  0  0  0  0  0
   -1.4275   -1.8460   -0.6289 H   0  0  0  0  0  0  0  0  0  0  0  0
   -0.9068   -0.0994    1.7727 H   0  0  0  0  0  0  0  0  0  0  0  0
   -2.3820   -1.1867    1.4088 H   0  0  0  0  0  0  0  0  0  0  0  0
   -2.0725    1.6958    0.6495 H   0  0  0  0  0  0  0  0  0  0  0  0
   -3.4389    0.5449    0.2303 H   0  0  0  0  0  0  0  0  0  0  0  0
   -0.8992    1.0079   -1.4230 H   0  0  0  0  0  0  0  0  0  0  0  0
   -2.3587   -0.0285   -1.7651 H   0  0  0  0  0  0  0  0  0  0  0  0
  1  2  2  0
  2  3  1  0
  3  4  1  0
  2  5  1  0
  5  6  1  0
  6  7  1  0
  7  8  1  0
  8  9  1  0
  9  6  1  0
  3 10  1  0
  3 11  1  0
  4 12  1  0
  5 13  1  0
  5 14  1  0
  6 15  1  0
  7 16  1  0
  7 17  1  0
  8 18  1  0
  8 19  1  0
  9 20  1  0
  9 21  1  0
M  END
