
     RDKit          3D

 19 20  0  0  0  0  0  0  0  0999 V2000
    1.3208    0.9414   -1.7471 O   0  0  0  0  0  0  0  0  0  0  0  0
    1.0027    0.2766   -0.7444 C   0  0  0  0  0  0  0  0  0  0  0  0
    2.1329   -0.3781   -0.0411 C   0  0  0  0  0  0  0  0  0  0  0  0
    3.3245   -0.0863   -0.6893 O   0  0  0  0  0  0  0  0  0  0  0  0
   -0.2811    0.1628   -0.3308 C   0  0  0  0  0  0  0  0  0  0  0  0
   -1.0813   -1.1250   -0.1959 C   0  0  0  0  0  0  0  0  0  0  0  0
   -2.0364   -0.0454    0.2418 C   0  0  0  0  0  0  0  0  0  0  0  0
   -1.5081    0.7499   -0.9231 C   0  0  0  0  0  0  0  0  0  0  0  0
   -0.8636    0.5060    1.0144 C   0  0  0  0  0  0  0  0  0  0  0  0
    2.1661   -0.1242    1.0368 H   0  0  0  0  0  0  0  0  0  0  0  0
    2.0082   -1.4884   -0.1085 H   0  0  0  0  0  0  0  0  0  0  0  0
    3.8307    0.6381   -0.2860 H   0  0  0  0  0  0  0  0  0  0  0  0
   -1.3780   -1.5894   -1.1401 H   0  0  0  0  0  0  0  0  0  0  0  0
   -0.7534   -1.7779    0.6194 H   0  0  0  0  0  0  0  0  0  0  0  0
   -2.9792   -0.1434    0.5460 H   0  0  0  0  0  0  0  0  0  0  0  0
   -1.6270    1.8336   -0.8728 H   0  0  0  0  0  0  0  0  0  0  0  0
   -1.8413    0.2689   -1.8816 H   0  0  0  0  0  0  0  0  0  0  0  0
   -0.9384    1.5670    1.2602 H   0  0  0  0  0  0  0  0  0  0  0  0
   -0.4981   -0.1862    1.7741 H   0  0  0  0  0  0  0  0  0  0  0  0
  1  2  2  0
  2  3  1  0
  3  4  1  0
  2  5  1  0
  5  6  1  0
  6  7  1  0
  7  8  1  0
  7  9  1  0
  8  5  1  0
  9  5  1  0
  3 10  1  0
  3 11  1  0
  4 12  1  0
  6 13  1  0
  6 14  1  0
  7 15  1  0
  8 16  1  0
  8 17  1  0
  9 18  1  0
  9 19  1  0
M  END
