
     RDKit          3D

 16 16  0  0  0  0  0  0  0  0999 V2000
    0.7202   -0.5612    1.5521 O   0  0  0  0  0  0  0  0  0  0  0  0
    0.7986   -0.2548    0.3789 C   0  0  0  0  0  0  0  0  0  0  0  0
    2.1468   -0.2048   -0.2416 C   0  0  0  0  0  0  0  0  0  0  0  0
    2.0761    0.1588   -1.5817 O   0  0  0  0  0  0  0  0  0  0  0  0
   -0.4154    0.0516   -0.3792 C   0  0  0  0  0  0  0  0  0  0  0  0
   -1.5643   -0.9644   -0.1648 C   0  0  0  0  0  0  0  0  0  0  0  0
   -1.6801    0.4617    0.2725 C   0  0  0  0  0  0  0  0  0  0  0  0
   -1.7198    0.7516    1.6222 O   0  0  0  0  0  0  0  0  0  0  0  0
    2.8177    0.5042    0.2722 H   0  0  0  0  0  0  0  0  0  0  0  0
    2.5796   -1.2230   -0.1492 H   0  0  0  0  0  0  0  0  0  0  0  0
    1.8013    1.1188   -1.6219 H   0  0  0  0  0  0  0  0  0  0  0  0
   -0.2515    0.3222   -1.4467 H   0  0  0  0  0  0  0  0  0  0  0  0
   -1.4328   -1.7053    0.6475 H   0  0  0  0  0  0  0  0  0  0  0  0
   -2.0897   -1.3228   -1.0748 H   0  0  0  0  0  0  0  0  0  0  0  0
   -2.3181    1.1608   -0.3428 H   0  0  0  0  0  0  0  0  0  0  0  0
   -1.4687    1.7068    1.7204 H   0  0  0  0  0  0  0  0  0  0  0  0
  1  2  2  0
  2  3  1  0
  3  4  1  0
  2  5  1  0
  5  6  1  0
  6  7  1  0
  7  8  1  0
  7  5  1  0
  3  9  1  0
  3 10  1  0
  4 11  1  0
  5 12  1  0
  6 13  1  0
  6 14  1  0
  7 15  1  0
  8 16  1  0
M  END
