
     RDKit          3D

 19 19  0  0  0  0  0  0  0  0999 V2000
    2.1519   -2.5836   -0.5851 O   0  0  0  0  0  0  0  0  0  0  0  0
    1.6685   -1.4677   -0.6565 C   0  0  0  0  0  0  0  0  0  0  0  0
    2.3929   -0.3815   -1.3242 C   0  0  0  0  0  0  0  0  0  0  0  0
    1.6261    0.7955   -1.2708 O   0  0  0  0  0  0  0  0  0  0  0  0
    0.3330   -1.2739   -0.0424 C   0  0  0  0  0  0  0  0  0  0  0  0
   -0.1282    0.0319   -0.1784 O   0  0  0  0  0  0  0  0  0  0  0  0
   -1.3832    0.0953    0.4322 C   0  0  0  0  0  0  0  0  0  0  0  0
   -2.3808    1.0984   -0.0222 C   0  0  0  0  0  0  0  0  0  0  0  0
   -1.6747    1.3509    1.2619 C   0  0  0  0  0  0  0  0  0  0  0  0
    2.6569   -0.5891   -2.3736 H   0  0  0  0  0  0  0  0  0  0  0  0
    3.3354   -0.1824   -0.7728 H   0  0  0  0  0  0  0  0  0  0  0  0
    2.0523    1.4751   -0.6909 H   0  0  0  0  0  0  0  0  0  0  0  0
   -0.4105   -1.9167   -0.5863 H   0  0  0  0  0  0  0  0  0  0  0  0
    0.2965   -1.5187    1.0272 H   0  0  0  0  0  0  0  0  0  0  0  0
   -1.7938   -0.8412    0.9011 H   0  0  0  0  0  0  0  0  0  0  0  0
   -3.4496    0.8095    0.0550 H   0  0  0  0  0  0  0  0  0  0  0  0
   -2.1806    1.7334   -0.9176 H   0  0  0  0  0  0  0  0  0  0  0  0
   -0.8973    2.1448    1.2827 H   0  0  0  0  0  0  0  0  0  0  0  0
   -2.2147    1.2199    2.2272 H   0  0  0  0  0  0  0  0  0  0  0  0
  1  2  2  0
  2  3  1  0
  3  4  1  0
  2  5  1  0
  5  6  1  0
  6  7  1  0
  7  8  1  0
  8  9  1  0
  9  7  1  0
  3 10  1  0
  3 11  1  0
  4 12  1  0
  5 13  1  0
  5 14  1  0
  7 15  1  0
  8 16  1  0
  8 17  1  0
  9 18  1  0
  9 19  1  0
M  END
