
     RDKit          3D

 21 22  0  0  0  0  0  0  0  0999 V2000
    1.1389   -1.0947   -1.2617 O   0  0  0  0  0  0  0  0  0  0  0  0
    0.5338   -0.5307   -0.3663 C   0  0  0  0  0  0  0  0  0  0  0  0
   -0.9142   -0.6940   -0.2864 C   0  0  0  0  0  0  0  0  0  0  0  0
   -1.7171    0.6040   -0.3972 C   0  0  0  0  0  0  0  0  0  0  0  0
   -2.6912   -0.0218    0.6005 C   0  0  0  0  0  0  0  0  0  0  0  0
   -1.5051   -0.8669    1.0861 C   0  0  0  0  0  0  0  0  0  0  0  0
    1.3390    0.2854    0.5779 C   0  0  0  0  0  0  0  0  0  0  0  0
    2.4998    1.0714    0.0151 C   0  0  0  0  0  0  0  0  0  0  0  0
    2.7105   -0.1871    0.8640 C   0  0  0  0  0  0  0  0  0  0  0  0
   -1.3214   -1.4245   -0.9783 H   0  0  0  0  0  0  0  0  0  0  0  0
   -2.1208    0.8004   -1.3881 H   0  0  0  0  0  0  0  0  0  0  0  0
   -1.2200    1.4645    0.1136 H   0  0  0  0  0  0  0  0  0  0  0  0
   -3.4601   -0.6090    0.0904 H   0  0  0  0  0  0  0  0  0  0  0  0
   -3.0777    0.6836    1.3575 H   0  0  0  0  0  0  0  0  0  0  0  0
   -1.8663   -1.8637    1.3481 H   0  0  0  0  0  0  0  0  0  0  0  0
   -0.9876   -0.3860    1.9162 H   0  0  0  0  0  0  0  0  0  0  0  0
    0.7935    0.8057    1.4011 H   0  0  0  0  0  0  0  0  0  0  0  0
    2.7306    1.0084   -1.0695 H   0  0  0  0  0  0  0  0  0  0  0  0
    2.8029    2.0077    0.5034 H   0  0  0  0  0  0  0  0  0  0  0  0
    3.1584   -0.0395    1.8817 H   0  0  0  0  0  0  0  0  0  0  0  0
    3.1741   -1.0132    0.3175 H   0  0  0  0  0  0  0  0  0  0  0  0
  1  2  2  0
  2  3  1  0
  3  4  1  0
  4  5  1  0
  5  6  1  0
  2  7  1  0
  7  8  1  0
  8  9  1  0
  6  3  1  0
  9  7  1  0
  3 10  1  0
  4 11  1  0
  4 12  1  0
  5 13  1  0
  5 14  1  0
  6 15  1  0
  6 16  1  0
  7 17  1  0
  8 18  1  0
  8 19  1  0
  9 20  1  0
  9 21  1  0
M  END
