
     RDKit          3D

 15 14  0  0  0  0  0  0  0  0999 V2000
   -0.0146   -1.7838   -0.5551 O   0  0  0  0  0  0  0  0  0  0  0  0
    0.4688   -0.7181   -0.2795 C   0  0  0  0  0  0  0  0  0  0  0  0
    1.9196   -0.4991   -0.4029 C   0  0  0  0  0  0  0  0  0  0  0  0
    2.3006    0.7872   -0.0434 O   0  0  0  0  0  0  0  0  0  0  0  0
   -0.4038    0.3739    0.1851 C   0  0  0  0  0  0  0  0  0  0  0  0
   -1.8648   -0.0600    0.2413 C   0  0  0  0  0  0  0  0  0  0  0  0
   -2.6866    0.9481    0.6727 O   0  0  0  0  0  0  0  0  0  0  0  0
    2.2506   -0.7026   -1.4639 H   0  0  0  0  0  0  0  0  0  0  0  0
    2.5069   -1.2035    0.2558 H   0  0  0  0  0  0  0  0  0  0  0  0
    2.6592    0.7934    0.8798 H   0  0  0  0  0  0  0  0  0  0  0  0
   -0.0878    0.8403    1.1144 H   0  0  0  0  0  0  0  0  0  0  0  0
   -0.3746    1.1643   -0.6219 H   0  0  0  0  0  0  0  0  0  0  0  0
   -2.0090   -0.9290    0.9189 H   0  0  0  0  0  0  0  0  0  0  0  0
   -2.2228   -0.3877   -0.7548 H   0  0  0  0  0  0  0  0  0  0  0  0
   -2.4418    1.3767    1.5090 H   0  0  0  0  0  0  0  0  0  0  0  0
  1  2  2  0
  2  3  1  0
  3  4  1  0
  2  5  1  0
  5  6  1  0
  6  7  1  0
  3  8  1  0
  3  9  1  0
  4 10  1  0
  5 11  1  0
  5 12  1  0
  6 13  1  0
  6 14  1  0
  7 15  1  0
M  END
