
     RDKit          3D

 17 17  0  0  0  0  0  0  0  0999 V2000
    1.2645   -0.4148   -1.8997 O   0  0  0  0  0  0  0  0  0  0  0  0
    0.8720   -0.0971   -0.7138 C   0  0  0  0  0  0  0  0  0  0  0  0
    1.8963    0.0170    0.3393 C   0  0  0  0  0  0  0  0  0  0  0  0
    3.1585   -0.4204   -0.1235 O   0  0  0  0  0  0  0  0  0  0  0  0
   -0.5891    0.1222   -0.6151 C   0  0  0  0  0  0  0  0  0  0  0  0
   -1.3290   -0.8963    0.2000 C   0  0  0  0  0  0  0  0  0  0  0  0
   -2.5345   -0.3990    0.6981 O   0  0  0  0  0  0  0  0  0  0  0  0
   -1.0949    1.4688   -0.5296 C   0  0  0  0  0  0  0  0  0  0  0  0
   -1.1680    0.7052   -1.7743 O   0  0  0  0  0  0  0  0  0  0  0  0
    2.0300    1.1637    0.5338 H   0  0  0  0  0  0  0  0  0  0  0  0
    1.6202   -0.3759    1.3337 H   0  0  0  0  0  0  0  0  0  0  0  0
    3.7129   -0.7395    0.5955 H   0  0  0  0  0  0  0  0  0  0  0  0
   -1.4855   -1.7695   -0.5121 H   0  0  0  0  0  0  0  0  0  0  0  0
   -0.6982   -1.2250    1.0309 H   0  0  0  0  0  0  0  0  0  0  0  0
   -3.2166   -1.0677    0.3737 H   0  0  0  0  0  0  0  0  0  0  0  0
   -0.3595    2.2991   -0.5374 H   0  0  0  0  0  0  0  0  0  0  0  0
   -2.0793    1.6292   -0.1017 H   0  0  0  0  0  0  0  0  0  0  0  0
  1  2  2  0
  2  3  1  0
  3  4  1  0
  2  5  1  0
  5  6  1  0
  6  7  1  0
  5  8  1  0
  8  9  1  0
  9  5  1  0
  3 10  1  0
  3 11  1  0
  4 12  1  0
  6 13  1  0
  6 14  1  0
  7 15  1  0
  8 16  1  0
  8 17  1  0
M  END
