
     RDKit          3D

 17 17  0  0  0  0  0  0  0  0999 V2000
    1.2665    1.5066    0.7221 O   0  0  0  0  0  0  0  0  0  0  0  0
    1.2314    0.4688    0.1121 C   0  0  0  0  0  0  0  0  0  0  0  0
    2.3781   -0.4614    0.1696 C   0  0  0  0  0  0  0  0  0  0  0  0
    3.4119    0.0060    0.9662 O   0  0  0  0  0  0  0  0  0  0  0  0
    0.0562    0.0925   -0.7051 C   0  0  0  0  0  0  0  0  0  0  0  0
   -0.6208    1.0845   -1.4075 O   0  0  0  0  0  0  0  0  0  0  0  0
   -1.2971    0.6370   -0.2999 C   0  0  0  0  0  0  0  0  0  0  0  0
   -2.4591   -0.2872   -0.4147 C   0  0  0  0  0  0  0  0  0  0  0  0
   -2.9714   -0.5950    0.8354 O   0  0  0  0  0  0  0  0  0  0  0  0
    2.7054   -0.6322   -0.8859 H   0  0  0  0  0  0  0  0  0  0  0  0
    1.9697   -1.4406    0.5500 H   0  0  0  0  0  0  0  0  0  0  0  0
    3.1539    0.7856    1.5177 H   0  0  0  0  0  0  0  0  0  0  0  0
    0.0682   -0.8788   -1.2530 H   0  0  0  0  0  0  0  0  0  0  0  0
   -1.3089    1.3591    0.5522 H   0  0  0  0  0  0  0  0  0  0  0  0
   -3.2654    0.0919   -1.0721 H   0  0  0  0  0  0  0  0  0  0  0  0
   -2.1121   -1.2360   -0.8656 H   0  0  0  0  0  0  0  0  0  0  0  0
   -2.2066   -0.5007    1.4786 H   0  0  0  0  0  0  0  0  0  0  0  0
  1  2  2  0
  2  3  1  0
  3  4  1  0
  2  5  1  0
  5  6  1  0
  6  7  1  0
  7  8  1  0
  8  9  1  0
  7  5  1  0
  3 10  1  0
  3 11  1  0
  4 12  1  0
  5 13  1  0
  7 14  1  0
  8 15  1  0
  8 16  1  0
  9 17  1  0
M  END
