
     RDKit          3D

 15 15  0  0  0  0  0  0  0  0999 V2000
   -2.4923   -0.9746    0.9392 O   0  0  0  0  0  0  0  0  0  0  0  0
   -1.7474   -0.1447    0.3819 C   0  0  0  0  0  0  0  0  0  0  0  0
   -0.4089   -0.4987    0.0522 C   0  0  0  0  0  0  0  0  0  0  0  0
    0.7387   -0.8207   -0.2201 C   0  0  0  0  0  0  0  0  0  0  0  0
    2.1176   -1.1838   -0.5573 C   0  0  0  0  0  0  0  0  0  0  0  0
    3.1786   -0.3482   -0.2007 C   0  0  0  0  0  0  0  0  0  0  0  0
    2.6919   -0.2617   -1.6035 O   0  0  0  0  0  0  0  0  0  0  0  0
   -2.2751    1.1971    0.0746 C   0  0  0  0  0  0  0  0  0  0  0  0
   -3.5960    1.3230    0.4817 O   0  0  0  0  0  0  0  0  0  0  0  0
    2.3037   -2.2115   -0.9620 H   0  0  0  0  0  0  0  0  0  0  0  0
    3.0138    0.6461    0.2590 H   0  0  0  0  0  0  0  0  0  0  0  0
    4.2442   -0.6611   -0.2259 H   0  0  0  0  0  0  0  0  0  0  0  0
   -1.6829    2.0092    0.5448 H   0  0  0  0  0  0  0  0  0  0  0  0
   -2.2529    1.4042   -1.0211 H   0  0  0  0  0  0  0  0  0  0  0  0
   -3.8329    0.5254    0.9864 H   0  0  0  0  0  0  0  0  0  0  0  0
  1  2  2  0
  2  3  1  0
  3  4  3  0
  4  5  1  0
  5  6  1  0
  6  7  1  0
  2  8  1  0
  8  9  1  0
  7  5  1  0
  5 10  1  0
  6 11  1  0
  6 12  1  0
  8 13  1  0
  8 14  1  0
  9 15  1  0
M  END
