
     RDKit          3D

 19 20  0  0  0  0  0  0  0  0999 V2000
    1.8110    1.3680    0.1642 O   0  0  0  0  0  0  0  0  0  0  0  0
    1.3113    0.2741    0.3683 C   0  0  0  0  0  0  0  0  0  0  0  0
    2.2034   -0.9135    0.2618 C   0  0  0  0  0  0  0  0  0  0  0  0
    3.5003   -0.5677   -0.0630 O   0  0  0  0  0  0  0  0  0  0  0  0
   -0.1000    0.0460    0.7098 C   0  0  0  0  0  0  0  0  0  0  0  0
   -0.9717    1.2581    0.8095 C   0  0  0  0  0  0  0  0  0  0  0  0
   -2.0154    0.6740   -0.0688 C   0  0  0  0  0  0  0  0  0  0  0  0
   -2.2848   -0.7597   -0.2073 C   0  0  0  0  0  0  0  0  0  0  0  0
   -0.9267   -0.3251   -0.5301 C   0  0  0  0  0  0  0  0  0  0  0  0
    2.2363   -1.4995    1.1977 H   0  0  0  0  0  0  0  0  0  0  0  0
    1.7653   -1.5941   -0.5156 H   0  0  0  0  0  0  0  0  0  0  0  0
    3.7582    0.3038    0.3286 H   0  0  0  0  0  0  0  0  0  0  0  0
   -0.2606   -0.7153    1.5118 H   0  0  0  0  0  0  0  0  0  0  0  0
   -0.4432    2.1241    0.3136 H   0  0  0  0  0  0  0  0  0  0  0  0
   -1.2819    1.5511    1.8421 H   0  0  0  0  0  0  0  0  0  0  0  0
   -2.4269    1.3586   -0.8325 H   0  0  0  0  0  0  0  0  0  0  0  0
   -2.9242   -1.0649   -1.0577 H   0  0  0  0  0  0  0  0  0  0  0  0
   -2.4102   -1.4044    0.6826 H   0  0  0  0  0  0  0  0  0  0  0  0
   -0.5402   -0.1137   -1.5172 H   0  0  0  0  0  0  0  0  0  0  0  0
  1  2  2  0
  2  3  1  0
  3  4  1  0
  2  5  1  0
  5  6  1  0
  6  7  1  0
  7  8  1  0
  8  9  1  0
  9  5  1  0
  9  7  1  0
  3 10  1  0
  3 11  1  0
  4 12  1  0
  5 13  1  0
  6 14  1  0
  6 15  1  0
  7 16  1  0
  8 17  1  0
  8 18  1  0
  9 19  1  0
M  END
