
     RDKit          3D

 19 19  0  0  0  0  0  0  0  0999 V2000
   -0.5030   -0.8512   -1.1539 O   0  0  0  0  0  0  0  0  0  0  0  0
   -0.3533   -0.2554   -0.1174 C   0  0  0  0  0  0  0  0  0  0  0  0
   -1.4898   -0.0589    0.8205 C   0  0  0  0  0  0  0  0  0  0  0  0
   -2.7310   -0.7057    0.2375 C   0  0  0  0  0  0  0  0  0  0  0  0
   -3.0364   -0.1261   -0.9858 O   0  0  0  0  0  0  0  0  0  0  0  0
    0.9685    0.2969    0.2490 C   0  0  0  0  0  0  0  0  0  0  0  0
    2.0162    0.0193   -0.7960 C   0  0  0  0  0  0  0  0  0  0  0  0
    3.3864    0.5820   -0.4346 C   0  0  0  0  0  0  0  0  0  0  0  0
    3.0428   -0.8697   -0.5095 O   0  0  0  0  0  0  0  0  0  0  0  0
   -1.6481    1.0465    0.8871 H   0  0  0  0  0  0  0  0  0  0  0  0
   -1.2845   -0.4268    1.8271 H   0  0  0  0  0  0  0  0  0  0  0  0
   -2.5403   -1.7762    0.0502 H   0  0  0  0  0  0  0  0  0  0  0  0
   -3.5966   -0.6243    0.9169 H   0  0  0  0  0  0  0  0  0  0  0  0
   -3.7420    0.5450   -0.8243 H   0  0  0  0  0  0  0  0  0  0  0  0
    0.8504    1.4195    0.3014 H   0  0  0  0  0  0  0  0  0  0  0  0
    1.2836   -0.0376    1.2435 H   0  0  0  0  0  0  0  0  0  0  0  0
    1.7154    0.1283   -1.8523 H   0  0  0  0  0  0  0  0  0  0  0  0
    4.0485    0.9022   -1.2393 H   0  0  0  0  0  0  0  0  0  0  0  0
    3.6130    0.7922    0.6212 H   0  0  0  0  0  0  0  0  0  0  0  0
  1  2  2  0
  2  3  1  0
  3  4  1  0
  4  5  1  0
  2  6  1  0
  6  7  1  0
  7  8  1  0
  8  9  1  0
  9  7  1  0
  3 10  1  0
  3 11  1  0
  4 12  1  0
  4 13  1  0
  5 14  1  0
  6 15  1  0
  6 16  1  0
  7 17  1  0
  8 18  1  0
  8 19  1  0
M  END
