
     RDKit          3D

 17 18  0  0  0  0  0  0  0  0999 V2000
   -0.8452   -1.2964   -1.4582 O   0  0  0  0  0  0  0  0  0  0  0  0
   -1.0767   -0.6230   -0.4668 C   0  0  0  0  0  0  0  0  0  0  0  0
   -2.4126   -0.7836    0.1648 C   0  0  0  0  0  0  0  0  0  0  0  0
   -2.4689    0.0606    1.2617 O   0  0  0  0  0  0  0  0  0  0  0  0
   -0.0658    0.3179    0.0857 C   0  0  0  0  0  0  0  0  0  0  0  0
    1.3267   -0.3442    0.1567 C   0  0  0  0  0  0  0  0  0  0  0  0
    2.6272    0.3821    0.0712 C   0  0  0  0  0  0  0  0  0  0  0  0
    1.9675    1.5868    0.1327 O   0  0  0  0  0  0  0  0  0  0  0  0
    1.0354    0.8256   -0.5740 C   0  0  0  0  0  0  0  0  0  0  0  0
   -2.5823   -1.8530    0.4547 H   0  0  0  0  0  0  0  0  0  0  0  0
   -3.2147   -0.4578   -0.5331 H   0  0  0  0  0  0  0  0  0  0  0  0
   -2.7792    0.9442    0.9740 H   0  0  0  0  0  0  0  0  0  0  0  0
   -0.4280    0.8692    1.0051 H   0  0  0  0  0  0  0  0  0  0  0  0
    1.2755   -0.9155    1.0317 H   0  0  0  0  0  0  0  0  0  0  0  0
    3.0569    0.2592   -0.9662 H   0  0  0  0  0  0  0  0  0  0  0  0
    3.3873    0.2125    0.8255 H   0  0  0  0  0  0  0  0  0  0  0  0
    1.1967    0.8153   -1.6685 H   0  0  0  0  0  0  0  0  0  0  0  0
  1  2  2  0
  2  3  1  0
  3  4  1  0
  2  5  1  0
  5  6  1  0
  6  7  1  0
  7  8  1  0
  8  9  1  0
  9  5  1  0
  9  6  1  0
  3 10  1  0
  3 11  1  0
  4 12  1  0
  5 13  1  0
  6 14  1  0
  7 15  1  0
  7 16  1  0
  9 17  1  0
M  END
