
     RDKit          3D

 21 21  0  0  0  0  0  0  0  0999 V2000
    1.5171   -1.9822    0.8599 O   0  0  0  0  0  0  0  0  0  0  0  0
    1.8053   -0.8233    0.5998 C   0  0  0  0  0  0  0  0  0  0  0  0
    3.2558   -0.4854    0.5718 C   0  0  0  0  0  0  0  0  0  0  0  0
    3.5116    0.8235    0.2756 O   0  0  0  0  0  0  0  0  0  0  0  0
    0.7728    0.1974    0.3255 C   0  0  0  0  0  0  0  0  0  0  0  0
   -0.5931   -0.4334    0.4246 C   0  0  0  0  0  0  0  0  0  0  0  0
   -1.6875    0.5688    0.1525 C   0  0  0  0  0  0  0  0  0  0  0  0
   -3.1067    0.1504    0.2002 C   0  0  0  0  0  0  0  0  0  0  0  0
   -2.4275    0.4023   -1.1310 C   0  0  0  0  0  0  0  0  0  0  0  0
    3.7619   -1.1550   -0.1518 H   0  0  0  0  0  0  0  0  0  0  0  0
    3.6998   -0.7044    1.5775 H   0  0  0  0  0  0  0  0  0  0  0  0
    2.7768    1.4466    0.3814 H   0  0  0  0  0  0  0  0  0  0  0  0
    0.8194    1.0015    1.0861 H   0  0  0  0  0  0  0  0  0  0  0  0
    0.9148    0.6924   -0.6691 H   0  0  0  0  0  0  0  0  0  0  0  0
   -0.6795   -0.8760    1.4385 H   0  0  0  0  0  0  0  0  0  0  0  0
   -0.6359   -1.2505   -0.3256 H   0  0  0  0  0  0  0  0  0  0  0  0
   -1.4428    1.6193    0.4547 H   0  0  0  0  0  0  0  0  0  0  0  0
   -3.3785   -0.8913    0.4546 H   0  0  0  0  0  0  0  0  0  0  0  0
   -3.8727    0.9144    0.4742 H   0  0  0  0  0  0  0  0  0  0  0  0
   -2.2647   -0.5178   -1.7394 H   0  0  0  0  0  0  0  0  0  0  0  0
   -2.7462    1.3027   -1.7110 H   0  0  0  0  0  0  0  0  0  0  0  0
  1  2  2  0
  2  3  1  0
  3  4  1  0
  2  5  1  0
  5  6  1  0
  6  7  1  0
  7  8  1  0
  8  9  1  0
  9  7  1  0
  3 10  1  0
  3 11  1  0
  4 12  1  0
  5 13  1  0
  5 14  1  0
  6 15  1  0
  6 16  1  0
  7 17  1  0
  8 18  1  0
  8 19  1  0
  9 20  1  0
  9 21  1  0
M  END
