
     RDKit          3D

 19 19  0  0  0  0  0  0  0  0999 V2000
    1.3974   -0.8694    1.1289 O   0  0  0  0  0  0  0  0  0  0  0  0
    1.3055   -0.1104    0.1732 C   0  0  0  0  0  0  0  0  0  0  0  0
    2.5417    0.5499   -0.2976 C   0  0  0  0  0  0  0  0  0  0  0  0
    3.6517    0.1922    0.4452 O   0  0  0  0  0  0  0  0  0  0  0  0
    0.0201    0.1423   -0.4887 C   0  0  0  0  0  0  0  0  0  0  0  0
   -1.0938   -0.6386    0.1636 C   0  0  0  0  0  0  0  0  0  0  0  0
   -2.4353   -0.3979   -0.4990 C   0  0  0  0  0  0  0  0  0  0  0  0
   -2.4338    0.8648    0.1406 O   0  0  0  0  0  0  0  0  0  0  0  0
   -1.8079    0.2061    1.2245 C   0  0  0  0  0  0  0  0  0  0  0  0
    2.3912    1.6625   -0.2379 H   0  0  0  0  0  0  0  0  0  0  0  0
    2.6550    0.3249   -1.3863 H   0  0  0  0  0  0  0  0  0  0  0  0
    4.2188   -0.4607   -0.0457 H   0  0  0  0  0  0  0  0  0  0  0  0
    0.0474   -0.1085   -1.5895 H   0  0  0  0  0  0  0  0  0  0  0  0
   -0.2134    1.2215   -0.4275 H   0  0  0  0  0  0  0  0  0  0  0  0
   -0.8868   -1.6642    0.4447 H   0  0  0  0  0  0  0  0  0  0  0  0
   -3.1977   -1.0555   -0.0254 H   0  0  0  0  0  0  0  0  0  0  0  0
   -2.4341   -0.3597   -1.5918 H   0  0  0  0  0  0  0  0  0  0  0  0
   -1.1434    0.8467    1.8170 H   0  0  0  0  0  0  0  0  0  0  0  0
   -2.5824   -0.3459    1.7776 H   0  0  0  0  0  0  0  0  0  0  0  0
  1  2  2  0
  2  3  1  0
  3  4  1  0
  2  5  1  0
  5  6  1  0
  6  7  1  0
  7  8  1  0
  8  9  1  0
  9  6  1  0
  3 10  1  0
  3 11  1  0
  4 12  1  0
  5 13  1  0
  5 14  1  0
  6 15  1  0
  7 16  1  0
  7 17  1  0
  9 18  1  0
  9 19  1  0
M  END
