
     RDKit          3D

 17 17  0  0  0  0  0  0  0  0999 V2000
    1.7700    1.4218   -0.1491 O   0  0  0  0  0  0  0  0  0  0  0  0
    1.2083    0.3493    0.1908 C   0  0  0  0  0  0  0  0  0  0  0  0
    2.0734   -0.8104    0.4784 C   0  0  0  0  0  0  0  0  0  0  0  0
    3.4013   -0.4887    0.3135 O   0  0  0  0  0  0  0  0  0  0  0  0
   -0.2404    0.2947    0.2852 C   0  0  0  0  0  0  0  0  0  0  0  0
   -0.9239   -0.7786    0.6320 C   0  0  0  0  0  0  0  0  0  0  0  0
   -2.3559   -0.4068    0.6025 C   0  0  0  0  0  0  0  0  0  0  0  0
   -2.2751    0.9693    0.9251 O   0  0  0  0  0  0  0  0  0  0  0  0
   -1.2471    1.3534    0.0346 C   0  0  0  0  0  0  0  0  0  0  0  0
    1.9496   -1.1941    1.5128 H   0  0  0  0  0  0  0  0  0  0  0  0
    1.8511   -1.6827   -0.1946 H   0  0  0  0  0  0  0  0  0  0  0  0
    3.5597    0.4775    0.1825 H   0  0  0  0  0  0  0  0  0  0  0  0
   -0.5279   -1.7452    0.8893 H   0  0  0  0  0  0  0  0  0  0  0  0
   -2.9803   -0.9601    1.3005 H   0  0  0  0  0  0  0  0  0  0  0  0
   -2.7633   -0.4377   -0.4416 H   0  0  0  0  0  0  0  0  0  0  0  0
   -1.5790    1.2861   -0.9972 H   0  0  0  0  0  0  0  0  0  0  0  0
   -0.9203    2.3523    0.3663 H   0  0  0  0  0  0  0  0  0  0  0  0
  1  2  2  0
  2  3  1  0
  3  4  1  0
  2  5  1  0
  5  6  2  0
  6  7  1  0
  7  8  1  0
  8  9  1  0
  9  5  1  0
  3 10  1  0
  3 11  1  0
  4 12  1  0
  6 13  1  0
  7 14  1  0
  7 15  1  0
  9 16  1  0
  9 17  1  0
M  END
