
     RDKit          3D

 17 17  0  0  0  0  0  0  0  0999 V2000
    0.1750   -0.1030   -2.0366 O   0  0  0  0  0  0  0  0  0  0  0  0
    0.3666   -0.1269   -0.8058 C   0  0  0  0  0  0  0  0  0  0  0  0
   -0.4372    0.7482    0.0797 C   0  0  0  0  0  0  0  0  0  0  0  0
   -0.1711    0.5601    1.4249 O   0  0  0  0  0  0  0  0  0  0  0  0
   -1.8988    0.4334   -0.1891 C   0  0  0  0  0  0  0  0  0  0  0  0
   -2.7432    1.2654    0.5565 O   0  0  0  0  0  0  0  0  0  0  0  0
    1.4136   -1.0573   -0.3107 C   0  0  0  0  0  0  0  0  0  0  0  0
    2.2844   -0.6437    0.7323 C   0  0  0  0  0  0  0  0  0  0  0  0
    1.2571   -1.7063    0.8877 O   0  0  0  0  0  0  0  0  0  0  0  0
   -0.2606    1.8291   -0.1400 H   0  0  0  0  0  0  0  0  0  0  0  0
   -0.7142   -0.2008    1.7330 H   0  0  0  0  0  0  0  0  0  0  0  0
   -2.0827   -0.6103    0.1242 H   0  0  0  0  0  0  0  0  0  0  0  0
   -2.1418    0.5405   -1.2643 H   0  0  0  0  0  0  0  0  0  0  0  0
   -2.3069    1.6116    1.3722 H   0  0  0  0  0  0  0  0  0  0  0  0
    1.8699   -1.7025   -1.1308 H   0  0  0  0  0  0  0  0  0  0  0  0
    2.0778    0.2220    1.3717 H   0  0  0  0  0  0  0  0  0  0  0  0
    3.3123   -1.0593    0.8982 H   0  0  0  0  0  0  0  0  0  0  0  0
  1  2  2  0
  2  3  1  0
  3  4  1  0
  3  5  1  0
  5  6  1  0
  2  7  1  0
  7  8  1  0
  8  9  1  0
  9  7  1  0
  3 10  1  0
  4 11  1  0
  5 12  1  0
  5 13  1  0
  6 14  1  0
  7 15  1  0
  8 16  1  0
  8 17  1  0
M  END
