
     RDKit          3D

 19 20  0  0  0  0  0  0  0  0999 V2000
    1.2092   -0.9898   -1.3113 O   0  0  0  0  0  0  0  0  0  0  0  0
    1.1211   -0.2482   -0.3582 C   0  0  0  0  0  0  0  0  0  0  0  0
    2.2819   -0.1247    0.5538 C   0  0  0  0  0  0  0  0  0  0  0  0
    3.3455   -0.9373    0.1290 O   0  0  0  0  0  0  0  0  0  0  0  0
   -0.0919    0.5100   -0.1041 C   0  0  0  0  0  0  0  0  0  0  0  0
   -1.2487    0.3450   -1.0442 C   0  0  0  0  0  0  0  0  0  0  0  0
   -1.4912   -0.9688   -0.4009 C   0  0  0  0  0  0  0  0  0  0  0  0
   -1.1573   -0.0698    0.7606 C   0  0  0  0  0  0  0  0  0  0  0  0
   -2.0771    0.9171    0.0926 C   0  0  0  0  0  0  0  0  0  0  0  0
    2.6607    0.9278    0.6145 H   0  0  0  0  0  0  0  0  0  0  0  0
    2.0333   -0.4175    1.5974 H   0  0  0  0  0  0  0  0  0  0  0  0
    4.0794   -0.3867   -0.2677 H   0  0  0  0  0  0  0  0  0  0  0  0
    0.0818    1.6091    0.0931 H   0  0  0  0  0  0  0  0  0  0  0  0
   -1.3067    0.6130   -2.0026 H   0  0  0  0  0  0  0  0  0  0  0  0
   -0.8394   -1.8114   -0.6010 H   0  0  0  0  0  0  0  0  0  0  0  0
   -2.5691   -1.2752   -0.4467 H   0  0  0  0  0  0  0  0  0  0  0  0
   -1.1241   -0.3142    1.7258 H   0  0  0  0  0  0  0  0  0  0  0  0
   -1.7706    1.9450    0.2896 H   0  0  0  0  0  0  0  0  0  0  0  0
   -3.1368    0.6765    0.0811 H   0  0  0  0  0  0  0  0  0  0  0  0
  1  2  2  0
  2  3  1  0
  3  4  1  0
  2  5  1  0
  5  6  1  0
  6  7  1  0
  7  8  1  0
  8  9  1  0
  8  5  1  0
  9  6  1  0
  3 10  1  0
  3 11  1  0
  4 12  1  0
  5 13  1  0
  6 14  1  0
  7 15  1  0
  7 16  1  0
  8 17  1  0
  9 18  1  0
  9 19  1  0
M  END
