
     RDKit          3D

 19 19  0  0  0  0  0  0  0  0999 V2000
    1.7969   -0.1522   -1.7610 O   0  0  0  0  0  0  0  0  0  0  0  0
    1.4369   -0.1638   -0.5605 C   0  0  0  0  0  0  0  0  0  0  0  0
    2.4680   -0.2332    0.5046 C   0  0  0  0  0  0  0  0  0  0  0  0
    3.7547   -0.2774   -0.0271 O   0  0  0  0  0  0  0  0  0  0  0  0
    0.0245   -0.1090   -0.2568 C   0  0  0  0  0  0  0  0  0  0  0  0
   -0.4607   -0.1159    0.9736 C   0  0  0  0  0  0  0  0  0  0  0  0
   -1.9620   -0.0492    0.9262 C   0  0  0  0  0  0  0  0  0  0  0  0
   -2.3167    0.3580   -0.4825 C   0  0  0  0  0  0  0  0  0  0  0  0
   -1.0799   -0.0381   -1.2473 C   0  0  0  0  0  0  0  0  0  0  0  0
    2.3759    0.6660    1.1612 H   0  0  0  0  0  0  0  0  0  0  0  0
    2.2788   -1.1486    1.1335 H   0  0  0  0  0  0  0  0  0  0  0  0
    4.2050    0.6014    0.0969 H   0  0  0  0  0  0  0  0  0  0  0  0
    0.0576   -0.1601    1.9222 H   0  0  0  0  0  0  0  0  0  0  0  0
   -2.3487    0.7426    1.6079 H   0  0  0  0  0  0  0  0  0  0  0  0
   -2.4096   -1.0230    1.1882 H   0  0  0  0  0  0  0  0  0  0  0  0
   -2.4613    1.4682   -0.5620 H   0  0  0  0  0  0  0  0  0  0  0  0
   -3.2371   -0.0991   -0.8453 H   0  0  0  0  0  0  0  0  0  0  0  0
   -0.8928    0.7436   -2.0123 H   0  0  0  0  0  0  0  0  0  0  0  0
   -1.2297   -1.0102   -1.7596 H   0  0  0  0  0  0  0  0  0  0  0  0
  1  2  2  0
  2  3  1  0
  3  4  1  0
  2  5  1  0
  5  6  2  0
  6  7  1  0
  7  8  1  0
  8  9  1  0
  9  5  1  0
  3 10  1  0
  3 11  1  0
  4 12  1  0
  6 13  1  0
  7 14  1  0
  7 15  1  0
  8 16  1  0
  8 17  1  0
  9 18  1  0
  9 19  1  0
M  END
