
     RDKit          3D

 17 17  0  0  0  0  0  0  0  0999 V2000
    1.3726    1.3411   -0.7644 O   0  0  0  0  0  0  0  0  0  0  0  0
    1.3859    0.2776   -0.0749 C   0  0  0  0  0  0  0  0  0  0  0  0
    2.6475   -0.3012    0.4643 C   0  0  0  0  0  0  0  0  0  0  0  0
    3.7394    0.4599    0.1150 O   0  0  0  0  0  0  0  0  0  0  0  0
    0.1496   -0.2919    0.1320 O   0  0  0  0  0  0  0  0  0  0  0  0
   -1.0636    0.1659   -0.3225 C   0  0  0  0  0  0  0  0  0  0  0  0
   -2.0435   -0.7613   -0.9221 C   0  0  0  0  0  0  0  0  0  0  0  0
   -3.0635    0.0728   -0.4028 O   0  0  0  0  0  0  0  0  0  0  0  0
   -2.1809    0.3062    0.6775 C   0  0  0  0  0  0  0  0  0  0  0  0
    2.7848   -1.3187   -0.0055 H   0  0  0  0  0  0  0  0  0  0  0  0
    2.5716   -0.4979    1.5555 H   0  0  0  0  0  0  0  0  0  0  0  0
    3.4355    1.1682   -0.5011 H   0  0  0  0  0  0  0  0  0  0  0  0
   -0.9724    1.0990   -0.9142 H   0  0  0  0  0  0  0  0  0  0  0  0
   -2.1693   -1.7525   -0.5029 H   0  0  0  0  0  0  0  0  0  0  0  0
   -2.0198   -0.7729   -2.0334 H   0  0  0  0  0  0  0  0  0  0  0  0
   -2.3054    1.3266    1.1025 H   0  0  0  0  0  0  0  0  0  0  0  0
   -2.2685   -0.5210    1.4048 H   0  0  0  0  0  0  0  0  0  0  0  0
  1  2  2  0
  2  3  1  0
  3  4  1  0
  2  5  1  0
  5  6  1  0
  6  7  1  0
  7  8  1  0
  8  9  1  0
  9  6  1  0
  3 10  1  0
  3 11  1  0
  4 12  1  0
  6 13  1  0
  7 14  1  0
  7 15  1  0
  9 16  1  0
  9 17  1  0
M  END
