
     RDKit          3D

 19 18  0  0  0  0  0  0  0  0999 V2000
    0.3554   -1.7525    0.2148 O   0  0  0  0  0  0  0  0  0  0  0  0
    0.1429   -0.6402   -0.2105 C   0  0  0  0  0  0  0  0  0  0  0  0
   -1.1915   -0.0225   -0.1118 C   0  0  0  0  0  0  0  0  0  0  0  0
   -2.2003   -0.9265    0.5599 C   0  0  0  0  0  0  0  0  0  0  0  0
   -3.4346   -0.3003    0.6271 O   0  0  0  0  0  0  0  0  0  0  0  0
    1.2497    0.1029   -0.8385 C   0  0  0  0  0  0  0  0  0  0  0  0
    0.7808    1.3447   -1.2495 O   0  0  0  0  0  0  0  0  0  0  0  0
    2.3870    0.3663    0.1243 C   0  0  0  0  0  0  0  0  0  0  0  0
    1.9016    1.0947    1.1880 O   0  0  0  0  0  0  0  0  0  0  0  0
   -1.5515    0.2707   -1.1183 H   0  0  0  0  0  0  0  0  0  0  0  0
   -1.1691    0.9395    0.4782 H   0  0  0  0  0  0  0  0  0  0  0  0
   -1.8694   -1.2488    1.5514 H   0  0  0  0  0  0  0  0  0  0  0  0
   -2.3519   -1.8301   -0.0998 H   0  0  0  0  0  0  0  0  0  0  0  0
   -3.2661    0.6828    0.6708 H   0  0  0  0  0  0  0  0  0  0  0  0
    1.5917   -0.4884   -1.7230 H   0  0  0  0  0  0  0  0  0  0  0  0
    0.5336    1.3130   -2.1977 H   0  0  0  0  0  0  0  0  0  0  0  0
    2.8244   -0.6064    0.4498 H   0  0  0  0  0  0  0  0  0  0  0  0
    3.1635    0.9791   -0.3750 H   0  0  0  0  0  0  0  0  0  0  0  0
    2.1037    0.7219    2.0599 H   0  0  0  0  0  0  0  0  0  0  0  0
  1  2  2  0
  2  3  1  0
  3  4  1  0
  4  5  1  0
  2  6  1  0
  6  7  1  0
  6  8  1  0
  8  9  1  0
  3 10  1  0
  3 11  1  0
  4 12  1  0
  4 13  1  0
  5 14  1  0
  6 15  1  0
  7 16  1  0
  8 17  1  0
  8 18  1  0
  9 19  1  0
M  END
