
     RDKit          3D

 17 16  0  0  0  0  0  0  0  0999 V2000
   -0.9051    1.8765   -0.8172 O   0  0  0  0  0  0  0  0  0  0  0  0
   -1.1099    0.7033   -0.5321 C   0  0  0  0  0  0  0  0  0  0  0  0
   -2.4905    0.1970   -0.7546 C   0  0  0  0  0  0  0  0  0  0  0  0
   -2.5900   -1.1364   -0.3948 O   0  0  0  0  0  0  0  0  0  0  0  0
   -0.0994   -0.2023    0.0005 C   0  0  0  0  0  0  0  0  0  0  0  0
    1.2264    0.3923    0.1828 C   0  0  0  0  0  0  0  0  0  0  0  0
    1.4447    1.5384   -0.0908 O   0  0  0  0  0  0  0  0  0  0  0  0
    2.3247   -0.4557    0.7218 C   0  0  0  0  0  0  0  0  0  0  0  0
    3.5173    0.2619    0.8327 O   0  0  0  0  0  0  0  0  0  0  0  0
   -2.7638    0.2438   -1.8484 H   0  0  0  0  0  0  0  0  0  0  0  0
   -3.2521    0.8317   -0.2496 H   0  0  0  0  0  0  0  0  0  0  0  0
   -3.0324   -1.2775    0.4675 H   0  0  0  0  0  0  0  0  0  0  0  0
   -0.4494   -0.5746    0.9920 H   0  0  0  0  0  0  0  0  0  0  0  0
   -0.0012   -1.1173   -0.6360 H   0  0  0  0  0  0  0  0  0  0  0  0
    2.4660   -1.3314    0.0277 H   0  0  0  0  0  0  0  0  0  0  0  0
    2.0859   -0.8769    1.7135 H   0  0  0  0  0  0  0  0  0  0  0  0
    3.6290    0.9273    0.1299 H   0  0  0  0  0  0  0  0  0  0  0  0
  1  2  2  0
  2  3  1  0
  3  4  1  0
  2  5  1  0
  5  6  1  0
  6  7  2  0
  6  8  1  0
  8  9  1  0
  3 10  1  0
  3 11  1  0
  4 12  1  0
  5 13  1  0
  5 14  1  0
  8 15  1  0
  8 16  1  0
  9 17  1  0
M  END
