
     RDKit          3D

 19 18  0  0  0  0  0  0  0  0999 V2000
   -1.7517    1.5022   -0.0813 O   0  0  0  0  0  0  0  0  0  0  0  0
   -1.7963    0.2871   -0.0034 C   0  0  0  0  0  0  0  0  0  0  0  0
   -3.1290   -0.3525    0.0932 C   0  0  0  0  0  0  0  0  0  0  0  0
   -4.1298    0.5984    0.0768 O   0  0  0  0  0  0  0  0  0  0  0  0
   -0.5296   -0.4900   -0.0085 C   0  0  0  0  0  0  0  0  0  0  0  0
    0.5470    0.3491   -0.1065 O   0  0  0  0  0  0  0  0  0  0  0  0
    1.7659   -0.2696   -0.1193 C   0  0  0  0  0  0  0  0  0  0  0  0
    2.8608    0.7706   -0.2305 C   0  0  0  0  0  0  0  0  0  0  0  0
    4.1054    0.1464   -0.2441 O   0  0  0  0  0  0  0  0  0  0  0  0
   -3.1986   -0.8694    1.0905 H   0  0  0  0  0  0  0  0  0  0  0  0
   -3.2606   -1.1253   -0.6952 H   0  0  0  0  0  0  0  0  0  0  0  0
   -3.8592    1.4768    0.3905 H   0  0  0  0  0  0  0  0  0  0  0  0
   -0.5696   -1.2718   -0.7908 H   0  0  0  0  0  0  0  0  0  0  0  0
   -0.4782   -1.0289    0.9620 H   0  0  0  0  0  0  0  0  0  0  0  0
    1.8776   -1.0390   -0.9017 H   0  0  0  0  0  0  0  0  0  0  0  0
    1.9216   -0.7920    0.8563 H   0  0  0  0  0  0  0  0  0  0  0  0
    2.7147    1.4560   -1.0749 H   0  0  0  0  0  0  0  0  0  0  0  0
    2.8371    1.3941    0.6941 H   0  0  0  0  0  0  0  0  0  0  0  0
    4.0726   -0.7422    0.1948 H   0  0  0  0  0  0  0  0  0  0  0  0
  1  2  2  0
  2  3  1  0
  3  4  1  0
  2  5  1  0
  5  6  1  0
  6  7  1  0
  7  8  1  0
  8  9  1  0
  3 10  1  0
  3 11  1  0
  4 12  1  0
  5 13  1  0
  5 14  1  0
  7 15  1  0
  7 16  1  0
  8 17  1  0
  8 18  1  0
  9 19  1  0
M  END
