
     RDKit          3D

 17 17  0  0  0  0  0  0  0  0999 V2000
    1.5586    0.6718   -1.6039 O   0  0  0  0  0  0  0  0  0  0  0  0
    0.9558    0.3011   -0.6108 C   0  0  0  0  0  0  0  0  0  0  0  0
    1.7455    0.0287    0.5983 C   0  0  0  0  0  0  0  0  0  0  0  0
    3.1010    0.2460    0.3965 O   0  0  0  0  0  0  0  0  0  0  0  0
   -0.5266    0.1458   -0.6746 C   0  0  0  0  0  0  0  0  0  0  0  0
   -1.0652    0.0585   -1.9617 O   0  0  0  0  0  0  0  0  0  0  0  0
   -1.3873    0.9199    0.2825 C   0  0  0  0  0  0  0  0  0  0  0  0
   -1.2430   -0.5531    0.4275 C   0  0  0  0  0  0  0  0  0  0  0  0
   -2.2922   -1.3837    0.0783 O   0  0  0  0  0  0  0  0  0  0  0  0
    1.4473    0.6234    1.4841 H   0  0  0  0  0  0  0  0  0  0  0  0
    1.6577   -1.0463    0.9310 H   0  0  0  0  0  0  0  0  0  0  0  0
    3.3082    1.1844    0.1635 H   0  0  0  0  0  0  0  0  0  0  0  0
   -1.1677   -0.9037   -2.1708 H   0  0  0  0  0  0  0  0  0  0  0  0
   -0.8939    1.6257    0.9862 H   0  0  0  0  0  0  0  0  0  0  0  0
   -2.3826    1.2774   -0.0469 H   0  0  0  0  0  0  0  0  0  0  0  0
   -0.6907   -0.8948    1.3266 H   0  0  0  0  0  0  0  0  0  0  0  0
   -2.1251   -2.3010    0.3943 H   0  0  0  0  0  0  0  0  0  0  0  0
  1  2  2  0
  2  3  1  0
  3  4  1  0
  2  5  1  0
  5  6  1  0
  5  7  1  0
  7  8  1  0
  8  9  1  0
  8  5  1  0
  3 10  1  0
  3 11  1  0
  4 12  1  0
  6 13  1  0
  7 14  1  0
  7 15  1  0
  8 16  1  0
  9 17  1  0
M  END
