
     RDKit          3D

 15 15  0  0  0  0  0  0  0  0999 V2000
   -1.0313   -0.3449   -1.5332 O   0  0  0  0  0  0  0  0  0  0  0  0
   -0.9720   -0.0999   -0.3146 C   0  0  0  0  0  0  0  0  0  0  0  0
   -2.1954    0.1002    0.4749 C   0  0  0  0  0  0  0  0  0  0  0  0
   -3.3581   -0.0126   -0.2738 O   0  0  0  0  0  0  0  0  0  0  0  0
    0.3051   -0.0114    0.3296 C   0  0  0  0  0  0  0  0  0  0  0  0
    0.3810    0.2347    1.5558 O   0  0  0  0  0  0  0  0  0  0  0  0
    1.5382   -0.2131   -0.4655 C   0  0  0  0  0  0  0  0  0  0  0  0
    2.7633    0.3431    0.0598 C   0  0  0  0  0  0  0  0  0  0  0  0
    2.4938   -1.0216    0.1574 O   0  0  0  0  0  0  0  0  0  0  0  0
   -2.1653   -0.6639    1.3059 H   0  0  0  0  0  0  0  0  0  0  0  0
   -2.2322    1.0852    0.9906 H   0  0  0  0  0  0  0  0  0  0  0  0
   -3.2612   -0.5022   -1.1078 H   0  0  0  0  0  0  0  0  0  0  0  0
    1.4013   -0.4244   -1.5299 H   0  0  0  0  0  0  0  0  0  0  0  0
    2.7727    0.8720    1.0145 H   0  0  0  0  0  0  0  0  0  0  0  0
    3.5601    0.6590   -0.6635 H   0  0  0  0  0  0  0  0  0  0  0  0
  1  2  2  0
  2  3  1  0
  3  4  1  0
  2  5  1  0
  5  6  2  0
  5  7  1  0
  7  8  1  0
  8  9  1  0
  9  7  1  0
  3 10  1  0
  3 11  1  0
  4 12  1  0
  7 13  1  0
  8 14  1  0
  8 15  1  0
M  END
