
     RDKit          3D

 16 15  0  0  0  0  0  0  0  0999 V2000
    0.0045    1.5144    0.6528 O   0  0  0  0  0  0  0  0  0  0  0  0
    0.8096    0.6731    0.1856 C   0  0  0  0  0  0  0  0  0  0  0  0
    2.1066    1.2103   -0.2983 C   0  0  0  0  0  0  0  0  0  0  0  0
    2.9440    0.2438   -0.7974 O   0  0  0  0  0  0  0  0  0  0  0  0
    0.4441   -0.6333    0.1579 O   0  0  0  0  0  0  0  0  0  0  0  0
   -0.7428   -1.2206    0.5826 C   0  0  0  0  0  0  0  0  0  0  0  0
   -1.9903   -0.7966   -0.1059 C   0  0  0  0  0  0  0  0  0  0  0  0
   -2.2862    0.5520   -0.0101 O   0  0  0  0  0  0  0  0  0  0  0  0
    2.5990    1.6758    0.5821 H   0  0  0  0  0  0  0  0  0  0  0  0
    1.8997    1.9696   -1.0821 H   0  0  0  0  0  0  0  0  0  0  0  0
    3.4623   -0.1876   -0.0569 H   0  0  0  0  0  0  0  0  0  0  0  0
   -0.5975   -2.3401    0.5193 H   0  0  0  0  0  0  0  0  0  0  0  0
   -0.9261   -1.0567    1.6901 H   0  0  0  0  0  0  0  0  0  0  0  0
   -2.0391   -1.1352   -1.1700 H   0  0  0  0  0  0  0  0  0  0  0  0
   -2.8469   -1.3242    0.4115 H   0  0  0  0  0  0  0  0  0  0  0  0
   -2.8409    0.8552   -0.7564 H   0  0  0  0  0  0  0  0  0  0  0  0
  1  2  2  0
  2  3  1  0
  3  4  1  0
  2  5  1  0
  5  6  1  0
  6  7  1  0
  7  8  1  0
  3  9  1  0
  3 10  1  0
  4 11  1  0
  6 12  1  0
  6 13  1  0
  7 14  1  0
  7 15  1  0
  8 16  1  0
M  END
