
     RDKit          3D

 19 20  0  0  0  0  0  0  0  0999 V2000
    0.0730    1.5777    0.2735 O   0  0  0  0  0  0  0  0  0  0  0  0
    0.0724    0.4278   -0.1045 C   0  0  0  0  0  0  0  0  0  0  0  0
    1.2671   -0.4130    0.0638 C   0  0  0  0  0  0  0  0  0  0  0  0
    2.6400    0.2387   -0.2310 C   0  0  0  0  0  0  0  0  0  0  0  0
    2.2214   -0.2034    1.1732 C   0  0  0  0  0  0  0  0  0  0  0  0
   -1.1374   -0.1193   -0.7345 C   0  0  0  0  0  0  0  0  0  0  0  0
   -2.3062    0.7979   -0.8680 C   0  0  0  0  0  0  0  0  0  0  0  0
   -2.8611    0.3528    0.3100 O   0  0  0  0  0  0  0  0  0  0  0  0
   -2.0358   -0.7496    0.3041 C   0  0  0  0  0  0  0  0  0  0  0  0
    1.2023   -1.4699   -0.3077 H   0  0  0  0  0  0  0  0  0  0  0  0
    3.4091   -0.3928   -0.6993 H   0  0  0  0  0  0  0  0  0  0  0  0
    2.5780    1.3152   -0.4789 H   0  0  0  0  0  0  0  0  0  0  0  0
    2.7693   -1.0801    1.6052 H   0  0  0  0  0  0  0  0  0  0  0  0
    2.1462    0.6405    1.8757 H   0  0  0  0  0  0  0  0  0  0  0  0
   -0.9088   -0.7580   -1.6126 H   0  0  0  0  0  0  0  0  0  0  0  0
   -2.9032    0.5493   -1.7776 H   0  0  0  0  0  0  0  0  0  0  0  0
   -2.0779    1.8843   -0.8886 H   0  0  0  0  0  0  0  0  0  0  0  0
   -1.5515   -0.9532    1.2798 H   0  0  0  0  0  0  0  0  0  0  0  0
   -2.5968   -1.6451   -0.0380 H   0  0  0  0  0  0  0  0  0  0  0  0
  1  2  2  0
  2  3  1  0
  3  4  1  0
  4  5  1  0
  2  6  1  0
  6  7  1  0
  7  8  1  0
  8  9  1  0
  5  3  1  0
  9  6  1  0
  3 10  1  0
  4 11  1  0
  4 12  1  0
  5 13  1  0
  5 14  1  0
  6 15  1  0
  7 16  1  0
  7 17  1  0
  9 18  1  0
  9 19  1  0
M  END
