
     RDKit          3D

 17 16  0  0  0  0  0  0  0  0999 V2000
    2.1305   -2.0621    0.2268 O   0  0  0  0  0  0  0  0  0  0  0  0
    1.9135   -0.8827    0.5433 C   0  0  0  0  0  0  0  0  0  0  0  0
    0.6413   -0.2605    0.2681 C   0  0  0  0  0  0  0  0  0  0  0  0
   -0.4326    0.2496    0.0218 C   0  0  0  0  0  0  0  0  0  0  0  0
   -1.7265    0.8721   -0.2588 C   0  0  0  0  0  0  0  0  0  0  0  0
   -2.6291   -0.1665   -0.8603 C   0  0  0  0  0  0  0  0  0  0  0  0
   -3.8627    0.4740   -1.1148 O   0  0  0  0  0  0  0  0  0  0  0  0
    2.9453   -0.0248    1.2280 C   0  0  0  0  0  0  0  0  0  0  0  0
    4.1148   -0.7144    1.4413 O   0  0  0  0  0  0  0  0  0  0  0  0
   -1.6360    1.7160   -0.9758 H   0  0  0  0  0  0  0  0  0  0  0  0
   -2.2181    1.2275    0.6770 H   0  0  0  0  0  0  0  0  0  0  0  0
   -2.2473   -0.6289   -1.7732 H   0  0  0  0  0  0  0  0  0  0  0  0
   -2.8717   -0.9577   -0.0939 H   0  0  0  0  0  0  0  0  0  0  0  0
   -3.7105    1.1433   -1.8330 H   0  0  0  0  0  0  0  0  0  0  0  0
    2.4561    0.2911    2.1859 H   0  0  0  0  0  0  0  0  0  0  0  0
    3.0706    0.8719    0.5672 H   0  0  0  0  0  0  0  0  0  0  0  0
    4.0623   -1.1478    2.3329 H   0  0  0  0  0  0  0  0  0  0  0  0
  1  2  2  0
  2  3  1  0
  3  4  3  0
  4  5  1  0
  5  6  1  0
  6  7  1  0
  2  8  1  0
  8  9  1  0
  5 10  1  0
  5 11  1  0
  6 12  1  0
  6 13  1  0
  7 14  1  0
  8 15  1  0
  8 16  1  0
  9 17  1  0
M  END
