
     RDKit          3D

 19 19  0  0  0  0  0  0  0  0999 V2000
    0.7595    0.5901    1.3267 O   0  0  0  0  0  0  0  0  0  0  0  0
    0.6453    0.0119    0.2258 C   0  0  0  0  0  0  0  0  0  0  0  0
    1.8284   -0.5629   -0.4580 C   0  0  0  0  0  0  0  0  0  0  0  0
    3.0599   -0.3138    0.3906 C   0  0  0  0  0  0  0  0  0  0  0  0
    3.2206    1.0486    0.5499 O   0  0  0  0  0  0  0  0  0  0  0  0
   -0.5783   -0.0952   -0.3588 O   0  0  0  0  0  0  0  0  0  0  0  0
   -1.7860    0.3998    0.1702 C   0  0  0  0  0  0  0  0  0  0  0  0
   -2.9205   -0.6479    0.1182 C   0  0  0  0  0  0  0  0  0  0  0  0
   -2.9668    0.6547   -0.6556 C   0  0  0  0  0  0  0  0  0  0  0  0
    1.9689    0.0262   -1.4109 H   0  0  0  0  0  0  0  0  0  0  0  0
    1.6546   -1.6291   -0.6597 H   0  0  0  0  0  0  0  0  0  0  0  0
    3.9432   -0.8353    0.0125 H   0  0  0  0  0  0  0  0  0  0  0  0
    2.8316   -0.7640    1.4008 H   0  0  0  0  0  0  0  0  0  0  0  0
    2.9956    1.4977   -0.3031 H   0  0  0  0  0  0  0  0  0  0  0  0
   -1.6910    0.9170    1.1524 H   0  0  0  0  0  0  0  0  0  0  0  0
   -2.7848   -1.5282   -0.5085 H   0  0  0  0  0  0  0  0  0  0  0  0
   -3.5340   -0.7681    1.0212 H   0  0  0  0  0  0  0  0  0  0  0  0
   -3.7214    1.3642   -0.2536 H   0  0  0  0  0  0  0  0  0  0  0  0
   -2.9248    0.6342   -1.7600 H   0  0  0  0  0  0  0  0  0  0  0  0
  1  2  2  0
  2  3  1  0
  3  4  1  0
  4  5  1  0
  2  6  1  0
  6  7  1  0
  7  8  1  0
  8  9  1  0
  9  7  1  0
  3 10  1  0
  3 11  1  0
  4 12  1  0
  4 13  1  0
  5 14  1  0
  7 15  1  0
  8 16  1  0
  8 17  1  0
  9 18  1  0
  9 19  1  0
M  END
