
     RDKit          3D

 12 11  0  0  0  0  0  0  0  0999 V2000
   -0.3946    1.6770   -0.6876 O   0  0  0  0  0  0  0  0  0  0  0  0
   -0.0964    0.6111   -0.1747 C   0  0  0  0  0  0  0  0  0  0  0  0
   -1.1744   -0.3191    0.1782 C   0  0  0  0  0  0  0  0  0  0  0  0
   -2.4161    0.1881   -0.1437 O   0  0  0  0  0  0  0  0  0  0  0  0
    1.3416    0.3513    0.0469 C   0  0  0  0  0  0  0  0  0  0  0  0
    1.5983   -0.8665    0.6268 O   0  0  0  0  0  0  0  0  0  0  0  0
   -1.0637   -1.3215   -0.3140 H   0  0  0  0  0  0  0  0  0  0  0  0
   -1.1333   -0.5030    1.2845 H   0  0  0  0  0  0  0  0  0  0  0  0
   -2.8280   -0.2364   -0.9395 H   0  0  0  0  0  0  0  0  0  0  0  0
    1.8922    0.4358   -0.9112 H   0  0  0  0  0  0  0  0  0  0  0  0
    1.7786    1.1421    0.7186 H   0  0  0  0  0  0  0  0  0  0  0  0
    2.4958   -1.1589    0.3158 H   0  0  0  0  0  0  0  0  0  0  0  0
  1  2  2  0
  2  3  1  0
  3  4  1  0
  2  5  1  0
  5  6  1  0
  3  7  1  0
  3  8  1  0
  4  9  1  0
  5 10  1  0
  5 11  1  0
  6 12  1  0
M  END
