
     RDKit          3D

 14 13  0  0  0  0  0  0  0  0999 V2000
   -1.2102   -1.3675    2.3309 O   0  0  0  0  0  0  0  0  0  0  0  0
   -1.1829   -0.5946    1.3435 C   0  0  0  0  0  0  0  0  0  0  0  0
    0.0514   -0.3034    0.6702 C   0  0  0  0  0  0  0  0  0  0  0  0
    1.0942   -0.0456    0.1188 C   0  0  0  0  0  0  0  0  0  0  0  0
    2.3703    0.2884   -0.5516 C   0  0  0  0  0  0  0  0  0  0  0  0
    2.9510   -0.8109   -1.1446 O   0  0  0  0  0  0  0  0  0  0  0  0
   -2.4495    0.0025    0.8977 C   0  0  0  0  0  0  0  0  0  0  0  0
   -2.2982    0.8379   -0.1997 O   0  0  0  0  0  0  0  0  0  0  0  0
    2.1555    1.0343   -1.3143 H   0  0  0  0  0  0  0  0  0  0  0  0
    3.1015    0.6997    0.1906 H   0  0  0  0  0  0  0  0  0  0  0  0
    3.5086   -1.3322   -0.5092 H   0  0  0  0  0  0  0  0  0  0  0  0
   -2.8925    0.6359    1.7145 H   0  0  0  0  0  0  0  0  0  0  0  0
   -3.2371   -0.7749    0.6957 H   0  0  0  0  0  0  0  0  0  0  0  0
   -1.9622    1.7306    0.0944 H   0  0  0  0  0  0  0  0  0  0  0  0
  1  2  2  0
  2  3  1  0
  3  4  3  0
  4  5  1  0
  5  6  1  0
  2  7  1  0
  7  8  1  0
  5  9  1  0
  5 10  1  0
  6 11  1  0
  7 12  1  0
  7 13  1  0
  8 14  1  0
M  END
