
     RDKit          3D

 16 15  0  0  0  0  0  0  0  0999 V2000
   -0.9590    0.4741   -1.3057 O   0  0  0  0  0  0  0  0  0  0  0  0
   -0.6745   -0.1450   -0.2967 C   0  0  0  0  0  0  0  0  0  0  0  0
   -1.7543   -0.4883    0.6355 C   0  0  0  0  0  0  0  0  0  0  0  0
   -2.9598   -0.0190    0.1691 O   0  0  0  0  0  0  0  0  0  0  0  0
    0.7537   -0.4982   -0.1025 C   0  0  0  0  0  0  0  0  0  0  0  0
    0.9484   -1.1888    1.0593 O   0  0  0  0  0  0  0  0  0  0  0  0
    1.6610    0.6965   -0.1644 C   0  0  0  0  0  0  0  0  0  0  0  0
    1.4870    1.4249   -1.3405 O   0  0  0  0  0  0  0  0  0  0  0  0
   -1.8288   -1.6063    0.6537 H   0  0  0  0  0  0  0  0  0  0  0  0
   -1.5667   -0.1697    1.6762 H   0  0  0  0  0  0  0  0  0  0  0  0
   -2.8920    0.7839   -0.4086 H   0  0  0  0  0  0  0  0  0  0  0  0
    1.0416   -1.1656   -0.9591 H   0  0  0  0  0  0  0  0  0  0  0  0
    1.2627   -2.1176    0.9313 H   0  0  0  0  0  0  0  0  0  0  0  0
    2.7085    0.3123   -0.1634 H   0  0  0  0  0  0  0  0  0  0  0  0
    1.5436    1.3370    0.7466 H   0  0  0  0  0  0  0  0  0  0  0  0
    1.2288    2.3698   -1.1309 H   0  0  0  0  0  0  0  0  0  0  0  0
  1  2  2  0
  2  3  1  0
  3  4  1  0
  2  5  1  0
  5  6  1  0
  5  7  1  0
  7  8  1  0
  3  9  1  0
  3 10  1  0
  4 11  1  0
  5 12  1  0
  6 13  1  0
  7 14  1  0
  7 15  1  0
  8 16  1  0
M  END
