
     RDKit          3D

 19 19  0  0  0  0  0  0  0  0999 V2000
   -0.3474    1.4027    0.9546 O   0  0  0  0  0  0  0  0  0  0  0  0
   -0.0709    0.5877    0.0938 C   0  0  0  0  0  0  0  0  0  0  0  0
   -1.1682   -0.2259   -0.4778 C   0  0  0  0  0  0  0  0  0  0  0  0
   -2.4969    0.1344    0.1553 C   0  0  0  0  0  0  0  0  0  0  0  0
   -3.5412   -0.5987   -0.3481 O   0  0  0  0  0  0  0  0  0  0  0  0
    1.3196    0.4381   -0.3449 C   0  0  0  0  0  0  0  0  0  0  0  0
    1.8706   -0.9595   -0.1214 C   0  0  0  0  0  0  0  0  0  0  0  0
    3.0450   -0.3805    0.3277 O   0  0  0  0  0  0  0  0  0  0  0  0
    2.3632    0.8099    0.6567 C   0  0  0  0  0  0  0  0  0  0  0  0
   -1.2531    0.0870   -1.5593 H   0  0  0  0  0  0  0  0  0  0  0  0
   -1.0121   -1.3047   -0.3848 H   0  0  0  0  0  0  0  0  0  0  0  0
   -2.7059    1.2206    0.0878 H   0  0  0  0  0  0  0  0  0  0  0  0
   -2.4061   -0.0973    1.2444 H   0  0  0  0  0  0  0  0  0  0  0  0
   -3.3273   -1.5023   -0.6220 H   0  0  0  0  0  0  0  0  0  0  0  0
    1.4787    0.8399   -1.3578 H   0  0  0  0  0  0  0  0  0  0  0  0
    1.2883   -1.4608    0.6676 H   0  0  0  0  0  0  0  0  0  0  0  0
    1.9304   -1.4806   -1.0897 H   0  0  0  0  0  0  0  0  0  0  0  0
    2.0583    0.7843    1.7039 H   0  0  0  0  0  0  0  0  0  0  0  0
    2.9751    1.7059    0.4138 H   0  0  0  0  0  0  0  0  0  0  0  0
  1  2  2  0
  2  3  1  0
  3  4  1  0
  4  5  1  0
  2  6  1  0
  6  7  1  0
  7  8  1  0
  8  9  1  0
  9  6  1  0
  3 10  1  0
  3 11  1  0
  4 12  1  0
  4 13  1  0
  5 14  1  0
  6 15  1  0
  7 16  1  0
  7 17  1  0
  9 18  1  0
  9 19  1  0
M  END
