
     RDKit          3D

 17 17  0  0  0  0  0  0  0  0999 V2000
    1.5312   -1.2642    1.2319 O   0  0  0  0  0  0  0  0  0  0  0  0
    1.3622   -0.2535    0.4793 C   0  0  0  0  0  0  0  0  0  0  0  0
    2.5113    0.6667    0.3456 C   0  0  0  0  0  0  0  0  0  0  0  0
    2.2032    1.7273   -0.4995 O   0  0  0  0  0  0  0  0  0  0  0  0
    0.1565   -0.0392   -0.1755 O   0  0  0  0  0  0  0  0  0  0  0  0
   -0.8643   -0.9865    0.0307 C   0  0  0  0  0  0  0  0  0  0  0  0
   -2.1251   -0.6660   -0.7191 C   0  0  0  0  0  0  0  0  0  0  0  0
   -2.2339    0.3551   -1.6736 C   0  0  0  0  0  0  0  0  0  0  0  0
   -2.6213    0.6594   -0.2603 O   0  0  0  0  0  0  0  0  0  0  0  0
    3.4176    0.1056    0.0040 H   0  0  0  0  0  0  0  0  0  0  0  0
    2.7637    1.0091    1.3824 H   0  0  0  0  0  0  0  0  0  0  0  0
    2.8070    1.6460   -1.2826 H   0  0  0  0  0  0  0  0  0  0  0  0
   -0.4702   -1.9677   -0.2901 H   0  0  0  0  0  0  0  0  0  0  0  0
   -1.0233   -1.0620    1.1292 H   0  0  0  0  0  0  0  0  0  0  0  0
   -2.9315   -1.4123   -0.5660 H   0  0  0  0  0  0  0  0  0  0  0  0
   -1.3602    0.9777   -1.9684 H   0  0  0  0  0  0  0  0  0  0  0  0
   -3.1230    0.5045   -2.2827 H   0  0  0  0  0  0  0  0  0  0  0  0
  1  2  2  0
  2  3  1  0
  3  4  1  0
  2  5  1  0
  5  6  1  0
  6  7  1  0
  7  8  1  0
  8  9  1  0
  9  7  1  0
  3 10  1  0
  3 11  1  0
  4 12  1  0
  6 13  1  0
  6 14  1  0
  7 15  1  0
  8 16  1  0
  8 17  1  0
M  END
