
     RDKit          3D

 17 17  0  0  0  0  0  0  0  0999 V2000
    1.6862   -0.9457    1.0679 O   0  0  0  0  0  0  0  0  0  0  0  0
    1.3836   -0.1885    0.1123 C   0  0  0  0  0  0  0  0  0  0  0  0
    2.4885    0.3199   -0.7280 C   0  0  0  0  0  0  0  0  0  0  0  0
    3.7124   -0.1621   -0.2763 O   0  0  0  0  0  0  0  0  0  0  0  0
    0.0304    0.1912   -0.1846 C   0  0  0  0  0  0  0  0  0  0  0  0
   -0.1936    0.9519   -1.1567 O   0  0  0  0  0  0  0  0  0  0  0  0
   -1.1489   -0.2718    0.6069 C   0  0  0  0  0  0  0  0  0  0  0  0
   -2.3314    0.6381    0.7180 C   0  0  0  0  0  0  0  0  0  0  0  0
   -2.4400   -0.5099   -0.2017 C   0  0  0  0  0  0  0  0  0  0  0  0
    2.5167    1.4485   -0.7003 H   0  0  0  0  0  0  0  0  0  0  0  0
    2.2810   -0.0312   -1.7671 H   0  0  0  0  0  0  0  0  0  0  0  0
    3.5788   -0.8616    0.4036 H   0  0  0  0  0  0  0  0  0  0  0  0
   -0.9761   -0.9441    1.4700 H   0  0  0  0  0  0  0  0  0  0  0  0
   -2.9654    0.5704    1.6358 H   0  0  0  0  0  0  0  0  0  0  0  0
   -2.3122    1.6424    0.2100 H   0  0  0  0  0  0  0  0  0  0  0  0
   -2.9825   -1.4416    0.0878 H   0  0  0  0  0  0  0  0  0  0  0  0
   -2.3275   -0.4058   -1.2977 H   0  0  0  0  0  0  0  0  0  0  0  0
  1  2  2  0
  2  3  1  0
  3  4  1  0
  2  5  1  0
  5  6  2  0
  5  7  1  0
  7  8  1  0
  8  9  1  0
  9  7  1  0
  3 10  1  0
  3 11  1  0
  4 12  1  0
  7 13  1  0
  8 14  1  0
  8 15  1  0
  9 16  1  0
  9 17  1  0
M  END
