
     RDKit          3D

 19 20  0  0  0  0  0  0  0  0999 V2000
    0.7460   -0.3023    2.2337 O   0  0  0  0  0  0  0  0  0  0  0  0
    0.8761   -0.1608    1.0212 C   0  0  0  0  0  0  0  0  0  0  0  0
    2.2325    0.1874    0.5348 C   0  0  0  0  0  0  0  0  0  0  0  0
    2.2246    0.3135   -0.8459 O   0  0  0  0  0  0  0  0  0  0  0  0
   -0.1961   -0.3093    0.0397 C   0  0  0  0  0  0  0  0  0  0  0  0
   -0.5042    0.8839   -0.7904 C   0  0  0  0  0  0  0  0  0  0  0  0
   -1.9846    0.6098   -0.7300 C   0  0  0  0  0  0  0  0  0  0  0  0
   -1.6513   -0.2828    0.4656 C   0  0  0  0  0  0  0  0  0  0  0  0
   -0.9943   -1.5376    0.0838 C   0  0  0  0  0  0  0  0  0  0  0  0
    2.9565   -0.6427    0.7626 H   0  0  0  0  0  0  0  0  0  0  0  0
    2.5267    1.1274    1.0404 H   0  0  0  0  0  0  0  0  0  0  0  0
    3.1494    0.1560   -1.1683 H   0  0  0  0  0  0  0  0  0  0  0  0
   -0.2921    1.8290   -0.2096 H   0  0  0  0  0  0  0  0  0  0  0  0
   -0.0525    0.9620   -1.7793 H   0  0  0  0  0  0  0  0  0  0  0  0
   -2.6414    1.4491   -0.5238 H   0  0  0  0  0  0  0  0  0  0  0  0
   -2.2637   -0.0136   -1.6286 H   0  0  0  0  0  0  0  0  0  0  0  0
   -1.9434    0.0035    1.4626 H   0  0  0  0  0  0  0  0  0  0  0  0
   -0.7786   -2.2546    0.8727 H   0  0  0  0  0  0  0  0  0  0  0  0
   -1.4097   -2.0179   -0.8411 H   0  0  0  0  0  0  0  0  0  0  0  0
  1  2  2  0
  2  3  1  0
  3  4  1  0
  2  5  1  0
  5  6  1  0
  6  7  1  0
  7  8  1  0
  8  9  1  0
  8  5  1  0
  9  5  1  0
  3 10  1  0
  3 11  1  0
  4 12  1  0
  6 13  1  0
  6 14  1  0
  7 15  1  0
  7 16  1  0
  8 17  1  0
  9 18  1  0
  9 19  1  0
M  END
