
     RDKit          3D

 18 17  0  0  0  0  0  0  0  0999 V2000
    0.4268   -1.4409   -0.8594 O   0  0  0  0  0  0  0  0  0  0  0  0
    0.1344   -0.4513   -0.2158 C   0  0  0  0  0  0  0  0  0  0  0  0
    1.0300    0.7002   -0.0560 C   0  0  0  0  0  0  0  0  0  0  0  0
    2.3491    0.5338   -0.7691 C   0  0  0  0  0  0  0  0  0  0  0  0
    2.9692   -0.5952   -0.2316 O   0  0  0  0  0  0  0  0  0  0  0  0
   -1.1980   -0.4224    0.4341 C   0  0  0  0  0  0  0  0  0  0  0  0
   -2.3085   -0.1016   -0.5402 C   0  0  0  0  0  0  0  0  0  0  0  0
   -3.5034   -0.1076    0.2048 O   0  0  0  0  0  0  0  0  0  0  0  0
    0.4880    1.5983   -0.4570 H   0  0  0  0  0  0  0  0  0  0  0  0
    1.1858    0.8699    1.0270 H   0  0  0  0  0  0  0  0  0  0  0  0
    2.9768    1.4043   -0.4913 H   0  0  0  0  0  0  0  0  0  0  0  0
    2.2584    0.4495   -1.8474 H   0  0  0  0  0  0  0  0  0  0  0  0
    3.9582   -0.4539   -0.3316 H   0  0  0  0  0  0  0  0  0  0  0  0
   -1.3586   -1.4066    0.9167 H   0  0  0  0  0  0  0  0  0  0  0  0
   -1.2595    0.3327    1.2587 H   0  0  0  0  0  0  0  0  0  0  0  0
   -2.1893    0.9107   -0.9407 H   0  0  0  0  0  0  0  0  0  0  0  0
   -2.3885   -0.8223   -1.3589 H   0  0  0  0  0  0  0  0  0  0  0  0
   -3.5710   -0.9975    0.6374 H   0  0  0  0  0  0  0  0  0  0  0  0
  1  2  2  0
  2  3  1  0
  3  4  1  0
  4  5  1  0
  2  6  1  0
  6  7  1  0
  7  8  1  0
  3  9  1  0
  3 10  1  0
  4 11  1  0
  4 12  1  0
  5 13  1  0
  6 14  1  0
  6 15  1  0
  7 16  1  0
  7 17  1  0
  8 18  1  0
M  END
