
     RDKit          3D

 19 19  0  0  0  0  0  0  0  0999 V2000
    1.2171    1.5782   -0.1824 O   0  0  0  0  0  0  0  0  0  0  0  0
    1.1439    0.3682   -0.0773 C   0  0  0  0  0  0  0  0  0  0  0  0
    2.3409   -0.3802    0.3705 C   0  0  0  0  0  0  0  0  0  0  0  0
    3.4208    0.4650    0.6141 O   0  0  0  0  0  0  0  0  0  0  0  0
   -0.1439   -0.2765   -0.4061 C   0  0  0  0  0  0  0  0  0  0  0  0
   -1.1879    0.7257   -0.8337 C   0  0  0  0  0  0  0  0  0  0  0  0
   -2.4642    0.0935   -0.3115 C   0  0  0  0  0  0  0  0  0  0  0  0
   -2.1157   -1.0481    0.3648 O   0  0  0  0  0  0  0  0  0  0  0  0
   -0.8030   -0.9202    0.7924 C   0  0  0  0  0  0  0  0  0  0  0  0
    2.6912   -1.0912   -0.4347 H   0  0  0  0  0  0  0  0  0  0  0  0
    2.1447   -0.9406    1.3278 H   0  0  0  0  0  0  0  0  0  0  0  0
    3.2517    1.3838    0.2894 H   0  0  0  0  0  0  0  0  0  0  0  0
   -0.0587   -1.0262   -1.2079 H   0  0  0  0  0  0  0  0  0  0  0  0
   -1.2073    0.9105   -1.9096 H   0  0  0  0  0  0  0  0  0  0  0  0
   -0.9752    1.6666   -0.2464 H   0  0  0  0  0  0  0  0  0  0  0  0
   -2.9683    0.7925    0.3617 H   0  0  0  0  0  0  0  0  0  0  0  0
   -3.1110   -0.1188   -1.2091 H   0  0  0  0  0  0  0  0  0  0  0  0
   -0.4132   -1.9187    1.0150 H   0  0  0  0  0  0  0  0  0  0  0  0
   -0.7617   -0.2634    1.6832 H   0  0  0  0  0  0  0  0  0  0  0  0
  1  2  2  0
  2  3  1  0
  3  4  1  0
  2  5  1  0
  5  6  1  0
  6  7  1  0
  7  8  1  0
  8  9  1  0
  9  5  1  0
  3 10  1  0
  3 11  1  0
  4 12  1  0
  5 13  1  0
  6 14  1  0
  6 15  1  0
  7 16  1  0
  7 17  1  0
  9 18  1  0
  9 19  1  0
M  END
