
     RDKit          3D

 16 16  0  0  0  0  0  0  0  0999 V2000
    0.0215   -0.7731    1.2148 O   0  0  0  0  0  0  0  0  0  0  0  0
   -0.2338    0.0496    0.3520 C   0  0  0  0  0  0  0  0  0  0  0  0
    0.7959    1.0012   -0.0486 C   0  0  0  0  0  0  0  0  0  0  0  0
    2.0889    0.3499   -0.4859 C   0  0  0  0  0  0  0  0  0  0  0  0
    2.6891   -0.4371    0.4760 O   0  0  0  0  0  0  0  0  0  0  0  0
   -1.5912    0.0343   -0.2456 C   0  0  0  0  0  0  0  0  0  0  0  0
   -2.5635   -0.9737    0.0589 C   0  0  0  0  0  0  0  0  0  0  0  0
   -2.6444    0.2390    0.7713 O   0  0  0  0  0  0  0  0  0  0  0  0
    1.0827    1.7204    0.7638 H   0  0  0  0  0  0  0  0  0  0  0  0
    0.4256    1.5959   -0.9069 H   0  0  0  0  0  0  0  0  0  0  0  0
    1.9417   -0.2732   -1.4041 H   0  0  0  0  0  0  0  0  0  0  0  0
    2.8149    1.1521   -0.7320 H   0  0  0  0  0  0  0  0  0  0  0  0
    2.6283   -1.4125    0.2152 H   0  0  0  0  0  0  0  0  0  0  0  0
   -1.8005    0.7706   -1.0460 H   0  0  0  0  0  0  0  0  0  0  0  0
   -3.3696   -1.1602   -0.6979 H   0  0  0  0  0  0  0  0  0  0  0  0
   -2.2856   -1.8832    0.6345 H   0  0  0  0  0  0  0  0  0  0  0  0
  1  2  2  0
  2  3  1  0
  3  4  1  0
  4  5  1  0
  2  6  1  0
  6  7  1  0
  7  8  1  0
  8  6  1  0
  3  9  1  0
  3 10  1  0
  4 11  1  0
  4 12  1  0
  5 13  1  0
  6 14  1  0
  7 15  1  0
  7 16  1  0
M  END
