
     RDKit          3D

 17 18  0  0  0  0  0  0  0  0999 V2000
    1.2814    0.0282   -1.6061 O   0  0  0  0  0  0  0  0  0  0  0  0
    0.9901   -0.0403   -0.4376 C   0  0  0  0  0  0  0  0  0  0  0  0
    2.0226    0.2550    0.5715 C   0  0  0  0  0  0  0  0  0  0  0  0
    3.2216    0.5795   -0.0595 O   0  0  0  0  0  0  0  0  0  0  0  0
   -0.3638   -0.4102   -0.0577 C   0  0  0  0  0  0  0  0  0  0  0  0
   -1.3056   -0.8546   -1.1040 C   0  0  0  0  0  0  0  0  0  0  0  0
   -1.5582    0.3959   -0.3519 C   0  0  0  0  0  0  0  0  0  0  0  0
   -1.8689    0.3159    1.1132 C   0  0  0  0  0  0  0  0  0  0  0  0
   -0.7378   -0.4999    1.2741 O   0  0  0  0  0  0  0  0  0  0  0  0
    1.7075    1.0243    1.3030 H   0  0  0  0  0  0  0  0  0  0  0  0
    2.2508   -0.6949    1.1428 H   0  0  0  0  0  0  0  0  0  0  0  0
    3.2698   -0.0115   -0.8650 H   0  0  0  0  0  0  0  0  0  0  0  0
   -1.8614   -1.7994   -0.8628 H   0  0  0  0  0  0  0  0  0  0  0  0
   -0.9680   -0.7579   -2.1490 H   0  0  0  0  0  0  0  0  0  0  0  0
   -1.5263    1.3620   -0.8742 H   0  0  0  0  0  0  0  0  0  0  0  0
   -2.8028   -0.2148    1.3880 H   0  0  0  0  0  0  0  0  0  0  0  0
   -1.7509    1.3226    1.5750 H   0  0  0  0  0  0  0  0  0  0  0  0
  1  2  2  0
  2  3  1  0
  3  4  1  0
  2  5  1  0
  5  6  1  0
  6  7  1  0
  7  8  1  0
  8  9  1  0
  7  5  1  0
  9  5  1  0
  3 10  1  0
  3 11  1  0
  4 12  1  0
  6 13  1  0
  6 14  1  0
  7 15  1  0
  8 16  1  0
  8 17  1  0
M  END
