
     RDKit          3D

 19 19  0  0  0  0  0  0  0  0999 V2000
   -0.7323   -0.9105   -1.8646 O   0  0  0  0  0  0  0  0  0  0  0  0
   -0.0837   -0.5466   -0.8623 C   0  0  0  0  0  0  0  0  0  0  0  0
    1.3653   -0.6629   -1.0017 C   0  0  0  0  0  0  0  0  0  0  0  0
    2.1967   -0.1703    0.1297 C   0  0  0  0  0  0  0  0  0  0  0  0
    2.0433    1.1727    0.4170 O   0  0  0  0  0  0  0  0  0  0  0  0
   -0.8848   -0.0732    0.2631 C   0  0  0  0  0  0  0  0  0  0  0  0
   -0.1783    0.3232    1.3989 O   0  0  0  0  0  0  0  0  0  0  0  0
   -2.2943   -0.4806    0.4626 C   0  0  0  0  0  0  0  0  0  0  0  0
   -2.0709    0.8241   -0.1706 C   0  0  0  0  0  0  0  0  0  0  0  0
    1.6275   -1.7280   -1.2773 H   0  0  0  0  0  0  0  0  0  0  0  0
    1.7040   -0.0724   -1.9095 H   0  0  0  0  0  0  0  0  0  0  0  0
    3.2722   -0.2930   -0.2080 H   0  0  0  0  0  0  0  0  0  0  0  0
    2.0795   -0.7681    1.0504 H   0  0  0  0  0  0  0  0  0  0  0  0
    2.4851    1.3644    1.2870 H   0  0  0  0  0  0  0  0  0  0  0  0
   -0.7049    1.0549    1.8158 H   0  0  0  0  0  0  0  0  0  0  0  0
   -2.6744   -0.4427    1.5065 H   0  0  0  0  0  0  0  0  0  0  0  0
   -2.7785   -1.2730   -0.1359 H   0  0  0  0  0  0  0  0  0  0  0  0
   -2.0964    1.7766    0.3677 H   0  0  0  0  0  0  0  0  0  0  0  0
   -2.2751    0.9054   -1.2689 H   0  0  0  0  0  0  0  0  0  0  0  0
  1  2  2  0
  2  3  1  0
  3  4  1  0
  4  5  1  0
  2  6  1  0
  6  7  1  0
  6  8  1  0
  8  9  1  0
  9  6  1  0
  3 10  1  0
  3 11  1  0
  4 12  1  0
  4 13  1  0
  5 14  1  0
  7 15  1  0
  8 16  1  0
  8 17  1  0
  9 18  1  0
  9 19  1  0
M  END
