
     RDKit          3D

 16 16  0  0  0  0  0  0  0  0999 V2000
    0.5429   -1.2306    1.1257 O   0  0  0  0  0  0  0  0  0  0  0  0
    0.7442   -0.5079    0.1824 C   0  0  0  0  0  0  0  0  0  0  0  0
    1.8181    0.5182    0.2659 C   0  0  0  0  0  0  0  0  0  0  0  0
    2.4801    0.4991    1.4919 O   0  0  0  0  0  0  0  0  0  0  0  0
   -0.1109   -0.6891   -1.0212 C   0  0  0  0  0  0  0  0  0  0  0  0
   -1.5515   -0.7696   -0.4752 C   0  0  0  0  0  0  0  0  0  0  0  0
   -1.9936    0.4139    0.2420 C   0  0  0  0  0  0  0  0  0  0  0  0
   -2.4909    0.0612   -1.0727 O   0  0  0  0  0  0  0  0  0  0  0  0
    1.4114    1.5400    0.0237 H   0  0  0  0  0  0  0  0  0  0  0  0
    2.5922    0.2705   -0.5117 H   0  0  0  0  0  0  0  0  0  0  0  0
    2.5000    1.4311    1.8774 H   0  0  0  0  0  0  0  0  0  0  0  0
    0.0145    0.1988   -1.6465 H   0  0  0  0  0  0  0  0  0  0  0  0
    0.0510   -1.6452   -1.5080 H   0  0  0  0  0  0  0  0  0  0  0  0
   -1.9090   -1.7579   -0.2131 H   0  0  0  0  0  0  0  0  0  0  0  0
   -2.7096    0.3264    1.0583 H   0  0  0  0  0  0  0  0  0  0  0  0
   -1.3888    1.3410    0.1810 H   0  0  0  0  0  0  0  0  0  0  0  0
  1  2  2  0
  2  3  1  0
  3  4  1  0
  2  5  1  0
  5  6  1  0
  6  7  1  0
  7  8  1  0
  8  6  1  0
  3  9  1  0
  3 10  1  0
  4 11  1  0
  5 12  1  0
  5 13  1  0
  6 14  1  0
  7 15  1  0
  7 16  1  0
M  END
