
     RDKit          3D

 19 18  0  0  0  0  0  0  0  0999 V2000
    0.8021   -1.2893   -0.3006 O   0  0  0  0  0  0  0  0  0  0  0  0
    0.5807   -0.0628   -0.1646 C   0  0  0  0  0  0  0  0  0  0  0  0
    1.7498    0.8799   -0.1077 C   0  0  0  0  0  0  0  0  0  0  0  0
    3.0415    0.1046   -0.2347 C   0  0  0  0  0  0  0  0  0  0  0  0
    3.0088   -0.5585   -1.4690 O   0  0  0  0  0  0  0  0  0  0  0  0
   -0.7143    0.3577   -0.0747 O   0  0  0  0  0  0  0  0  0  0  0  0
   -1.7928   -0.5602   -0.1322 C   0  0  0  0  0  0  0  0  0  0  0  0
   -3.0831    0.2175   -0.0051 C   0  0  0  0  0  0  0  0  0  0  0  0
   -3.0816    0.8905    1.2143 O   0  0  0  0  0  0  0  0  0  0  0  0
    1.7319    1.3940    0.8650 H   0  0  0  0  0  0  0  0  0  0  0  0
    1.6490    1.6312   -0.8988 H   0  0  0  0  0  0  0  0  0  0  0  0
    3.8812    0.8218   -0.1914 H   0  0  0  0  0  0  0  0  0  0  0  0
    3.1588   -0.6159    0.5770 H   0  0  0  0  0  0  0  0  0  0  0  0
    3.0475   -1.5394   -1.3620 H   0  0  0  0  0  0  0  0  0  0  0  0
   -1.7820   -0.9763   -1.1782 H   0  0  0  0  0  0  0  0  0  0  0  0
   -1.7237   -1.3709    0.5911 H   0  0  0  0  0  0  0  0  0  0  0  0
   -3.9365   -0.5012    0.0133 H   0  0  0  0  0  0  0  0  0  0  0  0
   -3.2038    0.9245   -0.8225 H   0  0  0  0  0  0  0  0  0  0  0  0
   -3.3337    0.2530    1.9208 H   0  0  0  0  0  0  0  0  0  0  0  0
  1  2  2  0
  2  3  1  0
  3  4  1  0
  4  5  1  0
  2  6  1  0
  6  7  1  0
  7  8  1  0
  8  9  1  0
  3 10  1  0
  3 11  1  0
  4 12  1  0
  4 13  1  0
  5 14  1  0
  7 15  1  0
  7 16  1  0
  8 17  1  0
  8 18  1  0
  9 19  1  0
M  END
