
     RDKit          3D

 17 18  0  0  0  0  0  0  0  0999 V2000
   -0.3734    1.6676   -1.0281 O   0  0  0  0  0  0  0  0  0  0  0  0
    0.2699    0.7209   -0.6391 C   0  0  0  0  0  0  0  0  0  0  0  0
    1.7338    0.7394   -0.8026 C   0  0  0  0  0  0  0  0  0  0  0  0
    2.5788   -0.4071   -0.5084 C   0  0  0  0  0  0  0  0  0  0  0  0
    2.3458    0.5037    0.5560 O   0  0  0  0  0  0  0  0  0  0  0  0
   -0.4130   -0.4242   -0.0143 C   0  0  0  0  0  0  0  0  0  0  0  0
   -1.7690   -0.8306   -0.4301 C   0  0  0  0  0  0  0  0  0  0  0  0
   -1.6344   -0.1110    0.8691 C   0  0  0  0  0  0  0  0  0  0  0  0
   -2.0735    1.2212    0.8605 O   0  0  0  0  0  0  0  0  0  0  0  0
    2.1996    1.6247   -1.2791 H   0  0  0  0  0  0  0  0  0  0  0  0
    2.1855   -1.4337   -0.3999 H   0  0  0  0  0  0  0  0  0  0  0  0
    3.6146   -0.3837   -0.8965 H   0  0  0  0  0  0  0  0  0  0  0  0
    0.2478   -1.2662    0.3223 H   0  0  0  0  0  0  0  0  0  0  0  0
   -2.2218   -0.2911   -1.2810 H   0  0  0  0  0  0  0  0  0  0  0  0
   -2.0738   -1.9085   -0.3785 H   0  0  0  0  0  0  0  0  0  0  0  0
   -1.6268   -0.6301    1.8271 H   0  0  0  0  0  0  0  0  0  0  0  0
   -2.9902    1.2088    0.4396 H   0  0  0  0  0  0  0  0  0  0  0  0
  1  2  2  0
  2  3  1  0
  3  4  1  0
  4  5  1  0
  2  6  1  0
  6  7  1  0
  7  8  1  0
  8  9  1  0
  5  3  1  0
  8  6  1  0
  3 10  1  0
  4 11  1  0
  4 12  1  0
  6 13  1  0
  7 14  1  0
  7 15  1  0
  8 16  1  0
  9 17  1  0
M  END
