
     RDKit          3D

 17 18  0  0  0  0  0  0  0  0999 V2000
   -0.4683    1.1006    1.1547 O   0  0  0  0  0  0  0  0  0  0  0  0
   -0.4206    0.3556    0.2175 C   0  0  0  0  0  0  0  0  0  0  0  0
    0.8093    0.2773   -0.5906 C   0  0  0  0  0  0  0  0  0  0  0  0
    1.9450    1.1499   -0.1831 C   0  0  0  0  0  0  0  0  0  0  0  0
    2.3535    0.1636    0.7399 O   0  0  0  0  0  0  0  0  0  0  0  0
    1.7981   -0.7779   -0.1417 C   0  0  0  0  0  0  0  0  0  0  0  0
   -1.5795   -0.4857   -0.1384 C   0  0  0  0  0  0  0  0  0  0  0  0
   -2.8997   -0.1984    0.3758 C   0  0  0  0  0  0  0  0  0  0  0  0
   -2.0368   -1.2181    1.0721 O   0  0  0  0  0  0  0  0  0  0  0  0
    0.6110    0.3179   -1.6737 H   0  0  0  0  0  0  0  0  0  0  0  0
    1.7287    2.1275    0.2401 H   0  0  0  0  0  0  0  0  0  0  0  0
    2.6975    1.2305   -1.0072 H   0  0  0  0  0  0  0  0  0  0  0  0
    1.3554   -1.6228    0.4204 H   0  0  0  0  0  0  0  0  0  0  0  0
    2.4802   -1.0430   -0.9683 H   0  0  0  0  0  0  0  0  0  0  0  0
   -1.4915   -1.1566   -1.0085 H   0  0  0  0  0  0  0  0  0  0  0  0
   -3.7528   -0.7878   -0.0376 H   0  0  0  0  0  0  0  0  0  0  0  0
   -3.1296    0.5672    1.1141 H   0  0  0  0  0  0  0  0  0  0  0  0
  1  2  2  0
  2  3  1  0
  3  4  1  0
  4  5  1  0
  5  6  1  0
  2  7  1  0
  7  8  1  0
  8  9  1  0
  6  3  1  0
  9  7  1  0
  3 10  1  0
  4 11  1  0
  4 12  1  0
  6 13  1  0
  6 14  1  0
  7 15  1  0
  8 16  1  0
  8 17  1  0
M  END
