
     RDKit          3D

 19 19  0  0  0  0  0  0  0  0999 V2000
    1.0784    0.9234   -1.3110 O   0  0  0  0  0  0  0  0  0  0  0  0
    0.9498    0.2226   -0.3407 C   0  0  0  0  0  0  0  0  0  0  0  0
   -0.3570   -0.2932    0.1519 C   0  0  0  0  0  0  0  0  0  0  0  0
   -1.5074    0.1640   -0.7068 C   0  0  0  0  0  0  0  0  0  0  0  0
   -2.7726   -0.4363   -0.0867 C   0  0  0  0  0  0  0  0  0  0  0  0
   -2.9055    0.0354    1.2394 O   0  0  0  0  0  0  0  0  0  0  0  0
    2.1688   -0.1580    0.4220 C   0  0  0  0  0  0  0  0  0  0  0  0
    3.4671    0.1134   -0.1679 C   0  0  0  0  0  0  0  0  0  0  0  0
    2.9832    1.0281    0.8163 O   0  0  0  0  0  0  0  0  0  0  0  0
   -0.3808   -1.4082    0.2004 H   0  0  0  0  0  0  0  0  0  0  0  0
   -0.5007    0.1536    1.1680 H   0  0  0  0  0  0  0  0  0  0  0  0
   -1.5316    1.2539   -0.6920 H   0  0  0  0  0  0  0  0  0  0  0  0
   -1.4253   -0.2173   -1.7299 H   0  0  0  0  0  0  0  0  0  0  0  0
   -3.6795   -0.1427   -0.6203 H   0  0  0  0  0  0  0  0  0  0  0  0
   -2.6564   -1.5337    0.0080 H   0  0  0  0  0  0  0  0  0  0  0  0
   -2.8346    1.0041    1.3004 H   0  0  0  0  0  0  0  0  0  0  0  0
    2.0534   -0.8020    1.3156 H   0  0  0  0  0  0  0  0  0  0  0  0
    4.3483   -0.4402    0.2196 H   0  0  0  0  0  0  0  0  0  0  0  0
    3.5021    0.5331   -1.1862 H   0  0  0  0  0  0  0  0  0  0  0  0
  1  2  2  0
  2  3  1  0
  3  4  1  0
  4  5  1  0
  5  6  1  0
  2  7  1  0
  7  8  1  0
  8  9  1  0
  9  7  1  0
  3 10  1  0
  3 11  1  0
  4 12  1  0
  4 13  1  0
  5 14  1  0
  5 15  1  0
  6 16  1  0
  7 17  1  0
  8 18  1  0
  8 19  1  0
M  END
