
     RDKit          3D

 17 17  0  0  0  0  0  0  0  0999 V2000
   -0.8926    1.2271    1.4850 O   0  0  0  0  0  0  0  0  0  0  0  0
   -0.8248    0.6383    0.4223 C   0  0  0  0  0  0  0  0  0  0  0  0
   -1.9640   -0.2359    0.0329 C   0  0  0  0  0  0  0  0  0  0  0  0
   -2.9687   -0.2513    0.9691 O   0  0  0  0  0  0  0  0  0  0  0  0
    0.3499    0.7794   -0.4642 C   0  0  0  0  0  0  0  0  0  0  0  0
    1.2560    1.6417    0.1280 O   0  0  0  0  0  0  0  0  0  0  0  0
    1.0441   -0.5512   -0.7179 C   0  0  0  0  0  0  0  0  0  0  0  0
    2.4802   -0.6961   -0.5757 C   0  0  0  0  0  0  0  0  0  0  0  0
    1.5505   -1.2150    0.4330 O   0  0  0  0  0  0  0  0  0  0  0  0
   -2.3941    0.1486   -0.9199 H   0  0  0  0  0  0  0  0  0  0  0  0
   -1.5550   -1.2484   -0.1929 H   0  0  0  0  0  0  0  0  0  0  0  0
   -3.4619   -1.1157    1.0038 H   0  0  0  0  0  0  0  0  0  0  0  0
    0.0077    1.2405   -1.4054 H   0  0  0  0  0  0  0  0  0  0  0  0
    0.7714    2.3653    0.6028 H   0  0  0  0  0  0  0  0  0  0  0  0
    0.5140   -1.2519   -1.3911 H   0  0  0  0  0  0  0  0  0  0  0  0
    3.1158    0.0719   -0.1144 H   0  0  0  0  0  0  0  0  0  0  0  0
    2.9715   -1.5473   -1.0678 H   0  0  0  0  0  0  0  0  0  0  0  0
  1  2  2  0
  2  3  1  0
  3  4  1  0
  2  5  1  0
  5  6  1  0
  5  7  1  0
  7  8  1  0
  8  9  1  0
  9  7  1  0
  3 10  1  0
  3 11  1  0
  4 12  1  0
  5 13  1  0
  6 14  1  0
  7 15  1  0
  8 16  1  0
  8 17  1  0
M  END
