
     RDKit          3D

 19 20  0  0  0  0  0  0  0  0999 V2000
   -1.2797   -1.8658    0.6843 O   0  0  0  0  0  0  0  0  0  0  0  0
   -1.3563   -0.7890    0.1150 C   0  0  0  0  0  0  0  0  0  0  0  0
   -2.6588   -0.4784   -0.5285 C   0  0  0  0  0  0  0  0  0  0  0  0
   -2.6473    0.7698   -1.1511 O   0  0  0  0  0  0  0  0  0  0  0  0
   -0.1861    0.1287    0.0921 C   0  0  0  0  0  0  0  0  0  0  0  0
    0.7786    0.1429    1.2184 C   0  0  0  0  0  0  0  0  0  0  0  0
    2.0138    0.9599    1.0604 C   0  0  0  0  0  0  0  0  0  0  0  0
    2.3888    0.2219   -0.2186 C   0  0  0  0  0  0  0  0  0  0  0  0
    1.1361   -0.5876   -0.0388 C   0  0  0  0  0  0  0  0  0  0  0  0
   -2.8961   -1.2964   -1.2412 H   0  0  0  0  0  0  0  0  0  0  0  0
   -3.4988   -0.4918    0.2183 H   0  0  0  0  0  0  0  0  0  0  0  0
   -3.5808    1.0388   -1.3322 H   0  0  0  0  0  0  0  0  0  0  0  0
   -0.3153    1.0936   -0.4406 H   0  0  0  0  0  0  0  0  0  0  0  0
    0.5837   -0.4176    2.1564 H   0  0  0  0  0  0  0  0  0  0  0  0
    1.8528    2.0476    0.8304 H   0  0  0  0  0  0  0  0  0  0  0  0
    2.8173    0.7990    1.8073 H   0  0  0  0  0  0  0  0  0  0  0  0
    3.2749   -0.4315   -0.1360 H   0  0  0  0  0  0  0  0  0  0  0  0
    2.4065    0.8457   -1.1282 H   0  0  0  0  0  0  0  0  0  0  0  0
    1.1667   -1.6898   -0.0551 H   0  0  0  0  0  0  0  0  0  0  0  0
  1  2  2  0
  2  3  1  0
  3  4  1  0
  2  5  1  0
  5  6  1  0
  6  7  1  0
  7  8  1  0
  8  9  1  0
  9  5  1  0
  9  6  1  0
  3 10  1  0
  3 11  1  0
  4 12  1  0
  5 13  1  0
  6 14  1  0
  7 15  1  0
  7 16  1  0
  8 17  1  0
  8 18  1  0
  9 19  1  0
M  END
