
     RDKit          3D

 21 21  0  0  0  0  0  0  0  0999 V2000
    0.5038    0.9197    0.8645 O   0  0  0  0  0  0  0  0  0  0  0  0
    0.5459   -0.1805    0.3616 C   0  0  0  0  0  0  0  0  0  0  0  0
    1.8268   -0.7817   -0.0702 C   0  0  0  0  0  0  0  0  0  0  0  0
    2.9988    0.1406    0.2008 C   0  0  0  0  0  0  0  0  0  0  0  0
    2.8520    1.3468   -0.4784 O   0  0  0  0  0  0  0  0  0  0  0  0
   -0.7035   -0.9497    0.1695 C   0  0  0  0  0  0  0  0  0  0  0  0
   -1.9185   -0.2092    0.6561 C   0  0  0  0  0  0  0  0  0  0  0  0
   -2.1878    1.1059   -0.0027 C   0  0  0  0  0  0  0  0  0  0  0  0
   -3.0485   -0.0451   -0.3726 C   0  0  0  0  0  0  0  0  0  0  0  0
    1.9898   -1.7082    0.5276 H   0  0  0  0  0  0  0  0  0  0  0  0
    1.7655   -0.9893   -1.1523 H   0  0  0  0  0  0  0  0  0  0  0  0
    3.9131   -0.4198   -0.1419 H   0  0  0  0  0  0  0  0  0  0  0  0
    3.0955    0.3669    1.2815 H   0  0  0  0  0  0  0  0  0  0  0  0
    3.0652    2.1351    0.1132 H   0  0  0  0  0  0  0  0  0  0  0  0
   -0.5755   -1.9261    0.6951 H   0  0  0  0  0  0  0  0  0  0  0  0
   -0.7867   -1.2017   -0.9211 H   0  0  0  0  0  0  0  0  0  0  0  0
   -2.2616   -0.3814    1.7075 H   0  0  0  0  0  0  0  0  0  0  0  0
   -1.4361    1.4751   -0.7390 H   0  0  0  0  0  0  0  0  0  0  0  0
   -2.6535    1.9333    0.5856 H   0  0  0  0  0  0  0  0  0  0  0  0
   -4.0877   -0.0450    0.0017 H   0  0  0  0  0  0  0  0  0  0  0  0
   -2.8970   -0.5857   -1.3479 H   0  0  0  0  0  0  0  0  0  0  0  0
  1  2  2  0
  2  3  1  0
  3  4  1  0
  4  5  1  0
  2  6  1  0
  6  7  1  0
  7  8  1  0
  8  9  1  0
  9  7  1  0
  3 10  1  0
  3 11  1  0
  4 12  1  0
  4 13  1  0
  5 14  1  0
  6 15  1  0
  6 16  1  0
  7 17  1  0
  8 18  1  0
  8 19  1  0
  9 20  1  0
  9 21  1  0
M  END
