
     RDKit          3D

 19 18  0  0  0  0  0  0  0  0999 V2000
    0.3960    1.9241   -0.2641 O   0  0  0  0  0  0  0  0  0  0  0  0
    0.8291    0.8087   -0.4016 C   0  0  0  0  0  0  0  0  0  0  0  0
    2.2602    0.6218   -0.0419 C   0  0  0  0  0  0  0  0  0  0  0  0
    2.7167   -0.6678   -0.2113 O   0  0  0  0  0  0  0  0  0  0  0  0
    0.0165   -0.3133   -0.8916 C   0  0  0  0  0  0  0  0  0  0  0  0
    0.8834   -1.4364   -1.0355 O   0  0  0  0  0  0  0  0  0  0  0  0
   -1.1224   -0.7223   -0.0225 C   0  0  0  0  0  0  0  0  0  0  0  0
   -2.1721    0.2796    0.2599 C   0  0  0  0  0  0  0  0  0  0  0  0
   -1.8031    1.4231    0.9104 O   0  0  0  0  0  0  0  0  0  0  0  0
    2.4568    0.9285    1.0041 H   0  0  0  0  0  0  0  0  0  0  0  0
    2.8391    1.2701   -0.7606 H   0  0  0  0  0  0  0  0  0  0  0  0
    3.0638   -1.0702    0.6127 H   0  0  0  0  0  0  0  0  0  0  0  0
   -0.3102   -0.1346   -1.9595 H   0  0  0  0  0  0  0  0  0  0  0  0
    0.4339   -2.2459   -0.7097 H   0  0  0  0  0  0  0  0  0  0  0  0
   -0.7515   -1.0838    0.9827 H   0  0  0  0  0  0  0  0  0  0  0  0
   -1.6421   -1.6110   -0.4957 H   0  0  0  0  0  0  0  0  0  0  0  0
   -2.6806    0.5376   -0.6985 H   0  0  0  0  0  0  0  0  0  0  0  0
   -2.9836   -0.2441    0.8443 H   0  0  0  0  0  0  0  0  0  0  0  0
   -2.4299    1.7360    1.6044 H   0  0  0  0  0  0  0  0  0  0  0  0
  1  2  2  0
  2  3  1  0
  3  4  1  0
  2  5  1  0
  5  6  1  0
  5  7  1  0
  7  8  1  0
  8  9  1  0
  3 10  1  0
  3 11  1  0
  4 12  1  0
  5 13  1  0
  6 14  1  0
  7 15  1  0
  7 16  1  0
  8 17  1  0
  8 18  1  0
  9 19  1  0
M  END
