
     RDKit          3D

 19 19  0  0  0  0  0  0  0  0999 V2000
    0.6525    0.3032    2.1081 O   0  0  0  0  0  0  0  0  0  0  0  0
    0.9065    0.1995    0.9214 C   0  0  0  0  0  0  0  0  0  0  0  0
    1.9823    1.0559    0.3531 C   0  0  0  0  0  0  0  0  0  0  0  0
    2.1715    0.8428   -0.9983 O   0  0  0  0  0  0  0  0  0  0  0  0
    0.2029   -0.7332    0.0118 C   0  0  0  0  0  0  0  0  0  0  0  0
   -0.8400   -1.5171    0.7218 C   0  0  0  0  0  0  0  0  0  0  0  0
   -2.0243   -0.9435    0.5727 C   0  0  0  0  0  0  0  0  0  0  0  0
   -1.9019    0.2708   -0.2424 C   0  0  0  0  0  0  0  0  0  0  0  0
   -0.6022    0.0826   -0.9867 C   0  0  0  0  0  0  0  0  0  0  0  0
    2.9315    0.9160    0.9357 H   0  0  0  0  0  0  0  0  0  0  0  0
    1.7347    2.1431    0.4678 H   0  0  0  0  0  0  0  0  0  0  0  0
    3.0252    0.4002   -1.1331 H   0  0  0  0  0  0  0  0  0  0  0  0
    0.9392   -1.3869   -0.4902 H   0  0  0  0  0  0  0  0  0  0  0  0
   -0.6775   -2.4239    1.2826 H   0  0  0  0  0  0  0  0  0  0  0  0
   -2.9842   -1.2966    0.9853 H   0  0  0  0  0  0  0  0  0  0  0  0
   -2.7058    0.3599   -1.0097 H   0  0  0  0  0  0  0  0  0  0  0  0
   -1.8809    1.2030    0.3615 H   0  0  0  0  0  0  0  0  0  0  0  0
   -0.7470   -0.5424   -1.8914 H   0  0  0  0  0  0  0  0  0  0  0  0
   -0.1827    1.0666   -1.1847 H   0  0  0  0  0  0  0  0  0  0  0  0
  1  2  2  0
  2  3  1  0
  3  4  1  0
  2  5  1  0
  5  6  1  0
  6  7  2  0
  7  8  1  0
  8  9  1  0
  9  5  1  0
  3 10  1  0
  3 11  1  0
  4 12  1  0
  5 13  1  0
  6 14  1  0
  7 15  1  0
  8 16  1  0
  8 17  1  0
  9 18  1  0
  9 19  1  0
M  END
