
     RDKit          3D

 15 15  0  0  0  0  0  0  0  0999 V2000
    0.8459   -1.4646    0.8929 O   0  0  0  0  0  0  0  0  0  0  0  0
    0.6174   -0.5802    0.0914 C   0  0  0  0  0  0  0  0  0  0  0  0
    1.7054    0.3464   -0.2832 C   0  0  0  0  0  0  0  0  0  0  0  0
    2.8659    0.0048    0.4023 O   0  0  0  0  0  0  0  0  0  0  0  0
   -0.7416   -0.4739   -0.4716 C   0  0  0  0  0  0  0  0  0  0  0  0
   -1.4515    0.8280   -0.2072 C   0  0  0  0  0  0  0  0  0  0  0  0
   -2.6309    0.0332   -0.0906 O   0  0  0  0  0  0  0  0  0  0  0  0
   -1.8268   -0.9797    0.3893 C   0  0  0  0  0  0  0  0  0  0  0  0
   -2.0172   -1.8961    1.2072 O   0  0  0  0  0  0  0  0  0  0  0  0
    1.4705    1.4094    0.0086 H   0  0  0  0  0  0  0  0  0  0  0  0
    1.9057    0.3368   -1.3838 H   0  0  0  0  0  0  0  0  0  0  0  0
    2.8038    0.4182    1.2930 H   0  0  0  0  0  0  0  0  0  0  0  0
   -0.8551   -0.7665   -1.5345 H   0  0  0  0  0  0  0  0  0  0  0  0
   -1.4947    1.4921   -1.0770 H   0  0  0  0  0  0  0  0  0  0  0  0
   -1.1968    1.2921    0.7631 H   0  0  0  0  0  0  0  0  0  0  0  0
  1  2  2  0
  2  3  1  0
  3  4  1  0
  2  5  1  0
  5  6  1  0
  6  7  1  0
  7  8  1  0
  8  9  2  0
  8  5  1  0
  3 10  1  0
  3 11  1  0
  4 12  1  0
  5 13  1  0
  6 14  1  0
  6 15  1  0
M  END
