
     RDKit          3D

 21 21  0  0  0  0  0  0  0  0999 V2000
    0.2856    0.2539    1.6430 O   0  0  0  0  0  0  0  0  0  0  0  0
    0.2532   -0.2875    0.5544 C   0  0  0  0  0  0  0  0  0  0  0  0
    1.4761   -0.2609   -0.2804 C   0  0  0  0  0  0  0  0  0  0  0  0
    2.5708    0.4793    0.4438 C   0  0  0  0  0  0  0  0  0  0  0  0
    3.7178    0.4901   -0.3682 O   0  0  0  0  0  0  0  0  0  0  0  0
   -1.0047   -0.9581    0.0917 C   0  0  0  0  0  0  0  0  0  0  0  0
   -1.5599   -0.3620   -1.2035 C   0  0  0  0  0  0  0  0  0  0  0  0
   -2.1385    0.7480   -0.3170 C   0  0  0  0  0  0  0  0  0  0  0  0
   -2.2215   -0.3278    0.7749 C   0  0  0  0  0  0  0  0  0  0  0  0
    1.2644    0.1723   -1.2785 H   0  0  0  0  0  0  0  0  0  0  0  0
    1.8426   -1.3240   -0.3874 H   0  0  0  0  0  0  0  0  0  0  0  0
    2.2124    1.4975    0.6503 H   0  0  0  0  0  0  0  0  0  0  0  0
    2.7689   -0.0443    1.3840 H   0  0  0  0  0  0  0  0  0  0  0  0
    4.2703    1.2616   -0.0842 H   0  0  0  0  0  0  0  0  0  0  0  0
   -0.9787   -2.0457    0.0999 H   0  0  0  0  0  0  0  0  0  0  0  0
   -2.3874   -0.9862   -1.5594 H   0  0  0  0  0  0  0  0  0  0  0  0
   -0.8098   -0.0388   -1.9207 H   0  0  0  0  0  0  0  0  0  0  0  0
   -1.3441    1.4907   -0.0542 H   0  0  0  0  0  0  0  0  0  0  0  0
   -3.0964    1.1479   -0.6413 H   0  0  0  0  0  0  0  0  0  0  0  0
   -3.1343   -0.9441    0.6689 H   0  0  0  0  0  0  0  0  0  0  0  0
   -1.9870    0.0383    1.7842 H   0  0  0  0  0  0  0  0  0  0  0  0
  1  2  2  0
  2  3  1  0
  3  4  1  0
  4  5  1  0
  2  6  1  0
  6  7  1  0
  7  8  1  0
  8  9  1  0
  9  6  1  0
  3 10  1  0
  3 11  1  0
  4 12  1  0
  4 13  1  0
  5 14  1  0
  6 15  1  0
  7 16  1  0
  7 17  1  0
  8 18  1  0
  8 19  1  0
  9 20  1  0
  9 21  1  0
M  END
