
     RDKit          3D

 19 18  0  0  0  0  0  0  0  0999 V2000
    0.5834   -1.3231   -1.2171 O   0  0  0  0  0  0  0  0  0  0  0  0
    0.6538   -0.6061   -0.2234 C   0  0  0  0  0  0  0  0  0  0  0  0
    2.0071   -0.2228    0.2663 C   0  0  0  0  0  0  0  0  0  0  0  0
    2.9963   -0.7770   -0.5342 O   0  0  0  0  0  0  0  0  0  0  0  0
   -0.5975   -0.1736    0.4169 C   0  0  0  0  0  0  0  0  0  0  0  0
   -0.7631    1.3305    0.4501 C   0  0  0  0  0  0  0  0  0  0  0  0
    0.2359    1.9759    1.1348 O   0  0  0  0  0  0  0  0  0  0  0  0
   -1.7997   -0.7124   -0.3279 C   0  0  0  0  0  0  0  0  0  0  0  0
   -1.8107   -2.1022   -0.3651 O   0  0  0  0  0  0  0  0  0  0  0  0
    2.1252    0.8798    0.3026 H   0  0  0  0  0  0  0  0  0  0  0  0
    2.1898   -0.6221    1.3014 H   0  0  0  0  0  0  0  0  0  0  0  0
    3.4095   -0.1198   -1.1471 H   0  0  0  0  0  0  0  0  0  0  0  0
   -0.6277   -0.6127    1.4315 H   0  0  0  0  0  0  0  0  0  0  0  0
   -0.8031    1.6514   -0.6321 H   0  0  0  0  0  0  0  0  0  0  0  0
   -1.7679    1.5375    0.8549 H   0  0  0  0  0  0  0  0  0  0  0  0
    0.2455    2.9272    0.8147 H   0  0  0  0  0  0  0  0  0  0  0  0
   -2.7359   -0.3604    0.1519 H   0  0  0  0  0  0  0  0  0  0  0  0
   -1.8337   -0.2800   -1.3710 H   0  0  0  0  0  0  0  0  0  0  0  0
   -1.7072   -2.3900   -1.3073 H   0  0  0  0  0  0  0  0  0  0  0  0
  1  2  2  0
  2  3  1  0
  3  4  1  0
  2  5  1  0
  5  6  1  0
  6  7  1  0
  5  8  1  0
  8  9  1  0
  3 10  1  0
  3 11  1  0
  4 12  1  0
  5 13  1  0
  6 14  1  0
  6 15  1  0
  7 16  1  0
  8 17  1  0
  8 18  1  0
  9 19  1  0
M  END
