
     RDKit          3D

 19 19  0  0  0  0  0  0  0  0999 V2000
    2.0357   -1.0461   -1.3955 O   0  0  0  0  0  0  0  0  0  0  0  0
    1.2549   -0.4304   -0.6947 C   0  0  0  0  0  0  0  0  0  0  0  0
    1.7844    0.6140    0.1912 C   0  0  0  0  0  0  0  0  0  0  0  0
    3.1604    0.6983    0.0153 O   0  0  0  0  0  0  0  0  0  0  0  0
   -0.1822   -0.7957   -0.8006 C   0  0  0  0  0  0  0  0  0  0  0  0
   -0.8381   -1.2776    0.4706 C   0  0  0  0  0  0  0  0  0  0  0  0
   -1.3253    0.1088    0.6885 C   0  0  0  0  0  0  0  0  0  0  0  0
   -2.6253    0.1147    1.1695 O   0  0  0  0  0  0  0  0  0  0  0  0
   -1.1615    0.3582   -0.7837 C   0  0  0  0  0  0  0  0  0  0  0  0
    1.6383    0.2831    1.2615 H   0  0  0  0  0  0  0  0  0  0  0  0
    1.2931    1.5971    0.0681 H   0  0  0  0  0  0  0  0  0  0  0  0
    3.4618    1.5949   -0.2831 H   0  0  0  0  0  0  0  0  0  0  0  0
   -0.3981   -1.4539   -1.6863 H   0  0  0  0  0  0  0  0  0  0  0  0
   -1.6944   -1.9527    0.2135 H   0  0  0  0  0  0  0  0  0  0  0  0
   -0.1633   -1.7100    1.2242 H   0  0  0  0  0  0  0  0  0  0  0  0
   -0.6914    0.8080    1.2597 H   0  0  0  0  0  0  0  0  0  0  0  0
   -2.8080    1.0299    1.5018 H   0  0  0  0  0  0  0  0  0  0  0  0
   -2.0768    0.1413   -1.3762 H   0  0  0  0  0  0  0  0  0  0  0  0
   -0.6644    1.3182   -1.0437 H   0  0  0  0  0  0  0  0  0  0  0  0
  1  2  2  0
  2  3  1  0
  3  4  1  0
  2  5  1  0
  5  6  1  0
  6  7  1  0
  7  8  1  0
  7  9  1  0
  9  5  1  0
  3 10  1  0
  3 11  1  0
  4 12  1  0
  5 13  1  0
  6 14  1  0
  6 15  1  0
  7 16  1  0
  8 17  1  0
  9 18  1  0
  9 19  1  0
M  END
