
     RDKit          3D

 19 19  0  0  0  0  0  0  0  0999 V2000
    0.9149   -1.8709    1.3013 O   0  0  0  0  0  0  0  0  0  0  0  0
    1.0737   -0.7999    0.7513 C   0  0  0  0  0  0  0  0  0  0  0  0
    2.3145   -0.5159   -0.0079 C   0  0  0  0  0  0  0  0  0  0  0  0
    2.2956    0.7592   -0.5564 O   0  0  0  0  0  0  0  0  0  0  0  0
    0.0138    0.2215    0.8465 C   0  0  0  0  0  0  0  0  0  0  0  0
   -0.5249    0.6153   -0.5166 C   0  0  0  0  0  0  0  0  0  0  0  0
   -2.0223    0.6414   -0.2253 C   0  0  0  0  0  0  0  0  0  0  0  0
   -2.0767   -0.5671    0.7204 C   0  0  0  0  0  0  0  0  0  0  0  0
   -1.0332   -0.2522    1.5896 O   0  0  0  0  0  0  0  0  0  0  0  0
    2.4665   -1.2387   -0.8353 H   0  0  0  0  0  0  0  0  0  0  0  0
    3.2082   -0.5985    0.6439 H   0  0  0  0  0  0  0  0  0  0  0  0
    3.2123    1.1196   -0.5696 H   0  0  0  0  0  0  0  0  0  0  0  0
    0.4738    1.1468    1.2702 H   0  0  0  0  0  0  0  0  0  0  0  0
   -0.3809   -0.1862   -1.2733 H   0  0  0  0  0  0  0  0  0  0  0  0
   -0.2095    1.6066   -0.8418 H   0  0  0  0  0  0  0  0  0  0  0  0
   -2.3041    1.5135    0.3898 H   0  0  0  0  0  0  0  0  0  0  0  0
   -2.6201    0.4905   -1.1199 H   0  0  0  0  0  0  0  0  0  0  0  0
   -1.7722   -1.4362    0.1249 H   0  0  0  0  0  0  0  0  0  0  0  0
   -3.0296   -0.6487    1.2253 H   0  0  0  0  0  0  0  0  0  0  0  0
  1  2  2  0
  2  3  1  0
  3  4  1  0
  2  5  1  0
  5  6  1  0
  6  7  1  0
  7  8  1  0
  8  9  1  0
  9  5  1  0
  3 10  1  0
  3 11  1  0
  4 12  1  0
  5 13  1  0
  6 14  1  0
  6 15  1  0
  7 16  1  0
  7 17  1  0
  8 18  1  0
  8 19  1  0
M  END
