
     RDKit          3D

 17 17  0  0  0  0  0  0  0  0999 V2000
    0.3960    0.4134   -1.4842 O   0  0  0  0  0  0  0  0  0  0  0  0
    0.7335   -0.1286   -0.4283 C   0  0  0  0  0  0  0  0  0  0  0  0
   -0.2078   -0.8802    0.1814 O   0  0  0  0  0  0  0  0  0  0  0  0
   -1.4992   -1.1598   -0.1627 C   0  0  0  0  0  0  0  0  0  0  0  0
   -2.4894   -0.0829   -0.3135 C   0  0  0  0  0  0  0  0  0  0  0  0
   -2.6297    0.6259    0.9011 O   0  0  0  0  0  0  0  0  0  0  0  0
    2.0749   -0.0034    0.1885 C   0  0  0  0  0  0  0  0  0  0  0  0
    3.1655    0.7011   -0.4557 C   0  0  0  0  0  0  0  0  0  0  0  0
    2.3959    1.4454    0.4375 O   0  0  0  0  0  0  0  0  0  0  0  0
   -1.4899   -1.7941   -1.0773 H   0  0  0  0  0  0  0  0  0  0  0  0
   -1.8869   -1.8518    0.6392 H   0  0  0  0  0  0  0  0  0  0  0  0
   -3.4911   -0.5372   -0.4834 H   0  0  0  0  0  0  0  0  0  0  0  0
   -2.3402    0.6504   -1.0910 H   0  0  0  0  0  0  0  0  0  0  0  0
   -2.3353    1.5468    0.8059 H   0  0  0  0  0  0  0  0  0  0  0  0
    2.2877   -0.5233    1.1341 H   0  0  0  0  0  0  0  0  0  0  0  0
    3.1251    1.0697   -1.4922 H   0  0  0  0  0  0  0  0  0  0  0  0
    4.1909    0.5088   -0.0894 H   0  0  0  0  0  0  0  0  0  0  0  0
  1  2  2  0
  2  3  1  0
  3  4  1  0
  4  5  1  0
  5  6  1  0
  2  7  1  0
  7  8  1  0
  8  9  1  0
  9  7  1  0
  4 10  1  0
  4 11  1  0
  5 12  1  0
  5 13  1  0
  6 14  1  0
  7 15  1  0
  8 16  1  0
  8 17  1  0
M  END
