
     RDKit          3D

 21 21  0  0  0  0  0  0  0  0999 V2000
    1.1804   -1.4741   -1.4223 O   0  0  0  0  0  0  0  0  0  0  0  0
    1.2935   -0.5701   -0.6203 C   0  0  0  0  0  0  0  0  0  0  0  0
    2.5288    0.2534   -0.6831 C   0  0  0  0  0  0  0  0  0  0  0  0
    2.5251    1.2512    0.2919 O   0  0  0  0  0  0  0  0  0  0  0  0
    0.2176   -0.3243    0.3731 C   0  0  0  0  0  0  0  0  0  0  0  0
   -0.3576    1.0884    0.2133 C   0  0  0  0  0  0  0  0  0  0  0  0
   -1.7331    0.8738    0.8289 C   0  0  0  0  0  0  0  0  0  0  0  0
   -2.1854   -0.3363    0.0368 C   0  0  0  0  0  0  0  0  0  0  0  0
   -0.9657   -1.2197    0.0771 C   0  0  0  0  0  0  0  0  0  0  0  0
    2.5243    0.7596   -1.6907 H   0  0  0  0  0  0  0  0  0  0  0  0
    3.4140   -0.4147   -0.5921 H   0  0  0  0  0  0  0  0  0  0  0  0
    2.6230    2.1476   -0.1193 H   0  0  0  0  0  0  0  0  0  0  0  0
    0.5357   -0.4166    1.4099 H   0  0  0  0  0  0  0  0  0  0  0  0
    0.2318    1.8383    0.7364 H   0  0  0  0  0  0  0  0  0  0  0  0
   -0.5168    1.2790   -0.8596 H   0  0  0  0  0  0  0  0  0  0  0  0
   -1.5692    0.6515    1.8952 H   0  0  0  0  0  0  0  0  0  0  0  0
   -2.3906    1.7501    0.6691 H   0  0  0  0  0  0  0  0  0  0  0  0
   -2.3244   -0.0024   -1.0033 H   0  0  0  0  0  0  0  0  0  0  0  0
   -3.0742   -0.8206    0.4758 H   0  0  0  0  0  0  0  0  0  0  0  0
   -1.1207   -1.9740    0.8928 H   0  0  0  0  0  0  0  0  0  0  0  0
   -0.8367   -1.7489   -0.9096 H   0  0  0  0  0  0  0  0  0  0  0  0
  1  2  2  0
  2  3  1  0
  3  4  1  0
  2  5  1  0
  5  6  1  0
  6  7  1  0
  7  8  1  0
  8  9  1  0
  9  5  1  0
  3 10  1  0
  3 11  1  0
  4 12  1  0
  5 13  1  0
  6 14  1  0
  6 15  1  0
  7 16  1  0
  7 17  1  0
  8 18  1  0
  8 19  1  0
  9 20  1  0
  9 21  1  0
M  END
