
     RDKit          3D

 17 17  0  0  0  0  0  0  0  0999 V2000
    2.0562   -2.1775   -0.6208 O   0  0  0  0  0  0  0  0  0  0  0  0
    1.9458   -0.9323   -0.5712 C   0  0  0  0  0  0  0  0  0  0  0  0
    0.6955   -0.4071   -0.0918 C   0  0  0  0  0  0  0  0  0  0  0  0
   -0.3743    0.0206    0.3127 C   0  0  0  0  0  0  0  0  0  0  0  0
   -1.6641    0.5373    0.7827 C   0  0  0  0  0  0  0  0  0  0  0  0
   -2.6564   -0.5065    1.1443 C   0  0  0  0  0  0  0  0  0  0  0  0
   -2.8515    0.3372   -0.0793 C   0  0  0  0  0  0  0  0  0  0  0  0
    3.0552   -0.0260   -0.9883 C   0  0  0  0  0  0  0  0  0  0  0  0
    2.7257    1.2991   -0.8551 O   0  0  0  0  0  0  0  0  0  0  0  0
   -1.6428    1.4639    1.4234 H   0  0  0  0  0  0  0  0  0  0  0  0
   -3.2836   -0.3030    2.0342 H   0  0  0  0  0  0  0  0  0  0  0  0
   -2.4417   -1.5809    0.9365 H   0  0  0  0  0  0  0  0  0  0  0  0
   -3.6005    1.1368   -0.0942 H   0  0  0  0  0  0  0  0  0  0  0  0
   -2.6954   -0.1414   -1.0788 H   0  0  0  0  0  0  0  0  0  0  0  0
    3.9162   -0.2423   -0.2952 H   0  0  0  0  0  0  0  0  0  0  0  0
    3.3486   -0.3277   -2.0115 H   0  0  0  0  0  0  0  0  0  0  0  0
    3.4670    1.8501   -0.4749 H   0  0  0  0  0  0  0  0  0  0  0  0
  1  2  2  0
  2  3  1  0
  3  4  3  0
  4  5  1  0
  5  6  1  0
  6  7  1  0
  2  8  1  0
  8  9  1  0
  7  5  1  0
  5 10  1  0
  6 11  1  0
  6 12  1  0
  7 13  1  0
  7 14  1  0
  8 15  1  0
  8 16  1  0
  9 17  1  0
M  END
