
     RDKit          3D

 17 18  0  0  0  0  0  0  0  0999 V2000
   -1.0052    1.0536    1.2869 O   0  0  0  0  0  0  0  0  0  0  0  0
   -0.9179    0.3274    0.3299 C   0  0  0  0  0  0  0  0  0  0  0  0
   -2.0900   -0.4922   -0.0851 C   0  0  0  0  0  0  0  0  0  0  0  0
   -3.1869   -0.2718    0.7656 O   0  0  0  0  0  0  0  0  0  0  0  0
    0.3209    0.2133   -0.4619 C   0  0  0  0  0  0  0  0  0  0  0  0
    1.4708    1.0648    0.0049 C   0  0  0  0  0  0  0  0  0  0  0  0
    2.3204   -0.1781    0.0340 C   0  0  0  0  0  0  0  0  0  0  0  0
    2.2758   -1.0906   -0.9948 O   0  0  0  0  0  0  0  0  0  0  0  0
    1.1807   -0.9920   -0.1740 C   0  0  0  0  0  0  0  0  0  0  0  0
   -1.8404   -1.5909   -0.0789 H   0  0  0  0  0  0  0  0  0  0  0  0
   -2.4080   -0.2467   -1.1349 H   0  0  0  0  0  0  0  0  0  0  0  0
   -3.4030    0.6850    0.7480 H   0  0  0  0  0  0  0  0  0  0  0  0
    0.1740    0.3155   -1.5445 H   0  0  0  0  0  0  0  0  0  0  0  0
    1.3248    1.4191    1.0656 H   0  0  0  0  0  0  0  0  0  0  0  0
    1.7931    1.8664   -0.6642 H   0  0  0  0  0  0  0  0  0  0  0  0
    3.1443   -0.2947    0.7294 H   0  0  0  0  0  0  0  0  0  0  0  0
    0.8465   -1.7881    0.4749 H   0  0  0  0  0  0  0  0  0  0  0  0
  1  2  2  0
  2  3  1  0
  3  4  1  0
  2  5  1  0
  5  6  1  0
  6  7  1  0
  7  8  1  0
  8  9  1  0
  9  5  1  0
  9  7  1  0
  3 10  1  0
  3 11  1  0
  4 12  1  0
  5 13  1  0
  6 14  1  0
  6 15  1  0
  7 16  1  0
  9 17  1  0
M  END
