
     RDKit          3D

 17 16  0  0  0  0  0  0  0  0999 V2000
    1.3254    0.5384    1.7024 O   0  0  0  0  0  0  0  0  0  0  0  0
    1.2665    0.3227    0.4736 C   0  0  0  0  0  0  0  0  0  0  0  0
    2.5434    0.1171   -0.2509 C   0  0  0  0  0  0  0  0  0  0  0  0
    3.6336    0.2020    0.5892 O   0  0  0  0  0  0  0  0  0  0  0  0
    0.0242    0.2657   -0.2616 C   0  0  0  0  0  0  0  0  0  0  0  0
   -0.0189    0.0509   -1.4796 O   0  0  0  0  0  0  0  0  0  0  0  0
   -1.2474    0.4738    0.4783 C   0  0  0  0  0  0  0  0  0  0  0  0
   -2.4184    0.3765   -0.4590 C   0  0  0  0  0  0  0  0  0  0  0  0
   -2.4270   -0.8705   -1.0351 O   0  0  0  0  0  0  0  0  0  0  0  0
    2.5129   -0.9402   -0.6347 H   0  0  0  0  0  0  0  0  0  0  0  0
    2.6063    0.8334   -1.1083 H   0  0  0  0  0  0  0  0  0  0  0  0
    3.4326    0.7948    1.3660 H   0  0  0  0  0  0  0  0  0  0  0  0
   -1.1836    1.5274    0.8838 H   0  0  0  0  0  0  0  0  0  0  0  0
   -1.2716   -0.2641    1.2893 H   0  0  0  0  0  0  0  0  0  0  0  0
   -3.3568    0.5202    0.1439 H   0  0  0  0  0  0  0  0  0  0  0  0
   -2.4004    1.2162   -1.1752 H   0  0  0  0  0  0  0  0  0  0  0  0
   -3.0207   -1.4577   -0.5222 H   0  0  0  0  0  0  0  0  0  0  0  0
  1  2  2  0
  2  3  1  0
  3  4  1  0
  2  5  1  0
  5  6  2  0
  5  7  1  0
  7  8  1  0
  8  9  1  0
  3 10  1  0
  3 11  1  0
  4 12  1  0
  7 13  1  0
  7 14  1  0
  8 15  1  0
  8 16  1  0
  9 17  1  0
M  END
