
     RDKit          3D

 16 16  0  0  0  0  0  0  0  0999 V2000
    1.6306   -1.5467   -0.1403 O   0  0  0  0  0  0  0  0  0  0  0  0
    0.8668   -0.5737   -0.0670 C   0  0  0  0  0  0  0  0  0  0  0  0
    1.4067    0.7769    0.1984 C   0  0  0  0  0  0  0  0  0  0  0  0
    2.7915    0.7085    0.3294 O   0  0  0  0  0  0  0  0  0  0  0  0
   -0.5689   -0.8505   -0.2568 C   0  0  0  0  0  0  0  0  0  0  0  0
   -1.4584   -0.4848    0.9256 C   0  0  0  0  0  0  0  0  0  0  0  0
   -2.4425   -0.1409   -0.0291 O   0  0  0  0  0  0  0  0  0  0  0  0
   -1.3744    0.2873   -0.8394 C   0  0  0  0  0  0  0  0  0  0  0  0
    1.0171    1.2322    1.1211 H   0  0  0  0  0  0  0  0  0  0  0  0
    1.1684    1.4993   -0.6248 H   0  0  0  0  0  0  0  0  0  0  0  0
    3.1611    0.2649   -0.4862 H   0  0  0  0  0  0  0  0  0  0  0  0
   -0.8089   -1.7868   -0.7602 H   0  0  0  0  0  0  0  0  0  0  0  0
   -1.0116    0.3999    1.4320 H   0  0  0  0  0  0  0  0  0  0  0  0
   -1.7379   -1.3235    1.5772 H   0  0  0  0  0  0  0  0  0  0  0  0
   -1.0587    1.2978   -0.4677 H   0  0  0  0  0  0  0  0  0  0  0  0
   -1.5810    0.2401   -1.9120 H   0  0  0  0  0  0  0  0  0  0  0  0
  1  2  2  0
  2  3  1  0
  3  4  1  0
  2  5  1  0
  5  6  1  0
  6  7  1  0
  7  8  1  0
  8  5  1  0
  3  9  1  0
  3 10  1  0
  4 11  1  0
  5 12  1  0
  6 13  1  0
  6 14  1  0
  8 15  1  0
  8 16  1  0
M  END
