
     RDKit          3D

 15 15  0  0  0  0  0  0  0  0999 V2000
    1.1456   -0.1815    1.6054 O   0  0  0  0  0  0  0  0  0  0  0  0
    0.8078   -0.2971    0.4456 C   0  0  0  0  0  0  0  0  0  0  0  0
    1.8609   -0.3460   -0.5945 C   0  0  0  0  0  0  0  0  0  0  0  0
    3.1162   -0.2437   -0.0062 O   0  0  0  0  0  0  0  0  0  0  0  0
   -0.6033   -0.3866    0.0743 C   0  0  0  0  0  0  0  0  0  0  0  0
   -1.5167   -0.3307    1.1284 O   0  0  0  0  0  0  0  0  0  0  0  0
   -2.4190    0.2243    0.2118 C   0  0  0  0  0  0  0  0  0  0  0  0
   -1.2356    0.8412   -0.4515 C   0  0  0  0  0  0  0  0  0  0  0  0
   -1.0487    1.8521   -1.0726 O   0  0  0  0  0  0  0  0  0  0  0  0
    1.8015   -1.3674   -1.0579 H   0  0  0  0  0  0  0  0  0  0  0  0
    1.7246    0.4402   -1.3723 H   0  0  0  0  0  0  0  0  0  0  0  0
    3.1987    0.6384    0.4349 H   0  0  0  0  0  0  0  0  0  0  0  0
   -0.8210   -1.2754   -0.5632 H   0  0  0  0  0  0  0  0  0  0  0  0
   -2.8820   -0.5235   -0.4708 H   0  0  0  0  0  0  0  0  0  0  0  0
   -3.1289    0.9556    0.6474 H   0  0  0  0  0  0  0  0  0  0  0  0
  1  2  2  0
  2  3  1  0
  3  4  1  0
  2  5  1  0
  5  6  1  0
  6  7  1  0
  7  8  1  0
  8  9  2  0
  8  5  1  0
  3 10  1  0
  3 11  1  0
  4 12  1  0
  5 13  1  0
  7 14  1  0
  7 15  1  0
M  END
