
     RDKit          3D

 21 21  0  0  0  0  0  0  0  0999 V2000
   -0.2460   -1.5703    1.5422 O   0  0  0  0  0  0  0  0  0  0  0  0
   -0.6115   -0.6657    0.8112 C   0  0  0  0  0  0  0  0  0  0  0  0
    0.3681   -0.0585   -0.1148 C   0  0  0  0  0  0  0  0  0  0  0  0
    1.7016   -0.7459    0.0654 C   0  0  0  0  0  0  0  0  0  0  0  0
    2.6920   -0.1128   -0.8886 C   0  0  0  0  0  0  0  0  0  0  0  0
    2.8409    1.2499   -0.6356 O   0  0  0  0  0  0  0  0  0  0  0  0
   -2.0250   -0.2340    0.9028 C   0  0  0  0  0  0  0  0  0  0  0  0
   -2.6649    0.0134   -0.4930 C   0  0  0  0  0  0  0  0  0  0  0  0
   -2.4413    1.1314    0.5192 C   0  0  0  0  0  0  0  0  0  0  0  0
    0.4452    1.0270   -0.0270 H   0  0  0  0  0  0  0  0  0  0  0  0
    0.0381   -0.3133   -1.1650 H   0  0  0  0  0  0  0  0  0  0  0  0
    2.0349   -0.6652    1.1206 H   0  0  0  0  0  0  0  0  0  0  0  0
    1.6469   -1.8179   -0.1670 H   0  0  0  0  0  0  0  0  0  0  0  0
    2.3664   -0.2226   -1.9289 H   0  0  0  0  0  0  0  0  0  0  0  0
    3.6515   -0.6713   -0.7512 H   0  0  0  0  0  0  0  0  0  0  0  0
    3.6392    1.3243   -0.0322 H   0  0  0  0  0  0  0  0  0  0  0  0
   -2.6487   -0.7665    1.6314 H   0  0  0  0  0  0  0  0  0  0  0  0
   -3.6797   -0.4118   -0.6040 H   0  0  0  0  0  0  0  0  0  0  0  0
   -1.9985    0.0714   -1.3530 H   0  0  0  0  0  0  0  0  0  0  0  0
   -3.3924    1.5088    0.9507 H   0  0  0  0  0  0  0  0  0  0  0  0
   -1.7167    1.9296    0.2749 H   0  0  0  0  0  0  0  0  0  0  0  0
  1  2  2  0
  2  3  1  0
  3  4  1  0
  4  5  1  0
  5  6  1  0
  2  7  1  0
  7  8  1  0
  8  9  1  0
  9  7  1  0
  3 10  1  0
  3 11  1  0
  4 12  1  0
  4 13  1  0
  5 14  1  0
  5 15  1  0
  6 16  1  0
  7 17  1  0
  8 18  1  0
  8 19  1  0
  9 20  1  0
  9 21  1  0
M  END
