
     RDKit          3D

 19 19  0  0  0  0  0  0  0  0999 V2000
    1.3360    1.4712   -0.3695 O   0  0  0  0  0  0  0  0  0  0  0  0
    1.1534    0.2679   -0.3839 C   0  0  0  0  0  0  0  0  0  0  0  0
    2.3056   -0.6353   -0.1058 C   0  0  0  0  0  0  0  0  0  0  0  0
    3.4566    0.0993    0.1360 O   0  0  0  0  0  0  0  0  0  0  0  0
   -0.1911   -0.2417   -0.6740 C   0  0  0  0  0  0  0  0  0  0  0  0
   -1.1839    0.8706   -0.9208 C   0  0  0  0  0  0  0  0  0  0  0  0
   -1.8100    0.6590    0.4510 C   0  0  0  0  0  0  0  0  0  0  0  0
   -1.0139   -0.6278    0.5468 C   0  0  0  0  0  0  0  0  0  0  0  0
   -1.8520   -1.7213    0.2735 O   0  0  0  0  0  0  0  0  0  0  0  0
    2.5003   -1.3386   -0.9542 H   0  0  0  0  0  0  0  0  0  0  0  0
    2.1225   -1.2331    0.8344 H   0  0  0  0  0  0  0  0  0  0  0  0
    3.3085    1.0676    0.1090 H   0  0  0  0  0  0  0  0  0  0  0  0
   -0.2556   -0.9721   -1.5101 H   0  0  0  0  0  0  0  0  0  0  0  0
   -1.8958    0.6943   -1.7409 H   0  0  0  0  0  0  0  0  0  0  0  0
   -0.7231    1.8863   -0.9920 H   0  0  0  0  0  0  0  0  0  0  0  0
   -2.9147    0.5060    0.3928 H   0  0  0  0  0  0  0  0  0  0  0  0
   -1.5099    1.3929    1.2012 H   0  0  0  0  0  0  0  0  0  0  0  0
   -0.4116   -0.7264    1.4471 H   0  0  0  0  0  0  0  0  0  0  0  0
   -2.4212   -1.4186   -0.4943 H   0  0  0  0  0  0  0  0  0  0  0  0
  1  2  2  0
  2  3  1  0
  3  4  1  0
  2  5  1  0
  5  6  1  0
  6  7  1  0
  7  8  1  0
  8  9  1  0
  8  5  1  0
  3 10  1  0
  3 11  1  0
  4 12  1  0
  5 13  1  0
  6 14  1  0
  6 15  1  0
  7 16  1  0
  7 17  1  0
  8 18  1  0
  9 19  1  0
M  END
