
     RDKit          3D

 17 18  0  0  0  0  0  0  0  0999 V2000
    0.9157    0.0634   -1.6698 O   0  0  0  0  0  0  0  0  0  0  0  0
    0.7742   -0.1198   -0.4795 C   0  0  0  0  0  0  0  0  0  0  0  0
    1.9813   -0.2540    0.3628 C   0  0  0  0  0  0  0  0  0  0  0  0
    3.0972   -0.1315   -0.4556 O   0  0  0  0  0  0  0  0  0  0  0  0
   -0.5474   -0.2110    0.1407 C   0  0  0  0  0  0  0  0  0  0  0  0
   -0.9468    0.7805    1.2272 C   0  0  0  0  0  0  0  0  0  0  0  0
   -1.7486    1.4107    0.2524 O   0  0  0  0  0  0  0  0  0  0  0  0
   -1.6806    0.4390   -0.7036 C   0  0  0  0  0  0  0  0  0  0  0  0
   -1.6556   -1.0053   -0.4076 C   0  0  0  0  0  0  0  0  0  0  0  0
    2.0271    0.5199    1.1597 H   0  0  0  0  0  0  0  0  0  0  0  0
    1.9982   -1.2849    0.7903 H   0  0  0  0  0  0  0  0  0  0  0  0
    2.8442    0.4247   -1.2387 H   0  0  0  0  0  0  0  0  0  0  0  0
   -0.1366    1.3864    1.6298 H   0  0  0  0  0  0  0  0  0  0  0  0
   -1.6345    0.3392    1.9890 H   0  0  0  0  0  0  0  0  0  0  0  0
   -1.4267    0.7604   -1.7191 H   0  0  0  0  0  0  0  0  0  0  0  0
   -1.5122   -1.6803   -1.2512 H   0  0  0  0  0  0  0  0  0  0  0  0
   -2.3489   -1.4374    0.3732 H   0  0  0  0  0  0  0  0  0  0  0  0
  1  2  2  0
  2  3  1  0
  3  4  1  0
  2  5  1  0
  5  6  1  0
  6  7  1  0
  7  8  1  0
  8  9  1  0
  8  5  1  0
  9  5  1  0
  3 10  1  0
  3 11  1  0
  4 12  1  0
  6 13  1  0
  6 14  1  0
  8 15  1  0
  9 16  1  0
  9 17  1  0
M  END
