
     RDKit          3D

 17 17  0  0  0  0  0  0  0  0999 V2000
    1.3477   -0.3898   -1.5271 O   0  0  0  0  0  0  0  0  0  0  0  0
    1.4466   -0.3079   -0.2656 C   0  0  0  0  0  0  0  0  0  0  0  0
    2.7682   -0.2733    0.3766 C   0  0  0  0  0  0  0  0  0  0  0  0
    3.7587   -0.3425   -0.6008 O   0  0  0  0  0  0  0  0  0  0  0  0
    0.2466   -0.2558    0.4310 O   0  0  0  0  0  0  0  0  0  0  0  0
   -0.9838   -0.2926   -0.2359 C   0  0  0  0  0  0  0  0  0  0  0  0
   -2.2102   -0.8156    0.4000 C   0  0  0  0  0  0  0  0  0  0  0  0
   -2.0352    0.6699    0.3281 C   0  0  0  0  0  0  0  0  0  0  0  0
   -2.7626    1.4146   -0.5984 O   0  0  0  0  0  0  0  0  0  0  0  0
    2.9314    0.6809    0.9442 H   0  0  0  0  0  0  0  0  0  0  0  0
    2.9054   -1.0807    1.1419 H   0  0  0  0  0  0  0  0  0  0  0  0
    3.5236    0.3612   -1.2756 H   0  0  0  0  0  0  0  0  0  0  0  0
   -0.9445   -0.3656   -1.3502 H   0  0  0  0  0  0  0  0  0  0  0  0
   -2.9834   -1.2741   -0.2494 H   0  0  0  0  0  0  0  0  0  0  0  0
   -2.2058   -1.2382    1.4211 H   0  0  0  0  0  0  0  0  0  0  0  0
   -1.7742    1.2177    1.2695 H   0  0  0  0  0  0  0  0  0  0  0  0
   -3.0285    2.2917   -0.2094 H   0  0  0  0  0  0  0  0  0  0  0  0
  1  2  2  0
  2  3  1  0
  3  4  1  0
  2  5  1  0
  5  6  1  0
  6  7  1  0
  7  8  1  0
  8  9  1  0
  8  6  1  0
  3 10  1  0
  3 11  1  0
  4 12  1  0
  6 13  1  0
  7 14  1  0
  7 15  1  0
  8 16  1  0
  9 17  1  0
M  END
