
     RDKit          3D

 17 18  0  0  0  0  0  0  0  0999 V2000
   -0.4656    0.7933   -1.4503 O   0  0  0  0  0  0  0  0  0  0  0  0
   -0.3877    0.0238   -0.5047 C   0  0  0  0  0  0  0  0  0  0  0  0
   -1.5937   -0.6973   -0.0856 C   0  0  0  0  0  0  0  0  0  0  0  0
   -2.8492    0.1842   -0.0523 C   0  0  0  0  0  0  0  0  0  0  0  0
   -2.6278   -0.9337   -0.9805 O   0  0  0  0  0  0  0  0  0  0  0  0
    0.9022   -0.1764    0.2050 C   0  0  0  0  0  0  0  0  0  0  0  0
    0.8825   -1.0711    1.2643 O   0  0  0  0  0  0  0  0  0  0  0  0
    1.8574    0.9709    0.2682 C   0  0  0  0  0  0  0  0  0  0  0  0
    2.1843   -0.2157   -0.6179 C   0  0  0  0  0  0  0  0  0  0  0  0
   -1.4843   -1.3851    0.7739 H   0  0  0  0  0  0  0  0  0  0  0  0
   -3.5584   -0.0132    0.7483 H   0  0  0  0  0  0  0  0  0  0  0  0
   -2.8090    1.1677   -0.5518 H   0  0  0  0  0  0  0  0  0  0  0  0
    0.7240   -0.6541    2.1385 H   0  0  0  0  0  0  0  0  0  0  0  0
    2.5461    1.1038    1.1101 H   0  0  0  0  0  0  0  0  0  0  0  0
    1.5971    1.9122   -0.2537 H   0  0  0  0  0  0  0  0  0  0  0  0
    2.9965   -0.9100   -0.2938 H   0  0  0  0  0  0  0  0  0  0  0  0
    2.0856   -0.0992   -1.7179 H   0  0  0  0  0  0  0  0  0  0  0  0
  1  2  2  0
  2  3  1  0
  3  4  1  0
  4  5  1  0
  2  6  1  0
  6  7  1  0
  6  8  1  0
  8  9  1  0
  5  3  1  0
  9  6  1  0
  3 10  1  0
  4 11  1  0
  4 12  1  0
  7 13  1  0
  8 14  1  0
  8 15  1  0
  9 16  1  0
  9 17  1  0
M  END
