
     RDKit          3D

 17 18  0  0  0  0  0  0  0  0999 V2000
    1.0773   -1.2517    1.0867 O   0  0  0  0  0  0  0  0  0  0  0  0
    0.6620   -0.3606    0.3707 C   0  0  0  0  0  0  0  0  0  0  0  0
   -0.6820    0.1713    0.5493 C   0  0  0  0  0  0  0  0  0  0  0  0
   -1.8255   -0.6514    0.0208 C   0  0  0  0  0  0  0  0  0  0  0  0
   -2.2879    0.7389   -0.3743 C   0  0  0  0  0  0  0  0  0  0  0  0
   -0.9744    1.1791   -0.3582 O   0  0  0  0  0  0  0  0  0  0  0  0
    1.5242    0.1881   -0.6882 C   0  0  0  0  0  0  0  0  0  0  0  0
    2.7762   -0.4042   -1.0957 C   0  0  0  0  0  0  0  0  0  0  0  0
    2.8095    0.6353   -0.0497 O   0  0  0  0  0  0  0  0  0  0  0  0
   -0.8937    0.5336    1.5747 H   0  0  0  0  0  0  0  0  0  0  0  0
   -2.5001   -1.0749    0.7936 H   0  0  0  0  0  0  0  0  0  0  0  0
   -1.6030   -1.3281   -0.8132 H   0  0  0  0  0  0  0  0  0  0  0  0
   -2.7448    0.8125   -1.3735 H   0  0  0  0  0  0  0  0  0  0  0  0
   -2.8554    1.2254    0.4487 H   0  0  0  0  0  0  0  0  0  0  0  0
    1.1130    1.0065   -1.3294 H   0  0  0  0  0  0  0  0  0  0  0  0
    3.1374   -1.3856   -0.7530 H   0  0  0  0  0  0  0  0  0  0  0  0
    3.2672   -0.0342   -1.9989 H   0  0  0  0  0  0  0  0  0  0  0  0
  1  2  2  0
  2  3  1  0
  3  4  1  0
  4  5  1  0
  5  6  1  0
  2  7  1  0
  7  8  1  0
  8  9  1  0
  6  3  1  0
  9  7  1  0
  3 10  1  0
  4 11  1  0
  4 12  1  0
  5 13  1  0
  5 14  1  0
  7 15  1  0
  8 16  1  0
  8 17  1  0
M  END
