
     RDKit          3D

 19 20  0  0  0  0  0  0  0  0999 V2000
   -0.2987   -0.2724    2.4041 O   0  0  0  0  0  0  0  0  0  0  0  0
   -0.8135   -0.1633    1.3331 C   0  0  0  0  0  0  0  0  0  0  0  0
   -2.0341    0.1005    0.5996 C   0  0  0  0  0  0  0  0  0  0  0  0
   -1.2070    0.9625   -0.3133 C   0  0  0  0  0  0  0  0  0  0  0  0
   -0.3577   -0.2667   -0.0656 C   0  0  0  0  0  0  0  0  0  0  0  0
    0.8988   -0.5059   -0.5332 C   0  0  0  0  0  0  0  0  0  0  0  0
    1.8849    0.5792   -0.0697 C   0  0  0  0  0  0  0  0  0  0  0  0
    3.1501    0.3288   -0.5470 O   0  0  0  0  0  0  0  0  0  0  0  0
   -1.6213   -1.0380   -0.3019 C   0  0  0  0  0  0  0  0  0  0  0  0
   -2.9632    0.2855    0.9278 H   0  0  0  0  0  0  0  0  0  0  0  0
   -1.5948    0.9835   -1.3328 H   0  0  0  0  0  0  0  0  0  0  0  0
   -0.8352    1.8984    0.1176 H   0  0  0  0  0  0  0  0  0  0  0  0
    1.3645   -1.4593   -0.2086 H   0  0  0  0  0  0  0  0  0  0  0  0
    0.9842   -0.5087   -1.6478 H   0  0  0  0  0  0  0  0  0  0  0  0
    1.8287    0.5534    1.0441 H   0  0  0  0  0  0  0  0  0  0  0  0
    1.5032    1.5529   -0.4191 H   0  0  0  0  0  0  0  0  0  0  0  0
    3.7246   -0.0290    0.1678 H   0  0  0  0  0  0  0  0  0  0  0  0
   -1.6137   -2.0198    0.1784 H   0  0  0  0  0  0  0  0  0  0  0  0
   -1.9998   -0.9817   -1.3334 H   0  0  0  0  0  0  0  0  0  0  0  0
  1  2  2  0
  2  3  1  0
  3  4  1  0
  4  5  1  0
  5  6  1  0
  6  7  1  0
  7  8  1  0
  5  9  1  0
  5  2  1  0
  9  3  1  0
  3 10  1  0
  4 11  1  0
  4 12  1  0
  6 13  1  0
  6 14  1  0
  7 15  1  0
  7 16  1  0
  8 17  1  0
  9 18  1  0
  9 19  1  0
M  END
