
     RDKit          3D

 19 19  0  0  0  0  0  0  0  0999 V2000
   -0.5712    2.4294   -0.6280 O   0  0  0  0  0  0  0  0  0  0  0  0
   -0.2148    1.3290   -0.0592 C   0  0  0  0  0  0  0  0  0  0  0  0
    1.2666    1.2403   -0.0740 C   0  0  0  0  0  0  0  0  0  0  0  0
    1.9902    0.1347   -0.1833 C   0  0  0  0  0  0  0  0  0  0  0  0
    1.5079   -1.3250   -0.3218 C   0  0  0  0  0  0  0  0  0  0  0  0
    0.1092   -1.2261   -0.1028 C   0  0  0  0  0  0  0  0  0  0  0  0
   -1.2448   -0.9905    0.1111 C   0  0  0  0  0  0  0  0  0  0  0  0
   -1.3389    0.5469    0.4034 C   0  0  0  0  0  0  0  0  0  0  0  0
   -2.5170    0.9701   -0.1682 O   0  0  0  0  0  0  0  0  0  0  0  0
    1.8313    2.1603    0.0114 H   0  0  0  0  0  0  0  0  0  0  0  0
    3.0358    0.2695   -0.1718 H   0  0  0  0  0  0  0  0  0  0  0  0
    2.0830   -1.9760    0.3735 H   0  0  0  0  0  0  0  0  0  0  0  0
    1.8372   -1.7202   -1.3306 H   0  0  0  0  0  0  0  0  0  0  0  0
    0.3397   -0.7866    0.9399 H   0  0  0  0  0  0  0  0  0  0  0  0
    0.0663   -0.4834   -0.9884 H   0  0  0  0  0  0  0  0  0  0  0  0
   -1.9623   -1.2544   -0.7152 H   0  0  0  0  0  0  0  0  0  0  0  0
   -1.7129   -1.5434    0.9838 H   0  0  0  0  0  0  0  0  0  0  0  0
   -1.4523    0.6684    1.5215 H   0  0  0  0  0  0  0  0  0  0  0  0
   -3.0530    1.5569    0.3987 H   0  0  0  0  0  0  0  0  0  0  0  0
  1  2  2  0
  2  3  1  0
  3  4  2  0
  4  5  1  0
  5  6  1  0
  6  7  1  0
  7  8  1  0
  8  9  1  0
  8  2  1  0
  3 10  1  0
  4 11  1  0
  5 12  1  0
  5 13  1  0
  6 14  1  0
  6 15  1  0
  7 16  1  0
  7 17  1  0
  8 18  1  0
  9 19  1  0
M  END
