
     RDKit          3D

 14 15  0  0  0  0  0  0  0  0999 V2000
   -0.2377    1.4980    1.8765 O   0  0  0  0  0  0  0  0  0  0  0  0
   -0.6006    0.7196    0.9762 C   0  0  0  0  0  0  0  0  0  0  0  0
   -1.9175    0.4952    0.6330 O   0  0  0  0  0  0  0  0  0  0  0  0
   -1.9265   -0.4551   -0.4117 C   0  0  0  0  0  0  0  0  0  0  0  0
   -0.6538   -0.9383   -0.5592 O   0  0  0  0  0  0  0  0  0  0  0  0
    0.2235   -0.1022    0.1088 C   0  0  0  0  0  0  0  0  0  0  0  0
    1.5896   -0.5226    0.3985 C   0  0  0  0  0  0  0  0  0  0  0  0
    1.3367    0.5203   -0.6663 C   0  0  0  0  0  0  0  0  0  0  0  0
   -2.2473   -0.0210   -1.3853 H   0  0  0  0  0  0  0  0  0  0  0  0
   -2.6382   -1.2529   -0.1182 H   0  0  0  0  0  0  0  0  0  0  0  0
    1.9303   -1.5001   -0.0308 H   0  0  0  0  0  0  0  0  0  0  0  0
    2.1536   -0.2303    1.2912 H   0  0  0  0  0  0  0  0  0  0  0  0
    1.5804    1.5590   -0.3733 H   0  0  0  0  0  0  0  0  0  0  0  0
    1.4076    0.2305   -1.7394 H   0  0  0  0  0  0  0  0  0  0  0  0
  1  2  2  0
  2  3  1  0
  3  4  1  0
  4  5  1  0
  5  6  1  0
  6  7  1  0
  7  8  1  0
  6  2  1  0
  8  6  1  0
  4  9  1  0
  4 10  1  0
  7 11  1  0
  7 12  1  0
  8 13  1  0
  8 14  1  0
M  END
