
     RDKit          3D

 21 21  0  0  0  0  0  0  0  0999 V2000
   -1.3309   -2.2037   -0.8916 O   0  0  0  0  0  0  0  0  0  0  0  0
   -1.0793   -1.3078   -0.1249 C   0  0  0  0  0  0  0  0  0  0  0  0
   -2.1513   -0.2817   -0.1283 C   0  0  0  0  0  0  0  0  0  0  0  0
   -1.5531    0.9780   -0.6391 C   0  0  0  0  0  0  0  0  0  0  0  0
   -0.4065    1.5910   -0.3454 C   0  0  0  0  0  0  0  0  0  0  0  0
    0.7621    1.3589    0.5594 C   0  0  0  0  0  0  0  0  0  0  0  0
    1.7656    0.4292   -0.0230 C   0  0  0  0  0  0  0  0  0  0  0  0
    1.3920   -0.9821   -0.1406 C   0  0  0  0  0  0  0  0  0  0  0  0
    0.1861   -1.4308    0.6124 C   0  0  0  0  0  0  0  0  0  0  0  0
   -3.0345   -0.5942   -0.6884 H   0  0  0  0  0  0  0  0  0  0  0  0
   -2.4987   -0.0623    0.9145 H   0  0  0  0  0  0  0  0  0  0  0  0
   -2.1781    1.4587   -1.3750 H   0  0  0  0  0  0  0  0  0  0  0  0
   -0.3352    2.4964   -0.9400 H   0  0  0  0  0  0  0  0  0  0  0  0
    1.2795    2.3571    0.6507 H   0  0  0  0  0  0  0  0  0  0  0  0
    0.4413    1.1082    1.5841 H   0  0  0  0  0  0  0  0  0  0  0  0
    2.7208    0.5622    0.5672 H   0  0  0  0  0  0  0  0  0  0  0  0
    2.0304    0.8464   -1.0390 H   0  0  0  0  0  0  0  0  0  0  0  0
    1.2698   -1.2674   -1.2271 H   0  0  0  0  0  0  0  0  0  0  0  0
    2.2437   -1.6157    0.2114 H   0  0  0  0  0  0  0  0  0  0  0  0
    0.1820   -0.9142    1.5915 H   0  0  0  0  0  0  0  0  0  0  0  0
    0.2941   -2.5263    0.8713 H   0  0  0  0  0  0  0  0  0  0  0  0
  1  2  2  0
  2  3  1  0
  3  4  1  0
  4  5  2  3
  5  6  1  0
  6  7  1  0
  7  8  1  0
  8  9  1  0
  9  2  1  0
  3 10  1  0
  3 11  1  0
  4 12  1  0
  5 13  1  0
  6 14  1  0
  6 15  1  0
  7 16  1  0
  7 17  1  0
  8 18  1  0
  8 19  1  0
  9 20  1  0
  9 21  1  0
M  END
