
     RDKit          3D

 19 19  0  0  0  0  0  0  0  0999 V2000
    0.8101    3.0908   -0.4607 O   0  0  0  0  0  0  0  0  0  0  0  0
    0.5793    1.9275   -0.0786 C   0  0  0  0  0  0  0  0  0  0  0  0
   -0.7502    1.7436    0.2174 O   0  0  0  0  0  0  0  0  0  0  0  0
   -1.5424    0.6633    0.6280 C   0  0  0  0  0  0  0  0  0  0  0  0
   -1.5627   -0.4433   -0.3940 C   0  0  0  0  0  0  0  0  0  0  0  0
   -0.1892   -0.8183   -0.8745 C   0  0  0  0  0  0  0  0  0  0  0  0
    0.7541   -1.1323    0.2383 C   0  0  0  0  0  0  0  0  0  0  0  0
    1.9297   -0.2240    0.3400 C   0  0  0  0  0  0  0  0  0  0  0  0
    1.6772    1.1022   -0.0374 O   0  0  0  0  0  0  0  0  0  0  0  0
   -2.5875    1.0246    0.7702 H   0  0  0  0  0  0  0  0  0  0  0  0
   -1.1309    0.2915    1.6027 H   0  0  0  0  0  0  0  0  0  0  0  0
   -2.1442   -0.0652   -1.2740 H   0  0  0  0  0  0  0  0  0  0  0  0
   -2.1256   -1.3021    0.0084 H   0  0  0  0  0  0  0  0  0  0  0  0
    0.1671   -0.0051   -1.5515 H   0  0  0  0  0  0  0  0  0  0  0  0
   -0.3331   -1.7043   -1.5595 H   0  0  0  0  0  0  0  0  0  0  0  0
    1.1322   -2.1791    0.0870 H   0  0  0  0  0  0  0  0  0  0  0  0
    0.2425   -1.1732    1.2431 H   0  0  0  0  0  0  0  0  0  0  0  0
    2.3027   -0.2053    1.4062 H   0  0  0  0  0  0  0  0  0  0  0  0
    2.7707   -0.5912   -0.3111 H   0  0  0  0  0  0  0  0  0  0  0  0
  1  2  2  0
  2  3  1  0
  3  4  1  0
  4  5  1  0
  5  6  1  0
  6  7  1  0
  7  8  1  0
  8  9  1  0
  9  2  1  0
  4 10  1  0
  4 11  1  0
  5 12  1  0
  5 13  1  0
  6 14  1  0
  6 15  1  0
  7 16  1  0
  7 17  1  0
  8 18  1  0
  8 19  1  0
M  END
