
     RDKit          3D

 19 21  0  0  0  0  0  0  0  0999 V2000
    0.7612   -2.3057   -0.5989 O   0  0  0  0  0  0  0  0  0  0  0  0
    0.9486   -1.1493   -0.3137 C   0  0  0  0  0  0  0  0  0  0  0  0
    2.2005   -0.3665    0.0079 C   0  0  0  0  0  0  0  0  0  0  0  0
    1.4254    0.8651   -0.4845 C   0  0  0  0  0  0  0  0  0  0  0  0
    0.2257    0.1119   -0.1087 C   0  0  0  0  0  0  0  0  0  0  0  0
   -0.3629    0.2762    1.2401 C   0  0  0  0  0  0  0  0  0  0  0  0
   -1.7271    0.2768    0.6467 C   0  0  0  0  0  0  0  0  0  0  0  0
   -2.1602   -0.6373   -0.4163 C   0  0  0  0  0  0  0  0  0  0  0  0
   -1.0577    0.3275   -0.7701 C   0  0  0  0  0  0  0  0  0  0  0  0
    3.0487   -0.6511   -0.6035 H   0  0  0  0  0  0  0  0  0  0  0  0
    2.3232   -0.3176    1.0969 H   0  0  0  0  0  0  0  0  0  0  0  0
    1.5547    0.8943   -1.6047 H   0  0  0  0  0  0  0  0  0  0  0  0
    1.6645    1.7878    0.0391 H   0  0  0  0  0  0  0  0  0  0  0  0
   -0.0806    1.2323    1.7251 H   0  0  0  0  0  0  0  0  0  0  0  0
   -0.1515   -0.5561    1.9210 H   0  0  0  0  0  0  0  0  0  0  0  0
   -2.3636    1.1214    0.9058 H   0  0  0  0  0  0  0  0  0  0  0  0
   -3.1262   -0.4488   -0.8808 H   0  0  0  0  0  0  0  0  0  0  0  0
   -1.8367   -1.7028   -0.4681 H   0  0  0  0  0  0  0  0  0  0  0  0
   -1.2861    1.2420   -1.3332 H   0  0  0  0  0  0  0  0  0  0  0  0
  1  2  2  0
  2  3  1  0
  3  4  1  0
  4  5  1  0
  5  6  1  0
  6  7  1  0
  7  8  1  0
  8  9  1  0
  5  2  1  0
  9  7  1  0
  9  5  1  0
  3 10  1  0
  3 11  1  0
  4 12  1  0
  4 13  1  0
  6 14  1  0
  6 15  1  0
  7 16  1  0
  8 17  1  0
  8 18  1  0
  9 19  1  0
M  END
