
     RDKit          3D

 15 16  0  0  0  0  0  0  0  0999 V2000
    2.3657    1.1047    0.0894 O   0  0  0  0  0  0  0  0  0  0  0  0
    1.2569    0.6085    0.1415 C   0  0  0  0  0  0  0  0  0  0  0  0
    1.1230   -0.8601   -0.0335 C   0  0  0  0  0  0  0  0  0  0  0  0
   -0.2708   -1.1162   -0.5726 C   0  0  0  0  0  0  0  0  0  0  0  0
   -0.6714   -0.0297   -1.3790 O   0  0  0  0  0  0  0  0  0  0  0  0
   -1.1476    0.5828   -0.2028 C   0  0  0  0  0  0  0  0  0  0  0  0
    0.0031    1.3739    0.3712 C   0  0  0  0  0  0  0  0  0  0  0  0
   -1.3118   -0.7426    0.3945 C   0  0  0  0  0  0  0  0  0  0  0  0
   -1.9601   -1.2905    1.2475 O   0  0  0  0  0  0  0  0  0  0  0  0
    1.2765   -1.3293    0.9663 H   0  0  0  0  0  0  0  0  0  0  0  0
    1.8396   -1.2766   -0.7605 H   0  0  0  0  0  0  0  0  0  0  0  0
   -0.4057   -2.0405   -1.1389 H   0  0  0  0  0  0  0  0  0  0  0  0
   -2.0699    1.1593   -0.3920 H   0  0  0  0  0  0  0  0  0  0  0  0
   -0.0808    1.5258    1.4657 H   0  0  0  0  0  0  0  0  0  0  0  0
    0.0534    2.3306   -0.1968 H   0  0  0  0  0  0  0  0  0  0  0  0
  1  2  2  0
  2  3  1  0
  3  4  1  0
  4  5  1  0
  5  6  1  0
  6  7  1  0
  6  8  1  0
  8  9  2  0
  7  2  1  0
  8  4  1  0
  3 10  1  0
  3 11  1  0
  4 12  1  0
  6 13  1  0
  7 14  1  0
  7 15  1  0
M  END
