
     RDKit          3D

 15 16  0  0  0  0  0  0  0  0999 V2000
   -1.1989    2.0321    1.4182 O   0  0  0  0  0  0  0  0  0  0  0  0
   -0.4697    1.2487    0.7730 C   0  0  0  0  0  0  0  0  0  0  0  0
    0.8137    0.9040    1.1663 O   0  0  0  0  0  0  0  0  0  0  0  0
    1.4761    0.0170    0.2481 C   0  0  0  0  0  0  0  0  0  0  0  0
    0.5601   -0.4850   -0.8108 C   0  0  0  0  0  0  0  0  0  0  0  0
    0.0037    0.6155   -1.4727 O   0  0  0  0  0  0  0  0  0  0  0  0
   -0.9791    0.6454   -0.4774 C   0  0  0  0  0  0  0  0  0  0  0  0
   -0.8110   -0.8516   -0.3669 C   0  0  0  0  0  0  0  0  0  0  0  0
   -0.9762   -1.4089    0.8608 O   0  0  0  0  0  0  0  0  0  0  0  0
    2.0595   -0.7450    0.7608 H   0  0  0  0  0  0  0  0  0  0  0  0
    2.2252    0.6909   -0.2662 H   0  0  0  0  0  0  0  0  0  0  0  0
    1.0798   -1.1826   -1.4777 H   0  0  0  0  0  0  0  0  0  0  0  0
   -1.9741    0.9539   -0.7959 H   0  0  0  0  0  0  0  0  0  0  0  0
   -1.3624   -1.3826   -1.1464 H   0  0  0  0  0  0  0  0  0  0  0  0
   -0.4466   -1.0520    1.5866 H   0  0  0  0  0  0  0  0  0  0  0  0
  1  2  2  0
  2  3  1  0
  3  4  1  0
  4  5  1  0
  5  6  1  0
  6  7  1  0
  7  8  1  0
  8  9  1  0
  7  2  1  0
  8  5  1  0
  4 10  1  0
  4 11  1  0
  5 12  1  0
  7 13  1  0
  8 14  1  0
  9 15  1  0
M  END
