
     RDKit          3D

 15 16  0  0  0  0  0  0  0  0999 V2000
   -1.7255    0.7449    2.1697 O   0  0  0  0  0  0  0  0  0  0  0  0
   -1.0029    0.0871    1.4132 C   0  0  0  0  0  0  0  0  0  0  0  0
    0.1324   -0.6694    1.5724 O   0  0  0  0  0  0  0  0  0  0  0  0
    0.3347   -0.8842    0.1867 C   0  0  0  0  0  0  0  0  0  0  0  0
    1.4318    0.0123   -0.4059 C   0  0  0  0  0  0  0  0  0  0  0  0
    2.6215   -0.2528    0.2493 O   0  0  0  0  0  0  0  0  0  0  0  0
   -0.9829   -0.2167    0.0018 C   0  0  0  0  0  0  0  0  0  0  0  0
   -1.4837    0.5372   -1.0155 C   0  0  0  0  0  0  0  0  0  0  0  0
   -2.0020   -0.7394   -0.7117 O   0  0  0  0  0  0  0  0  0  0  0  0
    0.4213   -1.9309   -0.1151 H   0  0  0  0  0  0  0  0  0  0  0  0
    1.4867   -0.1192   -1.4865 H   0  0  0  0  0  0  0  0  0  0  0  0
    1.2004    1.0801   -0.2160 H   0  0  0  0  0  0  0  0  0  0  0  0
    2.7634    0.3635    0.9853 H   0  0  0  0  0  0  0  0  0  0  0  0
   -0.9657    0.6380   -2.0136 H   0  0  0  0  0  0  0  0  0  0  0  0
   -2.2293    1.3495   -0.8802 H   0  0  0  0  0  0  0  0  0  0  0  0
  1  2  2  0
  2  3  1  0
  3  4  1  0
  4  5  1  0
  5  6  1  0
  4  7  1  0
  7  8  1  0
  8  9  1  0
  7  2  1  0
  9  7  1  0
  4 10  1  0
  5 11  1  0
  5 12  1  0
  6 13  1  0
  8 14  1  0
  8 15  1  0
M  END
