
     RDKit          3D

 17 19  0  0  0  0  0  0  0  0999 V2000
   -1.8379    0.9118   -1.9708 O   0  0  0  0  0  0  0  0  0  0  0  0
   -1.0288    0.7486   -1.0902 C   0  0  0  0  0  0  0  0  0  0  0  0
    0.2868    1.2988   -0.7410 C   0  0  0  0  0  0  0  0  0  0  0  0
    1.2538    0.5810    0.1088 C   0  0  0  0  0  0  0  0  0  0  0  0
    1.3049   -0.9478    0.0509 C   0  0  0  0  0  0  0  0  0  0  0  0
   -0.1362   -1.3414   -0.1771 C   0  0  0  0  0  0  0  0  0  0  0  0
   -0.9777   -0.1236    0.1095 C   0  0  0  0  0  0  0  0  0  0  0  0
   -2.1362   -0.3118    0.7948 O   0  0  0  0  0  0  0  0  0  0  0  0
   -0.0301    0.8530    0.7174 C   0  0  0  0  0  0  0  0  0  0  0  0
    0.4624    2.3727   -0.9010 H   0  0  0  0  0  0  0  0  0  0  0  0
    2.1531    1.1044    0.4087 H   0  0  0  0  0  0  0  0  0  0  0  0
    1.5744   -1.3530    1.0692 H   0  0  0  0  0  0  0  0  0  0  0  0
    1.9887   -1.3090   -0.7230 H   0  0  0  0  0  0  0  0  0  0  0  0
   -0.4453   -2.2192    0.4212 H   0  0  0  0  0  0  0  0  0  0  0  0
   -0.2180   -1.5914   -1.2729 H   0  0  0  0  0  0  0  0  0  0  0  0
   -1.9135   -0.2895    1.7804 H   0  0  0  0  0  0  0  0  0  0  0  0
   -0.3002    1.6164    1.4153 H   0  0  0  0  0  0  0  0  0  0  0  0
  1  2  2  0
  2  3  1  0
  3  4  1  0
  4  5  1  0
  5  6  1  0
  6  7  1  0
  7  8  1  0
  7  9  1  0
  7  2  1  0
  9  3  1  0
  9  4  1  0
  3 10  1  0
  4 11  1  0
  5 12  1  0
  5 13  1  0
  6 14  1  0
  6 15  1  0
  8 16  1  0
  9 17  1  0
M  END
