
     RDKit          3D

 19 21  0  0  0  0  0  0  0  0999 V2000
   -0.1942    1.8695    1.6533 O   0  0  0  0  0  0  0  0  0  0  0  0
   -0.2517    1.2633    0.6290 C   0  0  0  0  0  0  0  0  0  0  0  0
   -1.5743    0.8518    0.0708 C   0  0  0  0  0  0  0  0  0  0  0  0
   -1.6037   -0.6635   -0.2382 C   0  0  0  0  0  0  0  0  0  0  0  0
   -0.2933   -1.1876    0.2218 C   0  0  0  0  0  0  0  0  0  0  0  0
    1.1042   -1.2442   -0.0332 C   0  0  0  0  0  0  0  0  0  0  0  0
    1.9669   -0.0423    0.4572 C   0  0  0  0  0  0  0  0  0  0  0  0
    0.9427    0.8747   -0.1594 C   0  0  0  0  0  0  0  0  0  0  0  0
    0.4736   -0.3630   -0.8440 C   0  0  0  0  0  0  0  0  0  0  0  0
   -2.3409    1.0096    0.8396 H   0  0  0  0  0  0  0  0  0  0  0  0
   -1.8322    1.4220   -0.8424 H   0  0  0  0  0  0  0  0  0  0  0  0
   -2.4106   -1.1773    0.3032 H   0  0  0  0  0  0  0  0  0  0  0  0
   -1.8337   -0.8310   -1.3223 H   0  0  0  0  0  0  0  0  0  0  0  0
   -0.3140   -0.8902    1.3171 H   0  0  0  0  0  0  0  0  0  0  0  0
    1.6223   -2.1655   -0.2878 H   0  0  0  0  0  0  0  0  0  0  0  0
    2.9146    0.0404   -0.0858 H   0  0  0  0  0  0  0  0  0  0  0  0
    2.0000    0.0301    1.5503 H   0  0  0  0  0  0  0  0  0  0  0  0
    1.3583    1.6685   -0.8066 H   0  0  0  0  0  0  0  0  0  0  0  0
    0.2660   -0.4653   -1.8725 H   0  0  0  0  0  0  0  0  0  0  0  0
  1  2  2  0
  2  3  1  0
  3  4  1  0
  4  5  1  0
  5  6  1  0
  6  7  1  0
  7  8  1  0
  8  9  1  0
  8  2  1  0
  9  5  1  0
  9  6  1  0
  3 10  1  0
  3 11  1  0
  4 12  1  0
  4 13  1  0
  5 14  1  0
  6 15  1  0
  7 16  1  0
  7 17  1  0
  8 18  1  0
  9 19  1  0
M  END
