
     RDKit          3D

 17 17  0  0  0  0  0  0  0  0999 V2000
    2.9659    1.1594   -0.4071 O   0  0  0  0  0  0  0  0  0  0  0  0
    1.7404    0.8093   -0.3105 C   0  0  0  0  0  0  0  0  0  0  0  0
    1.5974   -0.6440   -0.4559 C   0  0  0  0  0  0  0  0  0  0  0  0
    0.6504   -1.4832   -0.0564 C   0  0  0  0  0  0  0  0  0  0  0  0
   -0.6200   -1.3708    0.6717 C   0  0  0  0  0  0  0  0  0  0  0  0
   -1.4605   -0.1930    0.2235 C   0  0  0  0  0  0  0  0  0  0  0  0
   -1.0602    0.9988    0.8125 O   0  0  0  0  0  0  0  0  0  0  0  0
   -0.5639    1.9176   -0.0788 C   0  0  0  0  0  0  0  0  0  0  0  0
    0.8710    1.8776   -0.0958 O   0  0  0  0  0  0  0  0  0  0  0  0
    2.4206   -1.1213   -0.9904 H   0  0  0  0  0  0  0  0  0  0  0  0
    0.9106   -2.5098   -0.3611 H   0  0  0  0  0  0  0  0  0  0  0  0
   -0.4641   -1.2356    1.7710 H   0  0  0  0  0  0  0  0  0  0  0  0
   -1.2154   -2.2868    0.5474 H   0  0  0  0  0  0  0  0  0  0  0  0
   -2.4978   -0.3948    0.6241 H   0  0  0  0  0  0  0  0  0  0  0  0
   -1.5560   -0.1339   -0.8698 H   0  0  0  0  0  0  0  0  0  0  0  0
   -0.8637    1.6555   -1.1322 H   0  0  0  0  0  0  0  0  0  0  0  0
   -0.8546    2.9550    0.1077 H   0  0  0  0  0  0  0  0  0  0  0  0
  1  2  2  0
  2  3  1  0
  3  4  2  3
  4  5  1  0
  5  6  1  0
  6  7  1  0
  7  8  1  0
  8  9  1  0
  9  2  1  0
  3 10  1  0
  4 11  1  0
  5 12  1  0
  5 13  1  0
  6 14  1  0
  6 15  1  0
  8 16  1  0
  8 17  1  0
M  END
