
     RDKit          3D

 18 19  0  0  0  0  0  0  0  0999 V2000
    0.3174    0.4996    2.5473 O   0  0  0  0  0  0  0  0  0  0  0  0
    0.1750    0.2709    1.3817 C   0  0  0  0  0  0  0  0  0  0  0  0
    0.0474   -1.0351    0.6341 C   0  0  0  0  0  0  0  0  0  0  0  0
   -1.2232   -0.7503   -0.1505 C   0  0  0  0  0  0  0  0  0  0  0  0
   -1.2902    0.7637   -0.3286 C   0  0  0  0  0  0  0  0  0  0  0  0
    0.0657    1.1887    0.1929 C   0  0  0  0  0  0  0  0  0  0  0  0
    1.0932    0.5636   -0.7188 C   0  0  0  0  0  0  0  0  0  0  0  0
    1.2439   -0.8901   -0.2782 C   0  0  0  0  0  0  0  0  0  0  0  0
    0.0250   -1.9016    1.2558 H   0  0  0  0  0  0  0  0  0  0  0  0
   -1.2108   -1.2559   -1.1380 H   0  0  0  0  0  0  0  0  0  0  0  0
   -2.0640   -1.0423    0.4898 H   0  0  0  0  0  0  0  0  0  0  0  0
   -2.0478    1.2076    0.3460 H   0  0  0  0  0  0  0  0  0  0  0  0
   -1.4318    1.0592   -1.3756 H   0  0  0  0  0  0  0  0  0  0  0  0
    0.1856    2.2253    0.4115 H   0  0  0  0  0  0  0  0  0  0  0  0
    2.0388    1.1002   -0.7523 H   0  0  0  0  0  0  0  0  0  0  0  0
    0.6481    0.4981   -1.7551 H   0  0  0  0  0  0  0  0  0  0  0  0
    1.2582   -1.5900   -1.1110 H   0  0  0  0  0  0  0  0  0  0  0  0
    2.1695   -0.9117    0.3488 H   0  0  0  0  0  0  0  0  0  0  0  0
  1  2  2  0
  2  3  1  0
  3  4  1  0
  4  5  1  0
  5  6  1  0
  6  7  1  0
  7  8  1  0
  6  2  1  0
  8  3  1  0
  3  9  1  0
  4 10  1  0
  4 11  1  0
  5 12  1  0
  5 13  1  0
  6 14  1  0
  7 15  1  0
  7 16  1  0
  8 17  1  0
  8 18  1  0
M  END
