
     RDKit          3D

 17 18  0  0  0  0  0  0  0  0999 V2000
   -1.3062    2.2770    0.9907 O   0  0  0  0  0  0  0  0  0  0  0  0
   -1.4958    1.2788    0.3264 C   0  0  0  0  0  0  0  0  0  0  0  0
   -2.6481    0.3932   -0.0691 C   0  0  0  0  0  0  0  0  0  0  0  0
   -1.7390   -0.4617   -0.7216 O   0  0  0  0  0  0  0  0  0  0  0  0
   -0.6525    0.3589   -0.4863 C   0  0  0  0  0  0  0  0  0  0  0  0
    0.4442   -0.2391    0.3677 C   0  0  0  0  0  0  0  0  0  0  0  0
    1.3703   -1.1750   -0.3669 C   0  0  0  0  0  0  0  0  0  0  0  0
    2.4199   -0.2642    0.2160 C   0  0  0  0  0  0  0  0  0  0  0  0
    1.4717    0.7212    0.5106 O   0  0  0  0  0  0  0  0  0  0  0  0
   -3.3014    0.9726   -0.7694 H   0  0  0  0  0  0  0  0  0  0  0  0
   -3.1765   -0.0806    0.7603 H   0  0  0  0  0  0  0  0  0  0  0  0
   -0.1953    0.8185   -1.3927 H   0  0  0  0  0  0  0  0  0  0  0  0
    0.1067   -0.6388    1.3489 H   0  0  0  0  0  0  0  0  0  0  0  0
    1.2849   -1.1832   -1.4566 H   0  0  0  0  0  0  0  0  0  0  0  0
    1.4076   -2.2011    0.0524 H   0  0  0  0  0  0  0  0  0  0  0  0
    3.1960    0.0937   -0.4890 H   0  0  0  0  0  0  0  0  0  0  0  0
    2.8137   -0.6703    1.1709 H   0  0  0  0  0  0  0  0  0  0  0  0
  1  2  2  0
  2  3  1  0
  3  4  1  0
  4  5  1  0
  5  6  1  0
  6  7  1  0
  7  8  1  0
  8  9  1  0
  5  2  1  0
  9  6  1  0
  3 10  1  0
  3 11  1  0
  5 12  1  0
  6 13  1  0
  7 14  1  0
  7 15  1  0
  8 16  1  0
  8 17  1  0
M  END
