
     RDKit          3D

 19 19  0  0  0  0  0  0  0  0999 V2000
   -1.5769   -2.5713    0.2589 O   0  0  0  0  0  0  0  0  0  0  0  0
   -1.0985   -1.4844    0.0391 C   0  0  0  0  0  0  0  0  0  0  0  0
   -1.8057   -0.2320   -0.3264 C   0  0  0  0  0  0  0  0  0  0  0  0
   -0.7466    0.8258   -0.3719 C   0  0  0  0  0  0  0  0  0  0  0  0
   -1.2626    1.9917    0.1754 O   0  0  0  0  0  0  0  0  0  0  0  0
    0.4405    0.2962    0.3624 C   0  0  0  0  0  0  0  0  0  0  0  0
    1.7566    0.7509   -0.2542 C   0  0  0  0  0  0  0  0  0  0  0  0
    2.7844    0.1890    0.5236 O   0  0  0  0  0  0  0  0  0  0  0  0
    0.3520   -1.1922    0.0979 C   0  0  0  0  0  0  0  0  0  0  0  0
   -2.4946    0.0025    0.5190 H   0  0  0  0  0  0  0  0  0  0  0  0
   -2.3653   -0.3243   -1.2838 H   0  0  0  0  0  0  0  0  0  0  0  0
   -0.4194    1.0515   -1.4178 H   0  0  0  0  0  0  0  0  0  0  0  0
   -2.2386    1.9202    0.3318 H   0  0  0  0  0  0  0  0  0  0  0  0
    0.4082    0.5191    1.4540 H   0  0  0  0  0  0  0  0  0  0  0  0
    1.8646    1.8553   -0.2372 H   0  0  0  0  0  0  0  0  0  0  0  0
    1.8097    0.3250   -1.2622 H   0  0  0  0  0  0  0  0  0  0  0  0
    2.9418   -0.7559    0.2309 H   0  0  0  0  0  0  0  0  0  0  0  0
    0.7680   -1.3964   -0.9145 H   0  0  0  0  0  0  0  0  0  0  0  0
    0.8824   -1.7706    0.8756 H   0  0  0  0  0  0  0  0  0  0  0  0
  1  2  2  0
  2  3  1  0
  3  4  1  0
  4  5  1  0
  4  6  1  0
  6  7  1  0
  7  8  1  0
  6  9  1  0
  9  2  1  0
  3 10  1  0
  3 11  1  0
  4 12  1  0
  5 13  1  0
  6 14  1  0
  7 15  1  0
  7 16  1  0
  8 17  1  0
  9 18  1  0
  9 19  1  0
M  END
