
     RDKit          3D

 19 20  0  0  0  0  0  0  0  0999 V2000
    0.0288    2.8203   -0.3100 O   0  0  0  0  0  0  0  0  0  0  0  0
   -0.4331    1.7185   -0.1322 C   0  0  0  0  0  0  0  0  0  0  0  0
   -1.8446    1.3438   -0.3761 C   0  0  0  0  0  0  0  0  0  0  0  0
   -1.9424   -0.1345   -0.0237 C   0  0  0  0  0  0  0  0  0  0  0  0
   -0.5202   -0.5921   -0.3535 C   0  0  0  0  0  0  0  0  0  0  0  0
    0.2680    0.5067    0.3568 C   0  0  0  0  0  0  0  0  0  0  0  0
    1.7169    0.4882   -0.0253 C   0  0  0  0  0  0  0  0  0  0  0  0
    2.5240   -0.6419    0.3899 C   0  0  0  0  0  0  0  0  0  0  0  0
    2.5636    0.6350    1.1105 O   0  0  0  0  0  0  0  0  0  0  0  0
   -2.1416    1.4317   -1.4351 H   0  0  0  0  0  0  0  0  0  0  0  0
   -2.5539    1.9055    0.2655 H   0  0  0  0  0  0  0  0  0  0  0  0
   -2.0741   -0.2108    1.0769 H   0  0  0  0  0  0  0  0  0  0  0  0
   -2.6950   -0.6584   -0.6076 H   0  0  0  0  0  0  0  0  0  0  0  0
   -0.4267   -0.5144   -1.4548 H   0  0  0  0  0  0  0  0  0  0  0  0
   -0.3059   -1.5876    0.0492 H   0  0  0  0  0  0  0  0  0  0  0  0
    0.1105    0.3338    1.4346 H   0  0  0  0  0  0  0  0  0  0  0  0
    2.0650    1.0704   -0.9044 H   0  0  0  0  0  0  0  0  0  0  0  0
    3.5435   -0.8306   -0.0197 H   0  0  0  0  0  0  0  0  0  0  0  0
    2.1172   -1.4790    0.9590 H   0  0  0  0  0  0  0  0  0  0  0  0
  1  2  2  0
  2  3  1  0
  3  4  1  0
  4  5  1  0
  5  6  1  0
  6  7  1  0
  7  8  1  0
  8  9  1  0
  6  2  1  0
  9  7  1  0
  3 10  1  0
  3 11  1  0
  4 12  1  0
  4 13  1  0
  5 14  1  0
  5 15  1  0
  6 16  1  0
  7 17  1  0
  8 18  1  0
  8 19  1  0
M  END
