
     RDKit          3D

 19 20  0  0  0  0  0  0  0  0999 V2000
   -0.2441    2.7987    0.4138 O   0  0  0  0  0  0  0  0  0  0  0  0
    0.3658    1.7723    0.0082 C   0  0  0  0  0  0  0  0  0  0  0  0
    1.6781    1.4681    0.3432 O   0  0  0  0  0  0  0  0  0  0  0  0
    1.8754    0.0502    0.2943 C   0  0  0  0  0  0  0  0  0  0  0  0
    0.7529   -0.4678   -0.5692 C   0  0  0  0  0  0  0  0  0  0  0  0
   -0.1080   -1.4405    0.1964 C   0  0  0  0  0  0  0  0  0  0  0  0
   -1.1757   -0.5692    0.7995 C   0  0  0  0  0  0  0  0  0  0  0  0
   -1.5280    0.3343   -0.3850 C   0  0  0  0  0  0  0  0  0  0  0  0
   -0.1468    0.7033   -0.8757 C   0  0  0  0  0  0  0  0  0  0  0  0
    2.8616   -0.1343   -0.1490 H   0  0  0  0  0  0  0  0  0  0  0  0
    1.7865   -0.3845    1.3120 H   0  0  0  0  0  0  0  0  0  0  0  0
    1.1671   -0.9285   -1.4703 H   0  0  0  0  0  0  0  0  0  0  0  0
    0.4484   -2.0172    0.9479 H   0  0  0  0  0  0  0  0  0  0  0  0
   -0.6083   -2.0866   -0.5602 H   0  0  0  0  0  0  0  0  0  0  0  0
   -2.0762   -1.1033    1.0975 H   0  0  0  0  0  0  0  0  0  0  0  0
   -0.8209    0.0581    1.6249 H   0  0  0  0  0  0  0  0  0  0  0  0
   -2.0110    1.2374    0.0181 H   0  0  0  0  0  0  0  0  0  0  0  0
   -2.1137   -0.2311   -1.1055 H   0  0  0  0  0  0  0  0  0  0  0  0
   -0.1032    0.9407   -1.9409 H   0  0  0  0  0  0  0  0  0  0  0  0
  1  2  2  0
  2  3  1  0
  3  4  1  0
  4  5  1  0
  5  6  1  0
  6  7  1  0
  7  8  1  0
  8  9  1  0
  9  2  1  0
  9  5  1  0
  4 10  1  0
  4 11  1  0
  5 12  1  0
  6 13  1  0
  6 14  1  0
  7 15  1  0
  7 16  1  0
  8 17  1  0
  8 18  1  0
  9 19  1  0
M  END
