
     RDKit          3D

 17 19  0  0  0  0  0  0  0  0999 V2000
   -2.8922    0.8512    0.1832 O   0  0  0  0  0  0  0  0  0  0  0  0
   -1.7219    0.5676    0.2277 C   0  0  0  0  0  0  0  0  0  0  0  0
   -0.5409    1.4588    0.1970 C   0  0  0  0  0  0  0  0  0  0  0  0
    0.5258    0.6335   -0.4553 C   0  0  0  0  0  0  0  0  0  0  0  0
   -0.0440   -0.7469   -0.6828 C   0  0  0  0  0  0  0  0  0  0  0  0
   -1.1733   -0.8025    0.3280 C   0  0  0  0  0  0  0  0  0  0  0  0
    1.2325   -1.3078   -0.1154 C   0  0  0  0  0  0  0  0  0  0  0  0
    1.4580   -1.0093    1.1970 O   0  0  0  0  0  0  0  0  0  0  0  0
    1.6019    0.0934    0.3969 C   0  0  0  0  0  0  0  0  0  0  0  0
   -0.3052    1.7254    1.2446 H   0  0  0  0  0  0  0  0  0  0  0  0
   -0.7493    2.4060   -0.3431 H   0  0  0  0  0  0  0  0  0  0  0  0
    0.9141    1.0675   -1.3962 H   0  0  0  0  0  0  0  0  0  0  0  0
   -0.2938   -1.0034   -1.7075 H   0  0  0  0  0  0  0  0  0  0  0  0
   -1.9042   -1.5900    0.1002 H   0  0  0  0  0  0  0  0  0  0  0  0
   -0.7345   -0.8976    1.3468 H   0  0  0  0  0  0  0  0  0  0  0  0
    1.9505   -1.8348   -0.7462 H   0  0  0  0  0  0  0  0  0  0  0  0
    2.6766    0.3888    0.2249 H   0  0  0  0  0  0  0  0  0  0  0  0
  1  2  2  0
  2  3  1  0
  3  4  1  0
  4  5  1  0
  5  6  1  0
  5  7  1  0
  7  8  1  0
  8  9  1  0
  6  2  1  0
  9  7  1  0
  9  4  1  0
  3 10  1  0
  3 11  1  0
  4 12  1  0
  5 13  1  0
  6 14  1  0
  6 15  1  0
  7 16  1  0
  9 17  1  0
M  END
