
     RDKit          3D

 14 16  0  0  0  0  0  0  0  0999 V2000
   -1.5534   -1.8610    0.7019 O   0  0  0  0  0  0  0  0  0  0  0  0
   -0.9400   -0.8937    0.3660 C   0  0  0  0  0  0  0  0  0  0  0  0
   -0.3664   -0.4074   -0.9229 C   0  0  0  0  0  0  0  0  0  0  0  0
   -0.7399    0.9882   -0.4254 C   0  0  0  0  0  0  0  0  0  0  0  0
   -0.3805    0.3632    0.9330 C   0  0  0  0  0  0  0  0  0  0  0  0
    1.0869    0.1560    0.7835 C   0  0  0  0  0  0  0  0  0  0  0  0
    1.7415    0.7372   -0.3586 O   0  0  0  0  0  0  0  0  0  0  0  0
    1.1012   -0.4446   -0.6365 C   0  0  0  0  0  0  0  0  0  0  0  0
   -0.7660   -0.7465   -1.8381 H   0  0  0  0  0  0  0  0  0  0  0  0
    0.0164    1.7306   -0.6883 H   0  0  0  0  0  0  0  0  0  0  0  0
   -1.7870    1.2575   -0.5130 H   0  0  0  0  0  0  0  0  0  0  0  0
   -0.8050    0.7882    1.7998 H   0  0  0  0  0  0  0  0  0  0  0  0
    1.7152   -0.2757    1.5473 H   0  0  0  0  0  0  0  0  0  0  0  0
    1.6770   -1.3918   -0.7488 H   0  0  0  0  0  0  0  0  0  0  0  0
  1  2  2  0
  2  3  1  0
  3  4  1  0
  4  5  1  0
  5  6  1  0
  6  7  1  0
  7  8  1  0
  5  2  1  0
  8  6  1  0
  8  3  1  0
  3  9  1  0
  4 10  1  0
  4 11  1  0
  5 12  1  0
  6 13  1  0
  8 14  1  0
M  END
