
     RDKit          3D

 13 14  0  0  0  0  0  0  0  0999 V2000
    2.9387   -0.6861   -0.5963 O   0  0  0  0  0  0  0  0  0  0  0  0
    1.7265   -0.4316   -0.3105 C   0  0  0  0  0  0  0  0  0  0  0  0
    0.6728   -1.3525   -0.1789 O   0  0  0  0  0  0  0  0  0  0  0  0
   -0.5392   -0.6860   -0.3809 C   0  0  0  0  0  0  0  0  0  0  0  0
   -1.3655   -0.3840    0.8244 C   0  0  0  0  0  0  0  0  0  0  0  0
   -1.0712    0.9727    0.7648 O   0  0  0  0  0  0  0  0  0  0  0  0
   -0.2673    0.7951   -0.3429 C   0  0  0  0  0  0  0  0  0  0  0  0
    1.2028    0.9074   -0.0614 C   0  0  0  0  0  0  0  0  0  0  0  0
    1.8544    1.9178    0.3068 O   0  0  0  0  0  0  0  0  0  0  0  0
   -1.1362   -1.0338   -1.2501 H   0  0  0  0  0  0  0  0  0  0  0  0
   -1.0393   -0.8196    1.7727 H   0  0  0  0  0  0  0  0  0  0  0  0
   -2.4669   -0.5680    0.6917 H   0  0  0  0  0  0  0  0  0  0  0  0
   -0.5095    1.3685   -1.2395 H   0  0  0  0  0  0  0  0  0  0  0  0
  1  2  2  0
  2  3  1  0
  3  4  1  0
  4  5  1  0
  5  6  1  0
  6  7  1  0
  7  8  1  0
  8  9  2  0
  8  2  1  0
  7  4  1  0
  4 10  1  0
  5 11  1  0
  5 12  1  0
  7 13  1  0
M  END
