
     RDKit          3D

 17 19  0  0  0  0  0  0  0  0999 V2000
    2.0167    1.3011   -1.7210 O   0  0  0  0  0  0  0  0  0  0  0  0
    1.3400    0.6523   -0.9884 C   0  0  0  0  0  0  0  0  0  0  0  0
    1.6785   -0.5830   -0.2360 C   0  0  0  0  0  0  0  0  0  0  0  0
    0.3423   -0.7976    0.4385 C   0  0  0  0  0  0  0  0  0  0  0  0
   -0.6695   -0.5304   -0.6491 C   0  0  0  0  0  0  0  0  0  0  0  0
   -1.9249   -0.3297    0.1073 C   0  0  0  0  0  0  0  0  0  0  0  0
   -1.5332    0.4042    1.1443 C   0  0  0  0  0  0  0  0  0  0  0  0
   -0.0867    0.6045    0.8864 C   0  0  0  0  0  0  0  0  0  0  0  0
   -0.0660    0.8746   -0.5928 C   0  0  0  0  0  0  0  0  0  0  0  0
    2.4352   -0.4011    0.5568 H   0  0  0  0  0  0  0  0  0  0  0  0
    1.9785   -1.4105   -0.8706 H   0  0  0  0  0  0  0  0  0  0  0  0
    0.2041   -1.6036    1.1118 H   0  0  0  0  0  0  0  0  0  0  0  0
   -0.6462   -1.0605   -1.5520 H   0  0  0  0  0  0  0  0  0  0  0  0
   -2.8858   -0.7172   -0.1786 H   0  0  0  0  0  0  0  0  0  0  0  0
   -2.0838    0.7874    1.9907 H   0  0  0  0  0  0  0  0  0  0  0  0
    0.5242    1.1355    1.5524 H   0  0  0  0  0  0  0  0  0  0  0  0
   -0.6234    1.6739   -0.9996 H   0  0  0  0  0  0  0  0  0  0  0  0
  1  2  2  0
  2  3  1  0
  3  4  1  0
  4  5  1  0
  5  6  1  0
  6  7  2  0
  7  8  1  0
  8  9  1  0
  9  2  1  0
  8  4  1  0
  9  5  1  0
  3 10  1  0
  3 11  1  0
  4 12  1  0
  5 13  1  0
  6 14  1  0
  7 15  1  0
  8 16  1  0
  9 17  1  0
M  END
