
     RDKit          3D

 17 18  0  0  0  0  0  0  0  0999 V2000
    0.3352    2.5072   -0.1553 O   0  0  0  0  0  0  0  0  0  0  0  0
   -0.0905    1.3658   -0.1086 C   0  0  0  0  0  0  0  0  0  0  0  0
   -1.3647    1.1091    0.6079 C   0  0  0  0  0  0  0  0  0  0  0  0
   -1.9247   -0.0411    0.0386 O   0  0  0  0  0  0  0  0  0  0  0  0
   -1.0724   -1.0985    0.3132 C   0  0  0  0  0  0  0  0  0  0  0  0
    0.1231   -1.0630   -0.6064 C   0  0  0  0  0  0  0  0  0  0  0  0
    1.3243   -1.4698   -0.0176 O   0  0  0  0  0  0  0  0  0  0  0  0
    1.8788   -0.2064   -0.0169 C   0  0  0  0  0  0  0  0  0  0  0  0
    0.6939    0.3154   -0.7701 C   0  0  0  0  0  0  0  0  0  0  0  0
   -2.0800    1.9544    0.5316 H   0  0  0  0  0  0  0  0  0  0  0  0
   -1.0953    0.9252    1.6873 H   0  0  0  0  0  0  0  0  0  0  0  0
   -0.8053   -1.1578    1.3738 H   0  0  0  0  0  0  0  0  0  0  0  0
   -1.6495   -2.0372    0.0783 H   0  0  0  0  0  0  0  0  0  0  0  0
   -0.0652   -1.6294   -1.5394 H   0  0  0  0  0  0  0  0  0  0  0  0
    2.8364   -0.1590   -0.5948 H   0  0  0  0  0  0  0  0  0  0  0  0
    2.0117    0.1817    1.0095 H   0  0  0  0  0  0  0  0  0  0  0  0
    0.9442    0.5035   -1.8309 H   0  0  0  0  0  0  0  0  0  0  0  0
  1  2  2  0
  2  3  1  0
  3  4  1  0
  4  5  1  0
  5  6  1  0
  6  7  1  0
  7  8  1  0
  8  9  1  0
  9  2  1  0
  9  6  1  0
  3 10  1  0
  3 11  1  0
  5 12  1  0
  5 13  1  0
  6 14  1  0
  8 15  1  0
  8 16  1  0
  9 17  1  0
M  END
