
     RDKit          3D

 13 13  0  0  0  0  0  0  0  0999 V2000
    1.9037    1.5548   -0.8766 O   0  0  0  0  0  0  0  0  0  0  0  0
    0.9510    0.8560   -0.5240 C   0  0  0  0  0  0  0  0  0  0  0  0
    1.1346   -0.5376   -0.1087 C   0  0  0  0  0  0  0  0  0  0  0  0
   -0.0095   -0.8035    0.8787 C   0  0  0  0  0  0  0  0  0  0  0  0
   -1.1846   -0.7256    0.1567 O   0  0  0  0  0  0  0  0  0  0  0  0
   -1.4694    0.5074   -0.3472 C   0  0  0  0  0  0  0  0  0  0  0  0
   -0.3257    1.3432   -0.5018 O   0  0  0  0  0  0  0  0  0  0  0  0
    0.9804   -1.1903   -1.0121 H   0  0  0  0  0  0  0  0  0  0  0  0
    2.1154   -0.7108    0.3632 H   0  0  0  0  0  0  0  0  0  0  0  0
   -0.0324   -0.0145    1.6430 H   0  0  0  0  0  0  0  0  0  0  0  0
    0.0974   -1.7973    1.3170 H   0  0  0  0  0  0  0  0  0  0  0  0
   -2.1593    1.0376    0.3462 H   0  0  0  0  0  0  0  0  0  0  0  0
   -2.0016    0.4808   -1.3344 H   0  0  0  0  0  0  0  0  0  0  0  0
  1  2  2  0
  2  3  1  0
  3  4  1  0
  4  5  1  0
  5  6  1  0
  6  7  1  0
  7  2  1  0
  3  8  1  0
  3  9  1  0
  4 10  1  0
  4 11  1  0
  6 12  1  0
  6 13  1  0
M  END
