
     RDKit          3D

 16 17  0  0  0  0  0  0  0  0999 V2000
   -0.8624    2.4936   -0.2773 O   0  0  0  0  0  0  0  0  0  0  0  0
   -0.7090    1.3299   -0.0611 C   0  0  0  0  0  0  0  0  0  0  0  0
   -1.6428    0.2531   -0.5585 C   0  0  0  0  0  0  0  0  0  0  0  0
   -0.8184   -0.6046   -1.3031 O   0  0  0  0  0  0  0  0  0  0  0  0
   -0.0591   -1.3528   -0.4501 C   0  0  0  0  0  0  0  0  0  0  0  0
    0.6901   -0.6143    0.5842 C   0  0  0  0  0  0  0  0  0  0  0  0
    1.6945    0.3894    0.1140 C   0  0  0  0  0  0  0  0  0  0  0  0
    0.4342    0.8153    0.7317 C   0  0  0  0  0  0  0  0  0  0  0  0
   -1.9753   -0.2847    0.3513 H   0  0  0  0  0  0  0  0  0  0  0  0
   -2.4789    0.6515   -1.1223 H   0  0  0  0  0  0  0  0  0  0  0  0
    0.6672   -1.9651   -1.0516 H   0  0  0  0  0  0  0  0  0  0  0  0
   -0.7255   -2.1215    0.0352 H   0  0  0  0  0  0  0  0  0  0  0  0
    0.8790   -1.1943    1.5282 H   0  0  0  0  0  0  0  0  0  0  0  0
    1.8136    0.5180   -0.9899 H   0  0  0  0  0  0  0  0  0  0  0  0
    2.6239    0.4395    0.7043 H   0  0  0  0  0  0  0  0  0  0  0  0
    0.4690    1.2470    1.7652 H   0  0  0  0  0  0  0  0  0  0  0  0
  1  2  2  0
  2  3  1  0
  3  4  1  0
  4  5  1  0
  5  6  1  0
  6  7  1  0
  7  8  1  0
  8  2  1  0
  8  6  1  0
  3  9  1  0
  3 10  1  0
  5 11  1  0
  5 12  1  0
  6 13  1  0
  7 14  1  0
  7 15  1  0
  8 16  1  0
M  END
