
     RDKit          3D

 19 20  0  0  0  0  0  0  0  0999 V2000
   -2.9886   -1.1022   -0.4293 O   0  0  0  0  0  0  0  0  0  0  0  0
   -1.9216   -0.5132   -0.3857 C   0  0  0  0  0  0  0  0  0  0  0  0
   -1.6716    0.9320   -0.0775 C   0  0  0  0  0  0  0  0  0  0  0  0
   -0.2249    1.0002    0.3393 C   0  0  0  0  0  0  0  0  0  0  0  0
    0.2017    0.0976    1.4773 C   0  0  0  0  0  0  0  0  0  0  0  0
    0.4114   -0.3017    0.0855 C   0  0  0  0  0  0  0  0  0  0  0  0
    1.7995   -0.4097   -0.4930 C   0  0  0  0  0  0  0  0  0  0  0  0
    2.7062    0.2091    0.3337 O   0  0  0  0  0  0  0  0  0  0  0  0
   -0.6171   -1.1296   -0.6369 C   0  0  0  0  0  0  0  0  0  0  0  0
   -2.3516    1.2579    0.7378 H   0  0  0  0  0  0  0  0  0  0  0  0
   -1.7803    1.5635   -0.9881 H   0  0  0  0  0  0  0  0  0  0  0  0
    0.2890    1.9649    0.1978 H   0  0  0  0  0  0  0  0  0  0  0  0
    1.0215    0.4902    2.0734 H   0  0  0  0  0  0  0  0  0  0  0  0
   -0.5923   -0.4323    2.0352 H   0  0  0  0  0  0  0  0  0  0  0  0
    2.0068   -1.5153   -0.5916 H   0  0  0  0  0  0  0  0  0  0  0  0
    1.7797   -0.0239   -1.5228 H   0  0  0  0  0  0  0  0  0  0  0  0
    2.8694    1.1436   -0.0085 H   0  0  0  0  0  0  0  0  0  0  0  0
   -0.5462   -2.1944   -0.4069 H   0  0  0  0  0  0  0  0  0  0  0  0
   -0.3910   -1.0367   -1.7397 H   0  0  0  0  0  0  0  0  0  0  0  0
  1  2  2  0
  2  3  1  0
  3  4  1  0
  4  5  1  0
  5  6  1  0
  6  7  1  0
  7  8  1  0
  6  9  1  0
  9  2  1  0
  6  4  1  0
  3 10  1  0
  3 11  1  0
  4 12  1  0
  5 13  1  0
  5 14  1  0
  7 15  1  0
  7 16  1  0
  8 17  1  0
  9 18  1  0
  9 19  1  0
M  END
