
     RDKit          3D

 17 17  0  0  0  0  0  0  0  0999 V2000
    1.8292    2.4708   -0.1045 O   0  0  0  0  0  0  0  0  0  0  0  0
    1.0905    1.4636    0.0318 C   0  0  0  0  0  0  0  0  0  0  0  0
    1.8413    0.2113    0.1477 C   0  0  0  0  0  0  0  0  0  0  0  0
    1.4723   -1.0594    0.1545 C   0  0  0  0  0  0  0  0  0  0  0  0
    0.1424   -1.7439    0.0471 C   0  0  0  0  0  0  0  0  0  0  0  0
   -0.6519   -1.0518   -0.8886 O   0  0  0  0  0  0  0  0  0  0  0  0
   -1.6980   -0.3808   -0.3009 C   0  0  0  0  0  0  0  0  0  0  0  0
   -1.4142    1.0715   -0.0967 C   0  0  0  0  0  0  0  0  0  0  0  0
   -0.3286    1.8217    0.0372 C   0  0  0  0  0  0  0  0  0  0  0  0
    2.9127    0.3373    0.2486 H   0  0  0  0  0  0  0  0  0  0  0  0
    2.2747   -1.7741    0.2574 H   0  0  0  0  0  0  0  0  0  0  0  0
   -0.3790   -1.7657    1.0282 H   0  0  0  0  0  0  0  0  0  0  0  0
    0.3148   -2.7842   -0.2951 H   0  0  0  0  0  0  0  0  0  0  0  0
   -2.5549   -0.4200   -1.0353 H   0  0  0  0  0  0  0  0  0  0  0  0
   -1.9663   -0.8834    0.6477 H   0  0  0  0  0  0  0  0  0  0  0  0
   -2.3452    1.6153   -0.0514 H   0  0  0  0  0  0  0  0  0  0  0  0
   -0.5399    2.8718    0.1724 H   0  0  0  0  0  0  0  0  0  0  0  0
  1  2  2  0
  2  3  1  0
  3  4  2  3
  4  5  1  0
  5  6  1  0
  6  7  1  0
  7  8  1  0
  8  9  2  3
  9  2  1  0
  3 10  1  0
  4 11  1  0
  5 12  1  0
  5 13  1  0
  7 14  1  0
  7 15  1  0
  8 16  1  0
  9 17  1  0
M  END
