
     RDKit          3D

 17 18  0  0  0  0  0  0  0  0999 V2000
    0.4488    2.4751   -0.4905 O   0  0  0  0  0  0  0  0  0  0  0  0
    0.1823    1.3125   -0.3001 C   0  0  0  0  0  0  0  0  0  0  0  0
   -1.1735    0.9534    0.1382 C   0  0  0  0  0  0  0  0  0  0  0  0
   -1.4977   -0.4348   -0.3810 C   0  0  0  0  0  0  0  0  0  0  0  0
   -0.2399   -1.2695   -0.1331 C   0  0  0  0  0  0  0  0  0  0  0  0
    0.3298   -1.0083    1.0899 O   0  0  0  0  0  0  0  0  0  0  0  0
    1.5247   -0.3271    0.8696 C   0  0  0  0  0  0  0  0  0  0  0  0
    1.2236    0.2680   -0.5108 C   0  0  0  0  0  0  0  0  0  0  0  0
    0.6710   -0.8845   -1.1181 O   0  0  0  0  0  0  0  0  0  0  0  0
   -1.9426    1.6910   -0.1898 H   0  0  0  0  0  0  0  0  0  0  0  0
   -1.1894    0.8602    1.2637 H   0  0  0  0  0  0  0  0  0  0  0  0
   -1.6474   -0.3762   -1.4985 H   0  0  0  0  0  0  0  0  0  0  0  0
   -2.3841   -0.8721    0.0832 H   0  0  0  0  0  0  0  0  0  0  0  0
   -0.4654   -2.3581   -0.1774 H   0  0  0  0  0  0  0  0  0  0  0  0
    1.7356    0.4388    1.6166 H   0  0  0  0  0  0  0  0  0  0  0  0
    2.3123   -1.0961    0.7561 H   0  0  0  0  0  0  0  0  0  0  0  0
    2.1119    0.6277   -1.0180 H   0  0  0  0  0  0  0  0  0  0  0  0
  1  2  2  0
  2  3  1  0
  3  4  1  0
  4  5  1  0
  5  6  1  0
  6  7  1  0
  7  8  1  0
  8  9  1  0
  8  2  1  0
  9  5  1  0
  3 10  1  0
  3 11  1  0
  4 12  1  0
  4 13  1  0
  5 14  1  0
  7 15  1  0
  7 16  1  0
  8 17  1  0
M  END
