
     RDKit          3D

 17 19  0  0  0  0  0  0  0  0999 V2000
   -1.9608    2.1608   -0.6094 O   0  0  0  0  0  0  0  0  0  0  0  0
   -1.3504    1.1628   -0.3266 C   0  0  0  0  0  0  0  0  0  0  0  0
   -1.8863   -0.2199   -0.0027 C   0  0  0  0  0  0  0  0  0  0  0  0
   -0.5662   -0.9112    0.2577 C   0  0  0  0  0  0  0  0  0  0  0  0
    0.3471   -0.4100   -0.8033 C   0  0  0  0  0  0  0  0  0  0  0  0
    1.4646   -0.5215    0.2030 C   0  0  0  0  0  0  0  0  0  0  0  0
    2.4279    0.4391   -0.0191 O   0  0  0  0  0  0  0  0  0  0  0  0
    0.3201    0.0588    0.9860 C   0  0  0  0  0  0  0  0  0  0  0  0
    0.1055    0.9477   -0.2005 C   0  0  0  0  0  0  0  0  0  0  0  0
   -2.5440   -0.1755    0.8611 H   0  0  0  0  0  0  0  0  0  0  0  0
   -2.3655   -0.5656   -0.9371 H   0  0  0  0  0  0  0  0  0  0  0  0
   -0.5676   -1.9406    0.5401 H   0  0  0  0  0  0  0  0  0  0  0  0
    0.3844   -0.6438   -1.7737 H   0  0  0  0  0  0  0  0  0  0  0  0
    1.7890   -1.5243    0.4622 H   0  0  0  0  0  0  0  0  0  0  0  0
    3.3187    0.0997   -0.1868 H   0  0  0  0  0  0  0  0  0  0  0  0
    0.2997    0.3012    1.9542 H   0  0  0  0  0  0  0  0  0  0  0  0
    0.7838    1.7424   -0.4051 H   0  0  0  0  0  0  0  0  0  0  0  0
  1  2  2  0
  2  3  1  0
  3  4  1  0
  4  5  1  0
  5  6  1  0
  6  7  1  0
  6  8  1  0
  8  9  1  0
  9  2  1  0
  8  4  1  0
  9  5  1  0
  3 10  1  0
  3 11  1  0
  4 12  1  0
  5 13  1  0
  6 14  1  0
  7 15  1  0
  8 16  1  0
  9 17  1  0
M  END
