
     RDKit          3D

 17 18  0  0  0  0  0  0  0  0999 V2000
    2.2596   -1.8629   -0.0274 O   0  0  0  0  0  0  0  0  0  0  0  0
    1.3503   -1.0324    0.2621 C   0  0  0  0  0  0  0  0  0  0  0  0
    1.6087    0.3818   -0.1318 C   0  0  0  0  0  0  0  0  0  0  0  0
    0.2399    0.9694   -0.4967 C   0  0  0  0  0  0  0  0  0  0  0  0
   -0.5946    0.8316    0.7788 C   0  0  0  0  0  0  0  0  0  0  0  0
   -0.9873   -0.6469    0.6332 C   0  0  0  0  0  0  0  0  0  0  0  0
   -1.2944   -0.6224   -0.8672 C   0  0  0  0  0  0  0  0  0  0  0  0
   -0.3141    0.1458   -1.4357 O   0  0  0  0  0  0  0  0  0  0  0  0
    0.1810   -1.3848    0.9027 O   0  0  0  0  0  0  0  0  0  0  0  0
    2.3279    0.4861   -0.9420 H   0  0  0  0  0  0  0  0  0  0  0  0
    1.9956    0.8842    0.8008 H   0  0  0  0  0  0  0  0  0  0  0  0
    0.3122    2.0204   -0.8044 H   0  0  0  0  0  0  0  0  0  0  0  0
   -0.0222    1.0239    1.6769 H   0  0  0  0  0  0  0  0  0  0  0  0
   -1.5070    1.4034    0.6378 H   0  0  0  0  0  0  0  0  0  0  0  0
   -1.8479   -0.9116    1.2377 H   0  0  0  0  0  0  0  0  0  0  0  0
   -1.4302   -1.6151   -1.2846 H   0  0  0  0  0  0  0  0  0  0  0  0
   -2.2776   -0.0705   -0.9403 H   0  0  0  0  0  0  0  0  0  0  0  0
  1  2  2  0
  2  3  1  0
  3  4  1  0
  4  5  1  0
  5  6  1  0
  6  7  1  0
  7  8  1  0
  6  9  1  0
  9  2  1  0
  8  4  1  0
  3 10  1  0
  3 11  1  0
  4 12  1  0
  5 13  1  0
  5 14  1  0
  6 15  1  0
  7 16  1  0
  7 17  1  0
M  END
