
     RDKit          3D

 16 17  0  0  0  0  0  0  0  0999 V2000
    2.6346   -0.6856   -1.1744 O   0  0  0  0  0  0  0  0  0  0  0  0
    1.5954   -0.5555   -0.5665 C   0  0  0  0  0  0  0  0  0  0  0  0
    0.3643   -1.3607   -0.3654 C   0  0  0  0  0  0  0  0  0  0  0  0
   -0.3255   -0.1331    0.0785 C   0  0  0  0  0  0  0  0  0  0  0  0
   -1.4872   -0.0247    0.9042 C   0  0  0  0  0  0  0  0  0  0  0  0
   -1.4591    0.5028   -0.5534 C   0  0  0  0  0  0  0  0  0  0  0  0
    1.0032    0.4898    0.3055 C   0  0  0  0  0  0  0  0  0  0  0  0
    1.1199    1.7877   -0.1345 O   0  0  0  0  0  0  0  0  0  0  0  0
    0.4621   -2.0938    0.4811 H   0  0  0  0  0  0  0  0  0  0  0  0
   -0.0250   -1.8849   -1.2462 H   0  0  0  0  0  0  0  0  0  0  0  0
   -2.1618   -0.8920    1.0347 H   0  0  0  0  0  0  0  0  0  0  0  0
   -1.5583    0.7351    1.7070 H   0  0  0  0  0  0  0  0  0  0  0  0
   -2.1355    0.0287   -1.2752 H   0  0  0  0  0  0  0  0  0  0  0  0
   -1.4654    1.6187   -0.6156 H   0  0  0  0  0  0  0  0  0  0  0  0
    1.3917    0.3815    1.3487 H   0  0  0  0  0  0  0  0  0  0  0  0
    2.0467    2.0860    0.0716 H   0  0  0  0  0  0  0  0  0  0  0  0
  1  2  2  0
  2  3  1  0
  3  4  1  0
  4  5  1  0
  5  6  1  0
  4  7  1  0
  7  8  1  0
  7  2  1  0
  6  4  1  0
  3  9  1  0
  3 10  1  0
  5 11  1  0
  5 12  1  0
  6 13  1  0
  6 14  1  0
  7 15  1  0
  8 16  1  0
M  END
