
     RDKit          3D

 17 18  0  0  0  0  0  0  0  0999 V2000
   -2.8235    1.6247    0.3415 O   0  0  0  0  0  0  0  0  0  0  0  0
   -1.6874    1.1604    0.0573 C   0  0  0  0  0  0  0  0  0  0  0  0
   -1.3992   -0.2045   -0.5118 C   0  0  0  0  0  0  0  0  0  0  0  0
   -0.1523   -0.5741    0.2493 C   0  0  0  0  0  0  0  0  0  0  0  0
   -0.4651   -1.3122    1.3711 O   0  0  0  0  0  0  0  0  0  0  0  0
    1.0253   -0.9963   -0.5458 C   0  0  0  0  0  0  0  0  0  0  0  0
    1.5424    0.4425   -0.5157 C   0  0  0  0  0  0  0  0  0  0  0  0
    0.5315    0.7608    0.5363 C   0  0  0  0  0  0  0  0  0  0  0  0
   -0.4339    1.7459    0.1811 O   0  0  0  0  0  0  0  0  0  0  0  0
   -2.2246   -0.9050   -0.2786 H   0  0  0  0  0  0  0  0  0  0  0  0
   -1.2362   -0.1320   -1.6014 H   0  0  0  0  0  0  0  0  0  0  0  0
   -0.1291   -0.8850    2.1998 H   0  0  0  0  0  0  0  0  0  0  0  0
    1.6942   -1.6537    0.0832 H   0  0  0  0  0  0  0  0  0  0  0  0
    0.8632   -1.3723   -1.5564 H   0  0  0  0  0  0  0  0  0  0  0  0
    2.5715    0.5143   -0.0924 H   0  0  0  0  0  0  0  0  0  0  0  0
    1.4334    0.9510   -1.4890 H   0  0  0  0  0  0  0  0  0  0  0  0
    0.8899    0.8356    1.5716 H   0  0  0  0  0  0  0  0  0  0  0  0
  1  2  2  0
  2  3  1  0
  3  4  1  0
  4  5  1  0
  4  6  1  0
  6  7  1  0
  7  8  1  0
  8  9  1  0
  9  2  1  0
  8  4  1  0
  3 10  1  0
  3 11  1  0
  5 12  1  0
  6 13  1  0
  6 14  1  0
  7 15  1  0
  7 16  1  0
  8 17  1  0
M  END
