
     RDKit          3D

 19 20  0  0  0  0  0  0  0  0999 V2000
    1.3696    2.4434    0.1290 O   0  0  0  0  0  0  0  0  0  0  0  0
    0.8262    1.3839   -0.1183 C   0  0  0  0  0  0  0  0  0  0  0  0
   -0.6228    1.3285   -0.3288 C   0  0  0  0  0  0  0  0  0  0  0  0
   -1.1873   -0.0599   -0.2493 C   0  0  0  0  0  0  0  0  0  0  0  0
   -1.0967   -0.4769    1.2257 C   0  0  0  0  0  0  0  0  0  0  0  0
    0.2413   -0.6565    1.4309 O   0  0  0  0  0  0  0  0  0  0  0  0
    0.8570   -1.0009    0.2580 C   0  0  0  0  0  0  0  0  0  0  0  0
    1.7262    0.1838   -0.1876 C   0  0  0  0  0  0  0  0  0  0  0  0
   -0.2285   -1.0972   -0.8141 C   0  0  0  0  0  0  0  0  0  0  0  0
   -1.1046    1.9058    0.5121 H   0  0  0  0  0  0  0  0  0  0  0  0
   -0.8737    1.8706   -1.2448 H   0  0  0  0  0  0  0  0  0  0  0  0
   -2.1920   -0.1295   -0.6452 H   0  0  0  0  0  0  0  0  0  0  0  0
   -1.5737    0.3090    1.8057 H   0  0  0  0  0  0  0  0  0  0  0  0
   -1.6066   -1.4648    1.2749 H   0  0  0  0  0  0  0  0  0  0  0  0
    1.4486   -1.9154    0.2964 H   0  0  0  0  0  0  0  0  0  0  0  0
    1.9530    0.0181   -1.2510 H   0  0  0  0  0  0  0  0  0  0  0  0
    2.6247    0.2899    0.4139 H   0  0  0  0  0  0  0  0  0  0  0  0
   -0.6969   -2.0752   -0.7011 H   0  0  0  0  0  0  0  0  0  0  0  0
    0.1361   -0.8567   -1.8064 H   0  0  0  0  0  0  0  0  0  0  0  0
  1  2  2  0
  2  3  1  0
  3  4  1  0
  4  5  1  0
  5  6  1  0
  6  7  1  0
  7  8  1  0
  7  9  1  0
  8  2  1  0
  9  4  1  0
  3 10  1  0
  3 11  1  0
  4 12  1  0
  5 13  1  0
  5 14  1  0
  7 15  1  0
  8 16  1  0
  8 17  1  0
  9 18  1  0
  9 19  1  0
M  END
