
     RDKit          3D

 14 15  0  0  0  0  0  0  0  0999 V2000
   -2.4260    1.5588   -0.2046 O   0  0  0  0  0  0  0  0  0  0  0  0
   -1.4463    0.7876   -0.3358 C   0  0  0  0  0  0  0  0  0  0  0  0
   -1.3095   -0.4832    0.4142 C   0  0  0  0  0  0  0  0  0  0  0  0
    0.1566   -0.8054    0.4033 C   0  0  0  0  0  0  0  0  0  0  0  0
    0.9618   -0.0546    1.2289 O   0  0  0  0  0  0  0  0  0  0  0  0
    1.6417    0.5661    0.1700 C   0  0  0  0  0  0  0  0  0  0  0  0
    0.6494   -0.0189   -0.7820 C   0  0  0  0  0  0  0  0  0  0  0  0
   -0.3403    0.8955   -1.1302 O   0  0  0  0  0  0  0  0  0  0  0  0
   -1.7543   -0.4151    1.4071 H   0  0  0  0  0  0  0  0  0  0  0  0
   -1.8221   -1.2842   -0.1717 H   0  0  0  0  0  0  0  0  0  0  0  0
    0.3999   -1.8972    0.3810 H   0  0  0  0  0  0  0  0  0  0  0  0
    2.6538    0.1559   -0.0330 H   0  0  0  0  0  0  0  0  0  0  0  0
    1.6109    1.6851    0.2109 H   0  0  0  0  0  0  0  0  0  0  0  0
    1.0243   -0.6902   -1.5581 H   0  0  0  0  0  0  0  0  0  0  0  0
  1  2  2  0
  2  3  1  0
  3  4  1  0
  4  5  1  0
  5  6  1  0
  6  7  1  0
  7  8  1  0
  8  2  1  0
  7  4  1  0
  3  9  1  0
  3 10  1  0
  4 11  1  0
  6 12  1  0
  6 13  1  0
  7 14  1  0
M  END
