
     RDKit          3D

 13 13  0  0  0  0  0  0  0  0999 V2000
    2.3058   -1.1942   -0.5719 O   0  0  0  0  0  0  0  0  0  0  0  0
    1.4617   -0.2950   -0.4379 C   0  0  0  0  0  0  0  0  0  0  0  0
    1.1718    0.7180    0.5925 C   0  0  0  0  0  0  0  0  0  0  0  0
   -0.2106    0.5741    0.0335 C   0  0  0  0  0  0  0  0  0  0  0  0
   -0.9917   -0.6125    0.5729 C   0  0  0  0  0  0  0  0  0  0  0  0
   -1.9544   -0.9757   -0.3707 O   0  0  0  0  0  0  0  0  0  0  0  0
    0.4045    0.1800   -1.1807 O   0  0  0  0  0  0  0  0  0  0  0  0
    1.3221    0.3779    1.6328 H   0  0  0  0  0  0  0  0  0  0  0  0
    1.6128    1.6905    0.3227 H   0  0  0  0  0  0  0  0  0  0  0  0
   -0.7932    1.4855   -0.0914 H   0  0  0  0  0  0  0  0  0  0  0  0
   -0.3226   -1.4487    0.7722 H   0  0  0  0  0  0  0  0  0  0  0  0
   -1.5746   -0.3201    1.4920 H   0  0  0  0  0  0  0  0  0  0  0  0
   -2.4317   -0.1797   -0.6791 H   0  0  0  0  0  0  0  0  0  0  0  0
  1  2  2  0
  2  3  1  0
  3  4  1  0
  4  5  1  0
  5  6  1  0
  4  7  1  0
  7  2  1  0
  3  8  1  0
  3  9  1  0
  4 10  1  0
  5 11  1  0
  5 12  1  0
  6 13  1  0
M  END
