
     RDKit          3D

 14 14  0  0  0  0  0  0  0  0999 V2000
    0.1677    2.0416   -1.3771 O   0  0  0  0  0  0  0  0  0  0  0  0
    0.6001    1.0221   -0.7526 C   0  0  0  0  0  0  0  0  0  0  0  0
    1.8670    0.4741   -0.7554 O   0  0  0  0  0  0  0  0  0  0  0  0
    1.8777   -0.6562    0.0904 C   0  0  0  0  0  0  0  0  0  0  0  0
    0.5150   -0.7938    0.6397 C   0  0  0  0  0  0  0  0  0  0  0  0
   -0.1937    0.1909    0.1318 C   0  0  0  0  0  0  0  0  0  0  0  0
   -1.6506    0.4230    0.4343 C   0  0  0  0  0  0  0  0  0  0  0  0
   -2.3076    0.3410   -0.7978 O   0  0  0  0  0  0  0  0  0  0  0  0
    2.6539   -0.5191    0.8765 H   0  0  0  0  0  0  0  0  0  0  0  0
    2.1309   -1.5665   -0.5094 H   0  0  0  0  0  0  0  0  0  0  0  0
    0.1255   -1.5392    1.3272 H   0  0  0  0  0  0  0  0  0  0  0  0
   -2.0442   -0.3646    1.0710 H   0  0  0  0  0  0  0  0  0  0  0  0
   -1.7576    1.4484    0.8436 H   0  0  0  0  0  0  0  0  0  0  0  0
   -1.9841   -0.5017   -1.2222 H   0  0  0  0  0  0  0  0  0  0  0  0
  1  2  2  0
  2  3  1  0
  3  4  1  0
  4  5  1  0
  5  6  2  0
  6  7  1  0
  7  8  1  0
  6  2  1  0
  4  9  1  0
  4 10  1  0
  5 11  1  0
  7 12  1  0
  7 13  1  0
  8 14  1  0
M  END
