
     RDKit          3D

 15 17  0  0  0  0  0  0  0  0999 V2000
    0.7193    2.1021    1.3957 O   0  0  0  0  0  0  0  0  0  0  0  0
    0.2567    1.1889    0.7320 C   0  0  0  0  0  0  0  0  0  0  0  0
   -1.0835    0.7287    0.3566 C   0  0  0  0  0  0  0  0  0  0  0  0
   -1.4948   -0.6904    0.4913 C   0  0  0  0  0  0  0  0  0  0  0  0
   -0.4403   -0.3895   -0.5067 C   0  0  0  0  0  0  0  0  0  0  0  0
   -0.7380   -0.3406   -1.8573 O   0  0  0  0  0  0  0  0  0  0  0  0
    0.8695    0.0920   -0.0219 C   0  0  0  0  0  0  0  0  0  0  0  0
    1.9647   -0.6110    0.3787 C   0  0  0  0  0  0  0  0  0  0  0  0
    1.9580    0.2653   -0.8263 O   0  0  0  0  0  0  0  0  0  0  0  0
   -1.7552    1.4309   -0.1780 H   0  0  0  0  0  0  0  0  0  0  0  0
   -2.5259   -0.9135    0.1548 H   0  0  0  0  0  0  0  0  0  0  0  0
   -1.2015   -1.2917    1.3775 H   0  0  0  0  0  0  0  0  0  0  0  0
   -1.4520    0.3130   -2.0067 H   0  0  0  0  0  0  0  0  0  0  0  0
    2.7531   -0.2086    1.0537 H   0  0  0  0  0  0  0  0  0  0  0  0
    2.1698   -1.6755    0.1054 H   0  0  0  0  0  0  0  0  0  0  0  0
  1  2  2  0
  2  3  1  0
  3  4  1  0
  4  5  1  0
  5  6  1  0
  5  7  1  0
  7  8  1  0
  8  9  1  0
  7  2  1  0
  5  3  1  0
  9  7  1  0
  3 10  1  0
  4 11  1  0
  4 12  1  0
  6 13  1  0
  8 14  1  0
  8 15  1  0
M  END
