
     RDKit          3D

 10 11  0  0  0  0  0  0  0  0999 V2000
    0.6566    2.1076   -0.1711 O   0  0  0  0  0  0  0  0  0  0  0  0
    0.2543    0.9632   -0.2228 C   0  0  0  0  0  0  0  0  0  0  0  0
    0.8107   -0.4446   -0.0918 C   0  0  0  0  0  0  0  0  0  0  0  0
   -0.4100   -0.5496    0.8024 C   0  0  0  0  0  0  0  0  0  0  0  0
   -1.6797   -0.5379    0.4271 O   0  0  0  0  0  0  0  0  0  0  0  0
   -0.9964    0.1921   -0.4389 C   0  0  0  0  0  0  0  0  0  0  0  0
    0.7627   -1.0201   -1.0271 H   0  0  0  0  0  0  0  0  0  0  0  0
    1.7343   -0.5165    0.4750 H   0  0  0  0  0  0  0  0  0  0  0  0
   -0.2451    0.1625    1.6771 H   0  0  0  0  0  0  0  0  0  0  0  0
   -0.8874   -0.3566   -1.4298 H   0  0  0  0  0  0  0  0  0  0  0  0
  1  2  2  0
  2  3  1  0
  3  4  1  0
  4  5  1  0
  5  6  1  0
  6  2  1  0
  6  4  1  0
  3  7  1  0
  3  8  1  0
  4  9  1  0
  6 10  1  0
M  END
