
     RDKit          3D

 15 16  0  0  0  0  0  0  0  0999 V2000
    1.3383    1.6159    1.7271 O   0  0  0  0  0  0  0  0  0  0  0  0
    1.0075    0.8117    0.8818 C   0  0  0  0  0  0  0  0  0  0  0  0
    1.5249    0.0498   -0.2819 C   0  0  0  0  0  0  0  0  0  0  0  0
    0.1431   -0.2855   -0.7454 C   0  0  0  0  0  0  0  0  0  0  0  0
   -0.0833   -1.5808   -1.1598 O   0  0  0  0  0  0  0  0  0  0  0  0
   -1.0098    0.6024   -0.5679 C   0  0  0  0  0  0  0  0  0  0  0  0
   -2.2518    0.0784   -0.8770 O   0  0  0  0  0  0  0  0  0  0  0  0
   -0.2995    0.1494    0.6372 C   0  0  0  0  0  0  0  0  0  0  0  0
   -0.8032   -0.7647    1.5236 O   0  0  0  0  0  0  0  0  0  0  0  0
    2.1530    0.6126   -0.9852 H   0  0  0  0  0  0  0  0  0  0  0  0
    2.0771   -0.8537    0.0943 H   0  0  0  0  0  0  0  0  0  0  0  0
    0.3406   -2.1801   -0.4970 H   0  0  0  0  0  0  0  0  0  0  0  0
   -0.9467    1.7063   -0.7786 H   0  0  0  0  0  0  0  0  0  0  0  0
   -2.8356    0.6745   -1.3797 H   0  0  0  0  0  0  0  0  0  0  0  0
   -0.3546   -0.6363    2.4085 H   0  0  0  0  0  0  0  0  0  0  0  0
  1  2  2  0
  2  3  1  0
  3  4  1  0
  4  5  1  0
  4  6  1  0
  6  7  1  0
  6  8  1  0
  8  9  1  0
  8  2  1  0
  8  4  1  0
  3 10  1  0
  3 11  1  0
  5 12  1  0
  6 13  1  0
  7 14  1  0
  9 15  1  0
M  END
