
     RDKit          3D

 21 22  0  0  0  0  0  0  0  0999 V2000
    0.6836   -2.3605   -0.2259 O   0  0  0  0  0  0  0  0  0  0  0  0
    0.9752   -1.1769   -0.2437 C   0  0  0  0  0  0  0  0  0  0  0  0
    2.0468   -0.5433    0.5853 C   0  0  0  0  0  0  0  0  0  0  0  0
    2.1321    0.5212   -0.4738 C   0  0  0  0  0  0  0  0  0  0  0  0
    0.6847    0.1299   -0.8251 C   0  0  0  0  0  0  0  0  0  0  0  0
   -0.2217    1.0790   -0.1584 C   0  0  0  0  0  0  0  0  0  0  0  0
   -1.6164    0.6995    0.0980 C   0  0  0  0  0  0  0  0  0  0  0  0
   -1.8393   -0.5231    0.9921 C   0  0  0  0  0  0  0  0  0  0  0  0
   -2.2342   -0.5523   -0.4028 C   0  0  0  0  0  0  0  0  0  0  0  0
    2.9809   -1.0929    0.6545 H   0  0  0  0  0  0  0  0  0  0  0  0
    1.6122   -0.1950    1.5532 H   0  0  0  0  0  0  0  0  0  0  0  0
    2.8608    0.3359   -1.2585 H   0  0  0  0  0  0  0  0  0  0  0  0
    2.2389    1.5270   -0.0232 H   0  0  0  0  0  0  0  0  0  0  0  0
    0.6261    0.1559   -1.9421 H   0  0  0  0  0  0  0  0  0  0  0  0
    0.2395    1.4115    0.8122 H   0  0  0  0  0  0  0  0  0  0  0  0
   -0.2255    2.0226   -0.7792 H   0  0  0  0  0  0  0  0  0  0  0  0
   -2.3189    1.5479    0.2865 H   0  0  0  0  0  0  0  0  0  0  0  0
   -0.9635   -0.9822    1.4515 H   0  0  0  0  0  0  0  0  0  0  0  0
   -2.6755   -0.4332    1.7504 H   0  0  0  0  0  0  0  0  0  0  0  0
   -1.6611   -1.0466   -1.2123 H   0  0  0  0  0  0  0  0  0  0  0  0
   -3.3246   -0.5243   -0.6387 H   0  0  0  0  0  0  0  0  0  0  0  0
  1  2  2  0
  2  3  1  0
  3  4  1  0
  4  5  1  0
  5  6  1  0
  6  7  1  0
  7  8  1  0
  8  9  1  0
  5  2  1  0
  9  7  1  0
  3 10  1  0
  3 11  1  0
  4 12  1  0
  4 13  1  0
  5 14  1  0
  6 15  1  0
  6 16  1  0
  7 17  1  0
  8 18  1  0
  8 19  1  0
  9 20  1  0
  9 21  1  0
M  END
