
     RDKit          3D

 19 20  0  0  0  0  0  0  0  0999 V2000
    1.3853    1.3686    1.7596 O   0  0  0  0  0  0  0  0  0  0  0  0
    0.8470    0.8551    0.8066 C   0  0  0  0  0  0  0  0  0  0  0  0
   -0.5136    1.1591    0.2973 C   0  0  0  0  0  0  0  0  0  0  0  0
   -1.4323    0.0201    0.6536 C   0  0  0  0  0  0  0  0  0  0  0  0
   -0.8054   -1.1557   -0.1113 C   0  0  0  0  0  0  0  0  0  0  0  0
    0.2471   -0.5623   -0.9660 C   0  0  0  0  0  0  0  0  0  0  0  0
   -0.2917    0.8596   -1.1929 C   0  0  0  0  0  0  0  0  0  0  0  0
    1.4351   -0.1969   -0.0647 C   0  0  0  0  0  0  0  0  0  0  0  0
    1.8082   -1.3261    0.6408 O   0  0  0  0  0  0  0  0  0  0  0  0
   -0.8813    2.1455    0.4924 H   0  0  0  0  0  0  0  0  0  0  0  0
   -2.4314    0.1950    0.1858 H   0  0  0  0  0  0  0  0  0  0  0  0
   -1.4606   -0.1497    1.7237 H   0  0  0  0  0  0  0  0  0  0  0  0
   -0.3254   -1.8147    0.6703 H   0  0  0  0  0  0  0  0  0  0  0  0
   -1.5565   -1.7619   -0.6220 H   0  0  0  0  0  0  0  0  0  0  0  0
    0.5209   -1.0700   -1.8638 H   0  0  0  0  0  0  0  0  0  0  0  0
   -1.2059    0.8746   -1.7661 H   0  0  0  0  0  0  0  0  0  0  0  0
    0.5108    1.5227   -1.5341 H   0  0  0  0  0  0  0  0  0  0  0  0
    2.2135    0.2126   -0.7155 H   0  0  0  0  0  0  0  0  0  0  0  0
    1.9364   -1.1756    1.6063 H   0  0  0  0  0  0  0  0  0  0  0  0
  1  2  2  0
  2  3  1  0
  3  4  1  0
  4  5  1  0
  5  6  1  0
  6  7  1  0
  6  8  1  0
  8  9  1  0
  8  2  1  0
  7  3  1  0
  3 10  1  0
  4 11  1  0
  4 12  1  0
  5 13  1  0
  5 14  1  0
  6 15  1  0
  7 16  1  0
  7 17  1  0
  8 18  1  0
  9 19  1  0
M  END
