
     RDKit          3D

 19 20  0  0  0  0  0  0  0  0999 V2000
   -2.3705   -0.8939   -1.6195 O   0  0  0  0  0  0  0  0  0  0  0  0
   -2.0550   -0.3981   -0.5748 C   0  0  0  0  0  0  0  0  0  0  0  0
   -2.7663   -0.0729    0.6892 C   0  0  0  0  0  0  0  0  0  0  0  0
   -1.4322   -0.2357    1.4007 C   0  0  0  0  0  0  0  0  0  0  0  0
   -0.8259    0.1583    0.0457 C   0  0  0  0  0  0  0  0  0  0  0  0
    0.3326   -0.5276   -0.1895 O   0  0  0  0  0  0  0  0  0  0  0  0
    1.3423    0.3496   -0.5538 C   0  0  0  0  0  0  0  0  0  0  0  0
    2.4279   -0.0930   -1.4647 C   0  0  0  0  0  0  0  0  0  0  0  0
    2.7112    0.0268   -0.0279 C   0  0  0  0  0  0  0  0  0  0  0  0
   -3.1146    0.9807    0.6606 H   0  0  0  0  0  0  0  0  0  0  0  0
   -3.4978   -0.8001    1.0411 H   0  0  0  0  0  0  0  0  0  0  0  0
   -1.2087    0.4860    2.1797 H   0  0  0  0  0  0  0  0  0  0  0  0
   -1.2142   -1.2866    1.6274 H   0  0  0  0  0  0  0  0  0  0  0  0
   -0.7955    1.2589   -0.0813 H   0  0  0  0  0  0  0  0  0  0  0  0
    1.0274    1.4137   -0.5847 H   0  0  0  0  0  0  0  0  0  0  0  0
    2.4210   -1.0879   -1.9373 H   0  0  0  0  0  0  0  0  0  0  0  0
    2.8318    0.6952   -2.1423 H   0  0  0  0  0  0  0  0  0  0  0  0
    3.3822    0.8711    0.2793 H   0  0  0  0  0  0  0  0  0  0  0  0
    2.8044   -0.8445    0.6251 H   0  0  0  0  0  0  0  0  0  0  0  0
  1  2  2  0
  2  3  1  0
  3  4  1  0
  4  5  1  0
  5  6  1  0
  6  7  1  0
  7  8  1  0
  8  9  1  0
  5  2  1  0
  9  7  1  0
  3 10  1  0
  3 11  1  0
  4 12  1  0
  4 13  1  0
  5 14  1  0
  7 15  1  0
  8 16  1  0
  8 17  1  0
  9 18  1  0
  9 19  1  0
M  END
