
     RDKit          3D

 17 19  0  0  0  0  0  0  0  0999 V2000
    2.7390   -0.9173   -0.8794 O   0  0  0  0  0  0  0  0  0  0  0  0
    1.5553   -0.5873   -0.6414 C   0  0  0  0  0  0  0  0  0  0  0  0
    0.5239   -1.5316   -0.8169 O   0  0  0  0  0  0  0  0  0  0  0  0
   -0.7079   -1.1277   -0.1968 C   0  0  0  0  0  0  0  0  0  0  0  0
   -1.1843    0.1426   -0.8397 C   0  0  0  0  0  0  0  0  0  0  0  0
   -0.1988    1.1696   -0.4457 C   0  0  0  0  0  0  0  0  0  0  0  0
    0.2091    0.7845    0.9315 C   0  0  0  0  0  0  0  0  0  0  0  0
   -0.2986   -0.6182    1.1894 C   0  0  0  0  0  0  0  0  0  0  0  0
    1.1716    0.7463   -0.1830 C   0  0  0  0  0  0  0  0  0  0  0  0
   -1.4395   -1.9269   -0.1539 H   0  0  0  0  0  0  0  0  0  0  0  0
   -2.1616    0.3906   -0.3251 H   0  0  0  0  0  0  0  0  0  0  0  0
   -1.3604    0.0483   -1.9316 H   0  0  0  0  0  0  0  0  0  0  0  0
   -0.4095    2.2430   -0.6563 H   0  0  0  0  0  0  0  0  0  0  0  0
    0.2487    1.5101    1.7477 H   0  0  0  0  0  0  0  0  0  0  0  0
   -1.1968   -0.6538    1.8113 H   0  0  0  0  0  0  0  0  0  0  0  0
    0.5581   -1.1987    1.5881 H   0  0  0  0  0  0  0  0  0  0  0  0
    1.9518    1.5265   -0.1981 H   0  0  0  0  0  0  0  0  0  0  0  0
  1  2  2  0
  2  3  1  0
  3  4  1  0
  4  5  1  0
  5  6  1  0
  6  7  1  0
  7  8  1  0
  7  9  1  0
  9  2  1  0
  8  4  1  0
  9  6  1  0
  4 10  1  0
  5 11  1  0
  5 12  1  0
  6 13  1  0
  7 14  1  0
  8 15  1  0
  8 16  1  0
  9 17  1  0
M  END
