
     RDKit          3D

 14 16  0  0  0  0  0  0  0  0999 V2000
    0.5623   -1.8902    1.4887 O   0  0  0  0  0  0  0  0  0  0  0  0
    0.1725   -1.1180    0.6608 C   0  0  0  0  0  0  0  0  0  0  0  0
   -1.0366   -0.7433   -0.1442 C   0  0  0  0  0  0  0  0  0  0  0  0
   -1.9029    0.3628    0.0206 C   0  0  0  0  0  0  0  0  0  0  0  0
   -0.5389    0.6888    0.3372 C   0  0  0  0  0  0  0  0  0  0  0  0
    0.7272    0.0381   -0.1286 C   0  0  0  0  0  0  0  0  0  0  0  0
    1.9815    0.4491   -0.3082 C   0  0  0  0  0  0  0  0  0  0  0  0
    1.1081   -0.0775   -1.4121 O   0  0  0  0  0  0  0  0  0  0  0  0
   -0.7578   -0.9660   -1.2253 H   0  0  0  0  0  0  0  0  0  0  0  0
   -2.3332    0.9003   -0.8774 H   0  0  0  0  0  0  0  0  0  0  0  0
   -2.7296    0.2573    0.7882 H   0  0  0  0  0  0  0  0  0  0  0  0
   -0.4136    0.7710    1.4676 H   0  0  0  0  0  0  0  0  0  0  0  0
    2.2719    1.5138   -0.4945 H   0  0  0  0  0  0  0  0  0  0  0  0
    2.8891   -0.1862   -0.1729 H   0  0  0  0  0  0  0  0  0  0  0  0
  1  2  2  0
  2  3  1  0
  3  4  1  0
  4  5  1  0
  5  6  1  0
  6  7  1  0
  7  8  1  0
  6  2  1  0
  5  3  1  0
  8  6  1  0
  3  9  1  0
  4 10  1  0
  4 11  1  0
  5 12  1  0
  7 13  1  0
  7 14  1  0
M  END
