
     RDKit          3D

 17 19  0  0  0  0  0  0  0  0999 V2000
    2.5251    1.5405    0.2319 O   0  0  0  0  0  0  0  0  0  0  0  0
    1.5846    0.8168    0.0329 C   0  0  0  0  0  0  0  0  0  0  0  0
    0.2603    0.9485   -0.6077 C   0  0  0  0  0  0  0  0  0  0  0  0
   -0.8240    1.0521    0.4610 C   0  0  0  0  0  0  0  0  0  0  0  0
   -0.8954   -0.3781    0.9360 C   0  0  0  0  0  0  0  0  0  0  0  0
   -0.9172   -1.0980   -0.4261 C   0  0  0  0  0  0  0  0  0  0  0  0
    0.3775   -0.5373   -0.9284 C   0  0  0  0  0  0  0  0  0  0  0  0
    1.2315   -0.5961    0.3155 C   0  0  0  0  0  0  0  0  0  0  0  0
    0.3520   -0.7611    1.3949 O   0  0  0  0  0  0  0  0  0  0  0  0
    0.1647    1.6141   -1.4533 H   0  0  0  0  0  0  0  0  0  0  0  0
   -0.5018    1.6666    1.3130 H   0  0  0  0  0  0  0  0  0  0  0  0
   -1.7914    1.3543    0.0464 H   0  0  0  0  0  0  0  0  0  0  0  0
   -1.7202   -0.6272    1.5631 H   0  0  0  0  0  0  0  0  0  0  0  0
   -1.7456   -0.6698   -1.0052 H   0  0  0  0  0  0  0  0  0  0  0  0
   -0.9359   -2.1785   -0.3135 H   0  0  0  0  0  0  0  0  0  0  0  0
    0.7788   -0.8281   -1.8618 H   0  0  0  0  0  0  0  0  0  0  0  0
    2.0570   -1.3188    0.3015 H   0  0  0  0  0  0  0  0  0  0  0  0
  1  2  2  0
  2  3  1  0
  3  4  1  0
  4  5  1  0
  5  6  1  0
  6  7  1  0
  7  8  1  0
  8  9  1  0
  8  2  1  0
  7  3  1  0
  9  5  1  0
  3 10  1  0
  4 11  1  0
  4 12  1  0
  5 13  1  0
  6 14  1  0
  6 15  1  0
  7 16  1  0
  8 17  1  0
M  END
