
     RDKit          3D

 17 19  0  0  0  0  0  0  0  0999 V2000
   -0.1844    1.7904   -2.0344 O   0  0  0  0  0  0  0  0  0  0  0  0
   -0.2028    1.0141   -1.1137 C   0  0  0  0  0  0  0  0  0  0  0  0
    0.7113   -0.1387   -0.9432 C   0  0  0  0  0  0  0  0  0  0  0  0
    1.3761    0.0614    0.4035 C   0  0  0  0  0  0  0  0  0  0  0  0
    0.1538    0.0823    1.3194 C   0  0  0  0  0  0  0  0  0  0  0  0
   -0.4480    1.3282    1.2692 O   0  0  0  0  0  0  0  0  0  0  0  0
   -1.0972    0.9716    0.0727 C   0  0  0  0  0  0  0  0  0  0  0  0
   -0.9950   -0.4581    0.5327 C   0  0  0  0  0  0  0  0  0  0  0  0
   -0.2990   -1.2242   -0.5723 C   0  0  0  0  0  0  0  0  0  0  0  0
    1.3526   -0.3745   -1.7560 H   0  0  0  0  0  0  0  0  0  0  0  0
    2.0916   -0.7131    0.6639 H   0  0  0  0  0  0  0  0  0  0  0  0
    1.8171    1.0945    0.3725 H   0  0  0  0  0  0  0  0  0  0  0  0
    0.3250   -0.3307    2.3197 H   0  0  0  0  0  0  0  0  0  0  0  0
   -2.1008    1.3703   -0.0495 H   0  0  0  0  0  0  0  0  0  0  0  0
   -1.8192   -0.9112    1.0314 H   0  0  0  0  0  0  0  0  0  0  0  0
   -0.9509   -1.4989   -1.3940 H   0  0  0  0  0  0  0  0  0  0  0  0
    0.2697   -2.0634   -0.1218 H   0  0  0  0  0  0  0  0  0  0  0  0
  1  2  2  0
  2  3  1  0
  3  4  1  0
  4  5  1  0
  5  6  1  0
  6  7  1  0
  7  8  1  0
  8  9  1  0
  7  2  1  0
  9  3  1  0
  8  5  1  0
  3 10  1  0
  4 11  1  0
  4 12  1  0
  5 13  1  0
  7 14  1  0
  8 15  1  0
  9 16  1  0
  9 17  1  0
M  END
