
     RDKit          3D

 17 17  0  0  0  0  0  0  0  0999 V2000
   -0.0233    2.0694   -0.6613 O   0  0  0  0  0  0  0  0  0  0  0  0
   -0.3548    1.0352   -0.1199 C   0  0  0  0  0  0  0  0  0  0  0  0
   -1.6820    0.5619    0.3624 C   0  0  0  0  0  0  0  0  0  0  0  0
   -1.6494   -0.9075    0.0321 C   0  0  0  0  0  0  0  0  0  0  0  0
   -0.2268   -1.2549   -0.2162 C   0  0  0  0  0  0  0  0  0  0  0  0
    0.1673   -2.3061   -0.6762 O   0  0  0  0  0  0  0  0  0  0  0  0
    0.5754   -0.0782    0.2060 C   0  0  0  0  0  0  0  0  0  0  0  0
    1.8860    0.0277   -0.5396 C   0  0  0  0  0  0  0  0  0  0  0  0
    2.4744    1.2332   -0.1750 O   0  0  0  0  0  0  0  0  0  0  0  0
   -1.6674    0.6721    1.4723 H   0  0  0  0  0  0  0  0  0  0  0  0
   -2.5192    1.0984   -0.1076 H   0  0  0  0  0  0  0  0  0  0  0  0
   -2.3245   -1.1961   -0.7768 H   0  0  0  0  0  0  0  0  0  0  0  0
   -1.9623   -1.5147    0.9302 H   0  0  0  0  0  0  0  0  0  0  0  0
    0.7249   -0.0786    1.3052 H   0  0  0  0  0  0  0  0  0  0  0  0
    1.6759    0.0143   -1.6152 H   0  0  0  0  0  0  0  0  0  0  0  0
    2.5228   -0.8031   -0.2159 H   0  0  0  0  0  0  0  0  0  0  0  0
    2.3830    1.4270    0.7954 H   0  0  0  0  0  0  0  0  0  0  0  0
  1  2  2  0
  2  3  1  0
  3  4  1  0
  4  5  1  0
  5  6  2  0
  5  7  1  0
  7  8  1  0
  8  9  1  0
  7  2  1  0
  3 10  1  0
  3 11  1  0
  4 12  1  0
  4 13  1  0
  7 14  1  0
  8 15  1  0
  8 16  1  0
  9 17  1  0
M  END
