
     RDKit          3D

 19 21  0  0  0  0  0  0  0  0999 V2000
   -0.7928    0.4773    2.4721 O   0  0  0  0  0  0  0  0  0  0  0  0
   -1.0777    0.2987    1.3052 C   0  0  0  0  0  0  0  0  0  0  0  0
   -2.3703    0.1531    0.5853 C   0  0  0  0  0  0  0  0  0  0  0  0
   -1.5607   -0.2012   -0.6513 C   0  0  0  0  0  0  0  0  0  0  0  0
   -0.7079    0.8682   -1.1721 C   0  0  0  0  0  0  0  0  0  0  0  0
   -0.3145    0.1438    0.0718 C   0  0  0  0  0  0  0  0  0  0  0  0
    0.9023   -0.7241   -0.0057 C   0  0  0  0  0  0  0  0  0  0  0  0
    2.0969   -0.5265    0.8023 C   0  0  0  0  0  0  0  0  0  0  0  0
    2.1200    0.0097   -0.6032 C   0  0  0  0  0  0  0  0  0  0  0  0
   -3.0522   -0.6137    0.9500 H   0  0  0  0  0  0  0  0  0  0  0  0
   -2.8316    1.1687    0.4058 H   0  0  0  0  0  0  0  0  0  0  0  0
   -1.6168   -1.2070   -1.0678 H   0  0  0  0  0  0  0  0  0  0  0  0
   -1.0507    1.9242   -1.1024 H   0  0  0  0  0  0  0  0  0  0  0  0
   -0.1213    0.6600   -2.0729 H   0  0  0  0  0  0  0  0  0  0  0  0
    0.6949   -1.7396   -0.4302 H   0  0  0  0  0  0  0  0  0  0  0  0
    2.1680    0.1692    1.6513 H   0  0  0  0  0  0  0  0  0  0  0  0
    2.7609   -1.4245    0.9321 H   0  0  0  0  0  0  0  0  0  0  0  0
    2.6665   -0.5337   -1.3940 H   0  0  0  0  0  0  0  0  0  0  0  0
    2.0871    1.0974   -0.6763 H   0  0  0  0  0  0  0  0  0  0  0  0
  1  2  2  0
  2  3  1  0
  3  4  1  0
  4  5  1  0
  5  6  1  0
  6  7  1  0
  7  8  1  0
  8  9  1  0
  6  2  1  0
  9  7  1  0
  6  4  1  0
  3 10  1  0
  3 11  1  0
  4 12  1  0
  5 13  1  0
  5 14  1  0
  7 15  1  0
  8 16  1  0
  8 17  1  0
  9 18  1  0
  9 19  1  0
M  END
