
     RDKit          3D

 17 18  0  0  0  0  0  0  0  0999 V2000
   -0.3680   -2.4199   -0.9204 O   0  0  0  0  0  0  0  0  0  0  0  0
   -0.3019   -1.2507   -0.6194 C   0  0  0  0  0  0  0  0  0  0  0  0
   -1.3697   -0.6469    0.2017 C   0  0  0  0  0  0  0  0  0  0  0  0
   -1.2387    0.8727    0.2646 C   0  0  0  0  0  0  0  0  0  0  0  0
    0.1973    1.2242    0.0586 C   0  0  0  0  0  0  0  0  0  0  0  0
    1.1352    0.4512    0.9180 C   0  0  0  0  0  0  0  0  0  0  0  0
    1.7920   -0.3705    0.0921 C   0  0  0  0  0  0  0  0  0  0  0  0
    0.8706   -0.4753   -1.1013 C   0  0  0  0  0  0  0  0  0  0  0  0
    0.5442    0.8828   -1.2547 O   0  0  0  0  0  0  0  0  0  0  0  0
   -2.3909   -0.9453   -0.1052 H   0  0  0  0  0  0  0  0  0  0  0  0
   -1.1983   -0.9931    1.2602 H   0  0  0  0  0  0  0  0  0  0  0  0
   -1.8268    1.3559   -0.5310 H   0  0  0  0  0  0  0  0  0  0  0  0
   -1.6417    1.2342    1.2344 H   0  0  0  0  0  0  0  0  0  0  0  0
    0.4199    2.2955    0.2433 H   0  0  0  0  0  0  0  0  0  0  0  0
    1.2617    0.5334    1.9805 H   0  0  0  0  0  0  0  0  0  0  0  0
    2.7544   -0.8435    0.2496 H   0  0  0  0  0  0  0  0  0  0  0  0
    1.3607   -0.9044   -1.9711 H   0  0  0  0  0  0  0  0  0  0  0  0
  1  2  2  0
  2  3  1  0
  3  4  1  0
  4  5  1  0
  5  6  1  0
  6  7  2  0
  7  8  1  0
  8  9  1  0
  8  2  1  0
  9  5  1  0
  3 10  1  0
  3 11  1  0
  4 12  1  0
  4 13  1  0
  5 14  1  0
  6 15  1  0
  7 16  1  0
  8 17  1  0
M  END
