
     RDKit          3D

 19 20  0  0  0  0  0  0  0  0999 V2000
    1.7244    1.9797   -0.7527 O   0  0  0  0  0  0  0  0  0  0  0  0
    1.5588    0.9414   -0.1556 C   0  0  0  0  0  0  0  0  0  0  0  0
    2.3594   -0.1849    0.4242 C   0  0  0  0  0  0  0  0  0  0  0  0
    1.3227   -0.3294    1.3719 O   0  0  0  0  0  0  0  0  0  0  0  0
    0.4553    0.1040    0.3934 C   0  0  0  0  0  0  0  0  0  0  0  0
   -0.0126   -0.9868   -0.5375 C   0  0  0  0  0  0  0  0  0  0  0  0
   -1.5223   -0.9148   -0.4548 C   0  0  0  0  0  0  0  0  0  0  0  0
   -1.7280    0.5974   -0.3092 C   0  0  0  0  0  0  0  0  0  0  0  0
   -0.7340    0.8871    0.8241 C   0  0  0  0  0  0  0  0  0  0  0  0
    3.3281    0.0784    0.8370 H   0  0  0  0  0  0  0  0  0  0  0  0
    2.3401   -1.0405   -0.2874 H   0  0  0  0  0  0  0  0  0  0  0  0
    0.3907   -1.9791   -0.2953 H   0  0  0  0  0  0  0  0  0  0  0  0
    0.2619   -0.7486   -1.5966 H   0  0  0  0  0  0  0  0  0  0  0  0
   -1.8274   -1.4182    0.5021 H   0  0  0  0  0  0  0  0  0  0  0  0
   -2.0301   -1.3161   -1.3357 H   0  0  0  0  0  0  0  0  0  0  0  0
   -2.7496    0.8586   -0.0449 H   0  0  0  0  0  0  0  0  0  0  0  0
   -1.3733    1.0321   -1.2678 H   0  0  0  0  0  0  0  0  0  0  0  0
   -1.2258    0.4890    1.7496 H   0  0  0  0  0  0  0  0  0  0  0  0
   -0.5383    1.9507    0.9353 H   0  0  0  0  0  0  0  0  0  0  0  0
  1  2  2  0
  2  3  1  0
  3  4  1  0
  4  5  1  0
  5  6  1  0
  6  7  1  0
  7  8  1  0
  8  9  1  0
  5  2  1  0
  9  5  1  0
  3 10  1  0
  3 11  1  0
  6 12  1  0
  6 13  1  0
  7 14  1  0
  7 15  1  0
  8 16  1  0
  8 17  1  0
  9 18  1  0
  9 19  1  0
M  END
