
     RDKit          3D

 15 16  0  0  0  0  0  0  0  0999 V2000
   -1.2685   -1.9784   -1.4461 O   0  0  0  0  0  0  0  0  0  0  0  0
   -0.7099   -0.9900   -0.9356 C   0  0  0  0  0  0  0  0  0  0  0  0
   -0.4157    0.2377   -1.5274 O   0  0  0  0  0  0  0  0  0  0  0  0
    0.2212    0.9387   -0.4739 C   0  0  0  0  0  0  0  0  0  0  0  0
   -0.7017    0.6147    0.6953 C   0  0  0  0  0  0  0  0  0  0  0  0
   -2.0375    0.7532    0.4493 O   0  0  0  0  0  0  0  0  0  0  0  0
   -0.1981   -0.8110    0.4157 C   0  0  0  0  0  0  0  0  0  0  0  0
    1.1407   -0.1177    0.1431 C   0  0  0  0  0  0  0  0  0  0  0  0
    1.9470   -0.7760   -0.7587 O   0  0  0  0  0  0  0  0  0  0  0  0
    0.5757    1.9169   -0.6038 H   0  0  0  0  0  0  0  0  0  0  0  0
   -0.2860    1.0066    1.6190 H   0  0  0  0  0  0  0  0  0  0  0  0
   -2.2809    1.7048    0.4378 H   0  0  0  0  0  0  0  0  0  0  0  0
   -0.2622   -1.5278    1.1696 H   0  0  0  0  0  0  0  0  0  0  0  0
    1.6257    0.2711    1.0539 H   0  0  0  0  0  0  0  0  0  0  0  0
    2.6502   -1.2427   -0.2381 H   0  0  0  0  0  0  0  0  0  0  0  0
  1  2  2  0
  2  3  1  0
  3  4  1  0
  4  5  1  0
  5  6  1  0
  5  7  1  0
  7  8  1  0
  8  9  1  0
  7  2  1  0
  8  4  1  0
  4 10  1  0
  5 11  1  0
  6 12  1  0
  7 13  1  0
  8 14  1  0
  9 15  1  0
M  END
