
     RDKit          3D

 17 18  0  0  0  0  0  0  0  0999 V2000
    1.7588    2.0461    0.1470 O   0  0  0  0  0  0  0  0  0  0  0  0
    1.2676    0.9501   -0.0185 C   0  0  0  0  0  0  0  0  0  0  0  0
    1.9015   -0.3260    0.4223 C   0  0  0  0  0  0  0  0  0  0  0  0
    0.8965   -1.2576    0.4622 O   0  0  0  0  0  0  0  0  0  0  0  0
   -0.0928   -0.8951   -0.4139 C   0  0  0  0  0  0  0  0  0  0  0  0
   -1.4341   -1.0957    0.2189 C   0  0  0  0  0  0  0  0  0  0  0  0
   -2.1450    0.0729    0.1204 O   0  0  0  0  0  0  0  0  0  0  0  0
   -1.2158    1.1209    0.0404 C   0  0  0  0  0  0  0  0  0  0  0  0
   -0.0043    0.5791   -0.6556 C   0  0  0  0  0  0  0  0  0  0  0  0
    2.7342   -0.6411   -0.2110 H   0  0  0  0  0  0  0  0  0  0  0  0
    2.3067   -0.1751    1.4558 H   0  0  0  0  0  0  0  0  0  0  0  0
    0.0531   -1.4567   -1.3526 H   0  0  0  0  0  0  0  0  0  0  0  0
   -1.3095   -1.3122    1.3150 H   0  0  0  0  0  0  0  0  0  0  0  0
   -2.0199   -1.8936   -0.2853 H   0  0  0  0  0  0  0  0  0  0  0  0
   -1.7334    1.9239   -0.5612 H   0  0  0  0  0  0  0  0  0  0  0  0
   -0.9994    1.5244    1.0282 H   0  0  0  0  0  0  0  0  0  0  0  0
    0.0357    0.8356   -1.7121 H   0  0  0  0  0  0  0  0  0  0  0  0
  1  2  2  0
  2  3  1  0
  3  4  1  0
  4  5  1  0
  5  6  1  0
  6  7  1  0
  7  8  1  0
  8  9  1  0
  9  2  1  0
  9  5  1  0
  3 10  1  0
  3 11  1  0
  5 12  1  0
  6 13  1  0
  6 14  1  0
  8 15  1  0
  8 16  1  0
  9 17  1  0
M  END
