
     RDKit          3D

 15 16  0  0  0  0  0  0  0  0999 V2000
    2.3390   -1.4215    0.4783 O   0  0  0  0  0  0  0  0  0  0  0  0
    1.4351   -0.6114    0.1858 C   0  0  0  0  0  0  0  0  0  0  0  0
    1.4515    0.7238    0.6469 O   0  0  0  0  0  0  0  0  0  0  0  0
    0.1423    1.2362    0.3453 C   0  0  0  0  0  0  0  0  0  0  0  0
    0.0355    0.6862   -1.0868 C   0  0  0  0  0  0  0  0  0  0  0  0
    0.2140   -0.7747   -0.6341 C   0  0  0  0  0  0  0  0  0  0  0  0
   -0.9473   -0.8869    0.3302 C   0  0  0  0  0  0  0  0  0  0  0  0
   -0.8041    0.3894    1.0768 C   0  0  0  0  0  0  0  0  0  0  0  0
   -1.3651    0.6845    2.1054 O   0  0  0  0  0  0  0  0  0  0  0  0
    0.0449    2.2888    0.4220 H   0  0  0  0  0  0  0  0  0  0  0  0
    0.9172    0.9556   -1.6584 H   0  0  0  0  0  0  0  0  0  0  0  0
   -0.9287    0.8624   -1.5316 H   0  0  0  0  0  0  0  0  0  0  0  0
    0.2487   -1.4804   -1.4242 H   0  0  0  0  0  0  0  0  0  0  0  0
   -1.9212   -0.8734   -0.2033 H   0  0  0  0  0  0  0  0  0  0  0  0
   -0.8619   -1.7785    0.9476 H   0  0  0  0  0  0  0  0  0  0  0  0
  1  2  2  0
  2  3  1  0
  3  4  1  0
  4  5  1  0
  5  6  1  0
  6  7  1  0
  7  8  1  0
  8  9  2  0
  6  2  1  0
  8  4  1  0
  4 10  1  0
  5 11  1  0
  5 12  1  0
  6 13  1  0
  7 14  1  0
  7 15  1  0
M  END
