
     RDKit          3D

 17 18  0  0  0  0  0  0  0  0999 V2000
    1.3312    1.9193    1.4805 O   0  0  0  0  0  0  0  0  0  0  0  0
    1.1313    1.1221    0.6208 C   0  0  0  0  0  0  0  0  0  0  0  0
    2.1456    0.1549    0.0272 C   0  0  0  0  0  0  0  0  0  0  0  0
    1.2538   -1.0790   -0.0500 C   0  0  0  0  0  0  0  0  0  0  0  0
   -0.0102   -0.7409   -0.0707 C   0  0  0  0  0  0  0  0  0  0  0  0
   -1.5230   -0.7050   -0.1091 C   0  0  0  0  0  0  0  0  0  0  0  0
   -1.9345   -0.7082   -1.4161 O   0  0  0  0  0  0  0  0  0  0  0  0
   -1.4044    0.6975    0.5267 C   0  0  0  0  0  0  0  0  0  0  0  0
   -0.0695    0.7917   -0.1351 C   0  0  0  0  0  0  0  0  0  0  0  0
    2.4116    0.4458   -1.0010 H   0  0  0  0  0  0  0  0  0  0  0  0
    2.9667   -0.0409    0.7077 H   0  0  0  0  0  0  0  0  0  0  0  0
    1.6706   -2.0963   -0.0817 H   0  0  0  0  0  0  0  0  0  0  0  0
   -2.0376   -1.3970    0.5436 H   0  0  0  0  0  0  0  0  0  0  0  0
   -2.4092   -1.5690   -1.5827 H   0  0  0  0  0  0  0  0  0  0  0  0
   -1.3032    0.6546    1.6261 H   0  0  0  0  0  0  0  0  0  0  0  0
   -2.1325    1.4114    0.1098 H   0  0  0  0  0  0  0  0  0  0  0  0
   -0.0868    1.1389   -1.1958 H   0  0  0  0  0  0  0  0  0  0  0  0
  1  2  2  0
  2  3  1  0
  3  4  1  0
  4  5  2  0
  5  6  1  0
  6  7  1  0
  6  8  1  0
  8  9  1  0
  9  2  1  0
  9  5  1  0
  3 10  1  0
  3 11  1  0
  4 12  1  0
  6 13  1  0
  7 14  1  0
  8 15  1  0
  8 16  1  0
  9 17  1  0
M  END
