
     RDKit          3D

 17 17  0  0  0  0  0  0  0  0999 V2000
    2.1455   -2.3899   -0.0457 O   0  0  0  0  0  0  0  0  0  0  0  0
    1.3258   -1.4535   -0.1269 C   0  0  0  0  0  0  0  0  0  0  0  0
    1.9796   -0.1453   -0.0711 C   0  0  0  0  0  0  0  0  0  0  0  0
    1.5417    1.1153   -0.0936 C   0  0  0  0  0  0  0  0  0  0  0  0
    0.1968    1.6703   -0.1858 C   0  0  0  0  0  0  0  0  0  0  0  0
   -1.0149    1.2203    0.0870 C   0  0  0  0  0  0  0  0  0  0  0  0
   -1.4915   -0.0724    0.6124 C   0  0  0  0  0  0  0  0  0  0  0  0
   -1.2851   -1.2330   -0.2862 C   0  0  0  0  0  0  0  0  0  0  0  0
   -0.0064   -1.7975   -0.2506 O   0  0  0  0  0  0  0  0  0  0  0  0
    3.0674   -0.1862    0.0063 H   0  0  0  0  0  0  0  0  0  0  0  0
    2.3359    1.8687   -0.0320 H   0  0  0  0  0  0  0  0  0  0  0  0
    0.2114    2.6983   -0.5722 H   0  0  0  0  0  0  0  0  0  0  0  0
   -1.8042    1.9586   -0.1217 H   0  0  0  0  0  0  0  0  0  0  0  0
   -1.0259   -0.3205    1.6045 H   0  0  0  0  0  0  0  0  0  0  0  0
   -2.5811    0.0348    0.8035 H   0  0  0  0  0  0  0  0  0  0  0  0
   -1.5884   -0.9433   -1.3352 H   0  0  0  0  0  0  0  0  0  0  0  0
   -2.0066   -2.0248    0.0073 H   0  0  0  0  0  0  0  0  0  0  0  0
  1  2  2  0
  2  3  1  0
  3  4  2  3
  4  5  1  0
  5  6  2  3
  6  7  1  0
  7  8  1  0
  8  9  1  0
  9  2  1  0
  3 10  1  0
  4 11  1  0
  5 12  1  0
  6 13  1  0
  7 14  1  0
  7 15  1  0
  8 16  1  0
  8 17  1  0
M  END
