
     RDKit          3D

 17 20  0  0  0  0  0  0  0  0999 V2000
    2.5516   -0.9036    1.1272 O   0  0  0  0  0  0  0  0  0  0  0  0
    1.5397   -0.5351    0.6661 C   0  0  0  0  0  0  0  0  0  0  0  0
    0.9721    0.8621    0.8257 C   0  0  0  0  0  0  0  0  0  0  0  0
   -0.3766    1.3454    0.1787 C   0  0  0  0  0  0  0  0  0  0  0  0
   -1.3460    0.5009   -0.6765 C   0  0  0  0  0  0  0  0  0  0  0  0
   -0.7445   -0.9278   -0.8014 C   0  0  0  0  0  0  0  0  0  0  0  0
    0.6292   -1.4101   -0.1727 C   0  0  0  0  0  0  0  0  0  0  0  0
    0.3754   -0.2898   -0.7145 C   0  0  0  0  0  0  0  0  0  0  0  0
   -0.1666    0.2097    0.7463 C   0  0  0  0  0  0  0  0  0  0  0  0
    1.2953    1.4640    1.6486 H   0  0  0  0  0  0  0  0  0  0  0  0
   -0.5309    2.3639    0.2605 H   0  0  0  0  0  0  0  0  0  0  0  0
   -1.4275    0.8970   -1.6956 H   0  0  0  0  0  0  0  0  0  0  0  0
   -2.3221    0.3895   -0.1678 H   0  0  0  0  0  0  0  0  0  0  0  0
   -1.0626   -1.5652   -1.5999 H   0  0  0  0  0  0  0  0  0  0  0  0
    0.4113   -2.3121    0.3610 H   0  0  0  0  0  0  0  0  0  0  0  0
    0.8894    0.3164   -1.4019 H   0  0  0  0  0  0  0  0  0  0  0  0
   -0.6872   -0.4052    1.4160 H   0  0  0  0  0  0  0  0  0  0  0  0
  1  2  2  0
  2  3  1  0
  3  4  1  0
  4  5  1  0
  5  6  1  0
  6  7  1  0
  7  8  1  0
  8  9  1  0
  7  2  1  0
  9  3  1  0
  9  4  1  0
  8  6  1  0
  3 10  1  0
  4 11  1  0
  5 12  1  0
  5 13  1  0
  6 14  1  0
  7 15  1  0
  8 16  1  0
  9 17  1  0
M  END
