
     RDKit          3D

 16 16  0  0  0  0  0  0  0  0999 V2000
   -0.9393   -1.9228    1.3540 O   0  0  0  0  0  0  0  0  0  0  0  0
   -0.8742   -1.1377    0.4445 C   0  0  0  0  0  0  0  0  0  0  0  0
   -1.7975   -0.3750   -0.4330 C   0  0  0  0  0  0  0  0  0  0  0  0
   -0.7131    0.7087   -0.4548 C   0  0  0  0  0  0  0  0  0  0  0  0
   -0.6747    1.4370    0.7267 O   0  0  0  0  0  0  0  0  0  0  0  0
    0.2297   -0.4945   -0.3073 C   0  0  0  0  0  0  0  0  0  0  0  0
    1.4275   -0.0976    0.5102 C   0  0  0  0  0  0  0  0  0  0  0  0
    2.4011    0.4947   -0.2885 O   0  0  0  0  0  0  0  0  0  0  0  0
   -1.8190   -0.8409   -1.4480 H   0  0  0  0  0  0  0  0  0  0  0  0
   -2.7453   -0.0718   -0.0053 H   0  0  0  0  0  0  0  0  0  0  0  0
   -0.6147    1.2534   -1.3859 H   0  0  0  0  0  0  0  0  0  0  0  0
   -0.4245    2.3583    0.5567 H   0  0  0  0  0  0  0  0  0  0  0  0
    0.4185   -0.9102   -1.2962 H   0  0  0  0  0  0  0  0  0  0  0  0
    1.8038   -0.9826    1.0493 H   0  0  0  0  0  0  0  0  0  0  0  0
    1.0990    0.6294    1.2886 H   0  0  0  0  0  0  0  0  0  0  0  0
    3.2227   -0.0484   -0.3111 H   0  0  0  0  0  0  0  0  0  0  0  0
  1  2  2  0
  2  3  1  0
  3  4  1  0
  4  5  1  0
  4  6  1  0
  6  7  1  0
  7  8  1  0
  6  2  1  0
  3  9  1  0
  3 10  1  0
  4 11  1  0
  5 12  1  0
  6 13  1  0
  7 14  1  0
  7 15  1  0
  8 16  1  0
M  END
