
     RDKit          3D

 19 19  0  0  0  0  0  0  0  0999 V2000
   -2.5524    0.7091   -1.3148 O   0  0  0  0  0  0  0  0  0  0  0  0
   -1.6392    0.2154   -0.6755 C   0  0  0  0  0  0  0  0  0  0  0  0
   -1.5866   -1.0866    0.0336 C   0  0  0  0  0  0  0  0  0  0  0  0
   -0.2469   -1.0903    0.7054 C   0  0  0  0  0  0  0  0  0  0  0  0
    0.5885   -0.2662   -0.2844 C   0  0  0  0  0  0  0  0  0  0  0  0
    1.8718    0.0703    0.3900 C   0  0  0  0  0  0  0  0  0  0  0  0
    2.7456    0.8094   -0.3553 O   0  0  0  0  0  0  0  0  0  0  0  0
   -0.3158    0.9211   -0.4992 C   0  0  0  0  0  0  0  0  0  0  0  0
   -0.4375    1.6604    0.6776 O   0  0  0  0  0  0  0  0  0  0  0  0
   -1.6869   -1.8914   -0.7257 H   0  0  0  0  0  0  0  0  0  0  0  0
   -2.4213   -1.2265    0.7465 H   0  0  0  0  0  0  0  0  0  0  0  0
    0.2327   -2.0599    0.7828 H   0  0  0  0  0  0  0  0  0  0  0  0
   -0.3386   -0.5407    1.6740 H   0  0  0  0  0  0  0  0  0  0  0  0
    0.6717   -0.8682   -1.1841 H   0  0  0  0  0  0  0  0  0  0  0  0
    1.6193    0.6216    1.3346 H   0  0  0  0  0  0  0  0  0  0  0  0
    2.3633   -0.8810    0.6861 H   0  0  0  0  0  0  0  0  0  0  0  0
    2.4206    1.1494   -1.2016 H   0  0  0  0  0  0  0  0  0  0  0  0
   -0.0456    1.5250   -1.3595 H   0  0  0  0  0  0  0  0  0  0  0  0
   -1.2427    2.2293    0.5694 H   0  0  0  0  0  0  0  0  0  0  0  0
  1  2  2  0
  2  3  1  0
  3  4  1  0
  4  5  1  0
  5  6  1  0
  6  7  1  0
  5  8  1  0
  8  9  1  0
  8  2  1  0
  3 10  1  0
  3 11  1  0
  4 12  1  0
  4 13  1  0
  5 14  1  0
  6 15  1  0
  6 16  1  0
  7 17  1  0
  8 18  1  0
  9 19  1  0
M  END
