
     RDKit          3D

 14 15  0  0  0  0  0  0  0  0999 V2000
    1.4279    2.1701    0.0677 O   0  0  0  0  0  0  0  0  0  0  0  0
    0.9037    1.0568    0.1824 C   0  0  0  0  0  0  0  0  0  0  0  0
    1.5729   -0.2534   -0.0689 C   0  0  0  0  0  0  0  0  0  0  0  0
    0.6306   -0.9760   -0.6441 C   0  0  0  0  0  0  0  0  0  0  0  0
   -0.5603   -0.2082   -0.7798 C   0  0  0  0  0  0  0  0  0  0  0  0
   -1.6439    0.2967   -0.0610 C   0  0  0  0  0  0  0  0  0  0  0  0
   -0.4286    0.5660    0.5648 C   0  0  0  0  0  0  0  0  0  0  0  0
   -0.2645   -0.1747    1.7577 O   0  0  0  0  0  0  0  0  0  0  0  0
    2.6281   -0.5120    0.1603 H   0  0  0  0  0  0  0  0  0  0  0  0
    0.7840   -2.0100   -0.9544 H   0  0  0  0  0  0  0  0  0  0  0  0
   -0.3876    0.4390   -1.7366 H   0  0  0  0  0  0  0  0  0  0  0  0
   -2.3754   -0.4517    0.3648 H   0  0  0  0  0  0  0  0  0  0  0  0
   -2.2487    1.1727   -0.4207 H   0  0  0  0  0  0  0  0  0  0  0  0
   -0.0382   -1.1154    1.5677 H   0  0  0  0  0  0  0  0  0  0  0  0
  1  2  2  0
  2  3  1  0
  3  4  2  0
  4  5  1  0
  5  6  1  0
  6  7  1  0
  7  8  1  0
  7  2  1  0
  7  5  1  0
  3  9  1  0
  4 10  1  0
  5 11  1  0
  6 12  1  0
  6 13  1  0
  8 14  1  0
M  END
