
     RDKit          3D

 17 18  0  0  0  0  0  0  0  0999 V2000
    2.9428    0.2310   -0.1451 O   0  0  0  0  0  0  0  0  0  0  0  0
    1.6957    0.1720   -0.0418 C   0  0  0  0  0  0  0  0  0  0  0  0
    0.9054    1.4051   -0.1605 C   0  0  0  0  0  0  0  0  0  0  0  0
   -0.3897    1.6216    0.0089 C   0  0  0  0  0  0  0  0  0  0  0  0
   -1.4067    0.6291    0.4011 C   0  0  0  0  0  0  0  0  0  0  0  0
   -0.9405   -0.7795    0.4233 C   0  0  0  0  0  0  0  0  0  0  0  0
   -0.1472   -1.2493   -0.7372 C   0  0  0  0  0  0  0  0  0  0  0  0
    1.0673   -1.1727    0.2009 C   0  0  0  0  0  0  0  0  0  0  0  0
    0.1226   -1.0556    1.2406 O   0  0  0  0  0  0  0  0  0  0  0  0
    1.4646    2.3084   -0.4346 H   0  0  0  0  0  0  0  0  0  0  0  0
   -0.7801    2.6108   -0.1461 H   0  0  0  0  0  0  0  0  0  0  0  0
   -2.3254    0.7184   -0.1870 H   0  0  0  0  0  0  0  0  0  0  0  0
   -1.7029    0.8938    1.4601 H   0  0  0  0  0  0  0  0  0  0  0  0
   -1.8285   -1.4576    0.5743 H   0  0  0  0  0  0  0  0  0  0  0  0
   -0.0648   -0.5634   -1.5953 H   0  0  0  0  0  0  0  0  0  0  0  0
   -0.3319   -2.2820   -1.0746 H   0  0  0  0  0  0  0  0  0  0  0  0
    1.7193   -2.0300    0.2132 H   0  0  0  0  0  0  0  0  0  0  0  0
  1  2  2  0
  2  3  1  0
  3  4  2  0
  4  5  1  0
  5  6  1  0
  6  7  1  0
  7  8  1  0
  8  9  1  0
  8  2  1  0
  9  6  1  0
  3 10  1  0
  4 11  1  0
  5 12  1  0
  5 13  1  0
  6 14  1  0
  7 15  1  0
  7 16  1  0
  8 17  1  0
M  END
