
     RDKit          3D

 19 21  0  0  0  0  0  0  0  0999 V2000
    2.8481    1.7989    0.7742 O   0  0  0  0  0  0  0  0  0  0  0  0
    1.9708    0.9891    0.5685 C   0  0  0  0  0  0  0  0  0  0  0  0
    1.2849    0.4128   -0.6213 C   0  0  0  0  0  0  0  0  0  0  0  0
    0.2802   -0.1125    0.2618 C   0  0  0  0  0  0  0  0  0  0  0  0
    1.1063    0.1326    1.4240 C   0  0  0  0  0  0  0  0  0  0  0  0
   -0.3891   -1.4238    0.0405 C   0  0  0  0  0  0  0  0  0  0  0  0
   -1.1231   -0.6144   -1.0177 C   0  0  0  0  0  0  0  0  0  0  0  0
   -2.0527    0.4471   -0.8556 C   0  0  0  0  0  0  0  0  0  0  0  0
   -1.1334    0.3787    0.2252 C   0  0  0  0  0  0  0  0  0  0  0  0
    1.9521   -0.2869   -1.1623 H   0  0  0  0  0  0  0  0  0  0  0  0
    0.9455    1.1910   -1.3633 H   0  0  0  0  0  0  0  0  0  0  0  0
    0.5777    0.6752    2.2377 H   0  0  0  0  0  0  0  0  0  0  0  0
    1.6806   -0.7505    1.8250 H   0  0  0  0  0  0  0  0  0  0  0  0
    0.1771   -2.2472   -0.3734 H   0  0  0  0  0  0  0  0  0  0  0  0
   -1.0173   -1.6951    0.9175 H   0  0  0  0  0  0  0  0  0  0  0  0
   -0.3277   -0.3635   -1.7920 H   0  0  0  0  0  0  0  0  0  0  0  0
   -3.1428    0.1453   -0.7718 H   0  0  0  0  0  0  0  0  0  0  0  0
   -2.0188    1.3978   -1.4711 H   0  0  0  0  0  0  0  0  0  0  0  0
   -1.6187   -0.0748    1.1540 H   0  0  0  0  0  0  0  0  0  0  0  0
  1  2  2  0
  2  3  1  0
  3  4  1  0
  4  5  1  0
  4  6  1  0
  6  7  1  0
  7  8  1  0
  8  9  1  0
  5  2  1  0
  9  7  1  0
  9  4  1  0
  3 10  1  0
  3 11  1  0
  5 12  1  0
  5 13  1  0
  6 14  1  0
  6 15  1  0
  7 16  1  0
  8 17  1  0
  8 18  1  0
  9 19  1  0
M  END
