
     RDKit          3D

 15 16  0  0  0  0  0  0  0  0999 V2000
    2.3410    1.2436   -0.9957 O   0  0  0  0  0  0  0  0  0  0  0  0
    1.2430    0.7041   -0.7547 C   0  0  0  0  0  0  0  0  0  0  0  0
    0.1317    0.4394   -1.5550 O   0  0  0  0  0  0  0  0  0  0  0  0
   -0.5290   -0.5835   -0.9041 C   0  0  0  0  0  0  0  0  0  0  0  0
   -1.5713   -0.6659    0.0323 C   0  0  0  0  0  0  0  0  0  0  0  0
   -0.5905    0.2393    0.4530 C   0  0  0  0  0  0  0  0  0  0  0  0
   -0.9411    1.6122    0.2917 O   0  0  0  0  0  0  0  0  0  0  0  0
    0.8899    0.1801    0.6258 C   0  0  0  0  0  0  0  0  0  0  0  0
    1.4040   -1.0681    0.8252 O   0  0  0  0  0  0  0  0  0  0  0  0
    0.1611   -1.4865   -0.8966 H   0  0  0  0  0  0  0  0  0  0  0  0
   -1.7153   -1.5975    0.6496 H   0  0  0  0  0  0  0  0  0  0  0  0
   -2.5868   -0.2992   -0.2718 H   0  0  0  0  0  0  0  0  0  0  0  0
   -0.3698    1.9727   -0.4285 H   0  0  0  0  0  0  0  0  0  0  0  0
    1.2042    0.8657    1.4096 H   0  0  0  0  0  0  0  0  0  0  0  0
    0.9289   -1.5567    1.5191 H   0  0  0  0  0  0  0  0  0  0  0  0
  1  2  2  0
  2  3  1  0
  3  4  1  0
  4  5  1  0
  5  6  1  0
  6  7  1  0
  6  8  1  0
  8  9  1  0
  8  2  1  0
  6  4  1  0
  4 10  1  0
  5 11  1  0
  5 12  1  0
  7 13  1  0
  8 14  1  0
  9 15  1  0
M  END
