
     RDKit          3D

 16 17  0  0  0  0  0  0  0  0999 V2000
    2.8469    0.8673   -0.5077 O   0  0  0  0  0  0  0  0  0  0  0  0
    1.8377    0.1862   -0.2530 C   0  0  0  0  0  0  0  0  0  0  0  0
    1.3097   -0.9623   -0.7991 O   0  0  0  0  0  0  0  0  0  0  0  0
    0.4652   -1.0778    0.3285 C   0  0  0  0  0  0  0  0  0  0  0  0
   -0.9792   -1.0657   -0.0644 C   0  0  0  0  0  0  0  0  0  0  0  0
   -1.1408    0.3187   -0.6755 C   0  0  0  0  0  0  0  0  0  0  0  0
   -0.3345    1.2103    0.2183 C   0  0  0  0  0  0  0  0  0  0  0  0
    0.7672    0.3212    0.7528 C   0  0  0  0  0  0  0  0  0  0  0  0
    0.7815   -1.8794    1.0200 H   0  0  0  0  0  0  0  0  0  0  0  0
   -1.6447   -1.1863    0.8179 H   0  0  0  0  0  0  0  0  0  0  0  0
   -1.2122   -1.8041   -0.8548 H   0  0  0  0  0  0  0  0  0  0  0  0
   -0.7262    0.3210   -1.6814 H   0  0  0  0  0  0  0  0  0  0  0  0
   -2.2283    0.5501   -0.6414 H   0  0  0  0  0  0  0  0  0  0  0  0
    0.1186    2.0085   -0.4372 H   0  0  0  0  0  0  0  0  0  0  0  0
   -0.9219    1.7017    0.9926 H   0  0  0  0  0  0  0  0  0  0  0  0
    1.0610    0.4907    1.7844 H   0  0  0  0  0  0  0  0  0  0  0  0
  1  2  2  0
  2  3  1  0
  3  4  1  0
  4  5  1  0
  5  6  1  0
  6  7  1  0
  7  8  1  0
  8  2  1  0
  8  4  1  0
  4  9  1  0
  5 10  1  0
  5 11  1  0
  6 12  1  0
  6 13  1  0
  7 14  1  0
  7 15  1  0
  8 16  1  0
M  END
