
     RDKit          3D

 19 21  0  0  0  0  0  0  0  0999 V2000
    2.6859   -1.5027    0.5165 O   0  0  0  0  0  0  0  0  0  0  0  0
    1.7741   -0.7670    0.2720 C   0  0  0  0  0  0  0  0  0  0  0  0
    1.8548    0.6727   -0.1111 C   0  0  0  0  0  0  0  0  0  0  0  0
    0.3680    0.9252   -0.2242 C   0  0  0  0  0  0  0  0  0  0  0  0
   -0.1431   -0.3138   -0.9676 C   0  0  0  0  0  0  0  0  0  0  0  0
   -1.6244   -0.1649   -0.8035 C   0  0  0  0  0  0  0  0  0  0  0  0
   -1.6643    0.1170    0.7132 C   0  0  0  0  0  0  0  0  0  0  0  0
   -0.1931    0.2057    0.9796 C   0  0  0  0  0  0  0  0  0  0  0  0
    0.3419   -1.0348    0.2708 C   0  0  0  0  0  0  0  0  0  0  0  0
    2.3049    1.2933    0.6800 H   0  0  0  0  0  0  0  0  0  0  0  0
    2.3300    0.8187   -1.1012 H   0  0  0  0  0  0  0  0  0  0  0  0
   -0.0004    1.8729   -0.5046 H   0  0  0  0  0  0  0  0  0  0  0  0
    0.2851   -0.5401   -1.9087 H   0  0  0  0  0  0  0  0  0  0  0  0
   -2.1958   -1.0665   -1.0465 H   0  0  0  0  0  0  0  0  0  0  0  0
   -1.9405    0.7279   -1.3772 H   0  0  0  0  0  0  0  0  0  0  0  0
   -2.0908   -0.7570    1.2292 H   0  0  0  0  0  0  0  0  0  0  0  0
   -2.2035    1.0575    0.9139 H   0  0  0  0  0  0  0  0  0  0  0  0
    0.1750    0.4327    1.9472 H   0  0  0  0  0  0  0  0  0  0  0  0
   -0.0640   -1.9766    0.5223 H   0  0  0  0  0  0  0  0  0  0  0  0
  1  2  2  0
  2  3  1  0
  3  4  1  0
  4  5  1  0
  5  6  1  0
  6  7  1  0
  7  8  1  0
  8  9  1  0
  9  2  1  0
  8  4  1  0
  9  5  1  0
  3 10  1  0
  3 11  1  0
  4 12  1  0
  5 13  1  0
  6 14  1  0
  6 15  1  0
  7 16  1  0
  7 17  1  0
  8 18  1  0
  9 19  1  0
M  END
