
     RDKit          3D

 19 19  0  0  0  0  0  0  0  0999 V2000
   -1.0122   -2.3431   -0.7977 O   0  0  0  0  0  0  0  0  0  0  0  0
   -0.6424   -1.3297   -0.2195 C   0  0  0  0  0  0  0  0  0  0  0  0
   -1.7308   -0.5503    0.4361 C   0  0  0  0  0  0  0  0  0  0  0  0
   -1.5788    0.8885   -0.0489 C   0  0  0  0  0  0  0  0  0  0  0  0
   -0.6036    1.4871    0.7655 O   0  0  0  0  0  0  0  0  0  0  0  0
    0.6058    1.3300    0.1400 C   0  0  0  0  0  0  0  0  0  0  0  0
    1.3156    0.0511    0.4662 C   0  0  0  0  0  0  0  0  0  0  0  0
    2.6632    0.2352    0.0731 O   0  0  0  0  0  0  0  0  0  0  0  0
    0.8135   -1.1308   -0.3186 C   0  0  0  0  0  0  0  0  0  0  0  0
   -2.7050   -0.9720    0.1830 H   0  0  0  0  0  0  0  0  0  0  0  0
   -1.6293   -0.6085    1.5553 H   0  0  0  0  0  0  0  0  0  0  0  0
   -2.5293    1.4327   -0.0434 H   0  0  0  0  0  0  0  0  0  0  0  0
   -1.2069    0.8655   -1.1105 H   0  0  0  0  0  0  0  0  0  0  0  0
    1.2638    2.1800    0.4855 H   0  0  0  0  0  0  0  0  0  0  0  0
    0.5513    1.4773   -0.9773 H   0  0  0  0  0  0  0  0  0  0  0  0
    1.2997   -0.0946    1.5538 H   0  0  0  0  0  0  0  0  0  0  0  0
    2.6473    0.1834   -0.9361 H   0  0  0  0  0  0  0  0  0  0  0  0
    1.2948   -2.0392    0.1347 H   0  0  0  0  0  0  0  0  0  0  0  0
    1.1833   -1.0625   -1.3414 H   0  0  0  0  0  0  0  0  0  0  0  0
  1  2  2  0
  2  3  1  0
  3  4  1  0
  4  5  1  0
  5  6  1  0
  6  7  1  0
  7  8  1  0
  7  9  1  0
  9  2  1  0
  3 10  1  0
  3 11  1  0
  4 12  1  0
  4 13  1  0
  6 14  1  0
  6 15  1  0
  7 16  1  0
  8 17  1  0
  9 18  1  0
  9 19  1  0
M  END
