
     RDKit          3D

 19 19  0  0  0  0  0  0  0  0999 V2000
   -2.2978    2.5984   -0.1671 O   0  0  0  0  0  0  0  0  0  0  0  0
   -1.8945    1.4939    0.2885 C   0  0  0  0  0  0  0  0  0  0  0  0
   -2.3266    0.0999    0.4342 C   0  0  0  0  0  0  0  0  0  0  0  0
   -0.8498   -0.2446    0.6111 C   0  0  0  0  0  0  0  0  0  0  0  0
   -0.2474   -0.5778   -0.7162 C   0  0  0  0  0  0  0  0  0  0  0  0
    1.2031   -0.9418   -0.6876 C   0  0  0  0  0  0  0  0  0  0  0  0
    2.1005    0.1458   -0.1479 C   0  0  0  0  0  0  0  0  0  0  0  0
    1.8220    0.5198    1.1487 O   0  0  0  0  0  0  0  0  0  0  0  0
   -0.7094    1.1374    0.9167 O   0  0  0  0  0  0  0  0  0  0  0  0
   -2.9193   -0.1583    1.3216 H   0  0  0  0  0  0  0  0  0  0  0  0
   -2.7509   -0.3356   -0.4911 H   0  0  0  0  0  0  0  0  0  0  0  0
   -0.6743   -0.9456    1.4255 H   0  0  0  0  0  0  0  0  0  0  0  0
   -0.8438   -1.4163   -1.1420 H   0  0  0  0  0  0  0  0  0  0  0  0
   -0.3324    0.2933   -1.4279 H   0  0  0  0  0  0  0  0  0  0  0  0
    1.4015   -1.9147   -0.1947 H   0  0  0  0  0  0  0  0  0  0  0  0
    1.5105   -1.0769   -1.7620 H   0  0  0  0  0  0  0  0  0  0  0  0
    3.1516   -0.2206   -0.2647 H   0  0  0  0  0  0  0  0  0  0  0  0
    1.9889    1.0280   -0.8215 H   0  0  0  0  0  0  0  0  0  0  0  0
    2.6680    0.5155    1.6767 H   0  0  0  0  0  0  0  0  0  0  0  0
  1  2  2  0
  2  3  1  0
  3  4  1  0
  4  5  1  0
  5  6  1  0
  6  7  1  0
  7  8  1  0
  4  9  1  0
  9  2  1  0
  3 10  1  0
  3 11  1  0
  4 12  1  0
  5 13  1  0
  5 14  1  0
  6 15  1  0
  6 16  1  0
  7 17  1  0
  7 18  1  0
  8 19  1  0
M  END
