
     RDKit          3D

 17 19  0  0  0  0  0  0  0  0999 V2000
   -1.9028    1.5688    1.2606 O   0  0  0  0  0  0  0  0  0  0  0  0
   -1.3216    0.9077    0.4756 C   0  0  0  0  0  0  0  0  0  0  0  0
   -1.9034   -0.4815    0.1147 C   0  0  0  0  0  0  0  0  0  0  0  0
   -0.7294   -1.3295    0.6219 C   0  0  0  0  0  0  0  0  0  0  0  0
    0.4956   -0.9204    0.3902 C   0  0  0  0  0  0  0  0  0  0  0  0
    1.8975   -0.5261    0.1701 C   0  0  0  0  0  0  0  0  0  0  0  0
    1.3134    0.9223    0.0707 C   0  0  0  0  0  0  0  0  0  0  0  0
   -0.0546    1.2740   -0.2251 C   0  0  0  0  0  0  0  0  0  0  0  0
    0.3793    0.0846   -0.8723 C   0  0  0  0  0  0  0  0  0  0  0  0
   -1.9937   -0.5883   -0.9552 H   0  0  0  0  0  0  0  0  0  0  0  0
   -2.7993   -0.6422    0.7117 H   0  0  0  0  0  0  0  0  0  0  0  0
   -0.9078   -2.2280    1.1506 H   0  0  0  0  0  0  0  0  0  0  0  0
    2.2802   -0.8469   -0.8038 H   0  0  0  0  0  0  0  0  0  0  0  0
    2.6087   -0.6665    0.9655 H   0  0  0  0  0  0  0  0  0  0  0  0
    2.0935    1.5389   -0.4227 H   0  0  0  0  0  0  0  0  0  0  0  0
   -0.2262    2.1776   -0.8767 H   0  0  0  0  0  0  0  0  0  0  0  0
    0.7704   -0.2444   -1.7756 H   0  0  0  0  0  0  0  0  0  0  0  0
  1  2  2  0
  2  3  1  0
  3  4  1  0
  4  5  2  0
  5  6  1  0
  6  7  1  0
  7  8  1  0
  8  9  1  0
  8  2  1  0
  9  5  1  0
  9  7  1  0
  3 10  1  0
  3 11  1  0
  4 12  1  0
  6 13  1  0
  6 14  1  0
  7 15  1  0
  8 16  1  0
  9 17  1  0
M  END
