
     RDKit          3D

 15 16  0  0  0  0  0  0  0  0999 V2000
    2.2989    2.1715   -0.2556 O   0  0  0  0  0  0  0  0  0  0  0  0
    1.4687    1.2094   -0.2928 C   0  0  0  0  0  0  0  0  0  0  0  0
    1.7057   -0.0364    0.4337 C   0  0  0  0  0  0  0  0  0  0  0  0
    0.8225   -1.0207    0.3758 C   0  0  0  0  0  0  0  0  0  0  0  0
   -0.4236   -0.9409   -0.3975 C   0  0  0  0  0  0  0  0  0  0  0  0
   -1.5023    0.0181    0.0839 C   0  0  0  0  0  0  0  0  0  0  0  0
   -1.2407    0.6569    1.2910 O   0  0  0  0  0  0  0  0  0  0  0  0
   -0.6739    0.3091   -1.1036 C   0  0  0  0  0  0  0  0  0  0  0  0
    0.3056    1.2954   -1.0199 O   0  0  0  0  0  0  0  0  0  0  0  0
    2.6080   -0.1355    1.0131 H   0  0  0  0  0  0  0  0  0  0  0  0
    1.0202   -1.9329    0.9220 H   0  0  0  0  0  0  0  0  0  0  0  0
   -0.8125   -1.8984   -0.8046 H   0  0  0  0  0  0  0  0  0  0  0  0
   -2.5572   -0.2190   -0.1050 H   0  0  0  0  0  0  0  0  0  0  0  0
   -1.8623    0.3023    1.9776 H   0  0  0  0  0  0  0  0  0  0  0  0
   -1.1572    0.2211   -2.1180 H   0  0  0  0  0  0  0  0  0  0  0  0
  1  2  2  0
  2  3  1  0
  3  4  2  0
  4  5  1  0
  5  6  1  0
  6  7  1  0
  6  8  1  0
  8  9  1  0
  9  2  1  0
  8  5  1  0
  3 10  1  0
  4 11  1  0
  5 12  1  0
  6 13  1  0
  7 14  1  0
  8 15  1  0
M  END
