
     RDKit          3D

 15 18  0  0  0  0  0  0  0  0999 V2000
   -1.8073    1.9597    0.2923 O   0  0  0  0  0  0  0  0  0  0  0  0
   -1.0227    1.0623    0.1562 C   0  0  0  0  0  0  0  0  0  0  0  0
    0.4204    1.1157    0.2897 C   0  0  0  0  0  0  0  0  0  0  0  0
    0.9450    0.2603   -0.8442 C   0  0  0  0  0  0  0  0  0  0  0  0
    1.8724   -0.2327    0.0962 O   0  0  0  0  0  0  0  0  0  0  0  0
    0.7943   -0.1619    1.0045 C   0  0  0  0  0  0  0  0  0  0  0  0
   -0.2932   -1.0974    0.5424 C   0  0  0  0  0  0  0  0  0  0  0  0
   -1.3178   -0.3475   -0.1862 C   0  0  0  0  0  0  0  0  0  0  0  0
   -0.1590   -0.7536   -0.9888 C   0  0  0  0  0  0  0  0  0  0  0  0
    0.9358    2.0134    0.5341 H   0  0  0  0  0  0  0  0  0  0  0  0
    1.3306    0.7449   -1.7141 H   0  0  0  0  0  0  0  0  0  0  0  0
    1.0331   -0.1154    2.0470 H   0  0  0  0  0  0  0  0  0  0  0  0
   -0.3197   -2.1426    0.8065 H   0  0  0  0  0  0  0  0  0  0  0  0
   -2.3031   -0.7199   -0.3627 H   0  0  0  0  0  0  0  0  0  0  0  0
   -0.1089   -1.5853   -1.6728 H   0  0  0  0  0  0  0  0  0  0  0  0
  1  2  2  0
  2  3  1  0
  3  4  1  0
  4  5  1  0
  5  6  1  0
  6  7  1  0
  7  8  1  0
  8  9  1  0
  8  2  1  0
  6  3  1  0
  9  7  1  0
  9  4  1  0
  3 10  1  0
  4 11  1  0
  6 12  1  0
  7 13  1  0
  8 14  1  0
  9 15  1  0
M  END
