
     RDKit          3D

 19 20  0  0  0  0  0  0  0  0999 V2000
    0.8995   -0.6343    2.0931 O   0  0  0  0  0  0  0  0  0  0  0  0
    1.1325   -0.3236    0.9320 C   0  0  0  0  0  0  0  0  0  0  0  0
    2.3347    0.2943    0.2570 C   0  0  0  0  0  0  0  0  0  0  0  0
    1.4017    0.7817   -0.8172 C   0  0  0  0  0  0  0  0  0  0  0  0
    0.4891   -0.3391   -0.4079 C   0  0  0  0  0  0  0  0  0  0  0  0
   -0.9668   -0.0801   -0.4295 C   0  0  0  0  0  0  0  0  0  0  0  0
   -1.5177   -0.1030   -1.7324 O   0  0  0  0  0  0  0  0  0  0  0  0
   -1.6950    0.6718    0.5823 C   0  0  0  0  0  0  0  0  0  0  0  0
   -1.7655   -0.8229    0.6471 C   0  0  0  0  0  0  0  0  0  0  0  0
    2.7372    1.0836    0.8979 H   0  0  0  0  0  0  0  0  0  0  0  0
    3.0430   -0.4683   -0.1038 H   0  0  0  0  0  0  0  0  0  0  0  0
    1.0116    1.8026   -0.6982 H   0  0  0  0  0  0  0  0  0  0  0  0
    1.8587    0.6308   -1.8177 H   0  0  0  0  0  0  0  0  0  0  0  0
    0.8179   -1.2801   -0.9385 H   0  0  0  0  0  0  0  0  0  0  0  0
   -2.0308   -0.9321   -1.8923 H   0  0  0  0  0  0  0  0  0  0  0  0
   -1.1695    1.2381    1.3762 H   0  0  0  0  0  0  0  0  0  0  0  0
   -2.6656    1.1478    0.2931 H   0  0  0  0  0  0  0  0  0  0  0  0
   -1.2379   -1.3177    1.4606 H   0  0  0  0  0  0  0  0  0  0  0  0
   -2.6771   -1.3496    0.2982 H   0  0  0  0  0  0  0  0  0  0  0  0
  1  2  2  0
  2  3  1  0
  3  4  1  0
  4  5  1  0
  5  6  1  0
  6  7  1  0
  6  8  1  0
  8  9  1  0
  5  2  1  0
  9  6  1  0
  3 10  1  0
  3 11  1  0
  4 12  1  0
  4 13  1  0
  5 14  1  0
  7 15  1  0
  8 16  1  0
  8 17  1  0
  9 18  1  0
  9 19  1  0
M  END
