
     RDKit          3D

 15 16  0  0  0  0  0  0  0  0999 V2000
    2.7957   -0.5051   -0.7103 O   0  0  0  0  0  0  0  0  0  0  0  0
    1.7708   -0.3138   -0.0163 C   0  0  0  0  0  0  0  0  0  0  0  0
    1.2593   -0.9882    1.0802 O   0  0  0  0  0  0  0  0  0  0  0  0
    0.0335   -0.2865    1.0167 C   0  0  0  0  0  0  0  0  0  0  0  0
   -1.0530   -1.0294    0.3136 C   0  0  0  0  0  0  0  0  0  0  0  0
   -1.2199   -0.3082   -0.9672 C   0  0  0  0  0  0  0  0  0  0  0  0
   -0.2676    0.6046   -1.1214 C   0  0  0  0  0  0  0  0  0  0  0  0
    0.6651    0.6354    0.0087 C   0  0  0  0  0  0  0  0  0  0  0  0
    1.0488    1.8766    0.4777 O   0  0  0  0  0  0  0  0  0  0  0  0
   -0.2764    0.1944    1.9714 H   0  0  0  0  0  0  0  0  0  0  0  0
   -1.9979   -0.9969    0.8962 H   0  0  0  0  0  0  0  0  0  0  0  0
   -0.7876   -2.0793    0.0756 H   0  0  0  0  0  0  0  0  0  0  0  0
   -2.0461   -0.5426   -1.6610 H   0  0  0  0  0  0  0  0  0  0  0  0
   -0.2110    1.2414   -1.9952 H   0  0  0  0  0  0  0  0  0  0  0  0
    0.2862    2.4976    0.6312 H   0  0  0  0  0  0  0  0  0  0  0  0
  1  2  2  0
  2  3  1  0
  3  4  1  0
  4  5  1  0
  5  6  1  0
  6  7  2  0
  7  8  1  0
  8  9  1  0
  8  2  1  0
  8  4  1  0
  4 10  1  0
  5 11  1  0
  5 12  1  0
  6 13  1  0
  7 14  1  0
  9 15  1  0
M  END
