
     RDKit          3D

 19 19  0  0  0  0  0  0  0  0999 V2000
   -2.9971    0.4626   -0.5635 O   0  0  0  0  0  0  0  0  0  0  0  0
   -1.9016    0.1112   -0.1760 C   0  0  0  0  0  0  0  0  0  0  0  0
   -1.3997   -1.2872   -0.1613 C   0  0  0  0  0  0  0  0  0  0  0  0
    0.0579   -1.1860    0.2177 C   0  0  0  0  0  0  0  0  0  0  0  0
    0.4032    0.2542    0.3432 C   0  0  0  0  0  0  0  0  0  0  0  0
    1.1191    0.4452    1.5113 O   0  0  0  0  0  0  0  0  0  0  0  0
    1.3050    0.6555   -0.8121 C   0  0  0  0  0  0  0  0  0  0  0  0
    2.4242   -0.1744   -0.7455 O   0  0  0  0  0  0  0  0  0  0  0  0
   -0.8790    1.0495    0.3525 C   0  0  0  0  0  0  0  0  0  0  0  0
   -1.9458   -1.8702    0.6101 H   0  0  0  0  0  0  0  0  0  0  0  0
   -1.5479   -1.7686   -1.1606 H   0  0  0  0  0  0  0  0  0  0  0  0
    0.2433   -1.7686    1.1437 H   0  0  0  0  0  0  0  0  0  0  0  0
    0.6821   -1.6804   -0.5765 H   0  0  0  0  0  0  0  0  0  0  0  0
    1.0683    1.3396    1.8840 H   0  0  0  0  0  0  0  0  0  0  0  0
    1.5949    1.7378   -0.7157 H   0  0  0  0  0  0  0  0  0  0  0  0
    0.7966    0.5702   -1.7931 H   0  0  0  0  0  0  0  0  0  0  0  0
    2.9832   -0.1292   -1.5451 H   0  0  0  0  0  0  0  0  0  0  0  0
   -0.8602    1.9230   -0.3001 H   0  0  0  0  0  0  0  0  0  0  0  0
   -1.1467    1.3159    1.4142 H   0  0  0  0  0  0  0  0  0  0  0  0
  1  2  2  0
  2  3  1  0
  3  4  1  0
  4  5  1  0
  5  6  1  0
  5  7  1  0
  7  8  1  0
  5  9  1  0
  9  2  1  0
  3 10  1  0
  3 11  1  0
  4 12  1  0
  4 13  1  0
  6 14  1  0
  7 15  1  0
  7 16  1  0
  8 17  1  0
  9 18  1  0
  9 19  1  0
M  END
