
     RDKit          3D

 15 17  0  0  0  0  0  0  0  0999 V2000
    2.5572   -1.0055    0.6550 O   0  0  0  0  0  0  0  0  0  0  0  0
    1.7154   -0.2156    0.0975 C   0  0  0  0  0  0  0  0  0  0  0  0
    1.6710    1.1974    0.2038 O   0  0  0  0  0  0  0  0  0  0  0  0
    0.2363    1.4200    0.3189 C   0  0  0  0  0  0  0  0  0  0  0  0
   -0.6748    0.4048    0.8031 C   0  0  0  0  0  0  0  0  0  0  0  0
   -1.3950   -0.8022    0.2574 C   0  0  0  0  0  0  0  0  0  0  0  0
   -0.2886   -1.5370   -0.2488 O   0  0  0  0  0  0  0  0  0  0  0  0
    0.5931   -0.6274   -0.7915 C   0  0  0  0  0  0  0  0  0  0  0  0
   -0.2284    0.6346   -0.6803 C   0  0  0  0  0  0  0  0  0  0  0  0
   -0.0030    2.4809    0.4751 H   0  0  0  0  0  0  0  0  0  0  0  0
   -0.0230   -0.0929    1.5712 H   0  0  0  0  0  0  0  0  0  0  0  0
   -2.1361   -0.5806   -0.5318 H   0  0  0  0  0  0  0  0  0  0  0  0
   -1.9280   -1.3061    1.0524 H   0  0  0  0  0  0  0  0  0  0  0  0
    0.9140   -0.8525   -1.8110 H   0  0  0  0  0  0  0  0  0  0  0  0
   -1.0101    0.8819   -1.3709 H   0  0  0  0  0  0  0  0  0  0  0  0
  1  2  2  0
  2  3  1  0
  3  4  1  0
  4  5  1  0
  5  6  1  0
  6  7  1  0
  7  8  1  0
  8  9  1  0
  8  2  1  0
  9  4  1  0
  9  5  1  0
  4 10  1  0
  5 11  1  0
  6 12  1  0
  6 13  1  0
  8 14  1  0
  9 15  1  0
M  END
