
     RDKit          3D

 14 14  0  0  0  0  0  0  0  0999 V2000
    1.7037   -1.7903   -0.8013 O   0  0  0  0  0  0  0  0  0  0  0  0
    1.0775   -0.8730   -0.1667 C   0  0  0  0  0  0  0  0  0  0  0  0
   -0.2328   -1.0925    0.4722 C   0  0  0  0  0  0  0  0  0  0  0  0
   -1.1957    0.0378    0.2421 C   0  0  0  0  0  0  0  0  0  0  0  0
   -0.5574    1.2540   -0.3639 C   0  0  0  0  0  0  0  0  0  0  0  0
    0.7506    1.5012    0.1780 O   0  0  0  0  0  0  0  0  0  0  0  0
    1.6628    0.4689   -0.0515 C   0  0  0  0  0  0  0  0  0  0  0  0
    2.8959    0.6369   -0.1570 O   0  0  0  0  0  0  0  0  0  0  0  0
   -0.6453   -2.0445    0.0654 H   0  0  0  0  0  0  0  0  0  0  0  0
   -0.0732   -1.2980    1.5671 H   0  0  0  0  0  0  0  0  0  0  0  0
   -1.7553    0.2748    1.1806 H   0  0  0  0  0  0  0  0  0  0  0  0
   -1.9813   -0.3051   -0.4893 H   0  0  0  0  0  0  0  0  0  0  0  0
   -1.1600    2.1447   -0.1983 H   0  0  0  0  0  0  0  0  0  0  0  0
   -0.4892    1.0851   -1.4773 H   0  0  0  0  0  0  0  0  0  0  0  0
  1  2  2  0
  2  3  1  0
  3  4  1  0
  4  5  1  0
  5  6  1  0
  6  7  1  0
  7  8  2  0
  7  2  1  0
  3  9  1  0
  3 10  1  0
  4 11  1  0
  4 12  1  0
  5 13  1  0
  5 14  1  0
M  END
