
     RDKit          3D

 17 18  0  0  0  0  0  0  0  0999 V2000
    1.7455   -2.2368    0.0759 O   0  0  0  0  0  0  0  0  0  0  0  0
    1.1920   -1.1375    0.3040 C   0  0  0  0  0  0  0  0  0  0  0  0
    1.9084    0.1064   -0.0073 C   0  0  0  0  0  0  0  0  0  0  0  0
    1.1324    1.1891   -0.0764 C   0  0  0  0  0  0  0  0  0  0  0  0
   -0.2024    1.1451    0.5441 C   0  0  0  0  0  0  0  0  0  0  0  0
   -1.2701    0.6627   -0.3877 C   0  0  0  0  0  0  0  0  0  0  0  0
   -1.2289   -0.8445   -0.1733 C   0  0  0  0  0  0  0  0  0  0  0  0
   -0.1656   -0.9942    0.8788 C   0  0  0  0  0  0  0  0  0  0  0  0
   -0.2682    0.2061    1.5841 O   0  0  0  0  0  0  0  0  0  0  0  0
    2.9767    0.1443   -0.1677 H   0  0  0  0  0  0  0  0  0  0  0  0
    1.4938    2.0691   -0.5811 H   0  0  0  0  0  0  0  0  0  0  0  0
   -0.4181    2.1261    1.0021 H   0  0  0  0  0  0  0  0  0  0  0  0
   -1.0867    0.9205   -1.4439 H   0  0  0  0  0  0  0  0  0  0  0  0
   -2.2746    1.0273   -0.0354 H   0  0  0  0  0  0  0  0  0  0  0  0
   -0.9709   -1.3333   -1.1330 H   0  0  0  0  0  0  0  0  0  0  0  0
   -2.2166   -1.2190    0.1722 H   0  0  0  0  0  0  0  0  0  0  0  0
   -0.3465   -1.8314    1.5756 H   0  0  0  0  0  0  0  0  0  0  0  0
  1  2  2  0
  2  3  1  0
  3  4  2  0
  4  5  1  0
  5  6  1  0
  6  7  1  0
  7  8  1  0
  8  9  1  0
  8  2  1  0
  9  5  1  0
  3 10  1  0
  4 11  1  0
  5 12  1  0
  6 13  1  0
  6 14  1  0
  7 15  1  0
  7 16  1  0
  8 17  1  0
M  END
