
     RDKit          3D

 15 16  0  0  0  0  0  0  0  0999 V2000
   -2.9234   -1.2465   -0.7188 O   0  0  0  0  0  0  0  0  0  0  0  0
   -1.7191   -0.9919   -0.4604 C   0  0  0  0  0  0  0  0  0  0  0  0
   -0.5188   -1.7101   -0.4156 O   0  0  0  0  0  0  0  0  0  0  0  0
    0.2104   -0.6366    0.1014 C   0  0  0  0  0  0  0  0  0  0  0  0
    1.5886   -0.3560   -0.3829 C   0  0  0  0  0  0  0  0  0  0  0  0
    2.1198    0.7451    0.2605 O   0  0  0  0  0  0  0  0  0  0  0  0
   -0.2882    0.1563    1.2473 C   0  0  0  0  0  0  0  0  0  0  0  0
   -0.9441    0.2062   -0.0677 C   0  0  0  0  0  0  0  0  0  0  0  0
   -1.0128    1.3623   -0.7915 O   0  0  0  0  0  0  0  0  0  0  0  0
    2.2371   -1.2303   -0.0795 H   0  0  0  0  0  0  0  0  0  0  0  0
    1.6489   -0.3069   -1.4730 H   0  0  0  0  0  0  0  0  0  0  0  0
    2.0285    1.5705   -0.2778 H   0  0  0  0  0  0  0  0  0  0  0  0
    0.3356    0.9927    1.5772 H   0  0  0  0  0  0  0  0  0  0  0  0
   -0.8466   -0.3242    2.0877 H   0  0  0  0  0  0  0  0  0  0  0  0
   -1.9161    1.7695   -0.6070 H   0  0  0  0  0  0  0  0  0  0  0  0
  1  2  2  0
  2  3  1  0
  3  4  1  0
  4  5  1  0
  5  6  1  0
  4  7  1  0
  7  8  1  0
  8  9  1  0
  8  2  1  0
  8  4  1  0
  5 10  1  0
  5 11  1  0
  6 12  1  0
  7 13  1  0
  7 14  1  0
  9 15  1  0
M  END
