
     RDKit          3D

 14 15  0  0  0  0  0  0  0  0999 V2000
    1.3772    2.2819    0.0556 O   0  0  0  0  0  0  0  0  0  0  0  0
    0.6764    1.2600    0.2331 C   0  0  0  0  0  0  0  0  0  0  0  0
    0.3460    0.5981    1.4316 O   0  0  0  0  0  0  0  0  0  0  0  0
   -0.4208   -0.4915    0.9702 C   0  0  0  0  0  0  0  0  0  0  0  0
   -1.3472    0.2054   -0.0351 C   0  0  0  0  0  0  0  0  0  0  0  0
   -0.0133    0.4431   -0.7619 C   0  0  0  0  0  0  0  0  0  0  0  0
    0.3259   -0.9602   -0.2789 C   0  0  0  0  0  0  0  0  0  0  0  0
    1.6589   -1.2222   -0.0977 O   0  0  0  0  0  0  0  0  0  0  0  0
   -0.8263   -1.2012    1.6254 H   0  0  0  0  0  0  0  0  0  0  0  0
   -1.9607   -0.4637   -0.6365 H   0  0  0  0  0  0  0  0  0  0  0  0
   -1.7789    1.1354    0.3317 H   0  0  0  0  0  0  0  0  0  0  0  0
   -0.0264    0.6596   -1.7822 H   0  0  0  0  0  0  0  0  0  0  0  0
   -0.2812   -1.7540   -0.7687 H   0  0  0  0  0  0  0  0  0  0  0  0
    2.2702   -0.4906   -0.2867 H   0  0  0  0  0  0  0  0  0  0  0  0
  1  2  2  0
  2  3  1  0
  3  4  1  0
  4  5  1  0
  5  6  1  0
  6  7  1  0
  7  8  1  0
  6  2  1  0
  7  4  1  0
  4  9  1  0
  5 10  1  0
  5 11  1  0
  6 12  1  0
  7 13  1  0
  8 14  1  0
M  END
