
     RDKit          3D

 17 18  0  0  0  0  0  0  0  0999 V2000
    2.0157    2.1153    0.0981 O   0  0  0  0  0  0  0  0  0  0  0  0
    1.1605    1.2166    0.1078 C   0  0  0  0  0  0  0  0  0  0  0  0
    1.6996   -0.1449    0.2786 C   0  0  0  0  0  0  0  0  0  0  0  0
    0.8745   -1.0424   -0.5677 C   0  0  0  0  0  0  0  0  0  0  0  0
    0.3310   -2.2143   -0.2542 O   0  0  0  0  0  0  0  0  0  0  0  0
   -0.4220   -1.2264    0.2470 C   0  0  0  0  0  0  0  0  0  0  0  0
   -1.4358   -0.4094   -0.4416 C   0  0  0  0  0  0  0  0  0  0  0  0
   -1.3871    0.9945    0.1771 C   0  0  0  0  0  0  0  0  0  0  0  0
   -0.1413    1.6277   -0.0407 O   0  0  0  0  0  0  0  0  0  0  0  0
    1.6193   -0.3776    1.3772 H   0  0  0  0  0  0  0  0  0  0  0  0
    2.7863   -0.1893    0.0604 H   0  0  0  0  0  0  0  0  0  0  0  0
    0.7819   -0.7148   -1.6202 H   0  0  0  0  0  0  0  0  0  0  0  0
   -0.3830   -1.0995    1.3415 H   0  0  0  0  0  0  0  0  0  0  0  0
   -2.4507   -0.7921   -0.2091 H   0  0  0  0  0  0  0  0  0  0  0  0
   -1.2659   -0.2646   -1.5311 H   0  0  0  0  0  0  0  0  0  0  0  0
   -1.6156    0.9238    1.2614 H   0  0  0  0  0  0  0  0  0  0  0  0
   -2.1673    1.5974   -0.2846 H   0  0  0  0  0  0  0  0  0  0  0  0
  1  2  2  0
  2  3  1  0
  3  4  1  0
  4  5  1  0
  5  6  1  0
  6  7  1  0
  7  8  1  0
  8  9  1  0
  9  2  1  0
  6  4  1  0
  3 10  1  0
  3 11  1  0
  4 12  1  0
  6 13  1  0
  7 14  1  0
  7 15  1  0
  8 16  1  0
  8 17  1  0
M  END
