
     RDKit          3D

 16 17  0  0  0  0  0  0  0  0999 V2000
   -1.2833    2.0141   -1.2282 O   0  0  0  0  0  0  0  0  0  0  0  0
   -0.5627    1.4061   -0.4024 C   0  0  0  0  0  0  0  0  0  0  0  0
    0.7874    1.6532   -0.3817 O   0  0  0  0  0  0  0  0  0  0  0  0
    1.7177    0.6010   -0.2630 C   0  0  0  0  0  0  0  0  0  0  0  0
    0.9263   -0.6830   -0.2955 C   0  0  0  0  0  0  0  0  0  0  0  0
   -0.1945   -0.6875    0.7118 C   0  0  0  0  0  0  0  0  0  0  0  0
   -1.5548   -0.9163    0.1510 C   0  0  0  0  0  0  0  0  0  0  0  0
   -1.1536    0.4548    0.5177 C   0  0  0  0  0  0  0  0  0  0  0  0
    2.3529    0.6399   -1.1816 H   0  0  0  0  0  0  0  0  0  0  0  0
    2.3075    0.6226    0.6512 H   0  0  0  0  0  0  0  0  0  0  0  0
    0.5654   -0.8881   -1.3232 H   0  0  0  0  0  0  0  0  0  0  0  0
    1.6127   -1.5033   -0.0331 H   0  0  0  0  0  0  0  0  0  0  0  0
    0.0392   -0.9519    1.7611 H   0  0  0  0  0  0  0  0  0  0  0  0
   -1.6319   -1.2582   -0.9008 H   0  0  0  0  0  0  0  0  0  0  0  0
   -2.2778   -1.4167    0.8212 H   0  0  0  0  0  0  0  0  0  0  0  0
   -1.6507    0.9133    1.3955 H   0  0  0  0  0  0  0  0  0  0  0  0
  1  2  2  0
  2  3  1  0
  3  4  1  0
  4  5  1  0
  5  6  1  0
  6  7  1  0
  7  8  1  0
  8  2  1  0
  8  6  1  0
  4  9  1  0
  4 10  1  0
  5 11  1  0
  5 12  1  0
  6 13  1  0
  7 14  1  0
  7 15  1  0
  8 16  1  0
M  END
