
     RDKit          3D

 14 15  0  0  0  0  0  0  0  0999 V2000
   -0.1007   -2.1041    1.3476 O   0  0  0  0  0  0  0  0  0  0  0  0
   -0.2599   -1.1945    0.5513 C   0  0  0  0  0  0  0  0  0  0  0  0
   -1.3411   -0.6655   -0.3452 C   0  0  0  0  0  0  0  0  0  0  0  0
   -0.6088    0.6847   -0.2761 C   0  0  0  0  0  0  0  0  0  0  0  0
   -1.0948    1.3835    0.8240 O   0  0  0  0  0  0  0  0  0  0  0  0
    0.5793   -0.1133    0.0556 C   0  0  0  0  0  0  0  0  0  0  0  0
    1.9049    0.1427    0.1467 C   0  0  0  0  0  0  0  0  0  0  0  0
    1.3923   -0.5182   -1.0691 O   0  0  0  0  0  0  0  0  0  0  0  0
   -1.2842   -1.1406   -1.3475 H   0  0  0  0  0  0  0  0  0  0  0  0
   -2.3363   -0.6216    0.0877 H   0  0  0  0  0  0  0  0  0  0  0  0
   -0.6044    1.2415   -1.2249 H   0  0  0  0  0  0  0  0  0  0  0  0
   -1.2279    2.3426    0.6457 H   0  0  0  0  0  0  0  0  0  0  0  0
    2.6023   -0.5229    0.7329 H   0  0  0  0  0  0  0  0  0  0  0  0
    2.3793    1.0855   -0.1287 H   0  0  0  0  0  0  0  0  0  0  0  0
  1  2  2  0
  2  3  1  0
  3  4  1  0
  4  5  1  0
  4  6  1  0
  6  7  1  0
  7  8  1  0
  6  2  1  0
  8  6  1  0
  3  9  1  0
  3 10  1  0
  4 11  1  0
  5 12  1  0
  7 13  1  0
  7 14  1  0
M  END
