
     RDKit          3D

 19 19  0  0  0  0  0  0  0  0999 V2000
   -0.7697   -1.9723    1.3436 O   0  0  0  0  0  0  0  0  0  0  0  0
   -0.5113   -1.3123    0.3448 C   0  0  0  0  0  0  0  0  0  0  0  0
   -1.6819   -0.5768   -0.2320 C   0  0  0  0  0  0  0  0  0  0  0  0
   -1.5768    0.8493    0.2702 C   0  0  0  0  0  0  0  0  0  0  0  0
   -0.4936    1.5345   -0.4641 C   0  0  0  0  0  0  0  0  0  0  0  0
    0.7806    1.1716   -0.5590 C   0  0  0  0  0  0  0  0  0  0  0  0
    1.5541    0.0389   -0.0164 C   0  0  0  0  0  0  0  0  0  0  0  0
    1.7959    0.2808    1.3299 O   0  0  0  0  0  0  0  0  0  0  0  0
    0.8573   -1.2928   -0.1848 C   0  0  0  0  0  0  0  0  0  0  0  0
   -1.6016   -0.6019   -1.3532 H   0  0  0  0  0  0  0  0  0  0  0  0
   -2.6439   -1.0181    0.1010 H   0  0  0  0  0  0  0  0  0  0  0  0
   -1.2812    0.8375    1.3465 H   0  0  0  0  0  0  0  0  0  0  0  0
   -2.5330    1.4043    0.1572 H   0  0  0  0  0  0  0  0  0  0  0  0
   -0.7917    2.4574   -0.9932 H   0  0  0  0  0  0  0  0  0  0  0  0
    1.3576    1.8615   -1.1633 H   0  0  0  0  0  0  0  0  0  0  0  0
    2.5223   -0.0463   -0.5515 H   0  0  0  0  0  0  0  0  0  0  0  0
    2.6909   -0.0121    1.6222 H   0  0  0  0  0  0  0  0  0  0  0  0
    0.8124   -1.5455   -1.2715 H   0  0  0  0  0  0  0  0  0  0  0  0
    1.5136   -2.0576    0.2736 H   0  0  0  0  0  0  0  0  0  0  0  0
  1  2  2  0
  2  3  1  0
  3  4  1  0
  4  5  1  0
  5  6  2  0
  6  7  1  0
  7  8  1  0
  7  9  1  0
  9  2  1  0
  3 10  1  0
  3 11  1  0
  4 12  1  0
  4 13  1  0
  5 14  1  0
  6 15  1  0
  7 16  1  0
  8 17  1  0
  9 18  1  0
  9 19  1  0
M  END
