
     RDKit          3D

 14 14  0  0  0  0  0  0  0  0999 V2000
    2.3955   -1.5605    0.2583 O   0  0  0  0  0  0  0  0  0  0  0  0
    1.3650   -0.8654    0.1087 C   0  0  0  0  0  0  0  0  0  0  0  0
    1.4460    0.6084    0.0388 C   0  0  0  0  0  0  0  0  0  0  0  0
    0.3848    1.3710   -0.1178 C   0  0  0  0  0  0  0  0  0  0  0  0
   -0.9935    0.8327   -0.2397 C   0  0  0  0  0  0  0  0  0  0  0  0
   -1.1460   -0.5702    0.2421 C   0  0  0  0  0  0  0  0  0  0  0  0
    0.0245   -1.4285   -0.0076 C   0  0  0  0  0  0  0  0  0  0  0  0
   -0.0603   -2.6443   -0.3220 O   0  0  0  0  0  0  0  0  0  0  0  0
    2.4355    1.0643    0.1226 H   0  0  0  0  0  0  0  0  0  0  0  0
    0.4976    2.4447   -0.1628 H   0  0  0  0  0  0  0  0  0  0  0  0
   -1.6548    1.4972    0.3535 H   0  0  0  0  0  0  0  0  0  0  0  0
   -1.2805    0.8708   -1.3171 H   0  0  0  0  0  0  0  0  0  0  0  0
   -2.0345   -1.0177   -0.2950 H   0  0  0  0  0  0  0  0  0  0  0  0
   -1.3794   -0.6024    1.3380 H   0  0  0  0  0  0  0  0  0  0  0  0
  1  2  2  0
  2  3  1  0
  3  4  2  0
  4  5  1  0
  5  6  1  0
  6  7  1  0
  7  8  2  0
  7  2  1  0
  3  9  1  0
  4 10  1  0
  5 11  1  0
  5 12  1  0
  6 13  1  0
  6 14  1  0
M  END
