
     RDKit          3D

 19 20  0  0  0  0  0  0  0  0999 V2000
   -0.3856    2.2349   -0.5521 O   0  0  0  0  0  0  0  0  0  0  0  0
    0.1034    1.1686   -0.2510 C   0  0  0  0  0  0  0  0  0  0  0  0
    1.5771    1.0154   -0.3179 C   0  0  0  0  0  0  0  0  0  0  0  0
    1.8924   -0.4177   -0.6982 C   0  0  0  0  0  0  0  0  0  0  0  0
    1.2829   -1.2821    0.3502 C   0  0  0  0  0  0  0  0  0  0  0  0
    0.0414   -1.0399    0.7397 C   0  0  0  0  0  0  0  0  0  0  0  0
   -0.7666    0.0627    0.1695 C   0  0  0  0  0  0  0  0  0  0  0  0
   -2.0481   -0.2330   -0.5140 C   0  0  0  0  0  0  0  0  0  0  0  0
   -2.0694    0.3657    0.8449 C   0  0  0  0  0  0  0  0  0  0  0  0
    1.9633    1.1488    0.7210 H   0  0  0  0  0  0  0  0  0  0  0  0
    2.0492    1.7094   -1.0394 H   0  0  0  0  0  0  0  0  0  0  0  0
    1.3802   -0.6786   -1.6714 H   0  0  0  0  0  0  0  0  0  0  0  0
    2.9886   -0.5570   -0.7688 H   0  0  0  0  0  0  0  0  0  0  0  0
    1.8380   -2.1140    0.8068 H   0  0  0  0  0  0  0  0  0  0  0  0
   -0.3899   -1.6735    1.5003 H   0  0  0  0  0  0  0  0  0  0  0  0
   -2.3187   -1.2998   -0.6407 H   0  0  0  0  0  0  0  0  0  0  0  0
   -2.4064    0.4297   -1.3277 H   0  0  0  0  0  0  0  0  0  0  0  0
   -2.2834    1.4396    0.9852 H   0  0  0  0  0  0  0  0  0  0  0  0
   -2.4483   -0.2791    1.6634 H   0  0  0  0  0  0  0  0  0  0  0  0
  1  2  2  0
  2  3  1  0
  3  4  1  0
  4  5  1  0
  5  6  2  0
  6  7  1  0
  7  8  1  0
  8  9  1  0
  7  2  1  0
  9  7  1  0
  3 10  1  0
  3 11  1  0
  4 12  1  0
  4 13  1  0
  5 14  1  0
  6 15  1  0
  8 16  1  0
  8 17  1  0
  9 18  1  0
  9 19  1  0
M  END
