
     RDKit          3D

 15 15  0  0  0  0  0  0  0  0999 V2000
    1.5021    2.2986   -0.2945 O   0  0  0  0  0  0  0  0  0  0  0  0
    0.9101    1.2665    0.0632 C   0  0  0  0  0  0  0  0  0  0  0  0
   -0.4726    1.1587    0.5348 C   0  0  0  0  0  0  0  0  0  0  0  0
   -1.2304    0.1334   -0.2624 C   0  0  0  0  0  0  0  0  0  0  0  0
   -0.5669   -1.1967   -0.3638 C   0  0  0  0  0  0  0  0  0  0  0  0
    0.8215   -1.2383    0.1181 C   0  0  0  0  0  0  0  0  0  0  0  0
    1.3703   -2.2588    0.6085 O   0  0  0  0  0  0  0  0  0  0  0  0
    1.6345   -0.0156    0.0278 C   0  0  0  0  0  0  0  0  0  0  0  0
    2.8897   -0.0761   -0.0745 O   0  0  0  0  0  0  0  0  0  0  0  0
   -0.4247    0.7457    1.5858 H   0  0  0  0  0  0  0  0  0  0  0  0
   -1.0459    2.0981    0.4976 H   0  0  0  0  0  0  0  0  0  0  0  0
   -2.2329    0.0045    0.1995 H   0  0  0  0  0  0  0  0  0  0  0  0
   -1.4275    0.5776   -1.2735 H   0  0  0  0  0  0  0  0  0  0  0  0
   -1.1974   -2.0136    0.0908 H   0  0  0  0  0  0  0  0  0  0  0  0
   -0.5299   -1.4839   -1.4575 H   0  0  0  0  0  0  0  0  0  0  0  0
  1  2  2  0
  2  3  1  0
  3  4  1  0
  4  5  1  0
  5  6  1  0
  6  7  2  0
  6  8  1  0
  8  9  2  0
  8  2  1  0
  3 10  1  0
  3 11  1  0
  4 12  1  0
  4 13  1  0
  5 14  1  0
  5 15  1  0
M  END
