
     RDKit          3D

 15 16  0  0  0  0  0  0  0  0999 V2000
   -1.3902   -1.0486    2.2150 O   0  0  0  0  0  0  0  0  0  0  0  0
   -0.6969   -0.5231    1.3368 C   0  0  0  0  0  0  0  0  0  0  0  0
    0.4595    0.2429    1.6110 O   0  0  0  0  0  0  0  0  0  0  0  0
    1.0344    0.7298    0.3828 C   0  0  0  0  0  0  0  0  0  0  0  0
    1.2944   -0.5159   -0.4496 C   0  0  0  0  0  0  0  0  0  0  0  0
    0.1511   -1.2070   -0.7617 O   0  0  0  0  0  0  0  0  0  0  0  0
   -0.9679   -0.6136   -0.1299 C   0  0  0  0  0  0  0  0  0  0  0  0
   -0.9998    0.8012   -0.7243 C   0  0  0  0  0  0  0  0  0  0  0  0
    0.0384    1.5213   -0.1968 O   0  0  0  0  0  0  0  0  0  0  0  0
    1.9551    1.2738    0.5367 H   0  0  0  0  0  0  0  0  0  0  0  0
    1.9349   -0.2980   -1.3266 H   0  0  0  0  0  0  0  0  0  0  0  0
    1.9086   -1.1834    0.2199 H   0  0  0  0  0  0  0  0  0  0  0  0
   -1.8854   -1.1648   -0.3058 H   0  0  0  0  0  0  0  0  0  0  0  0
   -1.9924    1.2683   -0.5859 H   0  0  0  0  0  0  0  0  0  0  0  0
   -0.8438    0.7172   -1.8217 H   0  0  0  0  0  0  0  0  0  0  0  0
  1  2  2  0
  2  3  1  0
  3  4  1  0
  4  5  1  0
  5  6  1  0
  6  7  1  0
  7  8  1  0
  8  9  1  0
  7  2  1  0
  9  4  1  0
  4 10  1  0
  5 11  1  0
  5 12  1  0
  7 13  1  0
  8 14  1  0
  8 15  1  0
M  END
