
     RDKit          3D

 17 18  0  0  0  0  0  0  0  0999 V2000
   -3.1853    1.0593    0.1518 O   0  0  0  0  0  0  0  0  0  0  0  0
   -2.1000    0.4273    0.1069 C   0  0  0  0  0  0  0  0  0  0  0  0
   -1.8437   -0.7880   -0.6523 C   0  0  0  0  0  0  0  0  0  0  0  0
   -0.5418   -0.9804   -0.7384 C   0  0  0  0  0  0  0  0  0  0  0  0
    0.1851    0.1000   -0.0371 C   0  0  0  0  0  0  0  0  0  0  0  0
    1.4279   -0.3238    0.6886 C   0  0  0  0  0  0  0  0  0  0  0  0
    2.0614    0.2934   -0.5113 C   0  0  0  0  0  0  0  0  0  0  0  0
    0.8660    0.9003   -0.9175 O   0  0  0  0  0  0  0  0  0  0  0  0
   -0.8550    0.7969    0.8240 C   0  0  0  0  0  0  0  0  0  0  0  0
   -2.6196   -1.4469   -1.0888 H   0  0  0  0  0  0  0  0  0  0  0  0
   -0.0695   -1.7999   -1.2425 H   0  0  0  0  0  0  0  0  0  0  0  0
    1.4617   -1.4365    0.7522 H   0  0  0  0  0  0  0  0  0  0  0  0
    1.5572    0.2055    1.6458 H   0  0  0  0  0  0  0  0  0  0  0  0
    2.4195   -0.3833   -1.2925 H   0  0  0  0  0  0  0  0  0  0  0  0
    2.8066    1.0984   -0.3162 H   0  0  0  0  0  0  0  0  0  0  0  0
   -0.6701    1.8861    0.7905 H   0  0  0  0  0  0  0  0  0  0  0  0
   -0.9004    0.3915    1.8367 H   0  0  0  0  0  0  0  0  0  0  0  0
  1  2  2  0
  2  3  1  0
  3  4  2  0
  4  5  1  0
  5  6  1  0
  6  7  1  0
  7  8  1  0
  5  9  1  0
  9  2  1  0
  8  5  1  0
  3 10  1  0
  4 11  1  0
  6 12  1  0
  6 13  1  0
  7 14  1  0
  7 15  1  0
  9 16  1  0
  9 17  1  0
M  END
