
     RDKit          3D

 17 19  0  0  0  0  0  0  0  0999 V2000
    0.1500   -2.6440   -0.3490 O   0  0  0  0  0  0  0  0  0  0  0  0
   -0.1099   -1.4587   -0.3007 C   0  0  0  0  0  0  0  0  0  0  0  0
   -1.3755   -0.7038   -0.4536 C   0  0  0  0  0  0  0  0  0  0  0  0
   -1.7666    0.1513    0.7170 C   0  0  0  0  0  0  0  0  0  0  0  0
   -0.6331    0.6174   -0.1479 C   0  0  0  0  0  0  0  0  0  0  0  0
   -0.7881    1.6662   -1.0082 O   0  0  0  0  0  0  0  0  0  0  0  0
    0.5954   -0.2098   -0.0862 C   0  0  0  0  0  0  0  0  0  0  0  0
    1.5817    0.0484    0.9525 C   0  0  0  0  0  0  0  0  0  0  0  0
    1.9034    0.1461   -0.5482 C   0  0  0  0  0  0  0  0  0  0  0  0
   -1.9736   -0.7611   -1.3571 H   0  0  0  0  0  0  0  0  0  0  0  0
   -2.6659    0.7698    0.6751 H   0  0  0  0  0  0  0  0  0  0  0  0
   -1.5174   -0.3274    1.7033 H   0  0  0  0  0  0  0  0  0  0  0  0
   -1.7326    1.9943   -0.9155 H   0  0  0  0  0  0  0  0  0  0  0  0
    1.5466    1.0519    1.4384 H   0  0  0  0  0  0  0  0  0  0  0  0
    2.0066   -0.7746    1.5298 H   0  0  0  0  0  0  0  0  0  0  0  0
    2.5897   -0.6812   -0.8869 H   0  0  0  0  0  0  0  0  0  0  0  0
    2.1895    1.1153   -0.9629 H   0  0  0  0  0  0  0  0  0  0  0  0
  1  2  2  0
  2  3  1  0
  3  4  1  0
  4  5  1  0
  5  6  1  0
  5  7  1  0
  7  8  1  0
  8  9  1  0
  7  2  1  0
  5  3  1  0
  9  7  1  0
  3 10  1  0
  4 11  1  0
  4 12  1  0
  6 13  1  0
  8 14  1  0
  8 15  1  0
  9 16  1  0
  9 17  1  0
M  END
