
     RDKit          3D

 17 17  0  0  0  0  0  0  0  0999 V2000
    0.9833    2.2793   -0.4108 O   0  0  0  0  0  0  0  0  0  0  0  0
    0.1490    1.3474   -0.3231 C   0  0  0  0  0  0  0  0  0  0  0  0
   -1.2189    1.5844   -0.2660 O   0  0  0  0  0  0  0  0  0  0  0  0
   -1.9798    0.5772    0.4041 C   0  0  0  0  0  0  0  0  0  0  0  0
   -1.6670   -0.7797   -0.1307 C   0  0  0  0  0  0  0  0  0  0  0  0
   -0.2255   -1.0081   -0.1896 C   0  0  0  0  0  0  0  0  0  0  0  0
    0.6281   -0.0226   -0.2798 C   0  0  0  0  0  0  0  0  0  0  0  0
    2.1092   -0.2665   -0.3410 C   0  0  0  0  0  0  0  0  0  0  0  0
    2.7825    0.3275    0.6989 O   0  0  0  0  0  0  0  0  0  0  0  0
   -1.6742    0.6058    1.4702 H   0  0  0  0  0  0  0  0  0  0  0  0
   -3.0445    0.8667    0.2537 H   0  0  0  0  0  0  0  0  0  0  0  0
   -2.1288   -1.5174    0.5763 H   0  0  0  0  0  0  0  0  0  0  0  0
   -2.0760   -0.9451   -1.1551 H   0  0  0  0  0  0  0  0  0  0  0  0
    0.1643   -2.0385   -0.1576 H   0  0  0  0  0  0  0  0  0  0  0  0
    2.2811   -1.3385   -0.4534 H   0  0  0  0  0  0  0  0  0  0  0  0
    2.4452    0.2257   -1.2874 H   0  0  0  0  0  0  0  0  0  0  0  0
    2.4721    0.1024    1.5913 H   0  0  0  0  0  0  0  0  0  0  0  0
  1  2  2  0
  2  3  1  0
  3  4  1  0
  4  5  1  0
  5  6  1  0
  6  7  2  0
  7  8  1  0
  8  9  1  0
  7  2  1  0
  4 10  1  0
  4 11  1  0
  5 12  1  0
  5 13  1  0
  6 14  1  0
  8 15  1  0
  8 16  1  0
  9 17  1  0
M  END
