
     RDKit          3D

 19 20  0  0  0  0  0  0  0  0999 V2000
    0.0287   -0.9593   -2.6745 O   0  0  0  0  0  0  0  0  0  0  0  0
    0.2553   -0.6898   -1.5226 C   0  0  0  0  0  0  0  0  0  0  0  0
    0.0188   -1.3277   -0.2081 C   0  0  0  0  0  0  0  0  0  0  0  0
   -1.2626   -0.7548    0.3448 C   0  0  0  0  0  0  0  0  0  0  0  0
   -1.1505    0.7139    0.6132 C   0  0  0  0  0  0  0  0  0  0  0  0
   -0.1136    1.4010   -0.2362 C   0  0  0  0  0  0  0  0  0  0  0  0
    0.8961    0.4331   -0.8112 C   0  0  0  0  0  0  0  0  0  0  0  0
    1.2364   -0.5477    0.2887 C   0  0  0  0  0  0  0  0  0  0  0  0
    1.0992   -0.0733    1.5772 O   0  0  0  0  0  0  0  0  0  0  0  0
    0.1060   -2.4081   -0.1517 H   0  0  0  0  0  0  0  0  0  0  0  0
   -2.0488   -0.9473   -0.4404 H   0  0  0  0  0  0  0  0  0  0  0  0
   -1.5743   -1.3378    1.2410 H   0  0  0  0  0  0  0  0  0  0  0  0
   -1.0199    0.9469    1.7068 H   0  0  0  0  0  0  0  0  0  0  0  0
   -2.1401    1.1731    0.3245 H   0  0  0  0  0  0  0  0  0  0  0  0
   -0.5640    2.0254   -1.0450 H   0  0  0  0  0  0  0  0  0  0  0  0
    0.4557    2.0929    0.4414 H   0  0  0  0  0  0  0  0  0  0  0  0
    1.7271    0.9353   -1.2919 H   0  0  0  0  0  0  0  0  0  0  0  0
    2.1395   -1.1272    0.0600 H   0  0  0  0  0  0  0  0  0  0  0  0
    1.9111    0.4513    1.7840 H   0  0  0  0  0  0  0  0  0  0  0  0
  1  2  2  0
  2  3  1  0
  3  4  1  0
  4  5  1  0
  5  6  1  0
  6  7  1  0
  7  8  1  0
  8  9  1  0
  7  2  1  0
  8  3  1  0
  3 10  1  0
  4 11  1  0
  4 12  1  0
  5 13  1  0
  5 14  1  0
  6 15  1  0
  6 16  1  0
  7 17  1  0
  8 18  1  0
  9 19  1  0
M  END
