
     RDKit          3D

 19 20  0  0  0  0  0  0  0  0999 V2000
    0.3097   -1.8248   -1.9331 O   0  0  0  0  0  0  0  0  0  0  0  0
    0.2622   -1.4009   -0.8040 C   0  0  0  0  0  0  0  0  0  0  0  0
    1.4383   -0.8241   -0.0793 C   0  0  0  0  0  0  0  0  0  0  0  0
    1.1472    0.5580    0.3771 C   0  0  0  0  0  0  0  0  0  0  0  0
    1.5164    1.4297   -0.6743 O   0  0  0  0  0  0  0  0  0  0  0  0
   -0.2294    0.8677    0.7672 C   0  0  0  0  0  0  0  0  0  0  0  0
   -1.1994    1.1541   -0.4153 C   0  0  0  0  0  0  0  0  0  0  0  0
   -1.3097   -0.0285    0.4803 C   0  0  0  0  0  0  0  0  0  0  0  0
   -0.9945   -1.4044    0.0090 C   0  0  0  0  0  0  0  0  0  0  0  0
    1.6049   -1.4828    0.7949 H   0  0  0  0  0  0  0  0  0  0  0  0
    2.3504   -0.8479   -0.7095 H   0  0  0  0  0  0  0  0  0  0  0  0
    1.8520    0.7790    1.2307 H   0  0  0  0  0  0  0  0  0  0  0  0
    1.0507    2.2982   -0.5324 H   0  0  0  0  0  0  0  0  0  0  0  0
   -0.3368    1.6052    1.6123 H   0  0  0  0  0  0  0  0  0  0  0  0
   -1.9035    2.0002   -0.2774 H   0  0  0  0  0  0  0  0  0  0  0  0
   -0.7825    1.0259   -1.4349 H   0  0  0  0  0  0  0  0  0  0  0  0
   -2.2035    0.0029    1.1726 H   0  0  0  0  0  0  0  0  0  0  0  0
   -0.7494   -2.0123    0.9297 H   0  0  0  0  0  0  0  0  0  0  0  0
   -1.8229   -1.8951   -0.5136 H   0  0  0  0  0  0  0  0  0  0  0  0
  1  2  2  0
  2  3  1  0
  3  4  1  0
  4  5  1  0
  4  6  1  0
  6  7  1  0
  7  8  1  0
  8  9  1  0
  9  2  1  0
  8  6  1  0
  3 10  1  0
  3 11  1  0
  4 12  1  0
  5 13  1  0
  6 14  1  0
  7 15  1  0
  7 16  1  0
  8 17  1  0
  9 18  1  0
  9 19  1  0
M  END
