
     RDKit          3D

 17 17  0  0  0  0  0  0  0  0999 V2000
   -0.0544   -2.0232    1.8561 O   0  0  0  0  0  0  0  0  0  0  0  0
   -0.3834   -1.1962    0.9745 C   0  0  0  0  0  0  0  0  0  0  0  0
   -1.5525   -1.2986    0.2371 O   0  0  0  0  0  0  0  0  0  0  0  0
   -1.5781   -0.2729   -0.7446 C   0  0  0  0  0  0  0  0  0  0  0  0
   -0.5554    0.7437   -0.3680 C   0  0  0  0  0  0  0  0  0  0  0  0
   -1.0687    1.8289    0.3161 O   0  0  0  0  0  0  0  0  0  0  0  0
    0.3846    0.0042    0.5666 C   0  0  0  0  0  0  0  0  0  0  0  0
    1.6405   -0.4388   -0.1485 C   0  0  0  0  0  0  0  0  0  0  0  0
    2.4218    0.6077   -0.5671 O   0  0  0  0  0  0  0  0  0  0  0  0
   -2.6031    0.0948   -0.8148 H   0  0  0  0  0  0  0  0  0  0  0  0
   -1.2801   -0.7617   -1.7015 H   0  0  0  0  0  0  0  0  0  0  0  0
   -0.0429    1.1150   -1.2781 H   0  0  0  0  0  0  0  0  0  0  0  0
   -1.8292    1.6252    0.8888 H   0  0  0  0  0  0  0  0  0  0  0  0
    0.6999    0.6272    1.4284 H   0  0  0  0  0  0  0  0  0  0  0  0
    1.4155   -1.0965   -1.0161 H   0  0  0  0  0  0  0  0  0  0  0  0
    2.2261   -1.0464    0.5722 H   0  0  0  0  0  0  0  0  0  0  0  0
    2.1593    1.4876   -0.2011 H   0  0  0  0  0  0  0  0  0  0  0  0
  1  2  2  0
  2  3  1  0
  3  4  1  0
  4  5  1  0
  5  6  1  0
  5  7  1  0
  7  8  1  0
  8  9  1  0
  7  2  1  0
  4 10  1  0
  4 11  1  0
  5 12  1  0
  6 13  1  0
  7 14  1  0
  8 15  1  0
  8 16  1  0
  9 17  1  0
M  END
