
     RDKit          3D

 13 14  0  0  0  0  0  0  0  0999 V2000
   -1.1160    2.3046   -0.5663 O   0  0  0  0  0  0  0  0  0  0  0  0
   -0.7292    1.2193   -0.0688 C   0  0  0  0  0  0  0  0  0  0  0  0
   -1.3645   -0.1093   -0.2480 C   0  0  0  0  0  0  0  0  0  0  0  0
   -2.3694   -0.3970   -0.9183 O   0  0  0  0  0  0  0  0  0  0  0  0
   -0.4786   -0.9961    0.5861 C   0  0  0  0  0  0  0  0  0  0  0  0
    0.8337   -1.1085   -0.0682 C   0  0  0  0  0  0  0  0  0  0  0  0
    1.4387    0.0708    0.1064 C   0  0  0  0  0  0  0  0  0  0  0  0
    0.4248    0.9081    0.8156 C   0  0  0  0  0  0  0  0  0  0  0  0
   -0.1677   -0.0907    1.6313 O   0  0  0  0  0  0  0  0  0  0  0  0
   -0.9432   -1.9001    0.9133 H   0  0  0  0  0  0  0  0  0  0  0  0
    1.2105   -1.9860   -0.5830 H   0  0  0  0  0  0  0  0  0  0  0  0
    2.4395    0.3489   -0.2004 H   0  0  0  0  0  0  0  0  0  0  0  0
    0.8214    1.7359    1.3656 H   0  0  0  0  0  0  0  0  0  0  0  0
  1  2  2  0
  2  3  1  0
  3  4  2  0
  3  5  1  0
  5  6  1  0
  6  7  2  0
  7  8  1  0
  8  9  1  0
  8  2  1  0
  9  5  1  0
  5 10  1  0
  6 11  1  0
  7 12  1  0
  8 13  1  0
M  END
