
     RDKit          3D

 17 18  0  0  0  0  0  0  0  0999 V2000
   -2.8982    0.8193    0.0147 O   0  0  0  0  0  0  0  0  0  0  0  0
   -1.7932    0.3360   -0.1458 C   0  0  0  0  0  0  0  0  0  0  0  0
   -1.1810   -0.7843    0.6408 C   0  0  0  0  0  0  0  0  0  0  0  0
    0.2408   -0.3184    0.7746 C   0  0  0  0  0  0  0  0  0  0  0  0
    1.2353   -0.6140   -0.2859 C   0  0  0  0  0  0  0  0  0  0  0  0
    2.5621   -0.6866    0.1667 O   0  0  0  0  0  0  0  0  0  0  0  0
    0.5077    0.6598   -0.3220 C   0  0  0  0  0  0  0  0  0  0  0  0
    1.1151    1.8747   -0.0666 O   0  0  0  0  0  0  0  0  0  0  0  0
   -0.7449    0.7059   -1.1488 C   0  0  0  0  0  0  0  0  0  0  0  0
   -1.6604   -0.8498    1.6275 H   0  0  0  0  0  0  0  0  0  0  0  0
   -1.2924   -1.7573    0.1485 H   0  0  0  0  0  0  0  0  0  0  0  0
    0.5953   -0.0189    1.7762 H   0  0  0  0  0  0  0  0  0  0  0  0
    1.0186   -1.3888   -1.0551 H   0  0  0  0  0  0  0  0  0  0  0  0
    2.6707   -1.6336    0.4902 H   0  0  0  0  0  0  0  0  0  0  0  0
    1.3047    2.0347    0.8891 H   0  0  0  0  0  0  0  0  0  0  0  0
   -0.7794   -0.0861   -1.9320 H   0  0  0  0  0  0  0  0  0  0  0  0
   -0.9010    1.7076   -1.5721 H   0  0  0  0  0  0  0  0  0  0  0  0
  1  2  2  0
  2  3  1  0
  3  4  1  0
  4  5  1  0
  5  6  1  0
  5  7  1  0
  7  8  1  0
  7  9  1  0
  9  2  1  0
  7  4  1  0
  3 10  1  0
  3 11  1  0
  4 12  1  0
  5 13  1  0
  6 14  1  0
  8 15  1  0
  9 16  1  0
  9 17  1  0
M  END
