
     RDKit          3D

 13 13  0  0  0  0  0  0  0  0999 V2000
   -0.9854    2.6263    0.0727 O   0  0  0  0  0  0  0  0  0  0  0  0
   -0.5031    1.4473    0.0406 C   0  0  0  0  0  0  0  0  0  0  0  0
    0.8465    1.2098    0.1106 C   0  0  0  0  0  0  0  0  0  0  0  0
    1.2595   -0.1051    0.0673 C   0  0  0  0  0  0  0  0  0  0  0  0
    2.6157   -0.3939    0.1350 O   0  0  0  0  0  0  0  0  0  0  0  0
    0.4106   -1.1145   -0.0372 O   0  0  0  0  0  0  0  0  0  0  0  0
   -0.8889   -0.9422   -0.1075 C   0  0  0  0  0  0  0  0  0  0  0  0
   -1.7558   -2.0334   -0.2173 O   0  0  0  0  0  0  0  0  0  0  0  0
   -1.3575    0.3588   -0.0683 C   0  0  0  0  0  0  0  0  0  0  0  0
    1.5335    2.0405    0.1959 H   0  0  0  0  0  0  0  0  0  0  0  0
    3.0937   -0.8582   -0.6092 H   0  0  0  0  0  0  0  0  0  0  0  0
   -1.8344   -2.7171    0.5450 H   0  0  0  0  0  0  0  0  0  0  0  0
   -2.4345    0.4816   -0.1276 H   0  0  0  0  0  0  0  0  0  0  0  0
  1  2  2  0
  2  3  1  0
  3  4  2  0
  4  5  1  0
  4  6  1  0
  6  7  1  0
  7  8  1  0
  7  9  2  0
  9  2  1  0
  3 10  1  0
  5 11  1  0
  8 12  1  0
  9 13  1  0
M  END
