
     RDKit          3D

 17 19  0  0  0  0  0  0  0  0999 V2000
    1.1080    2.4705    0.6656 O   0  0  0  0  0  0  0  0  0  0  0  0
    0.7349    1.4110    0.2087 C   0  0  0  0  0  0  0  0  0  0  0  0
   -0.3308    1.0158   -0.7308 C   0  0  0  0  0  0  0  0  0  0  0  0
   -1.5041    0.4637    0.0356 C   0  0  0  0  0  0  0  0  0  0  0  0
   -1.2049   -0.9445    0.4125 C   0  0  0  0  0  0  0  0  0  0  0  0
    0.2518   -1.1251    0.0243 C   0  0  0  0  0  0  0  0  0  0  0  0
    0.4817   -0.2065   -1.0572 C   0  0  0  0  0  0  0  0  0  0  0  0
    1.1378    0.0161    0.3494 C   0  0  0  0  0  0  0  0  0  0  0  0
    2.4842   -0.2449    0.4546 O   0  0  0  0  0  0  0  0  0  0  0  0
   -0.5545    1.7000   -1.5544 H   0  0  0  0  0  0  0  0  0  0  0  0
   -2.4499    0.5152   -0.5015 H   0  0  0  0  0  0  0  0  0  0  0  0
   -1.6133    1.0732    0.9685 H   0  0  0  0  0  0  0  0  0  0  0  0
   -1.2546   -1.1382    1.5106 H   0  0  0  0  0  0  0  0  0  0  0  0
   -1.8617   -1.6787   -0.0937 H   0  0  0  0  0  0  0  0  0  0  0  0
    0.6968   -2.1180    0.0314 H   0  0  0  0  0  0  0  0  0  0  0  0
    1.2134   -0.2365   -1.8391 H   0  0  0  0  0  0  0  0  0  0  0  0
    2.6651   -0.9732    1.1156 H   0  0  0  0  0  0  0  0  0  0  0  0
  1  2  2  0
  2  3  1  0
  3  4  1  0
  4  5  1  0
  5  6  1  0
  6  7  1  0
  7  8  1  0
  8  9  1  0
  8  2  1  0
  7  3  1  0
  8  6  1  0
  3 10  1  0
  4 11  1  0
  4 12  1  0
  5 13  1  0
  5 14  1  0
  6 15  1  0
  7 16  1  0
  9 17  1  0
M  END
