
     RDKit          3D

 17 18  0  0  0  0  0  0  0  0999 V2000
    2.5471   -0.1489    1.7649 O   0  0  0  0  0  0  0  0  0  0  0  0
    1.5546   -0.2567    1.0228 C   0  0  0  0  0  0  0  0  0  0  0  0
    0.5799   -1.2607    1.0429 O   0  0  0  0  0  0  0  0  0  0  0  0
   -0.1948   -1.2576   -0.1223 C   0  0  0  0  0  0  0  0  0  0  0  0
   -1.5190   -0.5080    0.1018 C   0  0  0  0  0  0  0  0  0  0  0  0
   -1.2419    0.9311    0.3799 C   0  0  0  0  0  0  0  0  0  0  0  0
   -0.0430    1.4680    0.3088 C   0  0  0  0  0  0  0  0  0  0  0  0
    1.1250    0.6539   -0.0969 C   0  0  0  0  0  0  0  0  0  0  0  0
    0.5652   -0.3621   -1.1060 C   0  0  0  0  0  0  0  0  0  0  0  0
   -0.3626   -2.2314   -0.5761 H   0  0  0  0  0  0  0  0  0  0  0  0
   -2.1255   -0.9911    0.8708 H   0  0  0  0  0  0  0  0  0  0  0  0
   -2.0536   -0.5953   -0.8675 H   0  0  0  0  0  0  0  0  0  0  0  0
   -2.0988    1.5384    0.6527 H   0  0  0  0  0  0  0  0  0  0  0  0
    0.1002    2.5015    0.5441 H   0  0  0  0  0  0  0  0  0  0  0  0
    1.9553    1.2281   -0.5090 H   0  0  0  0  0  0  0  0  0  0  0  0
   -0.1331    0.1758   -1.7708 H   0  0  0  0  0  0  0  0  0  0  0  0
    1.3452   -0.8851   -1.6401 H   0  0  0  0  0  0  0  0  0  0  0  0
  1  2  2  0
  2  3  1  0
  3  4  1  0
  4  5  1  0
  5  6  1  0
  6  7  2  0
  7  8  1  0
  8  9  1  0
  8  2  1  0
  9  4  1  0
  4 10  1  0
  5 11  1  0
  5 12  1  0
  6 13  1  0
  7 14  1  0
  8 15  1  0
  9 16  1  0
  9 17  1  0
M  END
