
     RDKit          3D

 19 20  0  0  0  0  0  0  0  0999 V2000
   -0.3748   -1.2186   -2.1712 O   0  0  0  0  0  0  0  0  0  0  0  0
   -0.8103   -0.8310   -1.1127 C   0  0  0  0  0  0  0  0  0  0  0  0
   -2.1422   -0.6895   -0.4729 C   0  0  0  0  0  0  0  0  0  0  0  0
   -1.5299    0.4805    0.3126 C   0  0  0  0  0  0  0  0  0  0  0  0
   -2.0158    0.5288    1.5992 O   0  0  0  0  0  0  0  0  0  0  0  0
   -0.2256   -0.2793    0.1333 C   0  0  0  0  0  0  0  0  0  0  0  0
    0.9964    0.5617   -0.0275 C   0  0  0  0  0  0  0  0  0  0  0  0
    2.1686   -0.1582   -0.6697 C   0  0  0  0  0  0  0  0  0  0  0  0
    2.2373    0.2967    0.7637 C   0  0  0  0  0  0  0  0  0  0  0  0
   -2.9720   -0.4063   -1.1294 H   0  0  0  0  0  0  0  0  0  0  0  0
   -2.3125   -1.5317    0.2214 H   0  0  0  0  0  0  0  0  0  0  0  0
   -1.6202    1.3918   -0.2897 H   0  0  0  0  0  0  0  0  0  0  0  0
   -2.1982    1.4682    1.9041 H   0  0  0  0  0  0  0  0  0  0  0  0
   -0.0904   -1.0200    0.9385 H   0  0  0  0  0  0  0  0  0  0  0  0
    0.8461    1.5895   -0.4259 H   0  0  0  0  0  0  0  0  0  0  0  0
    2.8414    0.3880   -1.3472 H   0  0  0  0  0  0  0  0  0  0  0  0
    2.0971   -1.2709   -0.8011 H   0  0  0  0  0  0  0  0  0  0  0  0
    2.8895    1.1831    1.0128 H   0  0  0  0  0  0  0  0  0  0  0  0
    2.2155   -0.4827    1.5615 H   0  0  0  0  0  0  0  0  0  0  0  0
  1  2  2  0
  2  3  1  0
  3  4  1  0
  4  5  1  0
  4  6  1  0
  6  7  1  0
  7  8  1  0
  8  9  1  0
  6  2  1  0
  9  7  1  0
  3 10  1  0
  3 11  1  0
  4 12  1  0
  5 13  1  0
  6 14  1  0
  7 15  1  0
  8 16  1  0
  8 17  1  0
  9 18  1  0
  9 19  1  0
M  END
