
     RDKit          3D

 15 16  0  0  0  0  0  0  0  0999 V2000
   -2.5557    0.8481    0.7969 O   0  0  0  0  0  0  0  0  0  0  0  0
   -1.5013    0.4100    0.2500 C   0  0  0  0  0  0  0  0  0  0  0  0
   -0.2252    1.2278    0.2608 C   0  0  0  0  0  0  0  0  0  0  0  0
    0.7468    0.3956   -0.4683 C   0  0  0  0  0  0  0  0  0  0  0  0
    1.8723   -0.3556   -0.0713 C   0  0  0  0  0  0  0  0  0  0  0  0
    0.6625   -0.9708    0.3061 C   0  0  0  0  0  0  0  0  0  0  0  0
   -0.3310   -1.6376   -0.3862 O   0  0  0  0  0  0  0  0  0  0  0  0
   -1.5447   -0.9043   -0.3923 C   0  0  0  0  0  0  0  0  0  0  0  0
   -2.5992   -1.3428   -0.9127 O   0  0  0  0  0  0  0  0  0  0  0  0
    0.0637    1.5209    1.2644 H   0  0  0  0  0  0  0  0  0  0  0  0
   -0.4900    2.1447   -0.3382 H   0  0  0  0  0  0  0  0  0  0  0  0
    0.4718    0.3557   -1.5667 H   0  0  0  0  0  0  0  0  0  0  0  0
    2.5034   -0.8381   -0.8674 H   0  0  0  0  0  0  0  0  0  0  0  0
    2.5468    0.0482    0.7239 H   0  0  0  0  0  0  0  0  0  0  0  0
    0.3800   -0.9018    1.4008 H   0  0  0  0  0  0  0  0  0  0  0  0
  1  2  2  0
  2  3  1  0
  3  4  1  0
  4  5  1  0
  5  6  1  0
  6  7  1  0
  7  8  1  0
  8  9  2  0
  8  2  1  0
  6  4  1  0
  3 10  1  0
  3 11  1  0
  4 12  1  0
  5 13  1  0
  5 14  1  0
  6 15  1  0
M  END
