
     RDKit          3D

 14 15  0  0  0  0  0  0  0  0999 V2000
    1.1246    1.8913   -1.3285 O   0  0  0  0  0  0  0  0  0  0  0  0
    0.9112    0.7982   -0.7931 C   0  0  0  0  0  0  0  0  0  0  0  0
    1.8619    0.0265    0.0598 C   0  0  0  0  0  0  0  0  0  0  0  0
    1.0964   -0.4875    1.0101 C   0  0  0  0  0  0  0  0  0  0  0  0
   -0.2528   -0.0672    0.7980 C   0  0  0  0  0  0  0  0  0  0  0  0
   -1.3790   -0.3199    0.0159 C   0  0  0  0  0  0  0  0  0  0  0  0
   -2.4179    0.6182   -0.1167 O   0  0  0  0  0  0  0  0  0  0  0  0
   -0.2349   -0.1308   -0.7554 C   0  0  0  0  0  0  0  0  0  0  0  0
    2.9592   -0.0545   -0.0823 H   0  0  0  0  0  0  0  0  0  0  0  0
    1.4521   -1.1279    1.8187 H   0  0  0  0  0  0  0  0  0  0  0  0
   -0.3083    1.0013    1.2458 H   0  0  0  0  0  0  0  0  0  0  0  0
   -1.8446   -1.3441    0.1360 H   0  0  0  0  0  0  0  0  0  0  0  0
   -3.0711    0.2709   -0.7461 H   0  0  0  0  0  0  0  0  0  0  0  0
    0.1031   -1.0746   -1.2622 H   0  0  0  0  0  0  0  0  0  0  0  0
  1  2  2  0
  2  3  1  0
  3  4  2  0
  4  5  1  0
  5  6  1  0
  6  7  1  0
  6  8  1  0
  8  2  1  0
  8  5  1  0
  3  9  1  0
  4 10  1  0
  5 11  1  0
  6 12  1  0
  7 13  1  0
  8 14  1  0
M  END
