
     RDKit          3D

 17 19  0  0  0  0  0  0  0  0999 V2000
    2.5168   -0.8563    1.3248 O   0  0  0  0  0  0  0  0  0  0  0  0
    1.6447   -0.6825    0.5207 C   0  0  0  0  0  0  0  0  0  0  0  0
    1.6264   -0.0020   -0.8181 C   0  0  0  0  0  0  0  0  0  0  0  0
    0.1219   -0.2251   -1.0641 C   0  0  0  0  0  0  0  0  0  0  0  0
    0.0353   -1.5935   -0.7054 O   0  0  0  0  0  0  0  0  0  0  0  0
    0.2238   -1.1209    0.6198 C   0  0  0  0  0  0  0  0  0  0  0  0
   -0.5633    0.0496    0.2016 C   0  0  0  0  0  0  0  0  0  0  0  0
   -1.9599    0.2989    0.4199 C   0  0  0  0  0  0  0  0  0  0  0  0
   -0.8153    1.2663    0.8744 C   0  0  0  0  0  0  0  0  0  0  0  0
    1.8614    1.0628   -0.7518 H   0  0  0  0  0  0  0  0  0  0  0  0
    2.2368   -0.5273   -1.5582 H   0  0  0  0  0  0  0  0  0  0  0  0
   -0.2617    0.0581   -2.0142 H   0  0  0  0  0  0  0  0  0  0  0  0
   -0.0689   -1.7618    1.4125 H   0  0  0  0  0  0  0  0  0  0  0  0
   -2.4935   -0.2260    1.2249 H   0  0  0  0  0  0  0  0  0  0  0  0
   -2.5616    0.6753   -0.4574 H   0  0  0  0  0  0  0  0  0  0  0  0
   -0.6962    1.3269    1.9874 H   0  0  0  0  0  0  0  0  0  0  0  0
   -0.8468    2.2576    0.4037 H   0  0  0  0  0  0  0  0  0  0  0  0
  1  2  2  0
  2  3  1  0
  3  4  1  0
  4  5  1  0
  5  6  1  0
  6  7  1  0
  7  8  1  0
  8  9  1  0
  6  2  1  0
  9  7  1  0
  7  4  1  0
  3 10  1  0
  3 11  1  0
  4 12  1  0
  6 13  1  0
  8 14  1  0
  8 15  1  0
  9 16  1  0
  9 17  1  0
M  END
