
     RDKit          3D

 17 18  0  0  0  0  0  0  0  0999 V2000
   -1.8085    2.1799    0.0506 O   0  0  0  0  0  0  0  0  0  0  0  0
   -0.8388    1.4256    0.3121 C   0  0  0  0  0  0  0  0  0  0  0  0
    0.4535    1.8023    0.0396 O   0  0  0  0  0  0  0  0  0  0  0  0
    1.4184    0.8982   -0.3659 C   0  0  0  0  0  0  0  0  0  0  0  0
    1.2488   -0.5061    0.0312 C   0  0  0  0  0  0  0  0  0  0  0  0
   -0.1304   -0.9510    0.3655 C   0  0  0  0  0  0  0  0  0  0  0  0
   -1.1560   -0.9227   -0.7124 C   0  0  0  0  0  0  0  0  0  0  0  0
   -2.1039   -0.5448    0.2644 O   0  0  0  0  0  0  0  0  0  0  0  0
   -1.0272    0.0865    0.9291 C   0  0  0  0  0  0  0  0  0  0  0  0
    2.4114    1.2643    0.0251 H   0  0  0  0  0  0  0  0  0  0  0  0
    1.5300    0.9714   -1.4864 H   0  0  0  0  0  0  0  0  0  0  0  0
    1.6197   -1.1752   -0.8010 H   0  0  0  0  0  0  0  0  0  0  0  0
    1.9085   -0.7536    0.8961 H   0  0  0  0  0  0  0  0  0  0  0  0
   -0.1127   -1.8539    1.0115 H   0  0  0  0  0  0  0  0  0  0  0  0
   -1.3246   -1.9009   -1.1550 H   0  0  0  0  0  0  0  0  0  0  0  0
   -0.9548   -0.1162   -1.4365 H   0  0  0  0  0  0  0  0  0  0  0  0
   -1.1335    0.0963    2.0319 H   0  0  0  0  0  0  0  0  0  0  0  0
  1  2  2  0
  2  3  1  0
  3  4  1  0
  4  5  1  0
  5  6  1  0
  6  7  1  0
  7  8  1  0
  8  9  1  0
  9  2  1  0
  9  6  1  0
  4 10  1  0
  4 11  1  0
  5 12  1  0
  5 13  1  0
  6 14  1  0
  7 15  1  0
  7 16  1  0
  9 17  1  0
M  END
