
     RDKit          3D

 19 21  0  0  0  0  0  0  0  0999 V2000
    1.3227    2.0524   -1.2562 O   0  0  0  0  0  0  0  0  0  0  0  0
    0.8651    1.1032   -0.6534 C   0  0  0  0  0  0  0  0  0  0  0  0
    1.7229    0.1890    0.1693 C   0  0  0  0  0  0  0  0  0  0  0  0
    1.1009   -1.1485   -0.2018 C   0  0  0  0  0  0  0  0  0  0  0  0
   -0.3815   -0.8054   -0.0772 C   0  0  0  0  0  0  0  0  0  0  0  0
   -0.9060   -0.3511    1.2400 C   0  0  0  0  0  0  0  0  0  0  0  0
   -1.3034    1.0131    0.6773 C   0  0  0  0  0  0  0  0  0  0  0  0
   -0.5054    0.6325   -0.5676 C   0  0  0  0  0  0  0  0  0  0  0  0
   -1.0671   -0.4673   -1.3549 C   0  0  0  0  0  0  0  0  0  0  0  0
    2.7876    0.2449   -0.1236 H   0  0  0  0  0  0  0  0  0  0  0  0
    1.6597    0.3972    1.2411 H   0  0  0  0  0  0  0  0  0  0  0  0
    1.3885   -1.9549    0.4690 H   0  0  0  0  0  0  0  0  0  0  0  0
    1.3505   -1.3251   -1.2598 H   0  0  0  0  0  0  0  0  0  0  0  0
   -0.1636   -0.1884    2.0429 H   0  0  0  0  0  0  0  0  0  0  0  0
   -1.7742   -0.9138    1.6503 H   0  0  0  0  0  0  0  0  0  0  0  0
   -2.3836    1.0726    0.3875 H   0  0  0  0  0  0  0  0  0  0  0  0
   -0.9204    1.8756    1.2242 H   0  0  0  0  0  0  0  0  0  0  0  0
   -2.1802   -0.5518   -1.3481 H   0  0  0  0  0  0  0  0  0  0  0  0
   -0.6125   -0.8742   -2.2590 H   0  0  0  0  0  0  0  0  0  0  0  0
  1  2  2  0
  2  3  1  0
  3  4  1  0
  4  5  1  0
  5  6  1  0
  6  7  1  0
  7  8  1  0
  8  9  1  0
  8  2  1  0
  8  5  1  0
  9  5  1  0
  3 10  1  0
  3 11  1  0
  4 12  1  0
  4 13  1  0
  6 14  1  0
  6 15  1  0
  7 16  1  0
  7 17  1  0
  9 18  1  0
  9 19  1  0
M  END
