
     RDKit          3D

 19 19  0  0  0  0  0  0  0  0999 V2000
    0.5551   -2.1808    1.1091 O   0  0  0  0  0  0  0  0  0  0  0  0
    0.3311   -1.2805    0.3209 C   0  0  0  0  0  0  0  0  0  0  0  0
   -1.0861   -1.2331   -0.1197 C   0  0  0  0  0  0  0  0  0  0  0  0
   -1.6937   -0.0161    0.5804 C   0  0  0  0  0  0  0  0  0  0  0  0
   -1.2159    1.1898   -0.1708 C   0  0  0  0  0  0  0  0  0  0  0  0
    0.0326    1.6265   -0.2497 C   0  0  0  0  0  0  0  0  0  0  0  0
    1.2406    1.0389    0.3751 C   0  0  0  0  0  0  0  0  0  0  0  0
    1.4230   -0.3920   -0.0842 C   0  0  0  0  0  0  0  0  0  0  0  0
    1.5892   -0.3689   -1.4760 O   0  0  0  0  0  0  0  0  0  0  0  0
   -1.0905   -0.9838   -1.2039 H   0  0  0  0  0  0  0  0  0  0  0  0
   -1.6549   -2.1371    0.1204 H   0  0  0  0  0  0  0  0  0  0  0  0
   -2.7758   -0.0939    0.6071 H   0  0  0  0  0  0  0  0  0  0  0  0
   -1.3041    0.0282    1.6245 H   0  0  0  0  0  0  0  0  0  0  0  0
   -1.9816    1.7583   -0.7028 H   0  0  0  0  0  0  0  0  0  0  0  0
    0.1751    2.5388   -0.8573 H   0  0  0  0  0  0  0  0  0  0  0  0
    1.2044    1.0410    1.4809 H   0  0  0  0  0  0  0  0  0  0  0  0
    2.1385    1.5955    0.0455 H   0  0  0  0  0  0  0  0  0  0  0  0
    2.3682   -0.7974    0.3277 H   0  0  0  0  0  0  0  0  0  0  0  0
    1.7449   -1.3335   -1.7272 H   0  0  0  0  0  0  0  0  0  0  0  0
  1  2  2  0
  2  3  1  0
  3  4  1  0
  4  5  1  0
  5  6  2  0
  6  7  1  0
  7  8  1  0
  8  9  1  0
  8  2  1  0
  3 10  1  0
  3 11  1  0
  4 12  1  0
  4 13  1  0
  5 14  1  0
  6 15  1  0
  7 16  1  0
  7 17  1  0
  8 18  1  0
  9 19  1  0
M  END
