
     RDKit          3D

 13 13  0  0  0  0  0  0  0  0999 V2000
   -0.4513   -2.0096   -1.0014 O   0  0  0  0  0  0  0  0  0  0  0  0
   -0.2651   -0.9829   -0.4307 C   0  0  0  0  0  0  0  0  0  0  0  0
   -1.2190   -0.2871    0.4417 C   0  0  0  0  0  0  0  0  0  0  0  0
   -0.8597    1.1385    0.1919 C   0  0  0  0  0  0  0  0  0  0  0  0
    0.3682    1.2127   -0.3110 C   0  0  0  0  0  0  0  0  0  0  0  0
    0.9441   -0.1517   -0.4447 C   0  0  0  0  0  0  0  0  0  0  0  0
    1.6748   -0.4085    0.7171 O   0  0  0  0  0  0  0  0  0  0  0  0
   -0.9778   -0.5846    1.4980 H   0  0  0  0  0  0  0  0  0  0  0  0
   -2.2777   -0.5030    0.2007 H   0  0  0  0  0  0  0  0  0  0  0  0
   -1.5127    2.0010    0.3934 H   0  0  0  0  0  0  0  0  0  0  0  0
    0.8930    2.1157   -0.5897 H   0  0  0  0  0  0  0  0  0  0  0  0
    1.5514   -0.2557   -1.3581 H   0  0  0  0  0  0  0  0  0  0  0  0
    2.1319   -1.2848    0.6930 H   0  0  0  0  0  0  0  0  0  0  0  0
  1  2  2  0
  2  3  1  0
  3  4  1  0
  4  5  2  0
  5  6  1  0
  6  7  1  0
  6  2  1  0
  3  8  1  0
  3  9  1  0
  4 10  1  0
  5 11  1  0
  6 12  1  0
  7 13  1  0
M  END
