
     RDKit          3D

 15 16  0  0  0  0  0  0  0  0999 V2000
    2.1486    1.4090   -0.5692 O   0  0  0  0  0  0  0  0  0  0  0  0
    1.0343    0.9583   -0.2221 C   0  0  0  0  0  0  0  0  0  0  0  0
   -0.1356    1.6128   -0.5086 O   0  0  0  0  0  0  0  0  0  0  0  0
   -1.3477    1.0278   -0.0691 C   0  0  0  0  0  0  0  0  0  0  0  0
   -1.3762   -0.4368   -0.3464 C   0  0  0  0  0  0  0  0  0  0  0  0
   -0.5475   -1.0168   -1.2764 O   0  0  0  0  0  0  0  0  0  0  0  0
   -0.2138   -1.1431    0.1037 C   0  0  0  0  0  0  0  0  0  0  0  0
    0.9812   -0.3127    0.5155 C   0  0  0  0  0  0  0  0  0  0  0  0
    2.1148   -1.0803    0.2460 O   0  0  0  0  0  0  0  0  0  0  0  0
   -2.1731    1.5961   -0.5214 H   0  0  0  0  0  0  0  0  0  0  0  0
   -1.4703    1.1536    1.0460 H   0  0  0  0  0  0  0  0  0  0  0  0
   -2.3799   -0.9131   -0.1661 H   0  0  0  0  0  0  0  0  0  0  0  0
   -0.3000   -2.1244    0.5709 H   0  0  0  0  0  0  0  0  0  0  0  0
    0.9881   -0.1120    1.6069 H   0  0  0  0  0  0  0  0  0  0  0  0
    2.6770   -0.6183   -0.4098 H   0  0  0  0  0  0  0  0  0  0  0  0
  1  2  2  0
  2  3  1  0
  3  4  1  0
  4  5  1  0
  5  6  1  0
  6  7  1  0
  7  8  1  0
  8  9  1  0
  8  2  1  0
  7  5  1  0
  4 10  1  0
  4 11  1  0
  5 12  1  0
  7 13  1  0
  8 14  1  0
  9 15  1  0
M  END
