
     RDKit          3D

 15 17  0  0  0  0  0  0  0  0999 V2000
    1.5274   -2.2028    0.4604 O   0  0  0  0  0  0  0  0  0  0  0  0
    1.0068   -1.1480    0.0633 C   0  0  0  0  0  0  0  0  0  0  0  0
    1.6796    0.1336    0.2590 C   0  0  0  0  0  0  0  0  0  0  0  0
    0.8388    1.1420    0.4703 C   0  0  0  0  0  0  0  0  0  0  0  0
   -0.6082    1.0409    0.5167 C   0  0  0  0  0  0  0  0  0  0  0  0
   -1.6636    0.0968    0.0960 C   0  0  0  0  0  0  0  0  0  0  0  0
   -1.4348   -1.2871    0.1700 O   0  0  0  0  0  0  0  0  0  0  0  0
   -0.3071   -1.1137   -0.6242 C   0  0  0  0  0  0  0  0  0  0  0  0
   -0.6913    0.3295   -0.7512 C   0  0  0  0  0  0  0  0  0  0  0  0
    2.7636    0.2297    0.2364 H   0  0  0  0  0  0  0  0  0  0  0  0
    1.2487    2.1293    0.6214 H   0  0  0  0  0  0  0  0  0  0  0  0
   -0.7930    0.9448    1.5702 H   0  0  0  0  0  0  0  0  0  0  0  0
   -2.6750    0.5091    0.1173 H   0  0  0  0  0  0  0  0  0  0  0  0
   -0.2939   -1.7030   -1.5564 H   0  0  0  0  0  0  0  0  0  0  0  0
   -0.5979    0.8990   -1.6492 H   0  0  0  0  0  0  0  0  0  0  0  0
  1  2  2  0
  2  3  1  0
  3  4  2  0
  4  5  1  0
  5  6  1  0
  6  7  1  0
  7  8  1  0
  8  9  1  0
  8  2  1  0
  9  5  1  0
  9  6  1  0
  3 10  1  0
  4 11  1  0
  5 12  1  0
  6 13  1  0
  8 14  1  0
  9 15  1  0
M  END
