
     RDKit          3D

 17 18  0  0  0  0  0  0  0  0999 V2000
    3.8917    0.5208   -0.5570 O   0  0  0  0  0  0  0  0  0  0  0  0
    2.6903    0.3371   -0.2351 C   0  0  0  0  0  0  0  0  0  0  0  0
    1.7234   -0.7899   -0.1453 C   0  0  0  0  0  0  0  0  0  0  0  0
    0.7032    0.3012   -0.3189 C   0  0  0  0  0  0  0  0  0  0  0  0
   -0.5107    0.2247    0.5311 C   0  0  0  0  0  0  0  0  0  0  0  0
   -1.4418   -0.9273    0.4860 C   0  0  0  0  0  0  0  0  0  0  0  0
   -1.8369    0.2953   -0.2464 C   0  0  0  0  0  0  0  0  0  0  0  0
   -2.8426    1.0922    0.2760 O   0  0  0  0  0  0  0  0  0  0  0  0
    1.6745    1.1701    0.2078 O   0  0  0  0  0  0  0  0  0  0  0  0
    1.8443   -1.4922   -0.9803 H   0  0  0  0  0  0  0  0  0  0  0  0
    1.7095   -1.3153    0.8276 H   0  0  0  0  0  0  0  0  0  0  0  0
    0.4966    0.5217   -1.3808 H   0  0  0  0  0  0  0  0  0  0  0  0
   -0.4794    0.7773    1.4858 H   0  0  0  0  0  0  0  0  0  0  0  0
   -1.9729   -1.2033    1.4187 H   0  0  0  0  0  0  0  0  0  0  0  0
   -1.1393   -1.8181   -0.1033 H   0  0  0  0  0  0  0  0  0  0  0  0
   -1.7879    0.2554   -1.3386 H   0  0  0  0  0  0  0  0  0  0  0  0
   -2.7220    2.0504    0.0464 H   0  0  0  0  0  0  0  0  0  0  0  0
  1  2  2  0
  2  3  1  0
  3  4  1  0
  4  5  1  0
  5  6  1  0
  6  7  1  0
  7  8  1  0
  4  9  1  0
  9  2  1  0
  7  5  1  0
  3 10  1  0
  3 11  1  0
  4 12  1  0
  5 13  1  0
  6 14  1  0
  6 15  1  0
  7 16  1  0
  8 17  1  0
M  END
