
     RDKit          3D

 17 18  0  0  0  0  0  0  0  0999 V2000
   -0.5791   -0.6005    2.3643 O   0  0  0  0  0  0  0  0  0  0  0  0
   -0.4912   -0.3169    1.1941 C   0  0  0  0  0  0  0  0  0  0  0  0
   -1.6359   -0.6238    0.3117 C   0  0  0  0  0  0  0  0  0  0  0  0
   -1.6318    0.4921   -0.7435 C   0  0  0  0  0  0  0  0  0  0  0  0
   -0.4682    0.2976   -1.4570 O   0  0  0  0  0  0  0  0  0  0  0  0
    0.6657    0.6899   -0.7707 C   0  0  0  0  0  0  0  0  0  0  0  0
    1.5821   -0.4295   -0.3267 C   0  0  0  0  0  0  0  0  0  0  0  0
    2.9489   -0.1600   -0.3670 O   0  0  0  0  0  0  0  0  0  0  0  0
    0.7223    0.3192    0.6499 C   0  0  0  0  0  0  0  0  0  0  0  0
   -1.4937   -1.5911   -0.2360 H   0  0  0  0  0  0  0  0  0  0  0  0
   -2.5988   -0.6963    0.8208 H   0  0  0  0  0  0  0  0  0  0  0  0
   -2.5184    0.4600   -1.3655 H   0  0  0  0  0  0  0  0  0  0  0  0
   -1.6061    1.4541   -0.1686 H   0  0  0  0  0  0  0  0  0  0  0  0
    1.0837    1.6521   -1.0931 H   0  0  0  0  0  0  0  0  0  0  0  0
    1.3037   -1.4789   -0.5790 H   0  0  0  0  0  0  0  0  0  0  0  0
    3.4097   -0.4885    0.4573 H   0  0  0  0  0  0  0  0  0  0  0  0
    1.3071    1.0203    1.3090 H   0  0  0  0  0  0  0  0  0  0  0  0
  1  2  2  0
  2  3  1  0
  3  4  1  0
  4  5  1  0
  5  6  1  0
  6  7  1  0
  7  8  1  0
  7  9  1  0
  9  2  1  0
  9  6  1  0
  3 10  1  0
  3 11  1  0
  4 12  1  0
  4 13  1  0
  6 14  1  0
  7 15  1  0
  8 16  1  0
  9 17  1  0
M  END
