
     RDKit          3D

 15 15  0  0  0  0  0  0  0  0999 V2000
    0.5817   -1.9513    1.6590 O   0  0  0  0  0  0  0  0  0  0  0  0
    0.6575   -0.9794    0.8644 C   0  0  0  0  0  0  0  0  0  0  0  0
    1.7818   -0.5277    0.0479 C   0  0  0  0  0  0  0  0  0  0  0  0
    1.5852    0.7268   -0.3275 C   0  0  0  0  0  0  0  0  0  0  0  0
    0.3161    1.1997    0.2122 C   0  0  0  0  0  0  0  0  0  0  0  0
   -0.0946    2.3864    0.3644 O   0  0  0  0  0  0  0  0  0  0  0  0
   -0.4439   -0.0267    0.5681 C   0  0  0  0  0  0  0  0  0  0  0  0
   -1.2395   -0.4824   -0.6411 C   0  0  0  0  0  0  0  0  0  0  0  0
   -2.2718    0.4101   -0.9191 O   0  0  0  0  0  0  0  0  0  0  0  0
    2.6349   -1.1605   -0.1924 H   0  0  0  0  0  0  0  0  0  0  0  0
    2.2361    1.3508   -0.9410 H   0  0  0  0  0  0  0  0  0  0  0  0
   -1.1324    0.1201    1.4108 H   0  0  0  0  0  0  0  0  0  0  0  0
   -1.7167   -1.4665   -0.4555 H   0  0  0  0  0  0  0  0  0  0  0  0
   -0.5542   -0.6212   -1.4914 H   0  0  0  0  0  0  0  0  0  0  0  0
   -2.3402    1.0218   -0.1587 H   0  0  0  0  0  0  0  0  0  0  0  0
  1  2  2  0
  2  3  1  0
  3  4  2  0
  4  5  1  0
  5  6  2  0
  5  7  1  0
  7  8  1  0
  8  9  1  0
  7  2  1  0
  3 10  1  0
  4 11  1  0
  7 12  1  0
  8 13  1  0
  8 14  1  0
  9 15  1  0
M  END
