
     RDKit          3D

 15 16  0  0  0  0  0  0  0  0999 V2000
    0.9417   -2.4157   -0.5647 O   0  0  0  0  0  0  0  0  0  0  0  0
    0.6020   -1.2374   -0.4009 C   0  0  0  0  0  0  0  0  0  0  0  0
    1.6283   -0.2775   -0.0007 C   0  0  0  0  0  0  0  0  0  0  0  0
    1.2480    0.9815    0.1525 C   0  0  0  0  0  0  0  0  0  0  0  0
   -0.1493    1.3237   -0.2413 C   0  0  0  0  0  0  0  0  0  0  0  0
   -0.9623    1.0772    0.8530 O   0  0  0  0  0  0  0  0  0  0  0  0
   -1.3690   -0.2408    0.7402 C   0  0  0  0  0  0  0  0  0  0  0  0
   -0.7717   -0.7158   -0.5788 C   0  0  0  0  0  0  0  0  0  0  0  0
   -0.6319    0.5123   -1.2504 O   0  0  0  0  0  0  0  0  0  0  0  0
    2.6420   -0.5472    0.1672 H   0  0  0  0  0  0  0  0  0  0  0  0
    1.9369    1.7019    0.5452 H   0  0  0  0  0  0  0  0  0  0  0  0
   -0.1697    2.3735   -0.5784 H   0  0  0  0  0  0  0  0  0  0  0  0
   -1.0448   -0.8707    1.5934 H   0  0  0  0  0  0  0  0  0  0  0  0
   -2.4575   -0.2797    0.6732 H   0  0  0  0  0  0  0  0  0  0  0  0
   -1.4428   -1.3854   -1.1096 H   0  0  0  0  0  0  0  0  0  0  0  0
  1  2  2  0
  2  3  1  0
  3  4  2  0
  4  5  1  0
  5  6  1  0
  6  7  1  0
  7  8  1  0
  8  9  1  0
  8  2  1  0
  9  5  1  0
  3 10  1  0
  4 11  1  0
  5 12  1  0
  7 13  1  0
  7 14  1  0
  8 15  1  0
M  END
