
     RDKit          3D

 17 18  0  0  0  0  0  0  0  0999 V2000
    1.7681    2.7541   -0.3164 O   0  0  0  0  0  0  0  0  0  0  0  0
    1.5275    1.5233   -0.1996 C   0  0  0  0  0  0  0  0  0  0  0  0
    2.4179    0.4425   -0.1462 O   0  0  0  0  0  0  0  0  0  0  0  0
    1.6631   -0.7288    0.2085 C   0  0  0  0  0  0  0  0  0  0  0  0
    0.3743   -0.4671   -0.4930 C   0  0  0  0  0  0  0  0  0  0  0  0
   -0.8347   -1.1382    0.1116 C   0  0  0  0  0  0  0  0  0  0  0  0
   -1.8969   -0.0642    0.0173 C   0  0  0  0  0  0  0  0  0  0  0  0
   -1.0938    1.1866    0.1867 C   0  0  0  0  0  0  0  0  0  0  0  0
    0.1775    0.9837   -0.0928 C   0  0  0  0  0  0  0  0  0  0  0  0
    2.1812   -1.6494   -0.1036 H   0  0  0  0  0  0  0  0  0  0  0  0
    1.5386   -0.7354    1.2934 H   0  0  0  0  0  0  0  0  0  0  0  0
    0.4419   -0.5494   -1.5752 H   0  0  0  0  0  0  0  0  0  0  0  0
   -1.1505   -1.9868   -0.5284 H   0  0  0  0  0  0  0  0  0  0  0  0
   -0.6411   -1.4601    1.1555 H   0  0  0  0  0  0  0  0  0  0  0  0
   -2.5656   -0.1856    0.8976 H   0  0  0  0  0  0  0  0  0  0  0  0
   -2.4610   -0.0922   -0.9114 H   0  0  0  0  0  0  0  0  0  0  0  0
   -1.4465    2.1671    0.4961 H   0  0  0  0  0  0  0  0  0  0  0  0
  1  2  2  0
  2  3  1  0
  3  4  1  0
  4  5  1  0
  5  6  1  0
  6  7  1  0
  7  8  1  0
  8  9  2  0
  9  2  1  0
  9  5  1  0
  4 10  1  0
  4 11  1  0
  5 12  1  0
  6 13  1  0
  6 14  1  0
  7 15  1  0
  7 16  1  0
  8 17  1  0
M  END
