
     RDKit          3D

 16 17  0  0  0  0  0  0  0  0999 V2000
    2.3276    0.4569    1.3396 O   0  0  0  0  0  0  0  0  0  0  0  0
    1.3246    0.2437    0.7092 C   0  0  0  0  0  0  0  0  0  0  0  0
    1.0596   -0.8205   -0.2943 C   0  0  0  0  0  0  0  0  0  0  0  0
   -0.3410   -0.5059   -0.7782 C   0  0  0  0  0  0  0  0  0  0  0  0
   -1.2713   -0.7344    0.3719 C   0  0  0  0  0  0  0  0  0  0  0  0
   -0.8879    0.1857    1.3450 O   0  0  0  0  0  0  0  0  0  0  0  0
    0.0669    1.0267    0.7910 C   0  0  0  0  0  0  0  0  0  0  0  0
   -0.2886    1.0339   -0.7115 C   0  0  0  0  0  0  0  0  0  0  0  0
    0.9726   -1.7760    0.3007 H   0  0  0  0  0  0  0  0  0  0  0  0
    1.7976   -0.8740   -1.0919 H   0  0  0  0  0  0  0  0  0  0  0  0
   -0.6147   -0.8933   -1.7268 H   0  0  0  0  0  0  0  0  0  0  0  0
   -2.3065   -0.4729    0.0008 H   0  0  0  0  0  0  0  0  0  0  0  0
   -1.2261   -1.7771    0.7290 H   0  0  0  0  0  0  0  0  0  0  0  0
    0.1421    2.0030    1.2141 H   0  0  0  0  0  0  0  0  0  0  0  0
   -1.2767    1.4712   -0.8809 H   0  0  0  0  0  0  0  0  0  0  0  0
    0.5219    1.4331   -1.3178 H   0  0  0  0  0  0  0  0  0  0  0  0
  1  2  2  0
  2  3  1  0
  3  4  1  0
  4  5  1  0
  5  6  1  0
  6  7  1  0
  7  8  1  0
  7  2  1  0
  8  4  1  0
  3  9  1  0
  3 10  1  0
  4 11  1  0
  5 12  1  0
  5 13  1  0
  7 14  1  0
  8 15  1  0
  8 16  1  0
M  END
