
     RDKit          3D

 17 17  0  0  0  0  0  0  0  0999 V2000
    0.5297   -0.5009    1.9163 O   0  0  0  0  0  0  0  0  0  0  0  0
    0.2136   -0.2927    0.7719 C   0  0  0  0  0  0  0  0  0  0  0  0
   -0.6921   -0.8603   -0.2174 C   0  0  0  0  0  0  0  0  0  0  0  0
   -2.1464   -0.5553    0.1478 C   0  0  0  0  0  0  0  0  0  0  0  0
   -2.1380    0.7606    0.6517 O   0  0  0  0  0  0  0  0  0  0  0  0
   -0.1776    0.0085   -1.1738 O   0  0  0  0  0  0  0  0  0  0  0  0
    0.6083    0.6938   -0.2509 C   0  0  0  0  0  0  0  0  0  0  0  0
    2.0776    0.6734   -0.5149 C   0  0  0  0  0  0  0  0  0  0  0  0
    2.6380   -0.5845   -0.5377 O   0  0  0  0  0  0  0  0  0  0  0  0
   -0.5709   -1.9213   -0.4841 H   0  0  0  0  0  0  0  0  0  0  0  0
   -2.8221   -0.6632   -0.7094 H   0  0  0  0  0  0  0  0  0  0  0  0
   -2.4815   -1.2550    0.9379 H   0  0  0  0  0  0  0  0  0  0  0  0
   -2.8903    1.2928    0.3370 H   0  0  0  0  0  0  0  0  0  0  0  0
    0.2699    1.7227   -0.0241 H   0  0  0  0  0  0  0  0  0  0  0  0
    2.5743    1.2738    0.2701 H   0  0  0  0  0  0  0  0  0  0  0  0
    2.3271    1.1655   -1.5005 H   0  0  0  0  0  0  0  0  0  0  0  0
    2.6805   -0.9580    0.3801 H   0  0  0  0  0  0  0  0  0  0  0  0
  1  2  2  0
  2  3  1  0
  3  4  1  0
  4  5  1  0
  3  6  1  0
  6  7  1  0
  7  8  1  0
  8  9  1  0
  7  2  1  0
  3 10  1  0
  4 11  1  0
  4 12  1  0
  5 13  1  0
  7 14  1  0
  8 15  1  0
  8 16  1  0
  9 17  1  0
M  END
