
     RDKit          3D

 18 18  0  0  0  0  0  0  0  0999 V2000
   -2.3597    1.4462   -0.9424 O   0  0  0  0  0  0  0  0  0  0  0  0
   -1.8405    0.6679   -0.1862 C   0  0  0  0  0  0  0  0  0  0  0  0
   -1.7443   -0.8202   -0.0669 C   0  0  0  0  0  0  0  0  0  0  0  0
   -0.3740   -0.5828    0.5581 C   0  0  0  0  0  0  0  0  0  0  0  0
    0.6414   -0.3710   -0.5217 C   0  0  0  0  0  0  0  0  0  0  0  0
    2.0272   -0.1283    0.0009 C   0  0  0  0  0  0  0  0  0  0  0  0
    2.1300    0.9794    0.8084 O   0  0  0  0  0  0  0  0  0  0  0  0
   -1.0067    0.7287    1.0485 C   0  0  0  0  0  0  0  0  0  0  0  0
   -1.7300   -1.3390   -1.0360 H   0  0  0  0  0  0  0  0  0  0  0  0
   -2.4426   -1.2488    0.6992 H   0  0  0  0  0  0  0  0  0  0  0  0
   -0.1095   -1.2249    1.3892 H   0  0  0  0  0  0  0  0  0  0  0  0
    0.6965   -1.2761   -1.1711 H   0  0  0  0  0  0  0  0  0  0  0  0
    0.3303    0.4704   -1.1653 H   0  0  0  0  0  0  0  0  0  0  0  0
    2.6938   -0.0198   -0.8913 H   0  0  0  0  0  0  0  0  0  0  0  0
    2.4015   -1.0419    0.5263 H   0  0  0  0  0  0  0  0  0  0  0  0
    2.6183    1.6890    0.3232 H   0  0  0  0  0  0  0  0  0  0  0  0
   -0.3045    1.5671    1.1146 H   0  0  0  0  0  0  0  0  0  0  0  0
   -1.6270    0.5042    1.9216 H   0  0  0  0  0  0  0  0  0  0  0  0
  1  2  2  0
  2  3  1  0
  3  4  1  0
  4  5  1  0
  5  6  1  0
  6  7  1  0
  4  8  1  0
  8  2  1  0
  3  9  1  0
  3 10  1  0
  4 11  1  0
  5 12  1  0
  5 13  1  0
  6 14  1  0
  6 15  1  0
  7 16  1  0
  8 17  1  0
  8 18  1  0
M  END
