
     RDKit          3D

 17 18  0  0  0  0  0  0  0  0999 V2000
   -0.6663   -1.9149    1.5907 O   0  0  0  0  0  0  0  0  0  0  0  0
    0.0278   -1.2604    0.8007 C   0  0  0  0  0  0  0  0  0  0  0  0
    1.4110   -1.3008    0.7216 O   0  0  0  0  0  0  0  0  0  0  0  0
    2.0397   -0.1186    0.2454 C   0  0  0  0  0  0  0  0  0  0  0  0
    1.3105    0.4948   -0.9173 C   0  0  0  0  0  0  0  0  0  0  0  0
    0.1655   -0.2228   -1.2611 O   0  0  0  0  0  0  0  0  0  0  0  0
   -0.6624   -0.3516   -0.1480 C   0  0  0  0  0  0  0  0  0  0  0  0
   -2.1213   -0.2907   -0.2545 C   0  0  0  0  0  0  0  0  0  0  0  0
   -1.3564    0.8659    0.3359 C   0  0  0  0  0  0  0  0  0  0  0  0
    1.9534    0.6195    1.0957 H   0  0  0  0  0  0  0  0  0  0  0  0
    3.1188   -0.2734    0.0490 H   0  0  0  0  0  0  0  0  0  0  0  0
    1.9665    0.4984   -1.8353 H   0  0  0  0  0  0  0  0  0  0  0  0
    0.9701    1.5379   -0.7170 H   0  0  0  0  0  0  0  0  0  0  0  0
   -2.6006   -0.1662   -1.2632 H   0  0  0  0  0  0  0  0  0  0  0  0
   -2.7605   -0.8937    0.4299 H   0  0  0  0  0  0  0  0  0  0  0  0
   -1.4944    1.0179    1.4340 H   0  0  0  0  0  0  0  0  0  0  0  0
   -1.3013    1.7588   -0.3064 H   0  0  0  0  0  0  0  0  0  0  0  0
  1  2  2  0
  2  3  1  0
  3  4  1  0
  4  5  1  0
  5  6  1  0
  6  7  1  0
  7  8  1  0
  8  9  1  0
  7  2  1  0
  9  7  1  0
  4 10  1  0
  4 11  1  0
  5 12  1  0
  5 13  1  0
  8 14  1  0
  8 15  1  0
  9 16  1  0
  9 17  1  0
M  END
