
     RDKit          3D

 19 20  0  0  0  0  0  0  0  0999 V2000
    0.5526   -1.8010    1.7815 O   0  0  0  0  0  0  0  0  0  0  0  0
    0.7669   -1.0441    0.8650 C   0  0  0  0  0  0  0  0  0  0  0  0
    1.8869   -0.7215   -0.0953 C   0  0  0  0  0  0  0  0  0  0  0  0
    1.2432    0.6674   -0.2230 C   0  0  0  0  0  0  0  0  0  0  0  0
    1.3743    1.1833   -1.4807 O   0  0  0  0  0  0  0  0  0  0  0  0
    0.0089    0.0054    0.1786 C   0  0  0  0  0  0  0  0  0  0  0  0
   -1.0561    0.7128    0.8941 C   0  0  0  0  0  0  0  0  0  0  0  0
   -2.0445   -0.2602    0.2371 C   0  0  0  0  0  0  0  0  0  0  0  0
   -0.9779   -0.4306   -0.8544 C   0  0  0  0  0  0  0  0  0  0  0  0
    1.7164   -1.2598   -1.0411 H   0  0  0  0  0  0  0  0  0  0  0  0
    2.8808   -0.7337    0.3364 H   0  0  0  0  0  0  0  0  0  0  0  0
    1.6678    1.3187    0.5640 H   0  0  0  0  0  0  0  0  0  0  0  0
    1.2780    2.1707   -1.4948 H   0  0  0  0  0  0  0  0  0  0  0  0
   -1.0788    0.7203    1.9845 H   0  0  0  0  0  0  0  0  0  0  0  0
   -1.2555    1.7247    0.4511 H   0  0  0  0  0  0  0  0  0  0  0  0
   -2.0930   -1.1936    0.8201 H   0  0  0  0  0  0  0  0  0  0  0  0
   -2.9772    0.1849   -0.0936 H   0  0  0  0  0  0  0  0  0  0  0  0
   -1.1059    0.2520   -1.7084 H   0  0  0  0  0  0  0  0  0  0  0  0
   -0.7869   -1.4958   -1.1209 H   0  0  0  0  0  0  0  0  0  0  0  0
  1  2  2  0
  2  3  1  0
  3  4  1  0
  4  5  1  0
  4  6  1  0
  6  7  1  0
  7  8  1  0
  8  9  1  0
  6  2  1  0
  9  6  1  0
  3 10  1  0
  3 11  1  0
  4 12  1  0
  5 13  1  0
  7 14  1  0
  7 15  1  0
  8 16  1  0
  8 17  1  0
  9 18  1  0
  9 19  1  0
M  END
