
     RDKit          3D

 19 20  0  0  0  0  0  0  0  0999 V2000
   -2.6707    0.7315    1.8892 O   0  0  0  0  0  0  0  0  0  0  0  0
   -1.9002    0.2731    1.0803 C   0  0  0  0  0  0  0  0  0  0  0  0
   -0.7447   -0.6584    1.1421 C   0  0  0  0  0  0  0  0  0  0  0  0
   -0.2458    0.0050   -0.1272 C   0  0  0  0  0  0  0  0  0  0  0  0
    0.6932    1.1569    0.0854 C   0  0  0  0  0  0  0  0  0  0  0  0
    2.0199    0.4758   -0.0057 C   0  0  0  0  0  0  0  0  0  0  0  0
    1.8976   -0.6789   -0.6515 C   0  0  0  0  0  0  0  0  0  0  0  0
    0.4768   -0.8822   -1.0552 C   0  0  0  0  0  0  0  0  0  0  0  0
   -1.6576    0.3605   -0.3830 C   0  0  0  0  0  0  0  0  0  0  0  0
   -1.0941   -1.6877    0.8846 H   0  0  0  0  0  0  0  0  0  0  0  0
   -0.0919   -0.5695    2.0101 H   0  0  0  0  0  0  0  0  0  0  0  0
    0.6171    1.8807   -0.7494 H   0  0  0  0  0  0  0  0  0  0  0  0
    0.5483    1.6579    1.0708 H   0  0  0  0  0  0  0  0  0  0  0  0
    2.9179    0.9250    0.4217 H   0  0  0  0  0  0  0  0  0  0  0  0
    2.7586   -1.3281   -0.8220 H   0  0  0  0  0  0  0  0  0  0  0  0
    0.4155   -0.5968   -2.1233 H   0  0  0  0  0  0  0  0  0  0  0  0
    0.1899   -1.9602   -0.9206 H   0  0  0  0  0  0  0  0  0  0  0  0
   -2.2502   -0.4325   -0.8941 H   0  0  0  0  0  0  0  0  0  0  0  0
   -1.8795    1.3280   -0.8523 H   0  0  0  0  0  0  0  0  0  0  0  0
  1  2  2  0
  2  3  1  0
  3  4  1  0
  4  5  1  0
  5  6  1  0
  6  7  2  0
  7  8  1  0
  4  9  1  0
  9  2  1  0
  8  4  1  0
  3 10  1  0
  3 11  1  0
  5 12  1  0
  5 13  1  0
  6 14  1  0
  7 15  1  0
  8 16  1  0
  8 17  1  0
  9 18  1  0
  9 19  1  0
M  END
