
     RDKit          3D

 16 16  0  0  0  0  0  0  0  0999 V2000
   -1.0869   -1.7257    1.3301 O   0  0  0  0  0  0  0  0  0  0  0  0
   -1.3795   -0.6735    0.7554 C   0  0  0  0  0  0  0  0  0  0  0  0
   -2.5711   -0.0992    0.3764 O   0  0  0  0  0  0  0  0  0  0  0  0
   -1.8851    0.4915   -0.7136 C   0  0  0  0  0  0  0  0  0  0  0  0
   -0.6800    0.4807    0.1895 C   0  0  0  0  0  0  0  0  0  0  0  0
    0.6365    0.2356   -0.4638 C   0  0  0  0  0  0  0  0  0  0  0  0
    1.5630   -0.3544    0.5734 C   0  0  0  0  0  0  0  0  0  0  0  0
    2.8288   -0.6205    0.0615 O   0  0  0  0  0  0  0  0  0  0  0  0
   -2.2941    1.4674   -0.9848 H   0  0  0  0  0  0  0  0  0  0  0  0
   -1.8546   -0.2269   -1.5510 H   0  0  0  0  0  0  0  0  0  0  0  0
   -0.7061    1.3384    0.8741 H   0  0  0  0  0  0  0  0  0  0  0  0
    0.5149   -0.5408   -1.2697 H   0  0  0  0  0  0  0  0  0  0  0  0
    1.0824    1.1459   -0.9110 H   0  0  0  0  0  0  0  0  0  0  0  0
    1.5931    0.3581    1.4237 H   0  0  0  0  0  0  0  0  0  0  0  0
    1.1751   -1.3211    0.9466 H   0  0  0  0  0  0  0  0  0  0  0  0
    3.0637    0.0443   -0.6366 H   0  0  0  0  0  0  0  0  0  0  0  0
  1  2  2  0
  2  3  1  0
  3  4  1  0
  4  5  1  0
  5  6  1  0
  6  7  1  0
  7  8  1  0
  5  2  1  0
  4  9  1  0
  4 10  1  0
  5 11  1  0
  6 12  1  0
  6 13  1  0
  7 14  1  0
  7 15  1  0
  8 16  1  0
M  END
