
     RDKit          3D

 17 17  0  0  0  0  0  0  0  0999 V2000
    1.1765    2.4497   -0.7193 O   0  0  0  0  0  0  0  0  0  0  0  0
    0.4690    1.4377   -0.5417 C   0  0  0  0  0  0  0  0  0  0  0  0
   -0.9044    1.4943   -0.7302 O   0  0  0  0  0  0  0  0  0  0  0  0
   -1.8640    0.4342   -0.5857 C   0  0  0  0  0  0  0  0  0  0  0  0
   -1.1932   -0.7377   -0.8524 O   0  0  0  0  0  0  0  0  0  0  0  0
   -0.6326   -1.3288    0.2540 C   0  0  0  0  0  0  0  0  0  0  0  0
    0.3923   -0.4536    0.9493 C   0  0  0  0  0  0  0  0  0  0  0  0
    1.2365    0.2346   -0.1274 C   0  0  0  0  0  0  0  0  0  0  0  0
    2.5019    0.5502    0.3411 O   0  0  0  0  0  0  0  0  0  0  0  0
   -2.6861    0.6009   -1.3155 H   0  0  0  0  0  0  0  0  0  0  0  0
   -2.2366    0.4586    0.4671 H   0  0  0  0  0  0  0  0  0  0  0  0
   -1.3995   -1.6640    1.0019 H   0  0  0  0  0  0  0  0  0  0  0  0
   -0.0620   -2.2253   -0.1123 H   0  0  0  0  0  0  0  0  0  0  0  0
   -0.2044    0.3171    1.5154 H   0  0  0  0  0  0  0  0  0  0  0  0
    1.0077   -1.0626    1.6214 H   0  0  0  0  0  0  0  0  0  0  0  0
    1.2662   -0.4328   -1.0264 H   0  0  0  0  0  0  0  0  0  0  0  0
    3.1326   -0.0726   -0.1393 H   0  0  0  0  0  0  0  0  0  0  0  0
  1  2  2  0
  2  3  1  0
  3  4  1  0
  4  5  1  0
  5  6  1  0
  6  7  1  0
  7  8  1  0
  8  9  1  0
  8  2  1  0
  4 10  1  0
  4 11  1  0
  6 12  1  0
  6 13  1  0
  7 14  1  0
  7 15  1  0
  8 16  1  0
  9 17  1  0
M  END
