
     RDKit          3D

 17 18  0  0  0  0  0  0  0  0999 V2000
    2.5274   -0.4611   -0.0824 O   0  0  0  0  0  0  0  0  0  0  0  0
    1.4432   -0.0315    0.2320 C   0  0  0  0  0  0  0  0  0  0  0  0
    1.1297    1.4177    0.3914 C   0  0  0  0  0  0  0  0  0  0  0  0
   -0.2522    1.5364    0.4214 O   0  0  0  0  0  0  0  0  0  0  0  0
   -0.8979    0.8469   -0.5729 C   0  0  0  0  0  0  0  0  0  0  0  0
   -2.0374   -0.0180   -0.1135 C   0  0  0  0  0  0  0  0  0  0  0  0
   -0.7747   -0.6397   -0.4882 C   0  0  0  0  0  0  0  0  0  0  0  0
    0.3097   -0.9797    0.4887 C   0  0  0  0  0  0  0  0  0  0  0  0
    0.7525   -2.2940    0.3119 O   0  0  0  0  0  0  0  0  0  0  0  0
    1.4934    1.7007    1.4079 H   0  0  0  0  0  0  0  0  0  0  0  0
    1.5579    2.0319   -0.4051 H   0  0  0  0  0  0  0  0  0  0  0  0
   -0.8864    1.2577   -1.5968 H   0  0  0  0  0  0  0  0  0  0  0  0
   -2.3603    0.0623    0.9413 H   0  0  0  0  0  0  0  0  0  0  0  0
   -2.8729   -0.0807   -0.8228 H   0  0  0  0  0  0  0  0  0  0  0  0
   -0.7215   -1.2291   -1.4439 H   0  0  0  0  0  0  0  0  0  0  0  0
    0.0022   -0.8483    1.5434 H   0  0  0  0  0  0  0  0  0  0  0  0
    1.5872   -2.2717   -0.2124 H   0  0  0  0  0  0  0  0  0  0  0  0
  1  2  2  0
  2  3  1  0
  3  4  1  0
  4  5  1  0
  5  6  1  0
  6  7  1  0
  7  8  1  0
  8  9  1  0
  8  2  1  0
  7  5  1  0
  3 10  1  0
  3 11  1  0
  5 12  1  0
  6 13  1  0
  6 14  1  0
  7 15  1  0
  8 16  1  0
  9 17  1  0
M  END
