
     RDKit          3D

 17 18  0  0  0  0  0  0  0  0999 V2000
    0.6803   -0.8909   -2.2695 O   0  0  0  0  0  0  0  0  0  0  0  0
    0.5082   -0.4966   -1.1500 C   0  0  0  0  0  0  0  0  0  0  0  0
    0.0823   -1.2447    0.0947 C   0  0  0  0  0  0  0  0  0  0  0  0
    1.0189   -0.6128    1.0869 C   0  0  0  0  0  0  0  0  0  0  0  0
    1.4246    0.5657    0.6452 C   0  0  0  0  0  0  0  0  0  0  0  0
    0.6533    0.8935   -0.5702 C   0  0  0  0  0  0  0  0  0  0  0  0
   -0.7498    1.3473   -0.2595 C   0  0  0  0  0  0  0  0  0  0  0  0
   -1.4055    0.5233    0.6297 O   0  0  0  0  0  0  0  0  0  0  0  0
   -1.3466   -0.8093    0.3472 C   0  0  0  0  0  0  0  0  0  0  0  0
    0.2131   -2.3165    0.0024 H   0  0  0  0  0  0  0  0  0  0  0  0
    1.3052   -1.0754    2.0220 H   0  0  0  0  0  0  0  0  0  0  0  0
    2.1818    1.1985    1.0747 H   0  0  0  0  0  0  0  0  0  0  0  0
    1.1265    1.5845   -1.2509 H   0  0  0  0  0  0  0  0  0  0  0  0
   -1.2674    1.4560   -1.2359 H   0  0  0  0  0  0  0  0  0  0  0  0
   -0.7168    2.3615    0.1889 H   0  0  0  0  0  0  0  0  0  0  0  0
   -1.7790   -1.3680    1.1963 H   0  0  0  0  0  0  0  0  0  0  0  0
   -1.9292   -1.1161   -0.5519 H   0  0  0  0  0  0  0  0  0  0  0  0
  1  2  2  0
  2  3  1  0
  3  4  1  0
  4  5  2  0
  5  6  1  0
  6  7  1  0
  7  8  1  0
  8  9  1  0
  6  2  1  0
  9  3  1  0
  3 10  1  0
  4 11  1  0
  5 12  1  0
  6 13  1  0
  7 14  1  0
  7 15  1  0
  9 16  1  0
  9 17  1  0
M  END
