
     RDKit          3D

 17 18  0  0  0  0  0  0  0  0999 V2000
    0.4046    0.8697    1.9110 O   0  0  0  0  0  0  0  0  0  0  0  0
    0.4480    0.4559    0.7867 C   0  0  0  0  0  0  0  0  0  0  0  0
    1.6508    0.1831   -0.0180 C   0  0  0  0  0  0  0  0  0  0  0  0
    2.6697   -0.4185    0.7129 O   0  0  0  0  0  0  0  0  0  0  0  0
    1.0978   -0.7403   -1.0830 C   0  0  0  0  0  0  0  0  0  0  0  0
   -0.2443   -0.5143   -1.1885 O   0  0  0  0  0  0  0  0  0  0  0  0
   -0.7005    0.1188   -0.0651 C   0  0  0  0  0  0  0  0  0  0  0  0
   -1.8536    1.0278   -0.2140 C   0  0  0  0  0  0  0  0  0  0  0  0
   -1.9672   -0.2344    0.6105 C   0  0  0  0  0  0  0  0  0  0  0  0
    1.9959    1.1263   -0.4903 H   0  0  0  0  0  0  0  0  0  0  0  0
    2.4565   -1.3777    0.8090 H   0  0  0  0  0  0  0  0  0  0  0  0
    1.6392   -0.5726   -2.0601 H   0  0  0  0  0  0  0  0  0  0  0  0
    1.2459   -1.8089   -0.7803 H   0  0  0  0  0  0  0  0  0  0  0  0
   -2.4168    1.0134   -1.1525 H   0  0  0  0  0  0  0  0  0  0  0  0
   -1.8667    2.0132    0.3079 H   0  0  0  0  0  0  0  0  0  0  0  0
   -2.5277   -1.1017    0.2110 H   0  0  0  0  0  0  0  0  0  0  0  0
   -2.0315   -0.0397    1.7027 H   0  0  0  0  0  0  0  0  0  0  0  0
  1  2  2  0
  2  3  1  0
  3  4  1  0
  3  5  1  0
  5  6  1  0
  6  7  1  0
  7  8  1  0
  8  9  1  0
  7  2  1  0
  9  7  1  0
  3 10  1  0
  4 11  1  0
  5 12  1  0
  5 13  1  0
  8 14  1  0
  8 15  1  0
  9 16  1  0
  9 17  1  0
M  END
