
     RDKit          3D

 14 15  0  0  0  0  0  0  0  0999 V2000
   -1.1005   -1.0206    1.9491 O   0  0  0  0  0  0  0  0  0  0  0  0
   -0.5703   -0.6108    1.0072 C   0  0  0  0  0  0  0  0  0  0  0  0
   -0.7940    0.6141    0.2218 C   0  0  0  0  0  0  0  0  0  0  0  0
    0.6153    1.1761    0.3496 C   0  0  0  0  0  0  0  0  0  0  0  0
    1.4101    0.1071    0.2110 C   0  0  0  0  0  0  0  0  0  0  0  0
    0.5443   -1.1386    0.2027 C   0  0  0  0  0  0  0  0  0  0  0  0
   -0.0591   -1.1707   -1.0564 O   0  0  0  0  0  0  0  0  0  0  0  0
   -0.8022    0.0206   -1.1617 C   0  0  0  0  0  0  0  0  0  0  0  0
   -1.5665    1.2714    0.4965 H   0  0  0  0  0  0  0  0  0  0  0  0
    0.8862    2.1936    0.5124 H   0  0  0  0  0  0  0  0  0  0  0  0
    2.4836    0.1096    0.1195 H   0  0  0  0  0  0  0  0  0  0  0  0
    1.0222   -2.0243    0.5182 H   0  0  0  0  0  0  0  0  0  0  0  0
   -0.2640    0.6848   -1.8366 H   0  0  0  0  0  0  0  0  0  0  0  0
   -1.8050   -0.2124   -1.5334 H   0  0  0  0  0  0  0  0  0  0  0  0
  1  2  2  0
  2  3  1  0
  3  4  1  0
  4  5  2  0
  5  6  1  0
  6  7  1  0
  7  8  1  0
  6  2  1  0
  8  3  1  0
  3  9  1  0
  4 10  1  0
  5 11  1  0
  6 12  1  0
  8 13  1  0
  8 14  1  0
M  END
