
     RDKit          3D

 19 19  0  0  0  0  0  0  0  0999 V2000
   -1.3558    2.0887    1.3163 O   0  0  0  0  0  0  0  0  0  0  0  0
   -1.0686    1.2804    0.4557 C   0  0  0  0  0  0  0  0  0  0  0  0
   -2.0566    0.3016   -0.0971 C   0  0  0  0  0  0  0  0  0  0  0  0
   -1.5987   -1.0729    0.4010 C   0  0  0  0  0  0  0  0  0  0  0  0
   -0.1685   -1.2383    0.0977 C   0  0  0  0  0  0  0  0  0  0  0  0
    0.6846   -0.2648   -0.1402 C   0  0  0  0  0  0  0  0  0  0  0  0
    2.1236   -0.5616   -0.4385 C   0  0  0  0  0  0  0  0  0  0  0  0
    2.9108    0.0578    0.5305 O   0  0  0  0  0  0  0  0  0  0  0  0
    0.3043    1.1868   -0.1345 C   0  0  0  0  0  0  0  0  0  0  0  0
   -1.9404    0.2772   -1.1997 H   0  0  0  0  0  0  0  0  0  0  0  0
   -3.0885    0.5259    0.1945 H   0  0  0  0  0  0  0  0  0  0  0  0
   -1.8157   -1.1233    1.4965 H   0  0  0  0  0  0  0  0  0  0  0  0
   -2.1898   -1.8210   -0.1238 H   0  0  0  0  0  0  0  0  0  0  0  0
    0.2187   -2.2613    0.0676 H   0  0  0  0  0  0  0  0  0  0  0  0
    2.3837   -0.0621   -1.4166 H   0  0  0  0  0  0  0  0  0  0  0  0
    2.3237   -1.6324   -0.5481 H   0  0  0  0  0  0  0  0  0  0  0  0
    3.0949    0.9857    0.3170 H   0  0  0  0  0  0  0  0  0  0  0  0
    1.0374    1.8001    0.4236 H   0  0  0  0  0  0  0  0  0  0  0  0
    0.2010    1.5333   -1.2019 H   0  0  0  0  0  0  0  0  0  0  0  0
  1  2  2  0
  2  3  1  0
  3  4  1  0
  4  5  1  0
  5  6  2  0
  6  7  1  0
  7  8  1  0
  6  9  1  0
  9  2  1  0
  3 10  1  0
  3 11  1  0
  4 12  1  0
  4 13  1  0
  5 14  1  0
  7 15  1  0
  7 16  1  0
  8 17  1  0
  9 18  1  0
  9 19  1  0
M  END
