
     RDKit          3D

 19 21  0  0  0  0  0  0  0  0999 V2000
   -1.4096   -0.4742    2.1039 O   0  0  0  0  0  0  0  0  0  0  0  0
   -1.2932   -0.0226    0.9816 C   0  0  0  0  0  0  0  0  0  0  0  0
   -2.0160   -0.3780   -0.2860 C   0  0  0  0  0  0  0  0  0  0  0  0
   -0.7243    0.0270   -0.9987 C   0  0  0  0  0  0  0  0  0  0  0  0
    0.3461   -0.9782   -0.7839 C   0  0  0  0  0  0  0  0  0  0  0  0
    1.5328   -0.1275   -0.3759 C   0  0  0  0  0  0  0  0  0  0  0  0
    1.7324    0.0673    1.0787 C   0  0  0  0  0  0  0  0  0  0  0  0
    0.9165    1.0483    0.3697 C   0  0  0  0  0  0  0  0  0  0  0  0
   -0.5482    0.9671    0.1917 C   0  0  0  0  0  0  0  0  0  0  0  0
   -2.8145    0.3437   -0.5571 H   0  0  0  0  0  0  0  0  0  0  0  0
   -2.2719   -1.4388   -0.3908 H   0  0  0  0  0  0  0  0  0  0  0  0
   -0.8389    0.4917   -1.9639 H   0  0  0  0  0  0  0  0  0  0  0  0
    0.5929   -1.5976   -1.6646 H   0  0  0  0  0  0  0  0  0  0  0  0
    0.0860   -1.6350    0.0871 H   0  0  0  0  0  0  0  0  0  0  0  0
    2.3351    0.0571   -1.0979 H   0  0  0  0  0  0  0  0  0  0  0  0
    1.3294   -0.7106    1.7367 H   0  0  0  0  0  0  0  0  0  0  0  0
    2.7536    0.4047    1.3886 H   0  0  0  0  0  0  0  0  0  0  0  0
    1.3767    2.0192    0.0917 H   0  0  0  0  0  0  0  0  0  0  0  0
   -1.0847    1.9363    0.0892 H   0  0  0  0  0  0  0  0  0  0  0  0
  1  2  2  0
  2  3  1  0
  3  4  1  0
  4  5  1  0
  5  6  1  0
  6  7  1  0
  7  8  1  0
  8  9  1  0
  9  2  1  0
  9  4  1  0
  8  6  1  0
  3 10  1  0
  3 11  1  0
  4 12  1  0
  5 13  1  0
  5 14  1  0
  6 15  1  0
  7 16  1  0
  7 17  1  0
  8 18  1  0
  9 19  1  0
M  END
