
     RDKit          3D

 19 20  0  0  0  0  0  0  0  0999 V2000
   -2.0151   -1.9119   -0.4482 O   0  0  0  0  0  0  0  0  0  0  0  0
   -1.2953   -1.1424    0.1626 C   0  0  0  0  0  0  0  0  0  0  0  0
   -1.7830    0.1409    0.7417 C   0  0  0  0  0  0  0  0  0  0  0  0
   -0.8229    1.3091    0.4530 C   0  0  0  0  0  0  0  0  0  0  0  0
    0.3196    0.7351   -0.2664 C   0  0  0  0  0  0  0  0  0  0  0  0
    1.6893    0.5735    0.0525 C   0  0  0  0  0  0  0  0  0  0  0  0
    2.5507    0.0489   -0.9305 O   0  0  0  0  0  0  0  0  0  0  0  0
    0.8490   -0.3392    0.7447 C   0  0  0  0  0  0  0  0  0  0  0  0
    0.1538   -1.5707    0.3042 C   0  0  0  0  0  0  0  0  0  0  0  0
   -1.8855   -0.0185    1.8415 H   0  0  0  0  0  0  0  0  0  0  0  0
   -2.7575    0.3725    0.2656 H   0  0  0  0  0  0  0  0  0  0  0  0
   -0.4953    1.7086    1.4326 H   0  0  0  0  0  0  0  0  0  0  0  0
   -1.3538    2.1253   -0.0698 H   0  0  0  0  0  0  0  0  0  0  0  0
   -0.0055    0.3512   -1.2807 H   0  0  0  0  0  0  0  0  0  0  0  0
    2.2112    1.3630    0.6334 H   0  0  0  0  0  0  0  0  0  0  0  0
    3.2427    0.6897   -1.2033 H   0  0  0  0  0  0  0  0  0  0  0  0
    0.6719   -0.1443    1.8318 H   0  0  0  0  0  0  0  0  0  0  0  0
    0.5454   -1.9360   -0.6636 H   0  0  0  0  0  0  0  0  0  0  0  0
    0.1802   -2.3549    1.0870 H   0  0  0  0  0  0  0  0  0  0  0  0
  1  2  2  0
  2  3  1  0
  3  4  1  0
  4  5  1  0
  5  6  1  0
  6  7  1  0
  6  8  1  0
  8  9  1  0
  9  2  1  0
  8  5  1  0
  3 10  1  0
  3 11  1  0
  4 12  1  0
  4 13  1  0
  5 14  1  0
  6 15  1  0
  7 16  1  0
  8 17  1  0
  9 18  1  0
  9 19  1  0
M  END
