
     RDKit          3D

 15 16  0  0  0  0  0  0  0  0999 V2000
    1.5062   -2.1993   -0.4118 O   0  0  0  0  0  0  0  0  0  0  0  0
    0.9702   -1.0966   -0.2410 C   0  0  0  0  0  0  0  0  0  0  0  0
    1.5226    0.2108   -0.6405 C   0  0  0  0  0  0  0  0  0  0  0  0
    0.7520    1.2555   -0.4025 C   0  0  0  0  0  0  0  0  0  0  0  0
   -0.5751    0.9875    0.1981 C   0  0  0  0  0  0  0  0  0  0  0  0
   -1.2421   -0.2096   -0.4940 C   0  0  0  0  0  0  0  0  0  0  0  0
   -0.3536   -1.0373    0.4243 C   0  0  0  0  0  0  0  0  0  0  0  0
   -0.4406    0.0951    1.3779 C   0  0  0  0  0  0  0  0  0  0  0  0
   -0.4121    0.2096    2.5684 O   0  0  0  0  0  0  0  0  0  0  0  0
    2.5057    0.2760   -1.0998 H   0  0  0  0  0  0  0  0  0  0  0  0
    1.0471    2.2442   -0.6217 H   0  0  0  0  0  0  0  0  0  0  0  0
   -1.2262    1.8591    0.3197 H   0  0  0  0  0  0  0  0  0  0  0  0
   -2.2799   -0.2871   -0.1732 H   0  0  0  0  0  0  0  0  0  0  0  0
   -1.0040   -0.3158   -1.5533 H   0  0  0  0  0  0  0  0  0  0  0  0
   -0.7701   -1.9922    0.7494 H   0  0  0  0  0  0  0  0  0  0  0  0
  1  2  2  0
  2  3  1  0
  3  4  2  0
  4  5  1  0
  5  6  1  0
  6  7  1  0
  7  8  1  0
  8  9  2  0
  7  2  1  0
  8  5  1  0
  3 10  1  0
  4 11  1  0
  5 12  1  0
  6 13  1  0
  6 14  1  0
  7 15  1  0
M  END
