
     RDKit          3D

 17 18  0  0  0  0  0  0  0  0999 V2000
    0.6545    2.6787   -0.2828 O   0  0  0  0  0  0  0  0  0  0  0  0
    0.5099    1.4391   -0.1486 C   0  0  0  0  0  0  0  0  0  0  0  0
    1.6269    0.5056   -0.0520 C   0  0  0  0  0  0  0  0  0  0  0  0
    1.3847   -0.8153   -0.0060 C   0  0  0  0  0  0  0  0  0  0  0  0
    0.0315   -1.3401   -0.2259 C   0  0  0  0  0  0  0  0  0  0  0  0
   -0.7860   -0.3539   -1.0754 C   0  0  0  0  0  0  0  0  0  0  0  0
   -0.8331    0.8100   -0.0760 C   0  0  0  0  0  0  0  0  0  0  0  0
   -0.9322    0.0597    1.2281 C   0  0  0  0  0  0  0  0  0  0  0  0
   -0.6884   -1.2789    0.9707 O   0  0  0  0  0  0  0  0  0  0  0  0
    2.6383    0.8966   -0.0189 H   0  0  0  0  0  0  0  0  0  0  0  0
    2.2119   -1.4456    0.1947 H   0  0  0  0  0  0  0  0  0  0  0  0
   -0.0129   -2.3372   -0.6632 H   0  0  0  0  0  0  0  0  0  0  0  0
   -1.7939   -0.7941   -1.2157 H   0  0  0  0  0  0  0  0  0  0  0  0
   -0.2745   -0.0828   -1.9984 H   0  0  0  0  0  0  0  0  0  0  0  0
   -1.6572    1.4875   -0.2582 H   0  0  0  0  0  0  0  0  0  0  0  0
   -0.1368    0.4003    1.9308 H   0  0  0  0  0  0  0  0  0  0  0  0
   -1.9427    0.1706    1.6968 H   0  0  0  0  0  0  0  0  0  0  0  0
  1  2  2  0
  2  3  1  0
  3  4  2  0
  4  5  1  0
  5  6  1  0
  6  7  1  0
  7  8  1  0
  8  9  1  0
  7  2  1  0
  9  5  1  0
  3 10  1  0
  4 11  1  0
  5 12  1  0
  6 13  1  0
  6 14  1  0
  7 15  1  0
  8 16  1  0
  8 17  1  0
M  END
