
     RDKit          3D

 13 14  0  0  0  0  0  0  0  0999 V2000
   -0.0650    2.3915   -0.0007 O   0  0  0  0  0  0  0  0  0  0  0  0
   -0.3008    1.2037   -0.0023 C   0  0  0  0  0  0  0  0  0  0  0  0
   -1.5037    0.3358    0.0534 C   0  0  0  0  0  0  0  0  0  0  0  0
   -0.6201   -0.8030   -0.4741 C   0  0  0  0  0  0  0  0  0  0  0  0
    0.5249    0.0148   -0.0624 C   0  0  0  0  0  0  0  0  0  0  0  0
    1.8481   -0.2158    0.1130 C   0  0  0  0  0  0  0  0  0  0  0  0
    1.0046   -0.3936    1.2854 O   0  0  0  0  0  0  0  0  0  0  0  0
   -1.8757    0.1424    1.0960 H   0  0  0  0  0  0  0  0  0  0  0  0
   -2.3219    0.6194   -0.6593 H   0  0  0  0  0  0  0  0  0  0  0  0
   -0.8390   -1.7327    0.0880 H   0  0  0  0  0  0  0  0  0  0  0  0
   -0.7688   -0.9813   -1.5498 H   0  0  0  0  0  0  0  0  0  0  0  0
    2.5827    0.5831    0.3133 H   0  0  0  0  0  0  0  0  0  0  0  0
    2.3345   -1.1645   -0.2005 H   0  0  0  0  0  0  0  0  0  0  0  0
  1  2  2  0
  2  3  1  0
  3  4  1  0
  4  5  1  0
  5  6  1  0
  6  7  1  0
  5  2  1  0
  7  5  1  0
  3  8  1  0
  3  9  1  0
  4 10  1  0
  4 11  1  0
  6 12  1  0
  6 13  1  0
M  END
