
     RDKit          3D

 17 17  0  0  0  0  0  0  0  0999 V2000
   -2.2795   -0.4597    1.8957 O   0  0  0  0  0  0  0  0  0  0  0  0
   -1.9265   -0.3854    0.6996 C   0  0  0  0  0  0  0  0  0  0  0  0
   -2.5004   -0.8303   -0.4772 O   0  0  0  0  0  0  0  0  0  0  0  0
   -1.2697   -0.6621   -1.1335 C   0  0  0  0  0  0  0  0  0  0  0  0
   -0.7779    0.1865   -0.0127 C   0  0  0  0  0  0  0  0  0  0  0  0
   -0.8369    1.5520   -0.2769 O   0  0  0  0  0  0  0  0  0  0  0  0
    0.5789   -0.2090    0.5222 C   0  0  0  0  0  0  0  0  0  0  0  0
    1.6746    0.4296   -0.2768 C   0  0  0  0  0  0  0  0  0  0  0  0
    2.9088    0.0360    0.2535 O   0  0  0  0  0  0  0  0  0  0  0  0
   -0.6971   -1.5980   -1.2709 H   0  0  0  0  0  0  0  0  0  0  0  0
   -1.4252   -0.1234   -2.0965 H   0  0  0  0  0  0  0  0  0  0  0  0
   -0.7628    2.0883    0.5662 H   0  0  0  0  0  0  0  0  0  0  0  0
    0.6317    0.1577    1.5641 H   0  0  0  0  0  0  0  0  0  0  0  0
    0.6455   -1.3060    0.4906 H   0  0  0  0  0  0  0  0  0  0  0  0
    1.6067    1.5292   -0.1075 H   0  0  0  0  0  0  0  0  0  0  0  0
    1.6236    0.1867   -1.3469 H   0  0  0  0  0  0  0  0  0  0  0  0
    2.8061   -0.5921    1.0071 H   0  0  0  0  0  0  0  0  0  0  0  0
  1  2  2  0
  2  3  1  0
  3  4  1  0
  4  5  1  0
  5  6  1  0
  5  7  1  0
  7  8  1  0
  8  9  1  0
  5  2  1  0
  4 10  1  0
  4 11  1  0
  6 12  1  0
  7 13  1  0
  7 14  1  0
  8 15  1  0
  8 16  1  0
  9 17  1  0
M  END
