
     RDKit          3D

 17 18  0  0  0  0  0  0  0  0999 V2000
    2.6585    0.2276    1.8196 O   0  0  0  0  0  0  0  0  0  0  0  0
    1.7539    0.1547    0.9555 C   0  0  0  0  0  0  0  0  0  0  0  0
    1.7967    0.7535   -0.3712 C   0  0  0  0  0  0  0  0  0  0  0  0
    0.6540    0.5619   -0.9989 C   0  0  0  0  0  0  0  0  0  0  0  0
   -0.2606   -0.1896   -0.1364 C   0  0  0  0  0  0  0  0  0  0  0  0
   -1.6613    0.3555   -0.0071 C   0  0  0  0  0  0  0  0  0  0  0  0
   -2.2443    0.3828   -1.2694 O   0  0  0  0  0  0  0  0  0  0  0  0
    0.0494   -1.5941    0.1416 C   0  0  0  0  0  0  0  0  0  0  0  0
    0.4728   -0.5487    1.1101 C   0  0  0  0  0  0  0  0  0  0  0  0
    2.6279    1.2855   -0.8104 H   0  0  0  0  0  0  0  0  0  0  0  0
    0.4386    0.9079   -1.9895 H   0  0  0  0  0  0  0  0  0  0  0  0
   -1.5563    1.4174    0.3519 H   0  0  0  0  0  0  0  0  0  0  0  0
   -2.2836   -0.2131    0.6893 H   0  0  0  0  0  0  0  0  0  0  0  0
   -2.4431    1.3034   -1.5567 H   0  0  0  0  0  0  0  0  0  0  0  0
   -0.7418   -2.2739    0.4963 H   0  0  0  0  0  0  0  0  0  0  0  0
    0.8501   -2.0981   -0.4715 H   0  0  0  0  0  0  0  0  0  0  0  0
   -0.1111   -0.4328    2.0469 H   0  0  0  0  0  0  0  0  0  0  0  0
  1  2  2  0
  2  3  1  0
  3  4  2  0
  4  5  1  0
  5  6  1  0
  6  7  1  0
  5  8  1  0
  8  9  1  0
  9  2  1  0
  9  5  1  0
  3 10  1  0
  4 11  1  0
  6 12  1  0
  6 13  1  0
  7 14  1  0
  8 15  1  0
  8 16  1  0
  9 17  1  0
M  END
