
     RDKit          3D

 17 18  0  0  0  0  0  0  0  0999 V2000
   -1.5655    1.7718   -1.4110 O   0  0  0  0  0  0  0  0  0  0  0  0
   -1.5600    0.7968   -0.6392 C   0  0  0  0  0  0  0  0  0  0  0  0
   -2.5363    0.0894    0.0329 O   0  0  0  0  0  0  0  0  0  0  0  0
   -1.6287   -0.9882    0.3179 C   0  0  0  0  0  0  0  0  0  0  0  0
   -0.5668   -0.0730   -0.0639 C   0  0  0  0  0  0  0  0  0  0  0  0
    0.3716    0.4714    0.9528 C   0  0  0  0  0  0  0  0  0  0  0  0
    1.3901    0.5863   -0.1923 C   0  0  0  0  0  0  0  0  0  0  0  0
    2.6677    0.2264    0.1307 O   0  0  0  0  0  0  0  0  0  0  0  0
    0.5816   -0.5263   -0.8795 C   0  0  0  0  0  0  0  0  0  0  0  0
   -1.8157   -1.7775   -0.4568 H   0  0  0  0  0  0  0  0  0  0  0  0
   -1.6292   -1.3305    1.3489 H   0  0  0  0  0  0  0  0  0  0  0  0
    0.7188   -0.1920    1.7502 H   0  0  0  0  0  0  0  0  0  0  0  0
    0.1484    1.4982    1.3249 H   0  0  0  0  0  0  0  0  0  0  0  0
    1.2389    1.5149   -0.7623 H   0  0  0  0  0  0  0  0  0  0  0  0
    2.6616   -0.1456    1.0553 H   0  0  0  0  0  0  0  0  0  0  0  0
    0.9924   -1.5076   -0.5454 H   0  0  0  0  0  0  0  0  0  0  0  0
    0.5312   -0.4145   -1.9633 H   0  0  0  0  0  0  0  0  0  0  0  0
  1  2  2  0
  2  3  1  0
  3  4  1  0
  4  5  1  0
  5  6  1  0
  6  7  1  0
  7  8  1  0
  7  9  1  0
  5  2  1  0
  9  5  1  0
  4 10  1  0
  4 11  1  0
  6 12  1  0
  6 13  1  0
  7 14  1  0
  8 15  1  0
  9 16  1  0
  9 17  1  0
M  END
