
     RDKit          3D

 15 16  0  0  0  0  0  0  0  0999 V2000
    1.6091   -2.0522    0.6564 O   0  0  0  0  0  0  0  0  0  0  0  0
    1.1087   -0.9721    0.3480 C   0  0  0  0  0  0  0  0  0  0  0  0
    1.2494    0.4641    0.7003 C   0  0  0  0  0  0  0  0  0  0  0  0
    0.3399    0.8149   -0.4593 C   0  0  0  0  0  0  0  0  0  0  0  0
   -0.9428    1.4043   -0.0726 C   0  0  0  0  0  0  0  0  0  0  0  0
   -1.2000    2.6365   -0.0803 O   0  0  0  0  0  0  0  0  0  0  0  0
   -1.8153    0.4155    0.2969 O   0  0  0  0  0  0  0  0  0  0  0  0
   -1.3340   -0.8678   -0.0403 C   0  0  0  0  0  0  0  0  0  0  0  0
    0.0287   -0.6496   -0.6241 C   0  0  0  0  0  0  0  0  0  0  0  0
    2.3019    0.7920    0.5341 H   0  0  0  0  0  0  0  0  0  0  0  0
    0.8239    0.7386    1.6904 H   0  0  0  0  0  0  0  0  0  0  0  0
    0.8324    1.2033   -1.3542 H   0  0  0  0  0  0  0  0  0  0  0  0
   -1.9530   -1.3701   -0.8171 H   0  0  0  0  0  0  0  0  0  0  0  0
   -1.2656   -1.5136    0.8480 H   0  0  0  0  0  0  0  0  0  0  0  0
    0.2169   -1.0439   -1.6263 H   0  0  0  0  0  0  0  0  0  0  0  0
  1  2  2  0
  2  3  1  0
  3  4  1  0
  4  5  1  0
  5  6  2  0
  5  7  1  0
  7  8  1  0
  8  9  1  0
  9  2  1  0
  9  4  1  0
  3 10  1  0
  3 11  1  0
  4 12  1  0
  8 13  1  0
  8 14  1  0
  9 15  1  0
M  END
