
     RDKit          3D

 17 17  0  0  0  0  0  0  0  0999 V2000
   -2.4986   -0.4359    1.4306 O   0  0  0  0  0  0  0  0  0  0  0  0
   -1.7377   -0.2385    0.4386 C   0  0  0  0  0  0  0  0  0  0  0  0
   -1.5328    1.1318   -0.0205 C   0  0  0  0  0  0  0  0  0  0  0  0
   -0.3513    1.3666   -0.5951 C   0  0  0  0  0  0  0  0  0  0  0  0
    0.5990    0.2627   -0.7077 C   0  0  0  0  0  0  0  0  0  0  0  0
    1.5243    0.1683    0.5032 C   0  0  0  0  0  0  0  0  0  0  0  0
    2.5161   -0.7650    0.1518 O   0  0  0  0  0  0  0  0  0  0  0  0
    0.0597   -0.9570   -0.9644 O   0  0  0  0  0  0  0  0  0  0  0  0
   -1.0514   -1.3134   -0.2740 C   0  0  0  0  0  0  0  0  0  0  0  0
   -2.2849    1.9024    0.0972 H   0  0  0  0  0  0  0  0  0  0  0  0
   -0.1643    2.3833   -0.9509 H   0  0  0  0  0  0  0  0  0  0  0  0
    1.2883    0.5137   -1.5688 H   0  0  0  0  0  0  0  0  0  0  0  0
    2.0453    1.1386    0.6130 H   0  0  0  0  0  0  0  0  0  0  0  0
    1.0098   -0.1731    1.3997 H   0  0  0  0  0  0  0  0  0  0  0  0
    3.0557   -1.0209    0.9212 H   0  0  0  0  0  0  0  0  0  0  0  0
   -0.7480   -2.0824    0.4956 H   0  0  0  0  0  0  0  0  0  0  0  0
   -1.7290   -1.8811   -0.9698 H   0  0  0  0  0  0  0  0  0  0  0  0
  1  2  2  0
  2  3  1  0
  3  4  2  0
  4  5  1  0
  5  6  1  0
  6  7  1  0
  5  8  1  0
  8  9  1  0
  9  2  1  0
  3 10  1  0
  4 11  1  0
  5 12  1  0
  6 13  1  0
  6 14  1  0
  7 15  1  0
  9 16  1  0
  9 17  1  0
M  END
