
     RDKit          3D

 15 17  0  0  0  0  0  0  0  0999 V2000
    2.5662    1.5623   -0.0381 O   0  0  0  0  0  0  0  0  0  0  0  0
    1.6778    0.6912    0.1515 C   0  0  0  0  0  0  0  0  0  0  0  0
    1.8297   -0.6694    0.4660 O   0  0  0  0  0  0  0  0  0  0  0  0
    0.5397   -1.2523    0.2619 C   0  0  0  0  0  0  0  0  0  0  0  0
    0.2799   -1.0348   -1.1133 O   0  0  0  0  0  0  0  0  0  0  0  0
   -0.3586    0.1726   -1.0980 C   0  0  0  0  0  0  0  0  0  0  0  0
   -1.4963   -0.1246   -0.1057 C   0  0  0  0  0  0  0  0  0  0  0  0
   -0.3382   -0.1946    0.8661 C   0  0  0  0  0  0  0  0  0  0  0  0
    0.2475    0.9628    0.0722 C   0  0  0  0  0  0  0  0  0  0  0  0
    0.4199   -2.2499    0.5974 H   0  0  0  0  0  0  0  0  0  0  0  0
   -0.6023    0.7019   -1.9767 H   0  0  0  0  0  0  0  0  0  0  0  0
   -1.9666   -1.1127   -0.2670 H   0  0  0  0  0  0  0  0  0  0  0  0
   -2.1701    0.7191    0.0467 H   0  0  0  0  0  0  0  0  0  0  0  0
   -0.4874   -0.1084    1.8947 H   0  0  0  0  0  0  0  0  0  0  0  0
   -0.1412    1.9367    0.2422 H   0  0  0  0  0  0  0  0  0  0  0  0
  1  2  2  0
  2  3  1  0
  3  4  1  0
  4  5  1  0
  5  6  1  0
  6  7  1  0
  7  8  1  0
  8  9  1  0
  9  2  1  0
  8  4  1  0
  9  6  1  0
  4 10  1  0
  6 11  1  0
  7 12  1  0
  7 13  1  0
  8 14  1  0
  9 15  1  0
M  END
