
     RDKit          3D

 17 19  0  0  0  0  0  0  0  0999 V2000
    1.2245    0.4588    2.1860 O   0  0  0  0  0  0  0  0  0  0  0  0
    1.2085    0.1225    1.0295 C   0  0  0  0  0  0  0  0  0  0  0  0
    1.9786    0.4865   -0.1843 C   0  0  0  0  0  0  0  0  0  0  0  0
    0.7505    0.0772   -0.9882 C   0  0  0  0  0  0  0  0  0  0  0  0
   -0.2324    1.0291   -0.9502 O   0  0  0  0  0  0  0  0  0  0  0  0
   -1.3979    0.3363   -0.6939 C   0  0  0  0  0  0  0  0  0  0  0  0
   -1.8341    0.3575    0.7300 C   0  0  0  0  0  0  0  0  0  0  0  0
   -1.0336   -0.7784    0.2787 C   0  0  0  0  0  0  0  0  0  0  0  0
    0.4365   -0.8101    0.2053 C   0  0  0  0  0  0  0  0  0  0  0  0
    2.8049   -0.2251   -0.4252 H   0  0  0  0  0  0  0  0  0  0  0  0
    2.2489    1.5549   -0.2837 H   0  0  0  0  0  0  0  0  0  0  0  0
    0.9485   -0.4356   -1.9260 H   0  0  0  0  0  0  0  0  0  0  0  0
   -2.1000    0.1197   -1.5120 H   0  0  0  0  0  0  0  0  0  0  0  0
   -2.9116    0.1564    0.9241 H   0  0  0  0  0  0  0  0  0  0  0  0
   -1.4199    1.1180    1.4162 H   0  0  0  0  0  0  0  0  0  0  0  0
   -1.5470   -1.7458    0.0406 H   0  0  0  0  0  0  0  0  0  0  0  0
    0.8754   -1.8218    0.1532 H   0  0  0  0  0  0  0  0  0  0  0  0
  1  2  2  0
  2  3  1  0
  3  4  1  0
  4  5  1  0
  5  6  1  0
  6  7  1  0
  7  8  1  0
  8  9  1  0
  9  2  1  0
  9  4  1  0
  8  6  1  0
  3 10  1  0
  3 11  1  0
  4 12  1  0
  6 13  1  0
  7 14  1  0
  7 15  1  0
  8 16  1  0
  9 17  1  0
M  END
