
     RDKit          3D

 12 12  0  0  0  0  0  0  0  0999 V2000
    2.8833   -0.1091    0.3997 O   0  0  0  0  0  0  0  0  0  0  0  0
    1.6427   -0.1804    0.2806 C   0  0  0  0  0  0  0  0  0  0  0  0
    0.8135   -1.2288    0.6403 O   0  0  0  0  0  0  0  0  0  0  0  0
   -0.4658   -1.0580    0.0114 C   0  0  0  0  0  0  0  0  0  0  0  0
   -0.5924    0.4384   -0.2649 C   0  0  0  0  0  0  0  0  0  0  0  0
   -1.3295    1.0832    0.7216 O   0  0  0  0  0  0  0  0  0  0  0  0
    0.8055    0.8652   -0.2797 C   0  0  0  0  0  0  0  0  0  0  0  0
    1.2310    1.9628   -0.7076 O   0  0  0  0  0  0  0  0  0  0  0  0
   -1.2838   -1.4430    0.6164 H   0  0  0  0  0  0  0  0  0  0  0  0
   -0.3614   -1.5587   -0.9854 H   0  0  0  0  0  0  0  0  0  0  0  0
   -1.1167    0.5568   -1.2207 H   0  0  0  0  0  0  0  0  0  0  0  0
   -2.2265    0.6714    0.7884 H   0  0  0  0  0  0  0  0  0  0  0  0
  1  2  2  0
  2  3  1  0
  3  4  1  0
  4  5  1  0
  5  6  1  0
  5  7  1  0
  7  8  2  0
  7  2  1  0
  4  9  1  0
  4 10  1  0
  5 11  1  0
  6 12  1  0
M  END
