
     RDKit          3D

 15 16  0  0  0  0  0  0  0  0999 V2000
    3.2870   -0.4589    0.1530 O   0  0  0  0  0  0  0  0  0  0  0  0
    2.0454   -0.4133    0.0554 C   0  0  0  0  0  0  0  0  0  0  0  0
    1.3797   -0.1996   -1.1645 O   0  0  0  0  0  0  0  0  0  0  0  0
    0.0104    0.1738   -1.0784 C   0  0  0  0  0  0  0  0  0  0  0  0
   -0.1661    1.1252    0.1028 C   0  0  0  0  0  0  0  0  0  0  0  0
   -0.1475   -0.1419    0.9683 C   0  0  0  0  0  0  0  0  0  0  0  0
    1.1847   -0.5710    1.1570 O   0  0  0  0  0  0  0  0  0  0  0  0
   -0.7847   -0.8273   -0.2484 C   0  0  0  0  0  0  0  0  0  0  0  0
   -2.1294   -0.4976   -0.3062 O   0  0  0  0  0  0  0  0  0  0  0  0
   -0.4507    0.4938   -2.0089 H   0  0  0  0  0  0  0  0  0  0  0  0
    0.6863    1.7912    0.2597 H   0  0  0  0  0  0  0  0  0  0  0  0
   -1.1700    1.5443    0.1195 H   0  0  0  0  0  0  0  0  0  0  0  0
   -0.7770   -0.1019    1.8548 H   0  0  0  0  0  0  0  0  0  0  0  0
   -0.5179   -1.8737   -0.3814 H   0  0  0  0  0  0  0  0  0  0  0  0
   -2.4501   -0.0430    0.5174 H   0  0  0  0  0  0  0  0  0  0  0  0
  1  2  2  0
  2  3  1  0
  3  4  1  0
  4  5  1  0
  5  6  1  0
  6  7  1  0
  6  8  1  0
  8  9  1  0
  7  2  1  0
  8  4  1  0
  4 10  1  0
  5 11  1  0
  5 12  1  0
  6 13  1  0
  8 14  1  0
  9 15  1  0
M  END
