
     RDKit          3D

 17 19  0  0  0  0  0  0  0  0999 V2000
   -0.5928    2.5469    0.6344 O   0  0  0  0  0  0  0  0  0  0  0  0
   -0.6156    1.3430    0.4682 C   0  0  0  0  0  0  0  0  0  0  0  0
    0.5186    0.4476    0.8150 C   0  0  0  0  0  0  0  0  0  0  0  0
    1.6339    0.4076   -0.1917 C   0  0  0  0  0  0  0  0  0  0  0  0
    1.0071   -0.8077   -0.8374 C   0  0  0  0  0  0  0  0  0  0  0  0
    0.0871   -0.9263    0.3490 C   0  0  0  0  0  0  0  0  0  0  0  0
   -1.3691   -0.8199   -0.0135 C   0  0  0  0  0  0  0  0  0  0  0  0
   -1.6150   -0.1820   -1.2196 O   0  0  0  0  0  0  0  0  0  0  0  0
   -1.7512    0.6014   -0.0924 C   0  0  0  0  0  0  0  0  0  0  0  0
    0.8238    0.4466    1.8663 H   0  0  0  0  0  0  0  0  0  0  0  0
    2.6101    0.1290    0.2478 H   0  0  0  0  0  0  0  0  0  0  0  0
    1.6575    1.3135   -0.8550 H   0  0  0  0  0  0  0  0  0  0  0  0
    0.4611   -0.5057   -1.7625 H   0  0  0  0  0  0  0  0  0  0  0  0
    1.6889   -1.6523   -1.0116 H   0  0  0  0  0  0  0  0  0  0  0  0
    0.3592   -1.7409    1.0459 H   0  0  0  0  0  0  0  0  0  0  0  0
   -2.1072   -1.4966    0.4331 H   0  0  0  0  0  0  0  0  0  0  0  0
   -2.7964    0.8957    0.1239 H   0  0  0  0  0  0  0  0  0  0  0  0
  1  2  2  0
  2  3  1  0
  3  4  1  0
  4  5  1  0
  5  6  1  0
  6  7  1  0
  7  8  1  0
  8  9  1  0
  9  2  1  0
  6  3  1  0
  9  7  1  0
  3 10  1  0
  4 11  1  0
  4 12  1  0
  5 13  1  0
  5 14  1  0
  6 15  1  0
  7 16  1  0
  9 17  1  0
M  END
