
     RDKit          3D

 17 19  0  0  0  0  0  0  0  0999 V2000
    0.7020   -2.6103    0.8333 O   0  0  0  0  0  0  0  0  0  0  0  0
    0.3531   -1.5081    0.4720 C   0  0  0  0  0  0  0  0  0  0  0  0
   -0.7979   -0.7753    1.1194 C   0  0  0  0  0  0  0  0  0  0  0  0
   -1.3452    0.0317   -0.0333 C   0  0  0  0  0  0  0  0  0  0  0  0
   -0.6113    1.2397   -0.4192 C   0  0  0  0  0  0  0  0  0  0  0  0
    0.7181    1.5536    0.1175 C   0  0  0  0  0  0  0  0  0  0  0  0
    1.5603    0.5379    0.0190 C   0  0  0  0  0  0  0  0  0  0  0  0
    0.8921   -0.6207   -0.6106 C   0  0  0  0  0  0  0  0  0  0  0  0
   -0.3812   -0.0368   -1.1527 C   0  0  0  0  0  0  0  0  0  0  0  0
   -0.3859   -0.1448    1.9329 H   0  0  0  0  0  0  0  0  0  0  0  0
   -1.5455   -1.4836    1.5274 H   0  0  0  0  0  0  0  0  0  0  0  0
   -2.4140   -0.0599   -0.3001 H   0  0  0  0  0  0  0  0  0  0  0  0
   -1.2210    2.0458   -0.8866 H   0  0  0  0  0  0  0  0  0  0  0  0
    1.0187    2.5199    0.5620 H   0  0  0  0  0  0  0  0  0  0  0  0
    2.6122    0.5491    0.3572 H   0  0  0  0  0  0  0  0  0  0  0  0
    1.4956   -1.1599   -1.3363 H   0  0  0  0  0  0  0  0  0  0  0  0
   -0.6502   -0.0782   -2.2019 H   0  0  0  0  0  0  0  0  0  0  0  0
  1  2  2  0
  2  3  1  0
  3  4  1  0
  4  5  1  0
  5  6  1  0
  6  7  2  0
  7  8  1  0
  8  9  1  0
  8  2  1  0
  9  4  1  0
  9  5  1  0
  3 10  1  0
  3 11  1  0
  4 12  1  0
  5 13  1  0
  6 14  1  0
  7 15  1  0
  8 16  1  0
  9 17  1  0
M  END
