
     RDKit          3D

 16 16  0  0  0  0  0  0  0  0999 V2000
    0.0390   -2.1270   -1.0547 O   0  0  0  0  0  0  0  0  0  0  0  0
   -0.4848   -1.1156   -0.5325 C   0  0  0  0  0  0  0  0  0  0  0  0
   -1.8035   -1.0213   -0.1114 O   0  0  0  0  0  0  0  0  0  0  0  0
   -2.0613    0.2912    0.3758 C   0  0  0  0  0  0  0  0  0  0  0  0
   -0.6815    0.6614    0.9164 C   0  0  0  0  0  0  0  0  0  0  0  0
    0.1666    0.1895   -0.2481 C   0  0  0  0  0  0  0  0  0  0  0  0
    1.6165    0.0363    0.1226 C   0  0  0  0  0  0  0  0  0  0  0  0
    2.3217   -0.5666   -0.9143 O   0  0  0  0  0  0  0  0  0  0  0  0
   -2.2338    0.9231   -0.5057 H   0  0  0  0  0  0  0  0  0  0  0  0
   -2.8403    0.3304    1.1319 H   0  0  0  0  0  0  0  0  0  0  0  0
   -0.4153    0.0201    1.7935 H   0  0  0  0  0  0  0  0  0  0  0  0
   -0.5831    1.7311    1.1159 H   0  0  0  0  0  0  0  0  0  0  0  0
    0.0164    0.9041   -1.0827 H   0  0  0  0  0  0  0  0  0  0  0  0
    1.7062   -0.5052    1.0842 H   0  0  0  0  0  0  0  0  0  0  0  0
    2.0242    1.0687    0.2428 H   0  0  0  0  0  0  0  0  0  0  0  0
    3.2130   -0.8201   -0.5514 H   0  0  0  0  0  0  0  0  0  0  0  0
  1  2  2  0
  2  3  1  0
  3  4  1  0
  4  5  1  0
  5  6  1  0
  6  7  1  0
  7  8  1  0
  6  2  1  0
  4  9  1  0
  4 10  1  0
  5 11  1  0
  5 12  1  0
  6 13  1  0
  7 14  1  0
  7 15  1  0
  8 16  1  0
M  END
