
     RDKit          3D

 16 17  0  0  0  0  0  0  0  0999 V2000
    1.0272    1.1244    1.8059 O   0  0  0  0  0  0  0  0  0  0  0  0
    1.1651    0.4142    0.8424 C   0  0  0  0  0  0  0  0  0  0  0  0
    2.1475   -0.2204   -0.0436 C   0  0  0  0  0  0  0  0  0  0  0  0
    1.1669   -1.1159   -0.5353 O   0  0  0  0  0  0  0  0  0  0  0  0
    0.2219   -0.2699   -0.0541 C   0  0  0  0  0  0  0  0  0  0  0  0
   -1.0048   -0.8461    0.5701 C   0  0  0  0  0  0  0  0  0  0  0  0
   -1.7837    0.2854   -0.1174 C   0  0  0  0  0  0  0  0  0  0  0  0
   -0.5581    0.5632   -0.9999 C   0  0  0  0  0  0  0  0  0  0  0  0
    2.9462   -0.7105    0.5243 H   0  0  0  0  0  0  0  0  0  0  0  0
    2.4785    0.5069   -0.8253 H   0  0  0  0  0  0  0  0  0  0  0  0
   -0.9699   -0.7284    1.6722 H   0  0  0  0  0  0  0  0  0  0  0  0
   -1.3048   -1.8495    0.2822 H   0  0  0  0  0  0  0  0  0  0  0  0
   -1.9686    1.1495    0.5465 H   0  0  0  0  0  0  0  0  0  0  0  0
   -2.6302   -0.1369   -0.6530 H   0  0  0  0  0  0  0  0  0  0  0  0
   -0.2507    1.6417   -0.9794 H   0  0  0  0  0  0  0  0  0  0  0  0
   -0.6825    0.1922   -2.0356 H   0  0  0  0  0  0  0  0  0  0  0  0
  1  2  2  0
  2  3  1  0
  3  4  1  0
  4  5  1  0
  5  6  1  0
  6  7  1  0
  7  8  1  0
  5  2  1  0
  8  5  1  0
  3  9  1  0
  3 10  1  0
  6 11  1  0
  6 12  1  0
  7 13  1  0
  7 14  1  0
  8 15  1  0
  8 16  1  0
M  END
