
     RDKit          3D

 15 16  0  0  0  0  0  0  0  0999 V2000
    2.5564   -1.7614   -0.6577 O   0  0  0  0  0  0  0  0  0  0  0  0
    1.5855   -1.0131   -0.5116 C   0  0  0  0  0  0  0  0  0  0  0  0
    0.7465   -0.3227   -1.3895 O   0  0  0  0  0  0  0  0  0  0  0  0
   -0.0338    0.1213   -0.3298 C   0  0  0  0  0  0  0  0  0  0  0  0
   -1.5111    0.0087   -0.3166 C   0  0  0  0  0  0  0  0  0  0  0  0
   -1.9804   -1.2981   -0.4116 O   0  0  0  0  0  0  0  0  0  0  0  0
    0.6729    0.9661    0.7386 C   0  0  0  0  0  0  0  0  0  0  0  0
    1.7019    1.7573    0.1776 O   0  0  0  0  0  0  0  0  0  0  0  0
    0.8482   -0.4917    0.6751 C   0  0  0  0  0  0  0  0  0  0  0  0
   -1.9291    0.6320   -1.1324 H   0  0  0  0  0  0  0  0  0  0  0  0
   -1.8818    0.4824    0.6334 H   0  0  0  0  0  0  0  0  0  0  0  0
   -2.6399   -1.4516    0.3103 H   0  0  0  0  0  0  0  0  0  0  0  0
    0.0633    1.4520    1.4987 H   0  0  0  0  0  0  0  0  0  0  0  0
    1.3506    2.1038   -0.7003 H   0  0  0  0  0  0  0  0  0  0  0  0
    0.4507   -1.1848    1.4159 H   0  0  0  0  0  0  0  0  0  0  0  0
  1  2  2  0
  2  3  1  0
  3  4  1  0
  4  5  1  0
  5  6  1  0
  4  7  1  0
  7  8  1  0
  7  9  1  0
  9  2  1  0
  9  4  1  0
  5 10  1  0
  5 11  1  0
  6 12  1  0
  7 13  1  0
  8 14  1  0
  9 15  1  0
M  END
