
     RDKit          3D

 16 16  0  0  0  0  0  0  0  0999 V2000
    0.6957    1.5650   -1.6540 O   0  0  0  0  0  0  0  0  0  0  0  0
    0.4060    0.8732   -0.7009 C   0  0  0  0  0  0  0  0  0  0  0  0
    1.2502   -0.1674   -0.0084 C   0  0  0  0  0  0  0  0  0  0  0  0
    2.3129   -0.5722   -0.7930 O   0  0  0  0  0  0  0  0  0  0  0  0
    0.2387   -1.2855    0.1772 C   0  0  0  0  0  0  0  0  0  0  0  0
   -1.1201   -0.6469    0.1787 C   0  0  0  0  0  0  0  0  0  0  0  0
   -0.8883    0.8489    0.0763 C   0  0  0  0  0  0  0  0  0  0  0  0
   -1.8981    1.5131   -0.5717 O   0  0  0  0  0  0  0  0  0  0  0  0
    1.5580    0.2772    0.9505 H   0  0  0  0  0  0  0  0  0  0  0  0
    3.1191   -0.0746   -0.4726 H   0  0  0  0  0  0  0  0  0  0  0  0
    0.3982   -1.8243    1.1283 H   0  0  0  0  0  0  0  0  0  0  0  0
    0.3521   -1.9665   -0.6815 H   0  0  0  0  0  0  0  0  0  0  0  0
   -1.7885   -1.0212   -0.6199 H   0  0  0  0  0  0  0  0  0  0  0  0
   -1.6357   -0.8433    1.1504 H   0  0  0  0  0  0  0  0  0  0  0  0
   -0.6578    1.2191    1.0808 H   0  0  0  0  0  0  0  0  0  0  0  0
   -2.3425    2.1053    0.1082 H   0  0  0  0  0  0  0  0  0  0  0  0
  1  2  2  0
  2  3  1  0
  3  4  1  0
  3  5  1  0
  5  6  1  0
  6  7  1  0
  7  8  1  0
  7  2  1  0
  3  9  1  0
  4 10  1  0
  5 11  1  0
  5 12  1  0
  6 13  1  0
  6 14  1  0
  7 15  1  0
  8 16  1  0
M  END
