
     RDKit          3D

 19 19  0  0  0  0  0  0  0  0999 V2000
    0.0864   -1.6796    1.6683 O   0  0  0  0  0  0  0  0  0  0  0  0
   -0.5252   -1.0068    0.8774 C   0  0  0  0  0  0  0  0  0  0  0  0
   -1.9897   -0.6372    0.7757 C   0  0  0  0  0  0  0  0  0  0  0  0
   -1.5270    0.6430    0.1147 C   0  0  0  0  0  0  0  0  0  0  0  0
   -2.3050    1.0861   -0.9274 O   0  0  0  0  0  0  0  0  0  0  0  0
   -0.3269   -0.1986   -0.3479 C   0  0  0  0  0  0  0  0  0  0  0  0
    0.9337    0.5557   -0.5065 C   0  0  0  0  0  0  0  0  0  0  0  0
    2.1951   -0.2205   -0.5182 C   0  0  0  0  0  0  0  0  0  0  0  0
    2.3654   -0.9179    0.6709 O   0  0  0  0  0  0  0  0  0  0  0  0
   -2.5009   -0.5317    1.7323 H   0  0  0  0  0  0  0  0  0  0  0  0
   -2.4495   -1.3496    0.0439 H   0  0  0  0  0  0  0  0  0  0  0  0
   -1.2242    1.4005    0.8595 H   0  0  0  0  0  0  0  0  0  0  0  0
   -2.0206    1.9844   -1.1732 H   0  0  0  0  0  0  0  0  0  0  0  0
   -0.6773   -0.7446   -1.2719 H   0  0  0  0  0  0  0  0  0  0  0  0
    0.9785    1.3596    0.2735 H   0  0  0  0  0  0  0  0  0  0  0  0
    0.8633    1.0972   -1.4936 H   0  0  0  0  0  0  0  0  0  0  0  0
    2.1794   -0.9530   -1.3620 H   0  0  0  0  0  0  0  0  0  0  0  0
    3.0869    0.4149   -0.6989 H   0  0  0  0  0  0  0  0  0  0  0  0
    2.8576   -0.3017    1.2834 H   0  0  0  0  0  0  0  0  0  0  0  0
  1  2  2  0
  2  3  1  0
  3  4  1  0
  4  5  1  0
  4  6  1  0
  6  7  1  0
  7  8  1  0
  8  9  1  0
  6  2  1  0
  3 10  1  0
  3 11  1  0
  4 12  1  0
  5 13  1  0
  6 14  1  0
  7 15  1  0
  7 16  1  0
  8 17  1  0
  8 18  1  0
  9 19  1  0
M  END
