
     RDKit          3D

 13 14  0  0  0  0  0  0  0  0999 V2000
    3.6679   -0.0862    0.4284 O   0  0  0  0  0  0  0  0  0  0  0  0
    2.4352   -0.1144    0.1914 C   0  0  0  0  0  0  0  0  0  0  0  0
    1.6132    0.8715    0.4680 O   0  0  0  0  0  0  0  0  0  0  0  0
    0.4031    0.5106    0.0913 C   0  0  0  0  0  0  0  0  0  0  0  0
    0.4803   -0.7565   -0.4427 C   0  0  0  0  0  0  0  0  0  0  0  0
    1.7556   -1.1059   -0.3614 O   0  0  0  0  0  0  0  0  0  0  0  0
   -0.7845   -1.1860   -0.8591 O   0  0  0  0  0  0  0  0  0  0  0  0
   -1.6900   -0.4895    0.0121 C   0  0  0  0  0  0  0  0  0  0  0  0
   -1.0446    0.8895   -0.0088 C   0  0  0  0  0  0  0  0  0  0  0  0
   -2.7122   -0.4964   -0.3499 H   0  0  0  0  0  0  0  0  0  0  0  0
   -1.5535   -0.9046    1.0359 H   0  0  0  0  0  0  0  0  0  0  0  0
   -1.1941    1.3453   -1.0157 H   0  0  0  0  0  0  0  0  0  0  0  0
   -1.3764    1.5227    0.8106 H   0  0  0  0  0  0  0  0  0  0  0  0
  1  2  2  0
  2  3  1  0
  3  4  1  0
  4  5  2  0
  5  6  1  0
  5  7  1  0
  7  8  1  0
  8  9  1  0
  6  2  1  0
  9  4  1  0
  8 10  1  0
  8 11  1  0
  9 12  1  0
  9 13  1  0
M  END
