
     RDKit          3D

 19 21  0  0  0  0  0  0  0  0999 V2000
    1.4080    2.4169    0.0189 O   0  0  0  0  0  0  0  0  0  0  0  0
    1.0937    1.2606    0.0360 C   0  0  0  0  0  0  0  0  0  0  0  0
    0.8271    0.1776   -0.9919 C   0  0  0  0  0  0  0  0  0  0  0  0
    1.5490   -0.7044   -0.0006 C   0  0  0  0  0  0  0  0  0  0  0  0
    0.7655    0.1465    1.0089 C   0  0  0  0  0  0  0  0  0  0  0  0
   -0.6944   -0.2012    1.0039 C   0  0  0  0  0  0  0  0  0  0  0  0
   -1.3493    0.8361    0.0669 C   0  0  0  0  0  0  0  0  0  0  0  0
   -0.6510   -0.0188   -1.0179 C   0  0  0  0  0  0  0  0  0  0  0  0
   -1.0805   -1.1647   -0.0953 C   0  0  0  0  0  0  0  0  0  0  0  0
    1.3561    0.2959   -1.9288 H   0  0  0  0  0  0  0  0  0  0  0  0
    2.6143   -0.4129    0.0430 H   0  0  0  0  0  0  0  0  0  0  0  0
    1.3968   -1.7560    0.0013 H   0  0  0  0  0  0  0  0  0  0  0  0
    1.2489    0.2512    1.9802 H   0  0  0  0  0  0  0  0  0  0  0  0
   -1.1907   -0.3256    1.9596 H   0  0  0  0  0  0  0  0  0  0  0  0
   -0.9368    1.8410    0.1690 H   0  0  0  0  0  0  0  0  0  0  0  0
   -2.4290    0.7066    0.0453 H   0  0  0  0  0  0  0  0  0  0  0  0
   -1.1590    0.0126   -1.9789 H   0  0  0  0  0  0  0  0  0  0  0  0
   -0.5889   -2.1032   -0.1886 H   0  0  0  0  0  0  0  0  0  0  0  0
   -2.1798   -1.2583   -0.1309 H   0  0  0  0  0  0  0  0  0  0  0  0
  1  2  2  0
  2  3  1  0
  3  4  1  0
  4  5  1  0
  5  6  1  0
  6  7  1  0
  7  8  1  0
  8  9  1  0
  5  2  1  0
  9  6  1  0
  8  3  1  0
  3 10  1  0
  4 11  1  0
  4 12  1  0
  5 13  1  0
  6 14  1  0
  7 15  1  0
  7 16  1  0
  8 17  1  0
  9 18  1  0
  9 19  1  0
M  END
