
     RDKit          3D

 17 18  0  0  0  0  0  0  0  0999 V2000
    1.1011    2.3592   -0.7190 O   0  0  0  0  0  0  0  0  0  0  0  0
    0.8735    1.1968   -0.4483 C   0  0  0  0  0  0  0  0  0  0  0  0
    1.6503   -0.0626   -0.6120 C   0  0  0  0  0  0  0  0  0  0  0  0
    0.7507   -0.6647    0.4788 C   0  0  0  0  0  0  0  0  0  0  0  0
    1.4039   -0.5873    1.6872 O   0  0  0  0  0  0  0  0  0  0  0  0
   -0.1892    0.4250    0.1386 C   0  0  0  0  0  0  0  0  0  0  0  0
   -1.3746    0.8285    0.7997 C   0  0  0  0  0  0  0  0  0  0  0  0
   -1.4653    0.1014   -0.5290 C   0  0  0  0  0  0  0  0  0  0  0  0
   -1.7939   -1.2608   -0.5162 O   0  0  0  0  0  0  0  0  0  0  0  0
    2.7092   -0.0176   -0.3328 H   0  0  0  0  0  0  0  0  0  0  0  0
    1.4438   -0.5790   -1.5851 H   0  0  0  0  0  0  0  0  0  0  0  0
    0.4245   -1.6845    0.2146 H   0  0  0  0  0  0  0  0  0  0  0  0
    2.1138   -1.2690    1.6933 H   0  0  0  0  0  0  0  0  0  0  0  0
   -1.7944    0.2213    1.6510 H   0  0  0  0  0  0  0  0  0  0  0  0
   -1.7519    1.8467    0.7713 H   0  0  0  0  0  0  0  0  0  0  0  0
   -1.6899    0.6545   -1.4463 H   0  0  0  0  0  0  0  0  0  0  0  0
   -2.4116   -1.5079   -1.2456 H   0  0  0  0  0  0  0  0  0  0  0  0
  1  2  2  0
  2  3  1  0
  3  4  1  0
  4  5  1  0
  4  6  1  0
  6  7  1  0
  7  8  1  0
  8  9  1  0
  6  2  1  0
  8  6  1  0
  3 10  1  0
  3 11  1  0
  4 12  1  0
  5 13  1  0
  7 14  1  0
  7 15  1  0
  8 16  1  0
  9 17  1  0
M  END
