
     RDKit          3D

 17 17  0  0  0  0  0  0  0  0999 V2000
    2.8905   -0.4179   -0.1864 O   0  0  0  0  0  0  0  0  0  0  0  0
    1.6906   -0.1992   -0.0686 C   0  0  0  0  0  0  0  0  0  0  0  0
    0.4514   -1.0195   -0.1389 C   0  0  0  0  0  0  0  0  0  0  0  0
    0.4317   -2.1126    0.7202 O   0  0  0  0  0  0  0  0  0  0  0  0
   -0.3516    0.1092    0.4380 C   0  0  0  0  0  0  0  0  0  0  0  0
   -1.5701    0.3773   -0.3984 C   0  0  0  0  0  0  0  0  0  0  0  0
   -2.3349   -0.8087   -0.4044 O   0  0  0  0  0  0  0  0  0  0  0  0
    0.8248    0.9962    0.2068 C   0  0  0  0  0  0  0  0  0  0  0  0
    0.7629    1.8511   -0.8786 O   0  0  0  0  0  0  0  0  0  0  0  0
    0.1890   -1.2689   -1.2047 H   0  0  0  0  0  0  0  0  0  0  0  0
    1.3678   -2.4455    0.7742 H   0  0  0  0  0  0  0  0  0  0  0  0
   -0.5959    0.0410    1.5064 H   0  0  0  0  0  0  0  0  0  0  0  0
   -1.2905    0.5512   -1.4682 H   0  0  0  0  0  0  0  0  0  0  0  0
   -2.1972    1.1933   -0.0434 H   0  0  0  0  0  0  0  0  0  0  0  0
   -2.3768   -1.1174    0.5311 H   0  0  0  0  0  0  0  0  0  0  0  0
    1.2245    1.4840    1.1414 H   0  0  0  0  0  0  0  0  0  0  0  0
    0.8838    2.7863   -0.5265 H   0  0  0  0  0  0  0  0  0  0  0  0
  1  2  2  0
  2  3  1  0
  3  4  1  0
  3  5  1  0
  5  6  1  0
  6  7  1  0
  5  8  1  0
  8  9  1  0
  8  2  1  0
  3 10  1  0
  4 11  1  0
  5 12  1  0
  6 13  1  0
  6 14  1  0
  7 15  1  0
  8 16  1  0
  9 17  1  0
M  END
