
     RDKit          3D

 19 20  0  0  0  0  0  0  0  0999 V2000
   -0.5304    0.2160    2.4752 O   0  0  0  0  0  0  0  0  0  0  0  0
   -0.3131   -0.1594    1.3408 C   0  0  0  0  0  0  0  0  0  0  0  0
    0.4594   -1.2878    0.7504 C   0  0  0  0  0  0  0  0  0  0  0  0
    0.5247   -0.4877   -0.5372 C   0  0  0  0  0  0  0  0  0  0  0  0
    1.7860    0.3513   -0.5481 C   0  0  0  0  0  0  0  0  0  0  0  0
    1.8159    1.2393    0.5247 O   0  0  0  0  0  0  0  0  0  0  0  0
   -0.6386    0.2209    0.0041 C   0  0  0  0  0  0  0  0  0  0  0  0
   -2.0297   -0.2114   -0.4897 C   0  0  0  0  0  0  0  0  0  0  0  0
   -1.5044    1.1786   -0.5489 C   0  0  0  0  0  0  0  0  0  0  0  0
    1.4200   -1.5078    1.2277 H   0  0  0  0  0  0  0  0  0  0  0  0
   -0.2304   -2.1463    0.6066 H   0  0  0  0  0  0  0  0  0  0  0  0
    0.3117   -1.0284   -1.4576 H   0  0  0  0  0  0  0  0  0  0  0  0
    1.8720    0.9610   -1.4661 H   0  0  0  0  0  0  0  0  0  0  0  0
    2.6818   -0.3292   -0.5067 H   0  0  0  0  0  0  0  0  0  0  0  0
    2.4575    0.9102    1.1919 H   0  0  0  0  0  0  0  0  0  0  0  0
   -2.7597   -0.5283    0.2786 H   0  0  0  0  0  0  0  0  0  0  0  0
   -2.0063   -0.8803   -1.3757 H   0  0  0  0  0  0  0  0  0  0  0  0
   -2.0027    1.9325    0.1151 H   0  0  0  0  0  0  0  0  0  0  0  0
   -1.3136    1.5569   -1.5851 H   0  0  0  0  0  0  0  0  0  0  0  0
  1  2  2  0
  2  3  1  0
  3  4  1  0
  4  5  1  0
  5  6  1  0
  4  7  1  0
  7  8  1  0
  8  9  1  0
  7  2  1  0
  9  7  1  0
  3 10  1  0
  3 11  1  0
  4 12  1  0
  5 13  1  0
  5 14  1  0
  6 15  1  0
  8 16  1  0
  8 17  1  0
  9 18  1  0
  9 19  1  0
M  END
