
     RDKit          3D

 15 15  0  0  0  0  0  0  0  0999 V2000
    0.1795    2.6495   -0.3427 O   0  0  0  0  0  0  0  0  0  0  0  0
    0.1398    1.4182   -0.0921 C   0  0  0  0  0  0  0  0  0  0  0  0
    1.3966    0.7255    0.1605 C   0  0  0  0  0  0  0  0  0  0  0  0
    1.4956   -0.5927    0.1040 C   0  0  0  0  0  0  0  0  0  0  0  0
    0.3285   -1.4706   -0.2224 C   0  0  0  0  0  0  0  0  0  0  0  0
   -0.8150   -0.6811   -0.7112 C   0  0  0  0  0  0  0  0  0  0  0  0
   -1.4826   -1.0860   -1.6235 O   0  0  0  0  0  0  0  0  0  0  0  0
   -1.1234    0.6387   -0.0414 C   0  0  0  0  0  0  0  0  0  0  0  0
   -1.4188    0.3162    1.2837 O   0  0  0  0  0  0  0  0  0  0  0  0
    2.2665    1.3327    0.4009 H   0  0  0  0  0  0  0  0  0  0  0  0
    2.4671   -1.0434    0.3042 H   0  0  0  0  0  0  0  0  0  0  0  0
    0.6327   -2.1727   -1.0211 H   0  0  0  0  0  0  0  0  0  0  0  0
    0.0337   -2.0628    0.6922 H   0  0  0  0  0  0  0  0  0  0  0  0
   -1.9601    1.1383   -0.5535 H   0  0  0  0  0  0  0  0  0  0  0  0
   -2.1400    0.8904    1.6623 H   0  0  0  0  0  0  0  0  0  0  0  0
  1  2  2  0
  2  3  1  0
  3  4  2  0
  4  5  1  0
  5  6  1  0
  6  7  2  0
  6  8  1  0
  8  9  1  0
  8  2  1  0
  3 10  1  0
  4 11  1  0
  5 12  1  0
  5 13  1  0
  8 14  1  0
  9 15  1  0
M  END
