
     RDKit          3D

 19 20  0  0  0  0  0  0  0  0999 V2000
    0.8169   -2.1969    1.2582 O   0  0  0  0  0  0  0  0  0  0  0  0
    0.7406   -1.0854    0.7702 C   0  0  0  0  0  0  0  0  0  0  0  0
    1.8556   -0.6798   -0.1280 C   0  0  0  0  0  0  0  0  0  0  0  0
    1.7371    0.7454   -0.5355 C   0  0  0  0  0  0  0  0  0  0  0  0
    0.6460    1.4669   -0.3312 C   0  0  0  0  0  0  0  0  0  0  0  0
   -0.5730    0.9843    0.3081 C   0  0  0  0  0  0  0  0  0  0  0  0
   -1.6065    0.3471   -0.5994 C   0  0  0  0  0  0  0  0  0  0  0  0
   -1.6634   -0.8102    0.3888 C   0  0  0  0  0  0  0  0  0  0  0  0
   -0.4215   -0.2667    1.1075 C   0  0  0  0  0  0  0  0  0  0  0  0
    1.9573   -1.3641   -1.0006 H   0  0  0  0  0  0  0  0  0  0  0  0
    2.7973   -0.8024    0.4650 H   0  0  0  0  0  0  0  0  0  0  0  0
    2.5876    1.2081   -1.0217 H   0  0  0  0  0  0  0  0  0  0  0  0
    0.6665    2.5173   -0.6740 H   0  0  0  0  0  0  0  0  0  0  0  0
   -1.0774    1.7787    0.9327 H   0  0  0  0  0  0  0  0  0  0  0  0
   -2.5845    0.8748   -0.6316 H   0  0  0  0  0  0  0  0  0  0  0  0
   -1.2376    0.0720   -1.6103 H   0  0  0  0  0  0  0  0  0  0  0  0
   -1.5131   -1.7978   -0.0846 H   0  0  0  0  0  0  0  0  0  0  0  0
   -2.5454   -0.8169    1.0461 H   0  0  0  0  0  0  0  0  0  0  0  0
   -0.5825   -0.1745    2.2011 H   0  0  0  0  0  0  0  0  0  0  0  0
  1  2  2  0
  2  3  1  0
  3  4  1  0
  4  5  2  0
  5  6  1  0
  6  7  1  0
  7  8  1  0
  8  9  1  0
  9  2  1  0
  9  6  1  0
  3 10  1  0
  3 11  1  0
  4 12  1  0
  5 13  1  0
  6 14  1  0
  7 15  1  0
  7 16  1  0
  8 17  1  0
  8 18  1  0
  9 19  1  0
M  END
