
     RDKit          3D

 16 17  0  0  0  0  0  0  0  0999 V2000
    2.6447   -0.3454    0.4935 O   0  0  0  0  0  0  0  0  0  0  0  0
    1.4707   -0.2212    0.2015 C   0  0  0  0  0  0  0  0  0  0  0  0
    0.9169    1.0958   -0.2192 C   0  0  0  0  0  0  0  0  0  0  0  0
   -0.5218    1.1280    0.2518 C   0  0  0  0  0  0  0  0  0  0  0  0
   -1.2818    0.1628   -0.6549 C   0  0  0  0  0  0  0  0  0  0  0  0
   -0.8780   -0.7777    0.4269 C   0  0  0  0  0  0  0  0  0  0  0  0
    0.5020   -1.3542    0.2385 C   0  0  0  0  0  0  0  0  0  0  0  0
   -0.7679    0.2878    1.3109 O   0  0  0  0  0  0  0  0  0  0  0  0
    1.5077    1.9482    0.0979 H   0  0  0  0  0  0  0  0  0  0  0  0
    0.8807    1.0849   -1.3309 H   0  0  0  0  0  0  0  0  0  0  0  0
   -0.9739    2.1135    0.3601 H   0  0  0  0  0  0  0  0  0  0  0  0
   -2.3513    0.3718   -0.6780 H   0  0  0  0  0  0  0  0  0  0  0  0
   -0.7893    0.0040   -1.6412 H   0  0  0  0  0  0  0  0  0  0  0  0
   -1.6456   -1.5174    0.6330 H   0  0  0  0  0  0  0  0  0  0  0  0
    0.5804   -2.0108   -0.6520 H   0  0  0  0  0  0  0  0  0  0  0  0
    0.7066   -1.9702    1.1619 H   0  0  0  0  0  0  0  0  0  0  0  0
  1  2  2  0
  2  3  1  0
  3  4  1  0
  4  5  1  0
  5  6  1  0
  6  7  1  0
  6  8  1  0
  7  2  1  0
  8  4  1  0
  3  9  1  0
  3 10  1  0
  4 11  1  0
  5 12  1  0
  5 13  1  0
  6 14  1  0
  7 15  1  0
  7 16  1  0
M  END
