
     RDKit          3D

 19 19  0  0  0  0  0  0  0  0999 V2000
    1.9036   -1.6735   -1.0586 O   0  0  0  0  0  0  0  0  0  0  0  0
    0.9548   -1.1007   -0.4943 C   0  0  0  0  0  0  0  0  0  0  0  0
   -0.2985   -1.4894   -0.8942 O   0  0  0  0  0  0  0  0  0  0  0  0
   -1.5528   -1.2117   -0.2559 C   0  0  0  0  0  0  0  0  0  0  0  0
   -1.5673    0.2450    0.2001 C   0  0  0  0  0  0  0  0  0  0  0  0
   -0.6100    1.0927   -0.5680 C   0  0  0  0  0  0  0  0  0  0  0  0
    0.7421    1.2268    0.0678 C   0  0  0  0  0  0  0  0  0  0  0  0
    1.3190   -0.0938    0.5158 C   0  0  0  0  0  0  0  0  0  0  0  0
    2.6844    0.0438    0.6788 O   0  0  0  0  0  0  0  0  0  0  0  0
   -2.3771   -1.4559   -0.9259 H   0  0  0  0  0  0  0  0  0  0  0  0
   -1.5466   -1.8408    0.6783 H   0  0  0  0  0  0  0  0  0  0  0  0
   -1.4812    0.3380    1.2961 H   0  0  0  0  0  0  0  0  0  0  0  0
   -2.6089    0.6087   -0.0444 H   0  0  0  0  0  0  0  0  0  0  0  0
   -0.5773    0.7328   -1.6143 H   0  0  0  0  0  0  0  0  0  0  0  0
   -1.0462    2.1345   -0.6042 H   0  0  0  0  0  0  0  0  0  0  0  0
    0.6761    1.8890    0.9400 H   0  0  0  0  0  0  0  0  0  0  0  0
    1.4472    1.6402   -0.6899 H   0  0  0  0  0  0  0  0  0  0  0  0
    0.8736   -0.4325    1.4845 H   0  0  0  0  0  0  0  0  0  0  0  0
    3.0651   -0.6533    1.2884 H   0  0  0  0  0  0  0  0  0  0  0  0
  1  2  2  0
  2  3  1  0
  3  4  1  0
  4  5  1  0
  5  6  1  0
  6  7  1  0
  7  8  1  0
  8  9  1  0
  8  2  1  0
  4 10  1  0
  4 11  1  0
  5 12  1  0
  5 13  1  0
  6 14  1  0
  6 15  1  0
  7 16  1  0
  7 17  1  0
  8 18  1  0
  9 19  1  0
M  END
