
     RDKit          3D

 18 18  0  0  0  0  0  0  0  0999 V2000
    1.5812   -1.8319   -0.9791 O   0  0  0  0  0  0  0  0  0  0  0  0
    1.0677   -1.0912   -0.1789 C   0  0  0  0  0  0  0  0  0  0  0  0
   -0.2841   -1.4259    0.3146 C   0  0  0  0  0  0  0  0  0  0  0  0
   -1.3407   -0.5637   -0.3221 C   0  0  0  0  0  0  0  0  0  0  0  0
   -1.2611    0.8716    0.0961 C   0  0  0  0  0  0  0  0  0  0  0  0
    0.0740    1.5081   -0.0996 C   0  0  0  0  0  0  0  0  0  0  0  0
    1.0449    1.0932    0.7808 O   0  0  0  0  0  0  0  0  0  0  0  0
    1.8724    0.1121    0.2362 C   0  0  0  0  0  0  0  0  0  0  0  0
   -0.5518   -2.4904    0.1915 H   0  0  0  0  0  0  0  0  0  0  0  0
   -0.3197   -1.2246    1.4123 H   0  0  0  0  0  0  0  0  0  0  0  0
   -2.3249   -0.9540    0.0404 H   0  0  0  0  0  0  0  0  0  0  0  0
   -1.3567   -0.6970   -1.4248 H   0  0  0  0  0  0  0  0  0  0  0  0
   -1.5599    0.9788    1.1353 H   0  0  0  0  0  0  0  0  0  0  0  0
   -1.9979    1.4363   -0.5220 H   0  0  0  0  0  0  0  0  0  0  0  0
    0.4307    1.4343   -1.1643 H   0  0  0  0  0  0  0  0  0  0  0  0
   -0.0658    2.6074    0.0672 H   0  0  0  0  0  0  0  0  0  0  0  0
    2.5464   -0.2346    1.0462 H   0  0  0  0  0  0  0  0  0  0  0  0
    2.4454    0.4715   -0.6298 H   0  0  0  0  0  0  0  0  0  0  0  0
  1  2  2  0
  2  3  1  0
  3  4  1  0
  4  5  1  0
  5  6  1  0
  6  7  1  0
  7  8  1  0
  8  2  1  0
  3  9  1  0
  3 10  1  0
  4 11  1  0
  4 12  1  0
  5 13  1  0
  5 14  1  0
  6 15  1  0
  6 16  1  0
  8 17  1  0
  8 18  1  0
M  END
