
     RDKit          3D

 17 18  0  0  0  0  0  0  0  0999 V2000
    0.7865    2.3865   -0.5702 O   0  0  0  0  0  0  0  0  0  0  0  0
    0.7049    1.1766   -0.5038 C   0  0  0  0  0  0  0  0  0  0  0  0
    1.7896    0.3163    0.0980 C   0  0  0  0  0  0  0  0  0  0  0  0
    1.4014   -0.8251    0.6791 O   0  0  0  0  0  0  0  0  0  0  0  0
    0.1698   -1.3756    0.3526 C   0  0  0  0  0  0  0  0  0  0  0  0
   -0.8199   -0.2953    0.3543 C   0  0  0  0  0  0  0  0  0  0  0  0
   -0.6759    0.4703    1.5435 O   0  0  0  0  0  0  0  0  0  0  0  0
   -1.7517    0.2085   -0.5668 C   0  0  0  0  0  0  0  0  0  0  0  0
   -0.4305    0.4323   -0.9896 C   0  0  0  0  0  0  0  0  0  0  0  0
    2.3227    0.9648    0.8306 H   0  0  0  0  0  0  0  0  0  0  0  0
    2.5460    0.1321   -0.7177 H   0  0  0  0  0  0  0  0  0  0  0  0
   -0.0709   -2.1026    1.1726 H   0  0  0  0  0  0  0  0  0  0  0  0
    0.2647   -1.9518   -0.5916 H   0  0  0  0  0  0  0  0  0  0  0  0
   -1.3680    0.0934    2.1557 H   0  0  0  0  0  0  0  0  0  0  0  0
   -2.3697    1.1155   -0.2966 H   0  0  0  0  0  0  0  0  0  0  0  0
   -2.4104   -0.5034   -1.1141 H   0  0  0  0  0  0  0  0  0  0  0  0
   -0.0885   -0.2426   -1.8358 H   0  0  0  0  0  0  0  0  0  0  0  0
  1  2  2  0
  2  3  1  0
  3  4  1  0
  4  5  1  0
  5  6  1  0
  6  7  1  0
  6  8  1  0
  8  9  1  0
  9  2  1  0
  9  6  1  0
  3 10  1  0
  3 11  1  0
  5 12  1  0
  5 13  1  0
  7 14  1  0
  8 15  1  0
  8 16  1  0
  9 17  1  0
M  END
