
     RDKit          3D

 15 16  0  0  0  0  0  0  0  0999 V2000
   -1.6521    2.0949    0.6631 O   0  0  0  0  0  0  0  0  0  0  0  0
   -0.8282    1.2765    0.2278 C   0  0  0  0  0  0  0  0  0  0  0  0
    0.1143    1.5557   -0.7505 O   0  0  0  0  0  0  0  0  0  0  0  0
    0.9166    0.3996   -1.0794 C   0  0  0  0  0  0  0  0  0  0  0  0
    1.5392   -0.0169    0.2119 C   0  0  0  0  0  0  0  0  0  0  0  0
    0.6650   -0.3091    1.1701 C   0  0  0  0  0  0  0  0  0  0  0  0
   -0.7735   -0.1176    0.7284 C   0  0  0  0  0  0  0  0  0  0  0  0
   -0.9009   -0.9680   -0.5495 C   0  0  0  0  0  0  0  0  0  0  0  0
    0.0004   -0.5693   -1.4961 O   0  0  0  0  0  0  0  0  0  0  0  0
    1.6225    0.5940   -1.8768 H   0  0  0  0  0  0  0  0  0  0  0  0
    2.6149   -0.0584    0.3003 H   0  0  0  0  0  0  0  0  0  0  0  0
    0.9298   -0.6481    2.1627 H   0  0  0  0  0  0  0  0  0  0  0  0
   -1.4930   -0.3764    1.4829 H   0  0  0  0  0  0  0  0  0  0  0  0
   -1.9750   -0.8155   -0.8669 H   0  0  0  0  0  0  0  0  0  0  0  0
   -0.7802   -2.0415   -0.3280 H   0  0  0  0  0  0  0  0  0  0  0  0
  1  2  2  0
  2  3  1  0
  3  4  1  0
  4  5  1  0
  5  6  2  0
  6  7  1  0
  7  8  1  0
  8  9  1  0
  7  2  1  0
  9  4  1  0
  4 10  1  0
  5 11  1  0
  6 12  1  0
  7 13  1  0
  8 14  1  0
  8 15  1  0
M  END
