
     RDKit          3D

 16 17  0  0  0  0  0  0  0  0999 V2000
    1.9657    1.8001   -1.2460 O   0  0  0  0  0  0  0  0  0  0  0  0
    1.4752    0.9495   -0.4825 C   0  0  0  0  0  0  0  0  0  0  0  0
    1.8399   -0.4347   -0.2175 C   0  0  0  0  0  0  0  0  0  0  0  0
    0.7944   -1.0872    0.2806 C   0  0  0  0  0  0  0  0  0  0  0  0
   -0.3146   -0.1610    0.3673 C   0  0  0  0  0  0  0  0  0  0  0  0
   -1.3284   -0.3316   -0.8128 C   0  0  0  0  0  0  0  0  0  0  0  0
   -1.6879   -0.4875    0.6846 C   0  0  0  0  0  0  0  0  0  0  0  0
    0.3076    1.1776    0.4045 C   0  0  0  0  0  0  0  0  0  0  0  0
    2.8489   -0.8354   -0.4185 H   0  0  0  0  0  0  0  0  0  0  0  0
    0.8712   -2.1444    0.5457 H   0  0  0  0  0  0  0  0  0  0  0  0
   -1.2639   -1.2398   -1.4083 H   0  0  0  0  0  0  0  0  0  0  0  0
   -1.6657    0.5845   -1.3142 H   0  0  0  0  0  0  0  0  0  0  0  0
   -1.9166   -1.5053    1.0374 H   0  0  0  0  0  0  0  0  0  0  0  0
   -2.3328    0.3385    1.0733 H   0  0  0  0  0  0  0  0  0  0  0  0
    0.7373    1.3621    1.4295 H   0  0  0  0  0  0  0  0  0  0  0  0
   -0.3304    2.0145    0.0770 H   0  0  0  0  0  0  0  0  0  0  0  0
  1  2  2  0
  2  3  1  0
  3  4  2  0
  4  5  1  0
  5  6  1  0
  6  7  1  0
  5  8  1  0
  8  2  1  0
  7  5  1  0
  3  9  1  0
  4 10  1  0
  6 11  1  0
  6 12  1  0
  7 13  1  0
  7 14  1  0
  8 15  1  0
  8 16  1  0
M  END
