
     RDKit          3D

 17 19  0  0  0  0  0  0  0  0999 V2000
    1.3285    2.2138    0.0249 O   0  0  0  0  0  0  0  0  0  0  0  0
    1.2381    1.0190   -0.0845 C   0  0  0  0  0  0  0  0  0  0  0  0
    2.1912   -0.0913   -0.3077 C   0  0  0  0  0  0  0  0  0  0  0  0
    1.1864   -0.9933    0.4158 C   0  0  0  0  0  0  0  0  0  0  0  0
    0.1855    0.0240   -0.0611 C   0  0  0  0  0  0  0  0  0  0  0  0
   -0.4369   -0.3059   -1.2377 O   0  0  0  0  0  0  0  0  0  0  0  0
   -1.6258   -0.4287   -0.5636 C   0  0  0  0  0  0  0  0  0  0  0  0
   -2.2229    0.8295   -0.0501 C   0  0  0  0  0  0  0  0  0  0  0  0
   -1.0397    0.2308    0.6985 C   0  0  0  0  0  0  0  0  0  0  0  0
    3.1651   -0.0155    0.1823 H   0  0  0  0  0  0  0  0  0  0  0  0
    2.1937   -0.3663   -1.3812 H   0  0  0  0  0  0  0  0  0  0  0  0
    1.0430   -1.9489   -0.0885 H   0  0  0  0  0  0  0  0  0  0  0  0
    1.3862   -1.0017    1.4934 H   0  0  0  0  0  0  0  0  0  0  0  0
   -2.1238   -1.4062   -0.4435 H   0  0  0  0  0  0  0  0  0  0  0  0
   -3.2317    0.7458    0.3826 H   0  0  0  0  0  0  0  0  0  0  0  0
   -1.9672    1.7402   -0.6406 H   0  0  0  0  0  0  0  0  0  0  0  0
   -1.2699   -0.2453    1.6609 H   0  0  0  0  0  0  0  0  0  0  0  0
  1  2  2  0
  2  3  1  0
  3  4  1  0
  4  5  1  0
  5  6  1  0
  6  7  1  0
  7  8  1  0
  8  9  1  0
  5  2  1  0
  9  7  1  0
  9  5  1  0
  3 10  1  0
  3 11  1  0
  4 12  1  0
  4 13  1  0
  7 14  1  0
  8 15  1  0
  8 16  1  0
  9 17  1  0
M  END
