
     RDKit          3D

 15 16  0  0  0  0  0  0  0  0999 V2000
   -3.0216   -1.4395    0.3407 O   0  0  0  0  0  0  0  0  0  0  0  0
   -1.9477   -0.8516    0.0889 C   0  0  0  0  0  0  0  0  0  0  0  0
   -1.9005    0.5147    0.3231 O   0  0  0  0  0  0  0  0  0  0  0  0
   -0.7758    1.3178    0.1067 C   0  0  0  0  0  0  0  0  0  0  0  0
    0.3953    0.6351   -0.4733 C   0  0  0  0  0  0  0  0  0  0  0  0
    1.1363   -0.2927    0.5137 C   0  0  0  0  0  0  0  0  0  0  0  0
    2.5062   -0.1920    0.4955 O   0  0  0  0  0  0  0  0  0  0  0  0
    0.3638   -0.7943   -0.6571 C   0  0  0  0  0  0  0  0  0  0  0  0
   -0.8296   -1.4660   -0.3976 O   0  0  0  0  0  0  0  0  0  0  0  0
   -0.4763    1.7278    1.1149 H   0  0  0  0  0  0  0  0  0  0  0  0
   -1.0745    2.2293   -0.4789 H   0  0  0  0  0  0  0  0  0  0  0  0
    1.0473    1.2697   -1.1236 H   0  0  0  0  0  0  0  0  0  0  0  0
    0.6935   -0.4510    1.5013 H   0  0  0  0  0  0  0  0  0  0  0  0
    2.9719   -1.0016    0.1994 H   0  0  0  0  0  0  0  0  0  0  0  0
    0.9117   -1.2056   -1.5538 H   0  0  0  0  0  0  0  0  0  0  0  0
  1  2  2  0
  2  3  1  0
  3  4  1  0
  4  5  1  0
  5  6  1  0
  6  7  1  0
  6  8  1  0
  8  9  1  0
  9  2  1  0
  8  5  1  0
  4 10  1  0
  4 11  1  0
  5 12  1  0
  6 13  1  0
  7 14  1  0
  8 15  1  0
M  END
