
     RDKit          3D

 17 18  0  0  0  0  0  0  0  0999 V2000
    2.8358   -0.4976   -1.2490 O   0  0  0  0  0  0  0  0  0  0  0  0
    1.8025   -0.2485   -0.5627 C   0  0  0  0  0  0  0  0  0  0  0  0
    0.5903   -1.1178   -0.3890 C   0  0  0  0  0  0  0  0  0  0  0  0
   -0.4056   -0.1667    0.1710 C   0  0  0  0  0  0  0  0  0  0  0  0
   -1.3952    0.3916   -0.7949 C   0  0  0  0  0  0  0  0  0  0  0  0
   -1.8019   -0.4806    0.4214 C   0  0  0  0  0  0  0  0  0  0  0  0
    0.4123    0.7374    1.0430 C   0  0  0  0  0  0  0  0  0  0  0  0
    1.6176    0.9803    0.2037 C   0  0  0  0  0  0  0  0  0  0  0  0
    2.3255    2.0183    0.1618 O   0  0  0  0  0  0  0  0  0  0  0  0
    0.3201   -1.4666   -1.4162 H   0  0  0  0  0  0  0  0  0  0  0  0
    0.7925   -1.9939    0.2232 H   0  0  0  0  0  0  0  0  0  0  0  0
   -1.5090   -0.0727   -1.7968 H   0  0  0  0  0  0  0  0  0  0  0  0
   -1.6900    1.4585   -0.7533 H   0  0  0  0  0  0  0  0  0  0  0  0
   -2.2969    0.0939    1.2541 H   0  0  0  0  0  0  0  0  0  0  0  0
   -2.2788   -1.4391    0.2267 H   0  0  0  0  0  0  0  0  0  0  0  0
   -0.0974    1.6612    1.3314 H   0  0  0  0  0  0  0  0  0  0  0  0
    0.7781    0.1424    1.9256 H   0  0  0  0  0  0  0  0  0  0  0  0
  1  2  2  0
  2  3  1  0
  3  4  1  0
  4  5  1  0
  5  6  1  0
  4  7  1  0
  7  8  1  0
  8  9  2  0
  8  2  1  0
  6  4  1  0
  3 10  1  0
  3 11  1  0
  5 12  1  0
  5 13  1  0
  6 14  1  0
  6 15  1  0
  7 16  1  0
  7 17  1  0
M  END
