
     RDKit          3D

 17 19  0  0  0  0  0  0  0  0999 V2000
    1.9849    1.7034    0.8357 O   0  0  0  0  0  0  0  0  0  0  0  0
    1.2480    0.9040    0.2819 C   0  0  0  0  0  0  0  0  0  0  0  0
    1.7736   -0.4256   -0.0158 C   0  0  0  0  0  0  0  0  0  0  0  0
    0.9107   -1.3524   -0.4615 O   0  0  0  0  0  0  0  0  0  0  0  0
   -0.3926   -1.0290   -0.5924 C   0  0  0  0  0  0  0  0  0  0  0  0
   -1.0632   -0.8579    0.7614 C   0  0  0  0  0  0  0  0  0  0  0  0
   -1.2830    0.5793    0.4251 C   0  0  0  0  0  0  0  0  0  0  0  0
   -0.1280    1.3601   -0.0418 C   0  0  0  0  0  0  0  0  0  0  0  0
   -0.7256    0.3537   -0.9623 C   0  0  0  0  0  0  0  0  0  0  0  0
    2.5947   -0.2983   -0.7779 H   0  0  0  0  0  0  0  0  0  0  0  0
    2.2852   -0.7991    0.9195 H   0  0  0  0  0  0  0  0  0  0  0  0
   -0.9415   -1.7620   -1.2502 H   0  0  0  0  0  0  0  0  0  0  0  0
   -0.4229   -0.9957    1.6283 H   0  0  0  0  0  0  0  0  0  0  0  0
   -1.9652   -1.4899    0.8431 H   0  0  0  0  0  0  0  0  0  0  0  0
   -2.2583    1.0577    0.5637 H   0  0  0  0  0  0  0  0  0  0  0  0
   -0.3124    2.4124   -0.3164 H   0  0  0  0  0  0  0  0  0  0  0  0
   -1.3044    0.6393   -1.8404 H   0  0  0  0  0  0  0  0  0  0  0  0
  1  2  2  0
  2  3  1  0
  3  4  1  0
  4  5  1  0
  5  6  1  0
  6  7  1  0
  7  8  1  0
  8  9  1  0
  8  2  1  0
  9  5  1  0
  9  7  1  0
  3 10  1  0
  3 11  1  0
  5 12  1  0
  6 13  1  0
  6 14  1  0
  7 15  1  0
  8 16  1  0
  9 17  1  0
M  END
