
     RDKit          3D

 18 19  0  0  0  0  0  0  0  0999 V2000
    2.6064    0.6817    0.5907 O   0  0  0  0  0  0  0  0  0  0  0  0
    1.5208    0.3928    0.1709 C   0  0  0  0  0  0  0  0  0  0  0  0
    1.1221   -1.0355    0.0743 C   0  0  0  0  0  0  0  0  0  0  0  0
   -0.3702   -1.1634    0.1019 C   0  0  0  0  0  0  0  0  0  0  0  0
   -1.0250   -0.3718   -1.0182 C   0  0  0  0  0  0  0  0  0  0  0  0
   -0.8309    0.8593   -0.1587 C   0  0  0  0  0  0  0  0  0  0  0  0
    0.5497    1.4258   -0.2611 C   0  0  0  0  0  0  0  0  0  0  0  0
   -0.9009   -0.0860    1.0469 C   0  0  0  0  0  0  0  0  0  0  0  0
    1.5891   -1.4823   -0.8280 H   0  0  0  0  0  0  0  0  0  0  0  0
    1.5242   -1.5838    0.9460 H   0  0  0  0  0  0  0  0  0  0  0  0
   -0.7632   -2.1621    0.2721 H   0  0  0  0  0  0  0  0  0  0  0  0
   -2.1030   -0.6280   -1.0567 H   0  0  0  0  0  0  0  0  0  0  0  0
   -0.4947   -0.3841   -1.9745 H   0  0  0  0  0  0  0  0  0  0  0  0
   -1.6567    1.5874   -0.1780 H   0  0  0  0  0  0  0  0  0  0  0  0
    0.8032    1.7802   -1.2799 H   0  0  0  0  0  0  0  0  0  0  0  0
    0.6184    2.2922    0.4065 H   0  0  0  0  0  0  0  0  0  0  0  0
   -0.2395    0.1730    1.8696 H   0  0  0  0  0  0  0  0  0  0  0  0
   -1.9499   -0.2955    1.2761 H   0  0  0  0  0  0  0  0  0  0  0  0
  1  2  2  0
  2  3  1  0
  3  4  1  0
  4  5  1  0
  5  6  1  0
  6  7  1  0
  6  8  1  0
  7  2  1  0
  8  4  1  0
  3  9  1  0
  3 10  1  0
  4 11  1  0
  5 12  1  0
  5 13  1  0
  6 14  1  0
  7 15  1  0
  7 16  1  0
  8 17  1  0
  8 18  1  0
M  END
