
     RDKit          3D

 17 19  0  0  0  0  0  0  0  0999 V2000
   -0.9838    1.4719    2.0289 O   0  0  0  0  0  0  0  0  0  0  0  0
   -0.7204    0.8037    1.0539 C   0  0  0  0  0  0  0  0  0  0  0  0
   -1.0656    1.1580   -0.3733 C   0  0  0  0  0  0  0  0  0  0  0  0
   -0.4784   -0.0720   -1.0385 C   0  0  0  0  0  0  0  0  0  0  0  0
   -1.0049   -1.1696   -0.0968 C   0  0  0  0  0  0  0  0  0  0  0  0
   -0.0277   -0.4929    0.8821 C   0  0  0  0  0  0  0  0  0  0  0  0
    0.8002   -0.2393   -0.3202 C   0  0  0  0  0  0  0  0  0  0  0  0
    2.0900   -0.3026   -0.6375 C   0  0  0  0  0  0  0  0  0  0  0  0
    1.6069    0.9872   -0.1515 O   0  0  0  0  0  0  0  0  0  0  0  0
   -2.1343    1.2740   -0.5275 H   0  0  0  0  0  0  0  0  0  0  0  0
   -0.4512    2.0293   -0.6828 H   0  0  0  0  0  0  0  0  0  0  0  0
   -0.5880   -0.2160   -2.0751 H   0  0  0  0  0  0  0  0  0  0  0  0
   -2.0537   -1.0576    0.1625 H   0  0  0  0  0  0  0  0  0  0  0  0
   -0.6329   -2.1738   -0.3296 H   0  0  0  0  0  0  0  0  0  0  0  0
    0.3091   -1.0487    1.7083 H   0  0  0  0  0  0  0  0  0  0  0  0
    2.4536   -0.1983   -1.6967 H   0  0  0  0  0  0  0  0  0  0  0  0
    2.8813   -0.7534    0.0014 H   0  0  0  0  0  0  0  0  0  0  0  0
  1  2  2  0
  2  3  1  0
  3  4  1  0
  4  5  1  0
  5  6  1  0
  6  7  1  0
  7  8  1  0
  8  9  1  0
  6  2  1  0
  9  7  1  0
  7  4  1  0
  3 10  1  0
  3 11  1  0
  4 12  1  0
  5 13  1  0
  5 14  1  0
  6 15  1  0
  8 16  1  0
  8 17  1  0
M  END
