
     RDKit          3D

 17 18  0  0  0  0  0  0  0  0999 V2000
    1.9128   -1.4930    1.1079 O   0  0  0  0  0  0  0  0  0  0  0  0
    1.1797   -0.7089    0.5468 C   0  0  0  0  0  0  0  0  0  0  0  0
    1.6339    0.4486   -0.2443 C   0  0  0  0  0  0  0  0  0  0  0  0
    0.7865    0.8474   -1.2295 O   0  0  0  0  0  0  0  0  0  0  0  0
   -0.5525    0.6413   -1.0068 C   0  0  0  0  0  0  0  0  0  0  0  0
   -1.0479    1.2068    0.2692 C   0  0  0  0  0  0  0  0  0  0  0  0
   -0.9216    0.2983    1.2255 C   0  0  0  0  0  0  0  0  0  0  0  0
   -0.2836   -0.9336    0.6669 C   0  0  0  0  0  0  0  0  0  0  0  0
   -0.8136   -0.8556   -0.7743 C   0  0  0  0  0  0  0  0  0  0  0  0
    2.6152    0.1730   -0.7259 H   0  0  0  0  0  0  0  0  0  0  0  0
    1.9004    1.2569    0.4816 H   0  0  0  0  0  0  0  0  0  0  0  0
   -1.1147    0.9604   -1.8840 H   0  0  0  0  0  0  0  0  0  0  0  0
   -1.4487    2.1906    0.4192 H   0  0  0  0  0  0  0  0  0  0  0  0
   -1.2189    0.3839    2.2700 H   0  0  0  0  0  0  0  0  0  0  0  0
   -0.5663   -1.8468    1.1703 H   0  0  0  0  0  0  0  0  0  0  0  0
   -1.8690   -1.1031   -0.8326 H   0  0  0  0  0  0  0  0  0  0  0  0
   -0.1919   -1.4660   -1.4600 H   0  0  0  0  0  0  0  0  0  0  0  0
  1  2  2  0
  2  3  1  0
  3  4  1  0
  4  5  1  0
  5  6  1  0
  6  7  2  0
  7  8  1  0
  8  9  1  0
  8  2  1  0
  9  5  1  0
  3 10  1  0
  3 11  1  0
  5 12  1  0
  6 13  1  0
  7 14  1  0
  8 15  1  0
  9 16  1  0
  9 17  1  0
M  END
