
     RDKit          3D

 16 17  0  0  0  0  0  0  0  0999 V2000
    0.3633   -2.1209    0.7207 O   0  0  0  0  0  0  0  0  0  0  0  0
    0.6273   -1.0131    0.3543 C   0  0  0  0  0  0  0  0  0  0  0  0
    1.9762   -0.4416    0.2004 C   0  0  0  0  0  0  0  0  0  0  0  0
    1.8336    0.9121   -0.0396 O   0  0  0  0  0  0  0  0  0  0  0  0
    0.5568    1.1636   -0.4499 C   0  0  0  0  0  0  0  0  0  0  0  0
   -0.3290    0.0341   -0.0269 C   0  0  0  0  0  0  0  0  0  0  0  0
   -1.5748   -0.3104   -0.7005 C   0  0  0  0  0  0  0  0  0  0  0  0
   -1.5703    0.2325    0.7402 C   0  0  0  0  0  0  0  0  0  0  0  0
    2.4927   -0.9861   -0.6177 H   0  0  0  0  0  0  0  0  0  0  0  0
    2.5400   -0.6685    1.1313 H   0  0  0  0  0  0  0  0  0  0  0  0
    0.5367    1.3719   -1.5303 H   0  0  0  0  0  0  0  0  0  0  0  0
    0.2150    2.1071    0.0505 H   0  0  0  0  0  0  0  0  0  0  0  0
   -1.8306   -1.3853   -0.8041 H   0  0  0  0  0  0  0  0  0  0  0  0
   -2.0643    0.3199   -1.4654 H   0  0  0  0  0  0  0  0  0  0  0  0
   -1.9084    1.2708    0.8935 H   0  0  0  0  0  0  0  0  0  0  0  0
   -1.8642   -0.4861    1.5435 H   0  0  0  0  0  0  0  0  0  0  0  0
  1  2  2  0
  2  3  1  0
  3  4  1  0
  4  5  1  0
  5  6  1  0
  6  7  1  0
  7  8  1  0
  6  2  1  0
  8  6  1  0
  3  9  1  0
  3 10  1  0
  5 11  1  0
  5 12  1  0
  7 13  1  0
  7 14  1  0
  8 15  1  0
  8 16  1  0
M  END
