
     RDKit          3D

 17 18  0  0  0  0  0  0  0  0999 V2000
   -0.5763    1.6960    1.9844 O   0  0  0  0  0  0  0  0  0  0  0  0
   -0.8653    0.9993    0.9914 C   0  0  0  0  0  0  0  0  0  0  0  0
   -2.0595    0.7788    0.3065 O   0  0  0  0  0  0  0  0  0  0  0  0
   -1.6741   -0.1149   -0.7151 C   0  0  0  0  0  0  0  0  0  0  0  0
   -0.7882   -1.0981    0.0571 C   0  0  0  0  0  0  0  0  0  0  0  0
    0.0764    0.1553    0.2226 C   0  0  0  0  0  0  0  0  0  0  0  0
    1.4434    0.0285    0.5992 C   0  0  0  0  0  0  0  0  0  0  0  0
    2.2486   -0.7869   -0.1859 O   0  0  0  0  0  0  0  0  0  0  0  0
   -0.3402    0.4900   -1.1839 C   0  0  0  0  0  0  0  0  0  0  0  0
   -2.3484   -0.4776   -1.4294 H   0  0  0  0  0  0  0  0  0  0  0  0
   -0.2515   -1.8184   -0.5578 H   0  0  0  0  0  0  0  0  0  0  0  0
   -1.2100   -1.4272    1.0096 H   0  0  0  0  0  0  0  0  0  0  0  0
    1.9336    1.0250    0.6143 H   0  0  0  0  0  0  0  0  0  0  0  0
    1.5394   -0.3460    1.6589 H   0  0  0  0  0  0  0  0  0  0  0  0
    3.1886   -0.5342   -0.0130 H   0  0  0  0  0  0  0  0  0  0  0  0
    0.1401   -0.1265   -1.9689 H   0  0  0  0  0  0  0  0  0  0  0  0
   -0.4567    1.5570   -1.3902 H   0  0  0  0  0  0  0  0  0  0  0  0
  1  2  2  0
  2  3  1  0
  3  4  1  0
  4  5  1  0
  5  6  1  0
  6  7  1  0
  7  8  1  0
  6  9  1  0
  6  2  1  0
  9  4  1  0
  4 10  1  0
  5 11  1  0
  5 12  1  0
  7 13  1  0
  7 14  1  0
  8 15  1  0
  9 16  1  0
  9 17  1  0
M  END
