
     RDKit          3D

 17 18  0  0  0  0  0  0  0  0999 V2000
    1.1472    2.2005   -0.4094 O   0  0  0  0  0  0  0  0  0  0  0  0
    0.7103    1.1049   -0.2388 C   0  0  0  0  0  0  0  0  0  0  0  0
    1.5666   -0.1137    0.0163 C   0  0  0  0  0  0  0  0  0  0  0  0
    0.5656   -1.2026    0.4226 C   0  0  0  0  0  0  0  0  0  0  0  0
   -0.3137   -1.5054   -0.5871 O   0  0  0  0  0  0  0  0  0  0  0  0
   -0.8463   -0.4057   -1.2328 C   0  0  0  0  0  0  0  0  0  0  0  0
   -0.7575    0.7655   -0.2510 C   0  0  0  0  0  0  0  0  0  0  0  0
   -1.0373    0.2783    1.1758 C   0  0  0  0  0  0  0  0  0  0  0  0
   -0.1731   -0.7353    1.5079 O   0  0  0  0  0  0  0  0  0  0  0  0
    2.2141    0.0519    0.8839 H   0  0  0  0  0  0  0  0  0  0  0  0
    2.0705   -0.3416   -0.9199 H   0  0  0  0  0  0  0  0  0  0  0  0
    1.1041   -2.1162    0.7067 H   0  0  0  0  0  0  0  0  0  0  0  0
   -0.1477   -0.1831   -2.0918 H   0  0  0  0  0  0  0  0  0  0  0  0
   -1.8583   -0.5724   -1.5987 H   0  0  0  0  0  0  0  0  0  0  0  0
   -1.3857    1.6030   -0.5301 H   0  0  0  0  0  0  0  0  0  0  0  0
   -2.0943    0.0121    1.3186 H   0  0  0  0  0  0  0  0  0  0  0  0
   -0.7646    1.1597    1.8277 H   0  0  0  0  0  0  0  0  0  0  0  0
  1  2  2  0
  2  3  1  0
  3  4  1  0
  4  5  1  0
  5  6  1  0
  6  7  1  0
  7  8  1  0
  8  9  1  0
  7  2  1  0
  9  4  1  0
  3 10  1  0
  3 11  1  0
  4 12  1  0
  6 13  1  0
  6 14  1  0
  7 15  1  0
  8 16  1  0
  8 17  1  0
M  END
