
     RDKit          3D

 17 18  0  0  0  0  0  0  0  0999 V2000
    3.4309    0.0380   -0.4835 O   0  0  0  0  0  0  0  0  0  0  0  0
    2.2274   -0.2836   -0.4131 C   0  0  0  0  0  0  0  0  0  0  0  0
    1.2724   -1.0865   -1.0418 O   0  0  0  0  0  0  0  0  0  0  0  0
    0.4205   -1.1163    0.1139 C   0  0  0  0  0  0  0  0  0  0  0  0
   -1.0320   -1.0198   -0.1389 C   0  0  0  0  0  0  0  0  0  0  0  0
   -1.6622    0.2711    0.3123 C   0  0  0  0  0  0  0  0  0  0  0  0
   -0.8335    1.4475   -0.0044 C   0  0  0  0  0  0  0  0  0  0  0  0
    0.4641    1.3735    0.0932 C   0  0  0  0  0  0  0  0  0  0  0  0
    1.1279    0.1179    0.5204 C   0  0  0  0  0  0  0  0  0  0  0  0
    0.7237   -1.9839    0.7674 H   0  0  0  0  0  0  0  0  0  0  0  0
   -1.5426   -1.8570    0.3918 H   0  0  0  0  0  0  0  0  0  0  0  0
   -1.2269   -1.2065   -1.2260 H   0  0  0  0  0  0  0  0  0  0  0  0
   -1.8604    0.2590    1.3948 H   0  0  0  0  0  0  0  0  0  0  0  0
   -2.6404    0.3502   -0.2025 H   0  0  0  0  0  0  0  0  0  0  0  0
   -1.3712    2.3593   -0.3167 H   0  0  0  0  0  0  0  0  0  0  0  0
    1.0619    2.2421   -0.1416 H   0  0  0  0  0  0  0  0  0  0  0  0
    1.4403    0.0949    1.5847 H   0  0  0  0  0  0  0  0  0  0  0  0
  1  2  2  0
  2  3  1  0
  3  4  1  0
  4  5  1  0
  5  6  1  0
  6  7  1  0
  7  8  2  0
  8  9  1  0
  9  2  1  0
  9  4  1  0
  4 10  1  0
  5 11  1  0
  5 12  1  0
  6 13  1  0
  6 14  1  0
  7 15  1  0
  8 16  1  0
  9 17  1  0
M  END
