
     RDKit          3D

 17 17  0  0  0  0  0  0  0  0999 V2000
   -0.9176   -0.4780    2.2201 O   0  0  0  0  0  0  0  0  0  0  0  0
   -0.4505   -0.3312    1.1111 C   0  0  0  0  0  0  0  0  0  0  0  0
    1.0245   -0.4070    0.9681 C   0  0  0  0  0  0  0  0  0  0  0  0
    1.4354   -1.6698    0.5268 O   0  0  0  0  0  0  0  0  0  0  0  0
    1.4137    0.6598    0.0147 C   0  0  0  0  0  0  0  0  0  0  0  0
    0.6638    0.8516   -1.0547 C   0  0  0  0  0  0  0  0  0  0  0  0
   -0.5495    0.0269   -1.3172 C   0  0  0  0  0  0  0  0  0  0  0  0
   -1.3355   -0.0871   -0.0391 C   0  0  0  0  0  0  0  0  0  0  0  0
   -2.1588    1.0382    0.1577 O   0  0  0  0  0  0  0  0  0  0  0  0
    1.5243   -0.2729    1.9608 H   0  0  0  0  0  0  0  0  0  0  0  0
    2.2071   -1.5029   -0.0781 H   0  0  0  0  0  0  0  0  0  0  0  0
    2.2873    1.2597    0.1957 H   0  0  0  0  0  0  0  0  0  0  0  0
    0.9843    1.6491   -1.7351 H   0  0  0  0  0  0  0  0  0  0  0  0
   -1.1174    0.4532   -2.1463 H   0  0  0  0  0  0  0  0  0  0  0  0
   -0.1908   -1.0085   -1.5783 H   0  0  0  0  0  0  0  0  0  0  0  0
   -2.0390   -0.9557   -0.1089 H   0  0  0  0  0  0  0  0  0  0  0  0
   -2.7816    0.7747    0.9025 H   0  0  0  0  0  0  0  0  0  0  0  0
  1  2  2  0
  2  3  1  0
  3  4  1  0
  3  5  1  0
  5  6  2  0
  6  7  1  0
  7  8  1  0
  8  9  1  0
  8  2  1  0
  3 10  1  0
  4 11  1  0
  5 12  1  0
  6 13  1  0
  7 14  1  0
  7 15  1  0
  8 16  1  0
  9 17  1  0
M  END
