
     RDKit          3D

 17 17  0  0  0  0  0  0  0  0999 V2000
    1.1562   -2.0471    0.6767 O   0  0  0  0  0  0  0  0  0  0  0  0
    0.7990   -1.0537    0.0671 C   0  0  0  0  0  0  0  0  0  0  0  0
   -0.5097   -1.1713   -0.5552 C   0  0  0  0  0  0  0  0  0  0  0  0
   -1.5781   -0.2584   -0.0652 C   0  0  0  0  0  0  0  0  0  0  0  0
   -1.1164    1.0151    0.5361 C   0  0  0  0  0  0  0  0  0  0  0  0
   -0.1188    1.6323   -0.2549 O   0  0  0  0  0  0  0  0  0  0  0  0
    1.2191    1.2800   -0.3368 C   0  0  0  0  0  0  0  0  0  0  0  0
    1.9344    2.1484   -0.8735 O   0  0  0  0  0  0  0  0  0  0  0  0
    1.8319    0.0295    0.1338 C   0  0  0  0  0  0  0  0  0  0  0  0
   -0.3586   -1.0227   -1.6663 H   0  0  0  0  0  0  0  0  0  0  0  0
   -0.8860   -2.2101   -0.4724 H   0  0  0  0  0  0  0  0  0  0  0  0
   -2.2673   -0.7534    0.6811 H   0  0  0  0  0  0  0  0  0  0  0  0
   -2.2320   -0.0114   -0.9296 H   0  0  0  0  0  0  0  0  0  0  0  0
   -1.9940    1.6735    0.6855 H   0  0  0  0  0  0  0  0  0  0  0  0
   -0.6840    0.8109    1.5468 H   0  0  0  0  0  0  0  0  0  0  0  0
    2.7534   -0.2318   -0.4008 H   0  0  0  0  0  0  0  0  0  0  0  0
    2.0509    0.1703    1.2276 H   0  0  0  0  0  0  0  0  0  0  0  0
  1  2  2  0
  2  3  1  0
  3  4  1  0
  4  5  1  0
  5  6  1  0
  6  7  1  0
  7  8  2  0
  7  9  1  0
  9  2  1  0
  3 10  1  0
  3 11  1  0
  4 12  1  0
  4 13  1  0
  5 14  1  0
  5 15  1  0
  9 16  1  0
  9 17  1  0
M  END
