
     RDKit          3D

 19 19  0  0  0  0  0  0  0  0999 V2000
    2.5431   -0.3733   -1.9430 O   0  0  0  0  0  0  0  0  0  0  0  0
    1.8824    0.0104   -0.9393 C   0  0  0  0  0  0  0  0  0  0  0  0
    1.7388   -0.9050    0.2287 C   0  0  0  0  0  0  0  0  0  0  0  0
    0.4337   -0.6096    0.9708 C   0  0  0  0  0  0  0  0  0  0  0  0
   -0.5062   -0.0120   -0.0208 C   0  0  0  0  0  0  0  0  0  0  0  0
   -1.9473   -0.0623    0.3883 C   0  0  0  0  0  0  0  0  0  0  0  0
   -2.7210    0.5218   -0.6118 O   0  0  0  0  0  0  0  0  0  0  0  0
   -0.0280    1.4062   -0.2689 C   0  0  0  0  0  0  0  0  0  0  0  0
    1.2728    1.2566   -0.8614 O   0  0  0  0  0  0  0  0  0  0  0  0
    1.6799   -1.9646   -0.0748 H   0  0  0  0  0  0  0  0  0  0  0  0
    2.5736   -0.7986    0.9441 H   0  0  0  0  0  0  0  0  0  0  0  0
    0.0030   -1.5468    1.3756 H   0  0  0  0  0  0  0  0  0  0  0  0
    0.6783    0.0743    1.7996 H   0  0  0  0  0  0  0  0  0  0  0  0
   -0.4075   -0.5601   -0.9894 H   0  0  0  0  0  0  0  0  0  0  0  0
   -2.2573   -1.1253    0.4432 H   0  0  0  0  0  0  0  0  0  0  0  0
   -2.1059    0.4312    1.3752 H   0  0  0  0  0  0  0  0  0  0  0  0
   -2.2763    0.3463   -1.5002 H   0  0  0  0  0  0  0  0  0  0  0  0
    0.1159    1.9696    0.6751 H   0  0  0  0  0  0  0  0  0  0  0  0
   -0.6721    1.9414   -0.9911 H   0  0  0  0  0  0  0  0  0  0  0  0
  1  2  2  0
  2  3  1  0
  3  4  1  0
  4  5  1  0
  5  6  1  0
  6  7  1  0
  5  8  1  0
  8  9  1  0
  9  2  1  0
  3 10  1  0
  3 11  1  0
  4 12  1  0
  4 13  1  0
  5 14  1  0
  6 15  1  0
  6 16  1  0
  7 17  1  0
  8 18  1  0
  8 19  1  0
M  END
