
     RDKit          2D

 17 19  0  0  0  0  0  0  0  0999 V2000
   -2.6401   -1.4788    0.0000 O   0  0  0  0  0  0  0  0  0  0  0  0
   -0.2940    0.2258    0.0000 C   0  0  0  0  0  0  0  0  0  0  0  0
   -0.0000   -1.0607    0.0000 C   0  0  0  0  0  0  0  0  0  0  0  0
    1.0607    0.0000    0.0000 C   0  0  0  0  0  0  0  0  0  0  0  0
    0.0000    1.0607    0.0000 C   0  0  0  0  0  0  0  0  0  0  0  0
   -0.1006    2.5587    0.0000 C   0  0  0  0  0  0  0  0  0  0  0  0
   -1.5915    2.3938    0.0000 C   0  0  0  0  0  0  0  0  0  0  0  0
   -1.4266    0.9029    0.0000 C   0  0  0  0  0  0  0  0  0  0  0  0
   -1.0607    0.0000    0.0000 O   0  0  0  0  0  0  0  0  0  0  0  0
   -0.0000   -2.5607    0.0000 H   0  0  0  0  0  0  0  0  0  0  0  0
    2.1213    1.0607    0.0000 H   0  0  0  0  0  0  0  0  0  0  0  0
    2.1213   -1.0607    0.0000 H   0  0  0  0  0  0  0  0  0  0  0  0
   -0.2655    4.0496    0.0000 H   0  0  0  0  0  0  0  0  0  0  0  0
    1.3903    2.7236    0.0000 H   0  0  0  0  0  0  0  0  0  0  0  0
   -3.0824    2.2289    0.0000 H   0  0  0  0  0  0  0  0  0  0  0  0
   -1.7564    3.8847    0.0000 H   0  0  0  0  0  0  0  0  0  0  0  0
   -2.9081    0.6682    0.0000 H   0  0  0  0  0  0  0  0  0  0  0  0
  1  2  2  0
  2  3  1  0
  3  4  1  0
  4  5  1  0
  5  6  1  0
  6  7  1  0
  7  8  1  0
  5  9  1  0
  8  2  1  0
  9  3  1  0
  8  5  1  0
  3 10  1  0
  4 11  1  0
  4 12  1  0
  6 13  1  0
  6 14  1  0
  7 15  1  0
  7 16  1  0
  8 17  1  0
M  END
