
     RDKit          3D

 19 20  0  0  0  0  0  0  0  0999 V2000
   -3.2230   -1.5181    0.2821 O   0  0  0  0  0  0  0  0  0  0  0  0
   -2.2466   -0.8644    0.0172 C   0  0  0  0  0  0  0  0  0  0  0  0
   -0.8612   -1.1447   -0.4397 C   0  0  0  0  0  0  0  0  0  0  0  0
   -0.4851    0.1814    0.1129 C   0  0  0  0  0  0  0  0  0  0  0  0
   -1.8985    0.5775    0.0037 C   0  0  0  0  0  0  0  0  0  0  0  0
    0.3767    0.3964    1.2618 C   0  0  0  0  0  0  0  0  0  0  0  0
    0.6969    0.9271   -0.1498 C   0  0  0  0  0  0  0  0  0  0  0  0
    1.8894    0.2364   -0.8039 C   0  0  0  0  0  0  0  0  0  0  0  0
    2.3438   -0.8291   -0.0095 O   0  0  0  0  0  0  0  0  0  0  0  0
   -0.8479   -1.1098   -1.5656 H   0  0  0  0  0  0  0  0  0  0  0  0
   -0.3896   -2.0372   -0.0082 H   0  0  0  0  0  0  0  0  0  0  0  0
   -2.2513    1.0364   -0.9352 H   0  0  0  0  0  0  0  0  0  0  0  0
   -2.2290    1.1641    0.8795 H   0  0  0  0  0  0  0  0  0  0  0  0
    0.9629   -0.4606    1.6270 H   0  0  0  0  0  0  0  0  0  0  0  0
    0.0477    1.1562    2.0113 H   0  0  0  0  0  0  0  0  0  0  0  0
    0.7335    2.0248   -0.2261 H   0  0  0  0  0  0  0  0  0  0  0  0
    2.7476    0.9551   -0.8863 H   0  0  0  0  0  0  0  0  0  0  0  0
    1.5767   -0.1493   -1.7824 H   0  0  0  0  0  0  0  0  0  0  0  0
    3.0570   -0.5422    0.6113 H   0  0  0  0  0  0  0  0  0  0  0  0
  1  2  2  0
  2  3  1  0
  3  4  1  0
  4  5  1  0
  4  6  1  0
  6  7  1  0
  7  8  1  0
  8  9  1  0
  5  2  1  0
  7  4  1  0
  3 10  1  0
  3 11  1  0
  5 12  1  0
  5 13  1  0
  6 14  1  0
  6 15  1  0
  7 16  1  0
  8 17  1  0
  8 18  1  0
  9 19  1  0
M  END
