
     RDKit          3D

 15 16  0  0  0  0  0  0  0  0999 V2000
    2.9671    1.3121   -0.9846 O   0  0  0  0  0  0  0  0  0  0  0  0
    1.8525    0.8248   -0.6776 C   0  0  0  0  0  0  0  0  0  0  0  0
    1.3298    0.2712    0.5969 C   0  0  0  0  0  0  0  0  0  0  0  0
    0.1209    0.0841   -0.2337 C   0  0  0  0  0  0  0  0  0  0  0  0
    0.6822    0.6104   -1.3889 O   0  0  0  0  0  0  0  0  0  0  0  0
   -0.6750   -1.1336   -0.1635 C   0  0  0  0  0  0  0  0  0  0  0  0
   -0.9946   -1.7560   -1.3505 O   0  0  0  0  0  0  0  0  0  0  0  0
   -1.2501    0.1971    0.1870 C   0  0  0  0  0  0  0  0  0  0  0  0
   -1.5096    0.5191    1.5136 O   0  0  0  0  0  0  0  0  0  0  0  0
    1.2193    0.9705    1.4261 H   0  0  0  0  0  0  0  0  0  0  0  0
    1.8241   -0.6948    0.8770 H   0  0  0  0  0  0  0  0  0  0  0  0
   -0.4956   -1.7966    0.7229 H   0  0  0  0  0  0  0  0  0  0  0  0
   -1.9259   -1.5724   -1.6337 H   0  0  0  0  0  0  0  0  0  0  0  0
   -1.9682    0.6983   -0.5216 H   0  0  0  0  0  0  0  0  0  0  0  0
   -1.1769    1.4658    1.6305 H   0  0  0  0  0  0  0  0  0  0  0  0
  1  2  2  0
  2  3  1  0
  3  4  1  0
  4  5  1  0
  4  6  1  0
  6  7  1  0
  6  8  1  0
  8  9  1  0
  5  2  1  0
  8  4  1  0
  3 10  1  0
  3 11  1  0
  6 12  1  0
  7 13  1  0
  8 14  1  0
  9 15  1  0
M  END
