
     RDKit          3D

 16 16  0  0  0  0  0  0  0  0999 V2000
   -2.7458   -0.0150   -1.3113 O   0  0  0  0  0  0  0  0  0  0  0  0
   -1.7682    0.0318   -0.6247 C   0  0  0  0  0  0  0  0  0  0  0  0
   -1.4920    0.9448    0.5040 C   0  0  0  0  0  0  0  0  0  0  0  0
   -0.2224    0.6192    0.9717 O   0  0  0  0  0  0  0  0  0  0  0  0
    0.4717    0.0888   -0.1143 C   0  0  0  0  0  0  0  0  0  0  0  0
    1.7017   -0.6557    0.3254 C   0  0  0  0  0  0  0  0  0  0  0  0
    2.5124    0.2717    1.0049 O   0  0  0  0  0  0  0  0  0  0  0  0
   -0.5678   -0.8237   -0.7300 C   0  0  0  0  0  0  0  0  0  0  0  0
   -2.2423    0.8156    1.3373 H   0  0  0  0  0  0  0  0  0  0  0  0
   -1.5111    2.0045    0.2412 H   0  0  0  0  0  0  0  0  0  0  0  0
    0.7335    0.8693   -0.8548 H   0  0  0  0  0  0  0  0  0  0  0  0
    2.3005   -1.0451   -0.4987 H   0  0  0  0  0  0  0  0  0  0  0  0
    1.4163   -1.4079    1.0758 H   0  0  0  0  0  0  0  0  0  0  0  0
    2.4695    1.1385    0.5190 H   0  0  0  0  0  0  0  0  0  0  0  0
   -0.3252   -1.1140   -1.7621 H   0  0  0  0  0  0  0  0  0  0  0  0
   -0.7307   -1.7226   -0.0832 H   0  0  0  0  0  0  0  0  0  0  0  0
  1  2  2  0
  2  3  1  0
  3  4  1  0
  4  5  1  0
  5  6  1  0
  6  7  1  0
  5  8  1  0
  8  2  1  0
  3  9  1  0
  3 10  1  0
  5 11  1  0
  6 12  1  0
  6 13  1  0
  7 14  1  0
  8 15  1  0
  8 16  1  0
M  END
