
     RDKit          3D

 17 18  0  0  0  0  0  0  0  0999 V2000
    0.0275    2.0534    1.0452 O   0  0  0  0  0  0  0  0  0  0  0  0
    0.0481    1.0129    0.4580 C   0  0  0  0  0  0  0  0  0  0  0  0
   -0.9182   -0.0319    0.0601 C   0  0  0  0  0  0  0  0  0  0  0  0
   -2.2850    0.4458   -0.3245 C   0  0  0  0  0  0  0  0  0  0  0  0
   -2.8870   -0.5618   -1.0790 O   0  0  0  0  0  0  0  0  0  0  0  0
   -0.0666   -0.3251   -1.0151 O   0  0  0  0  0  0  0  0  0  0  0  0
    0.9448    0.1224   -0.2152 C   0  0  0  0  0  0  0  0  0  0  0  0
    2.3353    0.2265   -0.4826 C   0  0  0  0  0  0  0  0  0  0  0  0
    1.8081   -0.8727    0.4595 C   0  0  0  0  0  0  0  0  0  0  0  0
   -0.9563   -0.8809    0.7566 H   0  0  0  0  0  0  0  0  0  0  0  0
   -2.2160    1.3960   -0.8648 H   0  0  0  0  0  0  0  0  0  0  0  0
   -2.8563    0.6095    0.5994 H   0  0  0  0  0  0  0  0  0  0  0  0
   -2.3767   -1.4049   -1.0378 H   0  0  0  0  0  0  0  0  0  0  0  0
    2.9474    0.9905    0.0153 H   0  0  0  0  0  0  0  0  0  0  0  0
    2.7715   -0.1587   -1.4209 H   0  0  0  0  0  0  0  0  0  0  0  0
    1.9316   -0.7166    1.5432 H   0  0  0  0  0  0  0  0  0  0  0  0
    1.7478   -1.9044    0.0561 H   0  0  0  0  0  0  0  0  0  0  0  0
  1  2  2  0
  2  3  1  0
  3  4  1  0
  4  5  1  0
  3  6  1  0
  6  7  1  0
  7  8  1  0
  8  9  1  0
  7  2  1  0
  9  7  1  0
  3 10  1  0
  4 11  1  0
  4 12  1  0
  5 13  1  0
  8 14  1  0
  8 15  1  0
  9 16  1  0
  9 17  1  0
M  END
