
     RDKit          3D

 15 15  0  0  0  0  0  0  0  0999 V2000
    2.3480    0.1379    1.5230 O   0  0  0  0  0  0  0  0  0  0  0  0
    1.5358    0.0067    0.5748 C   0  0  0  0  0  0  0  0  0  0  0  0
    0.6237   -1.1089    0.3393 C   0  0  0  0  0  0  0  0  0  0  0  0
   -0.3495   -0.5577   -0.6616 C   0  0  0  0  0  0  0  0  0  0  0  0
   -1.5718    0.0485   -0.0311 C   0  0  0  0  0  0  0  0  0  0  0  0
   -1.2714    1.0291    0.8936 O   0  0  0  0  0  0  0  0  0  0  0  0
    0.3624    0.4677   -1.3163 O   0  0  0  0  0  0  0  0  0  0  0  0
    1.3573    0.9789   -0.4913 C   0  0  0  0  0  0  0  0  0  0  0  0
    1.9823    2.0590   -0.6277 O   0  0  0  0  0  0  0  0  0  0  0  0
    0.0969   -1.4672    1.2352 H   0  0  0  0  0  0  0  0  0  0  0  0
    1.2034   -1.9179   -0.1804 H   0  0  0  0  0  0  0  0  0  0  0  0
   -0.6539   -1.3545   -1.3323 H   0  0  0  0  0  0  0  0  0  0  0  0
   -2.1764    0.4850   -0.8646 H   0  0  0  0  0  0  0  0  0  0  0  0
   -2.1971   -0.7509    0.4222 H   0  0  0  0  0  0  0  0  0  0  0  0
   -1.2895    1.9442    0.5171 H   0  0  0  0  0  0  0  0  0  0  0  0
  1  2  2  0
  2  3  1  0
  3  4  1  0
  4  5  1  0
  5  6  1  0
  4  7  1  0
  7  8  1  0
  8  9  2  0
  8  2  1  0
  3 10  1  0
  3 11  1  0
  4 12  1  0
  5 13  1  0
  5 14  1  0
  6 15  1  0
M  END
