
     RDKit          3D

 17 18  0  0  0  0  0  0  0  0999 V2000
    2.1739   -1.8782   -0.9251 O   0  0  0  0  0  0  0  0  0  0  0  0
    1.4223   -0.9695   -0.4871 C   0  0  0  0  0  0  0  0  0  0  0  0
    1.8715    0.2772    0.1692 C   0  0  0  0  0  0  0  0  0  0  0  0
    0.8682    1.1396    0.1827 C   0  0  0  0  0  0  0  0  0  0  0  0
   -0.3292    0.5792   -0.4459 C   0  0  0  0  0  0  0  0  0  0  0  0
   -0.7112    1.1065   -1.6527 O   0  0  0  0  0  0  0  0  0  0  0  0
   -1.4565    0.2651    0.5215 C   0  0  0  0  0  0  0  0  0  0  0  0
   -0.6954   -1.0182    0.8725 C   0  0  0  0  0  0  0  0  0  0  0  0
   -0.0499   -0.9065   -0.5098 C   0  0  0  0  0  0  0  0  0  0  0  0
    2.8659    0.4365    0.5671 H   0  0  0  0  0  0  0  0  0  0  0  0
    0.9193    2.1321    0.6024 H   0  0  0  0  0  0  0  0  0  0  0  0
   -1.1695    1.9607   -1.5929 H   0  0  0  0  0  0  0  0  0  0  0  0
   -1.4461    1.0219    1.3379 H   0  0  0  0  0  0  0  0  0  0  0  0
   -2.4216    0.0780    0.0396 H   0  0  0  0  0  0  0  0  0  0  0  0
   -1.3089   -1.9147    0.9340 H   0  0  0  0  0  0  0  0  0  0  0  0
    0.0356   -0.8830    1.6962 H   0  0  0  0  0  0  0  0  0  0  0  0
   -0.5682   -1.4265   -1.3096 H   0  0  0  0  0  0  0  0  0  0  0  0
  1  2  2  0
  2  3  1  0
  3  4  2  0
  4  5  1  0
  5  6  1  0
  5  7  1  0
  7  8  1  0
  8  9  1  0
  9  2  1  0
  9  5  1  0
  3 10  1  0
  4 11  1  0
  6 12  1  0
  7 13  1  0
  7 14  1  0
  8 15  1  0
  8 16  1  0
  9 17  1  0
M  END
