
     RDKit          3D

 17 19  0  0  0  0  0  0  0  0999 V2000
    1.9322    2.7289    0.2437 O   0  0  0  0  0  0  0  0  0  0  0  0
    1.6294    1.5215    0.0900 C   0  0  0  0  0  0  0  0  0  0  0  0
    2.0476    0.4058   -0.6140 O   0  0  0  0  0  0  0  0  0  0  0  0
    1.2622   -0.5118    0.0980 C   0  0  0  0  0  0  0  0  0  0  0  0
    0.2526   -1.2865   -0.6893 C   0  0  0  0  0  0  0  0  0  0  0  0
   -1.0276   -0.5130   -0.6991 C   0  0  0  0  0  0  0  0  0  0  0  0
   -1.7913   -0.2329    0.5360 C   0  0  0  0  0  0  0  0  0  0  0  0
   -0.7763    0.7687   -0.0005 C   0  0  0  0  0  0  0  0  0  0  0  0
    0.5571    0.6909    0.6799 C   0  0  0  0  0  0  0  0  0  0  0  0
    1.7898   -1.1470    0.8232 H   0  0  0  0  0  0  0  0  0  0  0  0
    0.6009   -1.3765   -1.7555 H   0  0  0  0  0  0  0  0  0  0  0  0
    0.1199   -2.3319   -0.3158 H   0  0  0  0  0  0  0  0  0  0  0  0
   -1.5938   -0.4718   -1.6604 H   0  0  0  0  0  0  0  0  0  0  0  0
   -2.8310    0.0945    0.4216 H   0  0  0  0  0  0  0  0  0  0  0  0
   -1.5643   -0.7484    1.4969 H   0  0  0  0  0  0  0  0  0  0  0  0
   -1.1303    1.6995   -0.4451 H   0  0  0  0  0  0  0  0  0  0  0  0
    0.5229    0.7101    1.7904 H   0  0  0  0  0  0  0  0  0  0  0  0
  1  2  2  0
  2  3  1  0
  3  4  1  0
  4  5  1  0
  5  6  1  0
  6  7  1  0
  7  8  1  0
  8  9  1  0
  9  2  1  0
  9  4  1  0
  8  6  1  0
  4 10  1  0
  5 11  1  0
  5 12  1  0
  6 13  1  0
  7 14  1  0
  7 15  1  0
  8 16  1  0
  9 17  1  0
M  END
