
     RDKit          3D

 16 16  0  0  0  0  0  0  0  0999 V2000
   -1.4565   -2.4237   -0.5029 O   0  0  0  0  0  0  0  0  0  0  0  0
   -0.7106   -1.4982   -0.0813 C   0  0  0  0  0  0  0  0  0  0  0  0
   -1.3757   -0.3886    0.6425 C   0  0  0  0  0  0  0  0  0  0  0  0
   -1.1327    0.8734   -0.1577 C   0  0  0  0  0  0  0  0  0  0  0  0
    0.2479    1.3892    0.0218 C   0  0  0  0  0  0  0  0  0  0  0  0
    1.3896    0.7119   -0.0573 C   0  0  0  0  0  0  0  0  0  0  0  0
    1.7094   -0.6853   -0.3285 C   0  0  0  0  0  0  0  0  0  0  0  0
    0.6499   -1.5696   -0.3125 O   0  0  0  0  0  0  0  0  0  0  0  0
   -2.4623   -0.5811    0.6684 H   0  0  0  0  0  0  0  0  0  0  0  0
   -0.9890   -0.2480    1.6602 H   0  0  0  0  0  0  0  0  0  0  0  0
   -1.8448    1.6338    0.2374 H   0  0  0  0  0  0  0  0  0  0  0  0
   -1.3605    0.7342   -1.2261 H   0  0  0  0  0  0  0  0  0  0  0  0
    0.3403    2.4443    0.2443 H   0  0  0  0  0  0  0  0  0  0  0  0
    2.2562    1.3420    0.1185 H   0  0  0  0  0  0  0  0  0  0  0  0
    2.5121   -0.9956    0.4022 H   0  0  0  0  0  0  0  0  0  0  0  0
    2.2265   -0.7385   -1.3288 H   0  0  0  0  0  0  0  0  0  0  0  0
  1  2  2  0
  2  3  1  0
  3  4  1  0
  4  5  1  0
  5  6  2  0
  6  7  1  0
  7  8  1  0
  8  2  1  0
  3  9  1  0
  3 10  1  0
  4 11  1  0
  4 12  1  0
  5 13  1  0
  6 14  1  0
  7 15  1  0
  7 16  1  0
M  END
