
     RDKit          3D

 14 15  0  0  0  0  0  0  0  0999 V2000
    0.3249    2.4041    0.4103 O   0  0  0  0  0  0  0  0  0  0  0  0
    0.1726    1.2498    0.2176 C   0  0  0  0  0  0  0  0  0  0  0  0
   -0.5591    0.1686    0.9802 C   0  0  0  0  0  0  0  0  0  0  0  0
   -1.3869   -0.3427   -0.1956 C   0  0  0  0  0  0  0  0  0  0  0  0
   -0.5841   -0.1673   -1.3216 O   0  0  0  0  0  0  0  0  0  0  0  0
    0.6380    0.3199   -0.8794 C   0  0  0  0  0  0  0  0  0  0  0  0
    1.2308   -0.7635    0.0157 C   0  0  0  0  0  0  0  0  0  0  0  0
    0.4507   -0.7635    1.1717 O   0  0  0  0  0  0  0  0  0  0  0  0
   -1.0927    0.4948    1.8268 H   0  0  0  0  0  0  0  0  0  0  0  0
   -2.3022    0.2685   -0.3349 H   0  0  0  0  0  0  0  0  0  0  0  0
   -1.6057   -1.3987    0.0193 H   0  0  0  0  0  0  0  0  0  0  0  0
    1.2816    0.7482   -1.5938 H   0  0  0  0  0  0  0  0  0  0  0  0
    1.1391   -1.7136   -0.5536 H   0  0  0  0  0  0  0  0  0  0  0  0
    2.2928   -0.5044    0.2373 H   0  0  0  0  0  0  0  0  0  0  0  0
  1  2  2  0
  2  3  1  0
  3  4  1  0
  4  5  1  0
  5  6  1  0
  6  7  1  0
  7  8  1  0
  6  2  1  0
  8  3  1  0
  3  9  1  0
  4 10  1  0
  4 11  1  0
  6 12  1  0
  7 13  1  0
  7 14  1  0
M  END
