
     RDKit          3D

 15 16  0  0  0  0  0  0  0  0999 V2000
   -1.1133    2.5667   -0.9055 O   0  0  0  0  0  0  0  0  0  0  0  0
   -1.1389    1.3408   -0.6429 C   0  0  0  0  0  0  0  0  0  0  0  0
   -2.2015    0.5559   -0.1629 O   0  0  0  0  0  0  0  0  0  0  0  0
   -1.6909   -0.6661    0.3892 C   0  0  0  0  0  0  0  0  0  0  0  0
   -0.2267   -0.4667    0.3875 C   0  0  0  0  0  0  0  0  0  0  0  0
    0.9541   -0.6897    0.9279 C   0  0  0  0  0  0  0  0  0  0  0  0
    1.9506    0.0289    0.1025 C   0  0  0  0  0  0  0  0  0  0  0  0
    1.2433    1.0375   -0.5007 O   0  0  0  0  0  0  0  0  0  0  0  0
    0.0215    0.4285   -0.7990 C   0  0  0  0  0  0  0  0  0  0  0  0
   -2.1132   -0.8537    1.3867 H   0  0  0  0  0  0  0  0  0  0  0  0
   -1.9630   -1.5373   -0.2585 H   0  0  0  0  0  0  0  0  0  0  0  0
    1.1586   -1.3047    1.8360 H   0  0  0  0  0  0  0  0  0  0  0  0
    2.2734   -0.6743   -0.7213 H   0  0  0  0  0  0  0  0  0  0  0  0
    2.8230    0.3759    0.6860 H   0  0  0  0  0  0  0  0  0  0  0  0
    0.0228   -0.1418   -1.7250 H   0  0  0  0  0  0  0  0  0  0  0  0
  1  2  2  0
  2  3  1  0
  3  4  1  0
  4  5  1  0
  5  6  2  0
  6  7  1  0
  7  8  1  0
  8  9  1  0
  9  2  1  0
  9  5  1  0
  4 10  1  0
  4 11  1  0
  6 12  1  0
  7 13  1  0
  7 14  1  0
  9 15  1  0
M  END
