
     RDKit          3D

 11 12  0  0  0  0  0  0  0  0999 V2000
    3.4449    0.2692    0.0128 O   0  0  0  0  0  0  0  0  0  0  0  0
    2.2000    0.0834    0.0014 C   0  0  0  0  0  0  0  0  0  0  0  0
    1.4420   -0.0147    1.0562 O   0  0  0  0  0  0  0  0  0  0  0  0
    0.1885   -0.2067    0.7025 C   0  0  0  0  0  0  0  0  0  0  0  0
    0.1863   -0.2267   -0.6855 C   0  0  0  0  0  0  0  0  0  0  0  0
    1.4448   -0.0444   -1.0686 O   0  0  0  0  0  0  0  0  0  0  0  0
   -1.1337   -0.4293   -1.0912 O   0  0  0  0  0  0  0  0  0  0  0  0
   -1.9125    0.0883   -0.0059 C   0  0  0  0  0  0  0  0  0  0  0  0
   -1.1371   -0.3987    1.1015 O   0  0  0  0  0  0  0  0  0  0  0  0
   -2.9327   -0.2889    0.0007 H   0  0  0  0  0  0  0  0  0  0  0  0
   -1.7905    1.1685   -0.0238 H   0  0  0  0  0  0  0  0  0  0  0  0
  1  2  2  0
  2  3  1  0
  3  4  1  0
  4  5  2  0
  5  6  1  0
  5  7  1  0
  7  8  1  0
  8  9  1  0
  6  2  1  0
  9  4  1  0
  8 10  1  0
  8 11  1  0
M  END
