
     RDKit          3D

 14 15  0  0  0  0  0  0  0  0999 V2000
   -2.1504   -0.5433    1.1535 O   0  0  0  0  0  0  0  0  0  0  0  0
   -1.2623   -0.2252    0.4229 C   0  0  0  0  0  0  0  0  0  0  0  0
   -0.6150    1.0980    0.2685 C   0  0  0  0  0  0  0  0  0  0  0  0
    0.6236    0.6476   -0.5064 C   0  0  0  0  0  0  0  0  0  0  0  0
    1.3399   -0.3830    0.3123 C   0  0  0  0  0  0  0  0  0  0  0  0
    0.6178   -1.5678    0.0532 O   0  0  0  0  0  0  0  0  0  0  0  0
   -0.5640   -1.1017   -0.5419 C   0  0  0  0  0  0  0  0  0  0  0  0
   -0.0072   -0.1765   -1.4661 O   0  0  0  0  0  0  0  0  0  0  0  0
   -0.3740    1.5981    1.2025 H   0  0  0  0  0  0  0  0  0  0  0  0
   -1.2228    1.7119   -0.4351 H   0  0  0  0  0  0  0  0  0  0  0  0
    1.2103    1.4417   -0.9168 H   0  0  0  0  0  0  0  0  0  0  0  0
    2.4036   -0.4876    0.0774 H   0  0  0  0  0  0  0  0  0  0  0  0
    1.1613   -0.1515    1.3838 H   0  0  0  0  0  0  0  0  0  0  0  0
   -1.1608   -1.8607   -1.0079 H   0  0  0  0  0  0  0  0  0  0  0  0
  1  2  2  0
  2  3  1  0
  3  4  1  0
  4  5  1  0
  5  6  1  0
  6  7  1  0
  7  8  1  0
  7  2  1  0
  8  4  1  0
  3  9  1  0
  3 10  1  0
  4 11  1  0
  5 12  1  0
  5 13  1  0
  7 14  1  0
M  END
