
     RDKit          3D

 17 18  0  0  0  0  0  0  0  0999 V2000
    3.2313    1.0264    0.0394 O   0  0  0  0  0  0  0  0  0  0  0  0
    2.0785    0.6267    0.1598 C   0  0  0  0  0  0  0  0  0  0  0  0
    0.9072    1.4162    0.6015 C   0  0  0  0  0  0  0  0  0  0  0  0
   -0.1998    0.8518    0.1649 C   0  0  0  0  0  0  0  0  0  0  0  0
   -1.5785    0.4413   -0.1872 C   0  0  0  0  0  0  0  0  0  0  0  0
   -2.5360    0.6146    0.7810 O   0  0  0  0  0  0  0  0  0  0  0  0
   -1.0120   -1.0009   -0.1141 C   0  0  0  0  0  0  0  0  0  0  0  0
    0.2061   -0.3556   -0.6893 C   0  0  0  0  0  0  0  0  0  0  0  0
    1.5192   -0.7625   -0.1010 C   0  0  0  0  0  0  0  0  0  0  0  0
    1.0061    2.3194    1.1962 H   0  0  0  0  0  0  0  0  0  0  0  0
   -1.8559    0.7468   -1.2052 H   0  0  0  0  0  0  0  0  0  0  0  0
   -3.0756   -0.2225    0.8225 H   0  0  0  0  0  0  0  0  0  0  0  0
   -1.5527   -1.7180   -0.7294 H   0  0  0  0  0  0  0  0  0  0  0  0
   -0.8657   -1.2336    0.9509 H   0  0  0  0  0  0  0  0  0  0  0  0
    0.1890   -0.1334   -1.7632 H   0  0  0  0  0  0  0  0  0  0  0  0
    1.3772   -1.2889    0.8542 H   0  0  0  0  0  0  0  0  0  0  0  0
    2.1616   -1.3277   -0.7808 H   0  0  0  0  0  0  0  0  0  0  0  0
  1  2  2  0
  2  3  1  0
  3  4  2  0
  4  5  1  0
  5  6  1  0
  5  7  1  0
  7  8  1  0
  8  9  1  0
  9  2  1  0
  8  4  1  0
  3 10  1  0
  5 11  1  0
  6 12  1  0
  7 13  1  0
  7 14  1  0
  8 15  1  0
  9 16  1  0
  9 17  1  0
M  END
