
     RDKit          3D

 19 20  0  0  0  0  0  0  0  0999 V2000
   -0.6746    2.8782   -0.4191 O   0  0  0  0  0  0  0  0  0  0  0  0
   -0.3015    1.6866   -0.2966 C   0  0  0  0  0  0  0  0  0  0  0  0
    1.0528    1.5071   -0.3130 O   0  0  0  0  0  0  0  0  0  0  0  0
    1.7967    0.3199   -0.3631 C   0  0  0  0  0  0  0  0  0  0  0  0
    1.2187   -0.7970    0.4243 C   0  0  0  0  0  0  0  0  0  0  0  0
   -0.2261   -1.0357    0.2947 C   0  0  0  0  0  0  0  0  0  0  0  0
   -1.1110   -0.1398    1.1125 C   0  0  0  0  0  0  0  0  0  0  0  0
   -1.3587    0.6728   -0.1555 C   0  0  0  0  0  0  0  0  0  0  0  0
   -0.8828   -0.5522   -0.9455 C   0  0  0  0  0  0  0  0  0  0  0  0
    1.9438    0.0685   -1.4480 H   0  0  0  0  0  0  0  0  0  0  0  0
    2.8268    0.5240    0.0279 H   0  0  0  0  0  0  0  0  0  0  0  0
    1.7700   -1.7281    0.1664 H   0  0  0  0  0  0  0  0  0  0  0  0
    1.4524   -0.6025    1.5087 H   0  0  0  0  0  0  0  0  0  0  0  0
   -0.4762   -2.1130    0.4777 H   0  0  0  0  0  0  0  0  0  0  0  0
   -0.5977    0.4014    1.9147 H   0  0  0  0  0  0  0  0  0  0  0  0
   -2.0675   -0.6024    1.4257 H   0  0  0  0  0  0  0  0  0  0  0  0
   -2.3866    0.9741   -0.3353 H   0  0  0  0  0  0  0  0  0  0  0  0
   -0.2261   -0.3055   -1.8009 H   0  0  0  0  0  0  0  0  0  0  0  0
   -1.7526   -1.1564   -1.2757 H   0  0  0  0  0  0  0  0  0  0  0  0
  1  2  2  0
  2  3  1  0
  3  4  1  0
  4  5  1  0
  5  6  1  0
  6  7  1  0
  7  8  1  0
  8  9  1  0
  8  2  1  0
  9  6  1  0
  4 10  1  0
  4 11  1  0
  5 12  1  0
  5 13  1  0
  6 14  1  0
  7 15  1  0
  7 16  1  0
  8 17  1  0
  9 18  1  0
  9 19  1  0
M  END
