
     RDKit          3D

 19 20  0  0  0  0  0  0  0  0999 V2000
   -2.2221   -1.5957   -1.0054 O   0  0  0  0  0  0  0  0  0  0  0  0
   -1.5838   -0.9186   -0.2383 C   0  0  0  0  0  0  0  0  0  0  0  0
   -2.2160    0.2279    0.4376 C   0  0  0  0  0  0  0  0  0  0  0  0
   -1.2569    1.0398    1.0769 O   0  0  0  0  0  0  0  0  0  0  0  0
   -0.1789    1.2466    0.2268 C   0  0  0  0  0  0  0  0  0  0  0  0
    0.6432    0.0232   -0.0159 C   0  0  0  0  0  0  0  0  0  0  0  0
    1.7754    0.1707   -0.9609 C   0  0  0  0  0  0  0  0  0  0  0  0
    2.0226   -0.0359    0.5004 C   0  0  0  0  0  0  0  0  0  0  0  0
   -0.1684   -1.2471    0.0168 C   0  0  0  0  0  0  0  0  0  0  0  0
   -2.7559    0.8635   -0.3218 H   0  0  0  0  0  0  0  0  0  0  0  0
   -2.9168   -0.0885    1.2527 H   0  0  0  0  0  0  0  0  0  0  0  0
    0.4195    2.0759    0.6685 H   0  0  0  0  0  0  0  0  0  0  0  0
   -0.5679    1.6020   -0.7719 H   0  0  0  0  0  0  0  0  0  0  0  0
    1.9855    1.1551   -1.4323 H   0  0  0  0  0  0  0  0  0  0  0  0
    1.9627   -0.6732   -1.6673 H   0  0  0  0  0  0  0  0  0  0  0  0
    2.5309   -1.0013    0.7350 H   0  0  0  0  0  0  0  0  0  0  0  0
    2.4267    0.8029    1.1137 H   0  0  0  0  0  0  0  0  0  0  0  0
    0.2197   -2.0137   -0.6902 H   0  0  0  0  0  0  0  0  0  0  0  0
   -0.1194   -1.6334    1.0756 H   0  0  0  0  0  0  0  0  0  0  0  0
  1  2  2  0
  2  3  1  0
  3  4  1  0
  4  5  1  0
  5  6  1  0
  6  7  1  0
  7  8  1  0
  6  9  1  0
  9  2  1  0
  8  6  1  0
  3 10  1  0
  3 11  1  0
  5 12  1  0
  5 13  1  0
  7 14  1  0
  7 15  1  0
  8 16  1  0
  8 17  1  0
  9 18  1  0
  9 19  1  0
M  END
