
     RDKit          3D

 14 15  0  0  0  0  0  0  0  0999 V2000
    1.4235   -2.1161    0.1321 O   0  0  0  0  0  0  0  0  0  0  0  0
    0.7290   -1.1291    0.2368 C   0  0  0  0  0  0  0  0  0  0  0  0
    0.2218   -0.3536    1.3965 C   0  0  0  0  0  0  0  0  0  0  0  0
   -0.4444    0.5635    0.3944 C   0  0  0  0  0  0  0  0  0  0  0  0
   -0.2300    1.9205    0.4457 O   0  0  0  0  0  0  0  0  0  0  0  0
   -1.3803   -0.0365   -0.5623 C   0  0  0  0  0  0  0  0  0  0  0  0
    0.0741   -0.2530   -0.7467 C   0  0  0  0  0  0  0  0  0  0  0  0
    0.7820    0.3270   -1.7765 O   0  0  0  0  0  0  0  0  0  0  0  0
   -0.5460   -0.8696    2.0005 H   0  0  0  0  0  0  0  0  0  0  0  0
    1.0417    0.0973    1.9755 H   0  0  0  0  0  0  0  0  0  0  0  0
    0.4886    2.1848   -0.1775 H   0  0  0  0  0  0  0  0  0  0  0  0
   -1.9081    0.6680   -1.2445 H   0  0  0  0  0  0  0  0  0  0  0  0
   -1.9650   -0.9526   -0.3358 H   0  0  0  0  0  0  0  0  0  0  0  0
    1.7132   -0.0505   -1.7382 H   0  0  0  0  0  0  0  0  0  0  0  0
  1  2  2  0
  2  3  1  0
  3  4  1  0
  4  5  1  0
  4  6  1  0
  6  7  1  0
  7  8  1  0
  7  2  1  0
  7  4  1  0
  3  9  1  0
  3 10  1  0
  5 11  1  0
  6 12  1  0
  6 13  1  0
  8 14  1  0
M  END
