
     RDKit          3D

 17 17  0  0  0  0  0  0  0  0999 V2000
   -1.3997    2.1362   -1.1104 O   0  0  0  0  0  0  0  0  0  0  0  0
   -0.7545    1.2419   -0.4684 C   0  0  0  0  0  0  0  0  0  0  0  0
    0.6251    1.5748   -0.1280 C   0  0  0  0  0  0  0  0  0  0  0  0
    1.6632    0.7709    0.0321 C   0  0  0  0  0  0  0  0  0  0  0  0
    1.6693   -0.7096   -0.1014 C   0  0  0  0  0  0  0  0  0  0  0  0
    0.5682   -1.1686   -0.8216 O   0  0  0  0  0  0  0  0  0  0  0  0
   -0.5824   -1.2268   -0.0843 C   0  0  0  0  0  0  0  0  0  0  0  0
   -1.4523   -0.0187   -0.1382 C   0  0  0  0  0  0  0  0  0  0  0  0
   -1.9925    0.1603    1.1576 O   0  0  0  0  0  0  0  0  0  0  0  0
    0.8365    2.6498    0.0163 H   0  0  0  0  0  0  0  0  0  0  0  0
    2.5995    1.2237    0.2839 H   0  0  0  0  0  0  0  0  0  0  0  0
    2.5747   -0.9853   -0.6843 H   0  0  0  0  0  0  0  0  0  0  0  0
    1.7409   -1.1560    0.9071 H   0  0  0  0  0  0  0  0  0  0  0  0
   -0.3291   -1.5325    0.9732 H   0  0  0  0  0  0  0  0  0  0  0  0
   -1.1887   -2.0894   -0.4911 H   0  0  0  0  0  0  0  0  0  0  0  0
   -2.3313   -0.1306   -0.8068 H   0  0  0  0  0  0  0  0  0  0  0  0
   -2.2467   -0.7401    1.4642 H   0  0  0  0  0  0  0  0  0  0  0  0
  1  2  2  0
  2  3  1  0
  3  4  2  0
  4  5  1  0
  5  6  1  0
  6  7  1  0
  7  8  1  0
  8  9  1  0
  8  2  1  0
  3 10  1  0
  4 11  1  0
  5 12  1  0
  5 13  1  0
  7 14  1  0
  7 15  1  0
  8 16  1  0
  9 17  1  0
M  END
