
     RDKit          3D

 17 18  0  0  0  0  0  0  0  0999 V2000
    0.4230   -2.2612   -0.5273 O   0  0  0  0  0  0  0  0  0  0  0  0
   -0.0011   -1.1455   -0.5081 C   0  0  0  0  0  0  0  0  0  0  0  0
   -1.4282   -0.7551   -0.6233 C   0  0  0  0  0  0  0  0  0  0  0  0
   -1.5989    0.1597    0.5683 C   0  0  0  0  0  0  0  0  0  0  0  0
   -0.6843    0.9723   -0.3181 C   0  0  0  0  0  0  0  0  0  0  0  0
   -1.3674    0.4032   -1.3999 O   0  0  0  0  0  0  0  0  0  0  0  0
    0.6326    0.1967   -0.3762 C   0  0  0  0  0  0  0  0  0  0  0  0
    1.3982    0.3420    0.9085 C   0  0  0  0  0  0  0  0  0  0  0  0
    2.4079   -0.6036    0.9825 O   0  0  0  0  0  0  0  0  0  0  0  0
   -2.1643   -1.4874   -0.8309 H   0  0  0  0  0  0  0  0  0  0  0  0
   -2.6028    0.5816    0.5770 H   0  0  0  0  0  0  0  0  0  0  0  0
   -1.1879   -0.1919    1.5146 H   0  0  0  0  0  0  0  0  0  0  0  0
   -0.6487    2.0259   -0.2196 H   0  0  0  0  0  0  0  0  0  0  0  0
    1.2000    0.5064   -1.2556 H   0  0  0  0  0  0  0  0  0  0  0  0
    0.7518    0.3735    1.7866 H   0  0  0  0  0  0  0  0  0  0  0  0
    1.8997    1.3501    0.8566 H   0  0  0  0  0  0  0  0  0  0  0  0
    2.9705   -0.4666    0.1558 H   0  0  0  0  0  0  0  0  0  0  0  0
  1  2  2  0
  2  3  1  0
  3  4  1  0
  4  5  1  0
  5  6  1  0
  5  7  1  0
  7  8  1  0
  8  9  1  0
  7  2  1  0
  6  3  1  0
  3 10  1  0
  4 11  1  0
  4 12  1  0
  5 13  1  0
  7 14  1  0
  8 15  1  0
  8 16  1  0
  9 17  1  0
M  END
