
     RDKit          3D

 19 20  0  0  0  0  0  0  0  0999 V2000
    2.1404   -1.6499   -0.4925 O   0  0  0  0  0  0  0  0  0  0  0  0
    1.1520   -0.9607   -0.2953 C   0  0  0  0  0  0  0  0  0  0  0  0
    1.4276    0.4693   -0.3292 C   0  0  0  0  0  0  0  0  0  0  0  0
    0.5538    1.3168    0.5483 C   0  0  0  0  0  0  0  0  0  0  0  0
   -0.9095    1.3095    0.0781 C   0  0  0  0  0  0  0  0  0  0  0  0
   -1.4708    0.0286    0.5651 C   0  0  0  0  0  0  0  0  0  0  0  0
   -2.3902   -0.7461   -0.0058 O   0  0  0  0  0  0  0  0  0  0  0  0
   -1.2080   -0.9704   -0.5695 C   0  0  0  0  0  0  0  0  0  0  0  0
   -0.0794   -1.7955   -0.0716 C   0  0  0  0  0  0  0  0  0  0  0  0
    1.3700    0.9096   -1.3640 H   0  0  0  0  0  0  0  0  0  0  0  0
    2.4717    0.6489   -0.0012 H   0  0  0  0  0  0  0  0  0  0  0  0
    0.6465    1.0654    1.6062 H   0  0  0  0  0  0  0  0  0  0  0  0
    0.8880    2.3692    0.4237 H   0  0  0  0  0  0  0  0  0  0  0  0
   -1.4315    2.2069    0.4672 H   0  0  0  0  0  0  0  0  0  0  0  0
   -0.8353    1.3808   -1.0415 H   0  0  0  0  0  0  0  0  0  0  0  0
   -1.1694   -0.2401    1.5941 H   0  0  0  0  0  0  0  0  0  0  0  0
   -1.0648   -0.5805   -1.5943 H   0  0  0  0  0  0  0  0  0  0  0  0
   -0.1074   -1.9843    1.0318 H   0  0  0  0  0  0  0  0  0  0  0  0
    0.0162   -2.7776   -0.5496 H   0  0  0  0  0  0  0  0  0  0  0  0
  1  2  2  0
  2  3  1  0
  3  4  1  0
  4  5  1  0
  5  6  1  0
  6  7  1  0
  7  8  1  0
  8  9  1  0
  9  2  1  0
  8  6  1  0
  3 10  1  0
  3 11  1  0
  4 12  1  0
  4 13  1  0
  5 14  1  0
  5 15  1  0
  6 16  1  0
  8 17  1  0
  9 18  1  0
  9 19  1  0
M  END
