
     RDKit          3D

 12 12  0  0  0  0  0  0  0  0999 V2000
    2.0984    1.7983    0.1424 O   0  0  0  0  0  0  0  0  0  0  0  0
    1.1568    0.9717    0.0545 C   0  0  0  0  0  0  0  0  0  0  0  0
   -0.1622    1.3841    0.1977 O   0  0  0  0  0  0  0  0  0  0  0  0
   -1.1830    0.4804   -0.2531 C   0  0  0  0  0  0  0  0  0  0  0  0
   -0.8336   -0.8729    0.3552 C   0  0  0  0  0  0  0  0  0  0  0  0
    0.3543   -1.2973   -0.2855 O   0  0  0  0  0  0  0  0  0  0  0  0
    1.4381   -0.4325   -0.1991 C   0  0  0  0  0  0  0  0  0  0  0  0
    2.6087   -0.8815   -0.3404 O   0  0  0  0  0  0  0  0  0  0  0  0
   -1.0480    0.3848   -1.3500 H   0  0  0  0  0  0  0  0  0  0  0  0
   -2.1826    0.8244    0.0079 H   0  0  0  0  0  0  0  0  0  0  0  0
   -0.5874   -0.7601    1.4320 H   0  0  0  0  0  0  0  0  0  0  0  0
   -1.6595   -1.5992    0.2384 H   0  0  0  0  0  0  0  0  0  0  0  0
  1  2  2  0
  2  3  1  0
  3  4  1  0
  4  5  1  0
  5  6  1  0
  6  7  1  0
  7  8  2  0
  7  2  1  0
  4  9  1  0
  4 10  1  0
  5 11  1  0
  5 12  1  0
M  END
