
     RDKit          3D

 17 18  0  0  0  0  0  0  0  0999 V2000
    2.3009   -1.6695    0.7520 O   0  0  0  0  0  0  0  0  0  0  0  0
    1.5879   -0.8620    0.2371 C   0  0  0  0  0  0  0  0  0  0  0  0
    1.7970    0.6050    0.2333 C   0  0  0  0  0  0  0  0  0  0  0  0
    0.4826    1.1995   -0.1501 C   0  0  0  0  0  0  0  0  0  0  0  0
    0.2464    2.3668   -0.3993 O   0  0  0  0  0  0  0  0  0  0  0  0
   -0.4808    0.1078   -0.1714 C   0  0  0  0  0  0  0  0  0  0  0  0
   -1.8839    0.2467   -0.5769 C   0  0  0  0  0  0  0  0  0  0  0  0
   -1.5302   -0.0153    0.8777 C   0  0  0  0  0  0  0  0  0  0  0  0
    0.3372   -1.1135   -0.5145 C   0  0  0  0  0  0  0  0  0  0  0  0
    2.5525    0.9119   -0.5190 H   0  0  0  0  0  0  0  0  0  0  0  0
    2.0984    0.9575    1.2560 H   0  0  0  0  0  0  0  0  0  0  0  0
   -2.3039    1.2515   -0.8113 H   0  0  0  0  0  0  0  0  0  0  0  0
   -2.2956   -0.6197   -1.1628 H   0  0  0  0  0  0  0  0  0  0  0  0
   -1.5995    0.8495    1.5720 H   0  0  0  0  0  0  0  0  0  0  0  0
   -1.7156   -1.0392    1.2452 H   0  0  0  0  0  0  0  0  0  0  0  0
   -0.1574   -2.0472   -0.2466 H   0  0  0  0  0  0  0  0  0  0  0  0
    0.5641   -1.1298   -1.6212 H   0  0  0  0  0  0  0  0  0  0  0  0
  1  2  2  0
  2  3  1  0
  3  4  1  0
  4  5  2  0
  4  6  1  0
  6  7  1  0
  7  8  1  0
  6  9  1  0
  9  2  1  0
  8  6  1  0
  3 10  1  0
  3 11  1  0
  7 12  1  0
  7 13  1  0
  8 14  1  0
  8 15  1  0
  9 16  1  0
  9 17  1  0
M  END
