
     RDKit          3D

 16 17  0  0  0  0  0  0  0  0999 V2000
    0.3954   -0.7228   -2.3134 O   0  0  0  0  0  0  0  0  0  0  0  0
    0.2697   -0.2452   -1.2249 C   0  0  0  0  0  0  0  0  0  0  0  0
    1.2683   -0.1442   -0.1255 C   0  0  0  0  0  0  0  0  0  0  0  0
    2.2064    0.8524   -0.3504 O   0  0  0  0  0  0  0  0  0  0  0  0
    0.3952    0.2254    1.1046 C   0  0  0  0  0  0  0  0  0  0  0  0
   -0.8570   -0.4569    0.6684 C   0  0  0  0  0  0  0  0  0  0  0  0
   -2.0404   -0.0796    0.0368 C   0  0  0  0  0  0  0  0  0  0  0  0
   -0.9206    0.3756   -0.6808 C   0  0  0  0  0  0  0  0  0  0  0  0
    1.7476   -1.1043    0.1155 H   0  0  0  0  0  0  0  0  0  0  0  0
    3.1097    0.4503   -0.3848 H   0  0  0  0  0  0  0  0  0  0  0  0
    0.3475    1.3286    1.0915 H   0  0  0  0  0  0  0  0  0  0  0  0
    0.7846   -0.2160    2.0148 H   0  0  0  0  0  0  0  0  0  0  0  0
   -0.5815   -1.5543    0.5412 H   0  0  0  0  0  0  0  0  0  0  0  0
   -2.6920   -0.8561   -0.4637 H   0  0  0  0  0  0  0  0  0  0  0  0
   -2.7191    0.6578    0.5331 H   0  0  0  0  0  0  0  0  0  0  0  0
   -0.7138    1.4894   -0.5625 H   0  0  0  0  0  0  0  0  0  0  0  0
  1  2  2  0
  2  3  1  0
  3  4  1  0
  3  5  1  0
  5  6  1  0
  6  7  1  0
  7  8  1  0
  8  2  1  0
  8  6  1  0
  3  9  1  0
  4 10  1  0
  5 11  1  0
  5 12  1  0
  6 13  1  0
  7 14  1  0
  7 15  1  0
  8 16  1  0
M  END
