
     RDKit          3D

 14 15  0  0  0  0  0  0  0  0999 V2000
    3.2834    0.2041   -0.0286 O   0  0  0  0  0  0  0  0  0  0  0  0
    2.0648   -0.0620   -0.1632 C   0  0  0  0  0  0  0  0  0  0  0  0
    0.8914    0.6527   -0.7261 C   0  0  0  0  0  0  0  0  0  0  0  0
    0.1695   -0.3719    0.0635 C   0  0  0  0  0  0  0  0  0  0  0  0
   -0.7081   -0.0034    1.1578 C   0  0  0  0  0  0  0  0  0  0  0  0
   -1.1860   -0.7955   -0.0622 C   0  0  0  0  0  0  0  0  0  0  0  0
   -2.1406   -0.2027   -0.8810 O   0  0  0  0  0  0  0  0  0  0  0  0
    1.3023   -1.1714    0.1734 O   0  0  0  0  0  0  0  0  0  0  0  0
    0.7777    1.7003   -0.3842 H   0  0  0  0  0  0  0  0  0  0  0  0
    0.7944    0.6129   -1.8273 H   0  0  0  0  0  0  0  0  0  0  0  0
   -1.0790    1.0414    1.1889 H   0  0  0  0  0  0  0  0  0  0  0  0
   -0.6002   -0.5333    2.1206 H   0  0  0  0  0  0  0  0  0  0  0  0
   -1.4552   -1.8559    0.1963 H   0  0  0  0  0  0  0  0  0  0  0  0
   -2.1144    0.7846   -0.8277 H   0  0  0  0  0  0  0  0  0  0  0  0
  1  2  2  0
  2  3  1  0
  3  4  1  0
  4  5  1  0
  5  6  1  0
  6  7  1  0
  4  8  1  0
  8  2  1  0
  6  4  1  0
  3  9  1  0
  3 10  1  0
  5 11  1  0
  5 12  1  0
  6 13  1  0
  7 14  1  0
M  END
