
     RDKit          3D

 12 12  0  0  0  0  0  0  0  0999 V2000
    2.4702    0.4296    0.3079 O   0  0  0  0  0  0  0  0  0  0  0  0
    1.3204    0.1842    0.0841 C   0  0  0  0  0  0  0  0  0  0  0  0
    0.4647   -1.0176    0.0530 C   0  0  0  0  0  0  0  0  0  0  0  0
   -0.6649   -0.0916    0.5104 C   0  0  0  0  0  0  0  0  0  0  0  0
   -1.9035   -0.3860    0.0234 O   0  0  0  0  0  0  0  0  0  0  0  0
    0.1215    0.9605   -0.2864 C   0  0  0  0  0  0  0  0  0  0  0  0
    0.3032   -1.3297   -1.0075 H   0  0  0  0  0  0  0  0  0  0  0  0
    0.7104   -1.8254    0.7560 H   0  0  0  0  0  0  0  0  0  0  0  0
   -0.5884    0.1434    1.5843 H   0  0  0  0  0  0  0  0  0  0  0  0
   -2.1864    0.1261   -0.7656 H   0  0  0  0  0  0  0  0  0  0  0  0
   -0.0923    0.8314   -1.3663 H   0  0  0  0  0  0  0  0  0  0  0  0
    0.0451    1.9753    0.1066 H   0  0  0  0  0  0  0  0  0  0  0  0
  1  2  2  0
  2  3  1  0
  3  4  1  0
  4  5  1  0
  4  6  1  0
  6  2  1  0
  3  7  1  0
  3  8  1  0
  4  9  1  0
  5 10  1  0
  6 11  1  0
  6 12  1  0
M  END
