
     RDKit          3D

 17 18  0  0  0  0  0  0  0  0999 V2000
   -0.9681   -2.6148   -0.1128 O   0  0  0  0  0  0  0  0  0  0  0  0
   -0.8675   -1.3857   -0.0783 C   0  0  0  0  0  0  0  0  0  0  0  0
   -1.8728   -0.4167    0.4412 C   0  0  0  0  0  0  0  0  0  0  0  0
   -1.3715    0.8852   -0.1601 C   0  0  0  0  0  0  0  0  0  0  0  0
    0.0776    0.6920   -0.0193 C   0  0  0  0  0  0  0  0  0  0  0  0
    1.2560    1.1135    0.3523 C   0  0  0  0  0  0  0  0  0  0  0  0
    2.3050    0.0858    0.0598 C   0  0  0  0  0  0  0  0  0  0  0  0
    1.5214   -1.0901    0.0289 O   0  0  0  0  0  0  0  0  0  0  0  0
    0.3402   -0.6791   -0.5806 C   0  0  0  0  0  0  0  0  0  0  0  0
   -1.7687   -0.3176    1.5360 H   0  0  0  0  0  0  0  0  0  0  0  0
   -2.8997   -0.6570    0.1207 H   0  0  0  0  0  0  0  0  0  0  0  0
   -1.7533    1.7656    0.3899 H   0  0  0  0  0  0  0  0  0  0  0  0
   -1.6592    0.8995   -1.2341 H   0  0  0  0  0  0  0  0  0  0  0  0
    1.4783    2.0716    0.8128 H   0  0  0  0  0  0  0  0  0  0  0  0
    2.8452    0.2607   -0.8603 H   0  0  0  0  0  0  0  0  0  0  0  0
    2.9354    0.0150    0.9717 H   0  0  0  0  0  0  0  0  0  0  0  0
    0.4016   -0.6280   -1.6679 H   0  0  0  0  0  0  0  0  0  0  0  0
  1  2  2  0
  2  3  1  0
  3  4  1  0
  4  5  1  0
  5  6  2  0
  6  7  1  0
  7  8  1  0
  8  9  1  0
  9  2  1  0
  9  5  1  0
  3 10  1  0
  3 11  1  0
  4 12  1  0
  4 13  1  0
  6 14  1  0
  7 15  1  0
  7 16  1  0
  9 17  1  0
M  END
