
     RDKit          3D

 17 18  0  0  0  0  0  0  0  0999 V2000
    0.6537    1.9877    1.0399 O   0  0  0  0  0  0  0  0  0  0  0  0
    0.7663    0.9129    0.5080 C   0  0  0  0  0  0  0  0  0  0  0  0
    2.0321    0.1769    0.2924 C   0  0  0  0  0  0  0  0  0  0  0  0
    1.7680   -0.4999   -0.9001 O   0  0  0  0  0  0  0  0  0  0  0  0
    0.4598   -0.9786   -0.8038 C   0  0  0  0  0  0  0  0  0  0  0  0
   -0.2859    0.0801   -0.0465 C   0  0  0  0  0  0  0  0  0  0  0  0
   -1.3538   -0.3932    0.8909 C   0  0  0  0  0  0  0  0  0  0  0  0
   -2.1151    0.7208    0.5196 O   0  0  0  0  0  0  0  0  0  0  0  0
   -1.4412    0.7185   -0.7132 C   0  0  0  0  0  0  0  0  0  0  0  0
    2.9051    0.8340    0.1488 H   0  0  0  0  0  0  0  0  0  0  0  0
    2.1913   -0.5230    1.1436 H   0  0  0  0  0  0  0  0  0  0  0  0
    0.4993   -1.9049   -0.2084 H   0  0  0  0  0  0  0  0  0  0  0  0
    0.0447   -1.1345   -1.8265 H   0  0  0  0  0  0  0  0  0  0  0  0
   -1.0913   -0.3195    1.9611 H   0  0  0  0  0  0  0  0  0  0  0  0
   -1.7657   -1.3635    0.5526 H   0  0  0  0  0  0  0  0  0  0  0  0
   -1.3078    1.7007   -1.1707 H   0  0  0  0  0  0  0  0  0  0  0  0
   -1.9594   -0.0145   -1.3878 H   0  0  0  0  0  0  0  0  0  0  0  0
  1  2  2  0
  2  3  1  0
  3  4  1  0
  4  5  1  0
  5  6  1  0
  6  7  1  0
  7  8  1  0
  8  9  1  0
  6  2  1  0
  9  6  1  0
  3 10  1  0
  3 11  1  0
  5 12  1  0
  5 13  1  0
  7 14  1  0
  7 15  1  0
  9 16  1  0
  9 17  1  0
M  END
