
     RDKit          3D

 21 22  0  0  0  0  0  0  0  0999 V2000
    1.5178    1.9272    1.0186 O   0  0  0  0  0  0  0  0  0  0  0  0
    1.3778    0.8788    0.4148 C   0  0  0  0  0  0  0  0  0  0  0  0
    2.3752   -0.0073   -0.2458 C   0  0  0  0  0  0  0  0  0  0  0  0
    1.3683   -1.1432   -0.1705 C   0  0  0  0  0  0  0  0  0  0  0  0
    0.3263   -0.0796   -0.0130 C   0  0  0  0  0  0  0  0  0  0  0  0
   -0.3499    0.3563   -1.2936 C   0  0  0  0  0  0  0  0  0  0  0  0
   -1.8067    0.0999   -1.0209 C   0  0  0  0  0  0  0  0  0  0  0  0
   -1.8933    0.4963    0.4582 C   0  0  0  0  0  0  0  0  0  0  0  0
   -0.7452   -0.3595    0.9910 C   0  0  0  0  0  0  0  0  0  0  0  0
    2.5256    0.2657   -1.3042 H   0  0  0  0  0  0  0  0  0  0  0  0
    3.2614   -0.1254    0.3718 H   0  0  0  0  0  0  0  0  0  0  0  0
    1.2368   -1.7130   -1.0896 H   0  0  0  0  0  0  0  0  0  0  0  0
    1.4555   -1.7425    0.7555 H   0  0  0  0  0  0  0  0  0  0  0  0
   -0.2404    1.4603   -1.4683 H   0  0  0  0  0  0  0  0  0  0  0  0
    0.0642   -0.2292   -2.1209 H   0  0  0  0  0  0  0  0  0  0  0  0
   -2.4924    0.6638   -1.6456 H   0  0  0  0  0  0  0  0  0  0  0  0
   -1.9670   -1.0041   -1.0559 H   0  0  0  0  0  0  0  0  0  0  0  0
   -1.5705    1.5481    0.5970 H   0  0  0  0  0  0  0  0  0  0  0  0
   -2.8505    0.2458    0.8990 H   0  0  0  0  0  0  0  0  0  0  0  0
   -0.4914   -0.1157    2.0194 H   0  0  0  0  0  0  0  0  0  0  0  0
   -1.1016   -1.4226    0.8751 H   0  0  0  0  0  0  0  0  0  0  0  0
  1  2  2  0
  2  3  1  0
  3  4  1  0
  4  5  1  0
  5  6  1  0
  6  7  1  0
  7  8  1  0
  8  9  1  0
  5  2  1  0
  9  5  1  0
  3 10  1  0
  3 11  1  0
  4 12  1  0
  4 13  1  0
  6 14  1  0
  6 15  1  0
  7 16  1  0
  7 17  1  0
  8 18  1  0
  8 19  1  0
  9 20  1  0
  9 21  1  0
M  END
