
     RDKit          3D

 15 17  0  0  0  0  0  0  0  0999 V2000
    0.6478   -2.0317   -1.3596 O   0  0  0  0  0  0  0  0  0  0  0  0
    0.3533   -1.0099   -0.7879 C   0  0  0  0  0  0  0  0  0  0  0  0
    0.3828   -0.5995    0.6521 C   0  0  0  0  0  0  0  0  0  0  0  0
    0.7822    0.7684    0.1261 C   0  0  0  0  0  0  0  0  0  0  0  0
    2.0762    0.8249   -0.3593 O   0  0  0  0  0  0  0  0  0  0  0  0
   -0.1646    0.3666   -1.0086 C   0  0  0  0  0  0  0  0  0  0  0  0
   -1.4837    0.3488   -0.3053 C   0  0  0  0  0  0  0  0  0  0  0  0
   -2.0117   -0.8874   -0.0004 O   0  0  0  0  0  0  0  0  0  0  0  0
   -1.0898   -0.4689    0.9417 C   0  0  0  0  0  0  0  0  0  0  0  0
    1.0238   -1.1084    1.3207 H   0  0  0  0  0  0  0  0  0  0  0  0
    0.4077    1.6257    0.6778 H   0  0  0  0  0  0  0  0  0  0  0  0
    2.6210    0.2251    0.2402 H   0  0  0  0  0  0  0  0  0  0  0  0
   -0.0448    0.8312   -1.9475 H   0  0  0  0  0  0  0  0  0  0  0  0
   -2.0425    1.2684   -0.1037 H   0  0  0  0  0  0  0  0  0  0  0  0
   -1.4576   -0.1533    1.9136 H   0  0  0  0  0  0  0  0  0  0  0  0
  1  2  2  0
  2  3  1  0
  3  4  1  0
  4  5  1  0
  4  6  1  0
  6  7  1  0
  7  8  1  0
  8  9  1  0
  6  2  1  0
  9  7  1  0
  9  3  1  0
  3 10  1  0
  4 11  1  0
  5 12  1  0
  6 13  1  0
  7 14  1  0
  9 15  1  0
M  END
