
     RDKit          3D

 16 17  0  0  0  0  0  0  0  0999 V2000
    2.6470   -1.1706   -0.3476 O   0  0  0  0  0  0  0  0  0  0  0  0
    1.4381   -0.8644   -0.2730 C   0  0  0  0  0  0  0  0  0  0  0  0
    0.3992   -1.2114   -1.1547 O   0  0  0  0  0  0  0  0  0  0  0  0
   -0.8252   -0.6760   -0.6635 C   0  0  0  0  0  0  0  0  0  0  0  0
   -0.8354    0.8233   -0.7770 C   0  0  0  0  0  0  0  0  0  0  0  0
    0.3314    1.2322    0.1364 C   0  0  0  0  0  0  0  0  0  0  0  0
    0.7600   -0.0360    0.7869 C   0  0  0  0  0  0  0  0  0  0  0  0
   -0.5632   -0.8065    0.8500 C   0  0  0  0  0  0  0  0  0  0  0  0
   -1.7081   -1.1858   -0.9885 H   0  0  0  0  0  0  0  0  0  0  0  0
   -1.7981    1.1737   -0.3397 H   0  0  0  0  0  0  0  0  0  0  0  0
   -0.6890    1.1919   -1.8061 H   0  0  0  0  0  0  0  0  0  0  0  0
    1.1804    1.6021   -0.4893 H   0  0  0  0  0  0  0  0  0  0  0  0
    0.0588    2.0418    0.8146 H   0  0  0  0  0  0  0  0  0  0  0  0
    1.2857    0.0222    1.7095 H   0  0  0  0  0  0  0  0  0  0  0  0
   -0.3643   -1.8455    1.1081 H   0  0  0  0  0  0  0  0  0  0  0  0
   -1.3174   -0.2912    1.4340 H   0  0  0  0  0  0  0  0  0  0  0  0
  1  2  2  0
  2  3  1  0
  3  4  1  0
  4  5  1  0
  5  6  1  0
  6  7  1  0
  7  8  1  0
  7  2  1  0
  8  4  1  0
  4  9  1  0
  5 10  1  0
  5 11  1  0
  6 12  1  0
  6 13  1  0
  7 14  1  0
  8 15  1  0
  8 16  1  0
M  END
