
     RDKit          3D

 17 19  0  0  0  0  0  0  0  0999 V2000
    1.4244    2.4827    0.1788 O   0  0  0  0  0  0  0  0  0  0  0  0
    0.9519    1.3411    0.0713 C   0  0  0  0  0  0  0  0  0  0  0  0
    1.8060    0.1820    0.2010 C   0  0  0  0  0  0  0  0  0  0  0  0
    1.2604   -0.9636    0.5530 C   0  0  0  0  0  0  0  0  0  0  0  0
   -0.1725   -1.1497    0.8267 C   0  0  0  0  0  0  0  0  0  0  0  0
   -1.0795   -0.9198   -0.3216 C   0  0  0  0  0  0  0  0  0  0  0  0
   -0.7345    0.1244   -1.3206 C   0  0  0  0  0  0  0  0  0  0  0  0
   -0.4759    1.1225   -0.1889 C   0  0  0  0  0  0  0  0  0  0  0  0
   -0.9867    0.0882    0.7615 C   0  0  0  0  0  0  0  0  0  0  0  0
    2.8795    0.2212    0.0192 H   0  0  0  0  0  0  0  0  0  0  0  0
    1.9038   -1.8230    0.6475 H   0  0  0  0  0  0  0  0  0  0  0  0
   -0.4896   -1.8639    1.6189 H   0  0  0  0  0  0  0  0  0  0  0  0
   -1.9603   -1.5711   -0.4375 H   0  0  0  0  0  0  0  0  0  0  0  0
    0.1703   -0.0555   -1.9185 H   0  0  0  0  0  0  0  0  0  0  0  0
   -1.5712    0.4861   -1.9378 H   0  0  0  0  0  0  0  0  0  0  0  0
   -1.1261    2.0071   -0.2068 H   0  0  0  0  0  0  0  0  0  0  0  0
   -1.8002    0.2914    1.4540 H   0  0  0  0  0  0  0  0  0  0  0  0
  1  2  2  0
  2  3  1  0
  3  4  2  0
  4  5  1  0
  5  6  1  0
  6  7  1  0
  7  8  1  0
  8  9  1  0
  8  2  1  0
  9  5  1  0
  9  6  1  0
  3 10  1  0
  4 11  1  0
  5 12  1  0
  6 13  1  0
  7 14  1  0
  7 15  1  0
  8 16  1  0
  9 17  1  0
M  END
