
     RDKit          3D

 17 18  0  0  0  0  0  0  0  0999 V2000
   -2.7873   -1.0851    0.9716 O   0  0  0  0  0  0  0  0  0  0  0  0
   -1.8166   -0.6264    0.4279 C   0  0  0  0  0  0  0  0  0  0  0  0
   -1.7050    0.7173   -0.1771 C   0  0  0  0  0  0  0  0  0  0  0  0
   -0.2340    1.0116   -0.1099 C   0  0  0  0  0  0  0  0  0  0  0  0
    0.4151   -0.3178   -0.3170 C   0  0  0  0  0  0  0  0  0  0  0  0
    1.9072   -0.4610   -0.0985 C   0  0  0  0  0  0  0  0  0  0  0  0
    2.2999    0.5732    0.7515 O   0  0  0  0  0  0  0  0  0  0  0  0
   -0.1241   -1.2760   -1.1426 O   0  0  0  0  0  0  0  0  0  0  0  0
   -0.5203   -1.2945    0.2398 C   0  0  0  0  0  0  0  0  0  0  0  0
   -2.0185    0.7099   -1.2496 H   0  0  0  0  0  0  0  0  0  0  0  0
   -2.3120    1.4840    0.3360 H   0  0  0  0  0  0  0  0  0  0  0  0
    0.0926    1.7926   -0.8225 H   0  0  0  0  0  0  0  0  0  0  0  0
    0.0189    1.3425    0.9346 H   0  0  0  0  0  0  0  0  0  0  0  0
    2.4781   -0.3199   -1.0462 H   0  0  0  0  0  0  0  0  0  0  0  0
    2.1715   -1.4612    0.2977 H   0  0  0  0  0  0  0  0  0  0  0  0
    2.3674    1.3852    0.1837 H   0  0  0  0  0  0  0  0  0  0  0  0
   -0.2329   -2.1744    0.8205 H   0  0  0  0  0  0  0  0  0  0  0  0
  1  2  2  0
  2  3  1  0
  3  4  1  0
  4  5  1  0
  5  6  1  0
  6  7  1  0
  5  8  1  0
  8  9  1  0
  9  2  1  0
  9  5  1  0
  3 10  1  0
  3 11  1  0
  4 12  1  0
  4 13  1  0
  6 14  1  0
  6 15  1  0
  7 16  1  0
  9 17  1  0
M  END
