
     RDKit          3D

 17 18  0  0  0  0  0  0  0  0999 V2000
   -2.3647    1.9593   -0.5351 O   0  0  0  0  0  0  0  0  0  0  0  0
   -2.0452    0.8433   -0.1969 C   0  0  0  0  0  0  0  0  0  0  0  0
   -2.6386   -0.3556    0.4677 C   0  0  0  0  0  0  0  0  0  0  0  0
   -1.3458   -0.5949    0.9874 O   0  0  0  0  0  0  0  0  0  0  0  0
   -0.8649   -0.0511   -0.2232 C   0  0  0  0  0  0  0  0  0  0  0  0
    0.4684    0.6111   -0.1235 C   0  0  0  0  0  0  0  0  0  0  0  0
    1.5286   -0.4807   -0.1695 C   0  0  0  0  0  0  0  0  0  0  0  0
    2.8988   -0.1501   -0.0940 C   0  0  0  0  0  0  0  0  0  0  0  0
    2.2019   -0.6265    1.1220 O   0  0  0  0  0  0  0  0  0  0  0  0
   -2.8468   -1.1244   -0.3022 H   0  0  0  0  0  0  0  0  0  0  0  0
   -3.4093   -0.1619    1.2108 H   0  0  0  0  0  0  0  0  0  0  0  0
   -0.9149   -0.8256   -1.0000 H   0  0  0  0  0  0  0  0  0  0  0  0
    0.5628    1.2428    0.7674 H   0  0  0  0  0  0  0  0  0  0  0  0
    0.6148    1.2264   -1.0341 H   0  0  0  0  0  0  0  0  0  0  0  0
    1.2129   -1.4827   -0.5574 H   0  0  0  0  0  0  0  0  0  0  0  0
    3.2716    0.8838   -0.0064 H   0  0  0  0  0  0  0  0  0  0  0  0
    3.6706   -0.9133   -0.3974 H   0  0  0  0  0  0  0  0  0  0  0  0
  1  2  2  0
  2  3  1  0
  3  4  1  0
  4  5  1  0
  5  6  1  0
  6  7  1  0
  7  8  1  0
  8  9  1  0
  5  2  1  0
  9  7  1  0
  3 10  1  0
  3 11  1  0
  5 12  1  0
  6 13  1  0
  6 14  1  0
  7 15  1  0
  8 16  1  0
  8 17  1  0
M  END
