
     RDKit          3D

 17 18  0  0  0  0  0  0  0  0999 V2000
    0.6741   -0.4446    2.2391 O   0  0  0  0  0  0  0  0  0  0  0  0
    0.6025   -0.0662    1.0806 C   0  0  0  0  0  0  0  0  0  0  0  0
    1.5168    0.6159    0.1043 C   0  0  0  0  0  0  0  0  0  0  0  0
    2.8088    0.1619    0.0868 O   0  0  0  0  0  0  0  0  0  0  0  0
    0.6151    0.0554   -1.0025 C   0  0  0  0  0  0  0  0  0  0  0  0
   -0.4103   -0.0820    0.0468 C   0  0  0  0  0  0  0  0  0  0  0  0
   -1.4074   -1.1496   -0.0206 C   0  0  0  0  0  0  0  0  0  0  0  0
   -2.3990   -0.1630   -0.2483 O   0  0  0  0  0  0  0  0  0  0  0  0
   -1.5324    0.8751    0.1038 C   0  0  0  0  0  0  0  0  0  0  0  0
    1.4580    1.7117    0.0996 H   0  0  0  0  0  0  0  0  0  0  0  0
    2.9150   -0.7992    0.1406 H   0  0  0  0  0  0  0  0  0  0  0  0
    0.4012    0.7485   -1.8124 H   0  0  0  0  0  0  0  0  0  0  0  0
    0.9917   -0.9072   -1.4117 H   0  0  0  0  0  0  0  0  0  0  0  0
   -1.2925   -1.7915   -0.9128 H   0  0  0  0  0  0  0  0  0  0  0  0
   -1.6442   -1.6971    0.9073 H   0  0  0  0  0  0  0  0  0  0  0  0
   -1.5244    1.7449   -0.5550 H   0  0  0  0  0  0  0  0  0  0  0  0
   -1.7730    1.1871    1.1545 H   0  0  0  0  0  0  0  0  0  0  0  0
  1  2  2  0
  2  3  1  0
  3  4  1  0
  3  5  1  0
  5  6  1  0
  6  7  1  0
  7  8  1  0
  8  9  1  0
  6  2  1  0
  9  6  1  0
  3 10  1  0
  4 11  1  0
  5 12  1  0
  5 13  1  0
  7 14  1  0
  7 15  1  0
  9 16  1  0
  9 17  1  0
M  END
