
     RDKit          3D

 14 14  0  0  0  0  0  0  0  0999 V2000
    1.8590   -2.2799   -0.4890 O   0  0  0  0  0  0  0  0  0  0  0  0
    1.0649   -1.3333   -0.2710 C   0  0  0  0  0  0  0  0  0  0  0  0
    1.6708   -0.0564    0.1346 C   0  0  0  0  0  0  0  0  0  0  0  0
    1.0446    1.1081    0.1594 C   0  0  0  0  0  0  0  0  0  0  0  0
   -0.3646    1.3827   -0.2042 C   0  0  0  0  0  0  0  0  0  0  0  0
   -1.3950    0.5545   -0.1990 C   0  0  0  0  0  0  0  0  0  0  0  0
   -1.3778   -0.8772    0.1825 C   0  0  0  0  0  0  0  0  0  0  0  0
   -0.3074   -1.5648   -0.4287 O   0  0  0  0  0  0  0  0  0  0  0  0
    2.6971   -0.0290    0.4392 H   0  0  0  0  0  0  0  0  0  0  0  0
    1.5788    1.9915    0.4728 H   0  0  0  0  0  0  0  0  0  0  0  0
   -0.5868    2.4082   -0.5187 H   0  0  0  0  0  0  0  0  0  0  0  0
   -2.3675    0.9764   -0.5117 H   0  0  0  0  0  0  0  0  0  0  0  0
   -1.1794   -0.9037    1.2930 H   0  0  0  0  0  0  0  0  0  0  0  0
   -2.3368   -1.3773   -0.0592 H   0  0  0  0  0  0  0  0  0  0  0  0
  1  2  2  0
  2  3  1  0
  3  4  2  0
  4  5  1  0
  5  6  2  0
  6  7  1  0
  7  8  1  0
  8  2  1  0
  3  9  1  0
  4 10  1  0
  5 11  1  0
  6 12  1  0
  7 13  1  0
  7 14  1  0
M  END
