
     RDKit          3D

 21 22  0  0  0  0  0  0  0  0999 V2000
    3.1796    0.3831    1.3484 O   0  0  0  0  0  0  0  0  0  0  0  0
    2.2086    0.4688    0.6143 C   0  0  0  0  0  0  0  0  0  0  0  0
    0.8846    1.1707    0.5908 C   0  0  0  0  0  0  0  0  0  0  0  0
    0.3957    0.0037   -0.2412 C   0  0  0  0  0  0  0  0  0  0  0  0
   -0.6607    0.2773   -1.2306 C   0  0  0  0  0  0  0  0  0  0  0  0
   -1.9300    0.1745   -0.3984 C   0  0  0  0  0  0  0  0  0  0  0  0
   -1.5870   -0.7482    0.7538 C   0  0  0  0  0  0  0  0  0  0  0  0
   -0.1316   -1.0915    0.6193 C   0  0  0  0  0  0  0  0  0  0  0  0
    1.8070   -0.1101   -0.7162 C   0  0  0  0  0  0  0  0  0  0  0  0
    0.9267    2.1446    0.0378 H   0  0  0  0  0  0  0  0  0  0  0  0
    0.3619    1.2359    1.5423 H   0  0  0  0  0  0  0  0  0  0  0  0
   -0.5881    1.2069   -1.7894 H   0  0  0  0  0  0  0  0  0  0  0  0
   -0.6825   -0.5543   -1.9732 H   0  0  0  0  0  0  0  0  0  0  0  0
   -2.1348    1.2047   -0.0304 H   0  0  0  0  0  0  0  0  0  0  0  0
   -2.7700   -0.2356   -0.9575 H   0  0  0  0  0  0  0  0  0  0  0  0
   -1.7170   -0.1966    1.7037 H   0  0  0  0  0  0  0  0  0  0  0  0
   -2.1645   -1.6741    0.7618 H   0  0  0  0  0  0  0  0  0  0  0  0
    0.0598   -2.0935    0.2158 H   0  0  0  0  0  0  0  0  0  0  0  0
    0.4111   -1.0551    1.6090 H   0  0  0  0  0  0  0  0  0  0  0  0
    1.9759    0.6159   -1.5635 H   0  0  0  0  0  0  0  0  0  0  0  0
    2.1551   -1.1269   -0.8965 H   0  0  0  0  0  0  0  0  0  0  0  0
  1  2  2  0
  2  3  1  0
  3  4  1  0
  4  5  1  0
  5  6  1  0
  6  7  1  0
  7  8  1  0
  4  9  1  0
  9  2  1  0
  8  4  1  0
  3 10  1  0
  3 11  1  0
  5 12  1  0
  5 13  1  0
  6 14  1  0
  6 15  1  0
  7 16  1  0
  7 17  1  0
  8 18  1  0
  8 19  1  0
  9 20  1  0
  9 21  1  0
M  END
