
     RDKit          3D

 17 18  0  0  0  0  0  0  0  0999 V2000
    2.5824    0.9671   -0.2896 O   0  0  0  0  0  0  0  0  0  0  0  0
    1.5157    0.4112   -0.1807 C   0  0  0  0  0  0  0  0  0  0  0  0
    1.3233   -0.8554    0.6066 C   0  0  0  0  0  0  0  0  0  0  0  0
    0.1829   -0.8056    1.3636 O   0  0  0  0  0  0  0  0  0  0  0  0
   -0.9259   -0.3072    0.7057 C   0  0  0  0  0  0  0  0  0  0  0  0
   -1.0736   -0.8615   -0.6924 C   0  0  0  0  0  0  0  0  0  0  0  0
   -0.3477   -0.0643   -1.5418 O   0  0  0  0  0  0  0  0  0  0  0  0
    0.2560    0.9340   -0.8283 C   0  0  0  0  0  0  0  0  0  0  0  0
   -0.7100    1.1714    0.3436 C   0  0  0  0  0  0  0  0  0  0  0  0
    1.3212   -1.6882   -0.1510 H   0  0  0  0  0  0  0  0  0  0  0  0
    2.2043   -0.9724    1.2516 H   0  0  0  0  0  0  0  0  0  0  0  0
   -1.7990   -0.4549    1.3369 H   0  0  0  0  0  0  0  0  0  0  0  0
   -2.1602   -0.7093   -0.9641 H   0  0  0  0  0  0  0  0  0  0  0  0
   -0.8650   -1.9330   -0.7590 H   0  0  0  0  0  0  0  0  0  0  0  0
    0.4091    1.8714   -1.3501 H   0  0  0  0  0  0  0  0  0  0  0  0
   -1.6696    1.5743   -0.0088 H   0  0  0  0  0  0  0  0  0  0  0  0
   -0.2436    1.7224    1.1576 H   0  0  0  0  0  0  0  0  0  0  0  0
  1  2  2  0
  2  3  1  0
  3  4  1  0
  4  5  1  0
  5  6  1  0
  6  7  1  0
  7  8  1  0
  8  9  1  0
  8  2  1  0
  9  5  1  0
  3 10  1  0
  3 11  1  0
  5 12  1  0
  6 13  1  0
  6 14  1  0
  8 15  1  0
  9 16  1  0
  9 17  1  0
M  END
