
     RDKit          3D

 16 17  0  0  0  0  0  0  0  0999 V2000
    1.0517    1.0455    2.0540 O   0  0  0  0  0  0  0  0  0  0  0  0
    0.9413    0.6586    0.9360 C   0  0  0  0  0  0  0  0  0  0  0  0
    1.9850   -0.0357    0.1323 C   0  0  0  0  0  0  0  0  0  0  0  0
    1.1129   -1.1006   -0.5021 C   0  0  0  0  0  0  0  0  0  0  0  0
   -0.1411   -0.7012   -0.5278 C   0  0  0  0  0  0  0  0  0  0  0  0
   -1.6181   -0.5286   -0.6935 C   0  0  0  0  0  0  0  0  0  0  0  0
   -1.5836    0.4581    0.4924 C   0  0  0  0  0  0  0  0  0  0  0  0
   -0.1987    0.7335    0.0277 C   0  0  0  0  0  0  0  0  0  0  0  0
    2.3016    0.6100   -0.7070 H   0  0  0  0  0  0  0  0  0  0  0  0
    2.7888   -0.4654    0.7189 H   0  0  0  0  0  0  0  0  0  0  0  0
    1.5280   -2.0317   -0.8605 H   0  0  0  0  0  0  0  0  0  0  0  0
   -1.8681    0.0041   -1.6341 H   0  0  0  0  0  0  0  0  0  0  0  0
   -2.2315   -1.3975   -0.4479 H   0  0  0  0  0  0  0  0  0  0  0  0
   -1.6718   -0.0339    1.4794 H   0  0  0  0  0  0  0  0  0  0  0  0
   -2.2774    1.3043    0.3199 H   0  0  0  0  0  0  0  0  0  0  0  0
   -0.1190    1.4805   -0.7878 H   0  0  0  0  0  0  0  0  0  0  0  0
  1  2  2  0
  2  3  1  0
  3  4  1  0
  4  5  2  0
  5  6  1  0
  6  7  1  0
  7  8  1  0
  8  2  1  0
  8  5  1  0
  3  9  1  0
  3 10  1  0
  4 11  1  0
  6 12  1  0
  6 13  1  0
  7 14  1  0
  7 15  1  0
  8 16  1  0
M  END
