
     RDKit          3D

 19 19  0  0  0  0  0  0  0  0999 V2000
   -1.1707    2.8944   -0.1234 O   0  0  0  0  0  0  0  0  0  0  0  0
   -0.7373    1.7203    0.1003 C   0  0  0  0  0  0  0  0  0  0  0  0
    0.7077    1.6186    0.1857 C   0  0  0  0  0  0  0  0  0  0  0  0
    1.5758    0.6418   -0.0532 C   0  0  0  0  0  0  0  0  0  0  0  0
    1.5066   -0.7470   -0.4990 C   0  0  0  0  0  0  0  0  0  0  0  0
    0.6605   -1.6567    0.3047 C   0  0  0  0  0  0  0  0  0  0  0  0
   -0.4140   -1.0382    0.9316 O   0  0  0  0  0  0  0  0  0  0  0  0
   -1.3196   -0.6838   -0.0864 C   0  0  0  0  0  0  0  0  0  0  0  0
   -1.8260    0.6988    0.2262 C   0  0  0  0  0  0  0  0  0  0  0  0
    1.1381    2.5516    0.5163 H   0  0  0  0  0  0  0  0  0  0  0  0
    2.5866    1.0117    0.1463 H   0  0  0  0  0  0  0  0  0  0  0  0
    1.1730   -0.8335   -1.5748 H   0  0  0  0  0  0  0  0  0  0  0  0
    2.5542   -1.1612   -0.5117 H   0  0  0  0  0  0  0  0  0  0  0  0
    1.2118   -2.2195    1.0898 H   0  0  0  0  0  0  0  0  0  0  0  0
    0.2067   -2.4614   -0.3463 H   0  0  0  0  0  0  0  0  0  0  0  0
   -2.1764   -1.3708   -0.0872 H   0  0  0  0  0  0  0  0  0  0  0  0
   -0.7984   -0.6381   -1.0841 H   0  0  0  0  0  0  0  0  0  0  0  0
   -2.1945    0.6799    1.2755 H   0  0  0  0  0  0  0  0  0  0  0  0
   -2.6842    0.9931   -0.4103 H   0  0  0  0  0  0  0  0  0  0  0  0
  1  2  2  0
  2  3  1  0
  3  4  2  3
  4  5  1  0
  5  6  1  0
  6  7  1  0
  7  8  1  0
  8  9  1  0
  9  2  1  0
  3 10  1  0
  4 11  1  0
  5 12  1  0
  5 13  1  0
  6 14  1  0
  6 15  1  0
  8 16  1  0
  8 17  1  0
  9 18  1  0
  9 19  1  0
M  END
