
     RDKit          3D

 17 19  0  0  0  0  0  0  0  0999 V2000
   -1.3544    2.1594    0.5845 O   0  0  0  0  0  0  0  0  0  0  0  0
   -1.0795    1.0430    0.1986 C   0  0  0  0  0  0  0  0  0  0  0  0
   -1.3130   -0.2683    0.8995 C   0  0  0  0  0  0  0  0  0  0  0  0
   -0.4982   -1.1893    0.0213 C   0  0  0  0  0  0  0  0  0  0  0  0
   -0.8707   -0.6971   -1.2550 O   0  0  0  0  0  0  0  0  0  0  0  0
   -0.4285    0.6374   -1.0850 C   0  0  0  0  0  0  0  0  0  0  0  0
    1.0286    0.4098   -0.8425 C   0  0  0  0  0  0  0  0  0  0  0  0
    1.5052    0.3974    0.5393 C   0  0  0  0  0  0  0  0  0  0  0  0
    0.9645   -0.8806    0.0369 C   0  0  0  0  0  0  0  0  0  0  0  0
   -2.3751   -0.5150    0.7247 H   0  0  0  0  0  0  0  0  0  0  0  0
   -1.0033   -0.2454    1.9376 H   0  0  0  0  0  0  0  0  0  0  0  0
   -0.7595   -2.2384    0.1037 H   0  0  0  0  0  0  0  0  0  0  0  0
   -0.6750    1.2746   -1.9232 H   0  0  0  0  0  0  0  0  0  0  0  0
    1.6871    0.3017   -1.7265 H   0  0  0  0  0  0  0  0  0  0  0  0
    2.5775    0.4542    0.7263 H   0  0  0  0  0  0  0  0  0  0  0  0
    0.9116    1.0293    1.2602 H   0  0  0  0  0  0  0  0  0  0  0  0
    1.6825   -1.6726   -0.2004 H   0  0  0  0  0  0  0  0  0  0  0  0
  1  2  2  0
  2  3  1  0
  3  4  1  0
  4  5  1  0
  5  6  1  0
  6  7  1  0
  7  8  1  0
  8  9  1  0
  6  2  1  0
  9  7  1  0
  9  4  1  0
  3 10  1  0
  3 11  1  0
  4 12  1  0
  6 13  1  0
  7 14  1  0
  8 15  1  0
  8 16  1  0
  9 17  1  0
M  END
