
     RDKit          3D

 17 18  0  0  0  0  0  0  0  0999 V2000
   -2.5384    1.0788    0.5857 O   0  0  0  0  0  0  0  0  0  0  0  0
   -1.4666    0.6534    0.0344 C   0  0  0  0  0  0  0  0  0  0  0  0
   -0.4158    1.6613   -0.1604 C   0  0  0  0  0  0  0  0  0  0  0  0
    0.8802    1.4071   -0.2582 C   0  0  0  0  0  0  0  0  0  0  0  0
    1.5849    0.0779   -0.1981 C   0  0  0  0  0  0  0  0  0  0  0  0
    0.7326   -0.7748    0.7528 C   0  0  0  0  0  0  0  0  0  0  0  0
   -0.3524   -1.5089    0.0151 C   0  0  0  0  0  0  0  0  0  0  0  0
   -0.5517   -1.1350   -1.3687 O   0  0  0  0  0  0  0  0  0  0  0  0
   -1.4776   -0.7873   -0.3107 C   0  0  0  0  0  0  0  0  0  0  0  0
   -0.7523    2.6891   -0.2263 H   0  0  0  0  0  0  0  0  0  0  0  0
    1.4894    2.2895   -0.3994 H   0  0  0  0  0  0  0  0  0  0  0  0
    1.5504   -0.4102   -1.1723 H   0  0  0  0  0  0  0  0  0  0  0  0
    2.5699    0.1582    0.2656 H   0  0  0  0  0  0  0  0  0  0  0  0
    1.3877   -1.4562    1.3296 H   0  0  0  0  0  0  0  0  0  0  0  0
    0.2152   -0.1058    1.4934 H   0  0  0  0  0  0  0  0  0  0  0  0
   -0.3658   -2.6289    0.1184 H   0  0  0  0  0  0  0  0  0  0  0  0
   -2.4897   -1.2080   -0.5009 H   0  0  0  0  0  0  0  0  0  0  0  0
  1  2  2  0
  2  3  1  0
  3  4  2  0
  4  5  1  0
  5  6  1  0
  6  7  1  0
  7  8  1  0
  8  9  1  0
  9  2  1  0
  9  7  1  0
  3 10  1  0
  4 11  1  0
  5 12  1  0
  5 13  1  0
  6 14  1  0
  6 15  1  0
  7 16  1  0
  9 17  1  0
M  END
