
     RDKit          3D

 19 20  0  0  0  0  0  0  0  0999 V2000
   -0.7682   -1.8600   -1.4266 O   0  0  0  0  0  0  0  0  0  0  0  0
   -0.9307   -0.8879   -0.7319 C   0  0  0  0  0  0  0  0  0  0  0  0
   -2.0716   -0.0146   -0.3638 C   0  0  0  0  0  0  0  0  0  0  0  0
   -1.3310    0.2408    0.9599 C   0  0  0  0  0  0  0  0  0  0  0  0
   -0.1127   -0.0138    0.1406 C   0  0  0  0  0  0  0  0  0  0  0  0
    1.0658   -0.6418    0.7985 C   0  0  0  0  0  0  0  0  0  0  0  0
    2.1272   -0.3361   -0.2686 C   0  0  0  0  0  0  0  0  0  0  0  0
    1.8714    0.9648   -0.6013 O   0  0  0  0  0  0  0  0  0  0  0  0
    0.5041    1.1814   -0.5311 C   0  0  0  0  0  0  0  0  0  0  0  0
   -2.0575    0.9597   -0.9346 H   0  0  0  0  0  0  0  0  0  0  0  0
   -3.0443   -0.4807   -0.2656 H   0  0  0  0  0  0  0  0  0  0  0  0
   -1.5617   -0.5960    1.6414 H   0  0  0  0  0  0  0  0  0  0  0  0
   -1.5040    1.2550    1.3255 H   0  0  0  0  0  0  0  0  0  0  0  0
    0.9854   -1.7038    1.0094 H   0  0  0  0  0  0  0  0  0  0  0  0
    1.3388   -0.0194    1.6816 H   0  0  0  0  0  0  0  0  0  0  0  0
    1.9619   -1.0116   -1.1563 H   0  0  0  0  0  0  0  0  0  0  0  0
    3.1401   -0.4845    0.1177 H   0  0  0  0  0  0  0  0  0  0  0  0
    0.0511    1.3663   -1.5161 H   0  0  0  0  0  0  0  0  0  0  0  0
    0.3360    2.0824    0.1214 H   0  0  0  0  0  0  0  0  0  0  0  0
  1  2  2  0
  2  3  1  0
  3  4  1  0
  4  5  1  0
  5  6  1  0
  6  7  1  0
  7  8  1  0
  8  9  1  0
  5  2  1  0
  9  5  1  0
  3 10  1  0
  3 11  1  0
  4 12  1  0
  4 13  1  0
  6 14  1  0
  6 15  1  0
  7 16  1  0
  7 17  1  0
  9 18  1  0
  9 19  1  0
M  END
