
     RDKit          3D

 15 16  0  0  0  0  0  0  0  0999 V2000
   -0.0426   -2.3967    1.6146 O   0  0  0  0  0  0  0  0  0  0  0  0
    0.2496   -1.4106    0.8741 C   0  0  0  0  0  0  0  0  0  0  0  0
    1.5487   -1.1298    0.5001 O   0  0  0  0  0  0  0  0  0  0  0  0
    1.6315    0.1620   -0.0373 C   0  0  0  0  0  0  0  0  0  0  0  0
    0.2184    0.6876   -0.1583 C   0  0  0  0  0  0  0  0  0  0  0  0
   -0.0675    1.9043    0.3948 O   0  0  0  0  0  0  0  0  0  0  0  0
   -0.6522   -0.0163   -1.1065 C   0  0  0  0  0  0  0  0  0  0  0  0
   -0.6937   -0.4387    0.3095 C   0  0  0  0  0  0  0  0  0  0  0  0
   -1.8287   -0.0975    1.0562 O   0  0  0  0  0  0  0  0  0  0  0  0
    2.0198    0.0423   -1.0894 H   0  0  0  0  0  0  0  0  0  0  0  0
    2.2333    0.8563    0.5568 H   0  0  0  0  0  0  0  0  0  0  0  0
   -0.2079    2.6408   -0.2213 H   0  0  0  0  0  0  0  0  0  0  0  0
   -1.5911    0.4412   -1.5022 H   0  0  0  0  0  0  0  0  0  0  0  0
   -0.1866   -0.6934   -1.8656 H   0  0  0  0  0  0  0  0  0  0  0  0
   -2.6313   -0.5515    0.6745 H   0  0  0  0  0  0  0  0  0  0  0  0
  1  2  2  0
  2  3  1  0
  3  4  1  0
  4  5  1  0
  5  6  1  0
  5  7  1  0
  7  8  1  0
  8  9  1  0
  8  2  1  0
  8  5  1  0
  4 10  1  0
  4 11  1  0
  6 12  1  0
  7 13  1  0
  7 14  1  0
  9 15  1  0
M  END
