
     RDKit          3D

 17 18  0  0  0  0  0  0  0  0999 V2000
   -1.1144    2.2196    1.5805 O   0  0  0  0  0  0  0  0  0  0  0  0
   -0.8786    1.1889    0.9242 C   0  0  0  0  0  0  0  0  0  0  0  0
   -1.7855    0.1696    0.6991 O   0  0  0  0  0  0  0  0  0  0  0  0
   -1.4250   -0.9936   -0.0689 C   0  0  0  0  0  0  0  0  0  0  0  0
    0.0040   -0.8521   -0.5018 C   0  0  0  0  0  0  0  0  0  0  0  0
    0.2123    0.5334   -1.0964 C   0  0  0  0  0  0  0  0  0  0  0  0
    0.4636    1.0117    0.3274 C   0  0  0  0  0  0  0  0  0  0  0  0
    0.8834   -0.4048    0.6432 C   0  0  0  0  0  0  0  0  0  0  0  0
    2.2192   -0.6737    0.5272 O   0  0  0  0  0  0  0  0  0  0  0  0
   -2.0818   -0.9271   -0.9850 H   0  0  0  0  0  0  0  0  0  0  0  0
   -1.5997   -1.9188    0.5023 H   0  0  0  0  0  0  0  0  0  0  0  0
    0.3905   -1.6742   -1.1083 H   0  0  0  0  0  0  0  0  0  0  0  0
    1.0971    0.6107   -1.7477 H   0  0  0  0  0  0  0  0  0  0  0  0
   -0.7237    0.9758   -1.5160 H   0  0  0  0  0  0  0  0  0  0  0  0
    1.1891    1.7949    0.4589 H   0  0  0  0  0  0  0  0  0  0  0  0
    0.4976   -0.7508    1.6239 H   0  0  0  0  0  0  0  0  0  0  0  0
    2.6520   -0.3094   -0.2626 H   0  0  0  0  0  0  0  0  0  0  0  0
  1  2  2  0
  2  3  1  0
  3  4  1  0
  4  5  1  0
  5  6  1  0
  6  7  1  0
  7  8  1  0
  8  9  1  0
  7  2  1  0
  8  5  1  0
  4 10  1  0
  4 11  1  0
  5 12  1  0
  6 13  1  0
  6 14  1  0
  7 15  1  0
  8 16  1  0
  9 17  1  0
M  END
