
     RDKit          3D

 19 20  0  0  0  0  0  0  0  0999 V2000
    2.7667   -0.5582    1.3187 O   0  0  0  0  0  0  0  0  0  0  0  0
    1.9569   -0.1028    0.4860 C   0  0  0  0  0  0  0  0  0  0  0  0
    0.8549   -0.8484   -0.1789 C   0  0  0  0  0  0  0  0  0  0  0  0
   -0.4850   -0.3430   -0.0000 C   0  0  0  0  0  0  0  0  0  0  0  0
   -0.2840    1.0662    0.1838 C   0  0  0  0  0  0  0  0  0  0  0  0
    0.8922    1.6864   -0.5878 C   0  0  0  0  0  0  0  0  0  0  0  0
    2.0636    1.2276    0.1189 O   0  0  0  0  0  0  0  0  0  0  0  0
   -1.3094   -1.4578   -0.3085 C   0  0  0  0  0  0  0  0  0  0  0  0
   -1.8133   -0.5304    0.5341 C   0  0  0  0  0  0  0  0  0  0  0  0
    1.1182   -1.9210    0.0490 H   0  0  0  0  0  0  0  0  0  0  0  0
    1.0998   -0.7918   -1.2861 H   0  0  0  0  0  0  0  0  0  0  0  0
   -0.0477    1.2933    1.2658 H   0  0  0  0  0  0  0  0  0  0  0  0
   -1.1127    1.7964   -0.0690 H   0  0  0  0  0  0  0  0  0  0  0  0
    0.8694    2.7765   -0.3869 H   0  0  0  0  0  0  0  0  0  0  0  0
    0.9014    1.4050   -1.6348 H   0  0  0  0  0  0  0  0  0  0  0  0
   -1.6818   -1.5368   -1.3801 H   0  0  0  0  0  0  0  0  0  0  0  0
   -1.1406   -2.4984    0.0711 H   0  0  0  0  0  0  0  0  0  0  0  0
   -2.0043   -0.7855    1.6244 H   0  0  0  0  0  0  0  0  0  0  0  0
   -2.6444    0.1227    0.1804 H   0  0  0  0  0  0  0  0  0  0  0  0
  1  2  2  0
  2  3  1  0
  3  4  1  0
  4  5  1  0
  5  6  1  0
  6  7  1  0
  4  8  1  0
  8  9  1  0
  7  2  1  0
  9  4  1  0
  3 10  1  0
  3 11  1  0
  5 12  1  0
  5 13  1  0
  6 14  1  0
  6 15  1  0
  8 16  1  0
  8 17  1  0
  9 18  1  0
  9 19  1  0
M  END
