
     RDKit          3D

 17 18  0  0  0  0  0  0  0  0999 V2000
    2.5514   -1.9036    0.6753 O   0  0  0  0  0  0  0  0  0  0  0  0
    1.6483   -1.1607    0.2158 C   0  0  0  0  0  0  0  0  0  0  0  0
    1.5016    0.2688    0.5873 C   0  0  0  0  0  0  0  0  0  0  0  0
    0.4764    0.7536   -0.4014 C   0  0  0  0  0  0  0  0  0  0  0  0
   -0.8710    1.0824    0.1752 C   0  0  0  0  0  0  0  0  0  0  0  0
   -1.3790   -0.2678   -0.2548 C   0  0  0  0  0  0  0  0  0  0  0  0
   -1.5858   -1.1008    0.8220 O   0  0  0  0  0  0  0  0  0  0  0  0
   -0.1334   -0.4615   -1.0449 C   0  0  0  0  0  0  0  0  0  0  0  0
    0.6869   -1.5533   -0.6768 O   0  0  0  0  0  0  0  0  0  0  0  0
    1.2042    0.3923    1.6367 H   0  0  0  0  0  0  0  0  0  0  0  0
    2.4570    0.7915    0.3710 H   0  0  0  0  0  0  0  0  0  0  0  0
    0.8126    1.5464   -1.0942 H   0  0  0  0  0  0  0  0  0  0  0  0
   -0.8731    1.2661    1.2587 H   0  0  0  0  0  0  0  0  0  0  0  0
   -1.4289    1.8771   -0.3962 H   0  0  0  0  0  0  0  0  0  0  0  0
   -2.3130   -0.2426   -0.8825 H   0  0  0  0  0  0  0  0  0  0  0  0
   -2.5184   -0.9090    1.1521 H   0  0  0  0  0  0  0  0  0  0  0  0
   -0.2356   -0.3788   -2.1433 H   0  0  0  0  0  0  0  0  0  0  0  0
  1  2  2  0
  2  3  1  0
  3  4  1  0
  4  5  1  0
  5  6  1  0
  6  7  1  0
  6  8  1  0
  8  9  1  0
  9  2  1  0
  8  4  1  0
  3 10  1  0
  3 11  1  0
  4 12  1  0
  5 13  1  0
  5 14  1  0
  6 15  1  0
  7 16  1  0
  8 17  1  0
M  END
