
     RDKit          3D

 17 18  0  0  0  0  0  0  0  0999 V2000
    1.4339   -2.2606   -0.6787 O   0  0  0  0  0  0  0  0  0  0  0  0
    1.2241   -1.0970   -0.4822 C   0  0  0  0  0  0  0  0  0  0  0  0
    2.1535   -0.0631    0.1094 C   0  0  0  0  0  0  0  0  0  0  0  0
    1.1828    0.8485    0.8016 C   0  0  0  0  0  0  0  0  0  0  0  0
   -0.0368    0.7173    0.3436 C   0  0  0  0  0  0  0  0  0  0  0  0
   -1.4868    1.0949    0.3567 C   0  0  0  0  0  0  0  0  0  0  0  0
   -2.1282   -0.2219    0.1488 C   0  0  0  0  0  0  0  0  0  0  0  0
   -1.2643   -1.0061   -0.4849 C   0  0  0  0  0  0  0  0  0  0  0  0
   -0.0016   -0.3217   -0.7571 C   0  0  0  0  0  0  0  0  0  0  0  0
    2.7234   -0.6020    0.8918 H   0  0  0  0  0  0  0  0  0  0  0  0
    2.7668    0.4336   -0.6366 H   0  0  0  0  0  0  0  0  0  0  0  0
    1.4224    1.5638    1.6088 H   0  0  0  0  0  0  0  0  0  0  0  0
   -1.6481    1.7642   -0.5023 H   0  0  0  0  0  0  0  0  0  0  0  0
   -1.7721    1.5659    1.3165 H   0  0  0  0  0  0  0  0  0  0  0  0
   -3.1474   -0.5040    0.4651 H   0  0  0  0  0  0  0  0  0  0  0  0
   -1.5073   -2.0453   -0.7568 H   0  0  0  0  0  0  0  0  0  0  0  0
    0.0857    0.1333   -1.7437 H   0  0  0  0  0  0  0  0  0  0  0  0
  1  2  2  0
  2  3  1  0
  3  4  1  0
  4  5  2  0
  5  6  1  0
  6  7  1  0
  7  8  2  0
  8  9  1  0
  9  2  1  0
  9  5  1  0
  3 10  1  0
  3 11  1  0
  4 12  1  0
  6 13  1  0
  6 14  1  0
  7 15  1  0
  8 16  1  0
  9 17  1  0
M  END
