
     RDKit          3D

 14 14  0  0  0  0  0  0  0  0999 V2000
    0.9893    2.1472    0.3604 O   0  0  0  0  0  0  0  0  0  0  0  0
    0.5457    1.0160    0.3235 C   0  0  0  0  0  0  0  0  0  0  0  0
   -0.7982    0.3964    0.5974 C   0  0  0  0  0  0  0  0  0  0  0  0
   -1.8791    1.1633    0.2548 O   0  0  0  0  0  0  0  0  0  0  0  0
   -0.3995   -0.6652   -0.4366 C   0  0  0  0  0  0  0  0  0  0  0  0
   -0.8511   -1.9113   -0.0358 O   0  0  0  0  0  0  0  0  0  0  0  0
    1.0177   -0.3653    0.0077 C   0  0  0  0  0  0  0  0  0  0  0  0
    1.9601   -0.3486   -0.9992 O   0  0  0  0  0  0  0  0  0  0  0  0
   -0.7766   -0.0578    1.5936 H   0  0  0  0  0  0  0  0  0  0  0  0
   -1.5455    2.0780    0.0119 H   0  0  0  0  0  0  0  0  0  0  0  0
   -0.6375   -0.3858   -1.4810 H   0  0  0  0  0  0  0  0  0  0  0  0
   -1.7006   -2.1240   -0.4652 H   0  0  0  0  0  0  0  0  0  0  0  0
    1.2815   -0.9783    0.8717 H   0  0  0  0  0  0  0  0  0  0  0  0
    2.7938    0.0355   -0.6033 H   0  0  0  0  0  0  0  0  0  0  0  0
  1  2  2  0
  2  3  1  0
  3  4  1  0
  3  5  1  0
  5  6  1  0
  5  7  1  0
  7  8  1  0
  7  2  1  0
  3  9  1  0
  4 10  1  0
  5 11  1  0
  6 12  1  0
  7 13  1  0
  8 14  1  0
M  END
