
     RDKit          3D

 17 18  0  0  0  0  0  0  0  0999 V2000
    0.0567    2.6041    1.4618 O   0  0  0  0  0  0  0  0  0  0  0  0
    0.3072    1.5393    0.8579 C   0  0  0  0  0  0  0  0  0  0  0  0
    1.4788    0.8363    1.1332 O   0  0  0  0  0  0  0  0  0  0  0  0
    1.9148   -0.2939    0.4245 C   0  0  0  0  0  0  0  0  0  0  0  0
    0.7815   -1.0434   -0.2921 C   0  0  0  0  0  0  0  0  0  0  0  0
   -0.4597   -0.5777    0.3324 C   0  0  0  0  0  0  0  0  0  0  0  0
   -1.6316    0.0577   -0.1349 C   0  0  0  0  0  0  0  0  0  0  0  0
   -2.7068    0.2410    0.7650 O   0  0  0  0  0  0  0  0  0  0  0  0
   -0.5197    0.9209   -0.1441 C   0  0  0  0  0  0  0  0  0  0  0  0
    2.7088   -0.0975   -0.3104 H   0  0  0  0  0  0  0  0  0  0  0  0
    2.2801   -1.0146    1.2038 H   0  0  0  0  0  0  0  0  0  0  0  0
    0.8332   -0.7574   -1.3505 H   0  0  0  0  0  0  0  0  0  0  0  0
    0.9264   -2.1351   -0.2073 H   0  0  0  0  0  0  0  0  0  0  0  0
   -0.4109   -0.7432    1.4520 H   0  0  0  0  0  0  0  0  0  0  0  0
   -2.0534   -0.2887   -1.1221 H   0  0  0  0  0  0  0  0  0  0  0  0
   -3.4399   -0.3805    0.5992 H   0  0  0  0  0  0  0  0  0  0  0  0
   -0.0655    1.1325   -1.1631 H   0  0  0  0  0  0  0  0  0  0  0  0
  1  2  2  0
  2  3  1  0
  3  4  1  0
  4  5  1  0
  5  6  1  0
  6  7  1  0
  7  8  1  0
  7  9  1  0
  9  2  1  0
  9  6  1  0
  4 10  1  0
  4 11  1  0
  5 12  1  0
  5 13  1  0
  6 14  1  0
  7 15  1  0
  8 16  1  0
  9 17  1  0
M  END
