
     RDKit          3D

 17 18  0  0  0  0  0  0  0  0999 V2000
    0.1117    2.0614   -0.1771 O   0  0  0  0  0  0  0  0  0  0  0  0
    0.6505    1.0038   -0.0257 C   0  0  0  0  0  0  0  0  0  0  0  0
    2.1005    0.6668   -0.2019 C   0  0  0  0  0  0  0  0  0  0  0  0
    2.1753   -0.6459   -0.5795 O   0  0  0  0  0  0  0  0  0  0  0  0
    0.9476   -1.2325   -0.4764 C   0  0  0  0  0  0  0  0  0  0  0  0
    0.0749   -0.3290    0.3854 C   0  0  0  0  0  0  0  0  0  0  0  0
   -1.3535   -0.4791   -0.0025 C   0  0  0  0  0  0  0  0  0  0  0  0
   -2.3942    0.4504    0.5017 C   0  0  0  0  0  0  0  0  0  0  0  0
   -1.9754    0.3927   -0.8634 O   0  0  0  0  0  0  0  0  0  0  0  0
    2.6259    1.3773   -0.8519 H   0  0  0  0  0  0  0  0  0  0  0  0
    2.5424    0.7375    0.8330 H   0  0  0  0  0  0  0  0  0  0  0  0
    0.9264   -2.2235   -0.0151 H   0  0  0  0  0  0  0  0  0  0  0  0
    0.4823   -1.2355   -1.4932 H   0  0  0  0  0  0  0  0  0  0  0  0
    0.2862   -0.4709    1.4553 H   0  0  0  0  0  0  0  0  0  0  0  0
   -1.6919   -1.5460   -0.0826 H   0  0  0  0  0  0  0  0  0  0  0  0
   -3.4265    0.0995    0.6547 H   0  0  0  0  0  0  0  0  0  0  0  0
   -2.0823    1.3730    1.0589 H   0  0  0  0  0  0  0  0  0  0  0  0
  1  2  2  0
  2  3  1  0
  3  4  1  0
  4  5  1  0
  5  6  1  0
  6  7  1  0
  7  8  1  0
  8  9  1  0
  6  2  1  0
  9  7  1  0
  3 10  1  0
  3 11  1  0
  5 12  1  0
  5 13  1  0
  6 14  1  0
  7 15  1  0
  8 16  1  0
  8 17  1  0
M  END
