
     RDKit          3D

 15 17  0  0  0  0  0  0  0  0999 V2000
    0.7941    1.9689   -1.4355 O   0  0  0  0  0  0  0  0  0  0  0  0
    0.3194    0.9860   -0.9791 C   0  0  0  0  0  0  0  0  0  0  0  0
    1.0235   -0.2544   -0.5209 C   0  0  0  0  0  0  0  0  0  0  0  0
    1.2379   -0.0503    0.9260 C   0  0  0  0  0  0  0  0  0  0  0  0
    0.0724    0.2619    1.4594 C   0  0  0  0  0  0  0  0  0  0  0  0
   -0.9747   -0.2797    0.5434 C   0  0  0  0  0  0  0  0  0  0  0  0
   -1.0788    0.5821   -0.6830 C   0  0  0  0  0  0  0  0  0  0  0  0
   -1.1246   -0.6101   -1.4088 O   0  0  0  0  0  0  0  0  0  0  0  0
   -0.2229   -1.1142   -0.4769 C   0  0  0  0  0  0  0  0  0  0  0  0
    1.8219   -0.5901   -1.1060 H   0  0  0  0  0  0  0  0  0  0  0  0
    2.1583   -0.1370    1.4462 H   0  0  0  0  0  0  0  0  0  0  0  0
   -0.1640    0.7991    2.3720 H   0  0  0  0  0  0  0  0  0  0  0  0
   -1.8631   -0.6882    0.9730 H   0  0  0  0  0  0  0  0  0  0  0  0
   -1.8641    1.2833   -0.7809 H   0  0  0  0  0  0  0  0  0  0  0  0
   -0.1354   -2.1572   -0.3288 H   0  0  0  0  0  0  0  0  0  0  0  0
  1  2  2  0
  2  3  1  0
  3  4  1  0
  4  5  2  0
  5  6  1  0
  6  7  1  0
  7  8  1  0
  8  9  1  0
  7  2  1  0
  9  3  1  0
  9  6  1  0
  3 10  1  0
  4 11  1  0
  5 12  1  0
  6 13  1  0
  7 14  1  0
  9 15  1  0
M  END
