
     RDKit          3D

 17 18  0  0  0  0  0  0  0  0999 V2000
    0.3336   -0.1736   -2.3246 O   0  0  0  0  0  0  0  0  0  0  0  0
   -0.1593   -0.3340   -1.2507 C   0  0  0  0  0  0  0  0  0  0  0  0
   -1.4423   -0.5578   -0.5699 C   0  0  0  0  0  0  0  0  0  0  0  0
   -1.6690    0.7472    0.1672 C   0  0  0  0  0  0  0  0  0  0  0  0
   -0.2797    0.8219    0.8393 C   0  0  0  0  0  0  0  0  0  0  0  0
    0.3109   -0.4029    0.1465 C   0  0  0  0  0  0  0  0  0  0  0  0
    1.6900   -0.7574    0.4153 C   0  0  0  0  0  0  0  0  0  0  0  0
    2.5041    0.3537    0.1571 O   0  0  0  0  0  0  0  0  0  0  0  0
   -0.6950   -1.3536    0.3352 O   0  0  0  0  0  0  0  0  0  0  0  0
   -2.2547   -1.0176   -1.0727 H   0  0  0  0  0  0  0  0  0  0  0  0
   -1.7634    1.5494   -0.5973 H   0  0  0  0  0  0  0  0  0  0  0  0
   -2.4714    0.7119    0.8952 H   0  0  0  0  0  0  0  0  0  0  0  0
    0.2428    1.7415    0.5748 H   0  0  0  0  0  0  0  0  0  0  0  0
   -0.4197    0.6585    1.9229 H   0  0  0  0  0  0  0  0  0  0  0  0
    2.0160   -1.5215   -0.3521 H   0  0  0  0  0  0  0  0  0  0  0  0
    1.8991   -1.2240    1.3931 H   0  0  0  0  0  0  0  0  0  0  0  0
    2.1580    0.7585   -0.6796 H   0  0  0  0  0  0  0  0  0  0  0  0
  1  2  2  0
  2  3  1  0
  3  4  1  0
  4  5  1  0
  5  6  1  0
  6  7  1  0
  7  8  1  0
  6  9  1  0
  6  2  1  0
  9  3  1  0
  3 10  1  0
  4 11  1  0
  4 12  1  0
  5 13  1  0
  5 14  1  0
  7 15  1  0
  7 16  1  0
  8 17  1  0
M  END
