
     RDKit          3D

 13 15  0  0  0  0  0  0  0  0999 V2000
    2.6084   -0.5917   -0.6115 O   0  0  0  0  0  0  0  0  0  0  0  0
    1.4482   -0.2227   -0.3347 C   0  0  0  0  0  0  0  0  0  0  0  0
    1.0453    0.9313    0.4753 C   0  0  0  0  0  0  0  0  0  0  0  0
    1.8239    1.7622    0.9988 O   0  0  0  0  0  0  0  0  0  0  0  0
   -0.4430    0.9122    0.5454 C   0  0  0  0  0  0  0  0  0  0  0  0
   -1.0209   -0.4647    0.7514 C   0  0  0  0  0  0  0  0  0  0  0  0
   -0.3534   -1.5824    0.3116 O   0  0  0  0  0  0  0  0  0  0  0  0
    0.1928   -0.9012   -0.7853 C   0  0  0  0  0  0  0  0  0  0  0  0
   -0.8521    0.1420   -0.6097 C   0  0  0  0  0  0  0  0  0  0  0  0
   -0.9902    1.7127    1.0307 H   0  0  0  0  0  0  0  0  0  0  0  0
   -2.0239   -0.5509    1.2093 H   0  0  0  0  0  0  0  0  0  0  0  0
    0.2479   -1.4453   -1.7184 H   0  0  0  0  0  0  0  0  0  0  0  0
   -1.6829    0.2985   -1.2630 H   0  0  0  0  0  0  0  0  0  0  0  0
  1  2  2  0
  2  3  1  0
  3  4  2  0
  3  5  1  0
  5  6  1  0
  6  7  1  0
  7  8  1  0
  8  9  1  0
  8  2  1  0
  9  5  1  0
  9  6  1  0
  5 10  1  0
  6 11  1  0
  8 12  1  0
  9 13  1  0
M  END
