
     RDKit          3D

 13 14  0  0  0  0  0  0  0  0999 V2000
   -0.3569    1.7201   -1.5871 O   0  0  0  0  0  0  0  0  0  0  0  0
   -0.3554    0.9834   -0.6340 C   0  0  0  0  0  0  0  0  0  0  0  0
    0.8251    0.5728    0.2284 C   0  0  0  0  0  0  0  0  0  0  0  0
    1.9586    0.3772   -0.5178 O   0  0  0  0  0  0  0  0  0  0  0  0
    0.3104   -0.7164    0.8326 C   0  0  0  0  0  0  0  0  0  0  0  0
    0.6922   -1.2486    1.8455 O   0  0  0  0  0  0  0  0  0  0  0  0
   -0.7336   -1.1169   -0.1157 C   0  0  0  0  0  0  0  0  0  0  0  0
   -2.0144   -0.9053   -0.1990 O   0  0  0  0  0  0  0  0  0  0  0  0
   -1.4662    0.2608   -0.0111 C   0  0  0  0  0  0  0  0  0  0  0  0
    1.0140    1.3293    1.0106 H   0  0  0  0  0  0  0  0  0  0  0  0
    2.0176   -0.5647   -0.7713 H   0  0  0  0  0  0  0  0  0  0  0  0
   -0.2657   -1.3377   -1.1258 H   0  0  0  0  0  0  0  0  0  0  0  0
   -1.6257    0.6460    1.0448 H   0  0  0  0  0  0  0  0  0  0  0  0
  1  2  2  0
  2  3  1  0
  3  4  1  0
  3  5  1  0
  5  6  2  0
  5  7  1  0
  7  8  1  0
  8  9  1  0
  9  2  1  0
  9  7  1  0
  3 10  1  0
  4 11  1  0
  7 12  1  0
  9 13  1  0
M  END
