
     RDKit          3D

 15 16  0  0  0  0  0  0  0  0999 V2000
    1.7075    2.2842   -0.4987 O   0  0  0  0  0  0  0  0  0  0  0  0
    1.1376    1.1894   -0.2496 C   0  0  0  0  0  0  0  0  0  0  0  0
    1.7352    0.0632    0.4925 C   0  0  0  0  0  0  0  0  0  0  0  0
    0.9940   -1.0150    0.3086 C   0  0  0  0  0  0  0  0  0  0  0  0
   -0.1599   -0.7405   -0.5590 C   0  0  0  0  0  0  0  0  0  0  0  0
   -1.5003   -0.6830    0.1205 C   0  0  0  0  0  0  0  0  0  0  0  0
   -1.1837    0.7070    0.5350 C   0  0  0  0  0  0  0  0  0  0  0  0
   -1.5579    1.4414    1.4333 O   0  0  0  0  0  0  0  0  0  0  0  0
   -0.2331    0.7637   -0.6245 C   0  0  0  0  0  0  0  0  0  0  0  0
    2.6333    0.0907    1.0960 H   0  0  0  0  0  0  0  0  0  0  0  0
    1.2101   -1.9757    0.7416 H   0  0  0  0  0  0  0  0  0  0  0  0
   -0.1769   -1.2513   -1.5320 H   0  0  0  0  0  0  0  0  0  0  0  0
   -2.3060   -0.6592   -0.6604 H   0  0  0  0  0  0  0  0  0  0  0  0
   -1.6552   -1.4095    0.9330 H   0  0  0  0  0  0  0  0  0  0  0  0
   -0.6447    1.1946   -1.5364 H   0  0  0  0  0  0  0  0  0  0  0  0
  1  2  2  0
  2  3  1  0
  3  4  2  0
  4  5  1  0
  5  6  1  0
  6  7  1  0
  7  8  2  0
  7  9  1  0
  9  2  1  0
  9  5  1  0
  3 10  1  0
  4 11  1  0
  5 12  1  0
  6 13  1  0
  6 14  1  0
  9 15  1  0
M  END
