
     RDKit          3D

 19 20  0  0  0  0  0  0  0  0999 V2000
   -1.0639   -0.3937   -2.5163 O   0  0  0  0  0  0  0  0  0  0  0  0
   -0.6921   -0.2223   -1.3990 C   0  0  0  0  0  0  0  0  0  0  0  0
    0.2259   -1.0447   -0.5280 C   0  0  0  0  0  0  0  0  0  0  0  0
    1.4095   -0.2552   -0.0892 C   0  0  0  0  0  0  0  0  0  0  0  0
    1.2192    1.2030    0.0148 C   0  0  0  0  0  0  0  0  0  0  0  0
    0.0899    1.7359   -0.5123 O   0  0  0  0  0  0  0  0  0  0  0  0
   -1.0298    0.9107   -0.4604 C   0  0  0  0  0  0  0  0  0  0  0  0
   -1.1372    0.2351    0.8944 C   0  0  0  0  0  0  0  0  0  0  0  0
   -0.6879   -1.1966    0.6964 C   0  0  0  0  0  0  0  0  0  0  0  0
    0.4730   -1.9992   -0.9846 H   0  0  0  0  0  0  0  0  0  0  0  0
    2.2670   -0.5444   -0.7658 H   0  0  0  0  0  0  0  0  0  0  0  0
    1.7254   -0.6516    0.9180 H   0  0  0  0  0  0  0  0  0  0  0  0
    1.2967    1.5554    1.0857 H   0  0  0  0  0  0  0  0  0  0  0  0
    2.0997    1.7036   -0.4863 H   0  0  0  0  0  0  0  0  0  0  0  0
   -1.9251    1.4399   -0.7575 H   0  0  0  0  0  0  0  0  0  0  0  0
   -0.4924    0.7575    1.6568 H   0  0  0  0  0  0  0  0  0  0  0  0
   -2.1910    0.2080    1.2526 H   0  0  0  0  0  0  0  0  0  0  0  0
   -1.5349   -1.8726    0.4678 H   0  0  0  0  0  0  0  0  0  0  0  0
   -0.0522   -1.5689    1.5130 H   0  0  0  0  0  0  0  0  0  0  0  0
  1  2  2  0
  2  3  1  0
  3  4  1  0
  4  5  1  0
  5  6  1  0
  6  7  1  0
  7  8  1  0
  8  9  1  0
  7  2  1  0
  9  3  1  0
  3 10  1  0
  4 11  1  0
  4 12  1  0
  5 13  1  0
  5 14  1  0
  7 15  1  0
  8 16  1  0
  8 17  1  0
  9 18  1  0
  9 19  1  0
M  END
