
     RDKit          3D

 17 18  0  0  0  0  0  0  0  0999 V2000
   -2.2747   -1.1739    1.2242 O   0  0  0  0  0  0  0  0  0  0  0  0
   -1.5284   -0.7636    0.3858 C   0  0  0  0  0  0  0  0  0  0  0  0
   -0.4453   -1.0867   -0.5428 C   0  0  0  0  0  0  0  0  0  0  0  0
    0.9328   -0.8869    0.0093 C   0  0  0  0  0  0  0  0  0  0  0  0
    1.5622    0.4095   -0.3897 C   0  0  0  0  0  0  0  0  0  0  0  0
    0.7994    1.5174   -0.1890 O   0  0  0  0  0  0  0  0  0  0  0  0
   -0.3113    1.3017    0.6145 C   0  0  0  0  0  0  0  0  0  0  0  0
   -1.3393    0.5942   -0.2200 C   0  0  0  0  0  0  0  0  0  0  0  0
   -0.7416   -0.0015   -1.3574 O   0  0  0  0  0  0  0  0  0  0  0  0
   -0.6264   -2.0909   -1.0079 H   0  0  0  0  0  0  0  0  0  0  0  0
    0.9929   -1.0697    1.1120 H   0  0  0  0  0  0  0  0  0  0  0  0
    1.5743   -1.7047   -0.4364 H   0  0  0  0  0  0  0  0  0  0  0  0
    1.8636    0.3777   -1.4583 H   0  0  0  0  0  0  0  0  0  0  0  0
    2.5017    0.5172    0.2109 H   0  0  0  0  0  0  0  0  0  0  0  0
    0.0331    0.6995    1.4902 H   0  0  0  0  0  0  0  0  0  0  0  0
   -0.7377    2.2220    1.0138 H   0  0  0  0  0  0  0  0  0  0  0  0
   -2.2554    1.1387   -0.4593 H   0  0  0  0  0  0  0  0  0  0  0  0
  1  2  2  0
  2  3  1  0
  3  4  1  0
  4  5  1  0
  5  6  1  0
  6  7  1  0
  7  8  1  0
  8  9  1  0
  8  2  1  0
  9  3  1  0
  3 10  1  0
  4 11  1  0
  4 12  1  0
  5 13  1  0
  5 14  1  0
  7 15  1  0
  7 16  1  0
  8 17  1  0
M  END
