
     RDKit          3D

 17 18  0  0  0  0  0  0  0  0999 V2000
   -1.4548   -2.2885    1.3133 O   0  0  0  0  0  0  0  0  0  0  0  0
   -1.3365   -1.3577    0.4802 C   0  0  0  0  0  0  0  0  0  0  0  0
   -2.1773   -0.3097    0.1476 O   0  0  0  0  0  0  0  0  0  0  0  0
   -1.0910    0.3466   -0.5266 C   0  0  0  0  0  0  0  0  0  0  0  0
   -0.5386    1.4711    0.2354 C   0  0  0  0  0  0  0  0  0  0  0  0
    0.6723    1.3225    0.8130 O   0  0  0  0  0  0  0  0  0  0  0  0
    1.5823    0.5594    0.1156 C   0  0  0  0  0  0  0  0  0  0  0  0
    1.0567   -0.8399    0.0187 C   0  0  0  0  0  0  0  0  0  0  0  0
   -0.3323   -0.9272   -0.4954 C   0  0  0  0  0  0  0  0  0  0  0  0
   -1.4752    0.6172   -1.5471 H   0  0  0  0  0  0  0  0  0  0  0  0
   -1.2836    1.7693    1.0311 H   0  0  0  0  0  0  0  0  0  0  0  0
   -0.4980    2.3783   -0.4356 H   0  0  0  0  0  0  0  0  0  0  0  0
    1.8576    0.9526   -0.8689 H   0  0  0  0  0  0  0  0  0  0  0  0
    2.5168    0.5204    0.7319 H   0  0  0  0  0  0  0  0  0  0  0  0
    1.7567   -1.4792   -0.5852 H   0  0  0  0  0  0  0  0  0  0  0  0
    1.1074   -1.2892    1.0524 H   0  0  0  0  0  0  0  0  0  0  0  0
   -0.3625   -1.4460   -1.4805 H   0  0  0  0  0  0  0  0  0  0  0  0
  1  2  2  0
  2  3  1  0
  3  4  1  0
  4  5  1  0
  5  6  1  0
  6  7  1  0
  7  8  1  0
  8  9  1  0
  9  2  1  0
  9  4  1  0
  4 10  1  0
  5 11  1  0
  5 12  1  0
  7 13  1  0
  7 14  1  0
  8 15  1  0
  8 16  1  0
  9 17  1  0
M  END
