
     RDKit          3D

 19 21  0  0  0  0  0  0  0  0999 V2000
    1.0431    2.5600   -0.4941 O   0  0  0  0  0  0  0  0  0  0  0  0
    0.6408    1.4387   -0.3178 C   0  0  0  0  0  0  0  0  0  0  0  0
   -0.6024    0.9725    0.3271 C   0  0  0  0  0  0  0  0  0  0  0  0
   -1.6560    0.4246   -0.6232 C   0  0  0  0  0  0  0  0  0  0  0  0
   -1.7182   -0.8066    0.2779 C   0  0  0  0  0  0  0  0  0  0  0  0
   -0.3475   -0.4592    0.7629 C   0  0  0  0  0  0  0  0  0  0  0  0
    0.7990   -0.9468   -0.0682 C   0  0  0  0  0  0  0  0  0  0  0  0
    2.1561   -0.4482    0.3281 C   0  0  0  0  0  0  0  0  0  0  0  0
    1.3717    0.2200   -0.7469 C   0  0  0  0  0  0  0  0  0  0  0  0
   -0.9933    1.6277    1.1206 H   0  0  0  0  0  0  0  0  0  0  0  0
   -1.3172    0.2364   -1.6466 H   0  0  0  0  0  0  0  0  0  0  0  0
   -2.6309    0.9610   -0.5780 H   0  0  0  0  0  0  0  0  0  0  0  0
   -2.4592   -0.6852    1.0996 H   0  0  0  0  0  0  0  0  0  0  0  0
   -1.8574   -1.7428   -0.2485 H   0  0  0  0  0  0  0  0  0  0  0  0
   -0.1424   -0.5283    1.8253 H   0  0  0  0  0  0  0  0  0  0  0  0
    0.7393   -1.9458   -0.5277 H   0  0  0  0  0  0  0  0  0  0  0  0
    3.0543   -1.0515    0.0059 H   0  0  0  0  0  0  0  0  0  0  0  0
    2.2566    0.0540    1.3127 H   0  0  0  0  0  0  0  0  0  0  0  0
    1.6636    0.1195   -1.8091 H   0  0  0  0  0  0  0  0  0  0  0  0
  1  2  2  0
  2  3  1  0
  3  4  1  0
  4  5  1  0
  5  6  1  0
  6  7  1  0
  7  8  1  0
  8  9  1  0
  9  2  1  0
  6  3  1  0
  9  7  1  0
  3 10  1  0
  4 11  1  0
  4 12  1  0
  5 13  1  0
  5 14  1  0
  6 15  1  0
  7 16  1  0
  8 17  1  0
  8 18  1  0
  9 19  1  0
M  END
