
     RDKit          3D

 17 18  0  0  0  0  0  0  0  0999 V2000
    0.3860   -2.4044    0.6540 O   0  0  0  0  0  0  0  0  0  0  0  0
    0.0324   -1.2936    0.3448 C   0  0  0  0  0  0  0  0  0  0  0  0
    0.6978    0.0179    0.2747 C   0  0  0  0  0  0  0  0  0  0  0  0
    1.9813    0.0851   -0.4906 C   0  0  0  0  0  0  0  0  0  0  0  0
    2.4439    1.4033   -0.4352 O   0  0  0  0  0  0  0  0  0  0  0  0
   -0.5149    0.4971   -0.4967 C   0  0  0  0  0  0  0  0  0  0  0  0
   -1.7288    0.5965    0.3431 C   0  0  0  0  0  0  0  0  0  0  0  0
   -1.2451   -0.7243   -0.1124 C   0  0  0  0  0  0  0  0  0  0  0  0
   -2.0495   -1.4315   -0.9630 O   0  0  0  0  0  0  0  0  0  0  0  0
    0.7566    0.4621    1.3016 H   0  0  0  0  0  0  0  0  0  0  0  0
    2.7262   -0.6523   -0.1911 H   0  0  0  0  0  0  0  0  0  0  0  0
    1.7320   -0.0921   -1.5725 H   0  0  0  0  0  0  0  0  0  0  0  0
    2.1676    1.7676    0.4469 H   0  0  0  0  0  0  0  0  0  0  0  0
   -0.4293    0.8753   -1.5032 H   0  0  0  0  0  0  0  0  0  0  0  0
   -1.6474    0.7812    1.4291 H   0  0  0  0  0  0  0  0  0  0  0  0
   -2.6124    1.0016   -0.1397 H   0  0  0  0  0  0  0  0  0  0  0  0
   -2.6963   -0.8896   -1.4451 H   0  0  0  0  0  0  0  0  0  0  0  0
  1  2  2  0
  2  3  1  0
  3  4  1  0
  4  5  1  0
  3  6  1  0
  6  7  1  0
  7  8  1  0
  8  9  1  0
  8  2  1  0
  8  6  1  0
  3 10  1  0
  4 11  1  0
  4 12  1  0
  5 13  1  0
  6 14  1  0
  7 15  1  0
  7 16  1  0
  9 17  1  0
M  END
