
     RDKit          3D

 13 13  0  0  0  0  0  0  0  0999 V2000
   -2.4147    0.6572    1.1116 O   0  0  0  0  0  0  0  0  0  0  0  0
   -1.3359    0.2021    0.6755 C   0  0  0  0  0  0  0  0  0  0  0  0
   -0.9403    0.0899   -0.7453 C   0  0  0  0  0  0  0  0  0  0  0  0
    0.5880    0.0967   -0.5972 C   0  0  0  0  0  0  0  0  0  0  0  0
    1.0125    1.3932   -0.3106 O   0  0  0  0  0  0  0  0  0  0  0  0
    0.7545   -0.7523    0.6397 C   0  0  0  0  0  0  0  0  0  0  0  0
   -0.3117   -0.2822    1.4701 O   0  0  0  0  0  0  0  0  0  0  0  0
   -1.2921    0.9147   -1.3678 H   0  0  0  0  0  0  0  0  0  0  0  0
   -1.2249   -0.8778   -1.1979 H   0  0  0  0  0  0  0  0  0  0  0  0
    1.0708   -0.3258   -1.4835 H   0  0  0  0  0  0  0  0  0  0  0  0
    1.8363    1.3577    0.2689 H   0  0  0  0  0  0  0  0  0  0  0  0
    1.7303   -0.6537    1.1203 H   0  0  0  0  0  0  0  0  0  0  0  0
    0.5272   -1.8198    0.4164 H   0  0  0  0  0  0  0  0  0  0  0  0
  1  2  2  0
  2  3  1  0
  3  4  1  0
  4  5  1  0
  4  6  1  0
  6  7  1  0
  7  2  1  0
  3  8  1  0
  3  9  1  0
  4 10  1  0
  5 11  1  0
  6 12  1  0
  6 13  1  0
M  END
