
     RDKit          3D

 17 18  0  0  0  0  0  0  0  0999 V2000
   -3.3098    1.3389   -0.0718 O   0  0  0  0  0  0  0  0  0  0  0  0
   -2.2669    0.7493   -0.1237 C   0  0  0  0  0  0  0  0  0  0  0  0
   -0.9162    1.0020   -0.6538 C   0  0  0  0  0  0  0  0  0  0  0  0
   -0.4916   -0.2833    0.0185 C   0  0  0  0  0  0  0  0  0  0  0  0
    0.6826   -1.0339   -0.4524 C   0  0  0  0  0  0  0  0  0  0  0  0
    1.9287   -0.1470   -0.3473 C   0  0  0  0  0  0  0  0  0  0  0  0
    2.0972    0.2159    0.9837 O   0  0  0  0  0  0  0  0  0  0  0  0
   -0.8597   -0.5008    1.3477 O   0  0  0  0  0  0  0  0  0  0  0  0
   -1.7752   -0.5758    0.3288 C   0  0  0  0  0  0  0  0  0  0  0  0
   -0.8777    0.8508   -1.7672 H   0  0  0  0  0  0  0  0  0  0  0  0
   -0.3969    1.8981   -0.3263 H   0  0  0  0  0  0  0  0  0  0  0  0
    0.8919   -1.9284    0.1260 H   0  0  0  0  0  0  0  0  0  0  0  0
    0.6376   -1.3465   -1.5295 H   0  0  0  0  0  0  0  0  0  0  0  0
    2.8319   -0.6980   -0.6685 H   0  0  0  0  0  0  0  0  0  0  0  0
    1.7763    0.7732   -0.9805 H   0  0  0  0  0  0  0  0  0  0  0  0
    2.4549    1.1554    0.9702 H   0  0  0  0  0  0  0  0  0  0  0  0
   -2.4068   -1.4700    0.1915 H   0  0  0  0  0  0  0  0  0  0  0  0
  1  2  2  0
  2  3  1  0
  3  4  1  0
  4  5  1  0
  5  6  1  0
  6  7  1  0
  4  8  1  0
  8  9  1  0
  9  2  1  0
  9  4  1  0
  3 10  1  0
  3 11  1  0
  5 12  1  0
  5 13  1  0
  6 14  1  0
  6 15  1  0
  7 16  1  0
  9 17  1  0
M  END
