
     RDKit          3D

 19 19  0  0  0  0  0  0  0  0999 V2000
   -2.6787   -1.9053   -1.3995 O   0  0  0  0  0  0  0  0  0  0  0  0
   -1.9636   -1.0049   -0.8887 C   0  0  0  0  0  0  0  0  0  0  0  0
   -2.4935    0.2501   -0.2931 C   0  0  0  0  0  0  0  0  0  0  0  0
   -1.2123    1.0817   -0.1914 C   0  0  0  0  0  0  0  0  0  0  0  0
   -0.2087    0.0062    0.1359 C   0  0  0  0  0  0  0  0  0  0  0  0
    1.2144    0.4734   -0.0567 C   0  0  0  0  0  0  0  0  0  0  0  0
    2.2115   -0.6050    0.2716 C   0  0  0  0  0  0  0  0  0  0  0  0
    3.5098   -0.1378    0.0825 O   0  0  0  0  0  0  0  0  0  0  0  0
   -0.5597   -1.0097   -0.7840 O   0  0  0  0  0  0  0  0  0  0  0  0
   -2.8845    0.0809    0.7408 H   0  0  0  0  0  0  0  0  0  0  0  0
   -3.2618    0.7297   -0.8941 H   0  0  0  0  0  0  0  0  0  0  0  0
   -1.0161    1.5554   -1.1768 H   0  0  0  0  0  0  0  0  0  0  0  0
   -1.2873    1.8658    0.5655 H   0  0  0  0  0  0  0  0  0  0  0  0
   -0.3793   -0.2944    1.1889 H   0  0  0  0  0  0  0  0  0  0  0  0
    1.3887    1.3046    0.6572 H   0  0  0  0  0  0  0  0  0  0  0  0
    1.4176    0.8420   -1.0670 H   0  0  0  0  0  0  0  0  0  0  0  0
    2.1210   -0.9498    1.3317 H   0  0  0  0  0  0  0  0  0  0  0  0
    2.0366   -1.5259   -0.3485 H   0  0  0  0  0  0  0  0  0  0  0  0
    4.0460   -0.7568   -0.5077 H   0  0  0  0  0  0  0  0  0  0  0  0
  1  2  2  0
  2  3  1  0
  3  4  1  0
  4  5  1  0
  5  6  1  0
  6  7  1  0
  7  8  1  0
  5  9  1  0
  9  2  1  0
  3 10  1  0
  3 11  1  0
  4 12  1  0
  4 13  1  0
  5 14  1  0
  6 15  1  0
  6 16  1  0
  7 17  1  0
  7 18  1  0
  8 19  1  0
M  END
