
     RDKit          3D

 17 18  0  0  0  0  0  0  0  0999 V2000
    2.0140    2.4101   -0.0601 O   0  0  0  0  0  0  0  0  0  0  0  0
    1.4347    1.3016   -0.1734 C   0  0  0  0  0  0  0  0  0  0  0  0
    2.0454    0.0136    0.3067 C   0  0  0  0  0  0  0  0  0  0  0  0
    1.5954   -0.9532   -0.6165 O   0  0  0  0  0  0  0  0  0  0  0  0
    0.2364   -1.1731   -0.4067 C   0  0  0  0  0  0  0  0  0  0  0  0
   -0.5802    0.0683   -0.3103 C   0  0  0  0  0  0  0  0  0  0  0  0
   -1.4903    0.3336    0.8229 C   0  0  0  0  0  0  0  0  0  0  0  0
   -2.0319   -0.0258   -0.5373 C   0  0  0  0  0  0  0  0  0  0  0  0
    0.1783    1.1723   -0.7532 O   0  0  0  0  0  0  0  0  0  0  0  0
    3.1329    0.0508    0.2187 H   0  0  0  0  0  0  0  0  0  0  0  0
    1.6781   -0.2531    1.3134 H   0  0  0  0  0  0  0  0  0  0  0  0
    0.1643   -1.8201    0.4983 H   0  0  0  0  0  0  0  0  0  0  0  0
   -0.1480   -1.7561   -1.2887 H   0  0  0  0  0  0  0  0  0  0  0  0
   -1.6810    1.3906    1.1122 H   0  0  0  0  0  0  0  0  0  0  0  0
   -1.5098   -0.4304    1.6284 H   0  0  0  0  0  0  0  0  0  0  0  0
   -2.5951    0.7251   -1.1225 H   0  0  0  0  0  0  0  0  0  0  0  0
   -2.4433   -1.0542   -0.6321 H   0  0  0  0  0  0  0  0  0  0  0  0
  1  2  2  0
  2  3  1  0
  3  4  1  0
  4  5  1  0
  5  6  1  0
  6  7  1  0
  7  8  1  0
  6  9  1  0
  9  2  1  0
  8  6  1  0
  3 10  1  0
  3 11  1  0
  5 12  1  0
  5 13  1  0
  7 14  1  0
  7 15  1  0
  8 16  1  0
  8 17  1  0
M  END
