
     RDKit          3D

 17 18  0  0  0  0  0  0  0  0999 V2000
   -0.9881   -1.0392   -2.0102 O   0  0  0  0  0  0  0  0  0  0  0  0
   -0.8907   -0.4846   -0.9517 C   0  0  0  0  0  0  0  0  0  0  0  0
   -1.8162    0.1600    0.0065 C   0  0  0  0  0  0  0  0  0  0  0  0
   -1.7704    1.5647   -0.1244 O   0  0  0  0  0  0  0  0  0  0  0  0
   -0.8362   -0.2958    1.0960 C   0  0  0  0  0  0  0  0  0  0  0  0
    0.1627   -0.1348   -0.0239 C   0  0  0  0  0  0  0  0  0  0  0  0
    1.4152   -0.8525    0.0224 C   0  0  0  0  0  0  0  0  0  0  0  0
    1.9823    0.5393   -0.1061 C   0  0  0  0  0  0  0  0  0  0  0  0
    0.7128    1.1225   -0.0889 O   0  0  0  0  0  0  0  0  0  0  0  0
   -2.8210   -0.2455    0.0861 H   0  0  0  0  0  0  0  0  0  0  0  0
   -1.9030    1.8308   -1.0675 H   0  0  0  0  0  0  0  0  0  0  0  0
   -1.0031   -1.3656    1.3665 H   0  0  0  0  0  0  0  0  0  0  0  0
   -0.6831    0.4049    1.9064 H   0  0  0  0  0  0  0  0  0  0  0  0
    1.6849   -1.5251   -0.8247 H   0  0  0  0  0  0  0  0  0  0  0  0
    1.6607   -1.2525    1.0313 H   0  0  0  0  0  0  0  0  0  0  0  0
    2.5703    0.9039    0.7471 H   0  0  0  0  0  0  0  0  0  0  0  0
    2.5228    0.6697   -1.0651 H   0  0  0  0  0  0  0  0  0  0  0  0
  1  2  2  0
  2  3  1  0
  3  4  1  0
  3  5  1  0
  5  6  1  0
  6  7  1  0
  7  8  1  0
  8  9  1  0
  6  2  1  0
  9  6  1  0
  3 10  1  0
  4 11  1  0
  5 12  1  0
  5 13  1  0
  7 14  1  0
  7 15  1  0
  8 16  1  0
  8 17  1  0
M  END
