
     RDKit          3D

 17 18  0  0  0  0  0  0  0  0999 V2000
   -1.0546   -0.7384    2.2845 O   0  0  0  0  0  0  0  0  0  0  0  0
   -0.7459   -0.3414    1.1783 C   0  0  0  0  0  0  0  0  0  0  0  0
   -0.4793    1.0710    0.7370 C   0  0  0  0  0  0  0  0  0  0  0  0
    0.9430    1.1676    0.3316 C   0  0  0  0  0  0  0  0  0  0  0  0
    1.5979    0.1136   -0.1304 C   0  0  0  0  0  0  0  0  0  0  0  0
    0.9677   -1.2287   -0.2791 C   0  0  0  0  0  0  0  0  0  0  0  0
   -0.5309   -1.1047   -0.0929 C   0  0  0  0  0  0  0  0  0  0  0  0
   -1.0922   -0.1398   -1.0835 C   0  0  0  0  0  0  0  0  0  0  0  0
   -1.2620    1.0604   -0.5495 C   0  0  0  0  0  0  0  0  0  0  0  0
   -0.8138    1.8185    1.4407 H   0  0  0  0  0  0  0  0  0  0  0  0
    1.4303    2.1204    0.4233 H   0  0  0  0  0  0  0  0  0  0  0  0
    2.6353    0.2562   -0.4060 H   0  0  0  0  0  0  0  0  0  0  0  0
    1.2117   -1.6242   -1.2892 H   0  0  0  0  0  0  0  0  0  0  0  0
    1.3739   -1.8653    0.5333 H   0  0  0  0  0  0  0  0  0  0  0  0
   -1.0284   -2.0712   -0.0944 H   0  0  0  0  0  0  0  0  0  0  0  0
   -1.3242   -0.4095   -2.1066 H   0  0  0  0  0  0  0  0  0  0  0  0
   -1.8284    1.9153   -0.8973 H   0  0  0  0  0  0  0  0  0  0  0  0
  1  2  2  0
  2  3  1  0
  3  4  1  0
  4  5  2  0
  5  6  1  0
  6  7  1  0
  7  8  1  0
  8  9  2  0
  7  2  1  0
  9  3  1  0
  3 10  1  0
  4 11  1  0
  5 12  1  0
  6 13  1  0
  6 14  1  0
  7 15  1  0
  8 16  1  0
  9 17  1  0
M  END
