
     RDKit          3D

 19 20  0  0  0  0  0  0  0  0999 V2000
    0.6588    1.1436    2.0840 O   0  0  0  0  0  0  0  0  0  0  0  0
    0.0709    0.7895    1.0985 C   0  0  0  0  0  0  0  0  0  0  0  0
   -1.2504    1.3516    0.7716 C   0  0  0  0  0  0  0  0  0  0  0  0
   -2.1133    0.3134    0.4717 O   0  0  0  0  0  0  0  0  0  0  0  0
   -1.6495   -0.5443   -0.4985 C   0  0  0  0  0  0  0  0  0  0  0  0
   -0.3819   -1.2851   -0.0469 C   0  0  0  0  0  0  0  0  0  0  0  0
    0.6427   -0.2087    0.1900 C   0  0  0  0  0  0  0  0  0  0  0  0
    1.3552    0.2451   -1.0712 C   0  0  0  0  0  0  0  0  0  0  0  0
    2.0830   -0.4473    0.1029 C   0  0  0  0  0  0  0  0  0  0  0  0
   -1.6840    1.8815    1.6559 H   0  0  0  0  0  0  0  0  0  0  0  0
   -1.1618    2.0669   -0.0937 H   0  0  0  0  0  0  0  0  0  0  0  0
   -2.4094   -1.3057   -0.6890 H   0  0  0  0  0  0  0  0  0  0  0  0
   -1.3746   -0.0456   -1.4477 H   0  0  0  0  0  0  0  0  0  0  0  0
   -0.6729   -1.8138    0.8992 H   0  0  0  0  0  0  0  0  0  0  0  0
   -0.0817   -1.9585   -0.8488 H   0  0  0  0  0  0  0  0  0  0  0  0
    1.4865    1.3512   -1.1511 H   0  0  0  0  0  0  0  0  0  0  0  0
    1.2197   -0.3471   -1.9918 H   0  0  0  0  0  0  0  0  0  0  0  0
    2.5250   -1.4148   -0.1333 H   0  0  0  0  0  0  0  0  0  0  0  0
    2.7377    0.2279    0.6982 H   0  0  0  0  0  0  0  0  0  0  0  0
  1  2  2  0
  2  3  1  0
  3  4  1  0
  4  5  1  0
  5  6  1  0
  6  7  1  0
  7  8  1  0
  8  9  1  0
  7  2  1  0
  9  7  1  0
  3 10  1  0
  3 11  1  0
  5 12  1  0
  5 13  1  0
  6 14  1  0
  6 15  1  0
  8 16  1  0
  8 17  1  0
  9 18  1  0
  9 19  1  0
M  END
