
     RDKit          3D

 17 18  0  0  0  0  0  0  0  0999 V2000
    1.4582   -0.7239   -1.9752 O   0  0  0  0  0  0  0  0  0  0  0  0
    0.9075   -0.4409   -0.9533 C   0  0  0  0  0  0  0  0  0  0  0  0
    0.7487    0.8443   -0.2070 C   0  0  0  0  0  0  0  0  0  0  0  0
   -0.7065    1.3021   -0.2913 C   0  0  0  0  0  0  0  0  0  0  0  0
   -1.4880    0.3315    0.3049 O   0  0  0  0  0  0  0  0  0  0  0  0
   -1.2992   -0.9417   -0.1546 C   0  0  0  0  0  0  0  0  0  0  0  0
    0.1558   -1.3808   -0.0559 C   0  0  0  0  0  0  0  0  0  0  0  0
    0.7052   -1.0413    1.1767 O   0  0  0  0  0  0  0  0  0  0  0  0
    0.9097    0.3128    1.2192 C   0  0  0  0  0  0  0  0  0  0  0  0
    1.4650    1.6084   -0.4692 H   0  0  0  0  0  0  0  0  0  0  0  0
   -0.7663    2.2170    0.3468 H   0  0  0  0  0  0  0  0  0  0  0  0
   -0.9839    1.5601   -1.3106 H   0  0  0  0  0  0  0  0  0  0  0  0
   -1.5362   -0.9457   -1.2538 H   0  0  0  0  0  0  0  0  0  0  0  0
   -1.9331   -1.6245    0.4082 H   0  0  0  0  0  0  0  0  0  0  0  0
    0.2886   -2.4235   -0.3055 H   0  0  0  0  0  0  0  0  0  0  0  0
    0.1665    0.7596    1.9061 H   0  0  0  0  0  0  0  0  0  0  0  0
    1.9079    0.5864    1.6145 H   0  0  0  0  0  0  0  0  0  0  0  0
  1  2  2  0
  2  3  1  0
  3  4  1  0
  4  5  1  0
  5  6  1  0
  6  7  1  0
  7  8  1  0
  8  9  1  0
  7  2  1  0
  9  3  1  0
  3 10  1  0
  4 11  1  0
  4 12  1  0
  6 13  1  0
  6 14  1  0
  7 15  1  0
  9 16  1  0
  9 17  1  0
M  END
