
     RDKit          3D

 15 16  0  0  0  0  0  0  0  0999 V2000
   -2.7202   -1.4794    0.7231 O   0  0  0  0  0  0  0  0  0  0  0  0
   -1.8220   -0.6548    0.4143 C   0  0  0  0  0  0  0  0  0  0  0  0
   -1.2422    0.3621    1.1807 O   0  0  0  0  0  0  0  0  0  0  0  0
   -0.6804    0.9753    0.0365 C   0  0  0  0  0  0  0  0  0  0  0  0
    0.7280    1.2963    0.2563 C   0  0  0  0  0  0  0  0  0  0  0  0
    1.6342    0.3513    0.1828 C   0  0  0  0  0  0  0  0  0  0  0  0
    1.1554   -1.0386   -0.1310 C   0  0  0  0  0  0  0  0  0  0  0  0
    0.1085   -1.0579   -1.0022 O   0  0  0  0  0  0  0  0  0  0  0  0
   -0.9526   -0.2707   -0.7093 C   0  0  0  0  0  0  0  0  0  0  0  0
   -1.2917    1.8314   -0.3182 H   0  0  0  0  0  0  0  0  0  0  0  0
    1.0206    2.3155    0.4798 H   0  0  0  0  0  0  0  0  0  0  0  0
    2.6673    0.5696    0.3408 H   0  0  0  0  0  0  0  0  0  0  0  0
    0.9566   -1.5521    0.8232 H   0  0  0  0  0  0  0  0  0  0  0  0
    2.0313   -1.5292   -0.6495 H   0  0  0  0  0  0  0  0  0  0  0  0
   -1.5927   -0.1188   -1.6275 H   0  0  0  0  0  0  0  0  0  0  0  0
  1  2  2  0
  2  3  1  0
  3  4  1  0
  4  5  1  0
  5  6  2  0
  6  7  1  0
  7  8  1  0
  8  9  1  0
  9  2  1  0
  9  4  1  0
  4 10  1  0
  5 11  1  0
  6 12  1  0
  7 13  1  0
  7 14  1  0
  9 15  1  0
M  END
