
     RDKit          3D

 17 18  0  0  0  0  0  0  0  0999 V2000
   -2.5880    1.4345   -0.4830 O   0  0  0  0  0  0  0  0  0  0  0  0
   -1.6745    0.6248   -0.2670 C   0  0  0  0  0  0  0  0  0  0  0  0
   -1.8179   -0.6184    0.5079 C   0  0  0  0  0  0  0  0  0  0  0  0
   -0.7507   -1.3667    0.2891 C   0  0  0  0  0  0  0  0  0  0  0  0
    0.1822   -0.7010   -0.6343 C   0  0  0  0  0  0  0  0  0  0  0  0
    1.5488   -0.5955   -0.0426 C   0  0  0  0  0  0  0  0  0  0  0  0
    1.5210    0.7102    0.6402 C   0  0  0  0  0  0  0  0  0  0  0  0
    0.5229    1.4782    0.2774 C   0  0  0  0  0  0  0  0  0  0  0  0
   -0.2688    0.7393   -0.7376 C   0  0  0  0  0  0  0  0  0  0  0  0
   -2.6794   -0.8165    1.1295 H   0  0  0  0  0  0  0  0  0  0  0  0
   -0.5799   -2.3367    0.7258 H   0  0  0  0  0  0  0  0  0  0  0  0
    0.1462   -1.1575   -1.6344 H   0  0  0  0  0  0  0  0  0  0  0  0
    2.3589   -0.6802   -0.8031 H   0  0  0  0  0  0  0  0  0  0  0  0
    1.7107   -1.3777    0.7556 H   0  0  0  0  0  0  0  0  0  0  0  0
    2.2672    1.0087    1.3820 H   0  0  0  0  0  0  0  0  0  0  0  0
    0.2803    2.5028    0.6421 H   0  0  0  0  0  0  0  0  0  0  0  0
   -0.1791    1.1516   -1.7477 H   0  0  0  0  0  0  0  0  0  0  0  0
  1  2  2  0
  2  3  1  0
  3  4  2  0
  4  5  1  0
  5  6  1  0
  6  7  1  0
  7  8  2  0
  8  9  1  0
  9  2  1  0
  9  5  1  0
  3 10  1  0
  4 11  1  0
  5 12  1  0
  6 13  1  0
  6 14  1  0
  7 15  1  0
  8 16  1  0
  9 17  1  0
M  END
