
     RDKit          3D

 17 19  0  0  0  0  0  0  0  0999 V2000
   -0.8438    0.5519    2.7207 O   0  0  0  0  0  0  0  0  0  0  0  0
   -0.6710    0.3229    1.5429 C   0  0  0  0  0  0  0  0  0  0  0  0
   -0.1010   -0.7901    0.6951 C   0  0  0  0  0  0  0  0  0  0  0  0
    1.3513   -0.4649    0.4135 C   0  0  0  0  0  0  0  0  0  0  0  0
    1.3035    0.3625   -0.8350 C   0  0  0  0  0  0  0  0  0  0  0  0
   -0.1040    0.8907   -0.9160 C   0  0  0  0  0  0  0  0  0  0  0  0
   -0.9451    1.0535    0.2897 C   0  0  0  0  0  0  0  0  0  0  0  0
   -0.9042   -0.2203   -0.4282 C   0  0  0  0  0  0  0  0  0  0  0  0
   -1.9241   -0.8363   -1.0338 O   0  0  0  0  0  0  0  0  0  0  0  0
   -0.3256   -1.7923    1.0337 H   0  0  0  0  0  0  0  0  0  0  0  0
    1.9798   -1.3686    0.3253 H   0  0  0  0  0  0  0  0  0  0  0  0
    1.7892    0.1583    1.2473 H   0  0  0  0  0  0  0  0  0  0  0  0
    1.4147   -0.3567   -1.6985 H   0  0  0  0  0  0  0  0  0  0  0  0
    2.0730    1.1399   -0.8939 H   0  0  0  0  0  0  0  0  0  0  0  0
   -0.4148    1.4161   -1.8090 H   0  0  0  0  0  0  0  0  0  0  0  0
   -1.7924    1.7467    0.2346 H   0  0  0  0  0  0  0  0  0  0  0  0
   -1.8853   -1.8132   -0.8885 H   0  0  0  0  0  0  0  0  0  0  0  0
  1  2  2  0
  2  3  1  0
  3  4  1  0
  4  5  1  0
  5  6  1  0
  6  7  1  0
  7  8  1  0
  8  9  1  0
  7  2  1  0
  8  3  1  0
  8  6  1  0
  3 10  1  0
  4 11  1  0
  4 12  1  0
  5 13  1  0
  5 14  1  0
  6 15  1  0
  7 16  1  0
  9 17  1  0
M  END
