
     RDKit          3D

 15 18  0  0  0  0  0  0  0  0999 V2000
    2.5206   -0.9501    0.3747 O   0  0  0  0  0  0  0  0  0  0  0  0
    1.4412   -0.5275    0.1019 C   0  0  0  0  0  0  0  0  0  0  0  0
    0.2925   -1.1384   -0.6701 C   0  0  0  0  0  0  0  0  0  0  0  0
    0.1776   -0.1324   -1.6588 O   0  0  0  0  0  0  0  0  0  0  0  0
   -0.0420    0.9851   -0.8410 C   0  0  0  0  0  0  0  0  0  0  0  0
    0.7755    0.7937    0.4153 C   0  0  0  0  0  0  0  0  0  0  0  0
   -0.4446    0.3157    1.0972 C   0  0  0  0  0  0  0  0  0  0  0  0
   -0.8523   -0.8828    0.2377 C   0  0  0  0  0  0  0  0  0  0  0  0
   -1.2410    0.5159   -0.0646 C   0  0  0  0  0  0  0  0  0  0  0  0
    0.4647   -2.1162   -1.0313 H   0  0  0  0  0  0  0  0  0  0  0  0
   -0.0606    1.9489   -1.2995 H   0  0  0  0  0  0  0  0  0  0  0  0
    1.3753    1.5803    0.7845 H   0  0  0  0  0  0  0  0  0  0  0  0
   -0.6629    0.3649    2.1343 H   0  0  0  0  0  0  0  0  0  0  0  0
   -1.5139   -1.6369    0.6232 H   0  0  0  0  0  0  0  0  0  0  0  0
   -2.2303    0.8796   -0.2034 H   0  0  0  0  0  0  0  0  0  0  0  0
  1  2  2  0
  2  3  1  0
  3  4  1  0
  4  5  1  0
  5  6  1  0
  6  7  1  0
  7  8  1  0
  8  9  1  0
  6  2  1  0
  9  7  1  0
  8  3  1  0
  9  5  1  0
  3 10  1  0
  5 11  1  0
  6 12  1  0
  7 13  1  0
  8 14  1  0
  9 15  1  0
M  END
