
     RDKit          3D

 19 20  0  0  0  0  0  0  0  0999 V2000
    2.6587    1.7470    0.9598 O   0  0  0  0  0  0  0  0  0  0  0  0
    1.7349    1.0349    0.4984 C   0  0  0  0  0  0  0  0  0  0  0  0
    2.0059   -0.2641   -0.2030 C   0  0  0  0  0  0  0  0  0  0  0  0
    0.7933   -1.1608    0.0210 C   0  0  0  0  0  0  0  0  0  0  0  0
   -0.4545   -0.5460   -0.5463 C   0  0  0  0  0  0  0  0  0  0  0  0
   -1.6775   -0.6374    0.3454 C   0  0  0  0  0  0  0  0  0  0  0  0
   -1.8897    0.8468    0.1673 C   0  0  0  0  0  0  0  0  0  0  0  0
   -0.4886    0.9391   -0.3822 C   0  0  0  0  0  0  0  0  0  0  0  0
    0.4027    1.4134    0.6128 O   0  0  0  0  0  0  0  0  0  0  0  0
    2.8859   -0.7353    0.2449 H   0  0  0  0  0  0  0  0  0  0  0  0
    2.0691   -0.0748   -1.2804 H   0  0  0  0  0  0  0  0  0  0  0  0
    0.6817   -1.4115    1.0978 H   0  0  0  0  0  0  0  0  0  0  0  0
    0.9983   -2.0980   -0.5458 H   0  0  0  0  0  0  0  0  0  0  0  0
   -0.7006   -0.9167   -1.5560 H   0  0  0  0  0  0  0  0  0  0  0  0
   -1.4319   -0.9325    1.3812 H   0  0  0  0  0  0  0  0  0  0  0  0
   -2.5121   -1.2229   -0.0312 H   0  0  0  0  0  0  0  0  0  0  0  0
   -2.6368    1.1464   -0.5788 H   0  0  0  0  0  0  0  0  0  0  0  0
   -2.0537    1.3790    1.1279 H   0  0  0  0  0  0  0  0  0  0  0  0
   -0.3850    1.4934   -1.3327 H   0  0  0  0  0  0  0  0  0  0  0  0
  1  2  2  0
  2  3  1  0
  3  4  1  0
  4  5  1  0
  5  6  1  0
  6  7  1  0
  7  8  1  0
  8  9  1  0
  9  2  1  0
  8  5  1  0
  3 10  1  0
  3 11  1  0
  4 12  1  0
  4 13  1  0
  5 14  1  0
  6 15  1  0
  6 16  1  0
  7 17  1  0
  7 18  1  0
  8 19  1  0
M  END
