
     RDKit          3D

 16 17  0  0  0  0  0  0  0  0999 V2000
   -0.7338   -1.1595   -2.1534 O   0  0  0  0  0  0  0  0  0  0  0  0
   -0.3802   -0.6770   -1.1142 C   0  0  0  0  0  0  0  0  0  0  0  0
   -1.3027   -0.6255    0.0743 C   0  0  0  0  0  0  0  0  0  0  0  0
   -1.2701    0.7575    0.6087 C   0  0  0  0  0  0  0  0  0  0  0  0
   -0.0915    1.3497    0.7857 O   0  0  0  0  0  0  0  0  0  0  0  0
    1.0175    0.9342    0.1750 C   0  0  0  0  0  0  0  0  0  0  0  0
    1.6191   -0.4352    0.4406 C   0  0  0  0  0  0  0  0  0  0  0  0
    0.9610   -0.0845   -0.8561 C   0  0  0  0  0  0  0  0  0  0  0  0
   -2.3355   -0.8919   -0.2130 H   0  0  0  0  0  0  0  0  0  0  0  0
   -0.9527   -1.3884    0.8029 H   0  0  0  0  0  0  0  0  0  0  0  0
   -1.9125    1.3956   -0.0662 H   0  0  0  0  0  0  0  0  0  0  0  0
   -1.8376    0.7537    1.5859 H   0  0  0  0  0  0  0  0  0  0  0  0
    1.8230    1.7174    0.0540 H   0  0  0  0  0  0  0  0  0  0  0  0
    1.0932   -1.0150    1.2160 H   0  0  0  0  0  0  0  0  0  0  0  0
    2.6973   -0.5809    0.4217 H   0  0  0  0  0  0  0  0  0  0  0  0
    1.6056   -0.0503   -1.7618 H   0  0  0  0  0  0  0  0  0  0  0  0
  1  2  2  0
  2  3  1  0
  3  4  1  0
  4  5  1  0
  5  6  1  0
  6  7  1  0
  7  8  1  0
  8  2  1  0
  8  6  1  0
  3  9  1  0
  3 10  1  0
  4 11  1  0
  4 12  1  0
  6 13  1  0
  7 14  1  0
  7 15  1  0
  8 16  1  0
M  END
