
     RDKit          3D

 16 17  0  0  0  0  0  0  0  0999 V2000
    2.2345    0.0334    1.9473 O   0  0  0  0  0  0  0  0  0  0  0  0
    1.5081    0.3062    0.9454 C   0  0  0  0  0  0  0  0  0  0  0  0
    1.8489    0.0556   -0.4978 C   0  0  0  0  0  0  0  0  0  0  0  0
    0.5198   -0.3988   -1.0371 C   0  0  0  0  0  0  0  0  0  0  0  0
   -0.4649    0.2822   -0.1512 C   0  0  0  0  0  0  0  0  0  0  0  0
   -1.6537   -0.5371    0.3275 C   0  0  0  0  0  0  0  0  0  0  0  0
   -1.8073    0.6673   -0.5391 C   0  0  0  0  0  0  0  0  0  0  0  0
    0.2487    0.8884    0.9094 O   0  0  0  0  0  0  0  0  0  0  0  0
    2.1079    1.0508   -0.9212 H   0  0  0  0  0  0  0  0  0  0  0  0
    2.6303   -0.6995   -0.6165 H   0  0  0  0  0  0  0  0  0  0  0  0
    0.3936   -0.1712   -2.1184 H   0  0  0  0  0  0  0  0  0  0  0  0
    0.4514   -1.4952   -0.8383 H   0  0  0  0  0  0  0  0  0  0  0  0
   -1.9584   -0.4684    1.3922 H   0  0  0  0  0  0  0  0  0  0  0  0
   -1.7170   -1.5553   -0.0767 H   0  0  0  0  0  0  0  0  0  0  0  0
   -2.1067    0.4535   -1.5975 H   0  0  0  0  0  0  0  0  0  0  0  0
   -2.2352    1.5880   -0.1468 H   0  0  0  0  0  0  0  0  0  0  0  0
  1  2  2  0
  2  3  1  0
  3  4  1  0
  4  5  1  0
  5  6  1  0
  6  7  1  0
  5  8  1  0
  8  2  1  0
  7  5  1  0
  3  9  1  0
  3 10  1  0
  4 11  1  0
  4 12  1  0
  6 13  1  0
  6 14  1  0
  7 15  1  0
  7 16  1  0
M  END
