
     RDKit          3D

 19 20  0  0  0  0  0  0  0  0999 V2000
   -1.6202   -2.0270    1.1808 O   0  0  0  0  0  0  0  0  0  0  0  0
   -1.1247   -1.0770    0.6285 C   0  0  0  0  0  0  0  0  0  0  0  0
   -1.9898   -0.0911   -0.1181 C   0  0  0  0  0  0  0  0  0  0  0  0
   -1.6744    1.1590    0.3854 O   0  0  0  0  0  0  0  0  0  0  0  0
   -0.3769    1.4581   -0.0719 C   0  0  0  0  0  0  0  0  0  0  0  0
    0.6720    0.6499    0.6431 C   0  0  0  0  0  0  0  0  0  0  0  0
    1.8394    0.2507   -0.2690 C   0  0  0  0  0  0  0  0  0  0  0  0
    0.9326   -0.8949   -0.7366 C   0  0  0  0  0  0  0  0  0  0  0  0
    0.3204   -0.8428    0.6588 C   0  0  0  0  0  0  0  0  0  0  0  0
   -3.0548   -0.3495   -0.0502 H   0  0  0  0  0  0  0  0  0  0  0  0
   -1.7116   -0.1308   -1.2000 H   0  0  0  0  0  0  0  0  0  0  0  0
   -0.2028    2.5258    0.2060 H   0  0  0  0  0  0  0  0  0  0  0  0
   -0.3234    1.3691   -1.1761 H   0  0  0  0  0  0  0  0  0  0  0  0
    0.9573    1.0514    1.6110 H   0  0  0  0  0  0  0  0  0  0  0  0
    2.6532   -0.1371    0.3623 H   0  0  0  0  0  0  0  0  0  0  0  0
    2.0913    0.9770   -1.0401 H   0  0  0  0  0  0  0  0  0  0  0  0
    0.2484   -0.6418   -1.5454 H   0  0  0  0  0  0  0  0  0  0  0  0
    1.4512   -1.8602   -0.8594 H   0  0  0  0  0  0  0  0  0  0  0  0
    0.9130   -1.3888    1.3908 H   0  0  0  0  0  0  0  0  0  0  0  0
  1  2  2  0
  2  3  1  0
  3  4  1  0
  4  5  1  0
  5  6  1  0
  6  7  1  0
  7  8  1  0
  8  9  1  0
  9  2  1  0
  9  6  1  0
  3 10  1  0
  3 11  1  0
  5 12  1  0
  5 13  1  0
  6 14  1  0
  7 15  1  0
  7 16  1  0
  8 17  1  0
  8 18  1  0
  9 19  1  0
M  END
