
     RDKit          3D

 17 18  0  0  0  0  0  0  0  0999 V2000
    0.9736   -0.4527    2.3629 O   0  0  0  0  0  0  0  0  0  0  0  0
    0.6467   -0.1092    1.2374 C   0  0  0  0  0  0  0  0  0  0  0  0
    1.6148    0.3344    0.2203 C   0  0  0  0  0  0  0  0  0  0  0  0
    0.8621    0.2208   -1.0803 C   0  0  0  0  0  0  0  0  0  0  0  0
   -0.5748   -0.0532   -0.7514 C   0  0  0  0  0  0  0  0  0  0  0  0
   -1.2329   -1.0448   -1.4349 O   0  0  0  0  0  0  0  0  0  0  0  0
   -1.2766    1.0393   -0.0424 C   0  0  0  0  0  0  0  0  0  0  0  0
   -0.7286   -0.0832    0.7278 C   0  0  0  0  0  0  0  0  0  0  0  0
   -1.6800   -0.9528    1.2938 O   0  0  0  0  0  0  0  0  0  0  0  0
    2.5270   -0.2955    0.1692 H   0  0  0  0  0  0  0  0  0  0  0  0
    1.9186    1.3612    0.4486 H   0  0  0  0  0  0  0  0  0  0  0  0
    1.3286   -0.5096   -1.7426 H   0  0  0  0  0  0  0  0  0  0  0  0
    0.8919    1.2040   -1.6070 H   0  0  0  0  0  0  0  0  0  0  0  0
   -0.8346   -1.9196   -1.1242 H   0  0  0  0  0  0  0  0  0  0  0  0
   -2.3495    1.1079   -0.1862 H   0  0  0  0  0  0  0  0  0  0  0  0
   -0.7693    2.0143    0.0822 H   0  0  0  0  0  0  0  0  0  0  0  0
   -1.3170   -1.8610    1.4267 H   0  0  0  0  0  0  0  0  0  0  0  0
  1  2  2  0
  2  3  1  0
  3  4  1  0
  4  5  1  0
  5  6  1  0
  5  7  1  0
  7  8  1  0
  8  9  1  0
  8  2  1  0
  8  5  1  0
  3 10  1  0
  3 11  1  0
  4 12  1  0
  4 13  1  0
  6 14  1  0
  7 15  1  0
  7 16  1  0
  9 17  1  0
M  END
