
     RDKit          3D

 15 17  0  0  0  0  0  0  0  0999 V2000
    1.2710    1.0834    2.0862 O   0  0  0  0  0  0  0  0  0  0  0  0
    1.2871    0.7625    0.8804 C   0  0  0  0  0  0  0  0  0  0  0  0
    2.1407    1.0879   -0.1579 O   0  0  0  0  0  0  0  0  0  0  0  0
    1.7412   -0.1210   -0.8246 C   0  0  0  0  0  0  0  0  0  0  0  0
    0.5138   -0.0391   -0.0169 C   0  0  0  0  0  0  0  0  0  0  0  0
   -0.8240    0.2268   -0.5123 C   0  0  0  0  0  0  0  0  0  0  0  0
   -1.9465    0.3362    0.4639 C   0  0  0  0  0  0  0  0  0  0  0  0
   -1.5065   -0.8477    1.0564 O   0  0  0  0  0  0  0  0  0  0  0  0
   -0.4268   -1.0785    0.2537 C   0  0  0  0  0  0  0  0  0  0  0  0
    2.4510   -0.9195   -0.5272 H   0  0  0  0  0  0  0  0  0  0  0  0
    1.5496   -0.0064   -1.8966 H   0  0  0  0  0  0  0  0  0  0  0  0
   -1.0199    0.0861   -1.5904 H   0  0  0  0  0  0  0  0  0  0  0  0
   -1.8711    1.1638    1.1862 H   0  0  0  0  0  0  0  0  0  0  0  0
   -2.9454    0.2724   -0.0261 H   0  0  0  0  0  0  0  0  0  0  0  0
   -0.4143   -2.0069   -0.3749 H   0  0  0  0  0  0  0  0  0  0  0  0
  1  2  2  0
  2  3  1  0
  3  4  1  0
  4  5  1  0
  5  6  1  0
  6  7  1  0
  7  8  1  0
  8  9  1  0
  5  2  1  0
  9  6  1  0
  9  5  1  0
  4 10  1  0
  4 11  1  0
  6 12  1  0
  7 13  1  0
  7 14  1  0
  9 15  1  0
M  END
