
     RDKit          3D

 17 19  0  0  0  0  0  0  0  0999 V2000
    2.2704    1.6781   -0.8426 O   0  0  0  0  0  0  0  0  0  0  0  0
    1.5733    0.8224   -0.3523 C   0  0  0  0  0  0  0  0  0  0  0  0
    1.2326    0.4302    1.0449 C   0  0  0  0  0  0  0  0  0  0  0  0
    1.3063   -1.0096    0.5026 C   0  0  0  0  0  0  0  0  0  0  0  0
    0.6676   -0.3112   -0.6904 C   0  0  0  0  0  0  0  0  0  0  0  0
   -0.6061    0.1682   -0.0690 C   0  0  0  0  0  0  0  0  0  0  0  0
   -1.8664   -0.5652   -0.1143 C   0  0  0  0  0  0  0  0  0  0  0  0
   -1.6980    0.7880   -0.7981 C   0  0  0  0  0  0  0  0  0  0  0  0
   -0.1083    0.7102    1.1430 O   0  0  0  0  0  0  0  0  0  0  0  0
    1.9062    0.6828    1.8271 H   0  0  0  0  0  0  0  0  0  0  0  0
    2.3747   -1.2587    0.3705 H   0  0  0  0  0  0  0  0  0  0  0  0
    0.6761   -1.7250    1.0258 H   0  0  0  0  0  0  0  0  0  0  0  0
    0.7006   -0.7593   -1.6382 H   0  0  0  0  0  0  0  0  0  0  0  0
   -2.5680   -0.5055    0.7553 H   0  0  0  0  0  0  0  0  0  0  0  0
   -1.9016   -1.4783   -0.7233 H   0  0  0  0  0  0  0  0  0  0  0  0
   -2.2866    1.6430   -0.4653 H   0  0  0  0  0  0  0  0  0  0  0  0
   -1.6726    0.6901   -1.9168 H   0  0  0  0  0  0  0  0  0  0  0  0
  1  2  2  0
  2  3  1  0
  3  4  1  0
  4  5  1  0
  5  6  1  0
  6  7  1  0
  7  8  1  0
  6  9  1  0
  5  2  1  0
  8  6  1  0
  9  3  1  0
  3 10  1  0
  4 11  1  0
  4 12  1  0
  5 13  1  0
  7 14  1  0
  7 15  1  0
  8 16  1  0
  8 17  1  0
M  END
