
     RDKit          3D

 17 19  0  0  0  0  0  0  0  0999 V2000
    1.4369    2.3136    0.2104 O   0  0  0  0  0  0  0  0  0  0  0  0
    0.9815    1.2236    0.0512 C   0  0  0  0  0  0  0  0  0  0  0  0
    1.6573    0.0627   -0.5909 C   0  0  0  0  0  0  0  0  0  0  0  0
    0.4861   -0.9004   -0.5699 C   0  0  0  0  0  0  0  0  0  0  0  0
   -0.0890   -0.7500    0.7948 C   0  0  0  0  0  0  0  0  0  0  0  0
   -1.4356   -1.0066    0.1721 C   0  0  0  0  0  0  0  0  0  0  0  0
   -0.7473   -0.0797   -0.7977 C   0  0  0  0  0  0  0  0  0  0  0  0
   -0.3239    0.6880    0.4134 C   0  0  0  0  0  0  0  0  0  0  0  0
   -1.2143    1.4141    1.0973 O   0  0  0  0  0  0  0  0  0  0  0  0
    2.4384   -0.3216    0.0844 H   0  0  0  0  0  0  0  0  0  0  0  0
    1.9725    0.2403   -1.6144 H   0  0  0  0  0  0  0  0  0  0  0  0
    0.5900   -1.8580   -1.0252 H   0  0  0  0  0  0  0  0  0  0  0  0
    0.2515   -1.0958    1.6674 H   0  0  0  0  0  0  0  0  0  0  0  0
   -2.2823   -0.5345    0.7134 H   0  0  0  0  0  0  0  0  0  0  0  0
   -1.6234   -2.0273   -0.1915 H   0  0  0  0  0  0  0  0  0  0  0  0
   -1.1082    0.2679   -1.6621 H   0  0  0  0  0  0  0  0  0  0  0  0
   -0.9899    2.3636    1.2475 H   0  0  0  0  0  0  0  0  0  0  0  0
  1  2  2  0
  2  3  1  0
  3  4  1  0
  4  5  1  0
  5  6  1  0
  6  7  1  0
  7  8  1  0
  8  9  1  0
  8  2  1  0
  7  4  1  0
  8  5  1  0
  3 10  1  0
  3 11  1  0
  4 12  1  0
  5 13  1  0
  6 14  1  0
  6 15  1  0
  7 16  1  0
  9 17  1  0
M  END
