
     RDKit          3D

 16 18  0  0  0  0  0  0  0  0999 V2000
   -2.1125    1.6033    0.8339 O   0  0  0  0  0  0  0  0  0  0  0  0
   -1.3486    0.7880    0.3742 C   0  0  0  0  0  0  0  0  0  0  0  0
   -0.5606    0.5821   -0.8731 C   0  0  0  0  0  0  0  0  0  0  0  0
   -0.8945   -0.8945   -0.6734 C   0  0  0  0  0  0  0  0  0  0  0  0
   -0.7372   -0.5066    0.7877 C   0  0  0  0  0  0  0  0  0  0  0  0
    0.6980   -0.1226    0.9429 C   0  0  0  0  0  0  0  0  0  0  0  0
    1.7339   -0.3634   -0.0527 C   0  0  0  0  0  0  0  0  0  0  0  0
    0.8374    0.7443   -0.3625 C   0  0  0  0  0  0  0  0  0  0  0  0
   -0.8733    1.0521   -1.7697 H   0  0  0  0  0  0  0  0  0  0  0  0
   -1.9579   -1.0923   -0.9095 H   0  0  0  0  0  0  0  0  0  0  0  0
   -0.1795   -1.5950   -1.0849 H   0  0  0  0  0  0  0  0  0  0  0  0
   -1.2270   -1.0947    1.5247 H   0  0  0  0  0  0  0  0  0  0  0  0
    0.9355    0.3945    1.8842 H   0  0  0  0  0  0  0  0  0  0  0  0
    2.7681   -0.0460    0.2650 H   0  0  0  0  0  0  0  0  0  0  0  0
    1.7858   -1.2361   -0.7208 H   0  0  0  0  0  0  0  0  0  0  0  0
    1.1323    1.7869   -0.1660 H   0  0  0  0  0  0  0  0  0  0  0  0
  1  2  2  0
  2  3  1  0
  3  4  1  0
  4  5  1  0
  5  6  1  0
  6  7  1  0
  7  8  1  0
  5  2  1  0
  8  6  1  0
  8  3  1  0
  3  9  1  0
  4 10  1  0
  4 11  1  0
  5 12  1  0
  6 13  1  0
  7 14  1  0
  7 15  1  0
  8 16  1  0
M  END
