
     RDKit          3D

 14 15  0  0  0  0  0  0  0  0999 V2000
    0.2643   -2.0469   -1.3361 O   0  0  0  0  0  0  0  0  0  0  0  0
    0.4815   -1.0811   -0.6398 C   0  0  0  0  0  0  0  0  0  0  0  0
   -0.1285    0.2474   -0.3076 C   0  0  0  0  0  0  0  0  0  0  0  0
   -1.4473    0.0432    0.3818 C   0  0  0  0  0  0  0  0  0  0  0  0
   -2.0698    1.2247    0.7190 O   0  0  0  0  0  0  0  0  0  0  0  0
    1.0261    0.4707    0.6198 C   0  0  0  0  0  0  0  0  0  0  0  0
    2.2859    0.4120   -0.0727 O   0  0  0  0  0  0  0  0  0  0  0  0
    1.5844   -0.7191    0.3245 C   0  0  0  0  0  0  0  0  0  0  0  0
   -0.1483    0.8742   -1.1993 H   0  0  0  0  0  0  0  0  0  0  0  0
   -2.0813   -0.5964   -0.2893 H   0  0  0  0  0  0  0  0  0  0  0  0
   -1.2746   -0.5314    1.3203 H   0  0  0  0  0  0  0  0  0  0  0  0
   -1.5961    2.0309    0.3701 H   0  0  0  0  0  0  0  0  0  0  0  0
    1.0244    1.2055    1.4039 H   0  0  0  0  0  0  0  0  0  0  0  0
    2.0793   -1.5338    0.8438 H   0  0  0  0  0  0  0  0  0  0  0  0
  1  2  2  0
  2  3  1  0
  3  4  1  0
  4  5  1  0
  3  6  1  0
  6  7  1  0
  7  8  1  0
  8  2  1  0
  8  6  1  0
  3  9  1  0
  4 10  1  0
  4 11  1  0
  5 12  1  0
  6 13  1  0
  8 14  1  0
M  END
