
     RDKit          3D

 19 20  0  0  0  0  0  0  0  0999 V2000
   -2.2957    1.1139    1.4756 O   0  0  0  0  0  0  0  0  0  0  0  0
   -1.3730    0.6088    0.9034 C   0  0  0  0  0  0  0  0  0  0  0  0
   -0.2825   -0.2650    1.4405 C   0  0  0  0  0  0  0  0  0  0  0  0
    0.1489   -1.1179    0.2527 C   0  0  0  0  0  0  0  0  0  0  0  0
    1.4896   -0.6410   -0.2979 C   0  0  0  0  0  0  0  0  0  0  0  0
    1.4145    0.8448   -0.3195 C   0  0  0  0  0  0  0  0  0  0  0  0
    0.2578    1.4056   -0.6490 C   0  0  0  0  0  0  0  0  0  0  0  0
   -1.0321    0.7087   -0.5631 C   0  0  0  0  0  0  0  0  0  0  0  0
   -0.8489   -0.7854   -0.8588 C   0  0  0  0  0  0  0  0  0  0  0  0
   -0.6564   -0.8626    2.2731 H   0  0  0  0  0  0  0  0  0  0  0  0
    0.5424    0.4267    1.7311 H   0  0  0  0  0  0  0  0  0  0  0  0
    0.1694   -2.1808    0.4920 H   0  0  0  0  0  0  0  0  0  0  0  0
    1.5241   -0.9689   -1.3652 H   0  0  0  0  0  0  0  0  0  0  0  0
    2.3322   -1.0262    0.2736 H   0  0  0  0  0  0  0  0  0  0  0  0
    2.3103    1.3991   -0.0646 H   0  0  0  0  0  0  0  0  0  0  0  0
    0.2740    2.4298   -0.9981 H   0  0  0  0  0  0  0  0  0  0  0  0
   -1.8103    1.1664   -1.1512 H   0  0  0  0  0  0  0  0  0  0  0  0
   -0.3772   -0.9396   -1.8470 H   0  0  0  0  0  0  0  0  0  0  0  0
   -1.7873   -1.3164   -0.7276 H   0  0  0  0  0  0  0  0  0  0  0  0
  1  2  2  0
  2  3  1  0
  3  4  1  0
  4  5  1  0
  5  6  1  0
  6  7  2  0
  7  8  1  0
  8  9  1  0
  8  2  1  0
  9  4  1  0
  3 10  1  0
  3 11  1  0
  4 12  1  0
  5 13  1  0
  5 14  1  0
  6 15  1  0
  7 16  1  0
  8 17  1  0
  9 18  1  0
  9 19  1  0
M  END
