
     RDKit          3D

 17 18  0  0  0  0  0  0  0  0999 V2000
    2.7960    0.2816    0.2589 O   0  0  0  0  0  0  0  0  0  0  0  0
    1.6450    0.2019   -0.0839 C   0  0  0  0  0  0  0  0  0  0  0  0
    0.7137   -0.8618   -0.5314 C   0  0  0  0  0  0  0  0  0  0  0  0
    0.8287   -2.0756    0.1328 O   0  0  0  0  0  0  0  0  0  0  0  0
   -0.3876    0.0138   -0.0701 C   0  0  0  0  0  0  0  0  0  0  0  0
   -1.7763   -0.1010   -0.2981 C   0  0  0  0  0  0  0  0  0  0  0  0
   -1.1496   -0.3191    1.1103 C   0  0  0  0  0  0  0  0  0  0  0  0
    0.5225    1.1575   -0.2424 C   0  0  0  0  0  0  0  0  0  0  0  0
    0.4639    2.2050    0.6233 O   0  0  0  0  0  0  0  0  0  0  0  0
    0.8251   -1.0183   -1.6246 H   0  0  0  0  0  0  0  0  0  0  0  0
    1.2845   -2.7580   -0.4275 H   0  0  0  0  0  0  0  0  0  0  0  0
   -2.2631   -0.9945   -0.7429 H   0  0  0  0  0  0  0  0  0  0  0  0
   -2.4197    0.7973   -0.3473 H   0  0  0  0  0  0  0  0  0  0  0  0
   -1.1317   -1.4012    1.4346 H   0  0  0  0  0  0  0  0  0  0  0  0
   -1.4554    0.3702    1.9045 H   0  0  0  0  0  0  0  0  0  0  0  0
    0.5361    1.5285   -1.3095 H   0  0  0  0  0  0  0  0  0  0  0  0
    0.9678    2.9736    0.2135 H   0  0  0  0  0  0  0  0  0  0  0  0
  1  2  2  0
  2  3  1  0
  3  4  1  0
  3  5  1  0
  5  6  1  0
  6  7  1  0
  5  8  1  0
  8  9  1  0
  8  2  1  0
  7  5  1  0
  3 10  1  0
  4 11  1  0
  6 12  1  0
  6 13  1  0
  7 14  1  0
  7 15  1  0
  8 16  1  0
  9 17  1  0
M  END
