
     RDKit          3D

 15 16  0  0  0  0  0  0  0  0999 V2000
    3.4471    0.7482    0.0541 O   0  0  0  0  0  0  0  0  0  0  0  0
    2.2405    0.4243   -0.0346 C   0  0  0  0  0  0  0  0  0  0  0  0
    1.0818    1.3260   -0.1774 C   0  0  0  0  0  0  0  0  0  0  0  0
    0.0020    0.6381   -0.2445 C   0  0  0  0  0  0  0  0  0  0  0  0
   -1.4490    0.5299   -0.3635 C   0  0  0  0  0  0  0  0  0  0  0  0
   -1.6547   -0.5626    0.6837 C   0  0  0  0  0  0  0  0  0  0  0  0
   -0.5463   -1.3419    0.7010 C   0  0  0  0  0  0  0  0  0  0  0  0
    0.4064   -0.8169   -0.3026 C   0  0  0  0  0  0  0  0  0  0  0  0
    1.7471   -0.8744   -0.0154 O   0  0  0  0  0  0  0  0  0  0  0  0
    1.2447    2.4172   -0.2100 H   0  0  0  0  0  0  0  0  0  0  0  0
   -1.9934    1.4450   -0.0606 H   0  0  0  0  0  0  0  0  0  0  0  0
   -1.7567    0.1780   -1.3571 H   0  0  0  0  0  0  0  0  0  0  0  0
   -2.5059   -0.6952    1.2912 H   0  0  0  0  0  0  0  0  0  0  0  0
   -0.4310   -2.1915    1.3578 H   0  0  0  0  0  0  0  0  0  0  0  0
    0.1673   -1.2244   -1.3221 H   0  0  0  0  0  0  0  0  0  0  0  0
  1  2  2  0
  2  3  1  0
  3  4  2  0
  4  5  1  0
  5  6  1  0
  6  7  2  0
  7  8  1  0
  8  9  1  0
  9  2  1  0
  8  4  1  0
  3 10  1  0
  5 11  1  0
  5 12  1  0
  6 13  1  0
  7 14  1  0
  8 15  1  0
M  END
