
     RDKit          3D

 17 18  0  0  0  0  0  0  0  0999 V2000
   -1.0703    2.1991    1.2794 O   0  0  0  0  0  0  0  0  0  0  0  0
   -0.9992    1.0716    0.7241 C   0  0  0  0  0  0  0  0  0  0  0  0
   -1.1284   -0.1761    1.3229 O   0  0  0  0  0  0  0  0  0  0  0  0
   -0.4379   -1.0612    0.4576 C   0  0  0  0  0  0  0  0  0  0  0  0
    1.0235   -0.7304    0.5503 C   0  0  0  0  0  0  0  0  0  0  0  0
    1.4491    0.4878   -0.1625 C   0  0  0  0  0  0  0  0  0  0  0  0
    0.5839    1.0215   -1.0663 O   0  0  0  0  0  0  0  0  0  0  0  0
   -0.7536    0.8892   -0.7306 C   0  0  0  0  0  0  0  0  0  0  0  0
   -1.0372   -0.6134   -0.8829 C   0  0  0  0  0  0  0  0  0  0  0  0
   -0.6311   -2.1142    0.6661 H   0  0  0  0  0  0  0  0  0  0  0  0
    1.6264   -1.6416    0.2913 H   0  0  0  0  0  0  0  0  0  0  0  0
    1.2378   -0.5793    1.6513 H   0  0  0  0  0  0  0  0  0  0  0  0
    1.7545    1.3175    0.5414 H   0  0  0  0  0  0  0  0  0  0  0  0
    2.4054    0.2497   -0.7159 H   0  0  0  0  0  0  0  0  0  0  0  0
   -1.4016    1.5028   -1.3376 H   0  0  0  0  0  0  0  0  0  0  0  0
   -0.5064   -1.0438   -1.7329 H   0  0  0  0  0  0  0  0  0  0  0  0
   -2.1148   -0.7790   -0.8556 H   0  0  0  0  0  0  0  0  0  0  0  0
  1  2  2  0
  2  3  1  0
  3  4  1  0
  4  5  1  0
  5  6  1  0
  6  7  1  0
  7  8  1  0
  8  9  1  0
  8  2  1  0
  9  4  1  0
  4 10  1  0
  5 11  1  0
  5 12  1  0
  6 13  1  0
  6 14  1  0
  8 15  1  0
  9 16  1  0
  9 17  1  0
M  END
