
     RDKit          3D

 14 15  0  0  0  0  0  0  0  0999 V2000
    1.8845    1.4618    1.2940 O   0  0  0  0  0  0  0  0  0  0  0  0
    1.0900    1.0018    0.4502 C   0  0  0  0  0  0  0  0  0  0  0  0
   -0.1329    1.5970    0.2771 O   0  0  0  0  0  0  0  0  0  0  0  0
   -1.2571    0.7955   -0.0382 C   0  0  0  0  0  0  0  0  0  0  0  0
   -0.9036   -0.6294    0.3290 C   0  0  0  0  0  0  0  0  0  0  0  0
    0.2768   -1.0586   -0.5054 C   0  0  0  0  0  0  0  0  0  0  0  0
    1.3900   -1.4425    0.2018 O   0  0  0  0  0  0  0  0  0  0  0  0
    1.4655   -0.1702   -0.3515 C   0  0  0  0  0  0  0  0  0  0  0  0
   -1.5279    0.8609   -1.0984 H   0  0  0  0  0  0  0  0  0  0  0  0
   -2.0993    1.1833    0.5694 H   0  0  0  0  0  0  0  0  0  0  0  0
   -1.7375   -1.3284    0.1291 H   0  0  0  0  0  0  0  0  0  0  0  0
   -0.6901   -0.6876    1.4213 H   0  0  0  0  0  0  0  0  0  0  0  0
    0.0540   -1.5158   -1.4932 H   0  0  0  0  0  0  0  0  0  0  0  0
    2.1875   -0.0679   -1.1853 H   0  0  0  0  0  0  0  0  0  0  0  0
  1  2  2  0
  2  3  1  0
  3  4  1  0
  4  5  1  0
  5  6  1  0
  6  7  1  0
  7  8  1  0
  8  2  1  0
  8  6  1  0
  4  9  1  0
  4 10  1  0
  5 11  1  0
  5 12  1  0
  6 13  1  0
  8 14  1  0
M  END
