
     RDKit          3D

 16 16  0  0  0  0  0  0  0  0999 V2000
    2.4742    1.0884   -0.6537 O   0  0  0  0  0  0  0  0  0  0  0  0
    1.3880    0.6999   -0.2038 C   0  0  0  0  0  0  0  0  0  0  0  0
    1.1909   -0.6338    0.4597 C   0  0  0  0  0  0  0  0  0  0  0  0
    0.0189   -1.2836   -0.2059 C   0  0  0  0  0  0  0  0  0  0  0  0
   -1.2160   -0.4533   -0.2393 C   0  0  0  0  0  0  0  0  0  0  0  0
   -1.0403    0.9285    0.3402 C   0  0  0  0  0  0  0  0  0  0  0  0
    0.1677    1.5293   -0.2816 C   0  0  0  0  0  0  0  0  0  0  0  0
    0.1882    2.6480   -0.8371 O   0  0  0  0  0  0  0  0  0  0  0  0
    2.0591   -1.2810    0.3538 H   0  0  0  0  0  0  0  0  0  0  0  0
    1.0212   -0.4488    1.5394 H   0  0  0  0  0  0  0  0  0  0  0  0
    0.3445   -1.5426   -1.2538 H   0  0  0  0  0  0  0  0  0  0  0  0
   -0.1670   -2.2601    0.2982 H   0  0  0  0  0  0  0  0  0  0  0  0
   -1.6650   -0.3795   -1.2649 H   0  0  0  0  0  0  0  0  0  0  0  0
   -2.0189   -0.9520    0.3750 H   0  0  0  0  0  0  0  0  0  0  0  0
   -1.9329    1.5203    0.1385 H   0  0  0  0  0  0  0  0  0  0  0  0
   -0.8128    0.8202    1.4351 H   0  0  0  0  0  0  0  0  0  0  0  0
  1  2  2  0
  2  3  1  0
  3  4  1  0
  4  5  1  0
  5  6  1  0
  6  7  1  0
  7  8  2  0
  7  2  1  0
  3  9  1  0
  3 10  1  0
  4 11  1  0
  4 12  1  0
  5 13  1  0
  5 14  1  0
  6 15  1  0
  6 16  1  0
M  END
