
     RDKit          3D

 13 13  0  0  0  0  0  0  0  0999 V2000
    2.5378    1.2425   -0.3498 O   0  0  0  0  0  0  0  0  0  0  0  0
    1.4187    0.6930   -0.1988 C   0  0  0  0  0  0  0  0  0  0  0  0
    0.1777    1.4455   -0.0456 C   0  0  0  0  0  0  0  0  0  0  0  0
   -0.9926    0.8998    0.1121 C   0  0  0  0  0  0  0  0  0  0  0  0
   -1.2223   -0.5316    0.1570 C   0  0  0  0  0  0  0  0  0  0  0  0
   -0.0186   -1.3435    0.0093 C   0  0  0  0  0  0  0  0  0  0  0  0
   -0.1151   -2.6430    0.0356 O   0  0  0  0  0  0  0  0  0  0  0  0
    1.2847   -0.7502   -0.1661 C   0  0  0  0  0  0  0  0  0  0  0  0
    2.2758   -1.5271   -0.2866 O   0  0  0  0  0  0  0  0  0  0  0  0
    0.1932    2.5512   -0.0593 H   0  0  0  0  0  0  0  0  0  0  0  0
   -1.8860    1.5670    0.2210 H   0  0  0  0  0  0  0  0  0  0  0  0
   -1.6578   -0.7650    1.1816 H   0  0  0  0  0  0  0  0  0  0  0  0
   -1.9955   -0.8386   -0.6104 H   0  0  0  0  0  0  0  0  0  0  0  0
  1  2  2  0
  2  3  1  0
  3  4  2  0
  4  5  1  0
  5  6  1  0
  6  7  2  0
  6  8  1  0
  8  9  2  0
  8  2  1  0
  3 10  1  0
  4 11  1  0
  5 12  1  0
  5 13  1  0
M  END
