
     RDKit          3D

 15 16  0  0  0  0  0  0  0  0999 V2000
    3.0495   -0.7818   -0.1113 O   0  0  0  0  0  0  0  0  0  0  0  0
    1.9919   -0.1514    0.0444 C   0  0  0  0  0  0  0  0  0  0  0  0
    1.4493    0.9864   -0.5093 O   0  0  0  0  0  0  0  0  0  0  0  0
    0.2579    0.9211    0.2606 C   0  0  0  0  0  0  0  0  0  0  0  0
   -0.9299    0.3899   -0.4844 C   0  0  0  0  0  0  0  0  0  0  0  0
   -2.0377    0.4493    0.3569 O   0  0  0  0  0  0  0  0  0  0  0  0
   -0.5888   -1.0638   -0.6585 C   0  0  0  0  0  0  0  0  0  0  0  0
   -0.0348   -1.3693    0.6003 O   0  0  0  0  0  0  0  0  0  0  0  0
    0.8065   -0.3316    0.9088 C   0  0  0  0  0  0  0  0  0  0  0  0
    0.0941    1.7628    0.9365 H   0  0  0  0  0  0  0  0  0  0  0  0
   -1.1168    0.9222   -1.4297 H   0  0  0  0  0  0  0  0  0  0  0  0
   -2.4931    1.3314    0.2917 H   0  0  0  0  0  0  0  0  0  0  0  0
    0.1180   -1.2723   -1.4636 H   0  0  0  0  0  0  0  0  0  0  0  0
   -1.5444   -1.6248   -0.7307 H   0  0  0  0  0  0  0  0  0  0  0  0
    0.9784   -0.1682    1.9884 H   0  0  0  0  0  0  0  0  0  0  0  0
  1  2  2  0
  2  3  1  0
  3  4  1  0
  4  5  1  0
  5  6  1  0
  5  7  1  0
  7  8  1  0
  8  9  1  0
  9  2  1  0
  9  4  1  0
  4 10  1  0
  5 11  1  0
  6 12  1  0
  7 13  1  0
  7 14  1  0
  9 15  1  0
M  END
