
     RDKit          3D

 14 15  0  0  0  0  0  0  0  0999 V2000
    0.8042   -2.0116    0.7661 O   0  0  0  0  0  0  0  0  0  0  0  0
    0.6091   -0.9253    0.2563 C   0  0  0  0  0  0  0  0  0  0  0  0
    1.6931   -0.1632   -0.4472 C   0  0  0  0  0  0  0  0  0  0  0  0
    0.9768    0.7369   -1.2682 O   0  0  0  0  0  0  0  0  0  0  0  0
    0.0229    1.2202   -0.3729 C   0  0  0  0  0  0  0  0  0  0  0  0
   -0.5758   -0.0657    0.1447 C   0  0  0  0  0  0  0  0  0  0  0  0
   -1.8725   -0.5137   -0.3158 C   0  0  0  0  0  0  0  0  0  0  0  0
   -1.5758   -0.0657    1.0663 O   0  0  0  0  0  0  0  0  0  0  0  0
    2.2585    0.4642    0.2658 H   0  0  0  0  0  0  0  0  0  0  0  0
    2.3506   -0.8195   -1.0364 H   0  0  0  0  0  0  0  0  0  0  0  0
    0.5949    1.6702    0.4751 H   0  0  0  0  0  0  0  0  0  0  0  0
   -0.7061    1.8935   -0.8241 H   0  0  0  0  0  0  0  0  0  0  0  0
   -2.0453   -1.6088   -0.3824 H   0  0  0  0  0  0  0  0  0  0  0  0
   -2.5348    0.1884   -0.8378 H   0  0  0  0  0  0  0  0  0  0  0  0
  1  2  2  0
  2  3  1  0
  3  4  1  0
  4  5  1  0
  5  6  1  0
  6  7  1  0
  7  8  1  0
  6  2  1  0
  8  6  1  0
  3  9  1  0
  3 10  1  0
  5 11  1  0
  5 12  1  0
  7 13  1  0
  7 14  1  0
M  END
