
     RDKit          3D

 17 18  0  0  0  0  0  0  0  0999 V2000
    1.4962    1.9757    0.4914 O   0  0  0  0  0  0  0  0  0  0  0  0
    0.9683    0.9220    0.2842 C   0  0  0  0  0  0  0  0  0  0  0  0
    1.7966   -0.3197    0.0916 C   0  0  0  0  0  0  0  0  0  0  0  0
    1.0449   -1.4398   -0.0843 O   0  0  0  0  0  0  0  0  0  0  0  0
   -0.2974   -1.2833   -0.1762 C   0  0  0  0  0  0  0  0  0  0  0  0
   -0.9027   -0.4825    0.9806 C   0  0  0  0  0  0  0  0  0  0  0  0
   -0.4954    0.7448    0.2005 C   0  0  0  0  0  0  0  0  0  0  0  0
   -1.2809    1.8488    0.3165 O   0  0  0  0  0  0  0  0  0  0  0  0
   -0.7261   -0.1094   -1.0533 C   0  0  0  0  0  0  0  0  0  0  0  0
    2.4658   -0.3656    0.9838 H   0  0  0  0  0  0  0  0  0  0  0  0
    2.4785   -0.1047   -0.7812 H   0  0  0  0  0  0  0  0  0  0  0  0
   -0.8136   -2.2190   -0.4058 H   0  0  0  0  0  0  0  0  0  0  0  0
   -0.3495   -0.6866    1.8998 H   0  0  0  0  0  0  0  0  0  0  0  0
   -1.9882   -0.6153    0.9847 H   0  0  0  0  0  0  0  0  0  0  0  0
   -1.5066    2.1770   -0.6015 H   0  0  0  0  0  0  0  0  0  0  0  0
   -1.8134   -0.1596   -1.2385 H   0  0  0  0  0  0  0  0  0  0  0  0
   -0.0763    0.1172   -1.8924 H   0  0  0  0  0  0  0  0  0  0  0  0
  1  2  2  0
  2  3  1  0
  3  4  1  0
  4  5  1  0
  5  6  1  0
  6  7  1  0
  7  8  1  0
  7  9  1  0
  7  2  1  0
  9  5  1  0
  3 10  1  0
  3 11  1  0
  5 12  1  0
  6 13  1  0
  6 14  1  0
  8 15  1  0
  9 16  1  0
  9 17  1  0
M  END
