
     RDKit          3D

 15 16  0  0  0  0  0  0  0  0999 V2000
   -1.8507    2.5912   -0.0533 O   0  0  0  0  0  0  0  0  0  0  0  0
   -1.2817    1.4754    0.0633 C   0  0  0  0  0  0  0  0  0  0  0  0
   -2.0396    0.3232   -0.0952 O   0  0  0  0  0  0  0  0  0  0  0  0
   -1.5563   -1.0069   -0.1721 C   0  0  0  0  0  0  0  0  0  0  0  0
   -0.3515   -0.9483   -0.8482 O   0  0  0  0  0  0  0  0  0  0  0  0
    0.7541   -0.7817   -0.0746 C   0  0  0  0  0  0  0  0  0  0  0  0
    1.8659    0.1038   -0.5024 C   0  0  0  0  0  0  0  0  0  0  0  0
    0.9386    0.4594    0.6437 C   0  0  0  0  0  0  0  0  0  0  0  0
    0.0775    1.5267    0.3452 O   0  0  0  0  0  0  0  0  0  0  0  0
   -2.2879   -1.6934   -0.6253 H   0  0  0  0  0  0  0  0  0  0  0  0
   -1.3059   -1.2981    0.8846 H   0  0  0  0  0  0  0  0  0  0  0  0
    1.0921   -1.7192    0.4466 H   0  0  0  0  0  0  0  0  0  0  0  0
    1.7309    0.5917   -1.4815 H   0  0  0  0  0  0  0  0  0  0  0  0
    2.9049   -0.0544   -0.2051 H   0  0  0  0  0  0  0  0  0  0  0  0
    1.3097    0.4308    1.6744 H   0  0  0  0  0  0  0  0  0  0  0  0
  1  2  2  0
  2  3  1  0
  3  4  1  0
  4  5  1  0
  5  6  1  0
  6  7  1  0
  7  8  1  0
  8  9  1  0
  9  2  1  0
  8  6  1  0
  4 10  1  0
  4 11  1  0
  6 12  1  0
  7 13  1  0
  7 14  1  0
  8 15  1  0
M  END
