
     RDKit          3D

 14 15  0  0  0  0  0  0  0  0999 V2000
    2.4560    0.8790    1.0429 O   0  0  0  0  0  0  0  0  0  0  0  0
    1.4064    0.3157    0.6503 C   0  0  0  0  0  0  0  0  0  0  0  0
    0.7205   -0.6964    1.3177 O   0  0  0  0  0  0  0  0  0  0  0  0
   -0.4731   -0.9473    0.5722 C   0  0  0  0  0  0  0  0  0  0  0  0
   -1.3279    0.2640    0.5229 C   0  0  0  0  0  0  0  0  0  0  0  0
   -0.6540    1.1917   -0.1496 C   0  0  0  0  0  0  0  0  0  0  0  0
    0.6596    0.5765   -0.5778 C   0  0  0  0  0  0  0  0  0  0  0  0
    0.1329   -0.8507   -0.8455 C   0  0  0  0  0  0  0  0  0  0  0  0
   -0.9561   -1.8730    0.7733 H   0  0  0  0  0  0  0  0  0  0  0  0
   -2.3044    0.3344    0.9627 H   0  0  0  0  0  0  0  0  0  0  0  0
   -1.0330    2.1852   -0.3233 H   0  0  0  0  0  0  0  0  0  0  0  0
    1.1364    1.0360   -1.3957 H   0  0  0  0  0  0  0  0  0  0  0  0
    0.9299   -1.5608   -1.0010 H   0  0  0  0  0  0  0  0  0  0  0  0
   -0.6931   -0.8542   -1.5492 H   0  0  0  0  0  0  0  0  0  0  0  0
  1  2  2  0
  2  3  1  0
  3  4  1  0
  4  5  1  0
  5  6  2  0
  6  7  1  0
  7  8  1  0
  7  2  1  0
  8  4  1  0
  4  9  1  0
  5 10  1  0
  6 11  1  0
  7 12  1  0
  8 13  1  0
  8 14  1  0
M  END
