
     RDKit          3D

 17 18  0  0  0  0  0  0  0  0999 V2000
    2.0716   -1.2141    1.1291 O   0  0  0  0  0  0  0  0  0  0  0  0
    1.2529   -0.5187    0.6376 C   0  0  0  0  0  0  0  0  0  0  0  0
    0.5852   -0.6367   -0.6751 C   0  0  0  0  0  0  0  0  0  0  0  0
   -0.8580   -0.9995   -0.3449 C   0  0  0  0  0  0  0  0  0  0  0  0
   -1.4793    0.1569    0.4032 C   0  0  0  0  0  0  0  0  0  0  0  0
   -0.7190    0.4954    1.4980 O   0  0  0  0  0  0  0  0  0  0  0  0
    0.6333    0.7036    1.1918 C   0  0  0  0  0  0  0  0  0  0  0  0
    0.7556    1.5700    0.1018 O   0  0  0  0  0  0  0  0  0  0  0  0
    0.6333    0.8512   -1.0642 C   0  0  0  0  0  0  0  0  0  0  0  0
    1.0581   -1.2847   -1.3953 H   0  0  0  0  0  0  0  0  0  0  0  0
   -1.4281   -1.2842   -1.2267 H   0  0  0  0  0  0  0  0  0  0  0  0
   -0.7855   -1.8466    0.3822 H   0  0  0  0  0  0  0  0  0  0  0  0
   -2.4578   -0.2385    0.8057 H   0  0  0  0  0  0  0  0  0  0  0  0
   -1.7294    1.0136   -0.2398 H   0  0  0  0  0  0  0  0  0  0  0  0
    1.1307    1.0768    2.0808 H   0  0  0  0  0  0  0  0  0  0  0  0
    1.5825    0.9974   -1.6533 H   0  0  0  0  0  0  0  0  0  0  0  0
   -0.2463    1.1581   -1.6310 H   0  0  0  0  0  0  0  0  0  0  0  0
  1  2  2  0
  2  3  1  0
  3  4  1  0
  4  5  1  0
  5  6  1  0
  6  7  1  0
  7  8  1  0
  8  9  1  0
  7  2  1  0
  9  3  1  0
  3 10  1  0
  4 11  1  0
  4 12  1  0
  5 13  1  0
  5 14  1  0
  7 15  1  0
  9 16  1  0
  9 17  1  0
M  END
