
     RDKit          3D

 12 12  0  0  0  0  0  0  0  0999 V2000
   -1.6269    2.0644    0.1069 O   0  0  0  0  0  0  0  0  0  0  0  0
   -0.7675    1.1645    0.2414 C   0  0  0  0  0  0  0  0  0  0  0  0
   -1.0348   -0.2922    0.2090 C   0  0  0  0  0  0  0  0  0  0  0  0
    0.2101   -0.7345   -0.5737 C   0  0  0  0  0  0  0  0  0  0  0  0
    1.2675    0.0656    0.1774 C   0  0  0  0  0  0  0  0  0  0  0  0
    0.5892    1.2950    0.4455 O   0  0  0  0  0  0  0  0  0  0  0  0
   -0.9871   -0.7385    1.2224 H   0  0  0  0  0  0  0  0  0  0  0  0
   -1.8969   -0.5776   -0.3820 H   0  0  0  0  0  0  0  0  0  0  0  0
    0.3694   -1.8088   -0.5299 H   0  0  0  0  0  0  0  0  0  0  0  0
    0.1370   -0.2970   -1.5740 H   0  0  0  0  0  0  0  0  0  0  0  0
    1.5953   -0.4354    1.0992 H   0  0  0  0  0  0  0  0  0  0  0  0
    2.1446    0.2944   -0.4423 H   0  0  0  0  0  0  0  0  0  0  0  0
  1  2  2  0
  2  3  1  0
  3  4  1  0
  4  5  1  0
  5  6  1  0
  6  2  1  0
  3  7  1  0
  3  8  1  0
  4  9  1  0
  4 10  1  0
  5 11  1  0
  5 12  1  0
M  END
