
     RDKit          3D

 15 17  0  0  0  0  0  0  0  0999 V2000
   -0.5326    2.4434   -1.0748 O   0  0  0  0  0  0  0  0  0  0  0  0
   -0.3480    1.4175   -0.4832 C   0  0  0  0  0  0  0  0  0  0  0  0
    0.6074    0.9314    0.5222 C   0  0  0  0  0  0  0  0  0  0  0  0
    1.7115    0.1579   -0.1227 C   0  0  0  0  0  0  0  0  0  0  0  0
    1.2812   -1.0203   -0.5440 C   0  0  0  0  0  0  0  0  0  0  0  0
   -0.1700   -1.1279   -0.2094 C   0  0  0  0  0  0  0  0  0  0  0  0
   -0.3643   -0.1567    0.8474 C   0  0  0  0  0  0  0  0  0  0  0  0
   -1.0047    0.0757   -0.4598 C   0  0  0  0  0  0  0  0  0  0  0  0
   -2.3408   -0.0792   -0.6945 O   0  0  0  0  0  0  0  0  0  0  0  0
    0.9065    1.6094    1.3192 H   0  0  0  0  0  0  0  0  0  0  0  0
    2.7278    0.5120   -0.2317 H   0  0  0  0  0  0  0  0  0  0  0  0
    1.8499   -1.7895   -1.0435 H   0  0  0  0  0  0  0  0  0  0  0  0
   -0.6700   -2.0869   -0.1822 H   0  0  0  0  0  0  0  0  0  0  0  0
   -0.8736   -0.2606    1.7774 H   0  0  0  0  0  0  0  0  0  0  0  0
   -2.7804   -0.6261    0.0034 H   0  0  0  0  0  0  0  0  0  0  0  0
  1  2  2  0
  2  3  1  0
  3  4  1  0
  4  5  2  0
  5  6  1  0
  6  7  1  0
  7  8  1  0
  8  9  1  0
  8  2  1  0
  7  3  1  0
  8  6  1  0
  3 10  1  0
  4 11  1  0
  5 12  1  0
  6 13  1  0
  7 14  1  0
  9 15  1  0
M  END
