
     RDKit          3D

 17 19  0  0  0  0  0  0  0  0999 V2000
    0.4695   -2.6099    0.0577 O   0  0  0  0  0  0  0  0  0  0  0  0
    0.4363   -1.4248    0.1700 C   0  0  0  0  0  0  0  0  0  0  0  0
   -0.6834   -0.7256    0.7310 C   0  0  0  0  0  0  0  0  0  0  0  0
   -1.9822   -0.3896    0.2756 C   0  0  0  0  0  0  0  0  0  0  0  0
   -0.9761    0.3281   -0.4023 C   0  0  0  0  0  0  0  0  0  0  0  0
   -0.0157    1.3832   -0.0571 C   0  0  0  0  0  0  0  0  0  0  0  0
    1.3710    0.8130   -0.4069 C   0  0  0  0  0  0  0  0  0  0  0  0
    2.1365    0.3011    0.6577 O   0  0  0  0  0  0  0  0  0  0  0  0
    1.5625   -0.5735   -0.2665 C   0  0  0  0  0  0  0  0  0  0  0  0
   -0.4112   -0.2949    1.7443 H   0  0  0  0  0  0  0  0  0  0  0  0
   -2.5618   -1.1802   -0.2765 H   0  0  0  0  0  0  0  0  0  0  0  0
   -2.6752    0.1526    0.9533 H   0  0  0  0  0  0  0  0  0  0  0  0
   -0.7766   -0.0144   -1.4648 H   0  0  0  0  0  0  0  0  0  0  0  0
    0.0384    1.6495    1.0062 H   0  0  0  0  0  0  0  0  0  0  0  0
   -0.1995    2.2761   -0.6765 H   0  0  0  0  0  0  0  0  0  0  0  0
    1.9571    1.3953   -1.1290 H   0  0  0  0  0  0  0  0  0  0  0  0
    2.3105   -1.0860   -0.9162 H   0  0  0  0  0  0  0  0  0  0  0  0
  1  2  2  0
  2  3  1  0
  3  4  1  0
  4  5  1  0
  5  6  1  0
  6  7  1  0
  7  8  1  0
  8  9  1  0
  9  2  1  0
  5  3  1  0
  9  7  1  0
  3 10  1  0
  4 11  1  0
  4 12  1  0
  5 13  1  0
  6 14  1  0
  6 15  1  0
  7 16  1  0
  9 17  1  0
M  END
