
     RDKit          3D

 17 17  0  0  0  0  0  0  0  0999 V2000
   -1.4526    2.5018    0.0444 O   0  0  0  0  0  0  0  0  0  0  0  0
   -0.7598    1.4768   -0.1267 C   0  0  0  0  0  0  0  0  0  0  0  0
    0.6797    1.7216   -0.1092 C   0  0  0  0  0  0  0  0  0  0  0  0
    1.6485    0.8293   -0.0503 C   0  0  0  0  0  0  0  0  0  0  0  0
    1.5137   -0.6217    0.0117 C   0  0  0  0  0  0  0  0  0  0  0  0
    2.6157   -1.2087    0.1718 O   0  0  0  0  0  0  0  0  0  0  0  0
    0.3513   -1.4979   -0.0769 C   0  0  0  0  0  0  0  0  0  0  0  0
   -0.9081   -0.9230    0.5010 C   0  0  0  0  0  0  0  0  0  0  0  0
   -1.4783    0.1962   -0.3174 C   0  0  0  0  0  0  0  0  0  0  0  0
    1.0068    2.7564   -0.1488 H   0  0  0  0  0  0  0  0  0  0  0  0
    2.6568    1.2284   -0.0481 H   0  0  0  0  0  0  0  0  0  0  0  0
    0.5750   -2.4310    0.5198 H   0  0  0  0  0  0  0  0  0  0  0  0
    0.1139   -1.8418   -1.1042 H   0  0  0  0  0  0  0  0  0  0  0  0
   -0.8094   -0.6671    1.5783 H   0  0  0  0  0  0  0  0  0  0  0  0
   -1.6768   -1.7452    0.4705 H   0  0  0  0  0  0  0  0  0  0  0  0
   -2.5307    0.3533    0.0382 H   0  0  0  0  0  0  0  0  0  0  0  0
   -1.5459   -0.1275   -1.3543 H   0  0  0  0  0  0  0  0  0  0  0  0
  1  2  2  0
  2  3  1  0
  3  4  2  0
  4  5  1  0
  5  6  2  0
  5  7  1  0
  7  8  1  0
  8  9  1  0
  9  2  1  0
  3 10  1  0
  4 11  1  0
  7 12  1  0
  7 13  1  0
  8 14  1  0
  8 15  1  0
  9 16  1  0
  9 17  1  0
M  END
