
     RDKit          3D

 19 20  0  0  0  0  0  0  0  0999 V2000
    0.3843    2.3743    1.0553 O   0  0  0  0  0  0  0  0  0  0  0  0
    0.3508    1.3073    0.4839 C   0  0  0  0  0  0  0  0  0  0  0  0
    1.6118    0.5906    0.1593 C   0  0  0  0  0  0  0  0  0  0  0  0
    1.2897   -0.8853    0.2703 C   0  0  0  0  0  0  0  0  0  0  0  0
   -0.0594   -1.2122   -0.2597 C   0  0  0  0  0  0  0  0  0  0  0  0
   -0.6343   -0.1498   -1.1813 C   0  0  0  0  0  0  0  0  0  0  0  0
   -0.9108    0.6588    0.0792 C   0  0  0  0  0  0  0  0  0  0  0  0
   -2.0383    1.4340    0.0552 O   0  0  0  0  0  0  0  0  0  0  0  0
   -1.0857   -0.7040    0.7636 C   0  0  0  0  0  0  0  0  0  0  0  0
    2.4403    0.8736    0.8474 H   0  0  0  0  0  0  0  0  0  0  0  0
    1.9673    0.8249   -0.8651 H   0  0  0  0  0  0  0  0  0  0  0  0
    1.2727   -1.1034    1.3794 H   0  0  0  0  0  0  0  0  0  0  0  0
    2.1003   -1.5247   -0.1297 H   0  0  0  0  0  0  0  0  0  0  0  0
   -0.2340   -2.2397   -0.6033 H   0  0  0  0  0  0  0  0  0  0  0  0
    0.0701    0.3016   -1.8869 H   0  0  0  0  0  0  0  0  0  0  0  0
   -1.5842   -0.5276   -1.6125 H   0  0  0  0  0  0  0  0  0  0  0  0
   -2.1201    1.8289   -0.8498 H   0  0  0  0  0  0  0  0  0  0  0  0
   -0.7559   -0.7428    1.7960 H   0  0  0  0  0  0  0  0  0  0  0  0
   -2.0646   -1.1046    0.4988 H   0  0  0  0  0  0  0  0  0  0  0  0
  1  2  2  0
  2  3  1  0
  3  4  1  0
  4  5  1  0
  5  6  1  0
  6  7  1  0
  7  8  1  0
  7  9  1  0
  7  2  1  0
  9  5  1  0
  3 10  1  0
  3 11  1  0
  4 12  1  0
  4 13  1  0
  5 14  1  0
  6 15  1  0
  6 16  1  0
  8 17  1  0
  9 18  1  0
  9 19  1  0
M  END
