
     RDKit          3D

 17 18  0  0  0  0  0  0  0  0999 V2000
    2.6336    1.2354   -1.1531 O   0  0  0  0  0  0  0  0  0  0  0  0
    1.5766    0.8277   -0.6020 C   0  0  0  0  0  0  0  0  0  0  0  0
    1.6163   -0.2885    0.3646 C   0  0  0  0  0  0  0  0  0  0  0  0
    0.3260   -0.9620    0.5928 C   0  0  0  0  0  0  0  0  0  0  0  0
   -0.8590   -0.4245   -0.0740 C   0  0  0  0  0  0  0  0  0  0  0  0
   -1.7826   -1.3717   -0.5362 O   0  0  0  0  0  0  0  0  0  0  0  0
   -1.4525    0.8156    0.6291 C   0  0  0  0  0  0  0  0  0  0  0  0
   -0.8346    0.8534   -0.7260 C   0  0  0  0  0  0  0  0  0  0  0  0
    0.4047    1.4658   -0.9422 O   0  0  0  0  0  0  0  0  0  0  0  0
    2.0645    0.1377    1.3105 H   0  0  0  0  0  0  0  0  0  0  0  0
    2.4120   -0.9940   -0.0074 H   0  0  0  0  0  0  0  0  0  0  0  0
    0.4568   -2.0575    0.3465 H   0  0  0  0  0  0  0  0  0  0  0  0
    0.1341   -0.9721    1.7078 H   0  0  0  0  0  0  0  0  0  0  0  0
   -1.7065   -1.4195   -1.5306 H   0  0  0  0  0  0  0  0  0  0  0  0
   -0.8771    1.2952    1.4180 H   0  0  0  0  0  0  0  0  0  0  0  0
   -2.5497    0.8221    0.7540 H   0  0  0  0  0  0  0  0  0  0  0  0
   -1.5626    1.0372   -1.5519 H   0  0  0  0  0  0  0  0  0  0  0  0
  1  2  2  0
  2  3  1  0
  3  4  1  0
  4  5  1  0
  5  6  1  0
  5  7  1  0
  7  8  1  0
  8  9  1  0
  9  2  1  0
  8  5  1  0
  3 10  1  0
  3 11  1  0
  4 12  1  0
  4 13  1  0
  6 14  1  0
  7 15  1  0
  7 16  1  0
  8 17  1  0
M  END
