
     RDKit          3D

 14 15  0  0  0  0  0  0  0  0999 V2000
   -2.5563   -1.6347    0.4434 O   0  0  0  0  0  0  0  0  0  0  0  0
   -1.5272   -0.9866    0.1354 C   0  0  0  0  0  0  0  0  0  0  0  0
   -1.6038    0.4681    0.1302 C   0  0  0  0  0  0  0  0  0  0  0  0
   -0.5340    1.1454   -0.1901 C   0  0  0  0  0  0  0  0  0  0  0  0
    0.7474    0.5484   -0.5475 C   0  0  0  0  0  0  0  0  0  0  0  0
    1.5050   -0.0550    0.6404 C   0  0  0  0  0  0  0  0  0  0  0  0
    0.8786   -0.8934   -0.4250 C   0  0  0  0  0  0  0  0  0  0  0  0
   -0.3228   -1.5705   -0.2001 O   0  0  0  0  0  0  0  0  0  0  0  0
   -2.5267    0.9780    0.3861 H   0  0  0  0  0  0  0  0  0  0  0  0
   -0.6017    2.2344   -0.1909 H   0  0  0  0  0  0  0  0  0  0  0  0
    1.3304    1.0884   -1.3192 H   0  0  0  0  0  0  0  0  0  0  0  0
    1.0131   -0.0556    1.6291 H   0  0  0  0  0  0  0  0  0  0  0  0
    2.5844    0.1335    0.6037 H   0  0  0  0  0  0  0  0  0  0  0  0
    1.6137   -1.4004   -1.0957 H   0  0  0  0  0  0  0  0  0  0  0  0
  1  2  2  0
  2  3  1  0
  3  4  2  0
  4  5  1  0
  5  6  1  0
  6  7  1  0
  7  8  1  0
  8  2  1  0
  7  5  1  0
  3  9  1  0
  4 10  1  0
  5 11  1  0
  6 12  1  0
  6 13  1  0
  7 14  1  0
M  END
