
     RDKit          3D

 16 17  0  0  0  0  0  0  0  0999 V2000
   -2.0543    1.5424    1.3380 O   0  0  0  0  0  0  0  0  0  0  0  0
   -1.4069    1.0412    0.3998 C   0  0  0  0  0  0  0  0  0  0  0  0
   -1.5291   -0.2998   -0.2351 C   0  0  0  0  0  0  0  0  0  0  0  0
   -0.1012   -0.5535   -0.6678 C   0  0  0  0  0  0  0  0  0  0  0  0
    0.7215   -0.9651    0.5356 C   0  0  0  0  0  0  0  0  0  0  0  0
    1.5452    0.2785    0.3390 C   0  0  0  0  0  0  0  0  0  0  0  0
    0.5892    0.7787   -0.7065 C   0  0  0  0  0  0  0  0  0  0  0  0
   -0.3812    1.6965   -0.2669 O   0  0  0  0  0  0  0  0  0  0  0  0
   -2.2417   -0.3049   -1.0801 H   0  0  0  0  0  0  0  0  0  0  0  0
   -1.7909   -1.0553    0.5518 H   0  0  0  0  0  0  0  0  0  0  0  0
    0.0176   -1.1946   -1.5612 H   0  0  0  0  0  0  0  0  0  0  0  0
    0.1678   -1.0228    1.4888 H   0  0  0  0  0  0  0  0  0  0  0  0
    1.2400   -1.9172    0.3274 H   0  0  0  0  0  0  0  0  0  0  0  0
    1.5896    0.8775    1.2702 H   0  0  0  0  0  0  0  0  0  0  0  0
    2.5536    0.0472   -0.0761 H   0  0  0  0  0  0  0  0  0  0  0  0
    1.0809    1.0513   -1.6568 H   0  0  0  0  0  0  0  0  0  0  0  0
  1  2  2  0
  2  3  1  0
  3  4  1  0
  4  5  1  0
  5  6  1  0
  6  7  1  0
  7  8  1  0
  8  2  1  0
  7  4  1  0
  3  9  1  0
  3 10  1  0
  4 11  1  0
  5 12  1  0
  5 13  1  0
  6 14  1  0
  6 15  1  0
  7 16  1  0
M  END
