
     RDKit          3D

 17 18  0  0  0  0  0  0  0  0999 V2000
    2.6291   -1.2071   -1.1691 O   0  0  0  0  0  0  0  0  0  0  0  0
    1.6053   -0.6388   -0.6880 C   0  0  0  0  0  0  0  0  0  0  0  0
    1.7476    0.3373    0.4215 C   0  0  0  0  0  0  0  0  0  0  0  0
    0.4877    1.1738    0.4370 C   0  0  0  0  0  0  0  0  0  0  0  0
   -0.7542    0.3469    0.6001 C   0  0  0  0  0  0  0  0  0  0  0  0
   -1.7790    0.8558   -0.2092 O   0  0  0  0  0  0  0  0  0  0  0  0
   -2.0620   -0.4366   -0.6830 C   0  0  0  0  0  0  0  0  0  0  0  0
   -0.7229   -0.9275   -0.1766 C   0  0  0  0  0  0  0  0  0  0  0  0
    0.3154   -0.8724   -1.1410 O   0  0  0  0  0  0  0  0  0  0  0  0
    1.8749   -0.2333    1.3514 H   0  0  0  0  0  0  0  0  0  0  0  0
    2.6012    0.9831    0.1839 H   0  0  0  0  0  0  0  0  0  0  0  0
    0.5368    1.8872    1.3034 H   0  0  0  0  0  0  0  0  0  0  0  0
    0.4370    1.7886   -0.4638 H   0  0  0  0  0  0  0  0  0  0  0  0
   -1.0635    0.1584    1.6506 H   0  0  0  0  0  0  0  0  0  0  0  0
   -2.8890   -0.8602   -0.0761 H   0  0  0  0  0  0  0  0  0  0  0  0
   -2.2167   -0.5160   -1.7653 H   0  0  0  0  0  0  0  0  0  0  0  0
   -0.7476   -1.8392    0.4241 H   0  0  0  0  0  0  0  0  0  0  0  0
  1  2  2  0
  2  3  1  0
  3  4  1  0
  4  5  1  0
  5  6  1  0
  6  7  1  0
  7  8  1  0
  8  9  1  0
  9  2  1  0
  8  5  1  0
  3 10  1  0
  3 11  1  0
  4 12  1  0
  4 13  1  0
  5 14  1  0
  7 15  1  0
  7 16  1  0
  8 17  1  0
M  END
