
     RDKit          3D

 15 17  0  0  0  0  0  0  0  0999 V2000
   -1.0297    2.2553   -0.6314 O   0  0  0  0  0  0  0  0  0  0  0  0
   -0.6577    1.1640   -0.2756 C   0  0  0  0  0  0  0  0  0  0  0  0
   -1.5417   -0.0261   -0.2839 C   0  0  0  0  0  0  0  0  0  0  0  0
   -0.5663   -1.2140   -0.2181 C   0  0  0  0  0  0  0  0  0  0  0  0
    0.5037   -0.9483   -1.0990 O   0  0  0  0  0  0  0  0  0  0  0  0
    1.3967   -0.1566   -0.4363 C   0  0  0  0  0  0  0  0  0  0  0  0
    0.9800   -0.1845    1.0192 C   0  0  0  0  0  0  0  0  0  0  0  0
   -0.0003   -1.1453    1.0297 O   0  0  0  0  0  0  0  0  0  0  0  0
    0.7277    0.9994    0.1866 C   0  0  0  0  0  0  0  0  0  0  0  0
   -2.0981   -0.0064    0.6976 H   0  0  0  0  0  0  0  0  0  0  0  0
   -2.2124   -0.0890   -1.1333 H   0  0  0  0  0  0  0  0  0  0  0  0
   -1.0610   -2.1652   -0.4297 H   0  0  0  0  0  0  0  0  0  0  0  0
    2.4751   -0.1961   -0.6239 H   0  0  0  0  0  0  0  0  0  0  0  0
    1.7232   -0.1688    1.8105 H   0  0  0  0  0  0  0  0  0  0  0  0
    1.3608    1.8818    0.3876 H   0  0  0  0  0  0  0  0  0  0  0  0
  1  2  2  0
  2  3  1  0
  3  4  1  0
  4  5  1  0
  5  6  1  0
  6  7  1  0
  7  8  1  0
  7  9  1  0
  9  2  1  0
  8  4  1  0
  9  6  1  0
  3 10  1  0
  3 11  1  0
  4 12  1  0
  6 13  1  0
  7 14  1  0
  9 15  1  0
M  END
