
     RDKit          3D

 17 18  0  0  0  0  0  0  0  0999 V2000
    0.0399    2.3315    0.0530 O   0  0  0  0  0  0  0  0  0  0  0  0
   -0.2277    1.1710   -0.0143 C   0  0  0  0  0  0  0  0  0  0  0  0
   -1.3868    0.3924   -0.5052 C   0  0  0  0  0  0  0  0  0  0  0  0
   -1.7990   -0.3504    0.7297 C   0  0  0  0  0  0  0  0  0  0  0  0
   -0.5152   -0.6603    1.2532 O   0  0  0  0  0  0  0  0  0  0  0  0
    0.3290   -0.1601    0.3014 C   0  0  0  0  0  0  0  0  0  0  0  0
    1.7666   -0.3291    0.4312 C   0  0  0  0  0  0  0  0  0  0  0  0
    2.5328    0.2131   -0.5854 O   0  0  0  0  0  0  0  0  0  0  0  0
   -0.3108   -0.5705   -1.0389 C   0  0  0  0  0  0  0  0  0  0  0  0
   -2.0781    0.7947   -1.1782 H   0  0  0  0  0  0  0  0  0  0  0  0
   -2.3725    0.2353    1.4482 H   0  0  0  0  0  0  0  0  0  0  0  0
   -2.2698   -1.3322    0.5088 H   0  0  0  0  0  0  0  0  0  0  0  0
    2.0891    0.2169    1.3686 H   0  0  0  0  0  0  0  0  0  0  0  0
    2.0334   -1.3882    0.6301 H   0  0  0  0  0  0  0  0  0  0  0  0
    2.6404    1.1710   -0.4162 H   0  0  0  0  0  0  0  0  0  0  0  0
   -0.6278   -1.6118   -1.0774 H   0  0  0  0  0  0  0  0  0  0  0  0
    0.1566   -0.1232   -1.9087 H   0  0  0  0  0  0  0  0  0  0  0  0
  1  2  2  0
  2  3  1  0
  3  4  1  0
  4  5  1  0
  5  6  1  0
  6  7  1  0
  7  8  1  0
  6  9  1  0
  6  2  1  0
  9  3  1  0
  3 10  1  0
  4 11  1  0
  4 12  1  0
  7 13  1  0
  7 14  1  0
  8 15  1  0
  9 16  1  0
  9 17  1  0
M  END
