
     RDKit          3D

 17 18  0  0  0  0  0  0  0  0999 V2000
    3.2496    0.8744    0.1143 O   0  0  0  0  0  0  0  0  0  0  0  0
    2.0208    0.5928    0.0485 C   0  0  0  0  0  0  0  0  0  0  0  0
    1.7236   -0.8398    0.0563 C   0  0  0  0  0  0  0  0  0  0  0  0
    0.5561   -1.3440   -0.3008 C   0  0  0  0  0  0  0  0  0  0  0  0
   -0.6619   -0.7264   -0.7604 C   0  0  0  0  0  0  0  0  0  0  0  0
   -1.7300   -0.5385    0.3065 C   0  0  0  0  0  0  0  0  0  0  0  0
   -1.0508    0.6014   -0.4362 C   0  0  0  0  0  0  0  0  0  0  0  0
   -0.2569    1.5065    0.3976 C   0  0  0  0  0  0  0  0  0  0  0  0
    1.1105    1.6620   -0.0225 O   0  0  0  0  0  0  0  0  0  0  0  0
    2.5107   -1.5406    0.3730 H   0  0  0  0  0  0  0  0  0  0  0  0
    0.5362   -2.4240   -0.2254 H   0  0  0  0  0  0  0  0  0  0  0  0
   -1.0709   -1.1688   -1.7213 H   0  0  0  0  0  0  0  0  0  0  0  0
   -1.4424   -0.7163    1.3728 H   0  0  0  0  0  0  0  0  0  0  0  0
   -2.7640   -0.8094    0.0905 H   0  0  0  0  0  0  0  0  0  0  0  0
   -1.7767    1.1093   -1.1368 H   0  0  0  0  0  0  0  0  0  0  0  0
   -0.2839    1.2225    1.4755 H   0  0  0  0  0  0  0  0  0  0  0  0
   -0.6701    2.5390    0.3682 H   0  0  0  0  0  0  0  0  0  0  0  0
  1  2  2  0
  2  3  1  0
  3  4  2  0
  4  5  1  0
  5  6  1  0
  6  7  1  0
  7  8  1  0
  8  9  1  0
  9  2  1  0
  7  5  1  0
  3 10  1  0
  4 11  1  0
  5 12  1  0
  6 13  1  0
  6 14  1  0
  7 15  1  0
  8 16  1  0
  8 17  1  0
M  END
