
     RDKit          3D

 17 18  0  0  0  0  0  0  0  0999 V2000
   -0.5502   -1.7330   -1.7699 O   0  0  0  0  0  0  0  0  0  0  0  0
   -0.6309   -1.0122   -0.8072 C   0  0  0  0  0  0  0  0  0  0  0  0
   -1.6537    0.0830   -0.5499 C   0  0  0  0  0  0  0  0  0  0  0  0
   -0.9426    1.0006    0.4658 C   0  0  0  0  0  0  0  0  0  0  0  0
    0.4633    0.6112    0.1783 C   0  0  0  0  0  0  0  0  0  0  0  0
    0.7521    0.9793   -1.1669 O   0  0  0  0  0  0  0  0  0  0  0  0
    1.3699   -0.2783    0.7592 C   0  0  0  0  0  0  0  0  0  0  0  0
    2.5688   -0.5806    0.0720 O   0  0  0  0  0  0  0  0  0  0  0  0
    0.1873   -0.9358    0.4018 C   0  0  0  0  0  0  0  0  0  0  0  0
   -1.9152    0.6141   -1.4596 H   0  0  0  0  0  0  0  0  0  0  0  0
   -2.5422   -0.3396   -0.0214 H   0  0  0  0  0  0  0  0  0  0  0  0
   -1.0985    2.0578    0.2298 H   0  0  0  0  0  0  0  0  0  0  0  0
   -1.2062    0.6941    1.4783 H   0  0  0  0  0  0  0  0  0  0  0  0
    1.3730    1.7213   -1.1597 H   0  0  0  0  0  0  0  0  0  0  0  0
    1.6231   -0.1451    1.8531 H   0  0  0  0  0  0  0  0  0  0  0  0
    2.7098   -1.5608    0.2257 H   0  0  0  0  0  0  0  0  0  0  0  0
   -0.5079   -1.1762    1.2708 H   0  0  0  0  0  0  0  0  0  0  0  0
  1  2  2  0
  2  3  1  0
  3  4  1  0
  4  5  1  0
  5  6  1  0
  5  7  1  0
  7  8  1  0
  7  9  1  0
  9  2  1  0
  9  5  1  0
  3 10  1  0
  3 11  1  0
  4 12  1  0
  4 13  1  0
  6 14  1  0
  7 15  1  0
  8 16  1  0
  9 17  1  0
M  END
