
     RDKit          3D

 15 16  0  0  0  0  0  0  0  0999 V2000
   -0.1449   -2.4391   -0.4475 O   0  0  0  0  0  0  0  0  0  0  0  0
   -0.4465   -1.3664    0.0054 C   0  0  0  0  0  0  0  0  0  0  0  0
   -1.4153   -0.2641   -0.0901 C   0  0  0  0  0  0  0  0  0  0  0  0
   -0.8917    0.9002   -0.8401 C   0  0  0  0  0  0  0  0  0  0  0  0
    0.3054    1.3384   -0.5066 C   0  0  0  0  0  0  0  0  0  0  0  0
    1.0677    0.4770    0.4544 C   0  0  0  0  0  0  0  0  0  0  0  0
    1.9955   -0.2293   -0.3472 O   0  0  0  0  0  0  0  0  0  0  0  0
    0.1257   -0.4967    1.0675 C   0  0  0  0  0  0  0  0  0  0  0  0
   -1.1714   -0.0112    1.2611 O   0  0  0  0  0  0  0  0  0  0  0  0
   -2.4200   -0.5996   -0.3495 H   0  0  0  0  0  0  0  0  0  0  0  0
   -1.4794    1.3450   -1.6117 H   0  0  0  0  0  0  0  0  0  0  0  0
    0.7647    2.2339   -0.8562 H   0  0  0  0  0  0  0  0  0  0  0  0
    1.6332    1.0803    1.1854 H   0  0  0  0  0  0  0  0  0  0  0  0
    1.5784   -0.9212   -0.8830 H   0  0  0  0  0  0  0  0  0  0  0  0
    0.4986   -1.0474    1.9581 H   0  0  0  0  0  0  0  0  0  0  0  0
  1  2  2  0
  2  3  1  0
  3  4  1  0
  4  5  2  0
  5  6  1  0
  6  7  1  0
  6  8  1  0
  8  9  1  0
  8  2  1  0
  9  3  1  0
  3 10  1  0
  4 11  1  0
  5 12  1  0
  6 13  1  0
  7 14  1  0
  8 15  1  0
M  END
