
     RDKit          3D

 19 20  0  0  0  0  0  0  0  0999 V2000
   -0.2018   -2.5104    0.2419 O   0  0  0  0  0  0  0  0  0  0  0  0
   -0.2498   -1.3065    0.2787 C   0  0  0  0  0  0  0  0  0  0  0  0
    0.7426   -0.3269    0.8218 C   0  0  0  0  0  0  0  0  0  0  0  0
    1.9310   -0.1705   -0.0932 C   0  0  0  0  0  0  0  0  0  0  0  0
    2.8605    0.7211    0.3762 O   0  0  0  0  0  0  0  0  0  0  0  0
   -0.0622    0.9915    0.8959 C   0  0  0  0  0  0  0  0  0  0  0  0
   -1.4039    0.3863    1.1237 C   0  0  0  0  0  0  0  0  0  0  0  0
   -2.5006    0.0651    0.3163 C   0  0  0  0  0  0  0  0  0  0  0  0
   -1.3206   -0.4664   -0.2115 C   0  0  0  0  0  0  0  0  0  0  0  0
    1.0349   -0.6011    1.8516 H   0  0  0  0  0  0  0  0  0  0  0  0
    2.4066   -1.1628   -0.1908 H   0  0  0  0  0  0  0  0  0  0  0  0
    1.6376    0.1448   -1.1106 H   0  0  0  0  0  0  0  0  0  0  0  0
    3.4555    0.9784   -0.3919 H   0  0  0  0  0  0  0  0  0  0  0  0
   -0.0698    1.5040   -0.0759 H   0  0  0  0  0  0  0  0  0  0  0  0
    0.3038    1.6288    1.7120 H   0  0  0  0  0  0  0  0  0  0  0  0
   -1.3231   -0.2230    2.0817 H   0  0  0  0  0  0  0  0  0  0  0  0
   -3.2864   -0.6499    0.6910 H   0  0  0  0  0  0  0  0  0  0  0  0
   -3.0364    0.9030   -0.2155 H   0  0  0  0  0  0  0  0  0  0  0  0
   -0.9179    0.0945   -1.1155 H   0  0  0  0  0  0  0  0  0  0  0  0
  1  2  2  0
  2  3  1  0
  3  4  1  0
  4  5  1  0
  3  6  1  0
  6  7  1  0
  7  8  1  0
  8  9  1  0
  9  2  1  0
  9  7  1  0
  3 10  1  0
  4 11  1  0
  4 12  1  0
  5 13  1  0
  6 14  1  0
  6 15  1  0
  7 16  1  0
  8 17  1  0
  8 18  1  0
  9 19  1  0
M  END
