
     RDKit          3D

 15 17  0  0  0  0  0  0  0  0999 V2000
    0.4519    2.5668   -0.6142 O   0  0  0  0  0  0  0  0  0  0  0  0
    0.5589    1.3289   -0.4990 C   0  0  0  0  0  0  0  0  0  0  0  0
    1.7024    0.5346   -0.0926 C   0  0  0  0  0  0  0  0  0  0  0  0
    1.3962   -0.7430    0.0187 C   0  0  0  0  0  0  0  0  0  0  0  0
   -0.0014   -0.9610   -0.3025 C   0  0  0  0  0  0  0  0  0  0  0  0
   -0.9201   -0.7953    0.9173 C   0  0  0  0  0  0  0  0  0  0  0  0
   -2.2498   -0.8557    0.5749 O   0  0  0  0  0  0  0  0  0  0  0  0
   -1.5161    0.3094    0.3859 C   0  0  0  0  0  0  0  0  0  0  0  0
   -0.5282    0.3614   -0.7711 C   0  0  0  0  0  0  0  0  0  0  0  0
    2.6742    1.0121    0.0827 H   0  0  0  0  0  0  0  0  0  0  0  0
    2.1309   -1.4864    0.3141 H   0  0  0  0  0  0  0  0  0  0  0  0
   -0.2714   -1.8406   -0.9089 H   0  0  0  0  0  0  0  0  0  0  0  0
   -0.5479   -1.0778    1.8973 H   0  0  0  0  0  0  0  0  0  0  0  0
   -1.9041    1.2504    0.7650 H   0  0  0  0  0  0  0  0  0  0  0  0
   -0.9755    0.3963   -1.7677 H   0  0  0  0  0  0  0  0  0  0  0  0
  1  2  2  0
  2  3  1  0
  3  4  2  0
  4  5  1  0
  5  6  1  0
  6  7  1  0
  7  8  1  0
  8  9  1  0
  9  2  1  0
  9  5  1  0
  8  6  1  0
  3 10  1  0
  4 11  1  0
  5 12  1  0
  6 13  1  0
  8 14  1  0
  9 15  1  0
M  END
