
     RDKit          3D

 17 18  0  0  0  0  0  0  0  0999 V2000
   -1.4900   -2.5752   -0.1088 O   0  0  0  0  0  0  0  0  0  0  0  0
   -0.8362   -1.5377   -0.3098 C   0  0  0  0  0  0  0  0  0  0  0  0
    0.1327   -1.3536   -1.2819 O   0  0  0  0  0  0  0  0  0  0  0  0
    0.6660   -0.0238   -1.1356 C   0  0  0  0  0  0  0  0  0  0  0  0
    1.4178   -0.0109    0.1450 C   0  0  0  0  0  0  0  0  0  0  0  0
    0.3307   -0.0535    1.2323 C   0  0  0  0  0  0  0  0  0  0  0  0
   -0.9345   -0.2652    0.4321 C   0  0  0  0  0  0  0  0  0  0  0  0
   -0.6319    0.6994   -0.7345 C   0  0  0  0  0  0  0  0  0  0  0  0
   -0.4013    1.9740   -0.2988 O   0  0  0  0  0  0  0  0  0  0  0  0
    1.1326    0.3648   -2.0058 H   0  0  0  0  0  0  0  0  0  0  0  0
    2.0793    0.8686    0.2795 H   0  0  0  0  0  0  0  0  0  0  0  0
    1.9798   -0.9650    0.2565 H   0  0  0  0  0  0  0  0  0  0  0  0
    0.5176   -0.8381    1.9679 H   0  0  0  0  0  0  0  0  0  0  0  0
    0.3097    0.9478    1.6746 H   0  0  0  0  0  0  0  0  0  0  0  0
   -1.8522   -0.0628    0.9318 H   0  0  0  0  0  0  0  0  0  0  0  0
   -1.4031    0.5720   -1.4826 H   0  0  0  0  0  0  0  0  0  0  0  0
   -1.0172    2.2593    0.4380 H   0  0  0  0  0  0  0  0  0  0  0  0
  1  2  2  0
  2  3  1  0
  3  4  1  0
  4  5  1  0
  5  6  1  0
  6  7  1  0
  7  8  1  0
  8  9  1  0
  7  2  1  0
  8  4  1  0
  4 10  1  0
  5 11  1  0
  5 12  1  0
  6 13  1  0
  6 14  1  0
  7 15  1  0
  8 16  1  0
  9 17  1  0
M  END
