
     RDKit          3D

 14 15  0  0  0  0  0  0  0  0999 V2000
    2.7539    0.4479   -0.9608 O   0  0  0  0  0  0  0  0  0  0  0  0
    1.6961    0.2532   -0.3654 C   0  0  0  0  0  0  0  0  0  0  0  0
    0.7429    1.2340    0.2057 C   0  0  0  0  0  0  0  0  0  0  0  0
   -0.4596    0.7173    0.2590 C   0  0  0  0  0  0  0  0  0  0  0  0
   -1.9117    0.3148    0.4087 C   0  0  0  0  0  0  0  0  0  0  0  0
   -1.4739   -1.0550    0.3172 O   0  0  0  0  0  0  0  0  0  0  0  0
   -0.3859   -0.6470   -0.4148 C   0  0  0  0  0  0  0  0  0  0  0  0
    0.9926   -1.0494   -0.0045 C   0  0  0  0  0  0  0  0  0  0  0  0
    0.9928    2.2345    0.5325 H   0  0  0  0  0  0  0  0  0  0  0  0
   -2.3243    0.4523    1.4170 H   0  0  0  0  0  0  0  0  0  0  0  0
   -2.5188    0.6441   -0.4290 H   0  0  0  0  0  0  0  0  0  0  0  0
   -0.5544   -0.5610   -1.5185 H   0  0  0  0  0  0  0  0  0  0  0  0
    1.4182   -1.8914   -0.5357 H   0  0  0  0  0  0  0  0  0  0  0  0
    1.0320   -1.0942    1.0886 H   0  0  0  0  0  0  0  0  0  0  0  0
  1  2  2  0
  2  3  1  0
  3  4  2  0
  4  5  1  0
  5  6  1  0
  6  7  1  0
  7  8  1  0
  8  2  1  0
  7  4  1  0
  3  9  1  0
  5 10  1  0
  5 11  1  0
  7 12  1  0
  8 13  1  0
  8 14  1  0
M  END
