
     RDKit          3D

 17 18  0  0  0  0  0  0  0  0999 V2000
    1.5194    0.1573    2.2614 O   0  0  0  0  0  0  0  0  0  0  0  0
    1.3570    0.0492    1.0802 C   0  0  0  0  0  0  0  0  0  0  0  0
    1.5475    1.0664   -0.0210 C   0  0  0  0  0  0  0  0  0  0  0  0
    0.4098    0.8948   -0.7601 O   0  0  0  0  0  0  0  0  0  0  0  0
    0.0416   -0.4172   -0.7564 C   0  0  0  0  0  0  0  0  0  0  0  0
   -1.4017   -0.5599   -0.3418 C   0  0  0  0  0  0  0  0  0  0  0  0
   -2.2002    0.6876   -0.2277 C   0  0  0  0  0  0  0  0  0  0  0  0
   -1.6476   -0.0513    0.9505 O   0  0  0  0  0  0  0  0  0  0  0  0
    0.9043   -1.1407    0.2684 C   0  0  0  0  0  0  0  0  0  0  0  0
    1.6917    2.0680    0.3681 H   0  0  0  0  0  0  0  0  0  0  0  0
    2.4410    0.6724   -0.5887 H   0  0  0  0  0  0  0  0  0  0  0  0
    0.2621   -0.8628   -1.7328 H   0  0  0  0  0  0  0  0  0  0  0  0
   -1.9800   -1.4517   -0.6693 H   0  0  0  0  0  0  0  0  0  0  0  0
   -1.7222    1.6736   -0.3529 H   0  0  0  0  0  0  0  0  0  0  0  0
   -3.2860    0.6708   -0.1245 H   0  0  0  0  0  0  0  0  0  0  0  0
    1.7758   -1.6332   -0.2147 H   0  0  0  0  0  0  0  0  0  0  0  0
    0.2874   -1.8232    0.8612 H   0  0  0  0  0  0  0  0  0  0  0  0
  1  2  2  0
  2  3  1  0
  3  4  1  0
  4  5  1  0
  5  6  1  0
  6  7  1  0
  7  8  1  0
  5  9  1  0
  9  2  1  0
  8  6  1  0
  3 10  1  0
  3 11  1  0
  5 12  1  0
  6 13  1  0
  7 14  1  0
  7 15  1  0
  9 16  1  0
  9 17  1  0
M  END
