
     RDKit          3D

 17 17  0  0  0  0  0  0  0  0999 V2000
    1.7837    2.7327    0.1555 O   0  0  0  0  0  0  0  0  0  0  0  0
    1.1626    1.6496    0.1024 C   0  0  0  0  0  0  0  0  0  0  0  0
   -0.1871    1.7111    0.4301 O   0  0  0  0  0  0  0  0  0  0  0  0
   -1.3544    1.0804    0.0128 C   0  0  0  0  0  0  0  0  0  0  0  0
   -1.4526   -0.3670    0.3926 C   0  0  0  0  0  0  0  0  0  0  0  0
   -0.4210   -1.2317   -0.2415 C   0  0  0  0  0  0  0  0  0  0  0  0
    0.7040   -1.2438    0.5776 O   0  0  0  0  0  0  0  0  0  0  0  0
    1.8253   -0.8618   -0.1186 C   0  0  0  0  0  0  0  0  0  0  0  0
    1.9323    0.5465   -0.2805 O   0  0  0  0  0  0  0  0  0  0  0  0
   -2.2120    1.5991    0.5358 H   0  0  0  0  0  0  0  0  0  0  0  0
   -1.5808    1.2260   -1.0776 H   0  0  0  0  0  0  0  0  0  0  0  0
   -2.4966   -0.6958    0.1217 H   0  0  0  0  0  0  0  0  0  0  0  0
   -1.3724   -0.4381    1.5005 H   0  0  0  0  0  0  0  0  0  0  0  0
   -0.1142   -0.8979   -1.2515 H   0  0  0  0  0  0  0  0  0  0  0  0
   -0.7945   -2.2931   -0.2606 H   0  0  0  0  0  0  0  0  0  0  0  0
    1.8657   -1.3596   -1.1021 H   0  0  0  0  0  0  0  0  0  0  0  0
    2.7120   -1.1565    0.5033 H   0  0  0  0  0  0  0  0  0  0  0  0
  1  2  2  0
  2  3  1  0
  3  4  1  0
  4  5  1  0
  5  6  1  0
  6  7  1  0
  7  8  1  0
  8  9  1  0
  9  2  1  0
  4 10  1  0
  4 11  1  0
  5 12  1  0
  5 13  1  0
  6 14  1  0
  6 15  1  0
  8 16  1  0
  8 17  1  0
M  END
