
     RDKit          3D

 17 19  0  0  0  0  0  0  0  0999 V2000
    1.3578   -1.1344   -1.8954 O   0  0  0  0  0  0  0  0  0  0  0  0
    1.0630   -0.4645   -0.9370 C   0  0  0  0  0  0  0  0  0  0  0  0
    1.9327   -0.1891    0.2243 C   0  0  0  0  0  0  0  0  0  0  0  0
    1.0888    0.0919    1.2537 O   0  0  0  0  0  0  0  0  0  0  0  0
   -0.1475    0.4485    0.8152 C   0  0  0  0  0  0  0  0  0  0  0  0
   -1.2420   -0.5906    0.9333 C   0  0  0  0  0  0  0  0  0  0  0  0
   -1.4855   -0.5877   -0.5408 C   0  0  0  0  0  0  0  0  0  0  0  0
   -0.1971    0.2220   -0.6968 C   0  0  0  0  0  0  0  0  0  0  0  0
   -0.2718    1.5779   -0.1114 C   0  0  0  0  0  0  0  0  0  0  0  0
    2.6179   -1.0363    0.4585 H   0  0  0  0  0  0  0  0  0  0  0  0
    2.6123    0.6638   -0.0454 H   0  0  0  0  0  0  0  0  0  0  0  0
   -2.0610   -0.2440    1.5746 H   0  0  0  0  0  0  0  0  0  0  0  0
   -0.8801   -1.5751    1.3045 H   0  0  0  0  0  0  0  0  0  0  0  0
   -1.3803   -1.5301   -1.0749 H   0  0  0  0  0  0  0  0  0  0  0  0
   -2.3424    0.0369   -0.8706 H   0  0  0  0  0  0  0  0  0  0  0  0
    0.5848    2.2354   -0.2263 H   0  0  0  0  0  0  0  0  0  0  0  0
   -1.2494    2.0754   -0.1655 H   0  0  0  0  0  0  0  0  0  0  0  0
  1  2  2  0
  2  3  1  0
  3  4  1  0
  4  5  1  0
  5  6  1  0
  6  7  1  0
  7  8  1  0
  8  9  1  0
  8  2  1  0
  8  5  1  0
  9  5  1  0
  3 10  1  0
  3 11  1  0
  6 12  1  0
  6 13  1  0
  7 14  1  0
  7 15  1  0
  9 16  1  0
  9 17  1  0
M  END
