
     RDKit          3D

 18 19  0  0  0  0  0  0  0  0999 V2000
   -1.0689   -1.7780   -1.2646 O   0  0  0  0  0  0  0  0  0  0  0  0
   -1.1528   -0.6766   -0.7912 C   0  0  0  0  0  0  0  0  0  0  0  0
   -2.2905    0.2791   -0.5633 C   0  0  0  0  0  0  0  0  0  0  0  0
   -1.4980    0.7705    0.6555 C   0  0  0  0  0  0  0  0  0  0  0  0
   -0.2749    0.3786   -0.1728 C   0  0  0  0  0  0  0  0  0  0  0  0
    0.8834   -0.1414    0.6111 C   0  0  0  0  0  0  0  0  0  0  0  0
    1.8598   -1.0013   -0.2093 C   0  0  0  0  0  0  0  0  0  0  0  0
    2.2627    0.3330    0.4173 C   0  0  0  0  0  0  0  0  0  0  0  0
   -3.2472   -0.1851   -0.3351 H   0  0  0  0  0  0  0  0  0  0  0  0
   -2.2669    1.0310   -1.3793 H   0  0  0  0  0  0  0  0  0  0  0  0
   -1.5873    0.0865    1.5107 H   0  0  0  0  0  0  0  0  0  0  0  0
   -1.5935    1.8350    0.8667 H   0  0  0  0  0  0  0  0  0  0  0  0
   -0.0440    1.1429   -0.9383 H   0  0  0  0  0  0  0  0  0  0  0  0
    0.6190   -0.5177    1.6227 H   0  0  0  0  0  0  0  0  0  0  0  0
    2.1736   -1.9341    0.2574 H   0  0  0  0  0  0  0  0  0  0  0  0
    1.7273   -1.0129   -1.3133 H   0  0  0  0  0  0  0  0  0  0  0  0
    2.9671    0.2270    1.2802 H   0  0  0  0  0  0  0  0  0  0  0  0
    2.5310    1.1636   -0.2544 H   0  0  0  0  0  0  0  0  0  0  0  0
  1  2  2  0
  2  3  1  0
  3  4  1  0
  4  5  1  0
  5  6  1  0
  6  7  1  0
  7  8  1  0
  5  2  1  0
  8  6  1  0
  3  9  1  0
  3 10  1  0
  4 11  1  0
  4 12  1  0
  5 13  1  0
  6 14  1  0
  7 15  1  0
  7 16  1  0
  8 17  1  0
  8 18  1  0
M  END
