
     RDKit          3D

 19 20  0  0  0  0  0  0  0  0999 V2000
   -0.5637    2.3866   -0.0556 O   0  0  0  0  0  0  0  0  0  0  0  0
   -0.6253    1.2344   -0.3460 C   0  0  0  0  0  0  0  0  0  0  0  0
   -1.8974    0.4715   -0.3902 C   0  0  0  0  0  0  0  0  0  0  0  0
   -1.8086   -0.6702    0.5759 C   0  0  0  0  0  0  0  0  0  0  0  0
   -0.4643   -1.2050    0.7409 C   0  0  0  0  0  0  0  0  0  0  0  0
    0.6497   -0.7563    0.2222 C   0  0  0  0  0  0  0  0  0  0  0  0
    2.0899   -0.6935   -0.0670 C   0  0  0  0  0  0  0  0  0  0  0  0
    1.8771    0.8408   -0.0013 C   0  0  0  0  0  0  0  0  0  0  0  0
    0.5891    0.4733   -0.6888 C   0  0  0  0  0  0  0  0  0  0  0  0
   -2.7460    1.1544   -0.1759 H   0  0  0  0  0  0  0  0  0  0  0  0
   -2.0243   -0.0041   -1.4098 H   0  0  0  0  0  0  0  0  0  0  0  0
   -2.5335   -1.4972    0.3087 H   0  0  0  0  0  0  0  0  0  0  0  0
   -2.2474   -0.2840    1.5431 H   0  0  0  0  0  0  0  0  0  0  0  0
   -0.3693   -2.1046    1.3858 H   0  0  0  0  0  0  0  0  0  0  0  0
    2.2969   -1.0303   -1.0894 H   0  0  0  0  0  0  0  0  0  0  0  0
    2.7668   -1.0519    0.7314 H   0  0  0  0  0  0  0  0  0  0  0  0
    2.6029    1.4038   -0.5732 H   0  0  0  0  0  0  0  0  0  0  0  0
    1.6982    1.1090    1.0401 H   0  0  0  0  0  0  0  0  0  0  0  0
    0.7092    0.2235   -1.7509 H   0  0  0  0  0  0  0  0  0  0  0  0
  1  2  2  0
  2  3  1  0
  3  4  1  0
  4  5  1  0
  5  6  2  0
  6  7  1  0
  7  8  1  0
  8  9  1  0
  9  2  1  0
  9  6  1  0
  3 10  1  0
  3 11  1  0
  4 12  1  0
  4 13  1  0
  5 14  1  0
  7 15  1  0
  7 16  1  0
  8 17  1  0
  8 18  1  0
  9 19  1  0
M  END
