
     RDKit          3D

 19 19  0  0  0  0  0  0  0  0999 V2000
   -0.0775    0.6677   -2.3521 O   0  0  0  0  0  0  0  0  0  0  0  0
   -0.2357    0.2316   -1.2407 C   0  0  0  0  0  0  0  0  0  0  0  0
   -1.0876   -0.9259   -0.9011 C   0  0  0  0  0  0  0  0  0  0  0  0
   -1.6515   -0.5242    0.4417 C   0  0  0  0  0  0  0  0  0  0  0  0
   -0.4260    0.0662    1.1214 C   0  0  0  0  0  0  0  0  0  0  0  0
    0.3615    0.7287    0.0126 C   0  0  0  0  0  0  0  0  0  0  0  0
    0.2828    2.0990    0.1568 O   0  0  0  0  0  0  0  0  0  0  0  0
    1.8142    0.3074    0.0299 C   0  0  0  0  0  0  0  0  0  0  0  0
    1.9241   -1.0799   -0.1148 O   0  0  0  0  0  0  0  0  0  0  0  0
   -1.8795   -1.1270   -1.6455 H   0  0  0  0  0  0  0  0  0  0  0  0
   -0.5066   -1.8591   -0.7577 H   0  0  0  0  0  0  0  0  0  0  0  0
   -2.3812    0.2784    0.2642 H   0  0  0  0  0  0  0  0  0  0  0  0
   -2.0633   -1.3897    0.9968 H   0  0  0  0  0  0  0  0  0  0  0  0
   -0.8291    0.8418    1.8356 H   0  0  0  0  0  0  0  0  0  0  0  0
    0.1785   -0.6938    1.6419 H   0  0  0  0  0  0  0  0  0  0  0  0
   -0.5858    2.4820   -0.0962 H   0  0  0  0  0  0  0  0  0  0  0  0
    2.3489    0.6301    0.9373 H   0  0  0  0  0  0  0  0  0  0  0  0
    2.2835    0.7508   -0.8783 H   0  0  0  0  0  0  0  0  0  0  0  0
    2.5302   -1.4842    0.5480 H   0  0  0  0  0  0  0  0  0  0  0  0
  1  2  2  0
  2  3  1  0
  3  4  1  0
  4  5  1  0
  5  6  1  0
  6  7  1  0
  6  8  1  0
  8  9  1  0
  6  2  1  0
  3 10  1  0
  3 11  1  0
  4 12  1  0
  4 13  1  0
  5 14  1  0
  5 15  1  0
  7 16  1  0
  8 17  1  0
  8 18  1  0
  9 19  1  0
M  END
