
     RDKit          3D

 17 18  0  0  0  0  0  0  0  0999 V2000
   -2.1258    0.0500   -1.3831 O   0  0  0  0  0  0  0  0  0  0  0  0
   -1.4148    0.0898   -0.3694 C   0  0  0  0  0  0  0  0  0  0  0  0
   -1.2224   -1.2557    0.2307 C   0  0  0  0  0  0  0  0  0  0  0  0
    0.1292   -1.6254    0.0190 O   0  0  0  0  0  0  0  0  0  0  0  0
    0.8507   -0.5582    0.5195 C   0  0  0  0  0  0  0  0  0  0  0  0
    2.1714   -0.1745    0.0558 C   0  0  0  0  0  0  0  0  0  0  0  0
    1.0361    0.4211   -0.6419 C   0  0  0  0  0  0  0  0  0  0  0  0
    0.4349    1.6050   -0.2640 O   0  0  0  0  0  0  0  0  0  0  0  0
   -0.9198    1.4118    0.0254 C   0  0  0  0  0  0  0  0  0  0  0  0
   -1.8830   -2.0056   -0.1854 H   0  0  0  0  0  0  0  0  0  0  0  0
   -1.3307   -1.2254    1.3422 H   0  0  0  0  0  0  0  0  0  0  0  0
    0.4881   -0.1550    1.4901 H   0  0  0  0  0  0  0  0  0  0  0  0
    2.7707   -0.9211   -0.4849 H   0  0  0  0  0  0  0  0  0  0  0  0
    2.7987    0.4212    0.7754 H   0  0  0  0  0  0  0  0  0  0  0  0
    0.8188    0.0618   -1.6703 H   0  0  0  0  0  0  0  0  0  0  0  0
   -1.4697    2.1946   -0.5596 H   0  0  0  0  0  0  0  0  0  0  0  0
   -1.1325    1.6655    1.1006 H   0  0  0  0  0  0  0  0  0  0  0  0
  1  2  2  0
  2  3  1  0
  3  4  1  0
  4  5  1  0
  5  6  1  0
  6  7  1  0
  7  8  1  0
  8  9  1  0
  9  2  1  0
  7  5  1  0
  3 10  1  0
  3 11  1  0
  5 12  1  0
  6 13  1  0
  6 14  1  0
  7 15  1  0
  9 16  1  0
  9 17  1  0
M  END
