
     RDKit          3D

 15 16  0  0  0  0  0  0  0  0999 V2000
    2.2802    0.0581   -1.3126 O   0  0  0  0  0  0  0  0  0  0  0  0
    1.2127    0.1260   -0.6308 C   0  0  0  0  0  0  0  0  0  0  0  0
    0.6770    1.4003   -0.1829 C   0  0  0  0  0  0  0  0  0  0  0  0
   -0.5660    1.5126    0.2268 C   0  0  0  0  0  0  0  0  0  0  0  0
   -1.4898    0.3567    0.2570 C   0  0  0  0  0  0  0  0  0  0  0  0
   -1.3585   -0.6108    1.2283 O   0  0  0  0  0  0  0  0  0  0  0  0
   -0.9749   -0.9242   -0.0720 C   0  0  0  0  0  0  0  0  0  0  0  0
    0.4839   -1.0973   -0.2736 C   0  0  0  0  0  0  0  0  0  0  0  0
    1.1068   -1.6540    0.8632 O   0  0  0  0  0  0  0  0  0  0  0  0
    1.3227    2.2710   -0.1901 H   0  0  0  0  0  0  0  0  0  0  0  0
   -0.9225    2.4816    0.5517 H   0  0  0  0  0  0  0  0  0  0  0  0
   -2.5620    0.5782   -0.0016 H   0  0  0  0  0  0  0  0  0  0  0  0
   -1.6298   -1.6312   -0.6589 H   0  0  0  0  0  0  0  0  0  0  0  0
    0.6910   -1.8451   -1.0951 H   0  0  0  0  0  0  0  0  0  0  0  0
    1.7291   -1.0218    1.2906 H   0  0  0  0  0  0  0  0  0  0  0  0
  1  2  2  0
  2  3  1  0
  3  4  2  0
  4  5  1  0
  5  6  1  0
  6  7  1  0
  7  8  1  0
  8  9  1  0
  8  2  1  0
  7  5  1  0
  3 10  1  0
  4 11  1  0
  5 12  1  0
  7 13  1  0
  8 14  1  0
  9 15  1  0
M  END
