
     RDKit          3D

 16 17  0  0  0  0  0  0  0  0999 V2000
   -2.6130   -1.2874    0.3995 O   0  0  0  0  0  0  0  0  0  0  0  0
   -1.6456   -0.5850    0.2438 C   0  0  0  0  0  0  0  0  0  0  0  0
   -1.2946    0.7101   -0.3900 C   0  0  0  0  0  0  0  0  0  0  0  0
   -0.1888    0.8348    0.6042 C   0  0  0  0  0  0  0  0  0  0  0  0
    1.1742    1.0634    0.1521 C   0  0  0  0  0  0  0  0  0  0  0  0
    1.7192    0.0101   -0.4179 C   0  0  0  0  0  0  0  0  0  0  0  0
    0.7341   -1.0827   -0.4081 C   0  0  0  0  0  0  0  0  0  0  0  0
   -0.2362   -0.6973    0.6469 C   0  0  0  0  0  0  0  0  0  0  0  0
   -2.0994    1.4793   -0.3377 H   0  0  0  0  0  0  0  0  0  0  0  0
   -0.9312    0.6542   -1.4308 H   0  0  0  0  0  0  0  0  0  0  0  0
   -0.5056    1.3156    1.5420 H   0  0  0  0  0  0  0  0  0  0  0  0
    1.7207    2.0114    0.2620 H   0  0  0  0  0  0  0  0  0  0  0  0
    2.7330   -0.0957   -0.8470 H   0  0  0  0  0  0  0  0  0  0  0  0
    1.2089   -2.0770   -0.2329 H   0  0  0  0  0  0  0  0  0  0  0  0
    0.2428   -1.1202   -1.4079 H   0  0  0  0  0  0  0  0  0  0  0  0
   -0.0185   -1.1337    1.6216 H   0  0  0  0  0  0  0  0  0  0  0  0
  1  2  2  0
  2  3  1  0
  3  4  1  0
  4  5  1  0
  5  6  2  0
  6  7  1  0
  7  8  1  0
  8  2  1  0
  8  4  1  0
  3  9  1  0
  3 10  1  0
  4 11  1  0
  5 12  1  0
  6 13  1  0
  7 14  1  0
  7 15  1  0
  8 16  1  0
M  END
