
     RDKit          3D

 17 18  0  0  0  0  0  0  0  0999 V2000
   -1.7531    2.2841   -0.2099 O   0  0  0  0  0  0  0  0  0  0  0  0
   -0.9281    1.3940   -0.2615 C   0  0  0  0  0  0  0  0  0  0  0  0
    0.5512    1.2711   -0.3689 C   0  0  0  0  0  0  0  0  0  0  0  0
    0.4290   -0.2591   -0.4214 C   0  0  0  0  0  0  0  0  0  0  0  0
    1.2394   -0.8693    0.6671 C   0  0  0  0  0  0  0  0  0  0  0  0
    2.5936   -0.5239    0.5342 O   0  0  0  0  0  0  0  0  0  0  0  0
   -1.0059   -0.0693   -0.2409 C   0  0  0  0  0  0  0  0  0  0  0  0
   -2.0525   -0.8389    0.1356 C   0  0  0  0  0  0  0  0  0  0  0  0
   -1.7987   -0.6928   -1.2947 O   0  0  0  0  0  0  0  0  0  0  0  0
    1.1011    1.6468    0.5143 H   0  0  0  0  0  0  0  0  0  0  0  0
    0.9444    1.7222   -1.2969 H   0  0  0  0  0  0  0  0  0  0  0  0
    0.7926   -0.6154   -1.4161 H   0  0  0  0  0  0  0  0  0  0  0  0
    1.2104   -1.9828    0.5220 H   0  0  0  0  0  0  0  0  0  0  0  0
    0.9409   -0.5761    1.6784 H   0  0  0  0  0  0  0  0  0  0  0  0
    2.7470    0.4449    0.5928 H   0  0  0  0  0  0  0  0  0  0  0  0
   -1.9568   -1.9035    0.4924 H   0  0  0  0  0  0  0  0  0  0  0  0
   -3.0546   -0.4319    0.3735 H   0  0  0  0  0  0  0  0  0  0  0  0
  1  2  2  0
  2  3  1  0
  3  4  1  0
  4  5  1  0
  5  6  1  0
  4  7  1  0
  7  8  1  0
  8  9  1  0
  7  2  1  0
  9  7  1  0
  3 10  1  0
  3 11  1  0
  4 12  1  0
  5 13  1  0
  5 14  1  0
  6 15  1  0
  8 16  1  0
  8 17  1  0
M  END
