
     RDKit          3D

 16 17  0  0  0  0  0  0  0  0999 V2000
    1.7674    0.8513   -1.5741 O   0  0  0  0  0  0  0  0  0  0  0  0
    0.9771    0.3789   -0.8018 C   0  0  0  0  0  0  0  0  0  0  0  0
    0.3685    0.7637    0.5233 C   0  0  0  0  0  0  0  0  0  0  0  0
   -1.0600    0.9902    0.1415 C   0  0  0  0  0  0  0  0  0  0  0  0
   -1.2916   -0.3240   -0.6326 C   0  0  0  0  0  0  0  0  0  0  0  0
    0.1131   -0.8384   -0.6414 C   0  0  0  0  0  0  0  0  0  0  0  0
    0.4768   -0.7265    0.8436 C   0  0  0  0  0  0  0  0  0  0  0  0
    1.7677   -1.0843    1.1388 O   0  0  0  0  0  0  0  0  0  0  0  0
    0.8929    1.4506    1.1317 H   0  0  0  0  0  0  0  0  0  0  0  0
   -1.0959    1.7833   -0.6221 H   0  0  0  0  0  0  0  0  0  0  0  0
   -1.7536    1.1052    0.9664 H   0  0  0  0  0  0  0  0  0  0  0  0
   -1.8880   -0.9533    0.0418 H   0  0  0  0  0  0  0  0  0  0  0  0
   -1.7268   -0.1468   -1.6125 H   0  0  0  0  0  0  0  0  0  0  0  0
    0.3765   -1.7224   -1.1540 H   0  0  0  0  0  0  0  0  0  0  0  0
   -0.3239   -1.1261    1.4627 H   0  0  0  0  0  0  0  0  0  0  0  0
    2.3998   -0.4016    0.7886 H   0  0  0  0  0  0  0  0  0  0  0  0
  1  2  2  0
  2  3  1  0
  3  4  1  0
  4  5  1  0
  5  6  1  0
  6  7  1  0
  7  8  1  0
  6  2  1  0
  7  3  1  0
  3  9  1  0
  4 10  1  0
  4 11  1  0
  5 12  1  0
  5 13  1  0
  6 14  1  0
  7 15  1  0
  8 16  1  0
M  END
