
     RDKit          3D

 15 17  0  0  0  0  0  0  0  0999 V2000
   -0.0279    2.5155    0.4312 O   0  0  0  0  0  0  0  0  0  0  0  0
   -0.1436    1.3223    0.3097 C   0  0  0  0  0  0  0  0  0  0  0  0
   -1.1858    0.2775    0.1540 C   0  0  0  0  0  0  0  0  0  0  0  0
   -1.1764   -0.4791    1.3590 O   0  0  0  0  0  0  0  0  0  0  0  0
   -1.5441   -0.4724   -0.9884 C   0  0  0  0  0  0  0  0  0  0  0  0
   -0.1268   -0.2202   -0.9172 C   0  0  0  0  0  0  0  0  0  0  0  0
    0.7470    0.1470    0.2428 C   0  0  0  0  0  0  0  0  0  0  0  0
    2.0789    0.0171    0.4008 C   0  0  0  0  0  0  0  0  0  0  0  0
    1.0451   -0.6458    1.2731 O   0  0  0  0  0  0  0  0  0  0  0  0
   -1.1456   -1.4517    1.1853 H   0  0  0  0  0  0  0  0  0  0  0  0
   -1.8388   -1.5630   -0.9156 H   0  0  0  0  0  0  0  0  0  0  0  0
   -2.2525    0.0232   -1.7210 H   0  0  0  0  0  0  0  0  0  0  0  0
    0.1472    0.5612   -1.7024 H   0  0  0  0  0  0  0  0  0  0  0  0
    2.7194    0.7085    1.0117 H   0  0  0  0  0  0  0  0  0  0  0  0
    2.7039   -0.7401   -0.1231 H   0  0  0  0  0  0  0  0  0  0  0  0
  1  2  2  0
  2  3  1  0
  3  4  1  0
  3  5  1  0
  5  6  1  0
  6  7  1  0
  7  8  1  0
  8  9  1  0
  7  2  1  0
  6  3  1  0
  9  7  1  0
  4 10  1  0
  5 11  1  0
  5 12  1  0
  6 13  1  0
  8 14  1  0
  8 15  1  0
M  END
