
     RDKit          3D

 17 17  0  0  0  0  0  0  0  0999 V2000
   -4.0872   -0.2684   -0.0673 O   0  0  0  0  0  0  0  0  0  0  0  0
   -2.8799   -0.1932   -0.1063 C   0  0  0  0  0  0  0  0  0  0  0  0
   -1.8885    0.8288   -0.5243 C   0  0  0  0  0  0  0  0  0  0  0  0
   -0.9276   -0.3333   -0.8076 C   0  0  0  0  0  0  0  0  0  0  0  0
    0.4244   -0.0170   -0.3801 C   0  0  0  0  0  0  0  0  0  0  0  0
    1.5489    0.2331   -0.0253 C   0  0  0  0  0  0  0  0  0  0  0  0
    2.9043    0.5388    0.3766 C   0  0  0  0  0  0  0  0  0  0  0  0
    3.6363   -0.6385    0.6466 O   0  0  0  0  0  0  0  0  0  0  0  0
   -1.7478   -1.0854    0.2443 C   0  0  0  0  0  0  0  0  0  0  0  0
   -1.5049    1.3897    0.3655 H   0  0  0  0  0  0  0  0  0  0  0  0
   -2.1466    1.4344   -1.3927 H   0  0  0  0  0  0  0  0  0  0  0  0
   -1.0591   -0.6780   -1.8310 H   0  0  0  0  0  0  0  0  0  0  0  0
    2.9701    1.1674    1.2757 H   0  0  0  0  0  0  0  0  0  0  0  0
    3.4014    1.0525   -0.4780 H   0  0  0  0  0  0  0  0  0  0  0  0
    4.6056   -0.4390    0.6452 H   0  0  0  0  0  0  0  0  0  0  0  0
   -1.3583   -0.8370    1.2619 H   0  0  0  0  0  0  0  0  0  0  0  0
   -1.8912   -2.1549    0.0359 H   0  0  0  0  0  0  0  0  0  0  0  0
  1  2  2  0
  2  3  1  0
  3  4  1  0
  4  5  1  0
  5  6  3  0
  6  7  1  0
  7  8  1  0
  4  9  1  0
  9  2  1  0
  3 10  1  0
  3 11  1  0
  4 12  1  0
  7 13  1  0
  7 14  1  0
  8 15  1  0
  9 16  1  0
  9 17  1  0
M  END
