
     RDKit          3D

 17 17  0  0  0  0  0  0  0  0999 V2000
    2.3449    1.2096   -1.1851 O   0  0  0  0  0  0  0  0  0  0  0  0
    1.4544    0.8744   -0.3622 C   0  0  0  0  0  0  0  0  0  0  0  0
    1.7795   -0.2334    0.5163 C   0  0  0  0  0  0  0  0  0  0  0  0
    1.0247   -1.3753    0.3246 O   0  0  0  0  0  0  0  0  0  0  0  0
   -0.1250   -1.1528   -0.4231 C   0  0  0  0  0  0  0  0  0  0  0  0
   -1.0446   -0.2803    0.3835 C   0  0  0  0  0  0  0  0  0  0  0  0
   -2.3841   -0.6964    0.2288 O   0  0  0  0  0  0  0  0  0  0  0  0
   -0.9892    1.1682    0.0016 C   0  0  0  0  0  0  0  0  0  0  0  0
    0.2737    1.6087   -0.4009 O   0  0  0  0  0  0  0  0  0  0  0  0
    2.8430   -0.5283    0.3947 H   0  0  0  0  0  0  0  0  0  0  0  0
    1.6882    0.0535    1.6062 H   0  0  0  0  0  0  0  0  0  0  0  0
    0.1965   -0.6987   -1.3776 H   0  0  0  0  0  0  0  0  0  0  0  0
   -0.5993   -2.1518   -0.5518 H   0  0  0  0  0  0  0  0  0  0  0  0
   -0.7882   -0.3620    1.4564 H   0  0  0  0  0  0  0  0  0  0  0  0
   -2.6280   -0.6279   -0.7338 H   0  0  0  0  0  0  0  0  0  0  0  0
   -1.2806    1.7658    0.8965 H   0  0  0  0  0  0  0  0  0  0  0  0
   -1.7658    1.4267   -0.7741 H   0  0  0  0  0  0  0  0  0  0  0  0
  1  2  2  0
  2  3  1  0
  3  4  1  0
  4  5  1  0
  5  6  1  0
  6  7  1  0
  6  8  1  0
  8  9  1  0
  9  2  1  0
  3 10  1  0
  3 11  1  0
  5 12  1  0
  5 13  1  0
  6 14  1  0
  7 15  1  0
  8 16  1  0
  8 17  1  0
M  END
