
     RDKit          3D

 17 18  0  0  0  0  0  0  0  0999 V2000
    1.7906   -0.8360    2.1993 O   0  0  0  0  0  0  0  0  0  0  0  0
    1.6358   -0.5771    1.0352 C   0  0  0  0  0  0  0  0  0  0  0  0
    2.1800   -0.3471   -0.2854 C   0  0  0  0  0  0  0  0  0  0  0  0
    1.2790    0.8398   -0.3942 C   0  0  0  0  0  0  0  0  0  0  0  0
    0.4914   -0.2954    0.1785 C   0  0  0  0  0  0  0  0  0  0  0  0
   -0.8474   -0.2865    0.5102 C   0  0  0  0  0  0  0  0  0  0  0  0
   -1.7331    0.0581   -0.6794 C   0  0  0  0  0  0  0  0  0  0  0  0
   -3.0543    0.0412   -0.2456 O   0  0  0  0  0  0  0  0  0  0  0  0
    1.1039   -1.0900   -0.7740 O   0  0  0  0  0  0  0  0  0  0  0  0
    3.1319   -0.4192   -0.6099 H   0  0  0  0  0  0  0  0  0  0  0  0
    1.4678    1.6802    0.2753 H   0  0  0  0  0  0  0  0  0  0  0  0
    1.0743    1.0885   -1.4570 H   0  0  0  0  0  0  0  0  0  0  0  0
   -1.2056   -1.2603    0.9030 H   0  0  0  0  0  0  0  0  0  0  0  0
   -1.0957    0.4604    1.2924 H   0  0  0  0  0  0  0  0  0  0  0  0
   -1.5040    1.0814   -1.0352 H   0  0  0  0  0  0  0  0  0  0  0  0
   -1.6172   -0.6963   -1.4957 H   0  0  0  0  0  0  0  0  0  0  0  0
   -3.0972    0.5583    0.5825 H   0  0  0  0  0  0  0  0  0  0  0  0
  1  2  2  0
  2  3  1  0
  3  4  1  0
  4  5  1  0
  5  6  1  0
  6  7  1  0
  7  8  1  0
  5  9  1  0
  5  2  1  0
  9  3  1  0
  3 10  1  0
  4 11  1  0
  4 12  1  0
  6 13  1  0
  6 14  1  0
  7 15  1  0
  7 16  1  0
  8 17  1  0
M  END
