
     RDKit          3D

 17 18  0  0  0  0  0  0  0  0999 V2000
    1.8336    2.1324    0.1339 O   0  0  0  0  0  0  0  0  0  0  0  0
    0.9014    1.3144    0.0510 C   0  0  0  0  0  0  0  0  0  0  0  0
   -0.4111    1.7662    0.0203 O   0  0  0  0  0  0  0  0  0  0  0  0
   -1.6354    1.0551    0.2617 C   0  0  0  0  0  0  0  0  0  0  0  0
   -1.6552   -0.1764   -0.2955 O   0  0  0  0  0  0  0  0  0  0  0  0
   -0.5957   -0.9872   -0.2262 C   0  0  0  0  0  0  0  0  0  0  0  0
    0.3520   -0.8626    0.8946 C   0  0  0  0  0  0  0  0  0  0  0  0
    1.3016   -0.1116   -0.0088 C   0  0  0  0  0  0  0  0  0  0  0  0
    0.5304   -0.7157   -1.1882 C   0  0  0  0  0  0  0  0  0  0  0  0
   -1.8282    1.0815    1.3557 H   0  0  0  0  0  0  0  0  0  0  0  0
   -2.4278    1.6852   -0.2007 H   0  0  0  0  0  0  0  0  0  0  0  0
   -0.9060   -2.0677   -0.3519 H   0  0  0  0  0  0  0  0  0  0  0  0
    0.0330   -0.3172    1.7967 H   0  0  0  0  0  0  0  0  0  0  0  0
    0.8308   -1.8188    1.2039 H   0  0  0  0  0  0  0  0  0  0  0  0
    2.3507   -0.3498    0.0474 H   0  0  0  0  0  0  0  0  0  0  0  0
    0.2463   -0.0105   -1.9671 H   0  0  0  0  0  0  0  0  0  0  0  0
    1.0794   -1.6174   -1.5269 H   0  0  0  0  0  0  0  0  0  0  0  0
  1  2  2  0
  2  3  1  0
  3  4  1  0
  4  5  1  0
  5  6  1  0
  6  7  1  0
  7  8  1  0
  8  9  1  0
  8  2  1  0
  9  6  1  0
  4 10  1  0
  4 11  1  0
  6 12  1  0
  7 13  1  0
  7 14  1  0
  8 15  1  0
  9 16  1  0
  9 17  1  0
M  END
