
     RDKit          3D

 17 18  0  0  0  0  0  0  0  0999 V2000
    0.4024   -2.3398   -1.0591 O   0  0  0  0  0  0  0  0  0  0  0  0
    0.3768   -1.3822   -0.3152 C   0  0  0  0  0  0  0  0  0  0  0  0
    1.6375   -0.6137   -0.2483 C   0  0  0  0  0  0  0  0  0  0  0  0
    1.4092    0.6243   -0.8387 O   0  0  0  0  0  0  0  0  0  0  0  0
    0.6525    1.3648    0.0950 C   0  0  0  0  0  0  0  0  0  0  0  0
   -0.8098    1.3433   -0.2174 C   0  0  0  0  0  0  0  0  0  0  0  0
   -1.2472    0.5736   -1.3201 O   0  0  0  0  0  0  0  0  0  0  0  0
   -1.5483    0.1671   -0.0306 C   0  0  0  0  0  0  0  0  0  0  0  0
   -0.8697   -1.0744    0.4362 C   0  0  0  0  0  0  0  0  0  0  0  0
    1.8310   -0.4268    0.8483 H   0  0  0  0  0  0  0  0  0  0  0  0
    2.5091   -1.1340   -0.6391 H   0  0  0  0  0  0  0  0  0  0  0  0
    1.0619    2.3991    0.1482 H   0  0  0  0  0  0  0  0  0  0  0  0
    0.7771    0.9456    1.1280 H   0  0  0  0  0  0  0  0  0  0  0  0
   -1.3030    2.3463   -0.0811 H   0  0  0  0  0  0  0  0  0  0  0  0
   -2.6316    0.2262    0.2848 H   0  0  0  0  0  0  0  0  0  0  0  0
   -0.6721   -1.0860    1.5444 H   0  0  0  0  0  0  0  0  0  0  0  0
   -1.5759   -1.9335    0.2646 H   0  0  0  0  0  0  0  0  0  0  0  0
  1  2  2  0
  2  3  1  0
  3  4  1  0
  4  5  1  0
  5  6  1  0
  6  7  1  0
  7  8  1  0
  8  9  1  0
  9  2  1  0
  8  6  1  0
  3 10  1  0
  3 11  1  0
  5 12  1  0
  5 13  1  0
  6 14  1  0
  8 15  1  0
  9 16  1  0
  9 17  1  0
M  END
