
     RDKit          3D

 17 18  0  0  0  0  0  0  0  0999 V2000
    2.4927    0.0359    1.6268 O   0  0  0  0  0  0  0  0  0  0  0  0
    1.6040   -0.3530    0.8576 C   0  0  0  0  0  0  0  0  0  0  0  0
    1.5273   -0.2507   -0.6393 C   0  0  0  0  0  0  0  0  0  0  0  0
    0.0397    0.0131   -0.8205 C   0  0  0  0  0  0  0  0  0  0  0  0
   -0.3790    1.3380   -0.2762 C   0  0  0  0  0  0  0  0  0  0  0  0
   -1.4714    1.1727    0.5278 O   0  0  0  0  0  0  0  0  0  0  0  0
   -1.7690   -0.1606    0.6381 C   0  0  0  0  0  0  0  0  0  0  0  0
   -0.5360   -0.9447    0.2312 C   0  0  0  0  0  0  0  0  0  0  0  0
    0.4352   -0.9959    1.2286 O   0  0  0  0  0  0  0  0  0  0  0  0
    1.7312   -1.2542   -1.0359 H   0  0  0  0  0  0  0  0  0  0  0  0
    2.1511    0.5477   -1.0403 H   0  0  0  0  0  0  0  0  0  0  0  0
   -0.3186   -0.2096   -1.8241 H   0  0  0  0  0  0  0  0  0  0  0  0
    0.4534    1.7329    0.3714 H   0  0  0  0  0  0  0  0  0  0  0  0
   -0.5088    2.0781   -1.0792 H   0  0  0  0  0  0  0  0  0  0  0  0
   -2.1463   -0.4599    1.6319 H   0  0  0  0  0  0  0  0  0  0  0  0
   -2.5414   -0.3905   -0.1543 H   0  0  0  0  0  0  0  0  0  0  0  0
   -0.7642   -1.8993   -0.2435 H   0  0  0  0  0  0  0  0  0  0  0  0
  1  2  2  0
  2  3  1  0
  3  4  1  0
  4  5  1  0
  5  6  1  0
  6  7  1  0
  7  8  1  0
  8  9  1  0
  9  2  1  0
  8  4  1  0
  3 10  1  0
  3 11  1  0
  4 12  1  0
  5 13  1  0
  5 14  1  0
  7 15  1  0
  7 16  1  0
  8 17  1  0
M  END
