
     RDKit          3D

 19 20  0  0  0  0  0  0  0  0999 V2000
    2.6310    1.5964   -0.3529 O   0  0  0  0  0  0  0  0  0  0  0  0
    1.6884    0.8983   -0.1290 C   0  0  0  0  0  0  0  0  0  0  0  0
    1.6029   -0.5659   -0.2072 C   0  0  0  0  0  0  0  0  0  0  0  0
    0.1278   -0.8259   -0.5121 C   0  0  0  0  0  0  0  0  0  0  0  0
   -0.5945   -1.3465    0.7297 C   0  0  0  0  0  0  0  0  0  0  0  0
   -1.8683   -0.8432    0.6718 O   0  0  0  0  0  0  0  0  0  0  0  0
   -1.8797    0.3035   -0.0684 C   0  0  0  0  0  0  0  0  0  0  0  0
   -0.5149    0.5367   -0.6366 C   0  0  0  0  0  0  0  0  0  0  0  0
    0.3564    1.3653    0.2897 C   0  0  0  0  0  0  0  0  0  0  0  0
    1.8776   -0.9707    0.8031 H   0  0  0  0  0  0  0  0  0  0  0  0
    2.2405   -1.0098   -0.9877 H   0  0  0  0  0  0  0  0  0  0  0  0
   -0.0085   -1.4647   -1.3780 H   0  0  0  0  0  0  0  0  0  0  0  0
   -0.6246   -2.4571    0.7210 H   0  0  0  0  0  0  0  0  0  0  0  0
   -0.0588   -1.0595    1.6518 H   0  0  0  0  0  0  0  0  0  0  0  0
   -2.2487    1.1951    0.4913 H   0  0  0  0  0  0  0  0  0  0  0  0
   -2.5829    0.1679   -0.9251 H   0  0  0  0  0  0  0  0  0  0  0  0
   -0.5043    0.9341   -1.6530 H   0  0  0  0  0  0  0  0  0  0  0  0
    0.2059    2.4509    0.1460 H   0  0  0  0  0  0  0  0  0  0  0  0
    0.1545    1.0949    1.3455 H   0  0  0  0  0  0  0  0  0  0  0  0
  1  2  2  0
  2  3  1  0
  3  4  1  0
  4  5  1  0
  5  6  1  0
  6  7  1  0
  7  8  1  0
  8  9  1  0
  9  2  1  0
  8  4  1  0
  3 10  1  0
  3 11  1  0
  4 12  1  0
  5 13  1  0
  5 14  1  0
  7 15  1  0
  7 16  1  0
  8 17  1  0
  9 18  1  0
  9 19  1  0
M  END
