
     RDKit          3D

 17 18  0  0  0  0  0  0  0  0999 V2000
   -3.1278   -0.6547   -0.6163 O   0  0  0  0  0  0  0  0  0  0  0  0
   -1.9958   -0.4129   -0.1736 C   0  0  0  0  0  0  0  0  0  0  0  0
   -1.6306    0.9613    0.2375 C   0  0  0  0  0  0  0  0  0  0  0  0
   -0.3695    1.2203    0.5000 C   0  0  0  0  0  0  0  0  0  0  0  0
    0.6163    0.1309    0.3720 C   0  0  0  0  0  0  0  0  0  0  0  0
    2.0454    0.4226    0.5113 C   0  0  0  0  0  0  0  0  0  0  0  0
    1.4529   -0.0214   -0.8359 C   0  0  0  0  0  0  0  0  0  0  0  0
    0.0370   -1.0237    0.8807 O   0  0  0  0  0  0  0  0  0  0  0  0
   -0.9320   -1.4477   -0.0189 C   0  0  0  0  0  0  0  0  0  0  0  0
   -2.3676    1.7364    0.3231 H   0  0  0  0  0  0  0  0  0  0  0  0
   -0.0363    2.1930    0.8026 H   0  0  0  0  0  0  0  0  0  0  0  0
    2.7886   -0.2828    0.9081 H   0  0  0  0  0  0  0  0  0  0  0  0
    2.3465    1.4988    0.5887 H   0  0  0  0  0  0  0  0  0  0  0  0
    1.6732   -1.0537   -1.1781 H   0  0  0  0  0  0  0  0  0  0  0  0
    1.4663    0.7527   -1.6416 H   0  0  0  0  0  0  0  0  0  0  0  0
   -0.5267   -1.6539   -1.0292 H   0  0  0  0  0  0  0  0  0  0  0  0
   -1.4402   -2.3651    0.3695 H   0  0  0  0  0  0  0  0  0  0  0  0
  1  2  2  0
  2  3  1  0
  3  4  2  0
  4  5  1  0
  5  6  1  0
  6  7  1  0
  5  8  1  0
  8  9  1  0
  9  2  1  0
  7  5  1  0
  3 10  1  0
  4 11  1  0
  6 12  1  0
  6 13  1  0
  7 14  1  0
  7 15  1  0
  9 16  1  0
  9 17  1  0
M  END
