
     RDKit          3D

 17 18  0  0  0  0  0  0  0  0999 V2000
    2.3185    0.9174   -1.9331 O   0  0  0  0  0  0  0  0  0  0  0  0
    1.4880    0.5052   -1.0795 C   0  0  0  0  0  0  0  0  0  0  0  0
    1.8836    0.4636    0.3567 C   0  0  0  0  0  0  0  0  0  0  0  0
    1.2708   -0.7449    0.9451 C   0  0  0  0  0  0  0  0  0  0  0  0
    0.0497   -1.0956    0.5940 C   0  0  0  0  0  0  0  0  0  0  0  0
   -0.7020   -0.2654   -0.3969 C   0  0  0  0  0  0  0  0  0  0  0  0
   -1.5964    0.7575    0.1919 C   0  0  0  0  0  0  0  0  0  0  0  0
   -2.1359   -0.3997   -0.6017 C   0  0  0  0  0  0  0  0  0  0  0  0
    0.2069    0.0820   -1.4105 O   0  0  0  0  0  0  0  0  0  0  0  0
    2.9853    0.4919    0.4792 H   0  0  0  0  0  0  0  0  0  0  0  0
    1.4672    1.4077    0.8065 H   0  0  0  0  0  0  0  0  0  0  0  0
    1.8049   -1.3441    1.6561 H   0  0  0  0  0  0  0  0  0  0  0  0
   -0.3814   -1.9918    1.0421 H   0  0  0  0  0  0  0  0  0  0  0  0
   -1.5786    1.7726   -0.2427 H   0  0  0  0  0  0  0  0  0  0  0  0
   -1.8082    0.7180    1.3004 H   0  0  0  0  0  0  0  0  0  0  0  0
   -2.7505   -1.1472   -0.0869 H   0  0  0  0  0  0  0  0  0  0  0  0
   -2.5219   -0.1273   -1.6206 H   0  0  0  0  0  0  0  0  0  0  0  0
  1  2  2  0
  2  3  1  0
  3  4  1  0
  4  5  2  0
  5  6  1  0
  6  7  1  0
  7  8  1  0
  6  9  1  0
  9  2  1  0
  8  6  1  0
  3 10  1  0
  3 11  1  0
  4 12  1  0
  5 13  1  0
  7 14  1  0
  7 15  1  0
  8 16  1  0
  8 17  1  0
M  END
