
     RDKit          3D

 14 15  0  0  0  0  0  0  0  0999 V2000
   -1.9800    1.8353   -0.7117 O   0  0  0  0  0  0  0  0  0  0  0  0
   -1.5399    0.7903   -0.2077 C   0  0  0  0  0  0  0  0  0  0  0  0
   -2.0698   -0.2101    0.6209 O   0  0  0  0  0  0  0  0  0  0  0  0
   -1.0930   -1.1181    0.0948 C   0  0  0  0  0  0  0  0  0  0  0  0
   -0.2858    0.0774   -0.2111 C   0  0  0  0  0  0  0  0  0  0  0  0
    0.7872    0.4832    0.7309 C   0  0  0  0  0  0  0  0  0  0  0  0
    1.6275    0.0761   -0.4696 C   0  0  0  0  0  0  0  0  0  0  0  0
    0.5092    0.0904   -1.3108 O   0  0  0  0  0  0  0  0  0  0  0  0
   -1.4896   -1.5834   -0.8458 H   0  0  0  0  0  0  0  0  0  0  0  0
   -0.6733   -1.8102    0.8228 H   0  0  0  0  0  0  0  0  0  0  0  0
    0.8941   -0.1534    1.6124 H   0  0  0  0  0  0  0  0  0  0  0  0
    0.8205    1.5776    0.8911 H   0  0  0  0  0  0  0  0  0  0  0  0
    2.1023   -0.9036   -0.3246 H   0  0  0  0  0  0  0  0  0  0  0  0
    2.3906    0.8488   -0.6915 H   0  0  0  0  0  0  0  0  0  0  0  0
  1  2  2  0
  2  3  1  0
  3  4  1  0
  4  5  1  0
  5  6  1  0
  6  7  1  0
  7  8  1  0
  5  2  1  0
  8  5  1  0
  4  9  1  0
  4 10  1  0
  6 11  1  0
  6 12  1  0
  7 13  1  0
  7 14  1  0
M  END
