
     RDKit          3D

 17 18  0  0  0  0  0  0  0  0999 V2000
   -0.2818    2.4951   -1.1524 O   0  0  0  0  0  0  0  0  0  0  0  0
   -0.1935    1.3928   -0.6768 C   0  0  0  0  0  0  0  0  0  0  0  0
   -1.2026    0.7004    0.1660 C   0  0  0  0  0  0  0  0  0  0  0  0
   -0.5139   -0.5961    0.5103 C   0  0  0  0  0  0  0  0  0  0  0  0
   -1.2650   -1.5906    0.9779 O   0  0  0  0  0  0  0  0  0  0  0  0
    0.7074   -0.2482    1.3168 C   0  0  0  0  0  0  0  0  0  0  0  0
    1.5726    0.3505    0.5062 C   0  0  0  0  0  0  0  0  0  0  0  0
    0.9354    0.4761   -0.8206 C   0  0  0  0  0  0  0  0  0  0  0  0
    0.1806   -0.8732   -0.8366 C   0  0  0  0  0  0  0  0  0  0  0  0
   -2.1473    0.5103   -0.3998 H   0  0  0  0  0  0  0  0  0  0  0  0
   -1.4850    1.2612    1.0623 H   0  0  0  0  0  0  0  0  0  0  0  0
   -1.6913   -2.1268    0.2855 H   0  0  0  0  0  0  0  0  0  0  0  0
    0.8808   -0.4377    2.3691 H   0  0  0  0  0  0  0  0  0  0  0  0
    2.5608    0.6883    0.7549 H   0  0  0  0  0  0  0  0  0  0  0  0
    1.5845    0.6062   -1.6550 H   0  0  0  0  0  0  0  0  0  0  0  0
    0.8872   -1.6924   -0.7528 H   0  0  0  0  0  0  0  0  0  0  0  0
   -0.5290   -0.9157   -1.6551 H   0  0  0  0  0  0  0  0  0  0  0  0
  1  2  2  0
  2  3  1  0
  3  4  1  0
  4  5  1  0
  4  6  1  0
  6  7  2  0
  7  8  1  0
  8  9  1  0
  8  2  1  0
  9  4  1  0
  3 10  1  0
  3 11  1  0
  5 12  1  0
  6 13  1  0
  7 14  1  0
  8 15  1  0
  9 16  1  0
  9 17  1  0
M  END
