
     RDKit          3D

 13 14  0  0  0  0  0  0  0  0999 V2000
    2.3724    0.7735    0.3186 O   0  0  0  0  0  0  0  0  0  0  0  0
    1.3792    0.1739   -0.0120 C   0  0  0  0  0  0  0  0  0  0  0  0
    0.5461   -1.0133    0.0826 C   0  0  0  0  0  0  0  0  0  0  0  0
   -0.7659   -0.5721    0.7296 C   0  0  0  0  0  0  0  0  0  0  0  0
   -0.8530    0.7922    0.0145 C   0  0  0  0  0  0  0  0  0  0  0  0
    0.2851    0.5639   -0.9472 C   0  0  0  0  0  0  0  0  0  0  0  0
    0.2159   -0.8018   -1.2802 O   0  0  0  0  0  0  0  0  0  0  0  0
    0.9394   -1.9638    0.3475 H   0  0  0  0  0  0  0  0  0  0  0  0
   -1.5515   -1.2491    0.3678 H   0  0  0  0  0  0  0  0  0  0  0  0
   -0.6952   -0.4539    1.8044 H   0  0  0  0  0  0  0  0  0  0  0  0
   -1.8196    0.9462   -0.4535 H   0  0  0  0  0  0  0  0  0  0  0  0
   -0.5362    1.5392    0.7427 H   0  0  0  0  0  0  0  0  0  0  0  0
    0.4834    1.2651   -1.7148 H   0  0  0  0  0  0  0  0  0  0  0  0
  1  2  2  0
  2  3  1  0
  3  4  1  0
  4  5  1  0
  5  6  1  0
  6  7  1  0
  6  2  1  0
  7  3  1  0
  3  8  1  0
  4  9  1  0
  4 10  1  0
  5 11  1  0
  5 12  1  0
  6 13  1  0
M  END
