
     RDKit          3D

 17 18  0  0  0  0  0  0  0  0999 V2000
   -2.0620   -1.2421   -1.2627 O   0  0  0  0  0  0  0  0  0  0  0  0
   -1.3793   -0.7143   -0.3878 C   0  0  0  0  0  0  0  0  0  0  0  0
   -1.1123   -0.8332    1.0619 C   0  0  0  0  0  0  0  0  0  0  0  0
   -0.1958    0.3698    0.9775 C   0  0  0  0  0  0  0  0  0  0  0  0
    1.1204    0.1569    1.2378 O   0  0  0  0  0  0  0  0  0  0  0  0
    1.8128   -0.0628    0.0918 C   0  0  0  0  0  0  0  0  0  0  0  0
    0.8822   -0.0302   -1.0754 C   0  0  0  0  0  0  0  0  0  0  0  0
   -0.4193    0.4186   -0.4868 C   0  0  0  0  0  0  0  0  0  0  0  0
   -0.9636    1.5740   -1.0129 O   0  0  0  0  0  0  0  0  0  0  0  0
   -2.0524   -0.6582    1.6467 H   0  0  0  0  0  0  0  0  0  0  0  0
   -0.5819   -1.7236    1.4026 H   0  0  0  0  0  0  0  0  0  0  0  0
   -0.6582    1.2252    1.5394 H   0  0  0  0  0  0  0  0  0  0  0  0
    2.5838    0.7417   -0.0696 H   0  0  0  0  0  0  0  0  0  0  0  0
    2.3216   -1.0270    0.1356 H   0  0  0  0  0  0  0  0  0  0  0  0
    0.8005   -1.0276   -1.5994 H   0  0  0  0  0  0  0  0  0  0  0  0
    1.2263    0.6741   -1.8712 H   0  0  0  0  0  0  0  0  0  0  0  0
   -1.3227    2.1586   -0.3275 H   0  0  0  0  0  0  0  0  0  0  0  0
  1  2  2  0
  2  3  1  0
  3  4  1  0
  4  5  1  0
  5  6  1  0
  6  7  1  0
  7  8  1  0
  8  9  1  0
  8  2  1  0
  8  4  1  0
  3 10  1  0
  3 11  1  0
  4 12  1  0
  6 13  1  0
  6 14  1  0
  7 15  1  0
  7 16  1  0
  9 17  1  0
M  END
