
     RDKit          3D

 19 19  0  0  0  0  0  0  0  0999 V2000
    3.5101   -0.3691    1.0142 O   0  0  0  0  0  0  0  0  0  0  0  0
    2.3339   -0.0300    0.7470 C   0  0  0  0  0  0  0  0  0  0  0  0
    1.1777   -0.9286    0.3920 C   0  0  0  0  0  0  0  0  0  0  0  0
    0.4615   -0.0869   -0.6173 C   0  0  0  0  0  0  0  0  0  0  0  0
   -1.0192   -0.2819   -0.6416 C   0  0  0  0  0  0  0  0  0  0  0  0
   -1.7196    0.0278    0.6420 C   0  0  0  0  0  0  0  0  0  0  0  0
   -3.0858   -0.2118    0.4282 O   0  0  0  0  0  0  0  0  0  0  0  0
    0.8822    1.3315   -0.3979 C   0  0  0  0  0  0  0  0  0  0  0  0
    1.7883    1.2511    0.7072 O   0  0  0  0  0  0  0  0  0  0  0  0
    0.5865   -1.1791    1.2790 H   0  0  0  0  0  0  0  0  0  0  0  0
    1.6318   -1.8354   -0.0571 H   0  0  0  0  0  0  0  0  0  0  0  0
    0.8413   -0.3942   -1.6188 H   0  0  0  0  0  0  0  0  0  0  0  0
   -1.2309   -1.3244   -0.9559 H   0  0  0  0  0  0  0  0  0  0  0  0
   -1.4324    0.3847   -1.4263 H   0  0  0  0  0  0  0  0  0  0  0  0
   -1.6183    1.0979    0.9171 H   0  0  0  0  0  0  0  0  0  0  0  0
   -1.4157   -0.5738    1.4916 H   0  0  0  0  0  0  0  0  0  0  0  0
   -3.2651   -0.6400   -0.4346 H   0  0  0  0  0  0  0  0  0  0  0  0
    0.0701    2.0340   -0.2242 H   0  0  0  0  0  0  0  0  0  0  0  0
    1.5037    1.7282   -1.2446 H   0  0  0  0  0  0  0  0  0  0  0  0
  1  2  2  0
  2  3  1  0
  3  4  1  0
  4  5  1  0
  5  6  1  0
  6  7  1  0
  4  8  1  0
  8  9  1  0
  9  2  1  0
  3 10  1  0
  3 11  1  0
  4 12  1  0
  5 13  1  0
  5 14  1  0
  6 15  1  0
  6 16  1  0
  7 17  1  0
  8 18  1  0
  8 19  1  0
M  END
