
     RDKit          3D

 17 18  0  0  0  0  0  0  0  0999 V2000
    1.6656   -1.4991    1.2804 O   0  0  0  0  0  0  0  0  0  0  0  0
    1.0563   -0.6601    0.6774 C   0  0  0  0  0  0  0  0  0  0  0  0
    1.7117    0.3279   -0.2012 C   0  0  0  0  0  0  0  0  0  0  0  0
    0.9013    0.7768   -1.2150 O   0  0  0  0  0  0  0  0  0  0  0  0
   -0.4220    0.9464   -0.9185 C   0  0  0  0  0  0  0  0  0  0  0  0
   -0.7355    0.9086    0.5697 C   0  0  0  0  0  0  0  0  0  0  0  0
   -0.4117   -0.5811    0.7935 C   0  0  0  0  0  0  0  0  0  0  0  0
   -1.0956   -1.1472   -0.4362 C   0  0  0  0  0  0  0  0  0  0  0  0
   -1.1695   -0.1423   -1.3667 O   0  0  0  0  0  0  0  0  0  0  0  0
    2.0541    1.2352    0.3641 H   0  0  0  0  0  0  0  0  0  0  0  0
    2.5967   -0.1676   -0.6978 H   0  0  0  0  0  0  0  0  0  0  0  0
   -0.7957    1.8720   -1.3947 H   0  0  0  0  0  0  0  0  0  0  0  0
   -1.8110    1.0224    0.6683 H   0  0  0  0  0  0  0  0  0  0  0  0
   -0.1142    1.5620    1.1656 H   0  0  0  0  0  0  0  0  0  0  0  0
   -0.8304   -0.9066    1.7311 H   0  0  0  0  0  0  0  0  0  0  0  0
   -0.5209   -1.9846   -0.8869 H   0  0  0  0  0  0  0  0  0  0  0  0
   -2.0791   -1.5628   -0.1329 H   0  0  0  0  0  0  0  0  0  0  0  0
  1  2  2  0
  2  3  1  0
  3  4  1  0
  4  5  1  0
  5  6  1  0
  6  7  1  0
  7  8  1  0
  8  9  1  0
  7  2  1  0
  9  5  1  0
  3 10  1  0
  3 11  1  0
  5 12  1  0
  6 13  1  0
  6 14  1  0
  7 15  1  0
  8 16  1  0
  8 17  1  0
M  END
