
     RDKit          3D

 17 18  0  0  0  0  0  0  0  0999 V2000
    1.2203    0.0739    2.0122 O   0  0  0  0  0  0  0  0  0  0  0  0
    1.2627    0.0860    0.8038 C   0  0  0  0  0  0  0  0  0  0  0  0
    2.2556    0.0200   -0.3083 C   0  0  0  0  0  0  0  0  0  0  0  0
    1.2707    0.4502   -1.2018 O   0  0  0  0  0  0  0  0  0  0  0  0
    0.3010    0.1779   -0.2894 C   0  0  0  0  0  0  0  0  0  0  0  0
   -0.4905   -1.0496   -0.6248 C   0  0  0  0  0  0  0  0  0  0  0  0
   -1.6823   -0.9006    0.2709 C   0  0  0  0  0  0  0  0  0  0  0  0
   -1.8319    0.3789    0.6046 C   0  0  0  0  0  0  0  0  0  0  0  0
   -0.7546    1.2059   -0.0363 C   0  0  0  0  0  0  0  0  0  0  0  0
    2.5911   -1.0207   -0.4322 H   0  0  0  0  0  0  0  0  0  0  0  0
    3.0566    0.7807   -0.2205 H   0  0  0  0  0  0  0  0  0  0  0  0
   -0.8375   -0.9720   -1.6880 H   0  0  0  0  0  0  0  0  0  0  0  0
    0.0761   -1.9596   -0.4431 H   0  0  0  0  0  0  0  0  0  0  0  0
   -2.3033   -1.7162    0.5810 H   0  0  0  0  0  0  0  0  0  0  0  0
   -2.6099    0.7966    1.2456 H   0  0  0  0  0  0  0  0  0  0  0  0
   -0.3743    1.9790    0.6801 H   0  0  0  0  0  0  0  0  0  0  0  0
   -1.1500    1.6695   -0.9538 H   0  0  0  0  0  0  0  0  0  0  0  0
  1  2  2  0
  2  3  1  0
  3  4  1  0
  4  5  1  0
  5  6  1  0
  6  7  1  0
  7  8  2  0
  8  9  1  0
  5  2  1  0
  9  5  1  0
  3 10  1  0
  3 11  1  0
  6 12  1  0
  6 13  1  0
  7 14  1  0
  8 15  1  0
  9 16  1  0
  9 17  1  0
M  END
