
     RDKit          3D

 15 17  0  0  0  0  0  0  0  0999 V2000
   -1.7012   -1.3771    1.6030 O   0  0  0  0  0  0  0  0  0  0  0  0
   -1.2990   -0.7261    0.6635 C   0  0  0  0  0  0  0  0  0  0  0  0
   -1.7137    0.5900    0.1163 C   0  0  0  0  0  0  0  0  0  0  0  0
   -0.4899    0.5288   -0.7759 C   0  0  0  0  0  0  0  0  0  0  0  0
    0.7338    1.2017   -0.3259 C   0  0  0  0  0  0  0  0  0  0  0  0
    1.6491    0.3809    0.1168 C   0  0  0  0  0  0  0  0  0  0  0  0
    1.1921   -1.0190    0.0407 C   0  0  0  0  0  0  0  0  0  0  0  0
   -0.2512   -0.9227   -0.3404 C   0  0  0  0  0  0  0  0  0  0  0  0
   -0.4679   -0.5161   -1.6549 O   0  0  0  0  0  0  0  0  0  0  0  0
   -1.6383    1.4471    0.7966 H   0  0  0  0  0  0  0  0  0  0  0  0
   -2.6263    0.5592   -0.5274 H   0  0  0  0  0  0  0  0  0  0  0  0
    0.8628    2.2949   -0.3603 H   0  0  0  0  0  0  0  0  0  0  0  0
    2.6376    0.6885    0.4993 H   0  0  0  0  0  0  0  0  0  0  0  0
    1.7275   -1.5254   -0.8035 H   0  0  0  0  0  0  0  0  0  0  0  0
    1.3846   -1.6046    0.9521 H   0  0  0  0  0  0  0  0  0  0  0  0
  1  2  2  0
  2  3  1  0
  3  4  1  0
  4  5  1  0
  5  6  2  0
  6  7  1  0
  7  8  1  0
  8  9  1  0
  8  2  1  0
  8  4  1  0
  9  4  1  0
  3 10  1  0
  3 11  1  0
  5 12  1  0
  6 13  1  0
  7 14  1  0
  7 15  1  0
M  END
