
     RDKit          3D

 17 18  0  0  0  0  0  0  0  0999 V2000
    1.4374    2.4796   -0.4867 O   0  0  0  0  0  0  0  0  0  0  0  0
    0.7974    1.4280   -0.2864 C   0  0  0  0  0  0  0  0  0  0  0  0
    1.4862    0.1181   -0.2268 C   0  0  0  0  0  0  0  0  0  0  0  0
    0.5074   -1.0005    0.0151 C   0  0  0  0  0  0  0  0  0  0  0  0
   -0.7235   -0.9141   -0.8440 C   0  0  0  0  0  0  0  0  0  0  0  0
   -1.2610    0.0955    0.1348 C   0  0  0  0  0  0  0  0  0  0  0  0
   -0.3922   -0.5964    1.1833 C   0  0  0  0  0  0  0  0  0  0  0  0
   -0.6470    1.4360   -0.1028 C   0  0  0  0  0  0  0  0  0  0  0  0
   -1.3437    2.4616   -0.1356 O   0  0  0  0  0  0  0  0  0  0  0  0
    2.0160   -0.0836   -1.1785 H   0  0  0  0  0  0  0  0  0  0  0  0
    2.1941    0.1210    0.6384 H   0  0  0  0  0  0  0  0  0  0  0  0
    0.9803   -1.9702    0.1071 H   0  0  0  0  0  0  0  0  0  0  0  0
   -0.5972   -0.4887   -1.8463 H   0  0  0  0  0  0  0  0  0  0  0  0
   -1.3021   -1.8500   -0.7711 H   0  0  0  0  0  0  0  0  0  0  0  0
   -2.3294    0.0765    0.3141 H   0  0  0  0  0  0  0  0  0  0  0  0
   -0.9213   -1.4343    1.6353 H   0  0  0  0  0  0  0  0  0  0  0  0
    0.0986    0.1216    1.8500 H   0  0  0  0  0  0  0  0  0  0  0  0
  1  2  2  0
  2  3  1  0
  3  4  1  0
  4  5  1  0
  5  6  1  0
  6  7  1  0
  6  8  1  0
  8  9  2  0
  8  2  1  0
  7  4  1  0
  3 10  1  0
  3 11  1  0
  4 12  1  0
  5 13  1  0
  5 14  1  0
  6 15  1  0
  7 16  1  0
  7 17  1  0
M  END
