
     RDKit          3D

 17 18  0  0  0  0  0  0  0  0999 V2000
    2.0989   -1.6314    0.3754 O   0  0  0  0  0  0  0  0  0  0  0  0
    1.1945   -0.9357   -0.0535 C   0  0  0  0  0  0  0  0  0  0  0  0
    1.6478    0.4577   -0.3299 C   0  0  0  0  0  0  0  0  0  0  0  0
    0.8215    1.3158    0.5994 C   0  0  0  0  0  0  0  0  0  0  0  0
   -0.4957    1.3231    0.6516 C   0  0  0  0  0  0  0  0  0  0  0  0
   -1.4559    0.5319   -0.1474 C   0  0  0  0  0  0  0  0  0  0  0  0
   -1.3121   -0.9290   -0.0626 C   0  0  0  0  0  0  0  0  0  0  0  0
   -0.8274   -1.4750   -1.3839 O   0  0  0  0  0  0  0  0  0  0  0  0
   -0.0968   -1.6050   -0.1969 C   0  0  0  0  0  0  0  0  0  0  0  0
    2.6861    0.6156   -0.0540 H   0  0  0  0  0  0  0  0  0  0  0  0
    1.5054    0.7506   -1.3824 H   0  0  0  0  0  0  0  0  0  0  0  0
    1.3261    1.9782    1.2782 H   0  0  0  0  0  0  0  0  0  0  0  0
   -0.9035    2.0016    1.3782 H   0  0  0  0  0  0  0  0  0  0  0  0
   -1.3759    0.9503   -1.1969 H   0  0  0  0  0  0  0  0  0  0  0  0
   -2.5056    0.8404    0.1459 H   0  0  0  0  0  0  0  0  0  0  0  0
   -2.2279   -1.4937    0.2716 H   0  0  0  0  0  0  0  0  0  0  0  0
   -0.0795   -2.6953    0.1072 H   0  0  0  0  0  0  0  0  0  0  0  0
  1  2  2  0
  2  3  1  0
  3  4  1  0
  4  5  2  0
  5  6  1  0
  6  7  1  0
  7  8  1  0
  8  9  1  0
  9  2  1  0
  9  7  1  0
  3 10  1  0
  3 11  1  0
  4 12  1  0
  5 13  1  0
  6 14  1  0
  6 15  1  0
  7 16  1  0
  9 17  1  0
M  END
