
     RDKit          3D

 17 18  0  0  0  0  0  0  0  0999 V2000
   -0.3883    2.4222   -0.7633 O   0  0  0  0  0  0  0  0  0  0  0  0
   -0.1334    1.3256   -0.3470 C   0  0  0  0  0  0  0  0  0  0  0  0
   -1.1832    0.3491    0.1194 C   0  0  0  0  0  0  0  0  0  0  0  0
   -2.4285    0.6427   -0.3862 O   0  0  0  0  0  0  0  0  0  0  0  0
   -0.6791   -1.0231   -0.3466 C   0  0  0  0  0  0  0  0  0  0  0  0
    0.8230   -1.0792   -0.3595 C   0  0  0  0  0  0  0  0  0  0  0  0
    1.3807   -0.2693    0.7982 C   0  0  0  0  0  0  0  0  0  0  0  0
    1.2655    0.8016   -0.2435 C   0  0  0  0  0  0  0  0  0  0  0  0
    1.4057   -0.1681   -1.2171 O   0  0  0  0  0  0  0  0  0  0  0  0
   -1.1760    0.4158    1.2340 H   0  0  0  0  0  0  0  0  0  0  0  0
   -3.0917    0.7487    0.3685 H   0  0  0  0  0  0  0  0  0  0  0  0
   -1.0740   -1.2204   -1.3605 H   0  0  0  0  0  0  0  0  0  0  0  0
   -1.0448   -1.7446    0.3877 H   0  0  0  0  0  0  0  0  0  0  0  0
    1.2063   -2.0963   -0.3751 H   0  0  0  0  0  0  0  0  0  0  0  0
    0.7181   -0.2113    1.6618 H   0  0  0  0  0  0  0  0  0  0  0  0
    2.4146   -0.5067    1.0507 H   0  0  0  0  0  0  0  0  0  0  0  0
    1.9853    1.6132   -0.2213 H   0  0  0  0  0  0  0  0  0  0  0  0
  1  2  2  0
  2  3  1  0
  3  4  1  0
  3  5  1  0
  5  6  1  0
  6  7  1  0
  7  8  1  0
  8  9  1  0
  8  2  1  0
  9  6  1  0
  3 10  1  0
  4 11  1  0
  5 12  1  0
  5 13  1  0
  6 14  1  0
  7 15  1  0
  7 16  1  0
  8 17  1  0
M  END
