
     RDKit          3D

 15 17  0  0  0  0  0  0  0  0999 V2000
    2.1540    1.5514   -0.4357 O   0  0  0  0  0  0  0  0  0  0  0  0
    1.5655    0.5753   -0.0872 C   0  0  0  0  0  0  0  0  0  0  0  0
    0.9521    0.0226    1.1198 C   0  0  0  0  0  0  0  0  0  0  0  0
    1.3490   -1.2461    0.6290 O   0  0  0  0  0  0  0  0  0  0  0  0
    1.0797   -0.6963   -0.6450 C   0  0  0  0  0  0  0  0  0  0  0  0
   -0.4195   -0.5278   -0.6450 C   0  0  0  0  0  0  0  0  0  0  0  0
   -1.0439    0.7592   -0.3067 C   0  0  0  0  0  0  0  0  0  0  0  0
   -2.4255    0.8220   -0.4554 O   0  0  0  0  0  0  0  0  0  0  0  0
   -0.5338   -0.0103    0.8342 C   0  0  0  0  0  0  0  0  0  0  0  0
    1.2878    0.2990    2.0882 H   0  0  0  0  0  0  0  0  0  0  0  0
    1.5585   -1.1374   -1.4845 H   0  0  0  0  0  0  0  0  0  0  0  0
   -1.0257   -1.3928   -0.9087 H   0  0  0  0  0  0  0  0  0  0  0  0
   -0.5463    1.7345   -0.5408 H   0  0  0  0  0  0  0  0  0  0  0  0
   -2.8276   -0.0865   -0.6274 H   0  0  0  0  0  0  0  0  0  0  0  0
   -1.1242   -0.6668    1.4652 H   0  0  0  0  0  0  0  0  0  0  0  0
  1  2  2  0
  2  3  1  0
  3  4  1  0
  4  5  1  0
  5  6  1  0
  6  7  1  0
  7  8  1  0
  7  9  1  0
  5  2  1  0
  9  6  1  0
  9  3  1  0
  3 10  1  0
  5 11  1  0
  6 12  1  0
  7 13  1  0
  8 14  1  0
  9 15  1  0
M  END
