
     RDKit          3D

 17 18  0  0  0  0  0  0  0  0999 V2000
   -0.3164    2.6256    0.4468 O   0  0  0  0  0  0  0  0  0  0  0  0
    0.0726    1.4985    0.0194 C   0  0  0  0  0  0  0  0  0  0  0  0
    1.4213    1.2871    0.2475 O   0  0  0  0  0  0  0  0  0  0  0  0
    2.1239    0.0952    0.0461 C   0  0  0  0  0  0  0  0  0  0  0  0
    1.4480   -0.8341   -0.7058 O   0  0  0  0  0  0  0  0  0  0  0  0
    0.3380   -1.2532    0.0244 C   0  0  0  0  0  0  0  0  0  0  0  0
   -0.9381   -0.7150   -0.5231 C   0  0  0  0  0  0  0  0  0  0  0  0
   -1.8819   -0.0140    0.3791 C   0  0  0  0  0  0  0  0  0  0  0  0
   -1.0061    0.7307   -0.5965 C   0  0  0  0  0  0  0  0  0  0  0  0
    3.1454    0.3064   -0.3665 H   0  0  0  0  0  0  0  0  0  0  0  0
    2.2891   -0.3556    1.0666 H   0  0  0  0  0  0  0  0  0  0  0  0
    0.2681   -2.3610    0.0529 H   0  0  0  0  0  0  0  0  0  0  0  0
    0.4196   -0.9297    1.0899 H   0  0  0  0  0  0  0  0  0  0  0  0
   -1.3210   -1.2856   -1.4178 H   0  0  0  0  0  0  0  0  0  0  0  0
   -1.5901   -0.0417    1.4618 H   0  0  0  0  0  0  0  0  0  0  0  0
   -2.9573    0.0163    0.2236 H   0  0  0  0  0  0  0  0  0  0  0  0
   -1.5152    1.2299   -1.4485 H   0  0  0  0  0  0  0  0  0  0  0  0
  1  2  2  0
  2  3  1  0
  3  4  1  0
  4  5  1  0
  5  6  1  0
  6  7  1  0
  7  8  1  0
  8  9  1  0
  9  2  1  0
  9  7  1  0
  4 10  1  0
  4 11  1  0
  6 12  1  0
  6 13  1  0
  7 14  1  0
  8 15  1  0
  8 16  1  0
  9 17  1  0
M  END
