
     RDKit          3D

 17 18  0  0  0  0  0  0  0  0999 V2000
   -3.2195   -0.0984    0.1494 O   0  0  0  0  0  0  0  0  0  0  0  0
   -1.9900    0.0751    0.1138 C   0  0  0  0  0  0  0  0  0  0  0  0
   -0.9897   -1.0066    0.3844 C   0  0  0  0  0  0  0  0  0  0  0  0
    0.0895   -0.8697   -0.6549 C   0  0  0  0  0  0  0  0  0  0  0  0
    1.2552   -1.5130   -0.2338 O   0  0  0  0  0  0  0  0  0  0  0  0
    1.7988   -0.2683    0.1158 C   0  0  0  0  0  0  0  0  0  0  0  0
    0.7438    0.4754   -0.6622 C   0  0  0  0  0  0  0  0  0  0  0  0
   -0.0566    1.4774    0.1134 C   0  0  0  0  0  0  0  0  0  0  0  0
   -1.4462    1.3314   -0.1911 O   0  0  0  0  0  0  0  0  0  0  0  0
   -0.5900   -0.8707    1.4170 H   0  0  0  0  0  0  0  0  0  0  0  0
   -1.4530   -2.0001    0.2529 H   0  0  0  0  0  0  0  0  0  0  0  0
   -0.2869   -1.1415   -1.6395 H   0  0  0  0  0  0  0  0  0  0  0  0
    2.8310   -0.2183   -0.3176 H   0  0  0  0  0  0  0  0  0  0  0  0
    1.7923   -0.1234    1.2050 H   0  0  0  0  0  0  0  0  0  0  0  0
    1.1551    0.8268   -1.6149 H   0  0  0  0  0  0  0  0  0  0  0  0
    0.1352    1.4350    1.1974 H   0  0  0  0  0  0  0  0  0  0  0  0
    0.2312    2.4888   -0.2511 H   0  0  0  0  0  0  0  0  0  0  0  0
  1  2  2  0
  2  3  1  0
  3  4  1  0
  4  5  1  0
  5  6  1  0
  6  7  1  0
  7  8  1  0
  8  9  1  0
  9  2  1  0
  7  4  1  0
  3 10  1  0
  3 11  1  0
  4 12  1  0
  6 13  1  0
  6 14  1  0
  7 15  1  0
  8 16  1  0
  8 17  1  0
M  END
