
     RDKit          3D

 15 16  0  0  0  0  0  0  0  0999 V2000
    1.0228   -0.9669   -2.3089 O   0  0  0  0  0  0  0  0  0  0  0  0
    0.5175   -0.8559   -1.1622 C   0  0  0  0  0  0  0  0  0  0  0  0
   -0.2356   -1.7826   -0.4373 O   0  0  0  0  0  0  0  0  0  0  0  0
   -1.1049   -1.1127    0.4595 C   0  0  0  0  0  0  0  0  0  0  0  0
   -0.7709    0.3718    0.3322 C   0  0  0  0  0  0  0  0  0  0  0  0
   -1.7264    0.9163   -0.5206 O   0  0  0  0  0  0  0  0  0  0  0  0
    0.6008    0.3221   -0.2731 C   0  0  0  0  0  0  0  0  0  0  0  0
    1.8174    0.5842    0.4181 C   0  0  0  0  0  0  0  0  0  0  0  0
    1.2678    1.4515   -0.6360 O   0  0  0  0  0  0  0  0  0  0  0  0
   -2.1431   -1.3272    0.1137 H   0  0  0  0  0  0  0  0  0  0  0  0
   -1.0215   -1.4588    1.4924 H   0  0  0  0  0  0  0  0  0  0  0  0
   -0.7060    0.8753    1.2981 H   0  0  0  0  0  0  0  0  0  0  0  0
   -2.0567    1.7913   -0.2435 H   0  0  0  0  0  0  0  0  0  0  0  0
    1.7707    1.0307    1.4300 H   0  0  0  0  0  0  0  0  0  0  0  0
    2.7681    0.1609    0.0377 H   0  0  0  0  0  0  0  0  0  0  0  0
  1  2  2  0
  2  3  1  0
  3  4  1  0
  4  5  1  0
  5  6  1  0
  5  7  1  0
  7  8  1  0
  8  9  1  0
  7  2  1  0
  9  7  1  0
  4 10  1  0
  4 11  1  0
  5 12  1  0
  6 13  1  0
  8 14  1  0
  8 15  1  0
M  END
