
     RDKit          3D

 17 17  0  0  0  0  0  0  0  0999 V2000
   -0.0017   -1.1164    1.9422 O   0  0  0  0  0  0  0  0  0  0  0  0
   -0.2614   -0.4521    0.9723 C   0  0  0  0  0  0  0  0  0  0  0  0
   -1.6071   -0.0326    0.4335 C   0  0  0  0  0  0  0  0  0  0  0  0
   -2.5928   -0.9323    0.7373 O   0  0  0  0  0  0  0  0  0  0  0  0
   -1.3012    0.0630   -1.0416 C   0  0  0  0  0  0  0  0  0  0  0  0
    0.0420   -0.1672   -1.2099 O   0  0  0  0  0  0  0  0  0  0  0  0
    0.6701    0.1809   -0.0252 C   0  0  0  0  0  0  0  0  0  0  0  0
    2.0593   -0.3848    0.0760 C   0  0  0  0  0  0  0  0  0  0  0  0
    2.7992    0.1178   -0.9931 O   0  0  0  0  0  0  0  0  0  0  0  0
   -1.7799    0.9907    0.8385 H   0  0  0  0  0  0  0  0  0  0  0  0
   -3.4499   -0.4136    0.8023 H   0  0  0  0  0  0  0  0  0  0  0  0
   -1.5245    1.0968   -1.4180 H   0  0  0  0  0  0  0  0  0  0  0  0
   -1.9424   -0.6399   -1.6353 H   0  0  0  0  0  0  0  0  0  0  0  0
    0.6268    1.2633    0.1680 H   0  0  0  0  0  0  0  0  0  0  0  0
    2.5482   -0.1514    1.0305 H   0  0  0  0  0  0  0  0  0  0  0  0
    2.0299   -1.4855   -0.0353 H   0  0  0  0  0  0  0  0  0  0  0  0
    3.6852    0.4338   -0.6423 H   0  0  0  0  0  0  0  0  0  0  0  0
  1  2  2  0
  2  3  1  0
  3  4  1  0
  3  5  1  0
  5  6  1  0
  6  7  1  0
  7  8  1  0
  8  9  1  0
  7  2  1  0
  3 10  1  0
  4 11  1  0
  5 12  1  0
  5 13  1  0
  7 14  1  0
  8 15  1  0
  8 16  1  0
  9 17  1  0
M  END
