
     RDKit          3D

 17 18  0  0  0  0  0  0  0  0999 V2000
    0.0445    2.1178   -0.6788 O   0  0  0  0  0  0  0  0  0  0  0  0
    0.5001    1.1017   -0.2379 C   0  0  0  0  0  0  0  0  0  0  0  0
    1.9212    0.8611    0.2136 C   0  0  0  0  0  0  0  0  0  0  0  0
    2.1680   -0.3834   -0.3479 O   0  0  0  0  0  0  0  0  0  0  0  0
    1.0246   -1.1562   -0.1466 C   0  0  0  0  0  0  0  0  0  0  0  0
   -0.1276   -0.2290    0.0158 C   0  0  0  0  0  0  0  0  0  0  0  0
   -1.3786   -0.5174   -0.7156 C   0  0  0  0  0  0  0  0  0  0  0  0
   -1.9504    0.1847    0.4982 C   0  0  0  0  0  0  0  0  0  0  0  0
   -0.8204   -0.2785    1.2087 O   0  0  0  0  0  0  0  0  0  0  0  0
    2.6037    1.6135   -0.1669 H   0  0  0  0  0  0  0  0  0  0  0  0
    1.8617    0.8150    1.3272 H   0  0  0  0  0  0  0  0  0  0  0  0
    1.1427   -1.7535    0.7688 H   0  0  0  0  0  0  0  0  0  0  0  0
    0.9386   -1.8054   -1.0620 H   0  0  0  0  0  0  0  0  0  0  0  0
   -1.5366   -0.0076   -1.6751 H   0  0  0  0  0  0  0  0  0  0  0  0
   -1.6396   -1.5853   -0.6785 H   0  0  0  0  0  0  0  0  0  0  0  0
   -1.9019    1.2865    0.4691 H   0  0  0  0  0  0  0  0  0  0  0  0
   -2.8500   -0.2637    0.9320 H   0  0  0  0  0  0  0  0  0  0  0  0
  1  2  2  0
  2  3  1  0
  3  4  1  0
  4  5  1  0
  5  6  1  0
  6  7  1  0
  7  8  1  0
  8  9  1  0
  6  2  1  0
  9  6  1  0
  3 10  1  0
  3 11  1  0
  5 12  1  0
  5 13  1  0
  7 14  1  0
  7 15  1  0
  8 16  1  0
  8 17  1  0
M  END
