
     RDKit          3D

 12 12  0  0  0  0  0  0  0  0999 V2000
   -1.5388   -2.0846    0.3341 O   0  0  0  0  0  0  0  0  0  0  0  0
   -0.8910   -1.0257    0.1435 C   0  0  0  0  0  0  0  0  0  0  0  0
   -1.5882    0.1674    0.1020 C   0  0  0  0  0  0  0  0  0  0  0  0
   -0.8331    1.3086   -0.1103 C   0  0  0  0  0  0  0  0  0  0  0  0
    0.4710    1.2835   -0.2659 O   0  0  0  0  0  0  0  0  0  0  0  0
    1.1806    0.1790   -0.2352 C   0  0  0  0  0  0  0  0  0  0  0  0
    2.5651    0.1771   -0.4031 O   0  0  0  0  0  0  0  0  0  0  0  0
    0.4750   -0.9916   -0.0258 C   0  0  0  0  0  0  0  0  0  0  0  0
   -2.6610    0.2237    0.2262 H   0  0  0  0  0  0  0  0  0  0  0  0
   -1.3991    2.2413   -0.1402 H   0  0  0  0  0  0  0  0  0  0  0  0
    3.1723    0.4258    0.3734 H   0  0  0  0  0  0  0  0  0  0  0  0
    1.0471   -1.9046    0.0013 H   0  0  0  0  0  0  0  0  0  0  0  0
  1  2  2  0
  2  3  1  0
  3  4  2  0
  4  5  1  0
  5  6  1  0
  6  7  1  0
  6  8  2  0
  8  2  1  0
  3  9  1  0
  4 10  1  0
  7 11  1  0
  8 12  1  0
M  END
