
     RDKit          3D

 17 18  0  0  0  0  0  0  0  0999 V2000
    2.3694    0.8145    1.6835 O   0  0  0  0  0  0  0  0  0  0  0  0
    1.4203    0.2411    1.0809 C   0  0  0  0  0  0  0  0  0  0  0  0
    1.4932   -0.0745   -0.3646 C   0  0  0  0  0  0  0  0  0  0  0  0
    0.2540   -0.7944   -0.7929 C   0  0  0  0  0  0  0  0  0  0  0  0
   -0.8056    0.2508   -1.1101 C   0  0  0  0  0  0  0  0  0  0  0  0
   -1.2782    0.6461    0.2520 C   0  0  0  0  0  0  0  0  0  0  0  0
   -0.8320   -0.5313    1.1103 C   0  0  0  0  0  0  0  0  0  0  0  0
    0.3030   -0.0744    1.8627 O   0  0  0  0  0  0  0  0  0  0  0  0
   -0.3604   -1.4971    0.2459 O   0  0  0  0  0  0  0  0  0  0  0  0
    1.5548    0.8811   -0.9621 H   0  0  0  0  0  0  0  0  0  0  0  0
    2.4269   -0.6284   -0.6121 H   0  0  0  0  0  0  0  0  0  0  0  0
    0.3896   -1.4691   -1.6477 H   0  0  0  0  0  0  0  0  0  0  0  0
   -0.4324    1.0654   -1.7293 H   0  0  0  0  0  0  0  0  0  0  0  0
   -1.6117   -0.2749   -1.6453 H   0  0  0  0  0  0  0  0  0  0  0  0
   -2.3767    0.7190    0.2410 H   0  0  0  0  0  0  0  0  0  0  0  0
   -0.8709    1.5945    0.6208 H   0  0  0  0  0  0  0  0  0  0  0  0
   -1.6433   -0.8683    1.7669 H   0  0  0  0  0  0  0  0  0  0  0  0
  1  2  2  0
  2  3  1  0
  3  4  1  0
  4  5  1  0
  5  6  1  0
  6  7  1  0
  7  8  1  0
  7  9  1  0
  8  2  1  0
  9  4  1  0
  3 10  1  0
  3 11  1  0
  4 12  1  0
  5 13  1  0
  5 14  1  0
  6 15  1  0
  6 16  1  0
  7 17  1  0
M  END
