
     RDKit          3D

 16 16  0  0  0  0  0  0  0  0999 V2000
    2.3582   -1.4695   -0.4256 O   0  0  0  0  0  0  0  0  0  0  0  0
    1.3719   -0.7201   -0.2059 C   0  0  0  0  0  0  0  0  0  0  0  0
    1.6486    0.6883    0.0339 C   0  0  0  0  0  0  0  0  0  0  0  0
    0.6368    1.5387   -0.0854 C   0  0  0  0  0  0  0  0  0  0  0  0
   -0.7054    1.0151   -0.4521 C   0  0  0  0  0  0  0  0  0  0  0  0
   -0.9420   -0.2476    0.3638 C   0  0  0  0  0  0  0  0  0  0  0  0
   -2.2548   -0.6541    0.3529 O   0  0  0  0  0  0  0  0  0  0  0  0
    0.0012   -1.2962   -0.2016 C   0  0  0  0  0  0  0  0  0  0  0  0
    2.6452    1.0589    0.3038 H   0  0  0  0  0  0  0  0  0  0  0  0
    0.8140    2.5916    0.0872 H   0  0  0  0  0  0  0  0  0  0  0  0
   -0.7733    0.7609   -1.5286 H   0  0  0  0  0  0  0  0  0  0  0  0
   -1.5126    1.7280   -0.1574 H   0  0  0  0  0  0  0  0  0  0  0  0
   -0.5643   -0.0146    1.3896 H   0  0  0  0  0  0  0  0  0  0  0  0
   -2.4105   -1.1957    1.1850 H   0  0  0  0  0  0  0  0  0  0  0  0
    0.0078   -2.1357    0.5386 H   0  0  0  0  0  0  0  0  0  0  0  0
   -0.3209   -1.6480   -1.1981 H   0  0  0  0  0  0  0  0  0  0  0  0
  1  2  2  0
  2  3  1  0
  3  4  2  0
  4  5  1  0
  5  6  1  0
  6  7  1  0
  6  8  1  0
  8  2  1  0
  3  9  1  0
  4 10  1  0
  5 11  1  0
  5 12  1  0
  6 13  1  0
  7 14  1  0
  8 15  1  0
  8 16  1  0
M  END
