
     RDKit          3D

 19 20  0  0  0  0  0  0  0  0999 V2000
   -2.5663    1.3640   -0.3073 O   0  0  0  0  0  0  0  0  0  0  0  0
   -1.5246    0.8351    0.0726 C   0  0  0  0  0  0  0  0  0  0  0  0
   -1.5945   -0.6483    0.0150 C   0  0  0  0  0  0  0  0  0  0  0  0
   -0.3327   -1.1891    0.6579 C   0  0  0  0  0  0  0  0  0  0  0  0
    0.7939   -0.9538   -0.3309 C   0  0  0  0  0  0  0  0  0  0  0  0
    2.1581   -0.6776    0.1146 C   0  0  0  0  0  0  0  0  0  0  0  0
    1.2025    0.4497   -0.3358 C   0  0  0  0  0  0  0  0  0  0  0  0
    0.7473    1.2356    0.6887 O   0  0  0  0  0  0  0  0  0  0  0  0
   -0.4951    1.7988    0.4795 C   0  0  0  0  0  0  0  0  0  0  0  0
   -1.5173   -0.9171   -1.0732 H   0  0  0  0  0  0  0  0  0  0  0  0
   -2.5130   -1.0445    0.4481 H   0  0  0  0  0  0  0  0  0  0  0  0
   -0.1287   -0.6585    1.6024 H   0  0  0  0  0  0  0  0  0  0  0  0
   -0.4551   -2.2792    0.8239 H   0  0  0  0  0  0  0  0  0  0  0  0
    0.6433   -1.5073   -1.2825 H   0  0  0  0  0  0  0  0  0  0  0  0
    2.4103   -0.7321    1.1870 H   0  0  0  0  0  0  0  0  0  0  0  0
    3.0031   -0.9087   -0.5476 H   0  0  0  0  0  0  0  0  0  0  0  0
    1.4712    0.9308   -1.3185 H   0  0  0  0  0  0  0  0  0  0  0  0
   -0.8256    2.2407    1.4576 H   0  0  0  0  0  0  0  0  0  0  0  0
   -0.4768    2.6615   -0.2283 H   0  0  0  0  0  0  0  0  0  0  0  0
  1  2  2  0
  2  3  1  0
  3  4  1  0
  4  5  1  0
  5  6  1  0
  6  7  1  0
  7  8  1  0
  8  9  1  0
  9  2  1  0
  7  5  1  0
  3 10  1  0
  3 11  1  0
  4 12  1  0
  4 13  1  0
  5 14  1  0
  6 15  1  0
  6 16  1  0
  7 17  1  0
  9 18  1  0
  9 19  1  0
M  END
