
     RDKit          3D

 19 20  0  0  0  0  0  0  0  0999 V2000
    2.0032    0.4582   -2.0501 O   0  0  0  0  0  0  0  0  0  0  0  0
    1.4151    0.4373   -0.9838 C   0  0  0  0  0  0  0  0  0  0  0  0
    0.3122    1.3499   -0.5858 C   0  0  0  0  0  0  0  0  0  0  0  0
   -0.3552    0.7376    0.6026 C   0  0  0  0  0  0  0  0  0  0  0  0
   -1.6853    0.1086    0.2212 C   0  0  0  0  0  0  0  0  0  0  0  0
   -1.2010   -1.2478   -0.2722 C   0  0  0  0  0  0  0  0  0  0  0  0
   -0.3080   -1.5894    0.7437 O   0  0  0  0  0  0  0  0  0  0  0  0
    0.4530   -0.4691    1.0161 C   0  0  0  0  0  0  0  0  0  0  0  0
    1.6794   -0.4981    0.1268 C   0  0  0  0  0  0  0  0  0  0  0  0
    0.6845    2.3670   -0.4153 H   0  0  0  0  0  0  0  0  0  0  0  0
   -0.4349    1.3782   -1.4178 H   0  0  0  0  0  0  0  0  0  0  0  0
   -0.5290    1.4390    1.4375 H   0  0  0  0  0  0  0  0  0  0  0  0
   -2.2904    0.0135    1.1419 H   0  0  0  0  0  0  0  0  0  0  0  0
   -2.1469    0.7087   -0.5685 H   0  0  0  0  0  0  0  0  0  0  0  0
   -2.0093   -1.9947   -0.2919 H   0  0  0  0  0  0  0  0  0  0  0  0
   -0.7089   -1.0868   -1.2456 H   0  0  0  0  0  0  0  0  0  0  0  0
    0.7196   -0.4098    2.0973 H   0  0  0  0  0  0  0  0  0  0  0  0
    2.5621   -0.1841    0.7404 H   0  0  0  0  0  0  0  0  0  0  0  0
    1.8399   -1.5183   -0.2966 H   0  0  0  0  0  0  0  0  0  0  0  0
  1  2  2  0
  2  3  1  0
  3  4  1  0
  4  5  1  0
  5  6  1  0
  6  7  1  0
  7  8  1  0
  8  9  1  0
  9  2  1  0
  8  4  1  0
  3 10  1  0
  3 11  1  0
  4 12  1  0
  5 13  1  0
  5 14  1  0
  6 15  1  0
  6 16  1  0
  8 17  1  0
  9 18  1  0
  9 19  1  0
M  END
