
     RDKit          3D

 19 20  0  0  0  0  0  0  0  0999 V2000
   -0.9580   -1.6121   -1.7569 O   0  0  0  0  0  0  0  0  0  0  0  0
   -0.7902   -1.1476   -0.6513 C   0  0  0  0  0  0  0  0  0  0  0  0
   -1.9061   -0.4248    0.0004 C   0  0  0  0  0  0  0  0  0  0  0  0
   -1.5224    1.0496    0.1899 C   0  0  0  0  0  0  0  0  0  0  0  0
   -0.3170    1.0549    0.8392 O   0  0  0  0  0  0  0  0  0  0  0  0
    0.7882    1.1073    0.0382 C   0  0  0  0  0  0  0  0  0  0  0  0
    2.0745    0.5727    0.7213 C   0  0  0  0  0  0  0  0  0  0  0  0
    1.3854   -0.1544   -0.3757 C   0  0  0  0  0  0  0  0  0  0  0  0
    0.5645   -1.3872   -0.1033 C   0  0  0  0  0  0  0  0  0  0  0  0
   -2.8608   -0.5281   -0.5301 H   0  0  0  0  0  0  0  0  0  0  0  0
   -2.0060   -0.8206    1.0515 H   0  0  0  0  0  0  0  0  0  0  0  0
   -2.3163    1.4775    0.8375 H   0  0  0  0  0  0  0  0  0  0  0  0
   -1.5370    1.5859   -0.7732 H   0  0  0  0  0  0  0  0  0  0  0  0
    0.9228    2.0032   -0.6065 H   0  0  0  0  0  0  0  0  0  0  0  0
    3.0153    1.1118    0.4272 H   0  0  0  0  0  0  0  0  0  0  0  0
    1.9927    0.1941    1.7385 H   0  0  0  0  0  0  0  0  0  0  0  0
    1.8579   -0.1693   -1.4012 H   0  0  0  0  0  0  0  0  0  0  0  0
    0.5573   -1.6546    0.9722 H   0  0  0  0  0  0  0  0  0  0  0  0
    1.0552   -2.2582   -0.6176 H   0  0  0  0  0  0  0  0  0  0  0  0
  1  2  2  0
  2  3  1  0
  3  4  1  0
  4  5  1  0
  5  6  1  0
  6  7  1  0
  7  8  1  0
  8  9  1  0
  9  2  1  0
  8  6  1  0
  3 10  1  0
  3 11  1  0
  4 12  1  0
  4 13  1  0
  6 14  1  0
  7 15  1  0
  7 16  1  0
  8 17  1  0
  9 18  1  0
  9 19  1  0
M  END
