
     RDKit          3D

 17 18  0  0  0  0  0  0  0  0999 V2000
   -1.6320   -0.8200    2.1444 O   0  0  0  0  0  0  0  0  0  0  0  0
   -1.4307   -0.6522    0.9321 C   0  0  0  0  0  0  0  0  0  0  0  0
   -2.2285   -0.8388   -0.1767 O   0  0  0  0  0  0  0  0  0  0  0  0
   -1.4707    0.1739   -0.8318 C   0  0  0  0  0  0  0  0  0  0  0  0
   -0.3678   -0.2152    0.0812 C   0  0  0  0  0  0  0  0  0  0  0  0
    0.6441   -1.1840   -0.4112 C   0  0  0  0  0  0  0  0  0  0  0  0
    1.7129   -0.1681    0.0086 C   0  0  0  0  0  0  0  0  0  0  0  0
    0.6213    0.7722    0.5128 C   0  0  0  0  0  0  0  0  0  0  0  0
    0.6342    1.9969   -0.1918 O   0  0  0  0  0  0  0  0  0  0  0  0
   -1.3026    0.0020   -1.9129 H   0  0  0  0  0  0  0  0  0  0  0  0
   -1.9009    1.1563   -0.5757 H   0  0  0  0  0  0  0  0  0  0  0  0
    0.7293   -2.1526    0.1164 H   0  0  0  0  0  0  0  0  0  0  0  0
    0.5534   -1.2802   -1.5328 H   0  0  0  0  0  0  0  0  0  0  0  0
    2.2832    0.1894   -0.8478 H   0  0  0  0  0  0  0  0  0  0  0  0
    2.3650   -0.5606    0.8025 H   0  0  0  0  0  0  0  0  0  0  0  0
    0.7542    0.9761    1.5867 H   0  0  0  0  0  0  0  0  0  0  0  0
    0.0355    2.6049    0.2962 H   0  0  0  0  0  0  0  0  0  0  0  0
  1  2  2  0
  2  3  1  0
  3  4  1  0
  4  5  1  0
  5  6  1  0
  6  7  1  0
  7  8  1  0
  8  9  1  0
  5  2  1  0
  8  5  1  0
  4 10  1  0
  4 11  1  0
  6 12  1  0
  6 13  1  0
  7 14  1  0
  7 15  1  0
  8 16  1  0
  9 17  1  0
M  END
