
     RDKit          3D

 15 17  0  0  0  0  0  0  0  0999 V2000
    2.5324   -0.0472   -0.7571 O   0  0  0  0  0  0  0  0  0  0  0  0
    1.4354    0.1737   -0.3317 C   0  0  0  0  0  0  0  0  0  0  0  0
    0.5743    1.3948   -0.4101 C   0  0  0  0  0  0  0  0  0  0  0  0
   -0.6493    1.0980   -1.0063 O   0  0  0  0  0  0  0  0  0  0  0  0
   -1.2228    0.1375   -0.1670 C   0  0  0  0  0  0  0  0  0  0  0  0
   -0.5826   -1.2055   -0.4447 C   0  0  0  0  0  0  0  0  0  0  0  0
    0.5464   -0.7640    0.4524 C   0  0  0  0  0  0  0  0  0  0  0  0
   -0.3873    0.2113    1.0893 C   0  0  0  0  0  0  0  0  0  0  0  0
    0.1803    1.4889    0.9465 O   0  0  0  0  0  0  0  0  0  0  0  0
    1.0687    2.2716   -0.7794 H   0  0  0  0  0  0  0  0  0  0  0  0
   -2.2976    0.1606   -0.0542 H   0  0  0  0  0  0  0  0  0  0  0  0
   -0.2311   -1.3204   -1.4958 H   0  0  0  0  0  0  0  0  0  0  0  0
   -1.1589   -2.0760   -0.1204 H   0  0  0  0  0  0  0  0  0  0  0  0
    1.0417   -1.4993    1.0541 H   0  0  0  0  0  0  0  0  0  0  0  0
   -0.8495   -0.0237    2.0245 H   0  0  0  0  0  0  0  0  0  0  0  0
  1  2  2  0
  2  3  1  0
  3  4  1  0
  4  5  1  0
  5  6  1  0
  6  7  1  0
  7  8  1  0
  8  9  1  0
  7  2  1  0
  9  3  1  0
  8  5  1  0
  3 10  1  0
  5 11  1  0
  6 12  1  0
  6 13  1  0
  7 14  1  0
  8 15  1  0
M  END
