
     RDKit          3D

 19 20  0  0  0  0  0  0  0  0999 V2000
    1.8682   -2.1680    0.8469 O   0  0  0  0  0  0  0  0  0  0  0  0
    1.2248   -1.2853    0.2477 C   0  0  0  0  0  0  0  0  0  0  0  0
    1.9269   -0.0231    0.0436 C   0  0  0  0  0  0  0  0  0  0  0  0
    1.4085    1.1942   -0.0175 C   0  0  0  0  0  0  0  0  0  0  0  0
   -0.0020    1.6875    0.0941 C   0  0  0  0  0  0  0  0  0  0  0  0
   -0.8306    0.5450    0.5598 C   0  0  0  0  0  0  0  0  0  0  0  0
   -2.0790    0.1035   -0.0260 C   0  0  0  0  0  0  0  0  0  0  0  0
   -0.8740   -0.4521   -0.6203 C   0  0  0  0  0  0  0  0  0  0  0  0
   -0.1707   -1.6768   -0.1630 C   0  0  0  0  0  0  0  0  0  0  0  0
    2.9945   -0.1380   -0.0662 H   0  0  0  0  0  0  0  0  0  0  0  0
    2.1714    1.9513   -0.1787 H   0  0  0  0  0  0  0  0  0  0  0  0
   -0.2955    2.0513   -0.9146 H   0  0  0  0  0  0  0  0  0  0  0  0
   -0.0757    2.5537    0.7831 H   0  0  0  0  0  0  0  0  0  0  0  0
   -0.5398    0.1518    1.5556 H   0  0  0  0  0  0  0  0  0  0  0  0
   -2.7185    0.7619   -0.6699 H   0  0  0  0  0  0  0  0  0  0  0  0
   -2.7240   -0.5573    0.6105 H   0  0  0  0  0  0  0  0  0  0  0  0
   -0.5880   -0.0836   -1.6229 H   0  0  0  0  0  0  0  0  0  0  0  0
   -0.0183   -2.3467   -1.0576 H   0  0  0  0  0  0  0  0  0  0  0  0
   -0.6781   -2.2693    0.5953 H   0  0  0  0  0  0  0  0  0  0  0  0
  1  2  2  0
  2  3  1  0
  3  4  2  0
  4  5  1  0
  5  6  1  0
  6  7  1  0
  7  8  1  0
  8  9  1  0
  9  2  1  0
  8  6  1  0
  3 10  1  0
  4 11  1  0
  5 12  1  0
  5 13  1  0
  6 14  1  0
  7 15  1  0
  7 16  1  0
  8 17  1  0
  9 18  1  0
  9 19  1  0
M  END
