
     RDKit          3D

 17 19  0  0  0  0  0  0  0  0999 V2000
   -0.5276   -1.5181    2.4608 O   0  0  0  0  0  0  0  0  0  0  0  0
   -0.5865   -0.8695    1.4289 C   0  0  0  0  0  0  0  0  0  0  0  0
   -1.4275    0.2406    0.9350 C   0  0  0  0  0  0  0  0  0  0  0  0
   -0.6495    0.1888   -0.3669 C   0  0  0  0  0  0  0  0  0  0  0  0
    0.3070    1.2673   -0.7050 C   0  0  0  0  0  0  0  0  0  0  0  0
    1.6343    0.7996   -0.3280 C   0  0  0  0  0  0  0  0  0  0  0  0
    1.5735   -0.4208    0.1585 C   0  0  0  0  0  0  0  0  0  0  0  0
    0.1915   -0.9094    0.1619 C   0  0  0  0  0  0  0  0  0  0  0  0
   -0.5802   -1.0891   -1.1126 C   0  0  0  0  0  0  0  0  0  0  0  0
   -2.5038    0.0448    0.8390 H   0  0  0  0  0  0  0  0  0  0  0  0
   -1.2244    1.1910    1.4819 H   0  0  0  0  0  0  0  0  0  0  0  0
   -0.0148    2.1887   -0.1738 H   0  0  0  0  0  0  0  0  0  0  0  0
    0.2850    1.4148   -1.8080 H   0  0  0  0  0  0  0  0  0  0  0  0
    2.5861    1.3781   -0.4285 H   0  0  0  0  0  0  0  0  0  0  0  0
    2.4084   -1.0444    0.5292 H   0  0  0  0  0  0  0  0  0  0  0  0
   -0.0262   -1.0753   -2.0548 H   0  0  0  0  0  0  0  0  0  0  0  0
   -1.4451   -1.7872   -1.0177 H   0  0  0  0  0  0  0  0  0  0  0  0
  1  2  2  0
  2  3  1  0
  3  4  1  0
  4  5  1  0
  5  6  1  0
  6  7  2  0
  7  8  1  0
  8  9  1  0
  8  2  1  0
  8  4  1  0
  9  4  1  0
  3 10  1  0
  3 11  1  0
  5 12  1  0
  5 13  1  0
  6 14  1  0
  7 15  1  0
  9 16  1  0
  9 17  1  0
M  END
