
     RDKit          3D

 17 18  0  0  0  0  0  0  0  0999 V2000
   -2.7550   -0.3820    1.2079 O   0  0  0  0  0  0  0  0  0  0  0  0
   -1.9749    0.1803    0.3972 C   0  0  0  0  0  0  0  0  0  0  0  0
   -1.6757    1.5012    0.1005 O   0  0  0  0  0  0  0  0  0  0  0  0
   -0.4268    1.1120   -0.4412 C   0  0  0  0  0  0  0  0  0  0  0  0
    0.6660    0.9370    0.5699 C   0  0  0  0  0  0  0  0  0  0  0  0
    1.1902   -0.4623    0.3810 C   0  0  0  0  0  0  0  0  0  0  0  0
    2.3111   -0.5312   -0.4170 O   0  0  0  0  0  0  0  0  0  0  0  0
    0.0233   -1.2519   -0.1327 C   0  0  0  0  0  0  0  0  0  0  0  0
   -1.0111   -0.2638   -0.6192 C   0  0  0  0  0  0  0  0  0  0  0  0
   -0.1812    1.6598   -1.3529 H   0  0  0  0  0  0  0  0  0  0  0  0
    1.4499    1.7137    0.5059 H   0  0  0  0  0  0  0  0  0  0  0  0
    0.1827    0.9685    1.5805 H   0  0  0  0  0  0  0  0  0  0  0  0
    1.4858   -0.8615    1.3867 H   0  0  0  0  0  0  0  0  0  0  0  0
    2.2535   -0.0667   -1.2667 H   0  0  0  0  0  0  0  0  0  0  0  0
    0.3077   -1.9408   -0.9746 H   0  0  0  0  0  0  0  0  0  0  0  0
   -0.4459   -1.8279    0.6964 H   0  0  0  0  0  0  0  0  0  0  0  0
   -1.3994   -0.4843   -1.6217 H   0  0  0  0  0  0  0  0  0  0  0  0
  1  2  2  0
  2  3  1  0
  3  4  1  0
  4  5  1  0
  5  6  1  0
  6  7  1  0
  6  8  1  0
  8  9  1  0
  9  2  1  0
  9  4  1  0
  4 10  1  0
  5 11  1  0
  5 12  1  0
  6 13  1  0
  7 14  1  0
  8 15  1  0
  8 16  1  0
  9 17  1  0
M  END
