
     RDKit          3D

 14 16  0  0  0  0  0  0  0  0999 V2000
    1.4840   -2.1639    0.1915 O   0  0  0  0  0  0  0  0  0  0  0  0
    0.8732   -1.1398    0.1256 C   0  0  0  0  0  0  0  0  0  0  0  0
    1.3980    0.2159   -0.1110 C   0  0  0  0  0  0  0  0  0  0  0  0
    0.1695    1.0738   -0.4580 C   0  0  0  0  0  0  0  0  0  0  0  0
   -0.4412    1.4381    0.7369 O   0  0  0  0  0  0  0  0  0  0  0  0
   -1.1511    0.2503    0.8278 C   0  0  0  0  0  0  0  0  0  0  0  0
   -0.5962   -1.0086    0.2730 C   0  0  0  0  0  0  0  0  0  0  0  0
   -0.8977    0.0727   -0.6821 C   0  0  0  0  0  0  0  0  0  0  0  0
    2.1668    0.2840   -0.8785 H   0  0  0  0  0  0  0  0  0  0  0  0
    1.8272    0.5672    0.8722 H   0  0  0  0  0  0  0  0  0  0  0  0
    0.3414    1.8520   -1.1914 H   0  0  0  0  0  0  0  0  0  0  0  0
   -2.1752    0.2639    1.1797 H   0  0  0  0  0  0  0  0  0  0  0  0
   -1.2201   -1.9002    0.3880 H   0  0  0  0  0  0  0  0  0  0  0  0
   -1.7787    0.1946   -1.2737 H   0  0  0  0  0  0  0  0  0  0  0  0
  1  2  2  0
  2  3  1  0
  3  4  1  0
  4  5  1  0
  5  6  1  0
  6  7  1  0
  7  8  1  0
  7  2  1  0
  8  4  1  0
  8  6  1  0
  3  9  1  0
  3 10  1  0
  4 11  1  0
  6 12  1  0
  7 13  1  0
  8 14  1  0
M  END
