
     RDKit          3D

 18 18  0  0  0  0  0  0  0  0999 V2000
   -2.7384    0.0007   -0.5678 O   0  0  0  0  0  0  0  0  0  0  0  0
   -1.5644    0.0069   -0.2060 C   0  0  0  0  0  0  0  0  0  0  0  0
   -0.9467   -1.2948    0.0944 C   0  0  0  0  0  0  0  0  0  0  0  0
    0.3842   -1.2115    0.7493 C   0  0  0  0  0  0  0  0  0  0  0  0
    1.1904   -0.0070    0.3297 C   0  0  0  0  0  0  0  0  0  0  0  0
    1.6427   -0.1172   -0.9783 O   0  0  0  0  0  0  0  0  0  0  0  0
    0.4363    1.2798    0.5471 C   0  0  0  0  0  0  0  0  0  0  0  0
   -0.8983    1.3167   -0.1108 C   0  0  0  0  0  0  0  0  0  0  0  0
   -0.9589   -1.9187   -0.8349 H   0  0  0  0  0  0  0  0  0  0  0  0
   -1.6384   -1.8278    0.7990 H   0  0  0  0  0  0  0  0  0  0  0  0
    0.9781   -2.1108    0.4108 H   0  0  0  0  0  0  0  0  0  0  0  0
    0.3514   -1.2826    1.8601 H   0  0  0  0  0  0  0  0  0  0  0  0
    2.0827    0.0248    1.0043 H   0  0  0  0  0  0  0  0  0  0  0  0
    2.6413   -0.1532   -1.0297 H   0  0  0  0  0  0  0  0  0  0  0  0
    1.0730    2.0917    0.0950 H   0  0  0  0  0  0  0  0  0  0  0  0
    0.4120    1.4676    1.6394 H   0  0  0  0  0  0  0  0  0  0  0  0
   -0.8833    1.7676   -1.1319 H   0  0  0  0  0  0  0  0  0  0  0  0
   -1.5636    1.9679    0.5258 H   0  0  0  0  0  0  0  0  0  0  0  0
  1  2  2  0
  2  3  1  0
  3  4  1  0
  4  5  1  0
  5  6  1  0
  5  7  1  0
  7  8  1  0
  8  2  1  0
  3  9  1  0
  3 10  1  0
  4 11  1  0
  4 12  1  0
  5 13  1  0
  6 14  1  0
  7 15  1  0
  7 16  1  0
  8 17  1  0
  8 18  1  0
M  END
