
     RDKit          3D

 17 18  0  0  0  0  0  0  0  0999 V2000
   -2.0904   -1.7133    1.5411 O   0  0  0  0  0  0  0  0  0  0  0  0
   -1.3178   -0.9630    0.8797 C   0  0  0  0  0  0  0  0  0  0  0  0
   -2.0034   -0.0286   -0.0466 C   0  0  0  0  0  0  0  0  0  0  0  0
   -1.1740    1.2146   -0.1310 C   0  0  0  0  0  0  0  0  0  0  0  0
    0.1311    1.2125   -0.4325 C   0  0  0  0  0  0  0  0  0  0  0  0
    1.0946    0.1501   -0.7465 C   0  0  0  0  0  0  0  0  0  0  0  0
    2.2152   -0.1003    0.2508 C   0  0  0  0  0  0  0  0  0  0  0  0
    1.0872   -1.0230    0.1216 C   0  0  0  0  0  0  0  0  0  0  0  0
    0.0486   -1.0795    1.0751 O   0  0  0  0  0  0  0  0  0  0  0  0
   -3.0430    0.1772    0.2200 H   0  0  0  0  0  0  0  0  0  0  0  0
   -1.9603   -0.4853   -1.0656 H   0  0  0  0  0  0  0  0  0  0  0  0
   -1.6580    2.1583    0.0621 H   0  0  0  0  0  0  0  0  0  0  0  0
    0.5459    2.2359   -0.4400 H   0  0  0  0  0  0  0  0  0  0  0  0
    1.3062   -0.0149   -1.8196 H   0  0  0  0  0  0  0  0  0  0  0  0
    3.1975   -0.3804   -0.1828 H   0  0  0  0  0  0  0  0  0  0  0  0
    2.2863    0.6612    1.0595 H   0  0  0  0  0  0  0  0  0  0  0  0
    1.3344   -2.0215   -0.3452 H   0  0  0  0  0  0  0  0  0  0  0  0
  1  2  2  0
  2  3  1  0
  3  4  1  0
  4  5  2  0
  5  6  1  0
  6  7  1  0
  7  8  1  0
  8  9  1  0
  9  2  1  0
  8  6  1  0
  3 10  1  0
  3 11  1  0
  4 12  1  0
  5 13  1  0
  6 14  1  0
  7 15  1  0
  7 16  1  0
  8 17  1  0
M  END
