
     RDKit          3D

 19 20  0  0  0  0  0  0  0  0999 V2000
    0.5687   -1.1900    1.9155 O   0  0  0  0  0  0  0  0  0  0  0  0
    0.2960   -1.0219    0.7555 C   0  0  0  0  0  0  0  0  0  0  0  0
   -1.1109   -1.2368    0.3807 C   0  0  0  0  0  0  0  0  0  0  0  0
   -1.8107    0.1014    0.4086 C   0  0  0  0  0  0  0  0  0  0  0  0
   -1.1689    1.0353   -0.6128 C   0  0  0  0  0  0  0  0  0  0  0  0
    0.0902    1.3920   -0.2031 O   0  0  0  0  0  0  0  0  0  0  0  0
    1.1148    0.6730   -0.7533 C   0  0  0  0  0  0  0  0  0  0  0  0
    2.3141    0.4986    0.2037 C   0  0  0  0  0  0  0  0  0  0  0  0
    1.4135   -0.6261   -0.1138 C   0  0  0  0  0  0  0  0  0  0  0  0
   -1.2247   -1.6259   -0.6624 H   0  0  0  0  0  0  0  0  0  0  0  0
   -1.6443   -1.9445    1.0355 H   0  0  0  0  0  0  0  0  0  0  0  0
   -2.8786   -0.0101    0.2039 H   0  0  0  0  0  0  0  0  0  0  0  0
   -1.6734    0.5811    1.4033 H   0  0  0  0  0  0  0  0  0  0  0  0
   -1.8044    1.9692   -0.5797 H   0  0  0  0  0  0  0  0  0  0  0  0
   -1.2448    0.6596   -1.6356 H   0  0  0  0  0  0  0  0  0  0  0  0
    1.3480    0.7314   -1.8397 H   0  0  0  0  0  0  0  0  0  0  0  0
    2.3084    1.0288    1.1505 H   0  0  0  0  0  0  0  0  0  0  0  0
    3.3212    0.4525   -0.2952 H   0  0  0  0  0  0  0  0  0  0  0  0
    1.7857   -1.4675   -0.7617 H   0  0  0  0  0  0  0  0  0  0  0  0
  1  2  2  0
  2  3  1  0
  3  4  1  0
  4  5  1  0
  5  6  1  0
  6  7  1  0
  7  8  1  0
  8  9  1  0
  9  2  1  0
  9  7  1  0
  3 10  1  0
  3 11  1  0
  4 12  1  0
  4 13  1  0
  5 14  1  0
  5 15  1  0
  7 16  1  0
  8 17  1  0
  8 18  1  0
  9 19  1  0
M  END
