
     RDKit          3D

 17 17  0  0  0  0  0  0  0  0999 V2000
   -2.3776    0.8017    0.0023 O   0  0  0  0  0  0  0  0  0  0  0  0
   -1.2191    0.4354   -0.1109 C   0  0  0  0  0  0  0  0  0  0  0  0
   -0.2660    1.5751    0.0789 C   0  0  0  0  0  0  0  0  0  0  0  0
    1.0264    1.2554   -0.2542 O   0  0  0  0  0  0  0  0  0  0  0  0
    1.6409    0.3559    0.5645 C   0  0  0  0  0  0  0  0  0  0  0  0
    1.2707   -0.9643    0.3462 O   0  0  0  0  0  0  0  0  0  0  0  0
    0.4960   -1.1160   -0.8096 C   0  0  0  0  0  0  0  0  0  0  0  0
   -0.9620   -1.0126   -0.4045 C   0  0  0  0  0  0  0  0  0  0  0  0
   -1.1665   -1.7528    0.7272 O   0  0  0  0  0  0  0  0  0  0  0  0
   -0.4211    1.9641    1.0771 H   0  0  0  0  0  0  0  0  0  0  0  0
   -0.6061    2.3638   -0.6419 H   0  0  0  0  0  0  0  0  0  0  0  0
    2.7463    0.4017    0.3708 H   0  0  0  0  0  0  0  0  0  0  0  0
    1.5319    0.5875    1.6599 H   0  0  0  0  0  0  0  0  0  0  0  0
    0.6597   -2.0776   -1.3145 H   0  0  0  0  0  0  0  0  0  0  0  0
    0.7768   -0.2547   -1.4695 H   0  0  0  0  0  0  0  0  0  0  0  0
   -1.5535   -1.3417   -1.2815 H   0  0  0  0  0  0  0  0  0  0  0  0
   -1.5770   -1.2210    1.4595 H   0  0  0  0  0  0  0  0  0  0  0  0
  1  2  2  0
  2  3  1  0
  3  4  1  0
  4  5  1  0
  5  6  1  0
  6  7  1  0
  7  8  1  0
  8  9  1  0
  8  2  1  0
  3 10  1  0
  3 11  1  0
  5 12  1  0
  5 13  1  0
  7 14  1  0
  7 15  1  0
  8 16  1  0
  9 17  1  0
M  END
