
     RDKit          3D

 15 17  0  0  0  0  0  0  0  0999 V2000
    2.9330   -0.3943   -0.2161 O   0  0  0  0  0  0  0  0  0  0  0  0
    1.7505   -0.2691   -0.0615 C   0  0  0  0  0  0  0  0  0  0  0  0
    0.5326   -0.6876   -0.8535 C   0  0  0  0  0  0  0  0  0  0  0  0
   -0.0233    0.4033   -1.5268 O   0  0  0  0  0  0  0  0  0  0  0  0
   -0.6895    1.1395   -0.5607 C   0  0  0  0  0  0  0  0  0  0  0  0
   -1.4331    0.0144    0.1864 C   0  0  0  0  0  0  0  0  0  0  0  0
   -0.1793   -0.7833    0.4629 C   0  0  0  0  0  0  0  0  0  0  0  0
    0.7602    0.3129    0.8969 C   0  0  0  0  0  0  0  0  0  0  0  0
    0.2313    1.5038    0.4089 O   0  0  0  0  0  0  0  0  0  0  0  0
    0.6523   -1.5949   -1.4360 H   0  0  0  0  0  0  0  0  0  0  0  0
   -1.3341    1.9122   -0.9174 H   0  0  0  0  0  0  0  0  0  0  0  0
   -2.1326   -0.5104   -0.4603 H   0  0  0  0  0  0  0  0  0  0  0  0
   -1.8506    0.3791    1.1352 H   0  0  0  0  0  0  0  0  0  0  0  0
   -0.2284   -1.6914    0.9959 H   0  0  0  0  0  0  0  0  0  0  0  0
    1.0110    0.2657    1.9461 H   0  0  0  0  0  0  0  0  0  0  0  0
  1  2  2  0
  2  3  1  0
  3  4  1  0
  4  5  1  0
  5  6  1  0
  6  7  1  0
  7  8  1  0
  8  9  1  0
  8  2  1  0
  7  3  1  0
  9  5  1  0
  3 10  1  0
  5 11  1  0
  6 12  1  0
  6 13  1  0
  7 14  1  0
  8 15  1  0
M  END
