
     RDKit          3D

 14 15  0  0  0  0  0  0  0  0999 V2000
   -0.5445    2.4141    1.0224 O   0  0  0  0  0  0  0  0  0  0  0  0
   -0.2033    1.3268    0.5268 C   0  0  0  0  0  0  0  0  0  0  0  0
    1.0719    0.9332   -0.1311 C   0  0  0  0  0  0  0  0  0  0  0  0
    2.1033    1.6243   -0.3192 O   0  0  0  0  0  0  0  0  0  0  0  0
    0.7798   -0.4635   -0.4873 C   0  0  0  0  0  0  0  0  0  0  0  0
    0.1104   -0.9560    0.7950 C   0  0  0  0  0  0  0  0  0  0  0  0
   -0.9568    0.0459    0.4229 C   0  0  0  0  0  0  0  0  0  0  0  0
   -0.6452   -0.3492   -1.0216 C   0  0  0  0  0  0  0  0  0  0  0  0
    1.4705   -1.0761   -0.9774 H   0  0  0  0  0  0  0  0  0  0  0  0
    0.7489   -0.6688    1.6573 H   0  0  0  0  0  0  0  0  0  0  0  0
   -0.2126   -1.9999    0.7722 H   0  0  0  0  0  0  0  0  0  0  0  0
   -1.9339   -0.0382    0.7838 H   0  0  0  0  0  0  0  0  0  0  0  0
   -1.0748   -1.3007   -1.3436 H   0  0  0  0  0  0  0  0  0  0  0  0
   -0.7136    0.5083   -1.7001 H   0  0  0  0  0  0  0  0  0  0  0  0
  1  2  2  0
  2  3  1  0
  3  4  2  0
  3  5  1  0
  5  6  1  0
  6  7  1  0
  7  8  1  0
  7  2  1  0
  8  5  1  0
  5  9  1  0
  6 10  1  0
  6 11  1  0
  7 12  1  0
  8 13  1  0
  8 14  1  0
M  END
