
     RDKit          3D

 17 18  0  0  0  0  0  0  0  0999 V2000
    0.5865    2.7209   -0.4556 O   0  0  0  0  0  0  0  0  0  0  0  0
    0.3617    1.5938   -0.0930 C   0  0  0  0  0  0  0  0  0  0  0  0
   -1.0963    1.2440   -0.0959 C   0  0  0  0  0  0  0  0  0  0  0  0
   -1.3681    0.1443    0.7092 O   0  0  0  0  0  0  0  0  0  0  0  0
   -1.0600   -1.0661    0.1567 C   0  0  0  0  0  0  0  0  0  0  0  0
    0.4179   -1.4545    0.3311 C   0  0  0  0  0  0  0  0  0  0  0  0
    1.1685   -0.5594   -0.5658 C   0  0  0  0  0  0  0  0  0  0  0  0
    2.3334    0.0465   -0.4133 O   0  0  0  0  0  0  0  0  0  0  0  0
    1.4277    0.6950    0.2998 C   0  0  0  0  0  0  0  0  0  0  0  0
   -1.6456    2.1097    0.3784 H   0  0  0  0  0  0  0  0  0  0  0  0
   -1.5060    1.1361   -1.1024 H   0  0  0  0  0  0  0  0  0  0  0  0
   -1.2069   -1.0436   -0.9607 H   0  0  0  0  0  0  0  0  0  0  0  0
   -1.7205   -1.8766    0.5222 H   0  0  0  0  0  0  0  0  0  0  0  0
    0.4967   -2.5168    0.0276 H   0  0  0  0  0  0  0  0  0  0  0  0
    0.6190   -1.3135    1.4210 H   0  0  0  0  0  0  0  0  0  0  0  0
    0.6900   -0.4133   -1.5609 H   0  0  0  0  0  0  0  0  0  0  0  0
    1.5022    0.5534    1.4015 H   0  0  0  0  0  0  0  0  0  0  0  0
  1  2  2  0
  2  3  1  0
  3  4  1  0
  4  5  1  0
  5  6  1  0
  6  7  1  0
  7  8  1  0
  8  9  1  0
  9  2  1  0
  9  7  1  0
  3 10  1  0
  3 11  1  0
  5 12  1  0
  5 13  1  0
  6 14  1  0
  6 15  1  0
  7 16  1  0
  9 17  1  0
M  END
