
     RDKit          3D

 16 16  0  0  0  0  0  0  0  0999 V2000
    0.6619   -2.0530   -1.0185 O   0  0  0  0  0  0  0  0  0  0  0  0
    0.4719   -1.2767   -0.1381 C   0  0  0  0  0  0  0  0  0  0  0  0
   -0.8663   -1.1108    0.4287 C   0  0  0  0  0  0  0  0  0  0  0  0
   -1.3223    0.3025    0.1689 C   0  0  0  0  0  0  0  0  0  0  0  0
   -0.3169    1.3430    0.4587 C   0  0  0  0  0  0  0  0  0  0  0  0
    1.0818    0.9662    0.2668 C   0  0  0  0  0  0  0  0  0  0  0  0
    1.9259    1.8115   -0.0273 O   0  0  0  0  0  0  0  0  0  0  0  0
    1.5509   -0.4570    0.4180 C   0  0  0  0  0  0  0  0  0  0  0  0
   -1.5885   -1.7911   -0.0628 H   0  0  0  0  0  0  0  0  0  0  0  0
   -0.8937   -1.2867    1.5314 H   0  0  0  0  0  0  0  0  0  0  0  0
   -1.7319    0.3446   -0.8521 H   0  0  0  0  0  0  0  0  0  0  0  0
   -2.2041    0.4721    0.8535 H   0  0  0  0  0  0  0  0  0  0  0  0
   -0.5209    2.2200   -0.2225 H   0  0  0  0  0  0  0  0  0  0  0  0
   -0.4377    1.7502    1.4868 H   0  0  0  0  0  0  0  0  0  0  0  0
    1.6634   -0.6361    1.5136 H   0  0  0  0  0  0  0  0  0  0  0  0
    2.5265   -0.5987   -0.0850 H   0  0  0  0  0  0  0  0  0  0  0  0
  1  2  2  0
  2  3  1  0
  3  4  1  0
  4  5  1  0
  5  6  1  0
  6  7  2  0
  6  8  1  0
  8  2  1  0
  3  9  1  0
  3 10  1  0
  4 11  1  0
  4 12  1  0
  5 13  1  0
  5 14  1  0
  8 15  1  0
  8 16  1  0
M  END
