
     RDKit          3D

 15 17  0  0  0  0  0  0  0  0999 V2000
    3.0205    0.5326    0.6240 O   0  0  0  0  0  0  0  0  0  0  0  0
    1.8988    0.2491    0.1372 C   0  0  0  0  0  0  0  0  0  0  0  0
    1.5665   -0.0858   -1.1995 O   0  0  0  0  0  0  0  0  0  0  0  0
    0.1840   -0.3468   -1.0938 C   0  0  0  0  0  0  0  0  0  0  0  0
   -0.3227    0.7988   -0.2207 C   0  0  0  0  0  0  0  0  0  0  0  0
   -1.6600    0.2792    0.1935 C   0  0  0  0  0  0  0  0  0  0  0  0
   -1.3415   -1.0738    0.4772 O   0  0  0  0  0  0  0  0  0  0  0  0
    0.0015   -1.1159    0.2233 C   0  0  0  0  0  0  0  0  0  0  0  0
    0.5963    0.1780    0.7984 C   0  0  0  0  0  0  0  0  0  0  0  0
   -0.3835   -0.6433   -1.9296 H   0  0  0  0  0  0  0  0  0  0  0  0
   -0.1791    1.7914   -0.5448 H   0  0  0  0  0  0  0  0  0  0  0  0
   -2.3216    0.2865   -0.6933 H   0  0  0  0  0  0  0  0  0  0  0  0
   -2.0973    0.7870    1.0564 H   0  0  0  0  0  0  0  0  0  0  0  0
    0.5672   -2.0072    0.3470 H   0  0  0  0  0  0  0  0  0  0  0  0
    0.4709    0.3703    1.8246 H   0  0  0  0  0  0  0  0  0  0  0  0
  1  2  2  0
  2  3  1  0
  3  4  1  0
  4  5  1  0
  5  6  1  0
  6  7  1  0
  7  8  1  0
  8  9  1  0
  9  2  1  0
  8  4  1  0
  9  5  1  0
  4 10  1  0
  5 11  1  0
  6 12  1  0
  6 13  1  0
  8 14  1  0
  9 15  1  0
M  END
