
     RDKit          3D

 15 16  0  0  0  0  0  0  0  0999 V2000
    0.2469   -2.2356   -0.6732 O   0  0  0  0  0  0  0  0  0  0  0  0
    0.0183   -1.2665    0.0218 C   0  0  0  0  0  0  0  0  0  0  0  0
    1.0859   -0.4285    0.5978 C   0  0  0  0  0  0  0  0  0  0  0  0
    2.3562   -0.8208    0.1977 O   0  0  0  0  0  0  0  0  0  0  0  0
    0.8528    1.0019    0.2500 C   0  0  0  0  0  0  0  0  0  0  0  0
   -0.3984    1.4250    0.1992 C   0  0  0  0  0  0  0  0  0  0  0  0
   -1.5235    0.5324    0.4722 C   0  0  0  0  0  0  0  0  0  0  0  0
   -2.0098   -0.2146   -0.7216 O   0  0  0  0  0  0  0  0  0  0  0  0
   -1.3937   -0.8458    0.3494 C   0  0  0  0  0  0  0  0  0  0  0  0
    1.0284   -0.5166    1.7164 H   0  0  0  0  0  0  0  0  0  0  0  0
    2.9960   -0.2504    0.6954 H   0  0  0  0  0  0  0  0  0  0  0  0
    1.6739    1.6944    0.0405 H   0  0  0  0  0  0  0  0  0  0  0  0
   -0.5800    2.4626   -0.0524 H   0  0  0  0  0  0  0  0  0  0  0  0
   -2.4086    1.0182    0.9428 H   0  0  0  0  0  0  0  0  0  0  0  0
   -1.9445   -1.5556    0.9809 H   0  0  0  0  0  0  0  0  0  0  0  0
  1  2  2  0
  2  3  1  0
  3  4  1  0
  3  5  1  0
  5  6  2  0
  6  7  1  0
  7  8  1  0
  8  9  1  0
  9  2  1  0
  9  7  1  0
  3 10  1  0
  4 11  1  0
  5 12  1  0
  6 13  1  0
  7 14  1  0
  9 15  1  0
M  END
