
     RDKit          3D

 17 20  0  0  0  0  0  0  0  0999 V2000
   -1.0867    2.4272   -0.5482 O   0  0  0  0  0  0  0  0  0  0  0  0
   -0.6116    1.3722   -0.3179 C   0  0  0  0  0  0  0  0  0  0  0  0
   -0.8153    0.0553   -0.9568 C   0  0  0  0  0  0  0  0  0  0  0  0
   -1.3060   -0.6896    0.3004 C   0  0  0  0  0  0  0  0  0  0  0  0
   -0.0506   -0.3814    1.1396 C   0  0  0  0  0  0  0  0  0  0  0  0
    0.3785    1.0011    0.7200 C   0  0  0  0  0  0  0  0  0  0  0  0
    1.4024    0.3678   -0.1726 C   0  0  0  0  0  0  0  0  0  0  0  0
    0.5977   -0.4609   -1.0985 C   0  0  0  0  0  0  0  0  0  0  0  0
    0.9745   -0.9488    0.2215 C   0  0  0  0  0  0  0  0  0  0  0  0
   -1.4483   -0.0064   -1.7924 H   0  0  0  0  0  0  0  0  0  0  0  0
   -2.1813   -0.1808    0.6986 H   0  0  0  0  0  0  0  0  0  0  0  0
   -1.4153   -1.7603    0.1132 H   0  0  0  0  0  0  0  0  0  0  0  0
   -0.0781   -0.6400    2.1706 H   0  0  0  0  0  0  0  0  0  0  0  0
    0.6686    1.7094    1.4544 H   0  0  0  0  0  0  0  0  0  0  0  0
    2.3805    0.7520   -0.3500 H   0  0  0  0  0  0  0  0  0  0  0  0
    0.9655   -0.8483   -2.0443 H   0  0  0  0  0  0  0  0  0  0  0  0
    1.6256   -1.7684    0.4622 H   0  0  0  0  0  0  0  0  0  0  0  0
  1  2  2  0
  2  3  1  0
  3  4  1  0
  4  5  1  0
  5  6  1  0
  6  7  1  0
  7  8  1  0
  8  9  1  0
  6  2  1  0
  9  7  1  0
  8  3  1  0
  9  5  1  0
  3 10  1  0
  4 11  1  0
  4 12  1  0
  5 13  1  0
  6 14  1  0
  7 15  1  0
  8 16  1  0
  9 17  1  0
M  END
