
     RDKit          3D

 15 16  0  0  0  0  0  0  0  0999 V2000
    3.1375   -0.2442   -0.5603 O   0  0  0  0  0  0  0  0  0  0  0  0
    1.9747   -0.4014   -0.1447 C   0  0  0  0  0  0  0  0  0  0  0  0
    1.1137   -1.4809   -0.2252 O   0  0  0  0  0  0  0  0  0  0  0  0
    0.0631   -0.8383    0.4678 C   0  0  0  0  0  0  0  0  0  0  0  0
   -1.0877   -0.3864   -0.3514 C   0  0  0  0  0  0  0  0  0  0  0  0
   -2.2573   -0.4283    0.4284 O   0  0  0  0  0  0  0  0  0  0  0  0
   -0.8351    1.0114   -0.7126 C   0  0  0  0  0  0  0  0  0  0  0  0
    0.3148    1.4482   -0.2034 C   0  0  0  0  0  0  0  0  0  0  0  0
    0.9814    0.3701    0.5756 C   0  0  0  0  0  0  0  0  0  0  0  0
   -0.1554   -1.3437    1.4276 H   0  0  0  0  0  0  0  0  0  0  0  0
   -1.2403   -0.9681   -1.2873 H   0  0  0  0  0  0  0  0  0  0  0  0
   -2.4188   -1.4063    0.5882 H   0  0  0  0  0  0  0  0  0  0  0  0
   -1.4870    1.6167   -1.3112 H   0  0  0  0  0  0  0  0  0  0  0  0
    0.7220    2.4275   -0.3227 H   0  0  0  0  0  0  0  0  0  0  0  0
    1.1742    0.6236    1.6312 H   0  0  0  0  0  0  0  0  0  0  0  0
  1  2  2  0
  2  3  1  0
  3  4  1  0
  4  5  1  0
  5  6  1  0
  5  7  1  0
  7  8  2  0
  8  9  1  0
  9  2  1  0
  9  4  1  0
  4 10  1  0
  5 11  1  0
  6 12  1  0
  7 13  1  0
  8 14  1  0
  9 15  1  0
M  END
