
     RDKit          3D

 17 18  0  0  0  0  0  0  0  0999 V2000
    0.4217   -0.5483    2.5530 O   0  0  0  0  0  0  0  0  0  0  0  0
    0.4055   -0.2545    1.3740 C   0  0  0  0  0  0  0  0  0  0  0  0
    0.6886   -1.0590    0.1536 C   0  0  0  0  0  0  0  0  0  0  0  0
   -0.6503   -1.4699   -0.3935 C   0  0  0  0  0  0  0  0  0  0  0  0
   -1.6421   -0.5871   -0.1791 C   0  0  0  0  0  0  0  0  0  0  0  0
   -1.2414    0.8566   -0.1210 C   0  0  0  0  0  0  0  0  0  0  0  0
    0.1406    0.9023    0.4804 C   0  0  0  0  0  0  0  0  0  0  0  0
    1.0689    0.2230   -0.5370 C   0  0  0  0  0  0  0  0  0  0  0  0
    2.3633    0.6449   -0.3495 O   0  0  0  0  0  0  0  0  0  0  0  0
    1.4336   -1.8364    0.2311 H   0  0  0  0  0  0  0  0  0  0  0  0
   -0.8008   -2.4035   -0.9182 H   0  0  0  0  0  0  0  0  0  0  0  0
   -2.6774   -0.8976   -0.0543 H   0  0  0  0  0  0  0  0  0  0  0  0
   -1.1442    1.2558   -1.1666 H   0  0  0  0  0  0  0  0  0  0  0  0
   -1.9750    1.4817    0.3973 H   0  0  0  0  0  0  0  0  0  0  0  0
    0.4778    1.8785    0.8288 H   0  0  0  0  0  0  0  0  0  0  0  0
    0.6748    0.2675   -1.5724 H   0  0  0  0  0  0  0  0  0  0  0  0
    2.4566    1.5460   -0.7265 H   0  0  0  0  0  0  0  0  0  0  0  0
  1  2  2  0
  2  3  1  0
  3  4  1  0
  4  5  2  0
  5  6  1  0
  6  7  1  0
  7  8  1  0
  8  9  1  0
  7  2  1  0
  8  3  1  0
  3 10  1  0
  4 11  1  0
  5 12  1  0
  6 13  1  0
  6 14  1  0
  7 15  1  0
  8 16  1  0
  9 17  1  0
M  END
