
     RDKit          3D

 17 18  0  0  0  0  0  0  0  0999 V2000
    0.4396   -1.0131   -2.2540 O   0  0  0  0  0  0  0  0  0  0  0  0
    0.2977   -0.4646   -1.1929 C   0  0  0  0  0  0  0  0  0  0  0  0
    1.3199    0.3128   -0.3823 C   0  0  0  0  0  0  0  0  0  0  0  0
    2.4613   -0.3991   -0.1693 O   0  0  0  0  0  0  0  0  0  0  0  0
    0.4934    0.5721    0.8320 C   0  0  0  0  0  0  0  0  0  0  0  0
   -0.8065    1.0988    0.2048 C   0  0  0  0  0  0  0  0  0  0  0  0
   -0.9000   -0.3475   -0.3049 C   0  0  0  0  0  0  0  0  0  0  0  0
   -2.0666   -0.8149   -0.6919 O   0  0  0  0  0  0  0  0  0  0  0  0
   -0.3199   -0.7119    1.0437 C   0  0  0  0  0  0  0  0  0  0  0  0
    1.4719    1.2541   -0.9646 H   0  0  0  0  0  0  0  0  0  0  0  0
    2.3952   -1.3641   -0.2491 H   0  0  0  0  0  0  0  0  0  0  0  0
    0.8748    1.0698    1.6788 H   0  0  0  0  0  0  0  0  0  0  0  0
   -1.5327    1.3277    0.9825 H   0  0  0  0  0  0  0  0  0  0  0  0
   -0.5750    1.8416   -0.5507 H   0  0  0  0  0  0  0  0  0  0  0  0
   -2.7762   -0.1137   -0.8311 H   0  0  0  0  0  0  0  0  0  0  0  0
    0.2535   -1.6342    0.9707 H   0  0  0  0  0  0  0  0  0  0  0  0
   -1.0306   -0.6137    1.8782 H   0  0  0  0  0  0  0  0  0  0  0  0
  1  2  2  0
  2  3  1  0
  3  4  1  0
  3  5  1  0
  5  6  1  0
  6  7  1  0
  7  8  1  0
  7  9  1  0
  7  2  1  0
  9  5  1  0
  3 10  1  0
  4 11  1  0
  5 12  1  0
  6 13  1  0
  6 14  1  0
  8 15  1  0
  9 16  1  0
  9 17  1  0
M  END
