
     RDKit          3D

 17 18  0  0  0  0  0  0  0  0999 V2000
    0.5389    2.1650    1.2170 O   0  0  0  0  0  0  0  0  0  0  0  0
    0.8864    1.0250    0.8501 C   0  0  0  0  0  0  0  0  0  0  0  0
    1.6486    0.0416    1.4715 O   0  0  0  0  0  0  0  0  0  0  0  0
    1.8407   -0.7132    0.2664 C   0  0  0  0  0  0  0  0  0  0  0  0
    0.7327    0.1276   -0.3056 C   0  0  0  0  0  0  0  0  0  0  0  0
    1.0225    0.7336   -1.5336 O   0  0  0  0  0  0  0  0  0  0  0  0
   -0.6212   -0.5103   -0.3610 C   0  0  0  0  0  0  0  0  0  0  0  0
   -1.7813    0.5213   -0.4662 C   0  0  0  0  0  0  0  0  0  0  0  0
   -1.6004   -0.4167    0.7239 C   0  0  0  0  0  0  0  0  0  0  0  0
    1.6244   -1.7599    0.4665 H   0  0  0  0  0  0  0  0  0  0  0  0
    2.8228   -0.4773   -0.2010 H   0  0  0  0  0  0  0  0  0  0  0  0
    1.3300   -0.0058   -2.1330 H   0  0  0  0  0  0  0  0  0  0  0  0
   -0.7096   -1.3721   -1.0783 H   0  0  0  0  0  0  0  0  0  0  0  0
   -2.5722    0.2881   -1.1942 H   0  0  0  0  0  0  0  0  0  0  0  0
   -1.5354    1.5706   -0.2564 H   0  0  0  0  0  0  0  0  0  0  0  0
   -1.3265    0.0486    1.6995 H   0  0  0  0  0  0  0  0  0  0  0  0
   -2.3003   -1.2661    0.8344 H   0  0  0  0  0  0  0  0  0  0  0  0
  1  2  2  0
  2  3  1  0
  3  4  1  0
  4  5  1  0
  5  6  1  0
  5  7  1  0
  7  8  1  0
  8  9  1  0
  5  2  1  0
  9  7  1  0
  4 10  1  0
  4 11  1  0
  6 12  1  0
  7 13  1  0
  8 14  1  0
  8 15  1  0
  9 16  1  0
  9 17  1  0
M  END
