
     RDKit          3D

 15 16  0  0  0  0  0  0  0  0999 V2000
   -0.0615    0.9587    2.1592 O   0  0  0  0  0  0  0  0  0  0  0  0
   -0.2458    0.3675    1.1261 C   0  0  0  0  0  0  0  0  0  0  0  0
   -1.2499    0.4040    0.0474 C   0  0  0  0  0  0  0  0  0  0  0  0
   -2.5690    0.4005    0.4252 O   0  0  0  0  0  0  0  0  0  0  0  0
   -0.7766   -0.9188   -0.4889 C   0  0  0  0  0  0  0  0  0  0  0  0
   -0.2647   -1.8906    0.3315 O   0  0  0  0  0  0  0  0  0  0  0  0
    0.4350   -0.7027    0.3975 C   0  0  0  0  0  0  0  0  0  0  0  0
    1.7019   -0.4890   -0.3389 C   0  0  0  0  0  0  0  0  0  0  0  0
    2.2224    0.7896   -0.1159 O   0  0  0  0  0  0  0  0  0  0  0  0
   -0.9726    1.2109   -0.6912 H   0  0  0  0  0  0  0  0  0  0  0  0
   -3.0033    1.2790    0.2740 H   0  0  0  0  0  0  0  0  0  0  0  0
   -0.6601   -1.0204   -1.5634 H   0  0  0  0  0  0  0  0  0  0  0  0
    2.4508   -1.2135    0.0416 H   0  0  0  0  0  0  0  0  0  0  0  0
    1.5491   -0.5845   -1.4308 H   0  0  0  0  0  0  0  0  0  0  0  0
    1.4443    1.4092   -0.1734 H   0  0  0  0  0  0  0  0  0  0  0  0
  1  2  2  0
  2  3  1  0
  3  4  1  0
  3  5  1  0
  5  6  1  0
  6  7  1  0
  7  8  1  0
  8  9  1  0
  7  2  1  0
  7  5  1  0
  3 10  1  0
  4 11  1  0
  5 12  1  0
  8 13  1  0
  8 14  1  0
  9 15  1  0
M  END
