
     RDKit          3D

 17 17  0  0  0  0  0  0  0  0999 V2000
    3.5719   -0.0418    0.6209 O   0  0  0  0  0  0  0  0  0  0  0  0
    2.3558    0.0260    0.3346 C   0  0  0  0  0  0  0  0  0  0  0  0
    1.6628   -1.0338   -0.4008 C   0  0  0  0  0  0  0  0  0  0  0  0
    0.3863   -0.9848   -0.7161 C   0  0  0  0  0  0  0  0  0  0  0  0
   -0.4149    0.1863   -0.3244 C   0  0  0  0  0  0  0  0  0  0  0  0
   -1.8778   -0.1710   -0.1836 C   0  0  0  0  0  0  0  0  0  0  0  0
   -2.6008    0.9544    0.1856 O   0  0  0  0  0  0  0  0  0  0  0  0
    0.1512    0.7842    0.9251 C   0  0  0  0  0  0  0  0  0  0  0  0
    1.5305    1.1160    0.6836 O   0  0  0  0  0  0  0  0  0  0  0  0
    2.2932   -1.8967   -0.6807 H   0  0  0  0  0  0  0  0  0  0  0  0
   -0.0170   -1.8392   -1.2654 H   0  0  0  0  0  0  0  0  0  0  0  0
   -0.3017    0.9360   -1.1665 H   0  0  0  0  0  0  0  0  0  0  0  0
   -2.0062   -1.0257    0.4784 H   0  0  0  0  0  0  0  0  0  0  0  0
   -2.2430   -0.4811   -1.1959 H   0  0  0  0  0  0  0  0  0  0  0  0
   -2.2194    1.7510   -0.2635 H   0  0  0  0  0  0  0  0  0  0  0  0
   -0.3869    1.6999    1.2483 H   0  0  0  0  0  0  0  0  0  0  0  0
    0.1157    0.0205    1.7204 H   0  0  0  0  0  0  0  0  0  0  0  0
  1  2  2  0
  2  3  1  0
  3  4  2  0
  4  5  1  0
  5  6  1  0
  6  7  1  0
  5  8  1  0
  8  9  1  0
  9  2  1  0
  3 10  1  0
  4 11  1  0
  5 12  1  0
  6 13  1  0
  6 14  1  0
  7 15  1  0
  8 16  1  0
  8 17  1  0
M  END
