
     RDKit          3D

 15 17  0  0  0  0  0  0  0  0999 V2000
    2.9845   -0.3842    0.0219 O   0  0  0  0  0  0  0  0  0  0  0  0
    1.7400   -0.5148    0.1467 C   0  0  0  0  0  0  0  0  0  0  0  0
    1.0368   -1.5738    0.7719 O   0  0  0  0  0  0  0  0  0  0  0  0
   -0.3175   -1.1638    0.5827 C   0  0  0  0  0  0  0  0  0  0  0  0
   -0.3895   -0.5810   -0.7925 C   0  0  0  0  0  0  0  0  0  0  0  0
   -1.3817    0.4001   -0.2245 C   0  0  0  0  0  0  0  0  0  0  0  0
   -0.3267    0.3143    0.8319 C   0  0  0  0  0  0  0  0  0  0  0  0
    0.6620    0.3623   -0.3026 C   0  0  0  0  0  0  0  0  0  0  0  0
    0.9036    1.5058   -0.9316 O   0  0  0  0  0  0  0  0  0  0  0  0
   -1.0977   -1.7801    0.9562 H   0  0  0  0  0  0  0  0  0  0  0  0
   -0.4402   -1.0563   -1.6694 H   0  0  0  0  0  0  0  0  0  0  0  0
   -1.3236    1.3774   -0.7453 H   0  0  0  0  0  0  0  0  0  0  0  0
   -2.3754    0.0176    0.0142 H   0  0  0  0  0  0  0  0  0  0  0  0
   -0.2739    0.7956    1.7045 H   0  0  0  0  0  0  0  0  0  0  0  0
    0.5993    2.2810   -0.3640 H   0  0  0  0  0  0  0  0  0  0  0  0
  1  2  2  0
  2  3  1  0
  3  4  1  0
  4  5  1  0
  5  6  1  0
  6  7  1  0
  7  8  1  0
  8  9  1  0
  8  2  1  0
  7  4  1  0
  8  5  1  0
  4 10  1  0
  5 11  1  0
  6 12  1  0
  6 13  1  0
  7 14  1  0
  9 15  1  0
M  END
