
     RDKit          3D

 17 18  0  0  0  0  0  0  0  0999 V2000
    1.5883    0.7249   -2.1052 O   0  0  0  0  0  0  0  0  0  0  0  0
    1.1718    0.2371   -1.0939 C   0  0  0  0  0  0  0  0  0  0  0  0
    1.7542    0.5196    0.2210 C   0  0  0  0  0  0  0  0  0  0  0  0
    0.8714    0.6435    1.2435 O   0  0  0  0  0  0  0  0  0  0  0  0
   -0.4370    0.5485    1.0062 C   0  0  0  0  0  0  0  0  0  0  0  0
   -1.0329   -0.8605    1.1717 C   0  0  0  0  0  0  0  0  0  0  0  0
   -0.9667   -0.1605   -0.1239 C   0  0  0  0  0  0  0  0  0  0  0  0
   -2.1656    0.3157   -0.6909 O   0  0  0  0  0  0  0  0  0  0  0  0
    0.0287   -0.6900   -1.1301 C   0  0  0  0  0  0  0  0  0  0  0  0
    2.3706    1.4488    0.1466 H   0  0  0  0  0  0  0  0  0  0  0  0
    2.5007   -0.2831    0.4976 H   0  0  0  0  0  0  0  0  0  0  0  0
   -1.0787    1.3588    1.4587 H   0  0  0  0  0  0  0  0  0  0  0  0
   -2.0534   -0.9255    1.6310 H   0  0  0  0  0  0  0  0  0  0  0  0
   -0.3357   -1.6854    1.4047 H   0  0  0  0  0  0  0  0  0  0  0  0
   -2.1555    1.2967   -0.6455 H   0  0  0  0  0  0  0  0  0  0  0  0
   -0.4317   -0.7772   -2.1324 H   0  0  0  0  0  0  0  0  0  0  0  0
    0.3715   -1.7115   -0.8591 H   0  0  0  0  0  0  0  0  0  0  0  0
  1  2  2  0
  2  3  1  0
  3  4  1  0
  4  5  1  0
  5  6  1  0
  6  7  1  0
  7  8  1  0
  7  9  1  0
  9  2  1  0
  7  5  1  0
  3 10  1  0
  3 11  1  0
  5 12  1  0
  6 13  1  0
  6 14  1  0
  8 15  1  0
  9 16  1  0
  9 17  1  0
M  END
