
     RDKit          3D

 19 20  0  0  0  0  0  0  0  0999 V2000
    1.4098    2.5304   -0.1358 O   0  0  0  0  0  0  0  0  0  0  0  0
    0.8748    1.3892   -0.1287 C   0  0  0  0  0  0  0  0  0  0  0  0
    1.7549    0.3696    0.4246 C   0  0  0  0  0  0  0  0  0  0  0  0
    1.4747   -0.8669    0.7688 C   0  0  0  0  0  0  0  0  0  0  0  0
    0.1178   -1.5070    0.6530 C   0  0  0  0  0  0  0  0  0  0  0  0
   -0.3979   -1.1495   -0.7020 C   0  0  0  0  0  0  0  0  0  0  0  0
   -1.1720    0.1007   -0.7962 C   0  0  0  0  0  0  0  0  0  0  0  0
   -1.5361    0.9507    0.3563 C   0  0  0  0  0  0  0  0  0  0  0  0
   -0.4753    1.3627   -0.6673 C   0  0  0  0  0  0  0  0  0  0  0  0
    2.7629    0.6607    0.5720 H   0  0  0  0  0  0  0  0  0  0  0  0
    2.2770   -1.4730    1.1655 H   0  0  0  0  0  0  0  0  0  0  0  0
    0.2590   -2.6080    0.7449 H   0  0  0  0  0  0  0  0  0  0  0  0
   -0.4904   -1.1796    1.4927 H   0  0  0  0  0  0  0  0  0  0  0  0
   -0.9968   -2.0212   -1.0650 H   0  0  0  0  0  0  0  0  0  0  0  0
    0.4841   -1.1160   -1.4089 H   0  0  0  0  0  0  0  0  0  0  0  0
   -1.9748    0.0649   -1.5967 H   0  0  0  0  0  0  0  0  0  0  0  0
   -2.4328    1.5869    0.3139 H   0  0  0  0  0  0  0  0  0  0  0  0
   -1.2175    0.7226    1.3900 H   0  0  0  0  0  0  0  0  0  0  0  0
   -0.7213    2.1830   -1.3813 H   0  0  0  0  0  0  0  0  0  0  0  0
  1  2  2  0
  2  3  1  0
  3  4  2  0
  4  5  1  0
  5  6  1  0
  6  7  1  0
  7  8  1  0
  8  9  1  0
  9  2  1  0
  9  7  1  0
  3 10  1  0
  4 11  1  0
  5 12  1  0
  5 13  1  0
  6 14  1  0
  6 15  1  0
  7 16  1  0
  8 17  1  0
  8 18  1  0
  9 19  1  0
M  END
