
     RDKit          3D

 19 20  0  0  0  0  0  0  0  0999 V2000
   -3.2266    0.2880   -1.6530 O   0  0  0  0  0  0  0  0  0  0  0  0
   -2.2814   -0.0642   -0.9985 C   0  0  0  0  0  0  0  0  0  0  0  0
   -2.2494   -0.4094    0.4406 C   0  0  0  0  0  0  0  0  0  0  0  0
   -0.8342    0.0051    0.7948 C   0  0  0  0  0  0  0  0  0  0  0  0
   -0.0847    0.1028   -0.2652 C   0  0  0  0  0  0  0  0  0  0  0  0
    1.3638    0.4925   -0.2641 C   0  0  0  0  0  0  0  0  0  0  0  0
    2.3289   -0.4542    0.3090 C   0  0  0  0  0  0  0  0  0  0  0  0
    1.9795    0.7895    1.0889 C   0  0  0  0  0  0  0  0  0  0  0  0
   -0.9001   -0.2429   -1.4702 C   0  0  0  0  0  0  0  0  0  0  0  0
   -2.3671   -1.4799    0.6397 H   0  0  0  0  0  0  0  0  0  0  0  0
   -2.9121    0.2190    1.0553 H   0  0  0  0  0  0  0  0  0  0  0  0
   -0.5284    0.1867    1.8123 H   0  0  0  0  0  0  0  0  0  0  0  0
    1.7102    1.1698   -1.0870 H   0  0  0  0  0  0  0  0  0  0  0  0
    3.3309   -0.5040   -0.1795 H   0  0  0  0  0  0  0  0  0  0  0  0
    1.9300   -1.4054    0.6858 H   0  0  0  0  0  0  0  0  0  0  0  0
    2.7626    1.5988    1.1314 H   0  0  0  0  0  0  0  0  0  0  0  0
    1.4053    0.6484    2.0156 H   0  0  0  0  0  0  0  0  0  0  0  0
   -0.7835   -1.3358   -1.7194 H   0  0  0  0  0  0  0  0  0  0  0  0
   -0.6437    0.3951   -2.3363 H   0  0  0  0  0  0  0  0  0  0  0  0
  1  2  2  0
  2  3  1  0
  3  4  1  0
  4  5  2  0
  5  6  1  0
  6  7  1  0
  7  8  1  0
  5  9  1  0
  9  2  1  0
  8  6  1  0
  3 10  1  0
  3 11  1  0
  4 12  1  0
  6 13  1  0
  7 14  1  0
  7 15  1  0
  8 16  1  0
  8 17  1  0
  9 18  1  0
  9 19  1  0
M  END
