
     RDKit          3D

 19 20  0  0  0  0  0  0  0  0999 V2000
   -0.5072   -1.3193   -2.2975 O   0  0  0  0  0  0  0  0  0  0  0  0
   -0.4353   -0.6884   -1.2729 C   0  0  0  0  0  0  0  0  0  0  0  0
   -0.1702    0.7367   -0.9459 C   0  0  0  0  0  0  0  0  0  0  0  0
   -1.5003    1.1603   -0.3809 C   0  0  0  0  0  0  0  0  0  0  0  0
   -1.8002   -0.0742    0.4920 C   0  0  0  0  0  0  0  0  0  0  0  0
   -0.5439   -0.8526    0.1979 C   0  0  0  0  0  0  0  0  0  0  0  0
    0.5785    0.1971    0.2619 C   0  0  0  0  0  0  0  0  0  0  0  0
    1.8882   -0.4577   -0.0562 C   0  0  0  0  0  0  0  0  0  0  0  0
    2.7926    0.3898   -0.6762 O   0  0  0  0  0  0  0  0  0  0  0  0
    0.3416    1.3517   -1.6377 H   0  0  0  0  0  0  0  0  0  0  0  0
   -2.2809    1.2710   -1.1466 H   0  0  0  0  0  0  0  0  0  0  0  0
   -1.4174    2.0044    0.3112 H   0  0  0  0  0  0  0  0  0  0  0  0
   -2.6495   -0.6351    0.0447 H   0  0  0  0  0  0  0  0  0  0  0  0
   -1.9335    0.1858    1.5387 H   0  0  0  0  0  0  0  0  0  0  0  0
   -0.3705   -1.7910    0.6466 H   0  0  0  0  0  0  0  0  0  0  0  0
    0.5547    0.8418    1.1419 H   0  0  0  0  0  0  0  0  0  0  0  0
    1.7843   -1.3594   -0.6830 H   0  0  0  0  0  0  0  0  0  0  0  0
    2.3004   -0.8327    0.9265 H   0  0  0  0  0  0  0  0  0  0  0  0
    3.3686   -0.1281   -1.2969 H   0  0  0  0  0  0  0  0  0  0  0  0
  1  2  2  0
  2  3  1  0
  3  4  1  0
  4  5  1  0
  5  6  1  0
  6  7  1  0
  7  8  1  0
  8  9  1  0
  6  2  1  0
  7  3  1  0
  3 10  1  0
  4 11  1  0
  4 12  1  0
  5 13  1  0
  5 14  1  0
  6 15  1  0
  7 16  1  0
  8 17  1  0
  8 18  1  0
  9 19  1  0
M  END
