
     RDKit          3D

 17 19  0  0  0  0  0  0  0  0999 V2000
    3.3343    0.9529   -1.0711 O   0  0  0  0  0  0  0  0  0  0  0  0
    2.4826    0.1848   -0.6278 C   0  0  0  0  0  0  0  0  0  0  0  0
    2.1584   -1.1423   -0.7830 O   0  0  0  0  0  0  0  0  0  0  0  0
    1.0522   -1.0408    0.1356 C   0  0  0  0  0  0  0  0  0  0  0  0
    1.3424    0.2830    0.3184 C   0  0  0  0  0  0  0  0  0  0  0  0
    0.0663   -0.0402   -0.1714 C   0  0  0  0  0  0  0  0  0  0  0  0
   -0.8146    0.9439    0.4961 C   0  0  0  0  0  0  0  0  0  0  0  0
   -1.9331    0.4851   -0.4494 C   0  0  0  0  0  0  0  0  0  0  0  0
   -1.1622   -0.8170   -0.2040 C   0  0  0  0  0  0  0  0  0  0  0  0
    1.0813   -1.7958    0.9073 H   0  0  0  0  0  0  0  0  0  0  0  0
    1.6781    0.6529    1.3116 H   0  0  0  0  0  0  0  0  0  0  0  0
   -0.6184    2.0183    0.3165 H   0  0  0  0  0  0  0  0  0  0  0  0
   -1.1306    0.7321    1.5387 H   0  0  0  0  0  0  0  0  0  0  0  0
   -1.7875    0.8858   -1.4645 H   0  0  0  0  0  0  0  0  0  0  0  0
   -2.9323    0.5171   -0.0242 H   0  0  0  0  0  0  0  0  0  0  0  0
   -1.5138   -1.2471    0.7762 H   0  0  0  0  0  0  0  0  0  0  0  0
   -1.3031   -1.5726   -1.0049 H   0  0  0  0  0  0  0  0  0  0  0  0
  1  2  2  0
  2  3  1  0
  3  4  1  0
  4  5  1  0
  5  6  1  0
  6  7  1  0
  7  8  1  0
  8  9  1  0
  5  2  1  0
  9  6  1  0
  6  4  1  0
  4 10  1  0
  5 11  1  0
  7 12  1  0
  7 13  1  0
  8 14  1  0
  8 15  1  0
  9 16  1  0
  9 17  1  0
M  END
