
     RDKit          3D

 15 16  0  0  0  0  0  0  0  0999 V2000
    2.3504   -0.5772   -1.7833 O   0  0  0  0  0  0  0  0  0  0  0  0
    1.5250   -0.0314   -1.0494 C   0  0  0  0  0  0  0  0  0  0  0  0
    0.5530    0.9207   -1.2606 O   0  0  0  0  0  0  0  0  0  0  0  0
   -0.1491    0.3235   -0.2335 C   0  0  0  0  0  0  0  0  0  0  0  0
   -1.1802   -0.6747   -0.5812 C   0  0  0  0  0  0  0  0  0  0  0  0
   -1.4203    0.5633    0.3000 C   0  0  0  0  0  0  0  0  0  0  0  0
   -1.6818    0.3279    1.6613 O   0  0  0  0  0  0  0  0  0  0  0  0
    1.1261   -0.0725    0.3641 C   0  0  0  0  0  0  0  0  0  0  0  0
    1.7779    0.9310    1.0777 O   0  0  0  0  0  0  0  0  0  0  0  0
   -1.5455   -0.6510   -1.6167 H   0  0  0  0  0  0  0  0  0  0  0  0
   -1.0896   -1.6530   -0.0835 H   0  0  0  0  0  0  0  0  0  0  0  0
   -2.1143    1.2987   -0.1630 H   0  0  0  0  0  0  0  0  0  0  0  0
   -1.9848   -0.6231    1.7754 H   0  0  0  0  0  0  0  0  0  0  0  0
    1.1165   -1.0652    0.8500 H   0  0  0  0  0  0  0  0  0  0  0  0
    2.7168    0.9830    0.7426 H   0  0  0  0  0  0  0  0  0  0  0  0
  1  2  2  0
  2  3  1  0
  3  4  1  0
  4  5  1  0
  5  6  1  0
  6  7  1  0
  4  8  1  0
  8  9  1  0
  8  2  1  0
  6  4  1  0
  5 10  1  0
  5 11  1  0
  6 12  1  0
  7 13  1  0
  8 14  1  0
  9 15  1  0
M  END
