
     RDKit          3D

 17 18  0  0  0  0  0  0  0  0999 V2000
    1.9732   -2.1333    0.0335 O   0  0  0  0  0  0  0  0  0  0  0  0
    1.1866   -1.1591   -0.0350 C   0  0  0  0  0  0  0  0  0  0  0  0
    1.6904    0.1902    0.1768 C   0  0  0  0  0  0  0  0  0  0  0  0
    1.0353    1.3600    0.0711 C   0  0  0  0  0  0  0  0  0  0  0  0
   -0.3537    1.6122   -0.2822 C   0  0  0  0  0  0  0  0  0  0  0  0
   -0.8788    0.8669   -1.4083 O   0  0  0  0  0  0  0  0  0  0  0  0
   -1.3519    0.6760   -0.0713 C   0  0  0  0  0  0  0  0  0  0  0  0
   -1.0760   -0.6310    0.5844 C   0  0  0  0  0  0  0  0  0  0  0  0
   -0.2242   -1.5088   -0.3363 C   0  0  0  0  0  0  0  0  0  0  0  0
    2.7355    0.2229    0.4554 H   0  0  0  0  0  0  0  0  0  0  0  0
    1.6924    2.2034    0.2942 H   0  0  0  0  0  0  0  0  0  0  0  0
   -0.6126    2.6906   -0.3943 H   0  0  0  0  0  0  0  0  0  0  0  0
   -2.4156    1.0273    0.0752 H   0  0  0  0  0  0  0  0  0  0  0  0
   -0.5514   -0.4490    1.5497 H   0  0  0  0  0  0  0  0  0  0  0  0
   -2.0135   -1.1749    0.8592 H   0  0  0  0  0  0  0  0  0  0  0  0
   -0.3931   -1.2142   -1.4095 H   0  0  0  0  0  0  0  0  0  0  0  0
   -0.4426   -2.5791   -0.1626 H   0  0  0  0  0  0  0  0  0  0  0  0
  1  2  2  0
  2  3  1  0
  3  4  2  0
  4  5  1  0
  5  6  1  0
  6  7  1  0
  7  8  1  0
  8  9  1  0
  9  2  1  0
  7  5  1  0
  3 10  1  0
  4 11  1  0
  5 12  1  0
  7 13  1  0
  8 14  1  0
  8 15  1  0
  9 16  1  0
  9 17  1  0
M  END
