
     RDKit          3D

 13 14  0  0  0  0  0  0  0  0999 V2000
    3.5954   -0.0368   -0.1066 O   0  0  0  0  0  0  0  0  0  0  0  0
    2.3361   -0.0525   -0.0769 C   0  0  0  0  0  0  0  0  0  0  0  0
    1.5178   -1.0854   -0.0549 O   0  0  0  0  0  0  0  0  0  0  0  0
    0.2784   -0.6997   -0.0267 C   0  0  0  0  0  0  0  0  0  0  0  0
    0.3121    0.6919   -0.0310 C   0  0  0  0  0  0  0  0  0  0  0  0
    1.5840    1.0255   -0.0619 O   0  0  0  0  0  0  0  0  0  0  0  0
   -1.1146    1.1036    0.0016 C   0  0  0  0  0  0  0  0  0  0  0  0
   -1.7420    0.0357   -0.6507 O   0  0  0  0  0  0  0  0  0  0  0  0
   -1.1751   -1.0541    0.0085 C   0  0  0  0  0  0  0  0  0  0  0  0
   -1.5094    1.1228    1.0303 H   0  0  0  0  0  0  0  0  0  0  0  0
   -1.2167    2.0554   -0.5423 H   0  0  0  0  0  0  0  0  0  0  0  0
   -1.5557   -1.1065    1.0440 H   0  0  0  0  0  0  0  0  0  0  0  0
   -1.3104   -1.9998   -0.5337 H   0  0  0  0  0  0  0  0  0  0  0  0
  1  2  2  0
  2  3  1  0
  3  4  1  0
  4  5  2  0
  5  6  1  0
  5  7  1  0
  7  8  1  0
  8  9  1  0
  6  2  1  0
  9  4  1  0
  7 10  1  0
  7 11  1  0
  9 12  1  0
  9 13  1  0
M  END
