
     RDKit          3D

 15 17  0  0  0  0  0  0  0  0999 V2000
    3.1434   -0.3663   -0.0290 O   0  0  0  0  0  0  0  0  0  0  0  0
    1.9276   -0.3454    0.0874 C   0  0  0  0  0  0  0  0  0  0  0  0
    1.1252   -1.2308    0.7712 O   0  0  0  0  0  0  0  0  0  0  0  0
   -0.1292   -0.6593    1.0789 C   0  0  0  0  0  0  0  0  0  0  0  0
   -1.2076   -1.1695    0.3790 O   0  0  0  0  0  0  0  0  0  0  0  0
   -1.6582   -0.1143   -0.4594 C   0  0  0  0  0  0  0  0  0  0  0  0
   -0.3293    0.3159   -1.0194 C   0  0  0  0  0  0  0  0  0  0  0  0
    0.9964    0.6628   -0.4933 C   0  0  0  0  0  0  0  0  0  0  0  0
    0.0243    0.6878    0.4382 C   0  0  0  0  0  0  0  0  0  0  0  0
   -0.3082   -0.5330    2.1511 H   0  0  0  0  0  0  0  0  0  0  0  0
   -2.2079    0.6592    0.1050 H   0  0  0  0  0  0  0  0  0  0  0  0
   -2.3058   -0.4313   -1.2572 H   0  0  0  0  0  0  0  0  0  0  0  0
   -0.0321   -0.6014   -1.5775 H   0  0  0  0  0  0  0  0  0  0  0  0
    1.4653    1.5597   -0.9567 H   0  0  0  0  0  0  0  0  0  0  0  0
   -0.5040    1.5659    0.7816 H   0  0  0  0  0  0  0  0  0  0  0  0
  1  2  2  0
  2  3  1  0
  3  4  1  0
  4  5  1  0
  5  6  1  0
  6  7  1  0
  7  8  1  0
  8  9  1  0
  8  2  1  0
  9  4  1  0
  9  7  1  0
  4 10  1  0
  6 11  1  0
  6 12  1  0
  7 13  1  0
  8 14  1  0
  9 15  1  0
M  END
