
     RDKit          3D

 19 20  0  0  0  0  0  0  0  0999 V2000
    3.1067    1.5575    0.2984 O   0  0  0  0  0  0  0  0  0  0  0  0
    2.1668    0.7308    0.2669 C   0  0  0  0  0  0  0  0  0  0  0  0
    0.7410    0.9803    0.1081 C   0  0  0  0  0  0  0  0  0  0  0  0
    0.1197   -0.1059   -0.2920 C   0  0  0  0  0  0  0  0  0  0  0  0
   -1.3346   -0.1694   -0.5415 C   0  0  0  0  0  0  0  0  0  0  0  0
   -2.3161   -0.1917    0.5516 C   0  0  0  0  0  0  0  0  0  0  0  0
   -2.1619    1.0764   -0.3281 C   0  0  0  0  0  0  0  0  0  0  0  0
    1.1031   -1.1854   -0.4399 C   0  0  0  0  0  0  0  0  0  0  0  0
    2.2862   -0.7415    0.3874 C   0  0  0  0  0  0  0  0  0  0  0  0
    0.3109    1.9754    0.3146 H   0  0  0  0  0  0  0  0  0  0  0  0
   -1.6130   -0.7195   -1.4637 H   0  0  0  0  0  0  0  0  0  0  0  0
   -3.2650   -0.7438    0.3940 H   0  0  0  0  0  0  0  0  0  0  0  0
   -2.0548   -0.0425    1.6108 H   0  0  0  0  0  0  0  0  0  0  0  0
   -3.0087    1.2918   -1.0200 H   0  0  0  0  0  0  0  0  0  0  0  0
   -1.7300    1.9538    0.1637 H   0  0  0  0  0  0  0  0  0  0  0  0
    0.7375   -2.1697   -0.0841 H   0  0  0  0  0  0  0  0  0  0  0  0
    1.4394   -1.3091   -1.4958 H   0  0  0  0  0  0  0  0  0  0  0  0
    3.2461   -1.1012   -0.0224 H   0  0  0  0  0  0  0  0  0  0  0  0
    2.2266   -1.0862    1.4346 H   0  0  0  0  0  0  0  0  0  0  0  0
  1  2  2  0
  2  3  1  0
  3  4  2  0
  4  5  1  0
  5  6  1  0
  6  7  1  0
  4  8  1  0
  8  9  1  0
  9  2  1  0
  7  5  1  0
  3 10  1  0
  5 11  1  0
  6 12  1  0
  6 13  1  0
  7 14  1  0
  7 15  1  0
  8 16  1  0
  8 17  1  0
  9 18  1  0
  9 19  1  0
M  END
