
     RDKit          3D

 19 20  0  0  0  0  0  0  0  0999 V2000
    3.3518   -0.0699    0.3438 O   0  0  0  0  0  0  0  0  0  0  0  0
    2.1487    0.1898    0.1666 C   0  0  0  0  0  0  0  0  0  0  0  0
    1.1091   -0.7554    0.6198 C   0  0  0  0  0  0  0  0  0  0  0  0
    0.0755   -0.8243   -0.4581 C   0  0  0  0  0  0  0  0  0  0  0  0
   -1.2877   -1.2926   -0.0324 C   0  0  0  0  0  0  0  0  0  0  0  0
   -1.6531    0.1605    0.2274 C   0  0  0  0  0  0  0  0  0  0  0  0
   -0.5020    0.5526   -0.6620 C   0  0  0  0  0  0  0  0  0  0  0  0
    0.3442    1.6759   -0.2032 C   0  0  0  0  0  0  0  0  0  0  0  0
    1.7219    1.3478   -0.4488 O   0  0  0  0  0  0  0  0  0  0  0  0
    1.5500   -1.7370    0.8746 H   0  0  0  0  0  0  0  0  0  0  0  0
    0.5884   -0.3843    1.5488 H   0  0  0  0  0  0  0  0  0  0  0  0
    0.4339   -1.2313   -1.4199 H   0  0  0  0  0  0  0  0  0  0  0  0
   -1.8239   -1.7330   -0.9160 H   0  0  0  0  0  0  0  0  0  0  0  0
   -1.3309   -1.9199    0.8665 H   0  0  0  0  0  0  0  0  0  0  0  0
   -2.6677    0.3647   -0.2102 H   0  0  0  0  0  0  0  0  0  0  0  0
   -1.5876    0.4591    1.2774 H   0  0  0  0  0  0  0  0  0  0  0  0
   -0.8604    0.7058   -1.6981 H   0  0  0  0  0  0  0  0  0  0  0  0
    0.1134    2.5855   -0.7531 H   0  0  0  0  0  0  0  0  0  0  0  0
    0.2766    1.9059    0.8767 H   0  0  0  0  0  0  0  0  0  0  0  0
  1  2  2  0
  2  3  1  0
  3  4  1  0
  4  5  1  0
  5  6  1  0
  6  7  1  0
  7  8  1  0
  8  9  1  0
  9  2  1  0
  7  4  1  0
  3 10  1  0
  3 11  1  0
  4 12  1  0
  5 13  1  0
  5 14  1  0
  6 15  1  0
  6 16  1  0
  7 17  1  0
  8 18  1  0
  8 19  1  0
M  END
