
     RDKit          3D

 19 20  0  0  0  0  0  0  0  0999 V2000
    1.5277    2.4733    0.7585 O   0  0  0  0  0  0  0  0  0  0  0  0
    1.1287    1.4775    0.1899 C   0  0  0  0  0  0  0  0  0  0  0  0
    1.7484    0.1326    0.0773 C   0  0  0  0  0  0  0  0  0  0  0  0
    0.6465   -0.7921   -0.4225 C   0  0  0  0  0  0  0  0  0  0  0  0
    0.6428   -1.9544    0.3302 O   0  0  0  0  0  0  0  0  0  0  0  0
   -0.5907   -0.0053   -0.1776 C   0  0  0  0  0  0  0  0  0  0  0  0
   -1.3163   -0.2442    1.0901 C   0  0  0  0  0  0  0  0  0  0  0  0
   -1.9429   -0.4935   -0.3082 C   0  0  0  0  0  0  0  0  0  0  0  0
   -0.1510    1.3850   -0.5657 C   0  0  0  0  0  0  0  0  0  0  0  0
    2.1956   -0.2101    1.0146 H   0  0  0  0  0  0  0  0  0  0  0  0
    2.5359    0.1176   -0.7027 H   0  0  0  0  0  0  0  0  0  0  0  0
    0.7433   -0.9876   -1.5106 H   0  0  0  0  0  0  0  0  0  0  0  0
    1.3634   -2.5550    0.0647 H   0  0  0  0  0  0  0  0  0  0  0  0
   -1.0823   -1.1688    1.6503 H   0  0  0  0  0  0  0  0  0  0  0  0
   -1.7365    0.6338    1.6471 H   0  0  0  0  0  0  0  0  0  0  0  0
   -2.1778   -1.5317   -0.5661 H   0  0  0  0  0  0  0  0  0  0  0  0
   -2.7516    0.2237   -0.5896 H   0  0  0  0  0  0  0  0  0  0  0  0
   -0.8699    2.1626   -0.3140 H   0  0  0  0  0  0  0  0  0  0  0  0
    0.0869    1.3365   -1.6657 H   0  0  0  0  0  0  0  0  0  0  0  0
  1  2  2  0
  2  3  1  0
  3  4  1  0
  4  5  1  0
  4  6  1  0
  6  7  1  0
  7  8  1  0
  6  9  1  0
  9  2  1  0
  8  6  1  0
  3 10  1  0
  3 11  1  0
  4 12  1  0
  5 13  1  0
  7 14  1  0
  7 15  1  0
  8 16  1  0
  8 17  1  0
  9 18  1  0
  9 19  1  0
M  END
