
     RDKit          3D

 15 16  0  0  0  0  0  0  0  0999 V2000
   -2.6277    1.6093   -0.6089 O   0  0  0  0  0  0  0  0  0  0  0  0
   -1.8219    0.8083   -0.1091 C   0  0  0  0  0  0  0  0  0  0  0  0
   -0.4293    1.0798    0.3430 C   0  0  0  0  0  0  0  0  0  0  0  0
    0.2526   -0.0192    0.0680 C   0  0  0  0  0  0  0  0  0  0  0  0
    1.7141   -0.1924    0.3678 C   0  0  0  0  0  0  0  0  0  0  0  0
    2.4099   -0.4314   -0.7886 O   0  0  0  0  0  0  0  0  0  0  0  0
   -0.6358   -0.9227   -0.6091 C   0  0  0  0  0  0  0  0  0  0  0  0
   -1.6020   -1.7478   -0.3543 O   0  0  0  0  0  0  0  0  0  0  0  0
   -1.8994   -0.6165    0.2169 C   0  0  0  0  0  0  0  0  0  0  0  0
   -0.0418    2.0050    0.7928 H   0  0  0  0  0  0  0  0  0  0  0  0
    2.1273    0.6781    0.8733 H   0  0  0  0  0  0  0  0  0  0  0  0
    1.8798   -1.0756    1.0416 H   0  0  0  0  0  0  0  0  0  0  0  0
    3.2088    0.1599   -0.8650 H   0  0  0  0  0  0  0  0  0  0  0  0
   -0.7041   -0.5909   -1.7133 H   0  0  0  0  0  0  0  0  0  0  0  0
   -1.8304   -0.7440    1.3450 H   0  0  0  0  0  0  0  0  0  0  0  0
  1  2  2  0
  2  3  1  0
  3  4  2  0
  4  5  1  0
  5  6  1  0
  4  7  1  0
  7  8  1  0
  8  9  1  0
  9  2  1  0
  9  7  1  0
  3 10  1  0
  5 11  1  0
  5 12  1  0
  6 13  1  0
  7 14  1  0
  9 15  1  0
M  END
