
     RDKit          3D

 15 16  0  0  0  0  0  0  0  0999 V2000
   -2.4123    1.1263   -0.4782 O   0  0  0  0  0  0  0  0  0  0  0  0
   -1.3569    0.6168   -0.2508 C   0  0  0  0  0  0  0  0  0  0  0  0
   -0.0871    1.3448    0.0356 C   0  0  0  0  0  0  0  0  0  0  0  0
    0.6966    0.2453    0.6586 C   0  0  0  0  0  0  0  0  0  0  0  0
    1.5893   -0.7318    0.2022 C   0  0  0  0  0  0  0  0  0  0  0  0
    0.3961   -0.7531   -0.5352 C   0  0  0  0  0  0  0  0  0  0  0  0
   -1.0546   -0.8407   -0.1982 C   0  0  0  0  0  0  0  0  0  0  0  0
   -0.3116    2.1452    0.7798 H   0  0  0  0  0  0  0  0  0  0  0  0
    0.3580    1.8148   -0.8383 H   0  0  0  0  0  0  0  0  0  0  0  0
    0.1807   -0.0092    1.6399 H   0  0  0  0  0  0  0  0  0  0  0  0
    1.8099   -1.6402    0.8373 H   0  0  0  0  0  0  0  0  0  0  0  0
    2.5452   -0.4137   -0.2836 H   0  0  0  0  0  0  0  0  0  0  0  0
    0.4704   -0.2937   -1.5711 H   0  0  0  0  0  0  0  0  0  0  0  0
   -1.6605   -1.4411   -0.8742 H   0  0  0  0  0  0  0  0  0  0  0  0
   -1.1631   -1.1698    0.8764 H   0  0  0  0  0  0  0  0  0  0  0  0
  1  2  2  0
  2  3  1  0
  3  4  1  0
  4  5  1  0
  5  6  1  0
  6  7  1  0
  7  2  1  0
  6  4  1  0
  3  8  1  0
  3  9  1  0
  4 10  1  0
  5 11  1  0
  5 12  1  0
  6 13  1  0
  7 14  1  0
  7 15  1  0
M  END
