
     RDKit          3D

 17 18  0  0  0  0  0  0  0  0999 V2000
    3.8833   -0.4582   -0.6119 O   0  0  0  0  0  0  0  0  0  0  0  0
    2.6804   -0.1559   -0.5465 C   0  0  0  0  0  0  0  0  0  0  0  0
    1.8688    0.7829    0.2496 C   0  0  0  0  0  0  0  0  0  0  0  0
    0.8183   -0.2748   -0.0094 C   0  0  0  0  0  0  0  0  0  0  0  0
   -0.5825    0.2456   -0.1748 C   0  0  0  0  0  0  0  0  0  0  0  0
   -1.6020   -0.8262   -0.3646 C   0  0  0  0  0  0  0  0  0  0  0  0
   -2.3682    0.1282    0.5506 C   0  0  0  0  0  0  0  0  0  0  0  0
   -1.1372    0.4661    1.1085 O   0  0  0  0  0  0  0  0  0  0  0  0
    1.5244   -0.5506   -1.1850 O   0  0  0  0  0  0  0  0  0  0  0  0
    1.6729    1.7644   -0.2200 H   0  0  0  0  0  0  0  0  0  0  0  0
    2.1597    0.9065    1.3069 H   0  0  0  0  0  0  0  0  0  0  0  0
    0.8923   -1.0552    0.7698 H   0  0  0  0  0  0  0  0  0  0  0  0
   -0.6135    1.1038   -0.8433 H   0  0  0  0  0  0  0  0  0  0  0  0
   -2.0358   -0.9513   -1.3544 H   0  0  0  0  0  0  0  0  0  0  0  0
   -1.3366   -1.7487    0.1918 H   0  0  0  0  0  0  0  0  0  0  0  0
   -3.0891   -0.3553    1.2036 H   0  0  0  0  0  0  0  0  0  0  0  0
   -2.7352    0.9786   -0.0709 H   0  0  0  0  0  0  0  0  0  0  0  0
  1  2  2  0
  2  3  1  0
  3  4  1  0
  4  5  1  0
  5  6  1  0
  6  7  1  0
  7  8  1  0
  4  9  1  0
  9  2  1  0
  8  5  1  0
  3 10  1  0
  3 11  1  0
  4 12  1  0
  5 13  1  0
  6 14  1  0
  6 15  1  0
  7 16  1  0
  7 17  1  0
M  END
