
     RDKit          3D

 16 16  0  0  0  0  0  0  0  0999 V2000
   -1.6821    2.0422    0.2863 O   0  0  0  0  0  0  0  0  0  0  0  0
   -0.9861    1.0605    0.1694 C   0  0  0  0  0  0  0  0  0  0  0  0
   -1.5157   -0.2486    0.6469 C   0  0  0  0  0  0  0  0  0  0  0  0
   -0.8924   -1.3020   -0.2045 C   0  0  0  0  0  0  0  0  0  0  0  0
    0.3943   -1.2275   -0.5219 C   0  0  0  0  0  0  0  0  0  0  0  0
    1.1465   -0.0563    0.0145 C   0  0  0  0  0  0  0  0  0  0  0  0
    2.4558   -0.0181   -0.3685 O   0  0  0  0  0  0  0  0  0  0  0  0
    0.3532    1.1698   -0.4330 C   0  0  0  0  0  0  0  0  0  0  0  0
   -1.1668   -0.4087    1.6774 H   0  0  0  0  0  0  0  0  0  0  0  0
   -2.6160   -0.3040    0.6091 H   0  0  0  0  0  0  0  0  0  0  0  0
   -1.5179   -2.1171   -0.5489 H   0  0  0  0  0  0  0  0  0  0  0  0
    0.8784   -1.9768   -1.1391 H   0  0  0  0  0  0  0  0  0  0  0  0
    1.0285   -0.0768    1.1366 H   0  0  0  0  0  0  0  0  0  0  0  0
    2.9941    0.2519    0.4391 H   0  0  0  0  0  0  0  0  0  0  0  0
    0.2546    1.1019   -1.5480 H   0  0  0  0  0  0  0  0  0  0  0  0
    0.8716    2.1095   -0.2155 H   0  0  0  0  0  0  0  0  0  0  0  0
  1  2  2  0
  2  3  1  0
  3  4  1  0
  4  5  2  0
  5  6  1  0
  6  7  1  0
  6  8  1  0
  8  2  1  0
  3  9  1  0
  3 10  1  0
  4 11  1  0
  5 12  1  0
  6 13  1  0
  7 14  1  0
  8 15  1  0
  8 16  1  0
M  END
