
     RDKit          3D

 16 16  0  0  0  0  0  0  0  0999 V2000
   -1.7955    1.8752    0.6335 O   0  0  0  0  0  0  0  0  0  0  0  0
   -1.0908    0.9358    0.3579 C   0  0  0  0  0  0  0  0  0  0  0  0
   -1.6709   -0.4072    0.3112 C   0  0  0  0  0  0  0  0  0  0  0  0
   -0.8247   -1.4084   -0.0565 O   0  0  0  0  0  0  0  0  0  0  0  0
    0.2997   -1.0246   -0.7394 C   0  0  0  0  0  0  0  0  0  0  0  0
    1.0809   -0.0872    0.1894 C   0  0  0  0  0  0  0  0  0  0  0  0
    2.4052   -0.0033   -0.1422 O   0  0  0  0  0  0  0  0  0  0  0  0
    0.3539    1.2374    0.0808 C   0  0  0  0  0  0  0  0  0  0  0  0
   -2.5140   -0.3846   -0.4350 H   0  0  0  0  0  0  0  0  0  0  0  0
   -2.0894   -0.6524    1.3282 H   0  0  0  0  0  0  0  0  0  0  0  0
    0.9455   -1.8835   -0.9215 H   0  0  0  0  0  0  0  0  0  0  0  0
    0.0228   -0.4781   -1.6852 H   0  0  0  0  0  0  0  0  0  0  0  0
    0.9039   -0.4408    1.2460 H   0  0  0  0  0  0  0  0  0  0  0  0
    2.8396   -0.8531    0.1036 H   0  0  0  0  0  0  0  0  0  0  0  0
    0.3711    1.5672   -1.0001 H   0  0  0  0  0  0  0  0  0  0  0  0
    0.7627    2.0077    0.7294 H   0  0  0  0  0  0  0  0  0  0  0  0
  1  2  2  0
  2  3  1  0
  3  4  1  0
  4  5  1  0
  5  6  1  0
  6  7  1  0
  6  8  1  0
  8  2  1  0
  3  9  1  0
  3 10  1  0
  5 11  1  0
  5 12  1  0
  6 13  1  0
  7 14  1  0
  8 15  1  0
  8 16  1  0
M  END
