
     RDKit          3D

 17 18  0  0  0  0  0  0  0  0999 V2000
    0.0963   -2.1375    0.0144 O   0  0  0  0  0  0  0  0  0  0  0  0
   -0.4760   -1.0304    0.0767 C   0  0  0  0  0  0  0  0  0  0  0  0
   -1.9274   -0.6729    0.1686 C   0  0  0  0  0  0  0  0  0  0  0  0
   -1.9531    0.6344   -0.5822 C   0  0  0  0  0  0  0  0  0  0  0  0
   -0.6157    1.2042   -0.3026 C   0  0  0  0  0  0  0  0  0  0  0  0
    0.2207    0.2493    0.0718 C   0  0  0  0  0  0  0  0  0  0  0  0
    1.6523    0.4103    0.4372 C   0  0  0  0  0  0  0  0  0  0  0  0
    2.6590   -0.3479   -0.3960 C   0  0  0  0  0  0  0  0  0  0  0  0
    2.2987   -0.6686    1.0107 O   0  0  0  0  0  0  0  0  0  0  0  0
   -2.1630   -0.4307    1.2405 H   0  0  0  0  0  0  0  0  0  0  0  0
   -2.5827   -1.4399   -0.2482 H   0  0  0  0  0  0  0  0  0  0  0  0
   -2.0576    0.3789   -1.6617 H   0  0  0  0  0  0  0  0  0  0  0  0
   -2.7757    1.3019   -0.2480 H   0  0  0  0  0  0  0  0  0  0  0  0
   -0.4122    2.2707   -0.4092 H   0  0  0  0  0  0  0  0  0  0  0  0
    1.9962    1.4194    0.7605 H   0  0  0  0  0  0  0  0  0  0  0  0
    2.3444   -1.1749   -1.0356 H   0  0  0  0  0  0  0  0  0  0  0  0
    3.6957    0.0337   -0.4132 H   0  0  0  0  0  0  0  0  0  0  0  0
  1  2  2  0
  2  3  1  0
  3  4  1  0
  4  5  1  0
  5  6  2  0
  6  7  1  0
  7  8  1  0
  8  9  1  0
  6  2  1  0
  9  7  1  0
  3 10  1  0
  3 11  1  0
  4 12  1  0
  4 13  1  0
  5 14  1  0
  7 15  1  0
  8 16  1  0
  8 17  1  0
M  END
