
     RDKit          3D

 16 17  0  0  0  0  0  0  0  0999 V2000
   -1.8364   -1.9108   -0.0077 O   0  0  0  0  0  0  0  0  0  0  0  0
   -1.0650   -0.9903    0.0138 C   0  0  0  0  0  0  0  0  0  0  0  0
   -1.2974    0.3619   -0.5527 C   0  0  0  0  0  0  0  0  0  0  0  0
   -0.0194    1.0796   -0.1892 C   0  0  0  0  0  0  0  0  0  0  0  0
    1.0709    0.4272   -0.9625 C   0  0  0  0  0  0  0  0  0  0  0  0
    1.3436   -0.7491   -0.4210 C   0  0  0  0  0  0  0  0  0  0  0  0
    0.2827   -0.9840    0.6021 C   0  0  0  0  0  0  0  0  0  0  0  0
    0.2547    0.4493    1.1895 C   0  0  0  0  0  0  0  0  0  0  0  0
   -1.3861    0.3408   -1.6587 H   0  0  0  0  0  0  0  0  0  0  0  0
   -2.1788    0.8695   -0.1280 H   0  0  0  0  0  0  0  0  0  0  0  0
   -0.0429    2.1402   -0.1920 H   0  0  0  0  0  0  0  0  0  0  0  0
    1.5477    0.8636   -1.8241 H   0  0  0  0  0  0  0  0  0  0  0  0
    2.1392   -1.4411   -0.6235 H   0  0  0  0  0  0  0  0  0  0  0  0
    0.5034   -1.7309    1.3334 H   0  0  0  0  0  0  0  0  0  0  0  0
   -0.5672    0.5868    1.8785 H   0  0  0  0  0  0  0  0  0  0  0  0
    1.2511    0.6872    1.5419 H   0  0  0  0  0  0  0  0  0  0  0  0
  1  2  2  0
  2  3  1  0
  3  4  1  0
  4  5  1  0
  5  6  2  0
  6  7  1  0
  7  8  1  0
  7  2  1  0
  8  4  1  0
  3  9  1  0
  3 10  1  0
  4 11  1  0
  5 12  1  0
  6 13  1  0
  7 14  1  0
  8 15  1  0
  8 16  1  0
M  END
