
     RDKit          3D

 15 17  0  0  0  0  0  0  0  0999 V2000
    3.7365   -0.2394   -0.0962 O   0  0  0  0  0  0  0  0  0  0  0  0
    2.5569   -0.0595    0.2484 C   0  0  0  0  0  0  0  0  0  0  0  0
    1.9368    0.8871    1.0396 O   0  0  0  0  0  0  0  0  0  0  0  0
    0.6660    0.2869    0.8884 C   0  0  0  0  0  0  0  0  0  0  0  0
    1.2709   -0.7351   -0.0002 C   0  0  0  0  0  0  0  0  0  0  0  0
    0.1764    0.1157   -0.5022 C   0  0  0  0  0  0  0  0  0  0  0  0
   -1.2096   -0.3723   -0.7157 C   0  0  0  0  0  0  0  0  0  0  0  0
   -2.2786    0.5372   -0.1094 C   0  0  0  0  0  0  0  0  0  0  0  0
   -2.0301   -0.7762    0.2938 O   0  0  0  0  0  0  0  0  0  0  0  0
    0.1074   -0.0488    1.7639 H   0  0  0  0  0  0  0  0  0  0  0  0
    1.1682   -1.8147    0.1804 H   0  0  0  0  0  0  0  0  0  0  0  0
    0.4938    0.9325   -1.2029 H   0  0  0  0  0  0  0  0  0  0  0  0
   -1.4581   -0.7485   -1.7427 H   0  0  0  0  0  0  0  0  0  0  0  0
   -1.9528    1.2785    0.6623 H   0  0  0  0  0  0  0  0  0  0  0  0
   -3.1837    0.7565   -0.7076 H   0  0  0  0  0  0  0  0  0  0  0  0
  1  2  2  0
  2  3  1  0
  3  4  1  0
  4  5  1  0
  5  6  1  0
  6  7  1  0
  7  8  1  0
  8  9  1  0
  5  2  1  0
  9  7  1  0
  6  4  1  0
  4 10  1  0
  5 11  1  0
  6 12  1  0
  7 13  1  0
  8 14  1  0
  8 15  1  0
M  END
