
     RDKit          3D

 17 18  0  0  0  0  0  0  0  0999 V2000
    3.0171    0.0333   -1.2460 O   0  0  0  0  0  0  0  0  0  0  0  0
    2.0861    0.2218   -0.4402 C   0  0  0  0  0  0  0  0  0  0  0  0
    0.8639    0.9950   -0.7048 C   0  0  0  0  0  0  0  0  0  0  0  0
   -0.1641    0.2594    0.1242 C   0  0  0  0  0  0  0  0  0  0  0  0
   -0.8534   -0.8744   -0.5631 C   0  0  0  0  0  0  0  0  0  0  0  0
   -2.0591   -0.2260    0.0443 C   0  0  0  0  0  0  0  0  0  0  0  0
   -1.3236    0.9268    0.4001 O   0  0  0  0  0  0  0  0  0  0  0  0
    0.6719   -0.1451    1.3333 C   0  0  0  0  0  0  0  0  0  0  0  0
    2.0073   -0.2486    0.8515 O   0  0  0  0  0  0  0  0  0  0  0  0
    1.0145    2.0081   -0.2511 H   0  0  0  0  0  0  0  0  0  0  0  0
    0.6047    1.0858   -1.7580 H   0  0  0  0  0  0  0  0  0  0  0  0
   -0.8225   -0.8706   -1.6679 H   0  0  0  0  0  0  0  0  0  0  0  0
   -0.6387   -1.8545   -0.1031 H   0  0  0  0  0  0  0  0  0  0  0  0
   -2.8125   -0.0049   -0.7206 H   0  0  0  0  0  0  0  0  0  0  0  0
   -2.4899   -0.7675    0.9163 H   0  0  0  0  0  0  0  0  0  0  0  0
    0.5567    0.6223    2.1106 H   0  0  0  0  0  0  0  0  0  0  0  0
    0.3414   -1.1609    1.6744 H   0  0  0  0  0  0  0  0  0  0  0  0
  1  2  2  0
  2  3  1  0
  3  4  1  0
  4  5  1  0
  5  6  1  0
  6  7  1  0
  4  8  1  0
  8  9  1  0
  9  2  1  0
  7  4  1  0
  3 10  1  0
  3 11  1  0
  5 12  1  0
  5 13  1  0
  6 14  1  0
  6 15  1  0
  8 16  1  0
  8 17  1  0
M  END
