
     RDKit          3D

 17 17  0  0  0  0  0  0  0  0999 V2000
    2.8024    0.4661    0.5954 O   0  0  0  0  0  0  0  0  0  0  0  0
    1.6464    0.2792    0.1375 C   0  0  0  0  0  0  0  0  0  0  0  0
    0.7161    1.4283    0.1778 C   0  0  0  0  0  0  0  0  0  0  0  0
   -0.6428    1.0360   -0.3285 C   0  0  0  0  0  0  0  0  0  0  0  0
   -1.2530   -0.0969    0.4250 C   0  0  0  0  0  0  0  0  0  0  0  0
   -1.0091   -1.4431   -0.1545 C   0  0  0  0  0  0  0  0  0  0  0  0
    0.2382   -1.6322   -0.7396 O   0  0  0  0  0  0  0  0  0  0  0  0
    1.4511   -1.0793   -0.3572 C   0  0  0  0  0  0  0  0  0  0  0  0
    2.4845   -1.8280   -0.4477 O   0  0  0  0  0  0  0  0  0  0  0  0
    1.1198    2.2068   -0.5168 H   0  0  0  0  0  0  0  0  0  0  0  0
    0.6148    1.8654    1.1914 H   0  0  0  0  0  0  0  0  0  0  0  0
   -0.6125    0.7821   -1.4078 H   0  0  0  0  0  0  0  0  0  0  0  0
   -1.3036    1.9387   -0.2394 H   0  0  0  0  0  0  0  0  0  0  0  0
   -2.3672    0.0685    0.4343 H   0  0  0  0  0  0  0  0  0  0  0  0
   -0.9644   -0.0418    1.5120 H   0  0  0  0  0  0  0  0  0  0  0  0
   -1.1390   -2.2249    0.6466 H   0  0  0  0  0  0  0  0  0  0  0  0
   -1.7818   -1.7249   -0.9285 H   0  0  0  0  0  0  0  0  0  0  0  0
  1  2  2  0
  2  3  1  0
  3  4  1  0
  4  5  1  0
  5  6  1  0
  6  7  1  0
  7  8  1  0
  8  9  2  0
  8  2  1  0
  3 10  1  0
  3 11  1  0
  4 12  1  0
  4 13  1  0
  5 14  1  0
  5 15  1  0
  6 16  1  0
  6 17  1  0
M  END
