
     RDKit          3D

 15 15  0  0  0  0  0  0  0  0999 V2000
    1.4153   -1.7119   -0.9881 O   0  0  0  0  0  0  0  0  0  0  0  0
    1.0342   -0.7822   -0.3015 C   0  0  0  0  0  0  0  0  0  0  0  0
    1.7069    0.5460   -0.2608 C   0  0  0  0  0  0  0  0  0  0  0  0
    0.7432    1.5058   -0.6588 O   0  0  0  0  0  0  0  0  0  0  0  0
   -0.5388    1.4057   -0.1515 C   0  0  0  0  0  0  0  0  0  0  0  0
   -1.2133    2.4813    0.0090 O   0  0  0  0  0  0  0  0  0  0  0  0
   -1.1920    0.1345    0.2219 C   0  0  0  0  0  0  0  0  0  0  0  0
   -2.0110   -0.2912   -0.8419 O   0  0  0  0  0  0  0  0  0  0  0  0
   -0.1655   -0.9230    0.5658 C   0  0  0  0  0  0  0  0  0  0  0  0
    1.9888    0.7264    0.8169 H   0  0  0  0  0  0  0  0  0  0  0  0
    2.6124    0.5679   -0.8917 H   0  0  0  0  0  0  0  0  0  0  0  0
   -1.8364    0.2402    1.1399 H   0  0  0  0  0  0  0  0  0  0  0  0
   -2.1379   -1.2581   -0.8397 H   0  0  0  0  0  0  0  0  0  0  0  0
   -0.5806   -1.9334    0.5618 H   0  0  0  0  0  0  0  0  0  0  0  0
    0.1746   -0.7080    1.6187 H   0  0  0  0  0  0  0  0  0  0  0  0
  1  2  2  0
  2  3  1  0
  3  4  1  0
  4  5  1  0
  5  6  2  0
  5  7  1  0
  7  8  1  0
  7  9  1  0
  9  2  1  0
  3 10  1  0
  3 11  1  0
  7 12  1  0
  8 13  1  0
  9 14  1  0
  9 15  1  0
M  END
