
     RDKit          3D

 16 17  0  0  0  0  0  0  0  0999 V2000
   -2.1696    1.4379   -0.6544 O   0  0  0  0  0  0  0  0  0  0  0  0
   -1.3468    0.6995   -0.1690 C   0  0  0  0  0  0  0  0  0  0  0  0
   -1.2997   -0.8096   -0.2327 C   0  0  0  0  0  0  0  0  0  0  0  0
    0.0124   -1.0729    0.4653 C   0  0  0  0  0  0  0  0  0  0  0  0
    1.1967   -0.6033   -0.3421 C   0  0  0  0  0  0  0  0  0  0  0  0
    1.0679    0.9127   -0.2493 C   0  0  0  0  0  0  0  0  0  0  0  0
   -0.1408    1.0555    0.6322 C   0  0  0  0  0  0  0  0  0  0  0  0
   -0.0228   -0.0763    1.4572 O   0  0  0  0  0  0  0  0  0  0  0  0
   -2.1037   -1.1725    0.4176 H   0  0  0  0  0  0  0  0  0  0  0  0
   -1.3338   -1.1351   -1.2664 H   0  0  0  0  0  0  0  0  0  0  0  0
    0.1123   -2.0691    0.8801 H   0  0  0  0  0  0  0  0  0  0  0  0
    2.1073   -0.9101    0.2223 H   0  0  0  0  0  0  0  0  0  0  0  0
    1.2225   -0.9658   -1.3630 H   0  0  0  0  0  0  0  0  0  0  0  0
    0.9492    1.3804   -1.2368 H   0  0  0  0  0  0  0  0  0  0  0  0
    1.9664    1.3432    0.2688 H   0  0  0  0  0  0  0  0  0  0  0  0
   -0.2175    1.9856    1.1702 H   0  0  0  0  0  0  0  0  0  0  0  0
  1  2  2  0
  2  3  1  0
  3  4  1  0
  4  5  1  0
  5  6  1  0
  6  7  1  0
  7  8  1  0
  7  2  1  0
  8  4  1  0
  3  9  1  0
  3 10  1  0
  4 11  1  0
  5 12  1  0
  5 13  1  0
  6 14  1  0
  6 15  1  0
  7 16  1  0
M  END
