
     RDKit          3D

 15 17  0  0  0  0  0  0  0  0999 V2000
    0.4094    1.1992    2.4100 O   0  0  0  0  0  0  0  0  0  0  0  0
    0.5239    0.5715    1.3376 C   0  0  0  0  0  0  0  0  0  0  0  0
    1.6370   -0.1614    0.9759 O   0  0  0  0  0  0  0  0  0  0  0  0
    1.4464   -0.7763   -0.2832 C   0  0  0  0  0  0  0  0  0  0  0  0
    0.1028   -0.3964   -0.8083 C   0  0  0  0  0  0  0  0  0  0  0  0
   -0.1720    1.0344   -1.0710 C   0  0  0  0  0  0  0  0  0  0  0  0
   -0.4680    0.4864    0.2762 C   0  0  0  0  0  0  0  0  0  0  0  0
   -1.6168   -0.4789    0.3412 C   0  0  0  0  0  0  0  0  0  0  0  0
   -0.9473   -1.2823   -0.5716 O   0  0  0  0  0  0  0  0  0  0  0  0
    2.2935   -0.4528   -0.9403 H   0  0  0  0  0  0  0  0  0  0  0  0
    1.5161   -1.8723   -0.1193 H   0  0  0  0  0  0  0  0  0  0  0  0
   -1.0592    1.3397   -1.6569 H   0  0  0  0  0  0  0  0  0  0  0  0
    0.7113    1.6870   -1.1335 H   0  0  0  0  0  0  0  0  0  0  0  0
   -1.8401   -0.9174    1.3127 H   0  0  0  0  0  0  0  0  0  0  0  0
   -2.5371    0.0197   -0.0696 H   0  0  0  0  0  0  0  0  0  0  0  0
  1  2  2  0
  2  3  1  0
  3  4  1  0
  4  5  1  0
  5  6  1  0
  6  7  1  0
  7  8  1  0
  8  9  1  0
  7  2  1  0
  7  5  1  0
  9  5  1  0
  4 10  1  0
  4 11  1  0
  6 12  1  0
  6 13  1  0
  8 14  1  0
  8 15  1  0
M  END
