
     RDKit          3D

 14 14  0  0  0  0  0  0  0  0999 V2000
    1.5174    1.7543   -0.4330 O   0  0  0  0  0  0  0  0  0  0  0  0
    0.6723    0.9445   -0.1291 C   0  0  0  0  0  0  0  0  0  0  0  0
   -0.7807    1.1485    0.0752 C   0  0  0  0  0  0  0  0  0  0  0  0
   -1.4044   -0.2285    0.1042 C   0  0  0  0  0  0  0  0  0  0  0  0
   -0.3256   -1.0903   -0.4554 C   0  0  0  0  0  0  0  0  0  0  0  0
   -0.3922   -2.0487   -1.1949 O   0  0  0  0  0  0  0  0  0  0  0  0
    0.9240   -0.4958    0.1154 C   0  0  0  0  0  0  0  0  0  0  0  0
    2.0634   -0.9622   -0.5099 O   0  0  0  0  0  0  0  0  0  0  0  0
   -1.2210    1.7996   -0.6935 H   0  0  0  0  0  0  0  0  0  0  0  0
   -0.8851    1.6288    1.0907 H   0  0  0  0  0  0  0  0  0  0  0  0
   -1.5402   -0.5270    1.1584 H   0  0  0  0  0  0  0  0  0  0  0  0
   -2.3383   -0.2802   -0.4854 H   0  0  0  0  0  0  0  0  0  0  0  0
    0.9054   -0.7236    1.2054 H   0  0  0  0  0  0  0  0  0  0  0  0
    2.8049   -0.9193    0.1520 H   0  0  0  0  0  0  0  0  0  0  0  0
  1  2  2  0
  2  3  1  0
  3  4  1  0
  4  5  1  0
  5  6  2  0
  5  7  1  0
  7  8  1  0
  7  2  1  0
  3  9  1  0
  3 10  1  0
  4 11  1  0
  4 12  1  0
  7 13  1  0
  8 14  1  0
M  END
