
     RDKit          3D

 17 19  0  0  0  0  0  0  0  0999 V2000
   -1.5137   -2.0049    1.0679 O   0  0  0  0  0  0  0  0  0  0  0  0
   -1.1042   -1.0296    0.5120 C   0  0  0  0  0  0  0  0  0  0  0  0
   -0.8095   -0.4986   -0.8582 C   0  0  0  0  0  0  0  0  0  0  0  0
   -1.3314    0.8300   -0.2973 C   0  0  0  0  0  0  0  0  0  0  0  0
   -0.6182    0.3228    0.9554 C   0  0  0  0  0  0  0  0  0  0  0  0
    0.8248    0.2565    0.6022 C   0  0  0  0  0  0  0  0  0  0  0  0
    1.6266   -0.4201    1.5014 O   0  0  0  0  0  0  0  0  0  0  0  0
    1.4077    0.8561   -0.5987 C   0  0  0  0  0  0  0  0  0  0  0  0
    0.6825   -0.4002   -0.8198 C   0  0  0  0  0  0  0  0  0  0  0  0
   -1.3124   -0.9193   -1.6868 H   0  0  0  0  0  0  0  0  0  0  0  0
   -0.9288    1.7281   -0.7511 H   0  0  0  0  0  0  0  0  0  0  0  0
   -2.4202    0.7793   -0.2287 H   0  0  0  0  0  0  0  0  0  0  0  0
   -0.9469    0.6858    1.8995 H   0  0  0  0  0  0  0  0  0  0  0  0
    1.6239   -1.3867    1.3435 H   0  0  0  0  0  0  0  0  0  0  0  0
    1.0838    1.8173   -1.0361 H   0  0  0  0  0  0  0  0  0  0  0  0
    2.5310    0.7496   -0.6683 H   0  0  0  0  0  0  0  0  0  0  0  0
    1.2051   -1.3664   -0.9371 H   0  0  0  0  0  0  0  0  0  0  0  0
  1  2  2  0
  2  3  1  0
  3  4  1  0
  4  5  1  0
  5  6  1  0
  6  7  1  0
  6  8  1  0
  8  9  1  0
  5  2  1  0
  9  6  1  0
  9  3  1  0
  3 10  1  0
  4 11  1  0
  4 12  1  0
  5 13  1  0
  7 14  1  0
  8 15  1  0
  8 16  1  0
  9 17  1  0
M  END
