
     RDKit          3D

 17 17  0  0  0  0  0  0  0  0999 V2000
   -1.5229    2.2791    1.5399 O   0  0  0  0  0  0  0  0  0  0  0  0
   -1.1610    1.1995    1.0006 C   0  0  0  0  0  0  0  0  0  0  0  0
   -2.1239    0.1949    0.4687 C   0  0  0  0  0  0  0  0  0  0  0  0
   -1.7143   -0.1439   -0.7867 O   0  0  0  0  0  0  0  0  0  0  0  0
   -0.4910   -0.7266   -0.8918 C   0  0  0  0  0  0  0  0  0  0  0  0
    0.5308   -0.3125    0.1105 C   0  0  0  0  0  0  0  0  0  0  0  0
    1.8402    0.0336   -0.5894 C   0  0  0  0  0  0  0  0  0  0  0  0
    2.8299    0.3497    0.3334 O   0  0  0  0  0  0  0  0  0  0  0  0
    0.1728    0.8351    0.8466 O   0  0  0  0  0  0  0  0  0  0  0  0
   -3.1033    0.7157    0.3866 H   0  0  0  0  0  0  0  0  0  0  0  0
   -2.1617   -0.6320    1.1966 H   0  0  0  0  0  0  0  0  0  0  0  0
   -0.6461   -1.8424   -0.9040 H   0  0  0  0  0  0  0  0  0  0  0  0
   -0.1022   -0.5014   -1.9296 H   0  0  0  0  0  0  0  0  0  0  0  0
    0.7727   -1.1824    0.7676 H   0  0  0  0  0  0  0  0  0  0  0  0
    1.6420    0.9483   -1.2057 H   0  0  0  0  0  0  0  0  0  0  0  0
    2.1790   -0.8095   -1.2453 H   0  0  0  0  0  0  0  0  0  0  0  0
    3.0590   -0.4053    0.9023 H   0  0  0  0  0  0  0  0  0  0  0  0
  1  2  2  0
  2  3  1  0
  3  4  1  0
  4  5  1  0
  5  6  1  0
  6  7  1  0
  7  8  1  0
  6  9  1  0
  9  2  1  0
  3 10  1  0
  3 11  1  0
  5 12  1  0
  5 13  1  0
  6 14  1  0
  7 15  1  0
  7 16  1  0
  8 17  1  0
M  END
