
     RDKit          3D

 13 13  0  0  0  0  0  0  0  0999 V2000
   -0.4747    2.7675    0.4216 O   0  0  0  0  0  0  0  0  0  0  0  0
   -0.1759    1.5722    0.1550 C   0  0  0  0  0  0  0  0  0  0  0  0
   -1.3018    0.7211   -0.2334 C   0  0  0  0  0  0  0  0  0  0  0  0
   -1.3272   -0.6122   -0.1737 C   0  0  0  0  0  0  0  0  0  0  0  0
   -0.2777   -1.5237    0.2774 C   0  0  0  0  0  0  0  0  0  0  0  0
   -0.5608   -2.7483    0.3775 O   0  0  0  0  0  0  0  0  0  0  0  0
    1.0229   -1.1316    0.6067 O   0  0  0  0  0  0  0  0  0  0  0  0
    1.7591   -0.0727    0.0203 C   0  0  0  0  0  0  0  0  0  0  0  0
    1.1634    1.1881    0.2539 O   0  0  0  0  0  0  0  0  0  0  0  0
   -2.2003    1.2137   -0.6045 H   0  0  0  0  0  0  0  0  0  0  0  0
   -2.2484   -1.1008   -0.5022 H   0  0  0  0  0  0  0  0  0  0  0  0
    1.8655   -0.2129   -1.0936 H   0  0  0  0  0  0  0  0  0  0  0  0
    2.7559   -0.0603    0.4951 H   0  0  0  0  0  0  0  0  0  0  0  0
  1  2  2  0
  2  3  1  0
  3  4  2  0
  4  5  1  0
  5  6  2  0
  5  7  1  0
  7  8  1  0
  8  9  1  0
  9  2  1  0
  3 10  1  0
  4 11  1  0
  8 12  1  0
  8 13  1  0
M  END
