
     RDKit          3D

 17 18  0  0  0  0  0  0  0  0999 V2000
    1.6525    1.9807   -0.3797 O   0  0  0  0  0  0  0  0  0  0  0  0
    1.2013    0.9222   -0.0288 C   0  0  0  0  0  0  0  0  0  0  0  0
    2.0285   -0.3424    0.1377 C   0  0  0  0  0  0  0  0  0  0  0  0
    1.0118   -1.3831   -0.2391 C   0  0  0  0  0  0  0  0  0  0  0  0
   -0.2219   -0.9305   -0.1801 C   0  0  0  0  0  0  0  0  0  0  0  0
   -1.6990   -0.6818   -0.1986 C   0  0  0  0  0  0  0  0  0  0  0  0
   -1.2887    0.7554   -0.6285 C   0  0  0  0  0  0  0  0  0  0  0  0
   -0.1516    0.5184    0.3235 C   0  0  0  0  0  0  0  0  0  0  0  0
   -0.5119    0.6232    1.6649 O   0  0  0  0  0  0  0  0  0  0  0  0
    2.7675   -0.3219   -0.6626 H   0  0  0  0  0  0  0  0  0  0  0  0
    2.4035   -0.4539    1.1503 H   0  0  0  0  0  0  0  0  0  0  0  0
    1.2956   -2.3864   -0.5231 H   0  0  0  0  0  0  0  0  0  0  0  0
   -2.2589   -1.2137   -0.9644 H   0  0  0  0  0  0  0  0  0  0  0  0
   -2.0931   -0.7058    0.8131 H   0  0  0  0  0  0  0  0  0  0  0  0
   -0.9170    0.7575   -1.6694 H   0  0  0  0  0  0  0  0  0  0  0  0
   -2.0258    1.5122   -0.3527 H   0  0  0  0  0  0  0  0  0  0  0  0
   -1.1926    1.3501    1.7375 H   0  0  0  0  0  0  0  0  0  0  0  0
  1  2  2  0
  2  3  1  0
  3  4  1  0
  4  5  2  0
  5  6  1  0
  6  7  1  0
  7  8  1  0
  8  9  1  0
  8  2  1  0
  8  5  1  0
  3 10  1  0
  3 11  1  0
  4 12  1  0
  6 13  1  0
  6 14  1  0
  7 15  1  0
  7 16  1  0
  9 17  1  0
M  END
