
     RDKit          3D

 19 20  0  0  0  0  0  0  0  0999 V2000
    1.4601   -0.8033    2.1772 O   0  0  0  0  0  0  0  0  0  0  0  0
    0.9323   -0.6331    1.1053 C   0  0  0  0  0  0  0  0  0  0  0  0
    1.2548    0.3612    0.0197 C   0  0  0  0  0  0  0  0  0  0  0  0
    0.1942    1.4284    0.1389 C   0  0  0  0  0  0  0  0  0  0  0  0
   -1.1272    0.8370   -0.3561 C   0  0  0  0  0  0  0  0  0  0  0  0
   -1.4321   -0.4275    0.3750 C   0  0  0  0  0  0  0  0  0  0  0  0
   -0.2329   -1.3557    0.4793 C   0  0  0  0  0  0  0  0  0  0  0  0
    0.2317   -1.5751   -0.7922 O   0  0  0  0  0  0  0  0  0  0  0  0
    0.9973   -0.5212   -1.1988 C   0  0  0  0  0  0  0  0  0  0  0  0
    2.2754    0.7274    0.0790 H   0  0  0  0  0  0  0  0  0  0  0  0
    0.0347    1.6275    1.2263 H   0  0  0  0  0  0  0  0  0  0  0  0
    0.4383    2.3639   -0.3559 H   0  0  0  0  0  0  0  0  0  0  0  0
   -1.1674    0.7551   -1.4449 H   0  0  0  0  0  0  0  0  0  0  0  0
   -1.9055    1.5918   -0.0390 H   0  0  0  0  0  0  0  0  0  0  0  0
   -2.1932   -0.9944   -0.2270 H   0  0  0  0  0  0  0  0  0  0  0  0
   -1.8981   -0.2293    1.3438 H   0  0  0  0  0  0  0  0  0  0  0  0
   -0.5090   -2.2578    1.0122 H   0  0  0  0  0  0  0  0  0  0  0  0
    2.0080   -0.9306   -1.4805 H   0  0  0  0  0  0  0  0  0  0  0  0
    0.6387    0.0357   -2.0622 H   0  0  0  0  0  0  0  0  0  0  0  0
  1  2  2  0
  2  3  1  0
  3  4  1  0
  4  5  1  0
  5  6  1  0
  6  7  1  0
  7  8  1  0
  8  9  1  0
  7  2  1  0
  9  3  1  0
  3 10  1  0
  4 11  1  0
  4 12  1  0
  5 13  1  0
  5 14  1  0
  6 15  1  0
  6 16  1  0
  7 17  1  0
  9 18  1  0
  9 19  1  0
M  END
