
     RDKit          3D

 19 19  0  0  0  0  0  0  0  0999 V2000
   -2.0101    1.8440   -1.7675 O   0  0  0  0  0  0  0  0  0  0  0  0
   -1.7900    0.8460   -1.1496 C   0  0  0  0  0  0  0  0  0  0  0  0
   -2.5566   -0.3429   -0.7389 C   0  0  0  0  0  0  0  0  0  0  0  0
   -1.6627   -0.3442    0.5097 C   0  0  0  0  0  0  0  0  0  0  0  0
   -0.6305    0.2553   -0.4581 C   0  0  0  0  0  0  0  0  0  0  0  0
    0.2702    1.1073    0.1125 O   0  0  0  0  0  0  0  0  0  0  0  0
    1.5872    0.7588   -0.0387 C   0  0  0  0  0  0  0  0  0  0  0  0
    1.9509   -0.5737    0.5449 C   0  0  0  0  0  0  0  0  0  0  0  0
    3.3128   -0.7854    0.3134 O   0  0  0  0  0  0  0  0  0  0  0  0
   -2.2948   -1.2504   -1.3319 H   0  0  0  0  0  0  0  0  0  0  0  0
   -3.6184   -0.2211   -0.5376 H   0  0  0  0  0  0  0  0  0  0  0  0
   -1.9369    0.4262    1.2369 H   0  0  0  0  0  0  0  0  0  0  0  0
   -1.4372   -1.3464    0.8615 H   0  0  0  0  0  0  0  0  0  0  0  0
   -0.1706   -0.6300   -0.9832 H   0  0  0  0  0  0  0  0  0  0  0  0
    2.2091    1.5252    0.4765 H   0  0  0  0  0  0  0  0  0  0  0  0
    1.9047    0.7182   -1.1213 H   0  0  0  0  0  0  0  0  0  0  0  0
    1.6932   -0.6714    1.6145 H   0  0  0  0  0  0  0  0  0  0  0  0
    1.4260   -1.4124    0.0161 H   0  0  0  0  0  0  0  0  0  0  0  0
    3.7538    0.0969    0.2469 H   0  0  0  0  0  0  0  0  0  0  0  0
  1  2  2  0
  2  3  1  0
  3  4  1  0
  4  5  1  0
  5  6  1  0
  6  7  1  0
  7  8  1  0
  8  9  1  0
  5  2  1  0
  3 10  1  0
  3 11  1  0
  4 12  1  0
  4 13  1  0
  5 14  1  0
  7 15  1  0
  7 16  1  0
  8 17  1  0
  8 18  1  0
  9 19  1  0
M  END
