
     RDKit          3D

 17 18  0  0  0  0  0  0  0  0999 V2000
   -1.1036   -1.9127    0.9597 O   0  0  0  0  0  0  0  0  0  0  0  0
   -1.0766   -0.8988    0.3366 C   0  0  0  0  0  0  0  0  0  0  0  0
   -2.0193    0.2239    0.4316 C   0  0  0  0  0  0  0  0  0  0  0  0
   -1.2870    1.3439    0.1517 O   0  0  0  0  0  0  0  0  0  0  0  0
   -0.0966    1.0207   -0.4279 C   0  0  0  0  0  0  0  0  0  0  0  0
    1.0594    1.1709    0.4957 C   0  0  0  0  0  0  0  0  0  0  0  0
    1.8161    0.0932    0.4985 C   0  0  0  0  0  0  0  0  0  0  0  0
    1.2968   -0.9436   -0.4122 C   0  0  0  0  0  0  0  0  0  0  0  0
   -0.1074   -0.4915   -0.6874 C   0  0  0  0  0  0  0  0  0  0  0  0
   -2.7527    0.0979   -0.4188 H   0  0  0  0  0  0  0  0  0  0  0  0
   -2.5548    0.2714    1.3997 H   0  0  0  0  0  0  0  0  0  0  0  0
    0.0770    1.5240   -1.4004 H   0  0  0  0  0  0  0  0  0  0  0  0
    1.2436    2.0587    1.0846 H   0  0  0  0  0  0  0  0  0  0  0  0
    2.7093   -0.0249    1.0922 H   0  0  0  0  0  0  0  0  0  0  0  0
    1.8624   -0.8636   -1.3631 H   0  0  0  0  0  0  0  0  0  0  0  0
    1.3659   -1.9694   -0.0176 H   0  0  0  0  0  0  0  0  0  0  0  0
   -0.4325   -0.7003   -1.7229 H   0  0  0  0  0  0  0  0  0  0  0  0
  1  2  2  0
  2  3  1  0
  3  4  1  0
  4  5  1  0
  5  6  1  0
  6  7  2  0
  7  8  1  0
  8  9  1  0
  9  2  1  0
  9  5  1  0
  3 10  1  0
  3 11  1  0
  5 12  1  0
  6 13  1  0
  7 14  1  0
  8 15  1  0
  8 16  1  0
  9 17  1  0
M  END
