
     RDKit          3D

 17 18  0  0  0  0  0  0  0  0999 V2000
   -2.4442   -0.2286    2.0855 O   0  0  0  0  0  0  0  0  0  0  0  0
   -1.6449   -0.3826    1.1262 C   0  0  0  0  0  0  0  0  0  0  0  0
   -1.8065    0.0945   -0.2685 C   0  0  0  0  0  0  0  0  0  0  0  0
   -0.3906    0.5579   -0.5890 C   0  0  0  0  0  0  0  0  0  0  0  0
   -0.2405    1.8770   -0.2439 O   0  0  0  0  0  0  0  0  0  0  0  0
    0.4426   -0.3814    0.2376 C   0  0  0  0  0  0  0  0  0  0  0  0
    1.8268   -0.0152    0.5778 C   0  0  0  0  0  0  0  0  0  0  0  0
    1.6001   -1.1049   -0.3783 C   0  0  0  0  0  0  0  0  0  0  0  0
   -0.4022   -1.0420    1.1314 O   0  0  0  0  0  0  0  0  0  0  0  0
   -2.0868   -0.7222   -0.9684 H   0  0  0  0  0  0  0  0  0  0  0  0
   -2.5254    0.9568   -0.3326 H   0  0  0  0  0  0  0  0  0  0  0  0
   -0.2130    0.4164   -1.6629 H   0  0  0  0  0  0  0  0  0  0  0  0
    0.0011    2.4451   -1.0214 H   0  0  0  0  0  0  0  0  0  0  0  0
    2.2507    0.9518    0.2258 H   0  0  0  0  0  0  0  0  0  0  0  0
    2.1874   -0.2969    1.5956 H   0  0  0  0  0  0  0  0  0  0  0  0
    1.7759   -2.1578   -0.0390 H   0  0  0  0  0  0  0  0  0  0  0  0
    1.6695   -0.9679   -1.4759 H   0  0  0  0  0  0  0  0  0  0  0  0
  1  2  2  0
  2  3  1  0
  3  4  1  0
  4  5  1  0
  4  6  1  0
  6  7  1  0
  7  8  1  0
  6  9  1  0
  9  2  1  0
  8  6  1  0
  3 10  1  0
  3 11  1  0
  4 12  1  0
  5 13  1  0
  7 14  1  0
  7 15  1  0
  8 16  1  0
  8 17  1  0
M  END
