
     RDKit          3D

 19 20  0  0  0  0  0  0  0  0999 V2000
    1.2832   -1.8960    1.5980 O   0  0  0  0  0  0  0  0  0  0  0  0
    0.7436   -1.2065    0.7718 C   0  0  0  0  0  0  0  0  0  0  0  0
    1.5830   -0.1777    0.0494 C   0  0  0  0  0  0  0  0  0  0  0  0
    0.6803    1.0522   -0.0612 C   0  0  0  0  0  0  0  0  0  0  0  0
    1.2137    2.0211   -0.8816 O   0  0  0  0  0  0  0  0  0  0  0  0
   -0.7119    0.6416   -0.4341 C   0  0  0  0  0  0  0  0  0  0  0  0
   -1.4117    0.0118    0.7792 C   0  0  0  0  0  0  0  0  0  0  0  0
   -0.6792   -1.2675    0.3886 C   0  0  0  0  0  0  0  0  0  0  0  0
   -0.7782   -0.7386   -1.0505 C   0  0  0  0  0  0  0  0  0  0  0  0
    1.8704   -0.5269   -0.9517 H   0  0  0  0  0  0  0  0  0  0  0  0
    2.5058    0.0533    0.5974 H   0  0  0  0  0  0  0  0  0  0  0  0
    0.6853    1.4886    0.9817 H   0  0  0  0  0  0  0  0  0  0  0  0
    0.9309    2.9368   -0.5850 H   0  0  0  0  0  0  0  0  0  0  0  0
   -1.3023    1.4210   -0.9314 H   0  0  0  0  0  0  0  0  0  0  0  0
   -1.1354    0.4331    1.7420 H   0  0  0  0  0  0  0  0  0  0  0  0
   -2.4946   -0.1223    0.5769 H   0  0  0  0  0  0  0  0  0  0  0  0
   -1.2137   -2.1950    0.5586 H   0  0  0  0  0  0  0  0  0  0  0  0
    0.0389   -1.0248   -1.7049 H   0  0  0  0  0  0  0  0  0  0  0  0
   -1.8079   -0.9044   -1.4431 H   0  0  0  0  0  0  0  0  0  0  0  0
  1  2  2  0
  2  3  1  0
  3  4  1  0
  4  5  1  0
  4  6  1  0
  6  7  1  0
  7  8  1  0
  8  9  1  0
  8  2  1  0
  9  6  1  0
  3 10  1  0
  3 11  1  0
  4 12  1  0
  5 13  1  0
  6 14  1  0
  7 15  1  0
  7 16  1  0
  8 17  1  0
  9 18  1  0
  9 19  1  0
M  END
