
     RDKit          3D

 16 17  0  0  0  0  0  0  0  0999 V2000
    2.6251   -0.2360    1.5560 O   0  0  0  0  0  0  0  0  0  0  0  0
    1.7421   -0.1307    0.7375 C   0  0  0  0  0  0  0  0  0  0  0  0
    0.9626   -1.1105   -0.1027 C   0  0  0  0  0  0  0  0  0  0  0  0
   -0.0490   -0.0352   -0.2886 C   0  0  0  0  0  0  0  0  0  0  0  0
    0.9370    0.9748    0.1018 C   0  0  0  0  0  0  0  0  0  0  0  0
   -1.0715    0.0277   -1.2832 C   0  0  0  0  0  0  0  0  0  0  0  0
   -1.4229   -0.1342    0.1628 C   0  0  0  0  0  0  0  0  0  0  0  0
   -1.9466    0.9474    0.8773 O   0  0  0  0  0  0  0  0  0  0  0  0
    1.4983   -1.4399   -1.0120 H   0  0  0  0  0  0  0  0  0  0  0  0
    0.5729   -1.9157    0.5438 H   0  0  0  0  0  0  0  0  0  0  0  0
    1.5799    1.4223   -0.7106 H   0  0  0  0  0  0  0  0  0  0  0  0
    0.6435    1.7800    0.7950 H   0  0  0  0  0  0  0  0  0  0  0  0
   -1.2619   -0.8734   -1.9255 H   0  0  0  0  0  0  0  0  0  0  0  0
   -1.3512    0.9947   -1.7405 H   0  0  0  0  0  0  0  0  0  0  0  0
   -1.8816   -1.1132    0.4781 H   0  0  0  0  0  0  0  0  0  0  0  0
   -1.5767    0.8420    1.8106 H   0  0  0  0  0  0  0  0  0  0  0  0
  1  2  2  0
  2  3  1  0
  3  4  1  0
  4  5  1  0
  4  6  1  0
  6  7  1  0
  7  8  1  0
  5  2  1  0
  7  4  1  0
  3  9  1  0
  3 10  1  0
  5 11  1  0
  5 12  1  0
  6 13  1  0
  6 14  1  0
  7 15  1  0
  8 16  1  0
M  END
