
     RDKit          3D

 13 14  0  0  0  0  0  0  0  0999 V2000
    3.1650    0.2350   -0.2009 O   0  0  0  0  0  0  0  0  0  0  0  0
    1.9298    0.1272   -0.0134 C   0  0  0  0  0  0  0  0  0  0  0  0
    0.8440   -0.4280   -0.8616 C   0  0  0  0  0  0  0  0  0  0  0  0
    0.0113    0.0507    0.2695 C   0  0  0  0  0  0  0  0  0  0  0  0
   -1.1940   -0.5591    0.7630 C   0  0  0  0  0  0  0  0  0  0  0  0
   -1.1987    0.8305    0.0408 C   0  0  0  0  0  0  0  0  0  0  0  0
    1.0942    0.4746    1.0382 O   0  0  0  0  0  0  0  0  0  0  0  0
    0.6418    0.1406   -1.7878 H   0  0  0  0  0  0  0  0  0  0  0  0
    0.8773   -1.5182   -1.0305 H   0  0  0  0  0  0  0  0  0  0  0  0
   -1.7106   -1.3660    0.1962 H   0  0  0  0  0  0  0  0  0  0  0  0
   -1.4248   -0.5271    1.8528 H   0  0  0  0  0  0  0  0  0  0  0  0
   -1.5944    0.8571   -0.9724 H   0  0  0  0  0  0  0  0  0  0  0  0
   -1.4408    1.6828    0.7061 H   0  0  0  0  0  0  0  0  0  0  0  0
  1  2  2  0
  2  3  1  0
  3  4  1  0
  4  5  1  0
  5  6  1  0
  4  7  1  0
  7  2  1  0
  6  4  1  0
  3  8  1  0
  3  9  1  0
  5 10  1  0
  5 11  1  0
  6 12  1  0
  6 13  1  0
M  END
