
     RDKit          3D

 13 13  0  0  0  0  0  0  0  0999 V2000
   -0.0052    2.4492   -0.4810 O   0  0  0  0  0  0  0  0  0  0  0  0
   -0.0246    1.2735   -0.0225 C   0  0  0  0  0  0  0  0  0  0  0  0
    1.2245    0.5565    0.2096 C   0  0  0  0  0  0  0  0  0  0  0  0
    1.1827   -0.7565    0.0339 C   0  0  0  0  0  0  0  0  0  0  0  0
   -0.1057   -1.3349   -0.3711 C   0  0  0  0  0  0  0  0  0  0  0  0
   -1.1874   -0.8073    0.2828 O   0  0  0  0  0  0  0  0  0  0  0  0
   -1.2765    0.5568    0.3040 C   0  0  0  0  0  0  0  0  0  0  0  0
    2.1234    1.0869    0.5062 H   0  0  0  0  0  0  0  0  0  0  0  0
    2.0916   -1.3099    0.1989 H   0  0  0  0  0  0  0  0  0  0  0  0
   -0.1457   -2.4377   -0.2553 H   0  0  0  0  0  0  0  0  0  0  0  0
   -0.2368   -1.0885   -1.4660 H   0  0  0  0  0  0  0  0  0  0  0  0
   -2.1111    0.9612   -0.3038 H   0  0  0  0  0  0  0  0  0  0  0  0
   -1.5291    0.8508    1.3645 H   0  0  0  0  0  0  0  0  0  0  0  0
  1  2  2  0
  2  3  1  0
  3  4  2  0
  4  5  1  0
  5  6  1  0
  6  7  1  0
  7  2  1  0
  3  8  1  0
  4  9  1  0
  5 10  1  0
  5 11  1  0
  7 12  1  0
  7 13  1  0
M  END
