
     RDKit          3D

 17 18  0  0  0  0  0  0  0  0999 V2000
   -1.2790    2.3344    0.4463 O   0  0  0  0  0  0  0  0  0  0  0  0
   -0.8158    1.2297    0.2256 C   0  0  0  0  0  0  0  0  0  0  0  0
   -1.5861    0.0604    0.6944 C   0  0  0  0  0  0  0  0  0  0  0  0
   -1.2412   -1.1531   -0.0452 C   0  0  0  0  0  0  0  0  0  0  0  0
   -0.1119   -1.2594   -0.6844 C   0  0  0  0  0  0  0  0  0  0  0  0
    0.9333   -0.2447   -0.7631 C   0  0  0  0  0  0  0  0  0  0  0  0
    1.7668   -0.0930    0.4783 C   0  0  0  0  0  0  0  0  0  0  0  0
    1.5964    1.2976    0.3560 O   0  0  0  0  0  0  0  0  0  0  0  0
    0.4681    1.1571   -0.4873 C   0  0  0  0  0  0  0  0  0  0  0  0
   -2.6975    0.2208    0.5663 H   0  0  0  0  0  0  0  0  0  0  0  0
   -1.4598   -0.1095    1.7909 H   0  0  0  0  0  0  0  0  0  0  0  0
   -1.9522   -1.9802   -0.0547 H   0  0  0  0  0  0  0  0  0  0  0  0
    0.0748   -2.2085   -1.2195 H   0  0  0  0  0  0  0  0  0  0  0  0
    1.5569   -0.2533   -1.6906 H   0  0  0  0  0  0  0  0  0  0  0  0
    2.8262   -0.4251    0.3024 H   0  0  0  0  0  0  0  0  0  0  0  0
    1.3248   -0.4400    1.4146 H   0  0  0  0  0  0  0  0  0  0  0  0
    0.5961    1.8668   -1.3300 H   0  0  0  0  0  0  0  0  0  0  0  0
  1  2  2  0
  2  3  1  0
  3  4  1  0
  4  5  2  0
  5  6  1  0
  6  7  1  0
  7  8  1  0
  8  9  1  0
  9  2  1  0
  9  6  1  0
  3 10  1  0
  3 11  1  0
  4 12  1  0
  5 13  1  0
  6 14  1  0
  7 15  1  0
  7 16  1  0
  9 17  1  0
M  END
