
     RDKit          3D

 14 14  0  0  0  0  0  0  0  0999 V2000
    1.6027    2.0254   -0.3638 O   0  0  0  0  0  0  0  0  0  0  0  0
    0.8359    1.1165   -0.0463 C   0  0  0  0  0  0  0  0  0  0  0  0
    1.3669   -0.2055    0.3553 C   0  0  0  0  0  0  0  0  0  0  0  0
    0.5809   -1.2257   -0.3929 C   0  0  0  0  0  0  0  0  0  0  0  0
   -0.7399   -1.0705   -0.4207 C   0  0  0  0  0  0  0  0  0  0  0  0
   -1.4261    0.0655    0.2587 C   0  0  0  0  0  0  0  0  0  0  0  0
   -0.6050    1.2907   -0.0490 C   0  0  0  0  0  0  0  0  0  0  0  0
   -1.1347    2.4024   -0.2947 O   0  0  0  0  0  0  0  0  0  0  0  0
    1.1487   -0.3528    1.4458 H   0  0  0  0  0  0  0  0  0  0  0  0
    2.4531   -0.2860    0.1753 H   0  0  0  0  0  0  0  0  0  0  0  0
    1.1067   -2.0409   -0.8772 H   0  0  0  0  0  0  0  0  0  0  0  0
   -1.3109   -1.8262   -0.9739 H   0  0  0  0  0  0  0  0  0  0  0  0
   -2.4477    0.1609   -0.1584 H   0  0  0  0  0  0  0  0  0  0  0  0
   -1.4306   -0.0539    1.3420 H   0  0  0  0  0  0  0  0  0  0  0  0
  1  2  2  0
  2  3  1  0
  3  4  1  0
  4  5  2  0
  5  6  1  0
  6  7  1  0
  7  8  2  0
  7  2  1  0
  3  9  1  0
  3 10  1  0
  4 11  1  0
  5 12  1  0
  6 13  1  0
  6 14  1  0
M  END
