
     RDKit          3D

 12 12  0  0  0  0  0  0  0  0999 V2000
    1.3684   -1.7206    0.9900 O   0  0  0  0  0  0  0  0  0  0  0  0
    0.7472   -0.8719    0.2773 C   0  0  0  0  0  0  0  0  0  0  0  0
   -0.6759   -1.0504   -0.0695 C   0  0  0  0  0  0  0  0  0  0  0  0
   -1.3764    0.0929   -0.2925 O   0  0  0  0  0  0  0  0  0  0  0  0
   -0.7579    1.2737   -0.0153 C   0  0  0  0  0  0  0  0  0  0  0  0
    0.5489    1.3605   -0.6113 O   0  0  0  0  0  0  0  0  0  0  0  0
    1.4124    0.3249   -0.2349 C   0  0  0  0  0  0  0  0  0  0  0  0
    2.6490    0.3778   -0.3136 O   0  0  0  0  0  0  0  0  0  0  0  0
   -1.1520   -1.6971    0.7213 H   0  0  0  0  0  0  0  0  0  0  0  0
   -0.7162   -1.6634   -1.0162 H   0  0  0  0  0  0  0  0  0  0  0  0
   -0.7118    1.4800    1.0733 H   0  0  0  0  0  0  0  0  0  0  0  0
   -1.3357    2.0935   -0.5086 H   0  0  0  0  0  0  0  0  0  0  0  0
  1  2  2  0
  2  3  1  0
  3  4  1  0
  4  5  1  0
  5  6  1  0
  6  7  1  0
  7  8  2  0
  7  2  1  0
  3  9  1  0
  3 10  1  0
  5 11  1  0
  5 12  1  0
M  END
