
     RDKit          3D

 17 19  0  0  0  0  0  0  0  0999 V2000
    0.1807    0.3437    2.5715 O   0  0  0  0  0  0  0  0  0  0  0  0
    0.1337    0.1734    1.3976 C   0  0  0  0  0  0  0  0  0  0  0  0
   -0.2776   -1.0300    0.5762 C   0  0  0  0  0  0  0  0  0  0  0  0
   -1.2729   -0.3758   -0.3564 C   0  0  0  0  0  0  0  0  0  0  0  0
   -0.8815    1.0962   -0.4457 C   0  0  0  0  0  0  0  0  0  0  0  0
    0.4653    1.0884    0.2387 C   0  0  0  0  0  0  0  0  0  0  0  0
    1.4096    0.1876   -0.5189 C   0  0  0  0  0  0  0  0  0  0  0  0
    2.1857   -0.7002    0.2542 O   0  0  0  0  0  0  0  0  0  0  0  0
    0.9859   -1.2519   -0.2002 C   0  0  0  0  0  0  0  0  0  0  0  0
   -0.6442   -1.8486    1.1565 H   0  0  0  0  0  0  0  0  0  0  0  0
   -2.3061   -0.5178   -0.0240 H   0  0  0  0  0  0  0  0  0  0  0  0
   -1.1103   -0.7778   -1.3997 H   0  0  0  0  0  0  0  0  0  0  0  0
   -0.8579    1.4727   -1.4659 H   0  0  0  0  0  0  0  0  0  0  0  0
   -1.5682    1.6876    0.2255 H   0  0  0  0  0  0  0  0  0  0  0  0
    0.8506    2.0399    0.5321 H   0  0  0  0  0  0  0  0  0  0  0  0
    1.7062    0.4117   -1.5447 H   0  0  0  0  0  0  0  0  0  0  0  0
    1.0008   -1.9989   -0.9966 H   0  0  0  0  0  0  0  0  0  0  0  0
  1  2  2  0
  2  3  1  0
  3  4  1  0
  4  5  1  0
  5  6  1  0
  6  7  1  0
  7  8  1  0
  8  9  1  0
  6  2  1  0
  9  7  1  0
  9  3  1  0
  3 10  1  0
  4 11  1  0
  4 12  1  0
  5 13  1  0
  5 14  1  0
  6 15  1  0
  7 16  1  0
  9 17  1  0
M  END
