
     RDKit          3D

 15 16  0  0  0  0  0  0  0  0999 V2000
    1.5079    1.9033    1.3782 O   0  0  0  0  0  0  0  0  0  0  0  0
    0.9204    1.0845    0.6442 C   0  0  0  0  0  0  0  0  0  0  0  0
    1.1418   -0.3766    0.6215 C   0  0  0  0  0  0  0  0  0  0  0  0
    0.3715   -0.9094   -0.5641 C   0  0  0  0  0  0  0  0  0  0  0  0
   -0.7006   -1.7613   -0.2108 O   0  0  0  0  0  0  0  0  0  0  0  0
   -1.3975   -0.6207    0.1729 C   0  0  0  0  0  0  0  0  0  0  0  0
   -0.6174    0.1585   -0.8591 C   0  0  0  0  0  0  0  0  0  0  0  0
   -0.1027    1.4374   -0.3334 C   0  0  0  0  0  0  0  0  0  0  0  0
   -0.5000    2.5646   -0.6898 O   0  0  0  0  0  0  0  0  0  0  0  0
    2.2263   -0.5539    0.3883 H   0  0  0  0  0  0  0  0  0  0  0  0
    0.8578   -0.8448    1.5708 H   0  0  0  0  0  0  0  0  0  0  0  0
    0.9763   -1.2978   -1.3933 H   0  0  0  0  0  0  0  0  0  0  0  0
   -2.4798   -0.6198   -0.0596 H   0  0  0  0  0  0  0  0  0  0  0  0
   -1.1530   -0.3400    1.2033 H   0  0  0  0  0  0  0  0  0  0  0  0
   -1.0508    0.1759   -1.8691 H   0  0  0  0  0  0  0  0  0  0  0  0
  1  2  2  0
  2  3  1  0
  3  4  1  0
  4  5  1  0
  5  6  1  0
  6  7  1  0
  7  8  1  0
  8  9  2  0
  8  2  1  0
  7  4  1  0
  3 10  1  0
  3 11  1  0
  4 12  1  0
  6 13  1  0
  6 14  1  0
  7 15  1  0
M  END
