
     RDKit          3D

 16 17  0  0  0  0  0  0  0  0999 V2000
    1.2065   -2.0598    0.0816 O   0  0  0  0  0  0  0  0  0  0  0  0
    0.7964   -0.9287    0.0009 C   0  0  0  0  0  0  0  0  0  0  0  0
    1.3726    0.4393    0.0765 C   0  0  0  0  0  0  0  0  0  0  0  0
    2.6134    0.6076   -0.4701 O   0  0  0  0  0  0  0  0  0  0  0  0
    0.2023    0.8833   -0.8194 C   0  0  0  0  0  0  0  0  0  0  0  0
   -0.4610   -0.2752   -0.2106 C   0  0  0  0  0  0  0  0  0  0  0  0
   -1.3689    0.0323    0.9725 C   0  0  0  0  0  0  0  0  0  0  0  0
   -1.7879   -0.7366   -0.2355 C   0  0  0  0  0  0  0  0  0  0  0  0
    1.1995    0.8880    1.0787 H   0  0  0  0  0  0  0  0  0  0  0  0
    3.2341   -0.0299    0.0085 H   0  0  0  0  0  0  0  0  0  0  0  0
    0.4903    0.7410   -1.8935 H   0  0  0  0  0  0  0  0  0  0  0  0
   -0.1758    1.8770   -0.5603 H   0  0  0  0  0  0  0  0  0  0  0  0
   -1.0405   -0.5002    1.8976 H   0  0  0  0  0  0  0  0  0  0  0  0
   -1.7153    1.0736    1.1135 H   0  0  0  0  0  0  0  0  0  0  0  0
   -2.5486   -0.1910   -0.8682 H   0  0  0  0  0  0  0  0  0  0  0  0
   -2.0172   -1.8208   -0.1723 H   0  0  0  0  0  0  0  0  0  0  0  0
  1  2  2  0
  2  3  1  0
  3  4  1  0
  3  5  1  0
  5  6  1  0
  6  7  1  0
  7  8  1  0
  6  2  1  0
  8  6  1  0
  3  9  1  0
  4 10  1  0
  5 11  1  0
  5 12  1  0
  7 13  1  0
  7 14  1  0
  8 15  1  0
  8 16  1  0
M  END
