
     RDKit          3D

 17 18  0  0  0  0  0  0  0  0999 V2000
   -1.1790    2.2330   -0.9052 O   0  0  0  0  0  0  0  0  0  0  0  0
   -0.7143    1.2314   -0.4450 C   0  0  0  0  0  0  0  0  0  0  0  0
   -0.3928    0.9516    0.9621 C   0  0  0  0  0  0  0  0  0  0  0  0
   -0.2508   -0.5643    1.0125 C   0  0  0  0  0  0  0  0  0  0  0  0
   -0.9383   -1.0472   -0.2729 C   0  0  0  0  0  0  0  0  0  0  0  0
   -0.3510    0.0222   -1.2084 C   0  0  0  0  0  0  0  0  0  0  0  0
    1.0075   -0.1402   -1.3481 O   0  0  0  0  0  0  0  0  0  0  0  0
    1.7137   -0.3118   -0.1911 C   0  0  0  0  0  0  0  0  0  0  0  0
    1.0775   -0.8911    0.8513 O   0  0  0  0  0  0  0  0  0  0  0  0
    0.5419    1.4717    1.2212 H   0  0  0  0  0  0  0  0  0  0  0  0
   -1.1616    1.3000    1.6781 H   0  0  0  0  0  0  0  0  0  0  0  0
   -0.6691   -1.0065    1.9054 H   0  0  0  0  0  0  0  0  0  0  0  0
   -2.0078   -0.8938   -0.1574 H   0  0  0  0  0  0  0  0  0  0  0  0
   -0.6285   -2.0504   -0.5513 H   0  0  0  0  0  0  0  0  0  0  0  0
   -0.8175   -0.0287   -2.2037 H   0  0  0  0  0  0  0  0  0  0  0  0
    2.1598    0.6748    0.1007 H   0  0  0  0  0  0  0  0  0  0  0  0
    2.6103   -0.9508   -0.4483 H   0  0  0  0  0  0  0  0  0  0  0  0
  1  2  2  0
  2  3  1  0
  3  4  1  0
  4  5  1  0
  5  6  1  0
  6  7  1  0
  7  8  1  0
  8  9  1  0
  6  2  1  0
  9  4  1  0
  3 10  1  0
  3 11  1  0
  4 12  1  0
  5 13  1  0
  5 14  1  0
  6 15  1  0
  8 16  1  0
  8 17  1  0
M  END
