
     RDKit          3D

 15 16  0  0  0  0  0  0  0  0999 V2000
    1.1412   -2.0844    1.4733 O   0  0  0  0  0  0  0  0  0  0  0  0
    0.7440   -1.2522    0.6819 C   0  0  0  0  0  0  0  0  0  0  0  0
    1.4344   -0.1868   -0.0825 C   0  0  0  0  0  0  0  0  0  0  0  0
    1.9843    0.8171    0.6830 O   0  0  0  0  0  0  0  0  0  0  0  0
    0.1069    0.2052   -0.6534 C   0  0  0  0  0  0  0  0  0  0  0  0
   -0.4695    1.3534   -0.1069 O   0  0  0  0  0  0  0  0  0  0  0  0
   -1.7521    0.8697    0.1482 C   0  0  0  0  0  0  0  0  0  0  0  0
   -1.4461   -0.2379    0.9720 O   0  0  0  0  0  0  0  0  0  0  0  0
   -0.5694   -0.9266    0.1321 C   0  0  0  0  0  0  0  0  0  0  0  0
    2.1194   -0.5733   -0.8716 H   0  0  0  0  0  0  0  0  0  0  0  0
    2.3221    1.5107    0.0488 H   0  0  0  0  0  0  0  0  0  0  0  0
   -0.0217    0.1619   -1.7295 H   0  0  0  0  0  0  0  0  0  0  0  0
   -2.1268    0.4505   -0.8082 H   0  0  0  0  0  0  0  0  0  0  0  0
   -2.4137    1.5766    0.6296 H   0  0  0  0  0  0  0  0  0  0  0  0
   -1.0530   -1.6838   -0.5168 H   0  0  0  0  0  0  0  0  0  0  0  0
  1  2  2  0
  2  3  1  0
  3  4  1  0
  3  5  1  0
  5  6  1  0
  6  7  1  0
  7  8  1  0
  8  9  1  0
  9  2  1  0
  9  5  1  0
  3 10  1  0
  4 11  1  0
  5 12  1  0
  7 13  1  0
  7 14  1  0
  9 15  1  0
M  END
