
     RDKit          3D

 15 17  0  0  0  0  0  0  0  0999 V2000
    3.0897    0.0836   -0.1399 O   0  0  0  0  0  0  0  0  0  0  0  0
    1.8938    0.1019   -0.3056 C   0  0  0  0  0  0  0  0  0  0  0  0
    0.9784    1.2453   -0.3708 C   0  0  0  0  0  0  0  0  0  0  0  0
   -0.2104    0.9046    0.0694 C   0  0  0  0  0  0  0  0  0  0  0  0
   -0.1059   -0.5491    0.4799 C   0  0  0  0  0  0  0  0  0  0  0  0
    0.8630   -1.0396   -0.5116 C   0  0  0  0  0  0  0  0  0  0  0  0
   -1.5757   -0.5659    0.3751 C   0  0  0  0  0  0  0  0  0  0  0  0
   -2.1576    0.1343    1.4470 O   0  0  0  0  0  0  0  0  0  0  0  0
   -1.6438    0.8855    0.4488 C   0  0  0  0  0  0  0  0  0  0  0  0
    1.2437    2.2506   -0.7339 H   0  0  0  0  0  0  0  0  0  0  0  0
    0.3002   -0.6372    1.5329 H   0  0  0  0  0  0  0  0  0  0  0  0
    1.3581   -1.9964   -0.2551 H   0  0  0  0  0  0  0  0  0  0  0  0
    0.4887   -0.9923   -1.5432 H   0  0  0  0  0  0  0  0  0  0  0  0
   -2.1680   -1.2327   -0.2310 H   0  0  0  0  0  0  0  0  0  0  0  0
   -2.3542    1.4074   -0.2620 H   0  0  0  0  0  0  0  0  0  0  0  0
  1  2  2  0
  2  3  1  0
  3  4  2  0
  4  5  1  0
  5  6  1  0
  5  7  1  0
  7  8  1  0
  8  9  1  0
  6  2  1  0
  9  7  1  0
  9  4  1  0
  3 10  1  0
  5 11  1  0
  6 12  1  0
  6 13  1  0
  7 14  1  0
  9 15  1  0
M  END
