
     RDKit          3D

 17 18  0  0  0  0  0  0  0  0999 V2000
   -1.8504   -1.6568   -0.8681 O   0  0  0  0  0  0  0  0  0  0  0  0
   -1.3578   -0.7494   -0.2566 C   0  0  0  0  0  0  0  0  0  0  0  0
   -1.9738    0.6074    0.0333 C   0  0  0  0  0  0  0  0  0  0  0  0
   -0.7681    1.4775   -0.2201 C   0  0  0  0  0  0  0  0  0  0  0  0
    0.3314    0.7894   -0.0258 C   0  0  0  0  0  0  0  0  0  0  0  0
    1.8268    0.6858   -0.0024 C   0  0  0  0  0  0  0  0  0  0  0  0
    2.0083   -0.5359   -0.6068 O   0  0  0  0  0  0  0  0  0  0  0  0
    1.0701   -1.4084   -0.1449 C   0  0  0  0  0  0  0  0  0  0  0  0
   -0.0442   -0.6178    0.4056 C   0  0  0  0  0  0  0  0  0  0  0  0
   -2.8024    0.8310   -0.6318 H   0  0  0  0  0  0  0  0  0  0  0  0
   -2.2097    0.6298    1.1015 H   0  0  0  0  0  0  0  0  0  0  0  0
   -0.7640    2.5296   -0.5222 H   0  0  0  0  0  0  0  0  0  0  0  0
    2.1164    0.7164    1.0541 H   0  0  0  0  0  0  0  0  0  0  0  0
    2.2841    1.5161   -0.5847 H   0  0  0  0  0  0  0  0  0  0  0  0
    0.7522   -2.1527   -0.9099 H   0  0  0  0  0  0  0  0  0  0  0  0
    1.5341   -2.0071    0.6707 H   0  0  0  0  0  0  0  0  0  0  0  0
   -0.1530   -0.6548    1.5082 H   0  0  0  0  0  0  0  0  0  0  0  0
  1  2  2  0
  2  3  1  0
  3  4  1  0
  4  5  2  0
  5  6  1  0
  6  7  1  0
  7  8  1  0
  8  9  1  0
  9  2  1  0
  9  5  1  0
  3 10  1  0
  3 11  1  0
  4 12  1  0
  6 13  1  0
  6 14  1  0
  8 15  1  0
  8 16  1  0
  9 17  1  0
M  END
