
     RDKit          3D

 15 15  0  0  0  0  0  0  0  0999 V2000
    2.2180    1.6105    0.8433 O   0  0  0  0  0  0  0  0  0  0  0  0
    1.3169    0.8990    0.2867 C   0  0  0  0  0  0  0  0  0  0  0  0
   -0.0125    1.4792    0.1487 C   0  0  0  0  0  0  0  0  0  0  0  0
   -1.1702    0.8864   -0.0988 C   0  0  0  0  0  0  0  0  0  0  0  0
   -1.5039   -0.5377   -0.3153 C   0  0  0  0  0  0  0  0  0  0  0  0
   -0.5308   -1.4336    0.3445 C   0  0  0  0  0  0  0  0  0  0  0  0
   -1.0175   -2.4569    0.8917 O   0  0  0  0  0  0  0  0  0  0  0  0
    0.8562   -1.3748    0.4886 O   0  0  0  0  0  0  0  0  0  0  0  0
    1.7144   -0.4644   -0.1709 C   0  0  0  0  0  0  0  0  0  0  0  0
   -0.0509    2.5533    0.2673 H   0  0  0  0  0  0  0  0  0  0  0  0
   -2.0236    1.5646   -0.1519 H   0  0  0  0  0  0  0  0  0  0  0  0
   -2.5001   -0.7415    0.1117 H   0  0  0  0  0  0  0  0  0  0  0  0
   -1.5432   -0.7449   -1.4160 H   0  0  0  0  0  0  0  0  0  0  0  0
    1.4804   -0.5509   -1.2536 H   0  0  0  0  0  0  0  0  0  0  0  0
    2.7668   -0.6882    0.0239 H   0  0  0  0  0  0  0  0  0  0  0  0
  1  2  2  0
  2  3  1  0
  3  4  2  0
  4  5  1  0
  5  6  1  0
  6  7  2  0
  6  8  1  0
  8  9  1  0
  9  2  1  0
  3 10  1  0
  4 11  1  0
  5 12  1  0
  5 13  1  0
  9 14  1  0
  9 15  1  0
M  END
