
     RDKit          3D

 16 16  0  0  0  0  0  0  0  0999 V2000
   -2.2288    1.6741    0.2755 O   0  0  0  0  0  0  0  0  0  0  0  0
   -1.2754    0.9205    0.1906 C   0  0  0  0  0  0  0  0  0  0  0  0
   -1.5118   -0.5459    0.1599 C   0  0  0  0  0  0  0  0  0  0  0  0
   -0.4740   -1.1675    0.8218 O   0  0  0  0  0  0  0  0  0  0  0  0
    0.6305   -1.3904    0.0385 C   0  0  0  0  0  0  0  0  0  0  0  0
    1.5246   -0.1888   -0.1161 C   0  0  0  0  0  0  0  0  0  0  0  0
    0.9238    0.8965   -0.6829 O   0  0  0  0  0  0  0  0  0  0  0  0
    0.0545    1.5835    0.1258 C   0  0  0  0  0  0  0  0  0  0  0  0
   -2.4532   -0.7517    0.6877 H   0  0  0  0  0  0  0  0  0  0  0  0
   -1.5420   -0.8799   -0.8983 H   0  0  0  0  0  0  0  0  0  0  0  0
    0.3920   -1.8308   -0.9480 H   0  0  0  0  0  0  0  0  0  0  0  0
    1.2508   -2.1698    0.5714 H   0  0  0  0  0  0  0  0  0  0  0  0
    2.3602   -0.5062   -0.7969 H   0  0  0  0  0  0  0  0  0  0  0  0
    2.0132    0.0062    0.8634 H   0  0  0  0  0  0  0  0  0  0  0  0
    0.4390    1.7557    1.1581 H   0  0  0  0  0  0  0  0  0  0  0  0
   -0.1035    2.5944   -0.3131 H   0  0  0  0  0  0  0  0  0  0  0  0
  1  2  2  0
  2  3  1  0
  3  4  1  0
  4  5  1  0
  5  6  1  0
  6  7  1  0
  7  8  1  0
  8  2  1  0
  3  9  1  0
  3 10  1  0
  5 11  1  0
  5 12  1  0
  6 13  1  0
  6 14  1  0
  8 15  1  0
  8 16  1  0
M  END
