
     RDKit          3D

 13 14  0  0  0  0  0  0  0  0999 V2000
    2.6859    1.0131    0.8591 O   0  0  0  0  0  0  0  0  0  0  0  0
    1.6782    0.3632    0.4295 C   0  0  0  0  0  0  0  0  0  0  0  0
    1.2726   -0.9259    0.7350 O   0  0  0  0  0  0  0  0  0  0  0  0
    0.4144   -0.9045   -0.3851 C   0  0  0  0  0  0  0  0  0  0  0  0
   -0.9782   -1.1383    0.0355 C   0  0  0  0  0  0  0  0  0  0  0  0
   -1.5615   -2.2244    0.0985 O   0  0  0  0  0  0  0  0  0  0  0  0
   -1.5474    0.1501    0.3661 C   0  0  0  0  0  0  0  0  0  0  0  0
   -0.6906    1.1189    0.0763 C   0  0  0  0  0  0  0  0  0  0  0  0
    0.5631    0.5904   -0.4868 C   0  0  0  0  0  0  0  0  0  0  0  0
    0.7624   -1.4882   -1.2554 H   0  0  0  0  0  0  0  0  0  0  0  0
   -2.5304    0.3066    0.7891 H   0  0  0  0  0  0  0  0  0  0  0  0
   -0.8944    2.1653    0.2366 H   0  0  0  0  0  0  0  0  0  0  0  0
    0.8258    0.9737   -1.4984 H   0  0  0  0  0  0  0  0  0  0  0  0
  1  2  2  0
  2  3  1  0
  3  4  1  0
  4  5  1  0
  5  6  2  0
  5  7  1  0
  7  8  2  0
  8  9  1  0
  9  2  1  0
  9  4  1  0
  4 10  1  0
  7 11  1  0
  8 12  1  0
  9 13  1  0
M  END
