
     RDKit          3D

 17 17  0  0  0  0  0  0  0  0999 V2000
    0.1758   -2.2334   -1.1402 O   0  0  0  0  0  0  0  0  0  0  0  0
   -0.2638   -1.2229   -0.5401 C   0  0  0  0  0  0  0  0  0  0  0  0
   -1.6813   -1.1349   -0.1042 C   0  0  0  0  0  0  0  0  0  0  0  0
   -2.1525    0.1253   -0.4101 O   0  0  0  0  0  0  0  0  0  0  0  0
   -1.5280    1.1005    0.3607 C   0  0  0  0  0  0  0  0  0  0  0  0
   -0.0541    1.0516    0.2155 C   0  0  0  0  0  0  0  0  0  0  0  0
    0.5460   -0.0574   -0.2141 C   0  0  0  0  0  0  0  0  0  0  0  0
    2.0153   -0.1479   -0.3734 C   0  0  0  0  0  0  0  0  0  0  0  0
    2.6351    1.0484   -0.0208 O   0  0  0  0  0  0  0  0  0  0  0  0
   -2.3180   -1.9223   -0.5244 H   0  0  0  0  0  0  0  0  0  0  0  0
   -1.6575   -1.2026    1.0178 H   0  0  0  0  0  0  0  0  0  0  0  0
   -1.7798    0.9423    1.4288 H   0  0  0  0  0  0  0  0  0  0  0  0
   -1.9279    2.0932    0.0367 H   0  0  0  0  0  0  0  0  0  0  0  0
    0.5374    1.8948    0.4509 H   0  0  0  0  0  0  0  0  0  0  0  0
    2.4092   -0.9269    0.2930 H   0  0  0  0  0  0  0  0  0  0  0  0
    2.2121   -0.4340   -1.4259 H   0  0  0  0  0  0  0  0  0  0  0  0
    2.8320    1.0262    0.9498 H   0  0  0  0  0  0  0  0  0  0  0  0
  1  2  2  0
  2  3  1  0
  3  4  1  0
  4  5  1  0
  5  6  1  0
  6  7  2  0
  7  8  1  0
  8  9  1  0
  7  2  1  0
  3 10  1  0
  3 11  1  0
  5 12  1  0
  5 13  1  0
  6 14  1  0
  8 15  1  0
  8 16  1  0
  9 17  1  0
M  END
