
     RDKit          3D

 19 20  0  0  0  0  0  0  0  0999 V2000
    1.1268   -2.5417   -0.0259 O   0  0  0  0  0  0  0  0  0  0  0  0
    0.5769   -1.4619    0.1069 C   0  0  0  0  0  0  0  0  0  0  0  0
   -0.8579   -1.4028   -0.1537 C   0  0  0  0  0  0  0  0  0  0  0  0
   -1.4457   -0.0904   -0.4474 C   0  0  0  0  0  0  0  0  0  0  0  0
   -0.9818    1.0886    0.2862 C   0  0  0  0  0  0  0  0  0  0  0  0
    0.4648    1.2387    0.5210 C   0  0  0  0  0  0  0  0  0  0  0  0
    1.3711    0.7177   -0.5232 C   0  0  0  0  0  0  0  0  0  0  0  0
    1.5124   -0.3886    0.5214 C   0  0  0  0  0  0  0  0  0  0  0  0
    0.9308    0.3974    1.5041 O   0  0  0  0  0  0  0  0  0  0  0  0
   -1.0645   -2.0781   -1.0368 H   0  0  0  0  0  0  0  0  0  0  0  0
   -1.3810   -1.9145    0.7012 H   0  0  0  0  0  0  0  0  0  0  0  0
   -1.3761    0.1171   -1.5560 H   0  0  0  0  0  0  0  0  0  0  0  0
   -2.5608   -0.1764   -0.2696 H   0  0  0  0  0  0  0  0  0  0  0  0
   -1.3339    2.0072   -0.2732 H   0  0  0  0  0  0  0  0  0  0  0  0
   -1.5070    1.1774    1.2824 H   0  0  0  0  0  0  0  0  0  0  0  0
    0.7036    2.3019    0.8141 H   0  0  0  0  0  0  0  0  0  0  0  0
    0.9371    0.3852   -1.4803 H   0  0  0  0  0  0  0  0  0  0  0  0
    2.3338    1.2930   -0.6349 H   0  0  0  0  0  0  0  0  0  0  0  0
    2.5515   -0.6699    0.6638 H   0  0  0  0  0  0  0  0  0  0  0  0
  1  2  2  0
  2  3  1  0
  3  4  1  0
  4  5  1  0
  5  6  1  0
  6  7  1  0
  7  8  1  0
  8  9  1  0
  8  2  1  0
  9  6  1  0
  3 10  1  0
  3 11  1  0
  4 12  1  0
  4 13  1  0
  5 14  1  0
  5 15  1  0
  6 16  1  0
  7 17  1  0
  7 18  1  0
  8 19  1  0
M  END
