
     RDKit          3D

 15 17  0  0  0  0  0  0  0  0999 V2000
   -1.6015    0.6954    2.1349 O   0  0  0  0  0  0  0  0  0  0  0  0
   -1.0538    0.3510    1.1133 C   0  0  0  0  0  0  0  0  0  0  0  0
   -0.9781   -0.9182    0.3443 C   0  0  0  0  0  0  0  0  0  0  0  0
    0.1347   -1.6779    0.6779 O   0  0  0  0  0  0  0  0  0  0  0  0
    1.2706   -1.0510    0.2648 C   0  0  0  0  0  0  0  0  0  0  0  0
    0.8543    0.1731   -0.5535 C   0  0  0  0  0  0  0  0  0  0  0  0
   -0.5455   -0.0919   -0.8325 C   0  0  0  0  0  0  0  0  0  0  0  0
   -0.1960    0.9922    0.1205 C   0  0  0  0  0  0  0  0  0  0  0  0
   -0.3245    2.3178   -0.2167 O   0  0  0  0  0  0  0  0  0  0  0  0
   -1.9067   -1.4797    0.2418 H   0  0  0  0  0  0  0  0  0  0  0  0
    1.9560   -1.7002   -0.3218 H   0  0  0  0  0  0  0  0  0  0  0  0
    1.8162   -0.6647    1.1473 H   0  0  0  0  0  0  0  0  0  0  0  0
    1.5096    0.5721   -1.3144 H   0  0  0  0  0  0  0  0  0  0  0  0
   -1.0952    0.0227   -1.7343 H   0  0  0  0  0  0  0  0  0  0  0  0
    0.1599    2.4592   -1.0715 H   0  0  0  0  0  0  0  0  0  0  0  0
  1  2  2  0
  2  3  1  0
  3  4  1  0
  4  5  1  0
  5  6  1  0
  6  7  1  0
  7  8  1  0
  8  9  1  0
  8  2  1  0
  7  3  1  0
  8  6  1  0
  3 10  1  0
  5 11  1  0
  5 12  1  0
  6 13  1  0
  7 14  1  0
  9 15  1  0
M  END
