
     RDKit          3D

 21 22  0  0  0  0  0  0  0  0999 V2000
    3.0256   -0.1415    0.8023 O   0  0  0  0  0  0  0  0  0  0  0  0
    1.9406    0.0014    0.2197 C   0  0  0  0  0  0  0  0  0  0  0  0
    1.3048   -1.2487   -0.2679 C   0  0  0  0  0  0  0  0  0  0  0  0
    0.0412   -0.8217   -1.0239 C   0  0  0  0  0  0  0  0  0  0  0  0
   -0.7646   -0.0016   -0.0325 C   0  0  0  0  0  0  0  0  0  0  0  0
   -0.1409    1.3604    0.0368 C   0  0  0  0  0  0  0  0  0  0  0  0
    1.3561    1.3438    0.0445 C   0  0  0  0  0  0  0  0  0  0  0  0
   -2.2265   -0.0918   -0.0455 C   0  0  0  0  0  0  0  0  0  0  0  0
   -1.4030   -0.6471    1.1200 C   0  0  0  0  0  0  0  0  0  0  0  0
    0.9614   -1.8035    0.6266 H   0  0  0  0  0  0  0  0  0  0  0  0
    1.9506   -1.8357   -0.9361 H   0  0  0  0  0  0  0  0  0  0  0  0
   -0.5369   -1.6769   -1.3806 H   0  0  0  0  0  0  0  0  0  0  0  0
    0.3331   -0.1737   -1.8730 H   0  0  0  0  0  0  0  0  0  0  0  0
   -0.5436    1.9324    0.9098 H   0  0  0  0  0  0  0  0  0  0  0  0
   -0.4680    1.9102   -0.8900 H   0  0  0  0  0  0  0  0  0  0  0  0
    1.7117    1.9718    0.9063 H   0  0  0  0  0  0  0  0  0  0  0  0
    1.7965    1.7805   -0.8970 H   0  0  0  0  0  0  0  0  0  0  0  0
   -2.6714   -0.8094   -0.7607 H   0  0  0  0  0  0  0  0  0  0  0  0
   -2.8266    0.8117    0.1545 H   0  0  0  0  0  0  0  0  0  0  0  0
   -1.3212   -1.7588    1.2000 H   0  0  0  0  0  0  0  0  0  0  0  0
   -1.5188   -0.1018    2.0866 H   0  0  0  0  0  0  0  0  0  0  0  0
  1  2  2  0
  2  3  1  0
  3  4  1  0
  4  5  1  0
  5  6  1  0
  6  7  1  0
  5  8  1  0
  8  9  1  0
  7  2  1  0
  9  5  1  0
  3 10  1  0
  3 11  1  0
  4 12  1  0
  4 13  1  0
  6 14  1  0
  6 15  1  0
  7 16  1  0
  7 17  1  0
  8 18  1  0
  8 19  1  0
  9 20  1  0
  9 21  1  0
M  END
