
     RDKit          3D

 17 19  0  0  0  0  0  0  0  0999 V2000
    2.7678    0.9756    0.0094 O   0  0  0  0  0  0  0  0  0  0  0  0
    1.6525    0.5111   -0.0385 C   0  0  0  0  0  0  0  0  0  0  0  0
    0.4481    1.2058   -0.5313 C   0  0  0  0  0  0  0  0  0  0  0  0
   -0.7244    0.4058   -0.0922 C   0  0  0  0  0  0  0  0  0  0  0  0
   -1.5151   -0.4179   -1.0812 C   0  0  0  0  0  0  0  0  0  0  0  0
   -0.8824   -1.5524   -0.5474 O   0  0  0  0  0  0  0  0  0  0  0  0
   -0.2142   -0.9046    0.4599 C   0  0  0  0  0  0  0  0  0  0  0  0
    1.2879   -0.8513    0.3921 C   0  0  0  0  0  0  0  0  0  0  0  0
   -0.9139    0.0484    1.3300 C   0  0  0  0  0  0  0  0  0  0  0  0
    0.4147    2.2665   -0.1462 H   0  0  0  0  0  0  0  0  0  0  0  0
    0.5051    1.2140   -1.6492 H   0  0  0  0  0  0  0  0  0  0  0  0
   -2.6014   -0.3577   -0.8009 H   0  0  0  0  0  0  0  0  0  0  0  0
   -1.3242   -0.2158   -2.1327 H   0  0  0  0  0  0  0  0  0  0  0  0
    1.7072   -1.0939    1.3921 H   0  0  0  0  0  0  0  0  0  0  0  0
    1.6820   -1.6283   -0.3016 H   0  0  0  0  0  0  0  0  0  0  0  0
   -0.3604    0.6417    2.0597 H   0  0  0  0  0  0  0  0  0  0  0  0
   -1.9293   -0.2470    1.6779 H   0  0  0  0  0  0  0  0  0  0  0  0
  1  2  2  0
  2  3  1  0
  3  4  1  0
  4  5  1  0
  5  6  1  0
  6  7  1  0
  7  8  1  0
  7  9  1  0
  8  2  1  0
  7  4  1  0
  9  4  1  0
  3 10  1  0
  3 11  1  0
  5 12  1  0
  5 13  1  0
  8 14  1  0
  8 15  1  0
  9 16  1  0
  9 17  1  0
M  END
