
     RDKit          3D

 18 19  0  0  0  0  0  0  0  0999 V2000
    2.8669    0.8442   -0.7341 O   0  0  0  0  0  0  0  0  0  0  0  0
    1.7388    0.4663   -0.5768 C   0  0  0  0  0  0  0  0  0  0  0  0
    0.5517    1.3381   -0.4764 C   0  0  0  0  0  0  0  0  0  0  0  0
   -0.1967    0.6861    0.6696 C   0  0  0  0  0  0  0  0  0  0  0  0
   -1.6295    0.4054    0.3701 C   0  0  0  0  0  0  0  0  0  0  0  0
   -1.2444   -1.0397    0.0882 C   0  0  0  0  0  0  0  0  0  0  0  0
    0.1455   -0.7821    0.5755 C   0  0  0  0  0  0  0  0  0  0  0  0
    1.2452   -0.9147   -0.4456 C   0  0  0  0  0  0  0  0  0  0  0  0
    0.7991    2.3961   -0.2796 H   0  0  0  0  0  0  0  0  0  0  0  0
   -0.0406    1.2462   -1.4088 H   0  0  0  0  0  0  0  0  0  0  0  0
    0.0514    1.0665    1.6683 H   0  0  0  0  0  0  0  0  0  0  0  0
   -1.9642    0.9766   -0.5223 H   0  0  0  0  0  0  0  0  0  0  0  0
   -2.3145    0.5161    1.2478 H   0  0  0  0  0  0  0  0  0  0  0  0
   -1.8623   -1.7266    0.7318 H   0  0  0  0  0  0  0  0  0  0  0  0
   -1.3479   -1.3513   -0.9551 H   0  0  0  0  0  0  0  0  0  0  0  0
    0.3293   -1.2892    1.5359 H   0  0  0  0  0  0  0  0  0  0  0  0
    2.0104   -1.6097   -0.0489 H   0  0  0  0  0  0  0  0  0  0  0  0
    0.8619   -1.2284   -1.4398 H   0  0  0  0  0  0  0  0  0  0  0  0
  1  2  2  0
  2  3  1  0
  3  4  1  0
  4  5  1  0
  5  6  1  0
  6  7  1  0
  7  8  1  0
  8  2  1  0
  7  4  1  0
  3  9  1  0
  3 10  1  0
  4 11  1  0
  5 12  1  0
  5 13  1  0
  6 14  1  0
  6 15  1  0
  7 16  1  0
  8 17  1  0
  8 18  1  0
M  END
