
     RDKit          3D

 19 20  0  0  0  0  0  0  0  0999 V2000
    3.0392   -0.5269    0.8803 O   0  0  0  0  0  0  0  0  0  0  0  0
    1.9833   -0.0869    0.5278 C   0  0  0  0  0  0  0  0  0  0  0  0
    1.7416    1.0072   -0.4246 C   0  0  0  0  0  0  0  0  0  0  0  0
    0.3930    0.6229   -1.0441 C   0  0  0  0  0  0  0  0  0  0  0  0
   -0.0632   -0.6137   -0.3665 C   0  0  0  0  0  0  0  0  0  0  0  0
   -1.5238   -0.7948   -0.2459 C   0  0  0  0  0  0  0  0  0  0  0  0
   -2.3511    0.1673    0.4707 C   0  0  0  0  0  0  0  0  0  0  0  0
   -2.1103   -1.2287    0.9278 O   0  0  0  0  0  0  0  0  0  0  0  0
    0.6564   -0.5496    0.9761 C   0  0  0  0  0  0  0  0  0  0  0  0
    1.6594    1.9486    0.1614 H   0  0  0  0  0  0  0  0  0  0  0  0
    2.5049    1.0745   -1.2252 H   0  0  0  0  0  0  0  0  0  0  0  0
    0.5185    0.4166   -2.1285 H   0  0  0  0  0  0  0  0  0  0  0  0
   -0.2518    1.4937   -0.9462 H   0  0  0  0  0  0  0  0  0  0  0  0
    0.4074   -1.4899   -0.8992 H   0  0  0  0  0  0  0  0  0  0  0  0
   -2.0096   -1.2493   -1.1578 H   0  0  0  0  0  0  0  0  0  0  0  0
   -2.0118    0.8341    1.2549 H   0  0  0  0  0  0  0  0  0  0  0  0
   -3.4129    0.3203    0.1671 H   0  0  0  0  0  0  0  0  0  0  0  0
    0.1669    0.2086    1.6434 H   0  0  0  0  0  0  0  0  0  0  0  0
    0.6639   -1.5538    1.4285 H   0  0  0  0  0  0  0  0  0  0  0  0
  1  2  2  0
  2  3  1  0
  3  4  1  0
  4  5  1  0
  5  6  1  0
  6  7  1  0
  7  8  1  0
  5  9  1  0
  9  2  1  0
  8  6  1  0
  3 10  1  0
  3 11  1  0
  4 12  1  0
  4 13  1  0
  5 14  1  0
  6 15  1  0
  7 16  1  0
  7 17  1  0
  9 18  1  0
  9 19  1  0
M  END
