
     RDKit          3D

 17 18  0  0  0  0  0  0  0  0999 V2000
   -1.4073   -2.0067    1.0124 O   0  0  0  0  0  0  0  0  0  0  0  0
   -1.0030   -1.0719    0.3671 C   0  0  0  0  0  0  0  0  0  0  0  0
   -1.7257    0.2170    0.3311 C   0  0  0  0  0  0  0  0  0  0  0  0
   -1.0508    1.2065   -0.5535 C   0  0  0  0  0  0  0  0  0  0  0  0
    0.2362    1.1379   -0.8692 C   0  0  0  0  0  0  0  0  0  0  0  0
    1.0291    0.0311   -0.3172 C   0  0  0  0  0  0  0  0  0  0  0  0
    1.8628    0.2050    0.8998 C   0  0  0  0  0  0  0  0  0  0  0  0
    2.4096    0.0246   -0.4663 O   0  0  0  0  0  0  0  0  0  0  0  0
    0.2550   -1.2445   -0.4026 C   0  0  0  0  0  0  0  0  0  0  0  0
   -1.8331    0.6890    1.3290 H   0  0  0  0  0  0  0  0  0  0  0  0
   -2.7497    0.0535   -0.1145 H   0  0  0  0  0  0  0  0  0  0  0  0
   -1.6333    2.0129   -0.9542 H   0  0  0  0  0  0  0  0  0  0  0  0
    0.7357    1.8551   -1.5135 H   0  0  0  0  0  0  0  0  0  0  0  0
    1.9854    1.2109    1.2889 H   0  0  0  0  0  0  0  0  0  0  0  0
    2.0921   -0.6978    1.4851 H   0  0  0  0  0  0  0  0  0  0  0  0
    0.8340   -2.1280   -0.0581 H   0  0  0  0  0  0  0  0  0  0  0  0
   -0.0371   -1.4944   -1.4644 H   0  0  0  0  0  0  0  0  0  0  0  0
  1  2  2  0
  2  3  1  0
  3  4  1  0
  4  5  2  0
  5  6  1  0
  6  7  1  0
  7  8  1  0
  6  9  1  0
  9  2  1  0
  8  6  1  0
  3 10  1  0
  3 11  1  0
  4 12  1  0
  5 13  1  0
  7 14  1  0
  7 15  1  0
  9 16  1  0
  9 17  1  0
M  END
