
     RDKit          3D

 15 16  0  0  0  0  0  0  0  0999 V2000
    2.5414    1.3318   -0.4478 O   0  0  0  0  0  0  0  0  0  0  0  0
    1.3980    0.8807   -0.2640 C   0  0  0  0  0  0  0  0  0  0  0  0
    0.2972    1.3516   -0.9396 O   0  0  0  0  0  0  0  0  0  0  0  0
   -0.9717    1.0748   -0.4025 C   0  0  0  0  0  0  0  0  0  0  0  0
   -0.9297   -0.2277    0.3818 C   0  0  0  0  0  0  0  0  0  0  0  0
   -0.3581   -1.3565   -0.3946 C   0  0  0  0  0  0  0  0  0  0  0  0
    0.9802   -1.3812   -0.0253 O   0  0  0  0  0  0  0  0  0  0  0  0
    1.1955   -0.2033    0.7144 C   0  0  0  0  0  0  0  0  0  0  0  0
   -0.0033   -0.0056    1.4276 O   0  0  0  0  0  0  0  0  0  0  0  0
   -1.1617    1.8706    0.3729 H   0  0  0  0  0  0  0  0  0  0  0  0
   -1.7846    1.1128   -1.1281 H   0  0  0  0  0  0  0  0  0  0  0  0
   -1.9098   -0.5013    0.7684 H   0  0  0  0  0  0  0  0  0  0  0  0
   -0.5269   -1.3361   -1.4698 H   0  0  0  0  0  0  0  0  0  0  0  0
   -0.8011   -2.3164   -0.0004 H   0  0  0  0  0  0  0  0  0  0  0  0
    2.0346   -0.2941    1.4069 H   0  0  0  0  0  0  0  0  0  0  0  0
  1  2  2  0
  2  3  1  0
  3  4  1  0
  4  5  1  0
  5  6  1  0
  6  7  1  0
  7  8  1  0
  8  9  1  0
  8  2  1  0
  9  5  1  0
  4 10  1  0
  4 11  1  0
  5 12  1  0
  6 13  1  0
  6 14  1  0
  8 15  1  0
M  END
