
     RDKit          3D

 17 18  0  0  0  0  0  0  0  0999 V2000
   -1.4727    2.7541    0.1390 O   0  0  0  0  0  0  0  0  0  0  0  0
   -0.9080    1.6614    0.1739 C   0  0  0  0  0  0  0  0  0  0  0  0
    0.3207    1.2828   -0.4795 C   0  0  0  0  0  0  0  0  0  0  0  0
    0.5588   -0.0208   -0.3026 C   0  0  0  0  0  0  0  0  0  0  0  0
    1.7479   -0.7259   -0.8513 C   0  0  0  0  0  0  0  0  0  0  0  0
    2.5048   -1.2854    0.2027 O   0  0  0  0  0  0  0  0  0  0  0  0
   -0.4975   -0.6654    0.4964 C   0  0  0  0  0  0  0  0  0  0  0  0
   -1.9190   -0.6184    0.0775 C   0  0  0  0  0  0  0  0  0  0  0  0
   -1.3681    0.4676    0.9061 C   0  0  0  0  0  0  0  0  0  0  0  0
    0.9640    1.9531   -1.0358 H   0  0  0  0  0  0  0  0  0  0  0  0
    1.4200   -1.5952   -1.4638 H   0  0  0  0  0  0  0  0  0  0  0  0
    2.4120   -0.0817   -1.4258 H   0  0  0  0  0  0  0  0  0  0  0  0
    2.7722   -0.4933    0.7578 H   0  0  0  0  0  0  0  0  0  0  0  0
   -0.2054   -1.4196    1.2576 H   0  0  0  0  0  0  0  0  0  0  0  0
   -2.1761   -0.4036   -0.9909 H   0  0  0  0  0  0  0  0  0  0  0  0
   -2.5918   -1.3408    0.5435 H   0  0  0  0  0  0  0  0  0  0  0  0
   -1.5617    0.5311    1.9953 H   0  0  0  0  0  0  0  0  0  0  0  0
  1  2  2  0
  2  3  1  0
  3  4  2  0
  4  5  1  0
  5  6  1  0
  4  7  1  0
  7  8  1  0
  8  9  1  0
  9  2  1  0
  9  7  1  0
  3 10  1  0
  5 11  1  0
  5 12  1  0
  6 13  1  0
  7 14  1  0
  8 15  1  0
  8 16  1  0
  9 17  1  0
M  END
