
     RDKit          3D

 17 18  0  0  0  0  0  0  0  0999 V2000
   -2.4491    1.7983    0.8457 O   0  0  0  0  0  0  0  0  0  0  0  0
   -1.5647    0.9204    0.6214 C   0  0  0  0  0  0  0  0  0  0  0  0
   -1.7659   -0.3642   -0.1107 C   0  0  0  0  0  0  0  0  0  0  0  0
   -0.4397   -1.0781    0.1865 C   0  0  0  0  0  0  0  0  0  0  0  0
    0.4735    0.0971    0.2780 C   0  0  0  0  0  0  0  0  0  0  0  0
    0.9640    0.6713   -1.0230 C   0  0  0  0  0  0  0  0  0  0  0  0
    2.1554    1.0137   -0.3456 O   0  0  0  0  0  0  0  0  0  0  0  0
    1.9084   -0.1111    0.4772 C   0  0  0  0  0  0  0  0  0  0  0  0
   -0.2214    1.0153    1.0343 O   0  0  0  0  0  0  0  0  0  0  0  0
   -1.8637   -0.1866   -1.2089 H   0  0  0  0  0  0  0  0  0  0  0  0
   -2.5989   -0.9512    0.2925 H   0  0  0  0  0  0  0  0  0  0  0  0
   -0.5522   -1.5029    1.2095 H   0  0  0  0  0  0  0  0  0  0  0  0
   -0.1825   -1.8135   -0.5699 H   0  0  0  0  0  0  0  0  0  0  0  0
    1.1593   -0.0512   -1.8138 H   0  0  0  0  0  0  0  0  0  0  0  0
    0.3700    1.5621   -1.3086 H   0  0  0  0  0  0  0  0  0  0  0  0
    2.2786   -1.0048   -0.0632 H   0  0  0  0  0  0  0  0  0  0  0  0
    2.3290   -0.0145    1.4986 H   0  0  0  0  0  0  0  0  0  0  0  0
  1  2  2  0
  2  3  1  0
  3  4  1  0
  4  5  1  0
  5  6  1  0
  6  7  1  0
  7  8  1  0
  5  9  1  0
  9  2  1  0
  8  5  1  0
  3 10  1  0
  3 11  1  0
  4 12  1  0
  4 13  1  0
  6 14  1  0
  6 15  1  0
  8 16  1  0
  8 17  1  0
M  END
