
     RDKit          3D

 17 17  0  0  0  0  0  0  0  0999 V2000
   -1.9738    1.5299   -1.5115 O   0  0  0  0  0  0  0  0  0  0  0  0
   -1.4190    0.9468   -0.6110 C   0  0  0  0  0  0  0  0  0  0  0  0
   -0.1427    1.3332    0.0250 C   0  0  0  0  0  0  0  0  0  0  0  0
    0.4958    0.0292    0.2933 C   0  0  0  0  0  0  0  0  0  0  0  0
    1.9643   -0.1850    0.4673 C   0  0  0  0  0  0  0  0  0  0  0  0
    2.6882    0.1913   -0.6505 O   0  0  0  0  0  0  0  0  0  0  0  0
   -0.4436   -0.8936    0.3506 C   0  0  0  0  0  0  0  0  0  0  0  0
   -1.8088   -0.2879    0.1225 C   0  0  0  0  0  0  0  0  0  0  0  0
   -2.5531   -1.1395   -0.7088 O   0  0  0  0  0  0  0  0  0  0  0  0
   -0.3890    1.8060    1.0003 H   0  0  0  0  0  0  0  0  0  0  0  0
    0.4751    1.9917   -0.6174 H   0  0  0  0  0  0  0  0  0  0  0  0
    2.1568   -1.2286    0.7793 H   0  0  0  0  0  0  0  0  0  0  0  0
    2.3146    0.4585    1.3087 H   0  0  0  0  0  0  0  0  0  0  0  0
    3.4342   -0.4773   -0.7447 H   0  0  0  0  0  0  0  0  0  0  0  0
   -0.3363   -1.9536    0.5303 H   0  0  0  0  0  0  0  0  0  0  0  0
   -2.3254   -0.0861    1.0726 H   0  0  0  0  0  0  0  0  0  0  0  0
   -2.1375   -2.0352   -0.6407 H   0  0  0  0  0  0  0  0  0  0  0  0
  1  2  2  0
  2  3  1  0
  3  4  1  0
  4  5  1  0
  5  6  1  0
  4  7  2  0
  7  8  1  0
  8  9  1  0
  8  2  1  0
  3 10  1  0
  3 11  1  0
  5 12  1  0
  5 13  1  0
  6 14  1  0
  7 15  1  0
  8 16  1  0
  9 17  1  0
M  END
