
     RDKit          3D

 10 11  0  0  0  0  0  0  0  0999 V2000
    2.4440    0.6448    0.8454 O   0  0  0  0  0  0  0  0  0  0  0  0
    1.3707    0.0800    0.4660 C   0  0  0  0  0  0  0  0  0  0  0  0
    0.9258   -1.2160    0.4109 O   0  0  0  0  0  0  0  0  0  0  0  0
   -0.1323   -0.7719   -0.4136 C   0  0  0  0  0  0  0  0  0  0  0  0
   -1.1929    0.0305    0.2037 C   0  0  0  0  0  0  0  0  0  0  0  0
    0.1299    0.6390   -0.0894 C   0  0  0  0  0  0  0  0  0  0  0  0
   -0.2242   -1.1629   -1.4252 H   0  0  0  0  0  0  0  0  0  0  0  0
   -1.4405   -0.0086    1.2843 H   0  0  0  0  0  0  0  0  0  0  0  0
   -2.0317    0.3177   -0.4534 H   0  0  0  0  0  0  0  0  0  0  0  0
    0.1513    1.4473   -0.8288 H   0  0  0  0  0  0  0  0  0  0  0  0
  1  2  2  0
  2  3  1  0
  3  4  1  0
  4  5  1  0
  5  6  1  0
  6  2  1  0
  6  4  1  0
  4  7  1  0
  5  8  1  0
  5  9  1  0
  6 10  1  0
M  END
