
     RDKit          3D

 17 17  0  0  0  0  0  0  0  0999 V2000
   -2.0683    2.2916   -1.1494 O   0  0  0  0  0  0  0  0  0  0  0  0
   -1.4341    1.2531   -0.8095 C   0  0  0  0  0  0  0  0  0  0  0  0
   -2.1632   -0.0059   -0.7342 C   0  0  0  0  0  0  0  0  0  0  0  0
   -1.5045   -1.0872   -0.3857 C   0  0  0  0  0  0  0  0  0  0  0  0
   -0.0611   -1.0412   -0.0788 C   0  0  0  0  0  0  0  0  0  0  0  0
    0.3099    0.2933    0.4550 C   0  0  0  0  0  0  0  0  0  0  0  0
    1.7699    0.3906    0.8317 C   0  0  0  0  0  0  0  0  0  0  0  0
    2.6068    0.2152   -0.2591 O   0  0  0  0  0  0  0  0  0  0  0  0
   -0.0522    1.2787   -0.5052 O   0  0  0  0  0  0  0  0  0  0  0  0
   -3.2136   -0.0775   -0.9527 H   0  0  0  0  0  0  0  0  0  0  0  0
   -2.0663   -2.0269   -0.3308 H   0  0  0  0  0  0  0  0  0  0  0  0
    0.2509   -1.8859    0.5713 H   0  0  0  0  0  0  0  0  0  0  0  0
    0.4564   -1.2245   -1.0498 H   0  0  0  0  0  0  0  0  0  0  0  0
   -0.2534    0.5101    1.3821 H   0  0  0  0  0  0  0  0  0  0  0  0
    1.9596   -0.4379    1.5474 H   0  0  0  0  0  0  0  0  0  0  0  0
    1.9263    1.3349    1.3694 H   0  0  0  0  0  0  0  0  0  0  0  0
    3.5368    0.2197    0.0983 H   0  0  0  0  0  0  0  0  0  0  0  0
  1  2  2  0
  2  3  1  0
  3  4  2  0
  4  5  1  0
  5  6  1  0
  6  7  1  0
  7  8  1  0
  6  9  1  0
  9  2  1  0
  3 10  1  0
  4 11  1  0
  5 12  1  0
  5 13  1  0
  6 14  1  0
  7 15  1  0
  7 16  1  0
  8 17  1  0
M  END
