
     RDKit          3D

 17 18  0  0  0  0  0  0  0  0999 V2000
   -3.0404    0.3635    0.0237 O   0  0  0  0  0  0  0  0  0  0  0  0
   -1.8425    0.1739   -0.0914 C   0  0  0  0  0  0  0  0  0  0  0  0
   -0.5783    0.9187    0.1827 C   0  0  0  0  0  0  0  0  0  0  0  0
   -0.5762    1.6869    1.3274 O   0  0  0  0  0  0  0  0  0  0  0  0
    0.2290   -0.3188    0.1719 C   0  0  0  0  0  0  0  0  0  0  0  0
    1.5694   -0.2308   -0.4904 C   0  0  0  0  0  0  0  0  0  0  0  0
    2.3057    0.7525    0.2091 O   0  0  0  0  0  0  0  0  0  0  0  0
   -0.2667   -1.6635    0.4900 C   0  0  0  0  0  0  0  0  0  0  0  0
   -0.9423   -0.9330   -0.5815 C   0  0  0  0  0  0  0  0  0  0  0  0
   -0.3556    1.5366   -0.7371 H   0  0  0  0  0  0  0  0  0  0  0  0
   -0.5752    2.6634    1.0713 H   0  0  0  0  0  0  0  0  0  0  0  0
    1.4999    0.1466   -1.5388 H   0  0  0  0  0  0  0  0  0  0  0  0
    2.1520   -1.1777   -0.4240 H   0  0  0  0  0  0  0  0  0  0  0  0
    1.7405    1.5624    0.3464 H   0  0  0  0  0  0  0  0  0  0  0  0
   -0.8003   -1.8213    1.4700 H   0  0  0  0  0  0  0  0  0  0  0  0
    0.3493   -2.5197    0.2116 H   0  0  0  0  0  0  0  0  0  0  0  0
   -0.8685   -1.1397   -1.6409 H   0  0  0  0  0  0  0  0  0  0  0  0
  1  2  2  0
  2  3  1  0
  3  4  1  0
  3  5  1  0
  5  6  1  0
  6  7  1  0
  5  8  1  0
  8  9  1  0
  9  2  1  0
  9  5  1  0
  3 10  1  0
  4 11  1  0
  6 12  1  0
  6 13  1  0
  7 14  1  0
  8 15  1  0
  8 16  1  0
  9 17  1  0
M  END
