
     RDKit          3D

 17 18  0  0  0  0  0  0  0  0999 V2000
    2.7654    0.6020    0.5857 O   0  0  0  0  0  0  0  0  0  0  0  0
    1.7289    0.2767    0.0140 C   0  0  0  0  0  0  0  0  0  0  0  0
    0.6181    0.9018   -0.7205 C   0  0  0  0  0  0  0  0  0  0  0  0
   -0.5198    1.1229    0.2360 C   0  0  0  0  0  0  0  0  0  0  0  0
   -1.2637   -0.2196    0.3401 C   0  0  0  0  0  0  0  0  0  0  0  0
   -1.7039   -0.4994   -0.9566 O   0  0  0  0  0  0  0  0  0  0  0  0
   -0.1416   -1.1879    0.7371 C   0  0  0  0  0  0  0  0  0  0  0  0
    0.9699   -0.9650   -0.2790 C   0  0  0  0  0  0  0  0  0  0  0  0
    0.4850   -0.3136   -1.4260 O   0  0  0  0  0  0  0  0  0  0  0  0
    0.8584    1.7642   -1.3601 H   0  0  0  0  0  0  0  0  0  0  0  0
   -0.1127    1.2889    1.2747 H   0  0  0  0  0  0  0  0  0  0  0  0
   -1.2014    1.9254   -0.0420 H   0  0  0  0  0  0  0  0  0  0  0  0
   -2.0665   -0.1889    1.0759 H   0  0  0  0  0  0  0  0  0  0  0  0
   -1.7624    0.3388   -1.5143 H   0  0  0  0  0  0  0  0  0  0  0  0
   -0.4722   -2.2135    0.8041 H   0  0  0  0  0  0  0  0  0  0  0  0
    0.2484   -0.7659    1.7031 H   0  0  0  0  0  0  0  0  0  0  0  0
    1.5701   -1.8670   -0.4724 H   0  0  0  0  0  0  0  0  0  0  0  0
  1  2  2  0
  2  3  1  0
  3  4  1  0
  4  5  1  0
  5  6  1  0
  5  7  1  0
  7  8  1  0
  8  9  1  0
  8  2  1  0
  9  3  1  0
  3 10  1  0
  4 11  1  0
  4 12  1  0
  5 13  1  0
  6 14  1  0
  7 15  1  0
  7 16  1  0
  8 17  1  0
M  END
