
     RDKit          2D

 15 18  0  0  0  0  0  0  0  0999 V2000
    3.8149    2.9863    0.0000 O   0  0  0  0  0  0  0  0  0  0  0  0
    2.3660    2.5981    0.0000 C   0  0  0  0  0  0  0  0  0  0  0  0
    1.6160    1.2990    0.0000 C   0  0  0  0  0  0  0  0  0  0  0  0
    0.8660    0.0000    0.0000 C   0  0  0  0  0  0  0  0  0  0  0  0
   -0.4330    0.7500    0.0000 C   0  0  0  0  0  0  0  0  0  0  0  0
    0.3170    2.0490    0.0000 C   0  0  0  0  0  0  0  0  0  0  0  0
    1.0670    3.3481    0.0000 C   0  0  0  0  0  0  0  0  0  0  0  0
    0.6788    4.7970    0.0000 O   0  0  0  0  0  0  0  0  0  0  0  0
   -0.4330   -0.7500    0.0000 C   0  0  0  0  0  0  0  0  0  0  0  0
    2.9151    0.5490    0.0000 H   0  0  0  0  0  0  0  0  0  0  0  0
    1.9267   -1.0607    0.0000 H   0  0  0  0  0  0  0  0  0  0  0  0
   -1.8819    1.1382    0.0000 H   0  0  0  0  0  0  0  0  0  0  0  0
   -0.9821    2.7990    0.0000 H   0  0  0  0  0  0  0  0  0  0  0  0
    1.7394    5.8576    0.0000 H   0  0  0  0  0  0  0  0  0  0  0  0
   -1.1830   -2.0490    0.0000 H   0  0  0  0  0  0  0  0  0  0  0  0
  1  2  2  0
  2  3  1  0
  3  4  1  0
  4  5  1  0
  5  6  1  0
  6  7  1  0
  7  8  1  0
  7  9  1  0
  7  2  1  0
  6  3  1  0
  9  4  1  0
  9  5  1  0
  3 10  1  0
  4 11  1  0
  5 12  1  0
  6 13  1  0
  8 14  1  0
  9 15  1  0
M  END
