
     RDKit          3D

 17 18  0  0  0  0  0  0  0  0999 V2000
   -0.6718    2.2350    0.0636 O   0  0  0  0  0  0  0  0  0  0  0  0
   -0.2024    1.1236    0.1121 C   0  0  0  0  0  0  0  0  0  0  0  0
    1.2303    0.9860    0.5001 C   0  0  0  0  0  0  0  0  0  0  0  0
    1.8360   -0.0260   -0.4428 C   0  0  0  0  0  0  0  0  0  0  0  0
    1.1937   -1.2305   -0.4631 O   0  0  0  0  0  0  0  0  0  0  0  0
   -0.0125   -1.2781    0.1819 C   0  0  0  0  0  0  0  0  0  0  0  0
   -0.9377   -0.1284   -0.1846 C   0  0  0  0  0  0  0  0  0  0  0  0
   -2.3277   -0.2085   -0.0065 C   0  0  0  0  0  0  0  0  0  0  0  0
   -1.6565   -0.2516   -1.3515 O   0  0  0  0  0  0  0  0  0  0  0  0
    1.2504    0.6179    1.5466 H   0  0  0  0  0  0  0  0  0  0  0  0
    1.7864    1.9252    0.4204 H   0  0  0  0  0  0  0  0  0  0  0  0
    1.8247    0.4361   -1.4699 H   0  0  0  0  0  0  0  0  0  0  0  0
    2.9164   -0.1840   -0.1941 H   0  0  0  0  0  0  0  0  0  0  0  0
    0.1577   -1.3171    1.2885 H   0  0  0  0  0  0  0  0  0  0  0  0
   -0.5312   -2.2102   -0.1263 H   0  0  0  0  0  0  0  0  0  0  0  0
   -2.9757    0.6769   -0.0152 H   0  0  0  0  0  0  0  0  0  0  0  0
   -2.8800   -1.1663    0.1410 H   0  0  0  0  0  0  0  0  0  0  0  0
  1  2  2  0
  2  3  1  0
  3  4  1  0
  4  5  1  0
  5  6  1  0
  6  7  1  0
  7  8  1  0
  8  9  1  0
  7  2  1  0
  9  7  1  0
  3 10  1  0
  3 11  1  0
  4 12  1  0
  4 13  1  0
  6 14  1  0
  6 15  1  0
  8 16  1  0
  8 17  1  0
M  END
