
     RDKit          3D

 19 19  0  0  0  0  0  0  0  0999 V2000
    2.5171   -0.9902   -0.6274 O   0  0  0  0  0  0  0  0  0  0  0  0
    1.5126   -0.5550   -0.1504 C   0  0  0  0  0  0  0  0  0  0  0  0
    0.5441   -1.4045    0.5910 C   0  0  0  0  0  0  0  0  0  0  0  0
   -0.7267   -1.3445   -0.2194 C   0  0  0  0  0  0  0  0  0  0  0  0
   -1.2435    0.0339   -0.4201 C   0  0  0  0  0  0  0  0  0  0  0  0
   -2.0871    0.3203    0.6814 O   0  0  0  0  0  0  0  0  0  0  0  0
   -0.2787    1.1098   -0.6356 C   0  0  0  0  0  0  0  0  0  0  0  0
    1.1414    0.8722   -0.2550 C   0  0  0  0  0  0  0  0  0  0  0  0
    1.4252    1.4473    1.0059 O   0  0  0  0  0  0  0  0  0  0  0  0
    0.3765   -0.9093    1.5841 H   0  0  0  0  0  0  0  0  0  0  0  0
    0.8495   -2.4442    0.6905 H   0  0  0  0  0  0  0  0  0  0  0  0
   -1.4757   -1.9834    0.2903 H   0  0  0  0  0  0  0  0  0  0  0  0
   -0.5112   -1.8227   -1.2033 H   0  0  0  0  0  0  0  0  0  0  0  0
   -1.9615   -0.0036   -1.2934 H   0  0  0  0  0  0  0  0  0  0  0  0
   -1.6616    0.9932    1.2701 H   0  0  0  0  0  0  0  0  0  0  0  0
   -0.2717    1.4672   -1.7057 H   0  0  0  0  0  0  0  0  0  0  0  0
   -0.6135    2.0196   -0.0548 H   0  0  0  0  0  0  0  0  0  0  0  0
    1.8554    1.3528   -0.9549 H   0  0  0  0  0  0  0  0  0  0  0  0
    0.6094    1.8411    1.4068 H   0  0  0  0  0  0  0  0  0  0  0  0
  1  2  2  0
  2  3  1  0
  3  4  1  0
  4  5  1  0
  5  6  1  0
  5  7  1  0
  7  8  1  0
  8  9  1  0
  8  2  1  0
  3 10  1  0
  3 11  1  0
  4 12  1  0
  4 13  1  0
  5 14  1  0
  6 15  1  0
  7 16  1  0
  7 17  1  0
  8 18  1  0
  9 19  1  0
M  END
