
     RDKit          3D

 17 18  0  0  0  0  0  0  0  0999 V2000
    1.2854    2.2744    0.6456 O   0  0  0  0  0  0  0  0  0  0  0  0
    1.1744    1.0846    0.4719 C   0  0  0  0  0  0  0  0  0  0  0  0
    2.1333   -0.0368    0.3513 C   0  0  0  0  0  0  0  0  0  0  0  0
    1.0717   -0.7454   -0.5018 C   0  0  0  0  0  0  0  0  0  0  0  0
    0.0822    0.1156    0.2898 C   0  0  0  0  0  0  0  0  0  0  0  0
   -0.3072   -0.5868    1.4263 O   0  0  0  0  0  0  0  0  0  0  0  0
   -1.0745    0.5417   -0.5511 C   0  0  0  0  0  0  0  0  0  0  0  0
   -2.4562    0.0693   -0.1400 C   0  0  0  0  0  0  0  0  0  0  0  0
   -2.0093    1.3766    0.0481 O   0  0  0  0  0  0  0  0  0  0  0  0
    3.0481    0.1458   -0.2112 H   0  0  0  0  0  0  0  0  0  0  0  0
    2.3620   -0.5682    1.2929 H   0  0  0  0  0  0  0  0  0  0  0  0
    0.9900   -1.8171   -0.3423 H   0  0  0  0  0  0  0  0  0  0  0  0
    1.1365   -0.3667   -1.5287 H   0  0  0  0  0  0  0  0  0  0  0  0
   -0.7089   -1.4454    1.1335 H   0  0  0  0  0  0  0  0  0  0  0  0
   -0.9417    0.5782   -1.6489 H   0  0  0  0  0  0  0  0  0  0  0  0
   -2.5331   -0.6066    0.7328 H   0  0  0  0  0  0  0  0  0  0  0  0
   -3.2527   -0.0133   -0.8943 H   0  0  0  0  0  0  0  0  0  0  0  0
  1  2  2  0
  2  3  1  0
  3  4  1  0
  4  5  1  0
  5  6  1  0
  5  7  1  0
  7  8  1  0
  8  9  1  0
  5  2  1  0
  9  7  1  0
  3 10  1  0
  3 11  1  0
  4 12  1  0
  4 13  1  0
  6 14  1  0
  7 15  1  0
  8 16  1  0
  8 17  1  0
M  END
