
     RDKit          3D

 17 18  0  0  0  0  0  0  0  0999 V2000
    2.4497    0.9590    0.7323 O   0  0  0  0  0  0  0  0  0  0  0  0
    1.3688    0.5613    0.2483 C   0  0  0  0  0  0  0  0  0  0  0  0
    0.7905    1.3157   -0.8657 C   0  0  0  0  0  0  0  0  0  0  0  0
   -0.5575    1.2743   -0.9994 C   0  0  0  0  0  0  0  0  0  0  0  0
   -1.2058    0.4709    0.0098 C   0  0  0  0  0  0  0  0  0  0  0  0
   -1.8466   -0.7855    0.0071 C   0  0  0  0  0  0  0  0  0  0  0  0
   -0.4488   -0.8974   -0.1101 C   0  0  0  0  0  0  0  0  0  0  0  0
    0.6942   -0.6627    0.8086 C   0  0  0  0  0  0  0  0  0  0  0  0
    1.5719   -1.7382    0.7707 O   0  0  0  0  0  0  0  0  0  0  0  0
    1.3874    1.8933   -1.5689 H   0  0  0  0  0  0  0  0  0  0  0  0
   -1.0060    1.8104   -1.7972 H   0  0  0  0  0  0  0  0  0  0  0  0
   -1.1495    0.9933    1.0126 H   0  0  0  0  0  0  0  0  0  0  0  0
   -2.3759   -1.1287    0.9320 H   0  0  0  0  0  0  0  0  0  0  0  0
   -2.4811   -1.0537   -0.8829 H   0  0  0  0  0  0  0  0  0  0  0  0
   -0.0417   -1.1533   -1.1371 H   0  0  0  0  0  0  0  0  0  0  0  0
    0.3761   -0.4952    1.8562 H   0  0  0  0  0  0  0  0  0  0  0  0
    2.4741   -1.3635    0.9836 H   0  0  0  0  0  0  0  0  0  0  0  0
  1  2  2  0
  2  3  1  0
  3  4  2  0
  4  5  1  0
  5  6  1  0
  6  7  1  0
  7  8  1  0
  8  9  1  0
  8  2  1  0
  7  5  1  0
  3 10  1  0
  4 11  1  0
  5 12  1  0
  6 13  1  0
  6 14  1  0
  7 15  1  0
  8 16  1  0
  9 17  1  0
M  END
