
     RDKit          3D

 15 16  0  0  0  0  0  0  0  0999 V2000
    3.6024   -0.2665    0.3300 O   0  0  0  0  0  0  0  0  0  0  0  0
    2.3518   -0.1488    0.2685 C   0  0  0  0  0  0  0  0  0  0  0  0
    1.3747   -1.1205    0.1482 O   0  0  0  0  0  0  0  0  0  0  0  0
    0.2799   -0.5188   -0.4735 C   0  0  0  0  0  0  0  0  0  0  0  0
   -1.0498   -0.9133    0.1550 C   0  0  0  0  0  0  0  0  0  0  0  0
   -1.6303    0.4391    0.4785 C   0  0  0  0  0  0  0  0  0  0  0  0
   -0.5070    1.0957    1.0157 O   0  0  0  0  0  0  0  0  0  0  0  0
    0.3809    0.9336   -0.0574 C   0  0  0  0  0  0  0  0  0  0  0  0
    1.7148    1.0846    0.3170 O   0  0  0  0  0  0  0  0  0  0  0  0
    0.2477   -0.6468   -1.5708 H   0  0  0  0  0  0  0  0  0  0  0  0
   -1.6555   -1.4898   -0.5659 H   0  0  0  0  0  0  0  0  0  0  0  0
   -0.8633   -1.4539    1.1055 H   0  0  0  0  0  0  0  0  0  0  0  0
   -2.4763    0.4237    1.1535 H   0  0  0  0  0  0  0  0  0  0  0  0
   -1.8257    0.9562   -0.4967 H   0  0  0  0  0  0  0  0  0  0  0  0
    0.0555    1.6256   -0.8547 H   0  0  0  0  0  0  0  0  0  0  0  0
  1  2  2  0
  2  3  1  0
  3  4  1  0
  4  5  1  0
  5  6  1  0
  6  7  1  0
  7  8  1  0
  8  9  1  0
  9  2  1  0
  8  4  1  0
  4 10  1  0
  5 11  1  0
  5 12  1  0
  6 13  1  0
  6 14  1  0
  8 15  1  0
M  END
