
     RDKit          3D

 15 17  0  0  0  0  0  0  0  0999 V2000
    2.3896   -0.0181    2.1146 O   0  0  0  0  0  0  0  0  0  0  0  0
    1.5528   -0.2698    1.2241 C   0  0  0  0  0  0  0  0  0  0  0  0
    0.9416   -1.4286    0.7779 O   0  0  0  0  0  0  0  0  0  0  0  0
    0.2902   -0.8581   -0.3520 C   0  0  0  0  0  0  0  0  0  0  0  0
   -1.1907   -0.7803   -0.3421 C   0  0  0  0  0  0  0  0  0  0  0  0
   -1.5540    0.5245    0.2494 C   0  0  0  0  0  0  0  0  0  0  0  0
   -0.4449    1.1658    0.5364 C   0  0  0  0  0  0  0  0  0  0  0  0
    0.7968    0.4688    0.2173 C   0  0  0  0  0  0  0  0  0  0  0  0
    1.0347    0.0792   -1.2206 C   0  0  0  0  0  0  0  0  0  0  0  0
   -1.6712   -1.5858    0.2702 H   0  0  0  0  0  0  0  0  0  0  0  0
   -1.5868   -0.8427   -1.3977 H   0  0  0  0  0  0  0  0  0  0  0  0
   -2.6004    0.8709    0.4093 H   0  0  0  0  0  0  0  0  0  0  0  0
   -0.4754    2.1729    0.9922 H   0  0  0  0  0  0  0  0  0  0  0  0
    2.0567   -0.1642   -1.5363 H   0  0  0  0  0  0  0  0  0  0  0  0
    0.4608    0.6657   -1.9428 H   0  0  0  0  0  0  0  0  0  0  0  0
  1  2  2  0
  2  3  1  0
  3  4  1  0
  4  5  1  0
  5  6  1  0
  6  7  2  0
  7  8  1  0
  8  9  1  0
  8  2  1  0
  8  4  1  0
  9  4  1  0
  5 10  1  0
  5 11  1  0
  6 12  1  0
  7 13  1  0
  9 14  1  0
  9 15  1  0
M  END
