
     RDKit          3D

 17 19  0  0  0  0  0  0  0  0999 V2000
   -2.3800    0.3550    1.1560 O   0  0  0  0  0  0  0  0  0  0  0  0
   -1.4891    0.2003    0.3648 C   0  0  0  0  0  0  0  0  0  0  0  0
   -0.8588    1.3739   -0.2642 C   0  0  0  0  0  0  0  0  0  0  0  0
    0.6406    1.0996   -0.3254 C   0  0  0  0  0  0  0  0  0  0  0  0
    0.9680    0.2881   -1.4270 O   0  0  0  0  0  0  0  0  0  0  0  0
    1.4442   -0.6637   -0.5509 C   0  0  0  0  0  0  0  0  0  0  0  0
    0.4595   -1.2796    0.3606 C   0  0  0  0  0  0  0  0  0  0  0  0
   -1.0269   -1.1547    0.0233 C   0  0  0  0  0  0  0  0  0  0  0  0
    1.0173    0.0398    0.6539 C   0  0  0  0  0  0  0  0  0  0  0  0
   -1.2327    1.5719   -1.2886 H   0  0  0  0  0  0  0  0  0  0  0  0
   -0.9782    2.2961    0.3236 H   0  0  0  0  0  0  0  0  0  0  0  0
    1.2269    2.0111   -0.3528 H   0  0  0  0  0  0  0  0  0  0  0  0
    2.4623   -1.0697   -0.6651 H   0  0  0  0  0  0  0  0  0  0  0  0
    0.7701   -2.1127    1.0199 H   0  0  0  0  0  0  0  0  0  0  0  0
   -1.1232   -1.2573   -1.0947 H   0  0  0  0  0  0  0  0  0  0  0  0
   -1.5603   -1.9556    0.5485 H   0  0  0  0  0  0  0  0  0  0  0  0
    1.6604    0.2575    1.5183 H   0  0  0  0  0  0  0  0  0  0  0  0
  1  2  2  0
  2  3  1  0
  3  4  1  0
  4  5  1  0
  5  6  1  0
  6  7  1  0
  7  8  1  0
  7  9  1  0
  8  2  1  0
  9  4  1  0
  9  6  1  0
  3 10  1  0
  3 11  1  0
  4 12  1  0
  6 13  1  0
  7 14  1  0
  8 15  1  0
  8 16  1  0
  9 17  1  0
M  END
