
     RDKit          3D

 17 17  0  0  0  0  0  0  0  0999 V2000
    0.6563    0.6228    2.0126 O   0  0  0  0  0  0  0  0  0  0  0  0
    0.7404    0.4627    0.8242 C   0  0  0  0  0  0  0  0  0  0  0  0
    1.9295    0.6624   -0.0873 C   0  0  0  0  0  0  0  0  0  0  0  0
    1.8522   -0.3749   -0.9766 O   0  0  0  0  0  0  0  0  0  0  0  0
    0.5447   -0.7589   -1.1231 C   0  0  0  0  0  0  0  0  0  0  0  0
   -0.3011    0.0108   -0.1651 C   0  0  0  0  0  0  0  0  0  0  0  0
   -0.8684    1.1479   -0.6928 O   0  0  0  0  0  0  0  0  0  0  0  0
   -1.3419   -0.8571    0.5041 C   0  0  0  0  0  0  0  0  0  0  0  0
   -1.9605   -0.1675    1.5345 O   0  0  0  0  0  0  0  0  0  0  0  0
    1.6939    1.6095   -0.6511 H   0  0  0  0  0  0  0  0  0  0  0  0
    2.8655    0.7290    0.4664 H   0  0  0  0  0  0  0  0  0  0  0  0
    0.4883   -1.8426   -0.8076 H   0  0  0  0  0  0  0  0  0  0  0  0
    0.2340   -0.6525   -2.1823 H   0  0  0  0  0  0  0  0  0  0  0  0
   -0.9409    1.8093    0.0516 H   0  0  0  0  0  0  0  0  0  0  0  0
   -0.8564   -1.7853    0.8255 H   0  0  0  0  0  0  0  0  0  0  0  0
   -2.1124   -1.0745   -0.2630 H   0  0  0  0  0  0  0  0  0  0  0  0
   -2.6231    0.4589    1.1567 H   0  0  0  0  0  0  0  0  0  0  0  0
  1  2  2  0
  2  3  1  0
  3  4  1  0
  4  5  1  0
  5  6  1  0
  6  7  1  0
  6  8  1  0
  8  9  1  0
  6  2  1  0
  3 10  1  0
  3 11  1  0
  5 12  1  0
  5 13  1  0
  7 14  1  0
  8 15  1  0
  8 16  1  0
  9 17  1  0
M  END
