
     RDKit          3D

 15 16  0  0  0  0  0  0  0  0999 V2000
    1.1319   -2.0759   -0.7814 O   0  0  0  0  0  0  0  0  0  0  0  0
    0.8975   -0.9329   -0.3180 C   0  0  0  0  0  0  0  0  0  0  0  0
    1.9245    0.0997   -0.2127 C   0  0  0  0  0  0  0  0  0  0  0  0
    1.5024    1.0654    0.6056 C   0  0  0  0  0  0  0  0  0  0  0  0
    0.1682    0.7216    1.0873 C   0  0  0  0  0  0  0  0  0  0  0  0
   -0.3695    1.2823    2.0809 O   0  0  0  0  0  0  0  0  0  0  0  0
   -0.3145   -0.3301    0.2017 C   0  0  0  0  0  0  0  0  0  0  0  0
   -1.6646   -0.8217    0.1012 C   0  0  0  0  0  0  0  0  0  0  0  0
   -1.2726    0.1905   -0.8889 C   0  0  0  0  0  0  0  0  0  0  0  0
    2.8872    0.0663   -0.7346 H   0  0  0  0  0  0  0  0  0  0  0  0
    2.0782    1.9650    0.8631 H   0  0  0  0  0  0  0  0  0  0  0  0
   -2.3781   -0.5071    0.9165 H   0  0  0  0  0  0  0  0  0  0  0  0
   -1.8497   -1.8566   -0.2180 H   0  0  0  0  0  0  0  0  0  0  0  0
   -1.0411   -0.0615   -1.9382 H   0  0  0  0  0  0  0  0  0  0  0  0
   -1.6999    1.1951   -0.7646 H   0  0  0  0  0  0  0  0  0  0  0  0
  1  2  2  0
  2  3  1  0
  3  4  2  0
  4  5  1  0
  5  6  2  0
  5  7  1  0
  7  8  1  0
  8  9  1  0
  7  2  1  0
  9  7  1  0
  3 10  1  0
  4 11  1  0
  8 12  1  0
  8 13  1  0
  9 14  1  0
  9 15  1  0
M  END
