
     RDKit          3D

 15 16  0  0  0  0  0  0  0  0999 V2000
    0.6694    2.4201   -0.1819 O   0  0  0  0  0  0  0  0  0  0  0  0
    0.7823    1.2004    0.0526 C   0  0  0  0  0  0  0  0  0  0  0  0
    1.7891    0.2339   -0.3845 C   0  0  0  0  0  0  0  0  0  0  0  0
    1.3232   -0.9802   -0.1747 C   0  0  0  0  0  0  0  0  0  0  0  0
   -0.0373   -0.9359    0.4217 C   0  0  0  0  0  0  0  0  0  0  0  0
   -0.9675   -1.0666   -0.5975 O   0  0  0  0  0  0  0  0  0  0  0  0
   -1.8123    0.0079   -0.5599 C   0  0  0  0  0  0  0  0  0  0  0  0
   -1.4732    0.8077    0.5140 O   0  0  0  0  0  0  0  0  0  0  0  0
   -0.1980    0.4618    0.9068 C   0  0  0  0  0  0  0  0  0  0  0  0
    2.7470    0.5351   -0.8058 H   0  0  0  0  0  0  0  0  0  0  0  0
    1.8884   -1.8893   -0.4183 H   0  0  0  0  0  0  0  0  0  0  0  0
   -0.1710   -1.7116    1.2014 H   0  0  0  0  0  0  0  0  0  0  0  0
   -2.8914   -0.2832   -0.4580 H   0  0  0  0  0  0  0  0  0  0  0  0
   -1.6471    0.6087   -1.4949 H   0  0  0  0  0  0  0  0  0  0  0  0
   -0.0014    0.5911    1.9790 H   0  0  0  0  0  0  0  0  0  0  0  0
  1  2  2  0
  2  3  1  0
  3  4  2  0
  4  5  1  0
  5  6  1  0
  6  7  1  0
  7  8  1  0
  8  9  1  0
  9  2  1  0
  9  5  1  0
  3 10  1  0
  4 11  1  0
  5 12  1  0
  7 13  1  0
  7 14  1  0
  9 15  1  0
M  END
