
     RDKit          3D

 17 18  0  0  0  0  0  0  0  0999 V2000
   -0.7430    2.5246   -0.4502 O   0  0  0  0  0  0  0  0  0  0  0  0
   -0.5420    1.3647   -0.1416 C   0  0  0  0  0  0  0  0  0  0  0  0
   -1.4443    0.2361   -0.5877 C   0  0  0  0  0  0  0  0  0  0  0  0
   -0.6078   -0.9636   -0.1852 C   0  0  0  0  0  0  0  0  0  0  0  0
   -0.1501   -0.4796    1.2077 C   0  0  0  0  0  0  0  0  0  0  0  0
    0.5281    0.7917    0.6707 C   0  0  0  0  0  0  0  0  0  0  0  0
    1.5292    0.1181   -0.2795 C   0  0  0  0  0  0  0  0  0  0  0  0
    0.6997   -0.9671   -0.8698 C   0  0  0  0  0  0  0  0  0  0  0  0
    1.0645   -1.7040   -1.7544 O   0  0  0  0  0  0  0  0  0  0  0  0
   -2.3541    0.2294    0.0161 H   0  0  0  0  0  0  0  0  0  0  0  0
   -1.6329    0.2722   -1.6683 H   0  0  0  0  0  0  0  0  0  0  0  0
   -1.1352   -1.8988   -0.1533 H   0  0  0  0  0  0  0  0  0  0  0  0
   -0.9919   -0.2560    1.8568 H   0  0  0  0  0  0  0  0  0  0  0  0
    0.5706   -1.2078    1.5737 H   0  0  0  0  0  0  0  0  0  0  0  0
    0.9762    1.3990    1.4238 H   0  0  0  0  0  0  0  0  0  0  0  0
    1.9002    0.8238   -1.0369 H   0  0  0  0  0  0  0  0  0  0  0  0
    2.3326   -0.2827    0.3781 H   0  0  0  0  0  0  0  0  0  0  0  0
  1  2  2  0
  2  3  1  0
  3  4  1  0
  4  5  1  0
  5  6  1  0
  6  7  1  0
  7  8  1  0
  8  9  2  0
  6  2  1  0
  8  4  1  0
  3 10  1  0
  3 11  1  0
  4 12  1  0
  5 13  1  0
  5 14  1  0
  6 15  1  0
  7 16  1  0
  7 17  1  0
M  END
