
     RDKit          3D

 17 18  0  0  0  0  0  0  0  0999 V2000
    2.1118    1.5796    0.8282 O   0  0  0  0  0  0  0  0  0  0  0  0
    1.4714    0.6866    0.3151 C   0  0  0  0  0  0  0  0  0  0  0  0
    1.4385   -0.7692    0.5008 C   0  0  0  0  0  0  0  0  0  0  0  0
    0.4145   -0.8515   -0.6067 C   0  0  0  0  0  0  0  0  0  0  0  0
   -0.9340   -1.1596   -0.1085 C   0  0  0  0  0  0  0  0  0  0  0  0
   -1.5095   -2.2054   -0.2075 O   0  0  0  0  0  0  0  0  0  0  0  0
   -1.4691    0.0480    0.5426 C   0  0  0  0  0  0  0  0  0  0  0  0
   -0.9243    1.1510   -0.3180 C   0  0  0  0  0  0  0  0  0  0  0  0
    0.4225    0.6502   -0.7398 C   0  0  0  0  0  0  0  0  0  0  0  0
    2.3878   -1.3066    0.2794 H   0  0  0  0  0  0  0  0  0  0  0  0
    1.0786   -1.1214    1.5017 H   0  0  0  0  0  0  0  0  0  0  0  0
    0.7615   -1.4159   -1.4892 H   0  0  0  0  0  0  0  0  0  0  0  0
   -1.0938    0.2074    1.5675 H   0  0  0  0  0  0  0  0  0  0  0  0
   -2.5748    0.0536    0.6068 H   0  0  0  0  0  0  0  0  0  0  0  0
   -1.5421    1.3309   -1.2134 H   0  0  0  0  0  0  0  0  0  0  0  0
   -0.7707    2.0951    0.2740 H   0  0  0  0  0  0  0  0  0  0  0  0
    0.7314    1.0270   -1.7331 H   0  0  0  0  0  0  0  0  0  0  0  0
  1  2  2  0
  2  3  1  0
  3  4  1  0
  4  5  1  0
  5  6  2  0
  5  7  1  0
  7  8  1  0
  8  9  1  0
  9  2  1  0
  9  4  1  0
  3 10  1  0
  3 11  1  0
  4 12  1  0
  7 13  1  0
  7 14  1  0
  8 15  1  0
  8 16  1  0
  9 17  1  0
M  END
