
     RDKit          3D

 14 14  0  0  0  0  0  0  0  0999 V2000
    2.4286    0.3622   -1.1131 O   0  0  0  0  0  0  0  0  0  0  0  0
    1.3755    0.2053   -0.4484 C   0  0  0  0  0  0  0  0  0  0  0  0
    0.7370   -1.0632    0.0181 C   0  0  0  0  0  0  0  0  0  0  0  0
   -0.7346   -0.6515    0.0360 C   0  0  0  0  0  0  0  0  0  0  0  0
   -1.1035   -0.4526   -1.2855 O   0  0  0  0  0  0  0  0  0  0  0  0
   -0.6092    0.6843    0.7832 C   0  0  0  0  0  0  0  0  0  0  0  0
    0.5175    1.3064    0.0267 C   0  0  0  0  0  0  0  0  0  0  0  0
    0.6414    2.5335   -0.1309 O   0  0  0  0  0  0  0  0  0  0  0  0
    1.0309   -1.2658    1.0686 H   0  0  0  0  0  0  0  0  0  0  0  0
    0.9215   -1.9041   -0.6641 H   0  0  0  0  0  0  0  0  0  0  0  0
   -1.3562   -1.3670    0.5774 H   0  0  0  0  0  0  0  0  0  0  0  0
   -1.9980   -0.0646   -1.3960 H   0  0  0  0  0  0  0  0  0  0  0  0
   -0.3129    0.4155    1.8144 H   0  0  0  0  0  0  0  0  0  0  0  0
   -1.5380    1.2617    0.7135 H   0  0  0  0  0  0  0  0  0  0  0  0
  1  2  2  0
  2  3  1  0
  3  4  1  0
  4  5  1  0
  4  6  1  0
  6  7  1  0
  7  8  2  0
  7  2  1  0
  3  9  1  0
  3 10  1  0
  4 11  1  0
  5 12  1  0
  6 13  1  0
  6 14  1  0
M  END
