
     RDKit          3D

 14 15  0  0  0  0  0  0  0  0999 V2000
    0.7342    2.3408    1.1036 O   0  0  0  0  0  0  0  0  0  0  0  0
    0.1595    1.3025    0.6976 C   0  0  0  0  0  0  0  0  0  0  0  0
   -1.0392    0.8191    1.2020 O   0  0  0  0  0  0  0  0  0  0  0  0
   -1.4353   -0.3460    0.4687 C   0  0  0  0  0  0  0  0  0  0  0  0
   -0.7182   -0.1288   -0.8739 C   0  0  0  0  0  0  0  0  0  0  0  0
    0.5825    0.3990   -0.3430 C   0  0  0  0  0  0  0  0  0  0  0  0
    1.6456   -0.6626   -0.0539 C   0  0  0  0  0  0  0  0  0  0  0  0
    1.7351    0.4161   -1.0210 O   0  0  0  0  0  0  0  0  0  0  0  0
   -0.9804   -1.2195    0.9430 H   0  0  0  0  0  0  0  0  0  0  0  0
   -2.5120   -0.3962    0.3067 H   0  0  0  0  0  0  0  0  0  0  0  0
   -1.2469    0.7039   -1.3617 H   0  0  0  0  0  0  0  0  0  0  0  0
   -0.6426   -1.0404   -1.4567 H   0  0  0  0  0  0  0  0  0  0  0  0
    2.2562   -0.5312    0.8527 H   0  0  0  0  0  0  0  0  0  0  0  0
    1.4616   -1.6568   -0.4640 H   0  0  0  0  0  0  0  0  0  0  0  0
  1  2  2  0
  2  3  1  0
  3  4  1  0
  4  5  1  0
  5  6  1  0
  6  7  1  0
  7  8  1  0
  6  2  1  0
  8  6  1  0
  4  9  1  0
  4 10  1  0
  5 11  1  0
  5 12  1  0
  7 13  1  0
  7 14  1  0
M  END
