
     RDKit          3D

 15 16  0  0  0  0  0  0  0  0999 V2000
    1.8078    1.7386    0.7673 O   0  0  0  0  0  0  0  0  0  0  0  0
    1.1482    0.8587    0.2834 C   0  0  0  0  0  0  0  0  0  0  0  0
    1.1189   -0.5580    0.7236 C   0  0  0  0  0  0  0  0  0  0  0  0
    0.0269   -1.0910   -0.1976 C   0  0  0  0  0  0  0  0  0  0  0  0
   -1.3205   -0.5202    0.1684 C   0  0  0  0  0  0  0  0  0  0  0  0
   -1.1715    0.8980   -0.3146 C   0  0  0  0  0  0  0  0  0  0  0  0
   -1.9382    1.8148   -0.3089 O   0  0  0  0  0  0  0  0  0  0  0  0
    0.2200    0.9469   -0.8421 C   0  0  0  0  0  0  0  0  0  0  0  0
    0.3224   -0.3631   -1.3746 O   0  0  0  0  0  0  0  0  0  0  0  0
    2.0666   -1.0414    0.4115 H   0  0  0  0  0  0  0  0  0  0  0  0
    0.8672   -0.6934    1.7782 H   0  0  0  0  0  0  0  0  0  0  0  0
    0.0525   -2.1628   -0.3371 H   0  0  0  0  0  0  0  0  0  0  0  0
   -1.5148   -0.5455    1.2537 H   0  0  0  0  0  0  0  0  0  0  0  0
   -2.0887   -0.9998   -0.4409 H   0  0  0  0  0  0  0  0  0  0  0  0
    0.4033    1.7182   -1.5702 H   0  0  0  0  0  0  0  0  0  0  0  0
  1  2  2  0
  2  3  1  0
  3  4  1  0
  4  5  1  0
  5  6  1  0
  6  7  2  0
  6  8  1  0
  8  9  1  0
  8  2  1  0
  9  4  1  0
  3 10  1  0
  3 11  1  0
  4 12  1  0
  5 13  1  0
  5 14  1  0
  8 15  1  0
M  END
