
     RDKit          3D

 15 15  0  0  0  0  0  0  0  0999 V2000
    2.9208    0.7466    0.2531 O   0  0  0  0  0  0  0  0  0  0  0  0
    1.6804    0.5769    0.2529 C   0  0  0  0  0  0  0  0  0  0  0  0
    1.1832   -0.8100    0.4143 C   0  0  0  0  0  0  0  0  0  0  0  0
    0.0501   -0.9712   -0.5408 C   0  0  0  0  0  0  0  0  0  0  0  0
    0.0361   -1.9191   -1.2971 O   0  0  0  0  0  0  0  0  0  0  0  0
   -1.0213    0.0258   -0.5394 C   0  0  0  0  0  0  0  0  0  0  0  0
   -2.1244   -0.4885    0.1564 O   0  0  0  0  0  0  0  0  0  0  0  0
   -0.6617    1.3345    0.0735 C   0  0  0  0  0  0  0  0  0  0  0  0
    0.7314    1.5721    0.1151 O   0  0  0  0  0  0  0  0  0  0  0  0
    1.9769   -1.5671    0.2519 H   0  0  0  0  0  0  0  0  0  0  0  0
    0.7470   -0.8871    1.4346 H   0  0  0  0  0  0  0  0  0  0  0  0
   -1.3703    0.1990   -1.5981 H   0  0  0  0  0  0  0  0  0  0  0  0
   -1.9519   -1.4250    0.4483 H   0  0  0  0  0  0  0  0  0  0  0  0
   -1.0920    1.4462    1.1034 H   0  0  0  0  0  0  0  0  0  0  0  0
   -1.1043    2.1670   -0.5282 H   0  0  0  0  0  0  0  0  0  0  0  0
  1  2  2  0
  2  3  1  0
  3  4  1  0
  4  5  2  0
  4  6  1  0
  6  7  1  0
  6  8  1  0
  8  9  1  0
  9  2  1  0
  3 10  1  0
  3 11  1  0
  6 12  1  0
  7 13  1  0
  8 14  1  0
  8 15  1  0
M  END
