
     RDKit          3D

 17 18  0  0  0  0  0  0  0  0999 V2000
    0.3216    2.6030    0.7131 O   0  0  0  0  0  0  0  0  0  0  0  0
    0.6087    1.4709    0.2403 C   0  0  0  0  0  0  0  0  0  0  0  0
    1.9036    0.9694    0.3467 O   0  0  0  0  0  0  0  0  0  0  0  0
    2.2002   -0.3108   -0.2350 C   0  0  0  0  0  0  0  0  0  0  0  0
    1.1116   -1.2260    0.2002 C   0  0  0  0  0  0  0  0  0  0  0  0
   -0.1372   -0.7824    0.0969 C   0  0  0  0  0  0  0  0  0  0  0  0
   -1.6039   -0.9010    0.2338 C   0  0  0  0  0  0  0  0  0  0  0  0
   -1.7797    0.6092    0.1122 C   0  0  0  0  0  0  0  0  0  0  0  0
   -0.3832    0.6053   -0.4489 C   0  0  0  0  0  0  0  0  0  0  0  0
    2.0541   -0.1630   -1.3388 H   0  0  0  0  0  0  0  0  0  0  0  0
    3.1943   -0.6476    0.0323 H   0  0  0  0  0  0  0  0  0  0  0  0
    1.3393   -2.2212    0.5878 H   0  0  0  0  0  0  0  0  0  0  0  0
   -1.9625   -1.2710    1.2152 H   0  0  0  0  0  0  0  0  0  0  0  0
   -2.1320   -1.4281   -0.5786 H   0  0  0  0  0  0  0  0  0  0  0  0
   -1.9352    1.1421    1.0498 H   0  0  0  0  0  0  0  0  0  0  0  0
   -2.4967    0.9158   -0.6830 H   0  0  0  0  0  0  0  0  0  0  0  0
   -0.3031    0.6354   -1.5441 H   0  0  0  0  0  0  0  0  0  0  0  0
  1  2  2  0
  2  3  1  0
  3  4  1  0
  4  5  1  0
  5  6  2  0
  6  7  1  0
  7  8  1  0
  8  9  1  0
  9  2  1  0
  9  6  1  0
  4 10  1  0
  4 11  1  0
  5 12  1  0
  7 13  1  0
  7 14  1  0
  8 15  1  0
  8 16  1  0
  9 17  1  0
M  END
