
     RDKit          3D

 13 14  0  0  0  0  0  0  0  0999 V2000
   -1.6180    0.8180   -1.6656 O   0  0  0  0  0  0  0  0  0  0  0  0
   -0.8835    0.5151   -0.7825 C   0  0  0  0  0  0  0  0  0  0  0  0
   -1.0777   -0.6732    0.1199 C   0  0  0  0  0  0  0  0  0  0  0  0
    0.2139   -0.4719    0.8916 C   0  0  0  0  0  0  0  0  0  0  0  0
    1.2542   -0.1395   -0.1570 C   0  0  0  0  0  0  0  0  0  0  0  0
    0.3693    1.0712   -0.2366 C   0  0  0  0  0  0  0  0  0  0  0  0
    0.1668    0.9064    1.1511 O   0  0  0  0  0  0  0  0  0  0  0  0
   -1.9349   -0.4458    0.7649 H   0  0  0  0  0  0  0  0  0  0  0  0
   -1.1235   -1.6135   -0.4210 H   0  0  0  0  0  0  0  0  0  0  0  0
    0.4587   -1.1364    1.6799 H   0  0  0  0  0  0  0  0  0  0  0  0
    2.2420   -0.0121    0.2800 H   0  0  0  0  0  0  0  0  0  0  0  0
    1.1816   -0.8135   -1.0429 H   0  0  0  0  0  0  0  0  0  0  0  0
    0.7510    1.9952   -0.5818 H   0  0  0  0  0  0  0  0  0  0  0  0
  1  2  2  0
  2  3  1  0
  3  4  1  0
  4  5  1  0
  5  6  1  0
  6  7  1  0
  6  2  1  0
  7  4  1  0
  3  8  1  0
  3  9  1  0
  4 10  1  0
  5 11  1  0
  5 12  1  0
  6 13  1  0
M  END
