
     RDKit          3D

 15 16  0  0  0  0  0  0  0  0999 V2000
   -1.4230    1.9859    1.0542 O   0  0  0  0  0  0  0  0  0  0  0  0
   -1.0976    0.9634    0.4974 C   0  0  0  0  0  0  0  0  0  0  0  0
   -1.3395   -0.4713    0.8056 C   0  0  0  0  0  0  0  0  0  0  0  0
   -0.3909   -0.8344   -0.2883 C   0  0  0  0  0  0  0  0  0  0  0  0
    1.0057   -1.1088    0.1227 C   0  0  0  0  0  0  0  0  0  0  0  0
    1.4358   -2.1470    0.6422 O   0  0  0  0  0  0  0  0  0  0  0  0
    1.8216    0.0616   -0.1855 C   0  0  0  0  0  0  0  0  0  0  0  0
    1.0640    1.0326   -0.6526 C   0  0  0  0  0  0  0  0  0  0  0  0
   -0.3374    0.6126   -0.7054 C   0  0  0  0  0  0  0  0  0  0  0  0
   -2.4013   -0.7403    0.5986 H   0  0  0  0  0  0  0  0  0  0  0  0
   -0.9791   -0.7910    1.8209 H   0  0  0  0  0  0  0  0  0  0  0  0
   -0.8372   -1.5122   -1.0137 H   0  0  0  0  0  0  0  0  0  0  0  0
    2.8921    0.1328   -0.0537 H   0  0  0  0  0  0  0  0  0  0  0  0
    1.4036    2.0103   -0.9605 H   0  0  0  0  0  0  0  0  0  0  0  0
   -0.8168    0.8058   -1.6816 H   0  0  0  0  0  0  0  0  0  0  0  0
  1  2  2  0
  2  3  1  0
  3  4  1  0
  4  5  1  0
  5  6  2  0
  5  7  1  0
  7  8  2  0
  8  9  1  0
  9  2  1  0
  9  4  1  0
  3 10  1  0
  3 11  1  0
  4 12  1  0
  7 13  1  0
  8 14  1  0
  9 15  1  0
M  END
