
     RDKit          3D

 14 15  0  0  0  0  0  0  0  0999 V2000
   -2.0651   -0.7351    1.9714 O   0  0  0  0  0  0  0  0  0  0  0  0
   -1.5944   -0.3254    0.9048 C   0  0  0  0  0  0  0  0  0  0  0  0
   -1.5689    0.8986    0.2707 O   0  0  0  0  0  0  0  0  0  0  0  0
   -0.8175    0.4416   -0.8443 C   0  0  0  0  0  0  0  0  0  0  0  0
    0.4650   -0.2560   -0.6076 C   0  0  0  0  0  0  0  0  0  0  0  0
    1.3481    0.1222    0.5416 C   0  0  0  0  0  0  0  0  0  0  0  0
    1.7609    1.4641    0.4715 O   0  0  0  0  0  0  0  0  0  0  0  0
   -0.8443   -0.8920   -0.2105 C   0  0  0  0  0  0  0  0  0  0  0  0
   -1.2343    0.5601   -1.8638 H   0  0  0  0  0  0  0  0  0  0  0  0
    0.9269   -0.7122   -1.5100 H   0  0  0  0  0  0  0  0  0  0  0  0
    0.8218    0.0135    1.5226 H   0  0  0  0  0  0  0  0  0  0  0  0
    2.2174   -0.5733    0.5680 H   0  0  0  0  0  0  0  0  0  0  0  0
    1.7773    1.7893   -0.4735 H   0  0  0  0  0  0  0  0  0  0  0  0
   -1.1928   -1.7954   -0.7409 H   0  0  0  0  0  0  0  0  0  0  0  0
  1  2  2  0
  2  3  1  0
  3  4  1  0
  4  5  1  0
  5  6  1  0
  6  7  1  0
  5  8  1  0
  8  2  1  0
  8  4  1  0
  4  9  1  0
  5 10  1  0
  6 11  1  0
  6 12  1  0
  7 13  1  0
  8 14  1  0
M  END
