
     RDKit          3D

 19 19  0  0  0  0  0  0  0  0999 V2000
    0.7701    1.8496    1.4104 O   0  0  0  0  0  0  0  0  0  0  0  0
    0.3270    1.3382    0.3984 C   0  0  0  0  0  0  0  0  0  0  0  0
    1.2956    0.5819   -0.4612 C   0  0  0  0  0  0  0  0  0  0  0  0
    1.5252   -0.7730    0.1598 C   0  0  0  0  0  0  0  0  0  0  0  0
    0.3176   -1.6723    0.0293 C   0  0  0  0  0  0  0  0  0  0  0  0
   -0.9501   -0.9678    0.3287 C   0  0  0  0  0  0  0  0  0  0  0  0
   -1.5163   -1.3893    1.3173 O   0  0  0  0  0  0  0  0  0  0  0  0
   -1.6445    0.1420   -0.3478 C   0  0  0  0  0  0  0  0  0  0  0  0
   -1.1230    1.5018    0.0976 C   0  0  0  0  0  0  0  0  0  0  0  0
    0.9542    0.5107   -1.5015 H   0  0  0  0  0  0  0  0  0  0  0  0
    2.2506    1.1213   -0.4528 H   0  0  0  0  0  0  0  0  0  0  0  0
    2.3604   -1.2954   -0.3715 H   0  0  0  0  0  0  0  0  0  0  0  0
    1.8101   -0.6463    1.2121 H   0  0  0  0  0  0  0  0  0  0  0  0
    0.4716   -2.5393    0.6801 H   0  0  0  0  0  0  0  0  0  0  0  0
    0.2335   -2.0424   -1.0209 H   0  0  0  0  0  0  0  0  0  0  0  0
   -2.7457    0.0865   -0.2930 H   0  0  0  0  0  0  0  0  0  0  0  0
   -1.3950    0.0802   -1.4464 H   0  0  0  0  0  0  0  0  0  0  0  0
   -1.6837    1.8690    0.9894 H   0  0  0  0  0  0  0  0  0  0  0  0
   -1.2573    2.2444   -0.7279 H   0  0  0  0  0  0  0  0  0  0  0  0
  1  2  2  0
  2  3  1  0
  3  4  1  0
  4  5  1  0
  5  6  1  0
  6  7  2  0
  6  8  1  0
  8  9  1  0
  9  2  1  0
  3 10  1  0
  3 11  1  0
  4 12  1  0
  4 13  1  0
  5 14  1  0
  5 15  1  0
  8 16  1  0
  8 17  1  0
  9 18  1  0
  9 19  1  0
M  END
