
     RDKit          3D

 19 21  0  0  0  0  0  0  0  0999 V2000
    0.3030    2.3083   -0.7964 O   0  0  0  0  0  0  0  0  0  0  0  0
   -0.1193    1.2626   -0.4033 C   0  0  0  0  0  0  0  0  0  0  0  0
   -1.4844    0.7680   -0.0950 C   0  0  0  0  0  0  0  0  0  0  0  0
   -1.4471   -0.5818   -0.8324 C   0  0  0  0  0  0  0  0  0  0  0  0
   -0.4171   -0.9087    0.2641 C   0  0  0  0  0  0  0  0  0  0  0  0
   -1.3476   -0.0827    1.1466 C   0  0  0  0  0  0  0  0  0  0  0  0
    0.6861    0.0240   -0.0748 C   0  0  0  0  0  0  0  0  0  0  0  0
    1.9123   -0.3071   -0.7613 C   0  0  0  0  0  0  0  0  0  0  0  0
    1.9124    0.2073    0.6694 C   0  0  0  0  0  0  0  0  0  0  0  0
   -2.3265    1.3830   -0.2314 H   0  0  0  0  0  0  0  0  0  0  0  0
   -2.3851   -1.1552   -0.7479 H   0  0  0  0  0  0  0  0  0  0  0  0
   -0.9823   -0.5045   -1.8151 H   0  0  0  0  0  0  0  0  0  0  0  0
   -0.2564   -1.9242    0.5002 H   0  0  0  0  0  0  0  0  0  0  0  0
   -0.7808    0.3403    1.9732 H   0  0  0  0  0  0  0  0  0  0  0  0
   -2.2704   -0.6182    1.3620 H   0  0  0  0  0  0  0  0  0  0  0  0
    2.2562    0.3670   -1.5721 H   0  0  0  0  0  0  0  0  0  0  0  0
    2.1981   -1.3758   -0.8257 H   0  0  0  0  0  0  0  0  0  0  0  0
    2.2195   -0.4475    1.4858 H   0  0  0  0  0  0  0  0  0  0  0  0
    2.3297    1.2451    0.7540 H   0  0  0  0  0  0  0  0  0  0  0  0
  1  2  2  0
  2  3  1  0
  3  4  1  0
  4  5  1  0
  5  6  1  0
  5  7  1  0
  7  8  1  0
  8  9  1  0
  7  2  1  0
  6  3  1  0
  9  7  1  0
  3 10  1  0
  4 11  1  0
  4 12  1  0
  5 13  1  0
  6 14  1  0
  6 15  1  0
  8 16  1  0
  8 17  1  0
  9 18  1  0
  9 19  1  0
M  END
