
     RDKit          3D

 15 16  0  0  0  0  0  0  0  0999 V2000
    3.0530    0.0425   -1.0341 O   0  0  0  0  0  0  0  0  0  0  0  0
    1.8290   -0.0048   -0.6788 C   0  0  0  0  0  0  0  0  0  0  0  0
    1.2288   -1.2034   -0.2857 O   0  0  0  0  0  0  0  0  0  0  0  0
   -0.0549   -1.1357    0.3296 C   0  0  0  0  0  0  0  0  0  0  0  0
   -1.1213   -0.7926   -0.6417 C   0  0  0  0  0  0  0  0  0  0  0  0
   -1.2835    0.5225   -0.7334 C   0  0  0  0  0  0  0  0  0  0  0  0
   -0.2177    1.1616    0.0569 C   0  0  0  0  0  0  0  0  0  0  0  0
   -0.0501    0.1370    1.1894 C   0  0  0  0  0  0  0  0  0  0  0  0
    1.0201    1.1229   -0.6598 O   0  0  0  0  0  0  0  0  0  0  0  0
   -0.2768   -1.9808    0.9690 H   0  0  0  0  0  0  0  0  0  0  0  0
   -1.6889   -1.5101   -1.1987 H   0  0  0  0  0  0  0  0  0  0  0  0
   -2.0449    1.0708   -1.2776 H   0  0  0  0  0  0  0  0  0  0  0  0
   -0.4437    2.1567    0.4273 H   0  0  0  0  0  0  0  0  0  0  0  0
   -0.8859    0.1504    1.8812 H   0  0  0  0  0  0  0  0  0  0  0  0
    0.9370    0.2630    1.6565 H   0  0  0  0  0  0  0  0  0  0  0  0
  1  2  2  0
  2  3  1  0
  3  4  1  0
  4  5  1  0
  5  6  2  0
  6  7  1  0
  7  8  1  0
  7  9  1  0
  9  2  1  0
  8  4  1  0
  4 10  1  0
  5 11  1  0
  6 12  1  0
  7 13  1  0
  8 14  1  0
  8 15  1  0
M  END
