
     RDKit          3D

 15 17  0  0  0  0  0  0  0  0999 V2000
   -2.5171    0.0576   -1.6044 O   0  0  0  0  0  0  0  0  0  0  0  0
   -1.6758    0.2415   -0.7681 C   0  0  0  0  0  0  0  0  0  0  0  0
   -1.3603   -0.2266    0.5809 C   0  0  0  0  0  0  0  0  0  0  0  0
   -0.1044   -1.0639    0.3496 C   0  0  0  0  0  0  0  0  0  0  0  0
    0.6797    0.0333   -0.4034 C   0  0  0  0  0  0  0  0  0  0  0  0
    1.9928    0.2624   -0.1451 C   0  0  0  0  0  0  0  0  0  0  0  0
    1.5051   -0.3005   -1.4144 O   0  0  0  0  0  0  0  0  0  0  0  0
   -0.4350    1.0234   -0.5191 C   0  0  0  0  0  0  0  0  0  0  0  0
   -0.8731    1.0779    0.8264 O   0  0  0  0  0  0  0  0  0  0  0  0
   -2.1072   -0.6077    1.2270 H   0  0  0  0  0  0  0  0  0  0  0  0
    0.3917   -1.3503    1.2757 H   0  0  0  0  0  0  0  0  0  0  0  0
   -0.3512   -1.8751   -0.3357 H   0  0  0  0  0  0  0  0  0  0  0  0
    2.6356   -0.4617    0.4270 H   0  0  0  0  0  0  0  0  0  0  0  0
    2.5113    1.2417   -0.2712 H   0  0  0  0  0  0  0  0  0  0  0  0
   -0.2921    1.9480   -1.0262 H   0  0  0  0  0  0  0  0  0  0  0  0
  1  2  2  0
  2  3  1  0
  3  4  1  0
  4  5  1  0
  5  6  1  0
  6  7  1  0
  5  8  1  0
  8  9  1  0
  8  2  1  0
  9  3  1  0
  7  5  1  0
  3 10  1  0
  4 11  1  0
  4 12  1  0
  6 13  1  0
  6 14  1  0
  8 15  1  0
M  END
