
     RDKit          3D

 16 17  0  0  0  0  0  0  0  0999 V2000
   -2.5527    0.1517   -1.0725 O   0  0  0  0  0  0  0  0  0  0  0  0
   -1.5050    0.0831   -0.4868 C   0  0  0  0  0  0  0  0  0  0  0  0
   -0.7066    1.2505    0.0135 C   0  0  0  0  0  0  0  0  0  0  0  0
    0.6694    0.8735   -0.5300 C   0  0  0  0  0  0  0  0  0  0  0  0
    1.5457    0.1664    0.4135 C   0  0  0  0  0  0  0  0  0  0  0  0
    0.6999   -0.6581   -0.4523 C   0  0  0  0  0  0  0  0  0  0  0  0
   -0.6815   -1.0899   -0.0761 C   0  0  0  0  0  0  0  0  0  0  0  0
   -0.8479   -1.2249    1.3052 O   0  0  0  0  0  0  0  0  0  0  0  0
   -0.7052    1.1764    1.1333 H   0  0  0  0  0  0  0  0  0  0  0  0
   -1.0650    2.2070   -0.3530 H   0  0  0  0  0  0  0  0  0  0  0  0
    1.0157    1.3445   -1.4584 H   0  0  0  0  0  0  0  0  0  0  0  0
    1.3158    0.2223    1.4982 H   0  0  0  0  0  0  0  0  0  0  0  0
    2.6510    0.1120    0.2325 H   0  0  0  0  0  0  0  0  0  0  0  0
    1.1646   -1.1954   -1.3175 H   0  0  0  0  0  0  0  0  0  0  0  0
   -0.9844   -1.9932   -0.6254 H   0  0  0  0  0  0  0  0  0  0  0  0
   -0.0137   -1.4259    1.7756 H   0  0  0  0  0  0  0  0  0  0  0  0
  1  2  2  0
  2  3  1  0
  3  4  1  0
  4  5  1  0
  5  6  1  0
  6  7  1  0
  7  8  1  0
  7  2  1  0
  6  4  1  0
  3  9  1  0
  3 10  1  0
  4 11  1  0
  5 12  1  0
  5 13  1  0
  6 14  1  0
  7 15  1  0
  8 16  1  0
M  END
