
     RDKit          3D

 17 18  0  0  0  0  0  0  0  0999 V2000
   -3.1466   -0.3936   -0.7243 O   0  0  0  0  0  0  0  0  0  0  0  0
   -2.0022   -0.3063   -0.3253 C   0  0  0  0  0  0  0  0  0  0  0  0
   -1.1786   -1.3573    0.3230 C   0  0  0  0  0  0  0  0  0  0  0  0
   -0.3848   -0.5923    1.1972 O   0  0  0  0  0  0  0  0  0  0  0  0
    0.1282    0.3261    0.3113 C   0  0  0  0  0  0  0  0  0  0  0  0
   -1.0813    0.8910   -0.3697 C   0  0  0  0  0  0  0  0  0  0  0  0
    1.2656    1.1797    0.5319 C   0  0  0  0  0  0  0  0  0  0  0  0
    1.3742   -0.0155   -0.3534 C   0  0  0  0  0  0  0  0  0  0  0  0
    2.1392   -1.0568    0.2249 O   0  0  0  0  0  0  0  0  0  0  0  0
   -1.7674   -2.1175    0.8512 H   0  0  0  0  0  0  0  0  0  0  0  0
   -0.5150   -1.7815   -0.4705 H   0  0  0  0  0  0  0  0  0  0  0  0
   -0.9200    1.2487   -1.3815 H   0  0  0  0  0  0  0  0  0  0  0  0
   -1.5323    1.6408    0.3218 H   0  0  0  0  0  0  0  0  0  0  0  0
    1.7438    1.2323    1.5061 H   0  0  0  0  0  0  0  0  0  0  0  0
    1.2870    2.1596   -0.0258 H   0  0  0  0  0  0  0  0  0  0  0  0
    1.5786    0.0964   -1.4234 H   0  0  0  0  0  0  0  0  0  0  0  0
    3.0115   -1.1540   -0.1937 H   0  0  0  0  0  0  0  0  0  0  0  0
  1  2  2  0
  2  3  1  0
  3  4  1  0
  4  5  1  0
  5  6  1  0
  5  7  1  0
  7  8  1  0
  8  9  1  0
  6  2  1  0
  8  5  1  0
  3 10  1  0
  3 11  1  0
  6 12  1  0
  6 13  1  0
  7 14  1  0
  7 15  1  0
  8 16  1  0
  9 17  1  0
M  END
