
     RDKit          3D

 17 19  0  0  0  0  0  0  0  0999 V2000
   -1.7905    2.0179   -0.3902 O   0  0  0  0  0  0  0  0  0  0  0  0
   -1.3721    0.8828   -0.3003 C   0  0  0  0  0  0  0  0  0  0  0  0
   -2.0124   -0.1840    0.4748 C   0  0  0  0  0  0  0  0  0  0  0  0
   -1.3024   -1.3553    0.2508 O   0  0  0  0  0  0  0  0  0  0  0  0
   -0.0823   -1.0435   -0.2757 C   0  0  0  0  0  0  0  0  0  0  0  0
    0.9437   -0.4614    0.6641 C   0  0  0  0  0  0  0  0  0  0  0  0
    2.2280   -0.1122    0.0450 C   0  0  0  0  0  0  0  0  0  0  0  0
    1.0915    0.7679   -0.2654 C   0  0  0  0  0  0  0  0  0  0  0  0
   -0.1535    0.3139   -0.9295 C   0  0  0  0  0  0  0  0  0  0  0  0
   -2.0018   -0.0171    1.5752 H   0  0  0  0  0  0  0  0  0  0  0  0
   -3.0777   -0.2670    0.1172 H   0  0  0  0  0  0  0  0  0  0  0  0
    0.3429   -1.8531   -0.8634 H   0  0  0  0  0  0  0  0  0  0  0  0
    0.6756   -0.2260    1.7017 H   0  0  0  0  0  0  0  0  0  0  0  0
    2.6452   -0.8188   -0.7168 H   0  0  0  0  0  0  0  0  0  0  0  0
    2.9990    0.2965    0.7190 H   0  0  0  0  0  0  0  0  0  0  0  0
    1.0417    1.7581    0.2285 H   0  0  0  0  0  0  0  0  0  0  0  0
   -0.1748    0.3013   -2.0350 H   0  0  0  0  0  0  0  0  0  0  0  0
  1  2  2  0
  2  3  1  0
  3  4  1  0
  4  5  1  0
  5  6  1  0
  6  7  1  0
  7  8  1  0
  8  9  1  0
  9  2  1  0
  9  5  1  0
  8  6  1  0
  3 10  1  0
  3 11  1  0
  5 12  1  0
  6 13  1  0
  7 14  1  0
  7 15  1  0
  8 16  1  0
  9 17  1  0
M  END
