
     RDKit          3D

 15 16  0  0  0  0  0  0  0  0999 V2000
    0.0443    2.6225    0.1328 O   0  0  0  0  0  0  0  0  0  0  0  0
    0.2388    1.3997    0.1233 C   0  0  0  0  0  0  0  0  0  0  0  0
    1.5382    0.8327    0.0591 O   0  0  0  0  0  0  0  0  0  0  0  0
    1.7628   -0.5256    0.3783 C   0  0  0  0  0  0  0  0  0  0  0  0
    0.6519   -1.3549    0.1020 O   0  0  0  0  0  0  0  0  0  0  0  0
   -0.1361   -0.7055   -0.7687 C   0  0  0  0  0  0  0  0  0  0  0  0
   -1.5034   -0.3431   -0.8050 C   0  0  0  0  0  0  0  0  0  0  0  0
   -0.7894    0.3677    0.1742 C   0  0  0  0  0  0  0  0  0  0  0  0
   -0.9889   -0.0265    1.5225 O   0  0  0  0  0  0  0  0  0  0  0  0
    2.1427   -0.6688    1.3936 H   0  0  0  0  0  0  0  0  0  0  0  0
    2.5543   -0.8773   -0.3420 H   0  0  0  0  0  0  0  0  0  0  0  0
    0.4877   -0.3164   -1.6307 H   0  0  0  0  0  0  0  0  0  0  0  0
   -2.2984   -1.0682   -0.4637 H   0  0  0  0  0  0  0  0  0  0  0  0
   -1.9046    0.2114   -1.6967 H   0  0  0  0  0  0  0  0  0  0  0  0
   -1.7998    0.4523    1.8209 H   0  0  0  0  0  0  0  0  0  0  0  0
  1  2  2  0
  2  3  1  0
  3  4  1  0
  4  5  1  0
  5  6  1  0
  6  7  1  0
  7  8  1  0
  8  9  1  0
  8  2  1  0
  8  6  1  0
  4 10  1  0
  4 11  1  0
  6 12  1  0
  7 13  1  0
  7 14  1  0
  9 15  1  0
M  END
