
     RDKit          3D

 16 17  0  0  0  0  0  0  0  0999 V2000
   -1.1302    1.7623   -1.3526 O   0  0  0  0  0  0  0  0  0  0  0  0
   -0.9524    0.8303   -0.6354 C   0  0  0  0  0  0  0  0  0  0  0  0
   -0.6668   -0.5860   -0.6823 C   0  0  0  0  0  0  0  0  0  0  0  0
   -1.7033   -0.7276    0.4065 C   0  0  0  0  0  0  0  0  0  0  0  0
   -0.9050    0.5001    0.7765 C   0  0  0  0  0  0  0  0  0  0  0  0
    0.2989   -0.3311    0.4394 C   0  0  0  0  0  0  0  0  0  0  0  0
    1.5443    0.4214    0.0578 C   0  0  0  0  0  0  0  0  0  0  0  0
    2.1962   -0.3662   -0.9217 O   0  0  0  0  0  0  0  0  0  0  0  0
   -0.5384   -1.1990   -1.4636 H   0  0  0  0  0  0  0  0  0  0  0  0
   -1.5267   -1.5755    1.1038 H   0  0  0  0  0  0  0  0  0  0  0  0
   -2.7450   -0.5537    0.1060 H   0  0  0  0  0  0  0  0  0  0  0  0
   -1.0437    1.0789    1.5799 H   0  0  0  0  0  0  0  0  0  0  0  0
    0.4653   -1.1245    1.1642 H   0  0  0  0  0  0  0  0  0  0  0  0
    1.3424    1.4032   -0.3922 H   0  0  0  0  0  0  0  0  0  0  0  0
    2.2490    0.5023    0.9021 H   0  0  0  0  0  0  0  0  0  0  0  0
    3.1154   -0.0350   -1.0885 H   0  0  0  0  0  0  0  0  0  0  0  0
  1  2  2  0
  2  3  1  0
  3  4  1  0
  4  5  1  0
  5  6  1  0
  6  7  1  0
  7  8  1  0
  5  2  1  0
  6  3  1  0
  3  9  1  0
  4 10  1  0
  4 11  1  0
  5 12  1  0
  6 13  1  0
  7 14  1  0
  7 15  1  0
  8 16  1  0
M  END
