
     RDKit          3D

 16 17  0  0  0  0  0  0  0  0999 V2000
    2.6375   -0.3982    1.1456 O   0  0  0  0  0  0  0  0  0  0  0  0
    1.4408   -0.1279    0.8691 C   0  0  0  0  0  0  0  0  0  0  0  0
    1.1011    0.9221   -0.1269 C   0  0  0  0  0  0  0  0  0  0  0  0
   -0.1820    0.5001   -0.8009 C   0  0  0  0  0  0  0  0  0  0  0  0
   -1.2806    0.5180    0.2417 C   0  0  0  0  0  0  0  0  0  0  0  0
   -0.8236   -0.8541    0.6555 C   0  0  0  0  0  0  0  0  0  0  0  0
   -0.2982   -1.0280   -0.7694 C   0  0  0  0  0  0  0  0  0  0  0  0
    0.3592   -0.7830    1.4673 O   0  0  0  0  0  0  0  0  0  0  0  0
    1.9167    1.1373   -0.8292 H   0  0  0  0  0  0  0  0  0  0  0  0
    0.8981    1.8855    0.4128 H   0  0  0  0  0  0  0  0  0  0  0  0
   -0.4102    0.9561   -1.7604 H   0  0  0  0  0  0  0  0  0  0  0  0
   -1.1569    1.3193    1.0061 H   0  0  0  0  0  0  0  0  0  0  0  0
   -2.2656    0.4576   -0.2432 H   0  0  0  0  0  0  0  0  0  0  0  0
   -1.5726   -1.5637    0.9764 H   0  0  0  0  0  0  0  0  0  0  0  0
   -1.0679   -1.4383   -1.4249 H   0  0  0  0  0  0  0  0  0  0  0  0
    0.7043   -1.5028   -0.8198 H   0  0  0  0  0  0  0  0  0  0  0  0
  1  2  2  0
  2  3  1  0
  3  4  1  0
  4  5  1  0
  5  6  1  0
  6  7  1  0
  6  8  1  0
  8  2  1  0
  7  4  1  0
  3  9  1  0
  3 10  1  0
  4 11  1  0
  5 12  1  0
  5 13  1  0
  6 14  1  0
  7 15  1  0
  7 16  1  0
M  END
