
     RDKit          3D

 19 20  0  0  0  0  0  0  0  0999 V2000
    3.1843   -0.9561    0.5647 O   0  0  0  0  0  0  0  0  0  0  0  0
    2.2540   -0.2916    0.1400 C   0  0  0  0  0  0  0  0  0  0  0  0
    1.4882   -0.1048   -1.1213 C   0  0  0  0  0  0  0  0  0  0  0  0
    0.3701    0.4684   -0.3246 C   0  0  0  0  0  0  0  0  0  0  0  0
   -0.6807   -0.4856    0.1675 C   0  0  0  0  0  0  0  0  0  0  0  0
   -1.7382    0.2765    0.9582 C   0  0  0  0  0  0  0  0  0  0  0  0
   -2.6880   -0.5618    0.3701 O   0  0  0  0  0  0  0  0  0  0  0  0
   -1.8403   -0.7400   -0.7208 C   0  0  0  0  0  0  0  0  0  0  0  0
    1.3953    0.7307    0.7832 C   0  0  0  0  0  0  0  0  0  0  0  0
    1.9898    0.7115   -1.7141 H   0  0  0  0  0  0  0  0  0  0  0  0
    1.2770   -1.0069   -1.6954 H   0  0  0  0  0  0  0  0  0  0  0  0
   -0.0449    1.4422   -0.6500 H   0  0  0  0  0  0  0  0  0  0  0  0
   -0.3455   -1.3426    0.7411 H   0  0  0  0  0  0  0  0  0  0  0  0
   -1.6493    0.1700    2.0517 H   0  0  0  0  0  0  0  0  0  0  0  0
   -1.8451    1.2901    0.5635 H   0  0  0  0  0  0  0  0  0  0  0  0
   -1.9978   -0.0529   -1.5619 H   0  0  0  0  0  0  0  0  0  0  0  0
   -1.9434   -1.8028   -1.0870 H   0  0  0  0  0  0  0  0  0  0  0  0
    1.0044    0.4992    1.7746 H   0  0  0  0  0  0  0  0  0  0  0  0
    1.8103    1.7567    0.7605 H   0  0  0  0  0  0  0  0  0  0  0  0
  1  2  2  0
  2  3  1  0
  3  4  1  0
  4  5  1  0
  5  6  1  0
  6  7  1  0
  7  8  1  0
  4  9  1  0
  9  2  1  0
  8  5  1  0
  3 10  1  0
  3 11  1  0
  4 12  1  0
  5 13  1  0
  6 14  1  0
  6 15  1  0
  8 16  1  0
  8 17  1  0
  9 18  1  0
  9 19  1  0
M  END
