
     RDKit          3D

 15 17  0  0  0  0  0  0  0  0999 V2000
    0.6954    2.5582    0.1515 O   0  0  0  0  0  0  0  0  0  0  0  0
    0.3466    1.4231    0.0112 C   0  0  0  0  0  0  0  0  0  0  0  0
    1.2380    0.2241   -0.0688 C   0  0  0  0  0  0  0  0  0  0  0  0
    1.8565    0.0044    1.1800 O   0  0  0  0  0  0  0  0  0  0  0  0
    0.3588   -0.9549   -0.3401 C   0  0  0  0  0  0  0  0  0  0  0  0
   -0.3396   -1.3041    0.8234 O   0  0  0  0  0  0  0  0  0  0  0  0
   -1.3068   -0.3494    0.6466 C   0  0  0  0  0  0  0  0  0  0  0  0
   -1.0481    0.9002   -0.1201 C   0  0  0  0  0  0  0  0  0  0  0  0
   -0.9003   -0.3353   -0.8531 C   0  0  0  0  0  0  0  0  0  0  0  0
    2.0255    0.3864   -0.8090 H   0  0  0  0  0  0  0  0  0  0  0  0
    2.1477   -0.9326    1.1917 H   0  0  0  0  0  0  0  0  0  0  0  0
    0.7657   -1.7773   -0.9213 H   0  0  0  0  0  0  0  0  0  0  0  0
   -2.3429   -0.5591    0.8931 H   0  0  0  0  0  0  0  0  0  0  0  0
   -1.8788    1.5631   -0.3169 H   0  0  0  0  0  0  0  0  0  0  0  0
   -1.6176   -0.8467   -1.4681 H   0  0  0  0  0  0  0  0  0  0  0  0
  1  2  2  0
  2  3  1  0
  3  4  1  0
  3  5  1  0
  5  6  1  0
  6  7  1  0
  7  8  1  0
  8  9  1  0
  8  2  1  0
  9  5  1  0
  9  7  1  0
  3 10  1  0
  4 11  1  0
  5 12  1  0
  7 13  1  0
  8 14  1  0
  9 15  1  0
M  END
