
     RDKit          3D

 17 18  0  0  0  0  0  0  0  0999 V2000
   -2.7916    0.8774    0.1250 O   0  0  0  0  0  0  0  0  0  0  0  0
   -1.6412    0.5049    0.1346 C   0  0  0  0  0  0  0  0  0  0  0  0
   -0.5052    1.4839    0.2188 C   0  0  0  0  0  0  0  0  0  0  0  0
    0.6552    0.8628   -0.5046 C   0  0  0  0  0  0  0  0  0  0  0  0
    0.2825   -0.0448   -1.4697 O   0  0  0  0  0  0  0  0  0  0  0  0
    0.1421   -1.0266   -0.4923 C   0  0  0  0  0  0  0  0  0  0  0  0
   -1.2383   -0.9313    0.0655 C   0  0  0  0  0  0  0  0  0  0  0  0
    1.1786   -0.3213    0.3163 C   0  0  0  0  0  0  0  0  0  0  0  0
    2.4656   -0.6110   -0.1084 O   0  0  0  0  0  0  0  0  0  0  0  0
   -0.7479    2.4567   -0.2052 H   0  0  0  0  0  0  0  0  0  0  0  0
   -0.2734    1.5685    1.3137 H   0  0  0  0  0  0  0  0  0  0  0  0
    1.4054    1.6075   -0.7730 H   0  0  0  0  0  0  0  0  0  0  0  0
    0.4376   -2.0488   -0.7961 H   0  0  0  0  0  0  0  0  0  0  0  0
   -1.3713   -1.4149    1.0487 H   0  0  0  0  0  0  0  0  0  0  0  0
   -1.9293   -1.4199   -0.6601 H   0  0  0  0  0  0  0  0  0  0  0  0
    1.0100   -0.2417    1.3898 H   0  0  0  0  0  0  0  0  0  0  0  0
    2.9210   -1.3015    0.3972 H   0  0  0  0  0  0  0  0  0  0  0  0
  1  2  2  0
  2  3  1  0
  3  4  1  0
  4  5  1  0
  5  6  1  0
  6  7  1  0
  6  8  1  0
  8  9  1  0
  7  2  1  0
  8  4  1  0
  3 10  1  0
  3 11  1  0
  4 12  1  0
  6 13  1  0
  7 14  1  0
  7 15  1  0
  8 16  1  0
  9 17  1  0
M  END
