
     RDKit          3D

 16 17  0  0  0  0  0  0  0  0999 V2000
   -0.8148    0.5797   -2.3450 O   0  0  0  0  0  0  0  0  0  0  0  0
   -0.6666    0.3193   -1.1930 C   0  0  0  0  0  0  0  0  0  0  0  0
   -0.8826   -0.8356   -0.3029 C   0  0  0  0  0  0  0  0  0  0  0  0
    0.4827   -1.1957    0.2195 C   0  0  0  0  0  0  0  0  0  0  0  0
    1.0712    0.2252    0.3259 C   0  0  0  0  0  0  0  0  0  0  0  0
    1.9897    0.3554   -0.7047 O   0  0  0  0  0  0  0  0  0  0  0  0
   -0.1776    1.0053    0.0196 C   0  0  0  0  0  0  0  0  0  0  0  0
   -1.2813    0.2285    0.7371 C   0  0  0  0  0  0  0  0  0  0  0  0
   -1.5881   -1.5830   -0.5338 H   0  0  0  0  0  0  0  0  0  0  0  0
    1.0701   -1.8302   -0.4372 H   0  0  0  0  0  0  0  0  0  0  0  0
    0.3792   -1.5495    1.2585 H   0  0  0  0  0  0  0  0  0  0  0  0
    1.4946    0.4148    1.3131 H   0  0  0  0  0  0  0  0  0  0  0  0
    2.4459    1.2186   -0.7052 H   0  0  0  0  0  0  0  0  0  0  0  0
   -0.1829    2.0614    0.0826 H   0  0  0  0  0  0  0  0  0  0  0  0
   -2.2711    0.6318    0.4973 H   0  0  0  0  0  0  0  0  0  0  0  0
   -1.0683   -0.0460    1.7682 H   0  0  0  0  0  0  0  0  0  0  0  0
  1  2  2  0
  2  3  1  0
  3  4  1  0
  4  5  1  0
  5  6  1  0
  5  7  1  0
  7  8  1  0
  7  2  1  0
  8  3  1  0
  3  9  1  0
  4 10  1  0
  4 11  1  0
  5 12  1  0
  6 13  1  0
  7 14  1  0
  8 15  1  0
  8 16  1  0
M  END
