
     RDKit          3D

 18 19  0  0  0  0  0  0  0  0999 V2000
    1.3139   -0.4810    2.3026 O   0  0  0  0  0  0  0  0  0  0  0  0
    0.8079   -0.3614    1.2085 C   0  0  0  0  0  0  0  0  0  0  0  0
    1.6413    0.0169    0.0399 C   0  0  0  0  0  0  0  0  0  0  0  0
    0.7483    0.8063   -0.8944 C   0  0  0  0  0  0  0  0  0  0  0  0
   -0.6593    0.2944   -0.9214 C   0  0  0  0  0  0  0  0  0  0  0  0
   -1.3071    0.6780    0.4174 C   0  0  0  0  0  0  0  0  0  0  0  0
   -0.6258   -0.5784    0.9778 C   0  0  0  0  0  0  0  0  0  0  0  0
   -0.7824   -1.1474   -0.4409 C   0  0  0  0  0  0  0  0  0  0  0  0
    2.0364   -0.8931   -0.4539 H   0  0  0  0  0  0  0  0  0  0  0  0
    2.5158    0.6404    0.3137 H   0  0  0  0  0  0  0  0  0  0  0  0
    0.7007    1.8452   -0.4533 H   0  0  0  0  0  0  0  0  0  0  0  0
    1.1937    0.9250   -1.8957 H   0  0  0  0  0  0  0  0  0  0  0  0
   -1.2624    0.5380   -1.7974 H   0  0  0  0  0  0  0  0  0  0  0  0
   -2.3850    0.5108    0.3389 H   0  0  0  0  0  0  0  0  0  0  0  0
   -0.9552    1.6189    0.8324 H   0  0  0  0  0  0  0  0  0  0  0  0
   -1.1954   -1.0973    1.7439 H   0  0  0  0  0  0  0  0  0  0  0  0
    0.0247   -1.8182   -0.7538 H   0  0  0  0  0  0  0  0  0  0  0  0
   -1.8101   -1.4972   -0.5641 H   0  0  0  0  0  0  0  0  0  0  0  0
  1  2  2  0
  2  3  1  0
  3  4  1  0
  4  5  1  0
  5  6  1  0
  6  7  1  0
  7  8  1  0
  7  2  1  0
  8  5  1  0
  3  9  1  0
  3 10  1  0
  4 11  1  0
  4 12  1  0
  5 13  1  0
  6 14  1  0
  6 15  1  0
  7 16  1  0
  8 17  1  0
  8 18  1  0
M  END
