
     RDKit          3D

 17 17  0  0  0  0  0  0  0  0999 V2000
   -0.5307   -0.8400   -2.2884 O   0  0  0  0  0  0  0  0  0  0  0  0
   -0.4939   -0.5553   -1.1011 C   0  0  0  0  0  0  0  0  0  0  0  0
   -1.4880    0.2814   -0.4063 C   0  0  0  0  0  0  0  0  0  0  0  0
   -1.1731    1.6446   -0.4604 O   0  0  0  0  0  0  0  0  0  0  0  0
   -1.3257   -0.1221    1.0227 C   0  0  0  0  0  0  0  0  0  0  0  0
   -0.2021   -0.8134    1.1691 C   0  0  0  0  0  0  0  0  0  0  0  0
    0.5163   -0.9614   -0.1005 C   0  0  0  0  0  0  0  0  0  0  0  0
    1.7588   -0.1098   -0.1806 C   0  0  0  0  0  0  0  0  0  0  0  0
    1.4737    1.2442    0.0473 O   0  0  0  0  0  0  0  0  0  0  0  0
   -2.5203    0.0984   -0.7039 H   0  0  0  0  0  0  0  0  0  0  0  0
   -2.0431    2.1194   -0.3153 H   0  0  0  0  0  0  0  0  0  0  0  0
   -2.0281    0.1233    1.7971 H   0  0  0  0  0  0  0  0  0  0  0  0
    0.1180   -1.2077    2.1259 H   0  0  0  0  0  0  0  0  0  0  0  0
    0.8376   -2.0088   -0.2894 H   0  0  0  0  0  0  0  0  0  0  0  0
    2.2474   -0.1612   -1.1639 H   0  0  0  0  0  0  0  0  0  0  0  0
    2.5090   -0.4015    0.5808 H   0  0  0  0  0  0  0  0  0  0  0  0
    2.3443    1.6699    0.2672 H   0  0  0  0  0  0  0  0  0  0  0  0
  1  2  2  0
  2  3  1  0
  3  4  1  0
  3  5  1  0
  5  6  2  0
  6  7  1  0
  7  8  1  0
  8  9  1  0
  7  2  1  0
  3 10  1  0
  4 11  1  0
  5 12  1  0
  6 13  1  0
  7 14  1  0
  8 15  1  0
  8 16  1  0
  9 17  1  0
M  END
