
     RDKit          3D

 17 17  0  0  0  0  0  0  0  0999 V2000
    2.3730   -2.1014   -0.1085 O   0  0  0  0  0  0  0  0  0  0  0  0
    1.4333   -1.2671   -0.0940 C   0  0  0  0  0  0  0  0  0  0  0  0
    1.8964    0.1264    0.0031 C   0  0  0  0  0  0  0  0  0  0  0  0
    1.2462    1.2506    0.2630 C   0  0  0  0  0  0  0  0  0  0  0  0
   -0.1993    1.5634    0.5596 C   0  0  0  0  0  0  0  0  0  0  0  0
   -0.8010    0.3871    1.0612 O   0  0  0  0  0  0  0  0  0  0  0  0
   -1.6426   -0.2136    0.1733 C   0  0  0  0  0  0  0  0  0  0  0  0
   -1.0753   -1.3048   -0.6507 C   0  0  0  0  0  0  0  0  0  0  0  0
    0.1462   -1.8362   -0.1729 O   0  0  0  0  0  0  0  0  0  0  0  0
    2.9614    0.2446   -0.1703 H   0  0  0  0  0  0  0  0  0  0  0  0
    1.9000    2.1009    0.2564 H   0  0  0  0  0  0  0  0  0  0  0  0
   -0.7381    1.8932   -0.3340 H   0  0  0  0  0  0  0  0  0  0  0  0
   -0.1828    2.3132    1.3655 H   0  0  0  0  0  0  0  0  0  0  0  0
   -2.0492    0.5914   -0.5001 H   0  0  0  0  0  0  0  0  0  0  0  0
   -2.5113   -0.6225    0.7694 H   0  0  0  0  0  0  0  0  0  0  0  0
   -1.7837   -2.1647   -0.7019 H   0  0  0  0  0  0  0  0  0  0  0  0
   -0.9734   -0.9606   -1.7190 H   0  0  0  0  0  0  0  0  0  0  0  0
  1  2  2  0
  2  3  1  0
  3  4  2  3
  4  5  1  0
  5  6  1  0
  6  7  1  0
  7  8  1  0
  8  9  1  0
  9  2  1  0
  3 10  1  0
  4 11  1  0
  5 12  1  0
  5 13  1  0
  7 14  1  0
  7 15  1  0
  8 16  1  0
  8 17  1  0
M  END
