
     RDKit          3D

 12 12  0  0  0  0  0  0  0  0999 V2000
    1.3419    0.4352   -1.7728 O   0  0  0  0  0  0  0  0  0  0  0  0
    0.7062    0.1759   -0.7966 C   0  0  0  0  0  0  0  0  0  0  0  0
    1.1938   -0.3250    0.4968 C   0  0  0  0  0  0  0  0  0  0  0  0
    0.1819    0.0372    1.4408 O   0  0  0  0  0  0  0  0  0  0  0  0
   -0.8456    0.7157    0.7935 C   0  0  0  0  0  0  0  0  0  0  0  0
   -1.6954    1.5065    1.2132 O   0  0  0  0  0  0  0  0  0  0  0  0
   -0.7509    0.2944   -0.6394 C   0  0  0  0  0  0  0  0  0  0  0  0
   -1.3318   -0.9708   -0.7279 O   0  0  0  0  0  0  0  0  0  0  0  0
    1.2502   -1.4492    0.4685 H   0  0  0  0  0  0  0  0  0  0  0  0
    2.1872    0.0547    0.7872 H   0  0  0  0  0  0  0  0  0  0  0  0
   -1.2293    1.0020   -1.3227 H   0  0  0  0  0  0  0  0  0  0  0  0
   -1.0082   -1.4769    0.0595 H   0  0  0  0  0  0  0  0  0  0  0  0
  1  2  2  0
  2  3  1  0
  3  4  1  0
  4  5  1  0
  5  6  2  0
  5  7  1  0
  7  8  1  0
  7  2  1  0
  3  9  1  0
  3 10  1  0
  7 11  1  0
  8 12  1  0
M  END
