
     RDKit          3D

 17 18  0  0  0  0  0  0  0  0999 V2000
    0.9652   -2.3096    0.5030 O   0  0  0  0  0  0  0  0  0  0  0  0
    0.4314   -1.2840    0.2090 C   0  0  0  0  0  0  0  0  0  0  0  0
   -1.0246   -1.1929    0.1150 C   0  0  0  0  0  0  0  0  0  0  0  0
   -1.4148    0.2644    0.2935 C   0  0  0  0  0  0  0  0  0  0  0  0
   -0.7459    1.1531   -0.7228 C   0  0  0  0  0  0  0  0  0  0  0  0
    0.3775    1.1165    0.2548 C   0  0  0  0  0  0  0  0  0  0  0  0
   -0.5548    0.8101    1.2601 O   0  0  0  0  0  0  0  0  0  0  0  0
    1.2451   -0.0936   -0.0633 C   0  0  0  0  0  0  0  0  0  0  0  0
    2.4361   -0.0661    0.6611 O   0  0  0  0  0  0  0  0  0  0  0  0
   -1.5628   -1.7510    0.9136 H   0  0  0  0  0  0  0  0  0  0  0  0
   -1.4261   -1.5772   -0.8429 H   0  0  0  0  0  0  0  0  0  0  0  0
   -2.4759    0.4642    0.4394 H   0  0  0  0  0  0  0  0  0  0  0  0
   -1.2235    2.1543   -0.7321 H   0  0  0  0  0  0  0  0  0  0  0  0
   -0.5614    0.7031   -1.7124 H   0  0  0  0  0  0  0  0  0  0  0  0
    0.9032    2.0359    0.4844 H   0  0  0  0  0  0  0  0  0  0  0  0
    1.4417   -0.0369   -1.1730 H   0  0  0  0  0  0  0  0  0  0  0  0
    3.1897   -0.3902    0.1127 H   0  0  0  0  0  0  0  0  0  0  0  0
  1  2  2  0
  2  3  1  0
  3  4  1  0
  4  5  1  0
  5  6  1  0
  6  7  1  0
  6  8  1  0
  8  9  1  0
  8  2  1  0
  7  4  1  0
  3 10  1  0
  3 11  1  0
  4 12  1  0
  5 13  1  0
  5 14  1  0
  6 15  1  0
  8 16  1  0
  9 17  1  0
M  END
