
     RDKit          3D

 21 21  0  0  0  0  0  0  0  0999 V2000
    1.0006    0.4702    2.1360 O   0  0  0  0  0  0  0  0  0  0  0  0
    1.5203    0.2217    1.0747 C   0  0  0  0  0  0  0  0  0  0  0  0
    2.8548    0.4261    0.4621 C   0  0  0  0  0  0  0  0  0  0  0  0
    2.1380    0.4436   -0.8952 C   0  0  0  0  0  0  0  0  0  0  0  0
    1.0932   -0.4246   -0.1855 C   0  0  0  0  0  0  0  0  0  0  0  0
   -0.2908   -0.1228   -0.6516 C   0  0  0  0  0  0  0  0  0  0  0  0
   -1.3638   -0.5275    0.3248 C   0  0  0  0  0  0  0  0  0  0  0  0
   -2.7003   -0.1480   -0.3094 C   0  0  0  0  0  0  0  0  0  0  0  0
   -3.7604   -0.4769    0.5067 O   0  0  0  0  0  0  0  0  0  0  0  0
    3.4547   -0.5149    0.5484 H   0  0  0  0  0  0  0  0  0  0  0  0
    3.3821    1.3449    0.7165 H   0  0  0  0  0  0  0  0  0  0  0  0
    1.7421    1.4612   -1.1110 H   0  0  0  0  0  0  0  0  0  0  0  0
    2.6784   -0.0534   -1.6994 H   0  0  0  0  0  0  0  0  0  0  0  0
    1.4105   -1.4846   -0.2286 H   0  0  0  0  0  0  0  0  0  0  0  0
   -0.4550   -0.6366   -1.6110 H   0  0  0  0  0  0  0  0  0  0  0  0
   -0.3682    0.9900   -0.7644 H   0  0  0  0  0  0  0  0  0  0  0  0
   -1.2481    0.0623    1.2760 H   0  0  0  0  0  0  0  0  0  0  0  0
   -1.3707   -1.5975    0.5511 H   0  0  0  0  0  0  0  0  0  0  0  0
   -2.7196   -0.6882   -1.2911 H   0  0  0  0  0  0  0  0  0  0  0  0
   -2.6997    0.9386   -0.4516 H   0  0  0  0  0  0  0  0  0  0  0  0
   -4.2980    0.3165    0.7671 H   0  0  0  0  0  0  0  0  0  0  0  0
  1  2  2  0
  2  3  1  0
  3  4  1  0
  4  5  1  0
  5  6  1  0
  6  7  1  0
  7  8  1  0
  8  9  1  0
  5  2  1  0
  3 10  1  0
  3 11  1  0
  4 12  1  0
  4 13  1  0
  5 14  1  0
  6 15  1  0
  6 16  1  0
  7 17  1  0
  7 18  1  0
  8 19  1  0
  8 20  1  0
  9 21  1  0
M  END
