
     RDKit          3D

 17 18  0  0  0  0  0  0  0  0999 V2000
    2.4201    0.8868    0.7356 O   0  0  0  0  0  0  0  0  0  0  0  0
    1.3599    0.6210    0.2201 C   0  0  0  0  0  0  0  0  0  0  0  0
    1.2244   -0.6597   -0.4909 C   0  0  0  0  0  0  0  0  0  0  0  0
   -0.1779   -1.1232   -0.6778 C   0  0  0  0  0  0  0  0  0  0  0  0
   -1.1896   -0.3639    0.1254 C   0  0  0  0  0  0  0  0  0  0  0  0
   -1.1441   -0.7293    1.4711 O   0  0  0  0  0  0  0  0  0  0  0  0
   -1.0781    1.1120    0.0337 C   0  0  0  0  0  0  0  0  0  0  0  0
   -0.3969    1.7554   -0.9676 O   0  0  0  0  0  0  0  0  0  0  0  0
    0.2619    1.5869    0.3283 C   0  0  0  0  0  0  0  0  0  0  0  0
    1.7367   -0.5454   -1.4737 H   0  0  0  0  0  0  0  0  0  0  0  0
    1.8422   -1.4162    0.0627 H   0  0  0  0  0  0  0  0  0  0  0  0
   -0.4318   -1.0807   -1.7642 H   0  0  0  0  0  0  0  0  0  0  0  0
   -0.2343   -2.1848   -0.3469 H   0  0  0  0  0  0  0  0  0  0  0  0
   -2.2032   -0.6661   -0.2675 H   0  0  0  0  0  0  0  0  0  0  0  0
   -0.4342   -1.3761    1.6517 H   0  0  0  0  0  0  0  0  0  0  0  0
   -1.9263    1.6750    0.4522 H   0  0  0  0  0  0  0  0  0  0  0  0
    0.3714    2.5084    0.9078 H   0  0  0  0  0  0  0  0  0  0  0  0
  1  2  2  0
  2  3  1  0
  3  4  1  0
  4  5  1  0
  5  6  1  0
  5  7  1  0
  7  8  1  0
  8  9  1  0
  9  2  1  0
  9  7  1  0
  3 10  1  0
  3 11  1  0
  4 12  1  0
  4 13  1  0
  5 14  1  0
  6 15  1  0
  7 16  1  0
  9 17  1  0
M  END
