
     RDKit          3D

 19 20  0  0  0  0  0  0  0  0999 V2000
    3.0551    1.3375    0.8728 O   0  0  0  0  0  0  0  0  0  0  0  0
    2.1486    0.5223    0.5972 C   0  0  0  0  0  0  0  0  0  0  0  0
    1.3950    0.2832   -0.6477 C   0  0  0  0  0  0  0  0  0  0  0  0
    0.0574   -0.1424   -0.0789 C   0  0  0  0  0  0  0  0  0  0  0  0
   -0.8428    0.9621    0.3567 C   0  0  0  0  0  0  0  0  0  0  0  0
   -2.0047    0.2000   -0.2948 C   0  0  0  0  0  0  0  0  0  0  0  0
   -0.9538   -0.6373   -1.0202 C   0  0  0  0  0  0  0  0  0  0  0  0
    0.5111   -1.0475    1.0274 C   0  0  0  0  0  0  0  0  0  0  0  0
    1.6604   -0.3838    1.5302 O   0  0  0  0  0  0  0  0  0  0  0  0
    1.3368    1.1385   -1.3194 H   0  0  0  0  0  0  0  0  0  0  0  0
    1.8545   -0.6037   -1.1442 H   0  0  0  0  0  0  0  0  0  0  0  0
   -1.0271    1.0485    1.4453 H   0  0  0  0  0  0  0  0  0  0  0  0
   -0.6256    1.9334   -0.1054 H   0  0  0  0  0  0  0  0  0  0  0  0
   -2.5698   -0.4224    0.4100 H   0  0  0  0  0  0  0  0  0  0  0  0
   -2.5685    0.8899   -0.9284 H   0  0  0  0  0  0  0  0  0  0  0  0
   -1.2019   -1.7088   -1.0373 H   0  0  0  0  0  0  0  0  0  0  0  0
   -0.8157   -0.1963   -2.0461 H   0  0  0  0  0  0  0  0  0  0  0  0
    0.8829   -2.0269    0.6277 H   0  0  0  0  0  0  0  0  0  0  0  0
   -0.2920   -1.1463    1.7550 H   0  0  0  0  0  0  0  0  0  0  0  0
  1  2  2  0
  2  3  1  0
  3  4  1  0
  4  5  1  0
  5  6  1  0
  6  7  1  0
  4  8  1  0
  8  9  1  0
  9  2  1  0
  7  4  1  0
  3 10  1  0
  3 11  1  0
  5 12  1  0
  5 13  1  0
  6 14  1  0
  6 15  1  0
  7 16  1  0
  7 17  1  0
  8 18  1  0
  8 19  1  0
M  END
