
     RDKit          3D

 19 20  0  0  0  0  0  0  0  0999 V2000
   -2.5886    1.7729    0.0794 O   0  0  0  0  0  0  0  0  0  0  0  0
   -1.7402    0.9455    0.1198 C   0  0  0  0  0  0  0  0  0  0  0  0
   -1.6084   -0.2314    1.0170 C   0  0  0  0  0  0  0  0  0  0  0  0
   -0.3166   -0.7822    0.4574 C   0  0  0  0  0  0  0  0  0  0  0  0
   -0.5742   -0.6437   -1.0500 C   0  0  0  0  0  0  0  0  0  0  0  0
   -0.5355    0.8341   -0.7264 C   0  0  0  0  0  0  0  0  0  0  0  0
    0.5203    0.4701    0.3022 C   0  0  0  0  0  0  0  0  0  0  0  0
    1.8994    0.2786   -0.2120 C   0  0  0  0  0  0  0  0  0  0  0  0
    2.6224   -0.5476    0.6411 O   0  0  0  0  0  0  0  0  0  0  0  0
   -1.4024    0.0927    2.0702 H   0  0  0  0  0  0  0  0  0  0  0  0
   -2.4489   -0.9218    0.9596 H   0  0  0  0  0  0  0  0  0  0  0  0
    0.1045   -1.6714    0.8224 H   0  0  0  0  0  0  0  0  0  0  0  0
    0.2095   -1.0298   -1.6929 H   0  0  0  0  0  0  0  0  0  0  0  0
   -1.6076   -0.9444   -1.2705 H   0  0  0  0  0  0  0  0  0  0  0  0
   -0.3191    1.5362   -1.4747 H   0  0  0  0  0  0  0  0  0  0  0  0
    0.5206    1.0981    1.2147 H   0  0  0  0  0  0  0  0  0  0  0  0
    2.4043    1.2640   -0.2203 H   0  0  0  0  0  0  0  0  0  0  0  0
    1.9789   -0.1306   -1.2259 H   0  0  0  0  0  0  0  0  0  0  0  0
    2.8815   -1.3895    0.1888 H   0  0  0  0  0  0  0  0  0  0  0  0
  1  2  2  0
  2  3  1  0
  3  4  1  0
  4  5  1  0
  5  6  1  0
  6  7  1  0
  7  8  1  0
  8  9  1  0
  6  2  1  0
  7  4  1  0
  3 10  1  0
  3 11  1  0
  4 12  1  0
  5 13  1  0
  5 14  1  0
  6 15  1  0
  7 16  1  0
  8 17  1  0
  8 18  1  0
  9 19  1  0
M  END
