
     RDKit          3D

 19 19  0  0  0  0  0  0  0  0999 V2000
   -0.1257   -2.3131   -0.3879 O   0  0  0  0  0  0  0  0  0  0  0  0
   -0.4849   -1.1571   -0.4043 C   0  0  0  0  0  0  0  0  0  0  0  0
   -1.8956   -0.7504   -0.5753 C   0  0  0  0  0  0  0  0  0  0  0  0
   -2.2622    0.3148    0.2173 O   0  0  0  0  0  0  0  0  0  0  0  0
   -1.3282    1.3198    0.2927 C   0  0  0  0  0  0  0  0  0  0  0  0
    0.0172    0.8365    0.8242 C   0  0  0  0  0  0  0  0  0  0  0  0
    0.5576   -0.1179   -0.2435 C   0  0  0  0  0  0  0  0  0  0  0  0
    1.8899   -0.6924    0.1587 C   0  0  0  0  0  0  0  0  0  0  0  0
    2.7981    0.3487    0.2848 O   0  0  0  0  0  0  0  0  0  0  0  0
   -2.1424   -0.5611   -1.6588 H   0  0  0  0  0  0  0  0  0  0  0  0
   -2.5689   -1.6064   -0.2902 H   0  0  0  0  0  0  0  0  0  0  0  0
   -1.6981    2.0675    1.0254 H   0  0  0  0  0  0  0  0  0  0  0  0
   -1.1825    1.8693   -0.6588 H   0  0  0  0  0  0  0  0  0  0  0  0
    0.6790    1.6836    0.9701 H   0  0  0  0  0  0  0  0  0  0  0  0
   -0.1634    0.2419    1.7412 H   0  0  0  0  0  0  0  0  0  0  0  0
    0.7053    0.4923   -1.1527 H   0  0  0  0  0  0  0  0  0  0  0  0
    2.2351   -1.3389   -0.6519 H   0  0  0  0  0  0  0  0  0  0  0  0
    1.8581   -1.2252    1.1216 H   0  0  0  0  0  0  0  0  0  0  0  0
    3.1115    0.5879   -0.6126 H   0  0  0  0  0  0  0  0  0  0  0  0
  1  2  2  0
  2  3  1  0
  3  4  1  0
  4  5  1  0
  5  6  1  0
  6  7  1  0
  7  8  1  0
  8  9  1  0
  7  2  1  0
  3 10  1  0
  3 11  1  0
  5 12  1  0
  5 13  1  0
  6 14  1  0
  6 15  1  0
  7 16  1  0
  8 17  1  0
  8 18  1  0
  9 19  1  0
M  END
