
     RDKit          3D

 15 16  0  0  0  0  0  0  0  0999 V2000
    0.4528    2.6678   -0.2320 O   0  0  0  0  0  0  0  0  0  0  0  0
    0.3505    1.4196   -0.0792 C   0  0  0  0  0  0  0  0  0  0  0  0
    1.5683    0.6899    0.2486 C   0  0  0  0  0  0  0  0  0  0  0  0
    1.6236   -0.6141    0.0520 C   0  0  0  0  0  0  0  0  0  0  0  0
    0.4499   -1.2707   -0.4901 C   0  0  0  0  0  0  0  0  0  0  0  0
    0.6156   -2.4372   -0.9507 O   0  0  0  0  0  0  0  0  0  0  0  0
   -0.8882   -0.6794   -0.5365 C   0  0  0  0  0  0  0  0  0  0  0  0
   -1.4528   -0.2210    0.7542 C   0  0  0  0  0  0  0  0  0  0  0  0
   -0.9630    0.7571   -0.2330 C   0  0  0  0  0  0  0  0  0  0  0  0
    2.4143    1.2304    0.6505 H   0  0  0  0  0  0  0  0  0  0  0  0
    2.5448   -1.1364    0.3048 H   0  0  0  0  0  0  0  0  0  0  0  0
   -1.5483   -1.0454   -1.3397 H   0  0  0  0  0  0  0  0  0  0  0  0
   -0.8782   -0.3762    1.6900 H   0  0  0  0  0  0  0  0  0  0  0  0
   -2.5443   -0.3473    0.8990 H   0  0  0  0  0  0  0  0  0  0  0  0
   -1.7450    1.3630   -0.7381 H   0  0  0  0  0  0  0  0  0  0  0  0
  1  2  2  0
  2  3  1  0
  3  4  2  0
  4  5  1  0
  5  6  2  0
  5  7  1  0
  7  8  1  0
  8  9  1  0
  9  2  1  0
  9  7  1  0
  3 10  1  0
  4 11  1  0
  7 12  1  0
  8 13  1  0
  8 14  1  0
  9 15  1  0
M  END
