
     RDKit          3D

 16 17  0  0  0  0  0  0  0  0999 V2000
   -2.8210   -1.1761   -1.2283 O   0  0  0  0  0  0  0  0  0  0  0  0
   -1.9230   -0.4238   -0.8461 C   0  0  0  0  0  0  0  0  0  0  0  0
   -1.5718    0.3273    0.3654 C   0  0  0  0  0  0  0  0  0  0  0  0
   -0.2255    0.1372   -0.1622 C   0  0  0  0  0  0  0  0  0  0  0  0
    0.6050   -1.0056    0.2985 C   0  0  0  0  0  0  0  0  0  0  0  0
    1.8195   -0.1257   -0.0255 C   0  0  0  0  0  0  0  0  0  0  0  0
    0.8616    1.0684    0.1082 C   0  0  0  0  0  0  0  0  0  0  0  0
   -0.7837    0.0668   -1.4397 O   0  0  0  0  0  0  0  0  0  0  0  0
   -1.8438   -0.1327    1.3343 H   0  0  0  0  0  0  0  0  0  0  0  0
   -1.8827    1.4132    0.3236 H   0  0  0  0  0  0  0  0  0  0  0  0
    0.5188   -1.9026   -0.3391 H   0  0  0  0  0  0  0  0  0  0  0  0
    0.5262   -1.1659    1.3898 H   0  0  0  0  0  0  0  0  0  0  0  0
    2.1399   -0.2168   -1.0931 H   0  0  0  0  0  0  0  0  0  0  0  0
    2.6181   -0.1582    0.7150 H   0  0  0  0  0  0  0  0  0  0  0  0
    1.0675    1.8876   -0.5819 H   0  0  0  0  0  0  0  0  0  0  0  0
    0.8949    1.4066    1.1811 H   0  0  0  0  0  0  0  0  0  0  0  0
  1  2  2  0
  2  3  1  0
  3  4  1  0
  4  5  1  0
  5  6  1  0
  6  7  1  0
  4  8  1  0
  8  2  1  0
  7  4  1  0
  3  9  1  0
  3 10  1  0
  5 11  1  0
  5 12  1  0
  6 13  1  0
  6 14  1  0
  7 15  1  0
  7 16  1  0
M  END
