
     RDKit          3D

 15 17  0  0  0  0  0  0  0  0999 V2000
    1.9675    1.5880   -0.0059 O   0  0  0  0  0  0  0  0  0  0  0  0
    1.1317    0.7419   -0.0553 C   0  0  0  0  0  0  0  0  0  0  0  0
    1.3638   -0.7240   -0.1737 C   0  0  0  0  0  0  0  0  0  0  0  0
   -0.0777   -1.1772   -0.0805 C   0  0  0  0  0  0  0  0  0  0  0  0
   -0.7873   -0.2461    0.8610 C   0  0  0  0  0  0  0  0  0  0  0  0
   -1.8868   -0.3695    0.0304 O   0  0  0  0  0  0  0  0  0  0  0  0
   -0.8628   -0.2310   -0.8944 C   0  0  0  0  0  0  0  0  0  0  0  0
   -0.3208    0.8598   -0.0176 C   0  0  0  0  0  0  0  0  0  0  0  0
   -0.9225    2.0536    0.0073 O   0  0  0  0  0  0  0  0  0  0  0  0
    1.9002   -1.1505    0.6860 H   0  0  0  0  0  0  0  0  0  0  0  0
    1.8159   -0.9991   -1.1480 H   0  0  0  0  0  0  0  0  0  0  0  0
   -0.2931   -2.2221   -0.0561 H   0  0  0  0  0  0  0  0  0  0  0  0
   -0.7753   -0.2887    1.8680 H   0  0  0  0  0  0  0  0  0  0  0  0
   -0.9670   -0.1905   -1.8997 H   0  0  0  0  0  0  0  0  0  0  0  0
   -1.2858    2.3554    0.8786 H   0  0  0  0  0  0  0  0  0  0  0  0
  1  2  2  0
  2  3  1  0
  3  4  1  0
  4  5  1  0
  5  6  1  0
  6  7  1  0
  7  8  1  0
  8  9  1  0
  8  2  1  0
  7  4  1  0
  8  5  1  0
  3 10  1  0
  3 11  1  0
  4 12  1  0
  5 13  1  0
  7 14  1  0
  9 15  1  0
M  END
