
     RDKit          3D

 19 20  0  0  0  0  0  0  0  0999 V2000
    3.0400    0.0087    0.1136 O   0  0  0  0  0  0  0  0  0  0  0  0
    1.8521    0.0353   -0.1947 C   0  0  0  0  0  0  0  0  0  0  0  0
    1.1305   -1.2286   -0.4677 C   0  0  0  0  0  0  0  0  0  0  0  0
   -0.1631   -1.2319    0.2954 C   0  0  0  0  0  0  0  0  0  0  0  0
   -0.9379    0.0516    0.0993 C   0  0  0  0  0  0  0  0  0  0  0  0
   -0.1182    1.1786    0.6192 C   0  0  0  0  0  0  0  0  0  0  0  0
    1.0990    1.3104   -0.3057 C   0  0  0  0  0  0  0  0  0  0  0  0
   -2.3532   -0.0002    0.0011 C   0  0  0  0  0  0  0  0  0  0  0  0
   -1.5657    0.2931   -1.1157 O   0  0  0  0  0  0  0  0  0  0  0  0
    1.7224   -2.1127   -0.0917 H   0  0  0  0  0  0  0  0  0  0  0  0
    0.9101   -1.3579   -1.5458 H   0  0  0  0  0  0  0  0  0  0  0  0
   -0.7961   -2.0940    0.0649 H   0  0  0  0  0  0  0  0  0  0  0  0
    0.0808   -1.2745    1.3947 H   0  0  0  0  0  0  0  0  0  0  0  0
    0.2828    0.9330    1.6468 H   0  0  0  0  0  0  0  0  0  0  0  0
   -0.6868    2.1467    0.6575 H   0  0  0  0  0  0  0  0  0  0  0  0
    0.7286    1.3677   -1.3539 H   0  0  0  0  0  0  0  0  0  0  0  0
    1.6829    2.2000   -0.1048 H   0  0  0  0  0  0  0  0  0  0  0  0
   -2.8451   -1.0052   -0.0545 H   0  0  0  0  0  0  0  0  0  0  0  0
   -3.0632    0.7799    0.3420 H   0  0  0  0  0  0  0  0  0  0  0  0
  1  2  2  0
  2  3  1  0
  3  4  1  0
  4  5  1  0
  5  6  1  0
  6  7  1  0
  5  8  1  0
  8  9  1  0
  7  2  1  0
  9  5  1  0
  3 10  1  0
  3 11  1  0
  4 12  1  0
  4 13  1  0
  6 14  1  0
  6 15  1  0
  7 16  1  0
  7 17  1  0
  8 18  1  0
  8 19  1  0
M  END
