
     RDKit          3D

 16 17  0  0  0  0  0  0  0  0999 V2000
   -0.0810    2.7724   -0.7729 O   0  0  0  0  0  0  0  0  0  0  0  0
   -0.3404    1.5916   -0.3993 C   0  0  0  0  0  0  0  0  0  0  0  0
   -1.4281    0.8870   -0.8650 O   0  0  0  0  0  0  0  0  0  0  0  0
   -1.6643   -0.2652   -0.0985 C   0  0  0  0  0  0  0  0  0  0  0  0
   -0.3943   -0.4765    0.6705 C   0  0  0  0  0  0  0  0  0  0  0  0
    0.6241   -1.1994   -0.1922 C   0  0  0  0  0  0  0  0  0  0  0  0
    1.5206    0.0131   -0.1446 C   0  0  0  0  0  0  0  0  0  0  0  0
    0.4290    0.7676    0.5628 C   0  0  0  0  0  0  0  0  0  0  0  0
   -2.5608   -0.1709    0.5438 H   0  0  0  0  0  0  0  0  0  0  0  0
   -1.7712   -1.1150   -0.8213 H   0  0  0  0  0  0  0  0  0  0  0  0
   -0.5228   -0.8652    1.6804 H   0  0  0  0  0  0  0  0  0  0  0  0
    0.9853   -2.0979    0.3180 H   0  0  0  0  0  0  0  0  0  0  0  0
    0.2947   -1.3751   -1.2464 H   0  0  0  0  0  0  0  0  0  0  0  0
    1.7878    0.4316   -1.1493 H   0  0  0  0  0  0  0  0  0  0  0  0
    2.4268   -0.1842    0.4348 H   0  0  0  0  0  0  0  0  0  0  0  0
    0.6946    1.2859    1.4791 H   0  0  0  0  0  0  0  0  0  0  0  0
  1  2  2  0
  2  3  1  0
  3  4  1  0
  4  5  1  0
  5  6  1  0
  6  7  1  0
  7  8  1  0
  8  2  1  0
  8  5  1  0
  4  9  1  0
  4 10  1  0
  5 11  1  0
  6 12  1  0
  6 13  1  0
  7 14  1  0
  7 15  1  0
  8 16  1  0
M  END
