
     RDKit          3D

 17 18  0  0  0  0  0  0  0  0999 V2000
   -2.2516    0.6948    1.4478 O   0  0  0  0  0  0  0  0  0  0  0  0
   -1.4246    0.5570    0.5921 C   0  0  0  0  0  0  0  0  0  0  0  0
   -0.1750    1.3416    0.3875 C   0  0  0  0  0  0  0  0  0  0  0  0
    0.6908    0.5551   -0.5437 C   0  0  0  0  0  0  0  0  0  0  0  0
    1.7668   -0.2762    0.1632 C   0  0  0  0  0  0  0  0  0  0  0  0
    0.6470   -1.2121    0.5401 C   0  0  0  0  0  0  0  0  0  0  0  0
    0.5041   -1.9464    1.4839 O   0  0  0  0  0  0  0  0  0  0  0  0
   -0.0402   -0.7723   -0.7063 C   0  0  0  0  0  0  0  0  0  0  0  0
   -1.5000   -0.4858   -0.4868 C   0  0  0  0  0  0  0  0  0  0  0  0
    0.3160    1.5408    1.3581 H   0  0  0  0  0  0  0  0  0  0  0  0
   -0.4850    2.3109   -0.0610 H   0  0  0  0  0  0  0  0  0  0  0  0
    1.0160    1.0327   -1.4653 H   0  0  0  0  0  0  0  0  0  0  0  0
    2.2555    0.2248    0.9943 H   0  0  0  0  0  0  0  0  0  0  0  0
    2.4071   -0.7644   -0.5817 H   0  0  0  0  0  0  0  0  0  0  0  0
    0.2339   -1.3036   -1.6192 H   0  0  0  0  0  0  0  0  0  0  0  0
   -1.9817   -1.4156   -0.1258 H   0  0  0  0  0  0  0  0  0  0  0  0
   -1.9792   -0.0814   -1.3772 H   0  0  0  0  0  0  0  0  0  0  0  0
  1  2  2  0
  2  3  1  0
  3  4  1  0
  4  5  1  0
  5  6  1  0
  6  7  2  0
  6  8  1  0
  8  9  1  0
  9  2  1  0
  8  4  1  0
  3 10  1  0
  3 11  1  0
  4 12  1  0
  5 13  1  0
  5 14  1  0
  8 15  1  0
  9 16  1  0
  9 17  1  0
M  END
