
     RDKit          3D

 17 18  0  0  0  0  0  0  0  0999 V2000
    2.2317    1.8602    0.8187 O   0  0  0  0  0  0  0  0  0  0  0  0
    1.3511    0.9763    0.6189 C   0  0  0  0  0  0  0  0  0  0  0  0
    1.7295   -0.4305    0.6412 C   0  0  0  0  0  0  0  0  0  0  0  0
    1.1276   -1.2618   -0.1805 C   0  0  0  0  0  0  0  0  0  0  0  0
    0.0949   -0.7345   -1.0903 C   0  0  0  0  0  0  0  0  0  0  0  0
   -0.7936    0.2054   -0.3357 C   0  0  0  0  0  0  0  0  0  0  0  0
   -2.0060   -0.3185    0.2518 C   0  0  0  0  0  0  0  0  0  0  0  0
   -2.0027    0.5974   -0.9281 O   0  0  0  0  0  0  0  0  0  0  0  0
   -0.0709    1.3046    0.3588 C   0  0  0  0  0  0  0  0  0  0  0  0
    2.5005   -0.7354    1.3401 H   0  0  0  0  0  0  0  0  0  0  0  0
    1.3631   -2.3068   -0.2098 H   0  0  0  0  0  0  0  0  0  0  0  0
   -0.5171   -1.5374   -1.5286 H   0  0  0  0  0  0  0  0  0  0  0  0
    0.6157   -0.2399   -1.9450 H   0  0  0  0  0  0  0  0  0  0  0  0
   -2.5071    0.1208    1.1257 H   0  0  0  0  0  0  0  0  0  0  0  0
   -2.4406   -1.2765   -0.1125 H   0  0  0  0  0  0  0  0  0  0  0  0
   -0.1175    2.2868   -0.1840 H   0  0  0  0  0  0  0  0  0  0  0  0
   -0.5586    1.4897    1.3594 H   0  0  0  0  0  0  0  0  0  0  0  0
  1  2  2  0
  2  3  1  0
  3  4  2  0
  4  5  1  0
  5  6  1  0
  6  7  1  0
  7  8  1  0
  6  9  1  0
  9  2  1  0
  8  6  1  0
  3 10  1  0
  4 11  1  0
  5 12  1  0
  5 13  1  0
  7 14  1  0
  7 15  1  0
  9 16  1  0
  9 17  1  0
M  END
