
     RDKit          3D

 17 17  0  0  0  0  0  0  0  0999 V2000
    0.2553   -2.0861   -0.4019 O   0  0  0  0  0  0  0  0  0  0  0  0
   -0.2259   -1.0043   -0.2355 C   0  0  0  0  0  0  0  0  0  0  0  0
   -1.6720   -0.8547    0.1544 C   0  0  0  0  0  0  0  0  0  0  0  0
   -2.0641    0.3768   -0.4115 O   0  0  0  0  0  0  0  0  0  0  0  0
   -1.3925    1.3689    0.2411 C   0  0  0  0  0  0  0  0  0  0  0  0
   -0.0434    1.3385    0.1876 O   0  0  0  0  0  0  0  0  0  0  0  0
    0.5418    0.2556   -0.3950 C   0  0  0  0  0  0  0  0  0  0  0  0
    1.9138    0.0705    0.2533 C   0  0  0  0  0  0  0  0  0  0  0  0
    2.5778   -1.0226   -0.2917 O   0  0  0  0  0  0  0  0  0  0  0  0
   -1.7118   -0.7797    1.2540 H   0  0  0  0  0  0  0  0  0  0  0  0
   -2.2854   -1.6865   -0.2060 H   0  0  0  0  0  0  0  0  0  0  0  0
   -1.7605    1.3970    1.3079 H   0  0  0  0  0  0  0  0  0  0  0  0
   -1.7529    2.3503   -0.1858 H   0  0  0  0  0  0  0  0  0  0  0  0
    0.6915    0.4295   -1.4763 H   0  0  0  0  0  0  0  0  0  0  0  0
    1.7139   -0.1985    1.3282 H   0  0  0  0  0  0  0  0  0  0  0  0
    2.5269    0.9820    0.1570 H   0  0  0  0  0  0  0  0  0  0  0  0
    2.6877   -0.9367   -1.2795 H   0  0  0  0  0  0  0  0  0  0  0  0
  1  2  2  0
  2  3  1  0
  3  4  1  0
  4  5  1  0
  5  6  1  0
  6  7  1  0
  7  8  1  0
  8  9  1  0
  7  2  1  0
  3 10  1  0
  3 11  1  0
  5 12  1  0
  5 13  1  0
  7 14  1  0
  8 15  1  0
  8 16  1  0
  9 17  1  0
M  END
