
     RDKit          3D

 11 11  0  0  0  0  0  0  0  0999 V2000
    1.0361   -2.4092   -0.1965 O   0  0  0  0  0  0  0  0  0  0  0  0
    0.4797   -1.2814   -0.1501 C   0  0  0  0  0  0  0  0  0  0  0  0
   -0.8847   -1.1031   -0.1822 O   0  0  0  0  0  0  0  0  0  0  0  0
   -1.5393    0.1052    0.1100 C   0  0  0  0  0  0  0  0  0  0  0  0
   -0.7142    1.2361   -0.0451 O   0  0  0  0  0  0  0  0  0  0  0  0
    0.6648    1.1947   -0.0049 C   0  0  0  0  0  0  0  0  0  0  0  0
    1.3875    2.2335    0.0759 O   0  0  0  0  0  0  0  0  0  0  0  0
    1.3301   -0.1045   -0.0576 C   0  0  0  0  0  0  0  0  0  0  0  0
    2.6009   -0.1924   -0.0234 O   0  0  0  0  0  0  0  0  0  0  0  0
   -1.9947    0.1281    1.1220 H   0  0  0  0  0  0  0  0  0  0  0  0
   -2.3663    0.1930   -0.6480 H   0  0  0  0  0  0  0  0  0  0  0  0
  1  2  2  0
  2  3  1  0
  3  4  1  0
  4  5  1  0
  5  6  1  0
  6  7  2  0
  6  8  1  0
  8  9  2  0
  8  2  1  0
  4 10  1  0
  4 11  1  0
M  END
