
     RDKit          3D

 14 15  0  0  0  0  0  0  0  0999 V2000
    0.8968    1.1665   -2.0375 O   0  0  0  0  0  0  0  0  0  0  0  0
    0.4727    0.6126   -1.0681 C   0  0  0  0  0  0  0  0  0  0  0  0
   -0.4568    1.0625    0.0076 C   0  0  0  0  0  0  0  0  0  0  0  0
    0.4119    0.6864    1.1915 C   0  0  0  0  0  0  0  0  0  0  0  0
    1.1103   -0.3912    0.8434 C   0  0  0  0  0  0  0  0  0  0  0  0
    0.6837   -0.7603   -0.5111 C   0  0  0  0  0  0  0  0  0  0  0  0
   -0.7785   -1.1404   -0.3861 C   0  0  0  0  0  0  0  0  0  0  0  0
   -1.4591   -0.0375   -0.0744 C   0  0  0  0  0  0  0  0  0  0  0  0
   -0.8009    2.0536   -0.0184 H   0  0  0  0  0  0  0  0  0  0  0  0
    0.4363    1.2212    2.1391 H   0  0  0  0  0  0  0  0  0  0  0  0
    1.8405   -0.8728    1.4637 H   0  0  0  0  0  0  0  0  0  0  0  0
    1.2759   -1.4199   -1.0809 H   0  0  0  0  0  0  0  0  0  0  0  0
   -1.1041   -2.1560   -0.5425 H   0  0  0  0  0  0  0  0  0  0  0  0
   -2.5286   -0.0247    0.0737 H   0  0  0  0  0  0  0  0  0  0  0  0
  1  2  2  0
  2  3  1  0
  3  4  1  0
  4  5  2  0
  5  6  1  0
  6  7  1  0
  7  8  2  0
  6  2  1  0
  8  3  1  0
  3  9  1  0
  4 10  1  0
  5 11  1  0
  6 12  1  0
  7 13  1  0
  8 14  1  0
M  END
