
     RDKit          3D

 17 18  0  0  0  0  0  0  0  0999 V2000
   -3.3749    0.4601    0.0431 O   0  0  0  0  0  0  0  0  0  0  0  0
   -2.1582    0.3284   -0.1634 C   0  0  0  0  0  0  0  0  0  0  0  0
   -1.1761    1.3721   -0.4277 C   0  0  0  0  0  0  0  0  0  0  0  0
    0.0278    0.9684   -0.0903 C   0  0  0  0  0  0  0  0  0  0  0  0
    1.4770    1.2325    0.0185 C   0  0  0  0  0  0  0  0  0  0  0  0
    2.1309    0.0952    0.1331 C   0  0  0  0  0  0  0  0  0  0  0  0
    1.1951   -1.0873    0.1157 C   0  0  0  0  0  0  0  0  0  0  0  0
   -0.1055   -0.4174    0.4837 C   0  0  0  0  0  0  0  0  0  0  0  0
   -1.3167   -0.9333   -0.2067 C   0  0  0  0  0  0  0  0  0  0  0  0
   -1.3833    2.3544   -0.8434 H   0  0  0  0  0  0  0  0  0  0  0  0
    1.9397    2.1990    0.0055 H   0  0  0  0  0  0  0  0  0  0  0  0
    3.2103   -0.0560    0.2323 H   0  0  0  0  0  0  0  0  0  0  0  0
    1.1683   -1.5850   -0.8521 H   0  0  0  0  0  0  0  0  0  0  0  0
    1.5014   -1.7445    0.9489 H   0  0  0  0  0  0  0  0  0  0  0  0
   -0.2322   -0.3095    1.5762 H   0  0  0  0  0  0  0  0  0  0  0  0
   -1.0802   -1.1125   -1.2664 H   0  0  0  0  0  0  0  0  0  0  0  0
   -1.8233   -1.7644    0.2930 H   0  0  0  0  0  0  0  0  0  0  0  0
  1  2  2  0
  2  3  1  0
  3  4  2  0
  4  5  1  0
  5  6  2  0
  6  7  1  0
  7  8  1  0
  8  9  1  0
  9  2  1  0
  8  4  1  0
  3 10  1  0
  5 11  1  0
  6 12  1  0
  7 13  1  0
  7 14  1  0
  8 15  1  0
  9 16  1  0
  9 17  1  0
M  END
