
     RDKit          3D

 15 16  0  0  0  0  0  0  0  0999 V2000
   -0.0752    2.8040   -0.3091 O   0  0  0  0  0  0  0  0  0  0  0  0
    0.1920    1.5848   -0.2180 C   0  0  0  0  0  0  0  0  0  0  0  0
    1.2795    1.1581    0.4905 O   0  0  0  0  0  0  0  0  0  0  0  0
    1.6689   -0.1928    0.5449 C   0  0  0  0  0  0  0  0  0  0  0  0
    1.1098   -1.0205   -0.3408 O   0  0  0  0  0  0  0  0  0  0  0  0
   -0.1274   -0.8085   -0.8036 C   0  0  0  0  0  0  0  0  0  0  0  0
   -1.2918   -0.4136    0.0423 C   0  0  0  0  0  0  0  0  0  0  0  0
   -1.1234   -0.3615    1.4136 O   0  0  0  0  0  0  0  0  0  0  0  0
   -0.6488    0.5603   -0.8669 C   0  0  0  0  0  0  0  0  0  0  0  0
    2.7894   -0.1973    0.4054 H   0  0  0  0  0  0  0  0  0  0  0  0
    1.5204   -0.5572    1.5900 H   0  0  0  0  0  0  0  0  0  0  0  0
   -0.4183   -1.4754   -1.6679 H   0  0  0  0  0  0  0  0  0  0  0  0
   -2.3230   -0.7234   -0.2571 H   0  0  0  0  0  0  0  0  0  0  0  0
   -1.4124   -1.2569    1.7646 H   0  0  0  0  0  0  0  0  0  0  0  0
   -1.1398    0.8999   -1.7879 H   0  0  0  0  0  0  0  0  0  0  0  0
  1  2  2  0
  2  3  1  0
  3  4  1  0
  4  5  1  0
  5  6  1  0
  6  7  1  0
  7  8  1  0
  7  9  1  0
  9  2  1  0
  9  6  1  0
  4 10  1  0
  4 11  1  0
  6 12  1  0
  7 13  1  0
  8 14  1  0
  9 15  1  0
M  END
