
     RDKit          3D

 15 17  0  0  0  0  0  0  0  0999 V2000
   -2.4844   -0.8200    1.7073 O   0  0  0  0  0  0  0  0  0  0  0  0
   -1.6329   -0.2544    0.9796 C   0  0  0  0  0  0  0  0  0  0  0  0
   -1.5406    1.1093    0.6148 O   0  0  0  0  0  0  0  0  0  0  0  0
   -0.3685    1.1155   -0.1861 C   0  0  0  0  0  0  0  0  0  0  0  0
   -0.4700   -0.1339   -1.0263 C   0  0  0  0  0  0  0  0  0  0  0  0
    1.0192   -0.2110   -0.9542 C   0  0  0  0  0  0  0  0  0  0  0  0
    0.6170    0.1830    0.4447 C   0  0  0  0  0  0  0  0  0  0  0  0
    1.3569    0.3688    1.4353 O   0  0  0  0  0  0  0  0  0  0  0  0
   -0.4855   -0.8384    0.2946 C   0  0  0  0  0  0  0  0  0  0  0  0
   -0.0469    2.0242   -0.6341 H   0  0  0  0  0  0  0  0  0  0  0  0
   -1.0697   -0.2811   -1.8136 H   0  0  0  0  0  0  0  0  0  0  0  0
    1.5382    0.5581   -1.5388 H   0  0  0  0  0  0  0  0  0  0  0  0
    1.4780   -1.2108   -0.9657 H   0  0  0  0  0  0  0  0  0  0  0  0
    2.3461    0.2597    1.2809 H   0  0  0  0  0  0  0  0  0  0  0  0
   -0.2568   -1.8692    0.3616 H   0  0  0  0  0  0  0  0  0  0  0  0
  1  2  2  0
  2  3  1  0
  3  4  1  0
  4  5  1  0
  5  6  1  0
  6  7  1  0
  7  8  1  0
  7  9  1  0
  9  2  1  0
  7  4  1  0
  9  5  1  0
  4 10  1  0
  5 11  1  0
  6 12  1  0
  6 13  1  0
  8 14  1  0
  9 15  1  0
M  END
