
     RDKit          3D

 19 20  0  0  0  0  0  0  0  0999 V2000
    1.6804   -2.6404    0.1667 O   0  0  0  0  0  0  0  0  0  0  0  0
    0.9457   -1.6401    0.0833 C   0  0  0  0  0  0  0  0  0  0  0  0
    1.5664   -0.3784    0.5452 C   0  0  0  0  0  0  0  0  0  0  0  0
    0.9749    0.7220   -0.2428 C   0  0  0  0  0  0  0  0  0  0  0  0
    0.4628    1.9849    0.2012 C   0  0  0  0  0  0  0  0  0  0  0  0
   -0.4609    0.8931    0.3557 C   0  0  0  0  0  0  0  0  0  0  0  0
   -1.3730    0.3067   -0.6504 C   0  0  0  0  0  0  0  0  0  0  0  0
   -1.5309   -1.1683   -0.2902 C   0  0  0  0  0  0  0  0  0  0  0  0
   -0.3149   -1.8859   -0.4243 O   0  0  0  0  0  0  0  0  0  0  0  0
    1.3035   -0.2924    1.6404 H   0  0  0  0  0  0  0  0  0  0  0  0
    2.6672   -0.4180    0.5169 H   0  0  0  0  0  0  0  0  0  0  0  0
    1.0376    0.5459   -1.3474 H   0  0  0  0  0  0  0  0  0  0  0  0
    0.8632    2.4677    1.1138 H   0  0  0  0  0  0  0  0  0  0  0  0
    0.2289    2.7518   -0.5791 H   0  0  0  0  0  0  0  0  0  0  0  0
   -0.6347    0.5168    1.3828 H   0  0  0  0  0  0  0  0  0  0  0  0
   -0.9567    0.3292   -1.6833 H   0  0  0  0  0  0  0  0  0  0  0  0
   -2.3538    0.7725   -0.6545 H   0  0  0  0  0  0  0  0  0  0  0  0
   -2.2906   -1.6380   -0.9186 H   0  0  0  0  0  0  0  0  0  0  0  0
   -1.8151   -1.2291    0.7846 H   0  0  0  0  0  0  0  0  0  0  0  0
  1  2  2  0
  2  3  1  0
  3  4  1  0
  4  5  1  0
  5  6  1  0
  6  7  1  0
  7  8  1  0
  8  9  1  0
  9  2  1  0
  6  4  1  0
  3 10  1  0
  3 11  1  0
  4 12  1  0
  5 13  1  0
  5 14  1  0
  6 15  1  0
  7 16  1  0
  7 17  1  0
  8 18  1  0
  8 19  1  0
M  END
