
     RDKit          3D

 17 18  0  0  0  0  0  0  0  0999 V2000
   -0.6776    2.6795    0.5169 O   0  0  0  0  0  0  0  0  0  0  0  0
   -0.3831    1.5304    0.0923 C   0  0  0  0  0  0  0  0  0  0  0  0
    1.0200    1.2257   -0.1385 C   0  0  0  0  0  0  0  0  0  0  0  0
    1.6266    0.0601   -0.1281 C   0  0  0  0  0  0  0  0  0  0  0  0
    1.1029   -1.3314    0.1185 C   0  0  0  0  0  0  0  0  0  0  0  0
   -0.2481   -1.1803    0.6993 C   0  0  0  0  0  0  0  0  0  0  0  0
   -1.3622   -1.8137    0.2750 O   0  0  0  0  0  0  0  0  0  0  0  0
   -1.1448   -0.6932   -0.4529 C   0  0  0  0  0  0  0  0  0  0  0  0
   -1.5954    0.6647   -0.0996 C   0  0  0  0  0  0  0  0  0  0  0  0
    1.6299    2.0895   -0.3450 H   0  0  0  0  0  0  0  0  0  0  0  0
    2.6958    0.1059   -0.3336 H   0  0  0  0  0  0  0  0  0  0  0  0
    1.0132   -1.7812   -0.9134 H   0  0  0  0  0  0  0  0  0  0  0  0
    1.8000   -1.9161    0.7334 H   0  0  0  0  0  0  0  0  0  0  0  0
   -0.2869   -0.6185    1.6552 H   0  0  0  0  0  0  0  0  0  0  0  0
   -0.8008   -0.8552   -1.4881 H   0  0  0  0  0  0  0  0  0  0  0  0
   -2.1274    1.1221   -0.9855 H   0  0  0  0  0  0  0  0  0  0  0  0
   -2.2621    0.7117    0.7939 H   0  0  0  0  0  0  0  0  0  0  0  0
  1  2  2  0
  2  3  1  0
  3  4  2  0
  4  5  1  0
  5  6  1  0
  6  7  1  0
  7  8  1  0
  8  9  1  0
  9  2  1  0
  8  6  1  0
  3 10  1  0
  4 11  1  0
  5 12  1  0
  5 13  1  0
  6 14  1  0
  8 15  1  0
  9 16  1  0
  9 17  1  0
M  END
