
     RDKit          3D

 19 20  0  0  0  0  0  0  0  0999 V2000
   -0.0041    2.4389   -0.1367 O   0  0  0  0  0  0  0  0  0  0  0  0
   -0.3783    1.3182   -0.1760 C   0  0  0  0  0  0  0  0  0  0  0  0
   -1.6769    0.7403   -0.6069 C   0  0  0  0  0  0  0  0  0  0  0  0
   -1.4631   -0.6624   -0.0927 C   0  0  0  0  0  0  0  0  0  0  0  0
   -0.1144   -0.9719   -0.7603 C   0  0  0  0  0  0  0  0  0  0  0  0
    0.3743    0.1135    0.2108 C   0  0  0  0  0  0  0  0  0  0  0  0
    1.7666    0.1689    0.5431 C   0  0  0  0  0  0  0  0  0  0  0  0
    2.4802    0.6608   -0.5756 O   0  0  0  0  0  0  0  0  0  0  0  0
   -0.6187   -0.5190    1.1847 C   0  0  0  0  0  0  0  0  0  0  0  0
   -2.5429    1.2469   -0.1740 H   0  0  0  0  0  0  0  0  0  0  0  0
   -1.6771    0.7349   -1.7189 H   0  0  0  0  0  0  0  0  0  0  0  0
   -2.2240   -1.3873   -0.1224 H   0  0  0  0  0  0  0  0  0  0  0  0
    0.2071   -1.9644   -0.4602 H   0  0  0  0  0  0  0  0  0  0  0  0
   -0.0699   -0.6926   -1.8140 H   0  0  0  0  0  0  0  0  0  0  0  0
    2.2558   -0.7773    0.8384 H   0  0  0  0  0  0  0  0  0  0  0  0
    1.9651    0.9050    1.3496 H   0  0  0  0  0  0  0  0  0  0  0  0
    3.1018   -0.0211   -0.9259 H   0  0  0  0  0  0  0  0  0  0  0  0
   -1.0310    0.1901    1.9007 H   0  0  0  0  0  0  0  0  0  0  0  0
   -0.3505   -1.5214    1.5363 H   0  0  0  0  0  0  0  0  0  0  0  0
  1  2  2  0
  2  3  1  0
  3  4  1  0
  4  5  1  0
  5  6  1  0
  6  7  1  0
  7  8  1  0
  6  9  1  0
  6  2  1  0
  9  4  1  0
  3 10  1  0
  3 11  1  0
  4 12  1  0
  5 13  1  0
  5 14  1  0
  7 15  1  0
  7 16  1  0
  8 17  1  0
  9 18  1  0
  9 19  1  0
M  END
