
     RDKit          3D

 17 18  0  0  0  0  0  0  0  0999 V2000
    0.7728   -1.8695    1.4954 O   0  0  0  0  0  0  0  0  0  0  0  0
    0.7134   -0.8796    0.8020 C   0  0  0  0  0  0  0  0  0  0  0  0
    1.7615   -0.3352   -0.1564 C   0  0  0  0  0  0  0  0  0  0  0  0
    2.3879    0.7744    0.3573 O   0  0  0  0  0  0  0  0  0  0  0  0
    0.8523    0.1522   -1.2597 C   0  0  0  0  0  0  0  0  0  0  0  0
   -0.3688    0.3755   -0.8166 C   0  0  0  0  0  0  0  0  0  0  0  0
   -1.8032    0.7110   -0.6253 C   0  0  0  0  0  0  0  0  0  0  0  0
   -1.7735   -0.3844    0.4692 C   0  0  0  0  0  0  0  0  0  0  0  0
   -0.3780    0.0798    0.6821 C   0  0  0  0  0  0  0  0  0  0  0  0
    2.4277   -1.1350   -0.4946 H   0  0  0  0  0  0  0  0  0  0  0  0
    3.2476    0.5692    0.8176 H   0  0  0  0  0  0  0  0  0  0  0  0
    1.2098    0.2871   -2.2833 H   0  0  0  0  0  0  0  0  0  0  0  0
   -2.4742    0.4902   -1.4538 H   0  0  0  0  0  0  0  0  0  0  0  0
   -1.8983    1.7148   -0.1578 H   0  0  0  0  0  0  0  0  0  0  0  0
   -1.8990   -1.3861    0.0080 H   0  0  0  0  0  0  0  0  0  0  0  0
   -2.4362   -0.1548    1.3213 H   0  0  0  0  0  0  0  0  0  0  0  0
   -0.3416    0.9904    1.2946 H   0  0  0  0  0  0  0  0  0  0  0  0
  1  2  2  0
  2  3  1  0
  3  4  1  0
  3  5  1  0
  5  6  2  0
  6  7  1  0
  7  8  1  0
  8  9  1  0
  9  2  1  0
  9  6  1  0
  3 10  1  0
  4 11  1  0
  5 12  1  0
  7 13  1  0
  7 14  1  0
  8 15  1  0
  8 16  1  0
  9 17  1  0
M  END
