
     RDKit          3D

 19 21  0  0  0  0  0  0  0  0999 V2000
   -1.7060    1.6217    1.4997 O   0  0  0  0  0  0  0  0  0  0  0  0
   -0.9997    0.9165    0.8497 C   0  0  0  0  0  0  0  0  0  0  0  0
   -0.3320   -0.4024    1.1795 C   0  0  0  0  0  0  0  0  0  0  0  0
   -0.8480   -1.2353    0.0321 C   0  0  0  0  0  0  0  0  0  0  0  0
   -1.0058   -0.2556   -1.1388 C   0  0  0  0  0  0  0  0  0  0  0  0
   -0.4804    1.0459   -0.5663 C   0  0  0  0  0  0  0  0  0  0  0  0
    1.0012    0.9628   -0.3030 C   0  0  0  0  0  0  0  0  0  0  0  0
    1.7425   -0.2962   -0.3986 C   0  0  0  0  0  0  0  0  0  0  0  0
    1.0963   -0.0217    0.9029 C   0  0  0  0  0  0  0  0  0  0  0  0
   -0.5465   -0.7605    2.1628 H   0  0  0  0  0  0  0  0  0  0  0  0
   -0.1633   -2.0586   -0.2064 H   0  0  0  0  0  0  0  0  0  0  0  0
   -1.8289   -1.7004    0.2899 H   0  0  0  0  0  0  0  0  0  0  0  0
   -0.4789   -0.5882   -2.0293 H   0  0  0  0  0  0  0  0  0  0  0  0
   -2.1033   -0.1075   -1.2821 H   0  0  0  0  0  0  0  0  0  0  0  0
   -0.8187    1.9350   -1.0656 H   0  0  0  0  0  0  0  0  0  0  0  0
    1.5370    1.9049   -0.2146 H   0  0  0  0  0  0  0  0  0  0  0  0
    2.8547   -0.1989   -0.3880 H   0  0  0  0  0  0  0  0  0  0  0  0
    1.4031   -1.0918   -1.0822 H   0  0  0  0  0  0  0  0  0  0  0  0
    1.6768    0.3303    1.7582 H   0  0  0  0  0  0  0  0  0  0  0  0
  1  2  2  0
  2  3  1  0
  3  4  1  0
  4  5  1  0
  5  6  1  0
  6  7  1  0
  7  8  1  0
  8  9  1  0
  6  2  1  0
  9  7  1  0
  9  3  1  0
  3 10  1  0
  4 11  1  0
  4 12  1  0
  5 13  1  0
  5 14  1  0
  6 15  1  0
  7 16  1  0
  8 17  1  0
  8 18  1  0
  9 19  1  0
M  END
