
     RDKit          3D

 17 17  0  0  0  0  0  0  0  0999 V2000
   -2.1972   -1.3812    1.6846 O   0  0  0  0  0  0  0  0  0  0  0  0
   -1.4213   -0.7403    0.9171 C   0  0  0  0  0  0  0  0  0  0  0  0
   -1.7714   -0.5321   -0.5335 C   0  0  0  0  0  0  0  0  0  0  0  0
   -1.2104    0.8550   -0.8665 C   0  0  0  0  0  0  0  0  0  0  0  0
    0.1531    0.7882   -0.7565 O   0  0  0  0  0  0  0  0  0  0  0  0
    0.6357    0.5593    0.5018 C   0  0  0  0  0  0  0  0  0  0  0  0
    1.9394   -0.2160    0.3642 C   0  0  0  0  0  0  0  0  0  0  0  0
    2.8887    0.4760   -0.3604 O   0  0  0  0  0  0  0  0  0  0  0  0
   -0.2232   -0.1927    1.3285 O   0  0  0  0  0  0  0  0  0  0  0  0
   -1.2103   -1.3164   -1.1011 H   0  0  0  0  0  0  0  0  0  0  0  0
   -2.8492   -0.5938   -0.6799 H   0  0  0  0  0  0  0  0  0  0  0  0
   -1.6952    1.5527   -0.1538 H   0  0  0  0  0  0  0  0  0  0  0  0
   -1.4729    1.0943   -1.9038 H   0  0  0  0  0  0  0  0  0  0  0  0
    0.8902    1.4859    1.0702 H   0  0  0  0  0  0  0  0  0  0  0  0
    2.3117   -0.5104    1.3829 H   0  0  0  0  0  0  0  0  0  0  0  0
    1.6913   -1.1490   -0.1808 H   0  0  0  0  0  0  0  0  0  0  0  0
    3.5410   -0.1797   -0.7130 H   0  0  0  0  0  0  0  0  0  0  0  0
  1  2  2  0
  2  3  1  0
  3  4  1  0
  4  5  1  0
  5  6  1  0
  6  7  1  0
  7  8  1  0
  6  9  1  0
  9  2  1  0
  3 10  1  0
  3 11  1  0
  4 12  1  0
  4 13  1  0
  6 14  1  0
  7 15  1  0
  7 16  1  0
  8 17  1  0
M  END
