
     RDKit          3D

 16 17  0  0  0  0  0  0  0  0999 V2000
   -2.4667    1.5097    1.2263 O   0  0  0  0  0  0  0  0  0  0  0  0
   -1.7251    0.7472    0.6314 C   0  0  0  0  0  0  0  0  0  0  0  0
   -1.9684   -0.5491   -0.0594 C   0  0  0  0  0  0  0  0  0  0  0  0
   -0.5667   -0.4348   -0.6280 C   0  0  0  0  0  0  0  0  0  0  0  0
    0.5183   -0.4760    0.3726 C   0  0  0  0  0  0  0  0  0  0  0  0
    1.9164   -0.4215   -0.1571 C   0  0  0  0  0  0  0  0  0  0  0  0
    2.1265    0.7657   -0.8790 O   0  0  0  0  0  0  0  0  0  0  0  0
   -0.2842    0.7656    0.3346 C   0  0  0  0  0  0  0  0  0  0  0  0
   -1.9899   -1.3589    0.7217 H   0  0  0  0  0  0  0  0  0  0  0  0
   -2.7787   -0.5695   -0.7884 H   0  0  0  0  0  0  0  0  0  0  0  0
   -0.4193   -0.1954   -1.6777 H   0  0  0  0  0  0  0  0  0  0  0  0
    0.3402   -1.1439    1.2469 H   0  0  0  0  0  0  0  0  0  0  0  0
    2.0740   -1.2842   -0.8630 H   0  0  0  0  0  0  0  0  0  0  0  0
    2.6561   -0.4881    0.6673 H   0  0  0  0  0  0  0  0  0  0  0  0
    2.3817    1.4880   -0.2710 H   0  0  0  0  0  0  0  0  0  0  0  0
    0.1856    1.6450   -0.1124 H   0  0  0  0  0  0  0  0  0  0  0  0
  1  2  2  0
  2  3  1  0
  3  4  1  0
  4  5  1  0
  5  6  1  0
  6  7  1  0
  5  8  1  0
  8  2  1  0
  8  4  1  0
  3  9  1  0
  3 10  1  0
  4 11  1  0
  5 12  1  0
  6 13  1  0
  6 14  1  0
  7 15  1  0
  8 16  1  0
M  END
