
     RDKit          3D

 17 17  0  0  0  0  0  0  0  0999 V2000
   -3.6343   -0.4181   -1.1845 O   0  0  0  0  0  0  0  0  0  0  0  0
   -2.4391   -0.1728   -0.8822 C   0  0  0  0  0  0  0  0  0  0  0  0
   -1.8914    1.0285   -0.1860 C   0  0  0  0  0  0  0  0  0  0  0  0
   -0.5135    0.9053   -0.3641 O   0  0  0  0  0  0  0  0  0  0  0  0
   -0.3235   -0.4536   -0.2441 C   0  0  0  0  0  0  0  0  0  0  0  0
    1.0632   -0.9093   -0.5622 C   0  0  0  0  0  0  0  0  0  0  0  0
    2.0095   -0.2188    0.3973 C   0  0  0  0  0  0  0  0  0  0  0  0
    1.9355    1.1687    0.2691 O   0  0  0  0  0  0  0  0  0  0  0  0
   -1.3031   -0.9720   -1.1235 O   0  0  0  0  0  0  0  0  0  0  0  0
   -2.2892    1.9594   -0.6327 H   0  0  0  0  0  0  0  0  0  0  0  0
   -2.1290    0.9353    0.8926 H   0  0  0  0  0  0  0  0  0  0  0  0
   -0.6106   -0.7612    0.7719 H   0  0  0  0  0  0  0  0  0  0  0  0
    1.3787   -0.7334   -1.5872 H   0  0  0  0  0  0  0  0  0  0  0  0
    1.1367   -1.9979   -0.3628 H   0  0  0  0  0  0  0  0  0  0  0  0
    3.0669   -0.5080    0.2208 H   0  0  0  0  0  0  0  0  0  0  0  0
    1.7412   -0.4626    1.4549 H   0  0  0  0  0  0  0  0  0  0  0  0
    2.8017    1.6108    0.4842 H   0  0  0  0  0  0  0  0  0  0  0  0
  1  2  2  0
  2  3  1  0
  3  4  1  0
  4  5  1  0
  5  6  1  0
  6  7  1  0
  7  8  1  0
  5  9  1  0
  9  2  1  0
  3 10  1  0
  3 11  1  0
  5 12  1  0
  6 13  1  0
  6 14  1  0
  7 15  1  0
  7 16  1  0
  8 17  1  0
M  END
