
     RDKit          3D

 17 18  0  0  0  0  0  0  0  0999 V2000
   -0.5667   -0.8225    2.3825 O   0  0  0  0  0  0  0  0  0  0  0  0
   -0.3210   -0.6576    1.2255 C   0  0  0  0  0  0  0  0  0  0  0  0
   -1.2721   -0.0720    0.2322 C   0  0  0  0  0  0  0  0  0  0  0  0
   -0.7461    1.3088   -0.0464 C   0  0  0  0  0  0  0  0  0  0  0  0
    0.5617    1.4800   -0.1516 C   0  0  0  0  0  0  0  0  0  0  0  0
    1.5597    0.3845   -0.0088 C   0  0  0  0  0  0  0  0  0  0  0  0
    0.8762   -0.9259    0.3798 C   0  0  0  0  0  0  0  0  0  0  0  0
    0.3269   -1.4328   -0.7961 O   0  0  0  0  0  0  0  0  0  0  0  0
   -0.9328   -0.9256   -0.9696 C   0  0  0  0  0  0  0  0  0  0  0  0
   -2.3071   -0.0948    0.5331 H   0  0  0  0  0  0  0  0  0  0  0  0
   -1.4868    2.0900   -0.1451 H   0  0  0  0  0  0  0  0  0  0  0  0
    0.9629    2.4665   -0.3538 H   0  0  0  0  0  0  0  0  0  0  0  0
    2.0992    0.1729   -0.9556 H   0  0  0  0  0  0  0  0  0  0  0  0
    2.3557    0.6514    0.7385 H   0  0  0  0  0  0  0  0  0  0  0  0
    1.5675   -1.6081    0.8673 H   0  0  0  0  0  0  0  0  0  0  0  0
   -1.6781   -1.7594   -1.0722 H   0  0  0  0  0  0  0  0  0  0  0  0
   -0.9991   -0.2555   -1.8597 H   0  0  0  0  0  0  0  0  0  0  0  0
  1  2  2  0
  2  3  1  0
  3  4  1  0
  4  5  2  0
  5  6  1  0
  6  7  1  0
  7  8  1  0
  8  9  1  0
  7  2  1  0
  9  3  1  0
  3 10  1  0
  4 11  1  0
  5 12  1  0
  6 13  1  0
  6 14  1  0
  7 15  1  0
  9 16  1  0
  9 17  1  0
M  END
