
     RDKit          3D

 19 19  0  0  0  0  0  0  0  0999 V2000
    0.7589   -1.9692   -0.3695 O   0  0  0  0  0  0  0  0  0  0  0  0
    0.0387   -1.1174    0.1378 C   0  0  0  0  0  0  0  0  0  0  0  0
   -1.4044   -1.3801    0.4251 C   0  0  0  0  0  0  0  0  0  0  0  0
   -2.1785   -0.1639    0.0590 C   0  0  0  0  0  0  0  0  0  0  0  0
   -1.6319    0.9706   -0.2888 C   0  0  0  0  0  0  0  0  0  0  0  0
   -0.1709    1.2296   -0.3748 C   0  0  0  0  0  0  0  0  0  0  0  0
    0.5362    0.2362    0.5063 C   0  0  0  0  0  0  0  0  0  0  0  0
    2.0376    0.3362    0.3966 C   0  0  0  0  0  0  0  0  0  0  0  0
    2.5028    0.0889   -0.8707 O   0  0  0  0  0  0  0  0  0  0  0  0
   -1.7684   -2.2802   -0.1139 H   0  0  0  0  0  0  0  0  0  0  0  0
   -1.4652   -1.5028    1.5373 H   0  0  0  0  0  0  0  0  0  0  0  0
   -3.2583   -0.2374    0.0867 H   0  0  0  0  0  0  0  0  0  0  0  0
   -2.2895    1.8166   -0.5429 H   0  0  0  0  0  0  0  0  0  0  0  0
    0.1424    1.1633   -1.4344 H   0  0  0  0  0  0  0  0  0  0  0  0
    0.0026    2.2424    0.0507 H   0  0  0  0  0  0  0  0  0  0  0  0
    0.2545    0.4674    1.5561 H   0  0  0  0  0  0  0  0  0  0  0  0
    2.3767    1.2931    0.7852 H   0  0  0  0  0  0  0  0  0  0  0  0
    2.4535   -0.4568    1.0713 H   0  0  0  0  0  0  0  0  0  0  0  0
    3.0631   -0.7366   -0.9299 H   0  0  0  0  0  0  0  0  0  0  0  0
  1  2  2  0
  2  3  1  0
  3  4  1  0
  4  5  2  0
  5  6  1  0
  6  7  1  0
  7  8  1  0
  8  9  1  0
  7  2  1  0
  3 10  1  0
  3 11  1  0
  4 12  1  0
  5 13  1  0
  6 14  1  0
  6 15  1  0
  7 16  1  0
  8 17  1  0
  8 18  1  0
  9 19  1  0
M  END
