
     RDKit          3D

 16 16  0  0  0  0  0  0  0  0999 V2000
   -0.9185   -2.4536   -0.4646 O   0  0  0  0  0  0  0  0  0  0  0  0
   -0.7741   -1.2588   -0.1792 C   0  0  0  0  0  0  0  0  0  0  0  0
   -1.6804   -0.3835    0.5413 C   0  0  0  0  0  0  0  0  0  0  0  0
   -1.4291    0.8806    0.2604 C   0  0  0  0  0  0  0  0  0  0  0  0
   -0.3073    0.9284   -0.6944 C   0  0  0  0  0  0  0  0  0  0  0  0
    0.3821   -0.3979   -0.5052 C   0  0  0  0  0  0  0  0  0  0  0  0
    1.3668   -0.3685    0.6465 C   0  0  0  0  0  0  0  0  0  0  0  0
    2.4482    0.4469    0.3205 O   0  0  0  0  0  0  0  0  0  0  0  0
   -2.4734   -0.7088    1.2302 H   0  0  0  0  0  0  0  0  0  0  0  0
   -1.9679    1.7519    0.6711 H   0  0  0  0  0  0  0  0  0  0  0  0
   -0.7520    0.9269   -1.7099 H   0  0  0  0  0  0  0  0  0  0  0  0
    0.3685    1.7880   -0.5275 H   0  0  0  0  0  0  0  0  0  0  0  0
    0.8933   -0.6914   -1.4363 H   0  0  0  0  0  0  0  0  0  0  0  0
    1.7727   -1.3937    0.7763 H   0  0  0  0  0  0  0  0  0  0  0  0
    0.8453   -0.0122    1.5663 H   0  0  0  0  0  0  0  0  0  0  0  0
    2.2258    0.9457   -0.4956 H   0  0  0  0  0  0  0  0  0  0  0  0
  1  2  2  0
  2  3  1  0
  3  4  2  0
  4  5  1  0
  5  6  1  0
  6  7  1  0
  7  8  1  0
  6  2  1  0
  3  9  1  0
  4 10  1  0
  5 11  1  0
  5 12  1  0
  6 13  1  0
  7 14  1  0
  7 15  1  0
  8 16  1  0
M  END
