
     RDKit          3D

 19 21  0  0  0  0  0  0  0  0999 V2000
   -1.2180    1.3675    2.2154 O   0  0  0  0  0  0  0  0  0  0  0  0
   -0.7828    0.7843    1.2783 C   0  0  0  0  0  0  0  0  0  0  0  0
   -0.2767   -0.5726    0.9804 C   0  0  0  0  0  0  0  0  0  0  0  0
   -1.3200   -1.0970    0.0198 C   0  0  0  0  0  0  0  0  0  0  0  0
   -1.5363    0.1791   -0.8149 C   0  0  0  0  0  0  0  0  0  0  0  0
   -0.4870    1.0599   -0.1432 C   0  0  0  0  0  0  0  0  0  0  0  0
    0.6534    0.1326    0.0507 C   0  0  0  0  0  0  0  0  0  0  0  0
    1.5403   -0.4213   -0.9069 C   0  0  0  0  0  0  0  0  0  0  0  0
    2.0305    0.4630    0.2874 C   0  0  0  0  0  0  0  0  0  0  0  0
    0.0855   -1.1943    1.7572 H   0  0  0  0  0  0  0  0  0  0  0  0
   -0.8403   -1.8828   -0.5984 H   0  0  0  0  0  0  0  0  0  0  0  0
   -2.2497   -1.3966    0.5000 H   0  0  0  0  0  0  0  0  0  0  0  0
   -2.5604    0.5475   -0.6298 H   0  0  0  0  0  0  0  0  0  0  0  0
   -1.3042    0.0154   -1.8722 H   0  0  0  0  0  0  0  0  0  0  0  0
   -0.3597    2.0531   -0.4850 H   0  0  0  0  0  0  0  0  0  0  0  0
    1.8718   -1.4766   -0.8290 H   0  0  0  0  0  0  0  0  0  0  0  0
    1.6799    0.0728   -1.9071 H   0  0  0  0  0  0  0  0  0  0  0  0
    2.4977    1.4311    0.0070 H   0  0  0  0  0  0  0  0  0  0  0  0
    2.5759   -0.0650    1.0905 H   0  0  0  0  0  0  0  0  0  0  0  0
  1  2  2  0
  2  3  1  0
  3  4  1  0
  4  5  1  0
  5  6  1  0
  6  7  1  0
  7  8  1  0
  8  9  1  0
  6  2  1  0
  9  7  1  0
  7  3  1  0
  3 10  1  0
  4 11  1  0
  4 12  1  0
  5 13  1  0
  5 14  1  0
  6 15  1  0
  8 16  1  0
  8 17  1  0
  9 18  1  0
  9 19  1  0
M  END
