
     RDKit          3D

 19 20  0  0  0  0  0  0  0  0999 V2000
    0.7893    1.5093   -1.6526 O   0  0  0  0  0  0  0  0  0  0  0  0
    1.2239    0.6819   -0.9106 C   0  0  0  0  0  0  0  0  0  0  0  0
    2.5323    0.5845   -0.1705 C   0  0  0  0  0  0  0  0  0  0  0  0
    1.8158   -0.1229    0.8215 O   0  0  0  0  0  0  0  0  0  0  0  0
    0.9997   -0.5912   -0.2323 C   0  0  0  0  0  0  0  0  0  0  0  0
   -0.3730   -0.8884    0.2586 C   0  0  0  0  0  0  0  0  0  0  0  0
   -0.9291    0.0855    1.2677 C   0  0  0  0  0  0  0  0  0  0  0  0
   -1.9166    0.5454    0.2337 C   0  0  0  0  0  0  0  0  0  0  0  0
   -1.4996   -0.5733   -0.6943 C   0  0  0  0  0  0  0  0  0  0  0  0
    3.2571   -0.0937   -0.6418 H   0  0  0  0  0  0  0  0  0  0  0  0
    2.9122    1.5290    0.2231 H   0  0  0  0  0  0  0  0  0  0  0  0
    1.4585   -1.4853   -0.7176 H   0  0  0  0  0  0  0  0  0  0  0  0
   -0.4291   -1.9509    0.6149 H   0  0  0  0  0  0  0  0  0  0  0  0
   -1.4694   -0.4461    2.0874 H   0  0  0  0  0  0  0  0  0  0  0  0
   -0.1802    0.8207    1.5867 H   0  0  0  0  0  0  0  0  0  0  0  0
   -2.9831    0.4883    0.5586 H   0  0  0  0  0  0  0  0  0  0  0  0
   -1.7276    1.5290   -0.2246 H   0  0  0  0  0  0  0  0  0  0  0  0
   -1.2017   -0.2612   -1.7030 H   0  0  0  0  0  0  0  0  0  0  0  0
   -2.2795   -1.3605   -0.7049 H   0  0  0  0  0  0  0  0  0  0  0  0
  1  2  2  0
  2  3  1  0
  3  4  1  0
  4  5  1  0
  5  6  1  0
  6  7  1  0
  7  8  1  0
  8  9  1  0
  5  2  1  0
  9  6  1  0
  3 10  1  0
  3 11  1  0
  5 12  1  0
  6 13  1  0
  7 14  1  0
  7 15  1  0
  8 16  1  0
  8 17  1  0
  9 18  1  0
  9 19  1  0
M  END
