
     RDKit          3D

 17 18  0  0  0  0  0  0  0  0999 V2000
    2.6918   -1.1844    0.5743 O   0  0  0  0  0  0  0  0  0  0  0  0
    1.6923   -0.4464    0.5055 C   0  0  0  0  0  0  0  0  0  0  0  0
    1.1499    0.2980    1.5350 O   0  0  0  0  0  0  0  0  0  0  0  0
   -0.0100    1.0029    1.0711 C   0  0  0  0  0  0  0  0  0  0  0  0
   -0.4197    0.1555   -0.0897 C   0  0  0  0  0  0  0  0  0  0  0  0
   -1.3125   -1.0478    0.2660 C   0  0  0  0  0  0  0  0  0  0  0  0
   -1.7262    0.0975   -0.6723 C   0  0  0  0  0  0  0  0  0  0  0  0
    0.8744   -0.2143   -0.7041 C   0  0  0  0  0  0  0  0  0  0  0  0
    1.4052    0.9356   -1.3258 O   0  0  0  0  0  0  0  0  0  0  0  0
    0.3632    1.9810    0.6787 H   0  0  0  0  0  0  0  0  0  0  0  0
   -0.7603    1.1263    1.8466 H   0  0  0  0  0  0  0  0  0  0  0  0
   -1.0527   -2.0232   -0.1958 H   0  0  0  0  0  0  0  0  0  0  0  0
   -1.7509   -1.0423    1.2880 H   0  0  0  0  0  0  0  0  0  0  0  0
   -1.8572   -0.1443   -1.7419 H   0  0  0  0  0  0  0  0  0  0  0  0
   -2.5252    0.7390   -0.2690 H   0  0  0  0  0  0  0  0  0  0  0  0
    0.8460   -1.0691   -1.3895 H   0  0  0  0  0  0  0  0  0  0  0  0
    2.3919    0.8359   -1.3770 H   0  0  0  0  0  0  0  0  0  0  0  0
  1  2  2  0
  2  3  1  0
  3  4  1  0
  4  5  1  0
  5  6  1  0
  6  7  1  0
  5  8  1  0
  8  9  1  0
  8  2  1  0
  7  5  1  0
  4 10  1  0
  4 11  1  0
  6 12  1  0
  6 13  1  0
  7 14  1  0
  7 15  1  0
  8 16  1  0
  9 17  1  0
M  END
