
     RDKit          3D

 14 15  0  0  0  0  0  0  0  0999 V2000
    2.3754   -1.3937   -0.8526 O   0  0  0  0  0  0  0  0  0  0  0  0
    1.5972   -0.6220   -0.2478 C   0  0  0  0  0  0  0  0  0  0  0  0
    1.6679    0.7215    0.0814 O   0  0  0  0  0  0  0  0  0  0  0  0
    0.3983    0.6690    0.7185 C   0  0  0  0  0  0  0  0  0  0  0  0
   -0.6726    1.3242   -0.0793 C   0  0  0  0  0  0  0  0  0  0  0  0
   -1.2875    0.4011   -0.8669 O   0  0  0  0  0  0  0  0  0  0  0  0
   -0.8959   -0.8571   -0.5299 C   0  0  0  0  0  0  0  0  0  0  0  0
    0.2848   -0.7925    0.3722 C   0  0  0  0  0  0  0  0  0  0  0  0
    0.4090    0.8595    1.8070 H   0  0  0  0  0  0  0  0  0  0  0  0
   -0.2236    2.1289   -0.7332 H   0  0  0  0  0  0  0  0  0  0  0  0
   -1.4175    1.8550    0.5800 H   0  0  0  0  0  0  0  0  0  0  0  0
   -1.7315   -1.3947   -0.0122 H   0  0  0  0  0  0  0  0  0  0  0  0
   -0.7092   -1.4369   -1.4716 H   0  0  0  0  0  0  0  0  0  0  0  0
    0.2052   -1.4623    1.2345 H   0  0  0  0  0  0  0  0  0  0  0  0
  1  2  2  0
  2  3  1  0
  3  4  1  0
  4  5  1  0
  5  6  1  0
  6  7  1  0
  7  8  1  0
  8  2  1  0
  8  4  1  0
  4  9  1  0
  5 10  1  0
  5 11  1  0
  7 12  1  0
  7 13  1  0
  8 14  1  0
M  END
