
     RDKit          3D

 17 17  0  0  0  0  0  0  0  0999 V2000
    1.6637   -0.4424   -1.8716 O   0  0  0  0  0  0  0  0  0  0  0  0
    1.2696   -0.2933   -0.7341 C   0  0  0  0  0  0  0  0  0  0  0  0
    1.9690   -0.1951    0.5743 C   0  0  0  0  0  0  0  0  0  0  0  0
    0.7445   -0.0586    1.2264 O   0  0  0  0  0  0  0  0  0  0  0  0
    0.0348   -0.1298    0.0437 C   0  0  0  0  0  0  0  0  0  0  0  0
   -0.8281   -1.3759   -0.0709 C   0  0  0  0  0  0  0  0  0  0  0  0
   -1.7272   -1.3401    0.9960 O   0  0  0  0  0  0  0  0  0  0  0  0
   -0.7862    1.0953   -0.2867 C   0  0  0  0  0  0  0  0  0  0  0  0
   -0.0476    2.2423   -0.4133 O   0  0  0  0  0  0  0  0  0  0  0  0
    2.5700    0.7476    0.5882 H   0  0  0  0  0  0  0  0  0  0  0  0
    2.5671   -1.0747    0.8555 H   0  0  0  0  0  0  0  0  0  0  0  0
   -0.1634   -2.2694   -0.0078 H   0  0  0  0  0  0  0  0  0  0  0  0
   -1.3640   -1.3486   -1.0391 H   0  0  0  0  0  0  0  0  0  0  0  0
   -2.4954   -0.7657    0.7004 H   0  0  0  0  0  0  0  0  0  0  0  0
   -1.4730    1.2464    0.5957 H   0  0  0  0  0  0  0  0  0  0  0  0
   -1.4296    0.9473   -1.1610 H   0  0  0  0  0  0  0  0  0  0  0  0
   -0.5042    3.0148    0.0044 H   0  0  0  0  0  0  0  0  0  0  0  0
  1  2  2  0
  2  3  1  0
  3  4  1  0
  4  5  1  0
  5  6  1  0
  6  7  1  0
  5  8  1  0
  8  9  1  0
  5  2  1  0
  3 10  1  0
  3 11  1  0
  6 12  1  0
  6 13  1  0
  7 14  1  0
  8 15  1  0
  8 16  1  0
  9 17  1  0
M  END
