
     RDKit          3D

 21 21  0  0  0  0  0  0  0  0999 V2000
   -0.3320   -1.7391   -1.4802 O   0  0  0  0  0  0  0  0  0  0  0  0
   -0.3650   -1.2747   -0.3505 C   0  0  0  0  0  0  0  0  0  0  0  0
   -1.6933   -0.7313   -0.0155 C   0  0  0  0  0  0  0  0  0  0  0  0
   -1.5740    0.5411    0.8004 C   0  0  0  0  0  0  0  0  0  0  0  0
   -0.7665    1.5989    0.0850 C   0  0  0  0  0  0  0  0  0  0  0  0
    0.5569    1.4646    0.5146 O   0  0  0  0  0  0  0  0  0  0  0  0
    1.3172    0.9358   -0.5224 C   0  0  0  0  0  0  0  0  0  0  0  0
    1.8930   -0.4065   -0.2018 C   0  0  0  0  0  0  0  0  0  0  0  0
    0.9142   -1.3729    0.3840 C   0  0  0  0  0  0  0  0  0  0  0  0
   -2.3430   -0.5906   -0.9066 H   0  0  0  0  0  0  0  0  0  0  0  0
   -2.1849   -1.4793    0.6682 H   0  0  0  0  0  0  0  0  0  0  0  0
   -2.5622    0.9264    1.0636 H   0  0  0  0  0  0  0  0  0  0  0  0
   -1.0574    0.2374    1.7558 H   0  0  0  0  0  0  0  0  0  0  0  0
   -0.8067    1.4858   -1.0010 H   0  0  0  0  0  0  0  0  0  0  0  0
   -1.1471    2.6173    0.3595 H   0  0  0  0  0  0  0  0  0  0  0  0
    0.7797    0.9657   -1.4906 H   0  0  0  0  0  0  0  0  0  0  0  0
    2.1923    1.6407   -0.6428 H   0  0  0  0  0  0  0  0  0  0  0  0
    2.2853   -0.8314   -1.1675 H   0  0  0  0  0  0  0  0  0  0  0  0
    2.7745   -0.2997    0.4785 H   0  0  0  0  0  0  0  0  0  0  0  0
    0.7751   -1.2864    1.4698 H   0  0  0  0  0  0  0  0  0  0  0  0
    1.3436   -2.4017    0.1994 H   0  0  0  0  0  0  0  0  0  0  0  0
  1  2  2  0
  2  3  1  0
  3  4  1  0
  4  5  1  0
  5  6  1  0
  6  7  1  0
  7  8  1  0
  8  9  1  0
  9  2  1  0
  3 10  1  0
  3 11  1  0
  4 12  1  0
  4 13  1  0
  5 14  1  0
  5 15  1  0
  7 16  1  0
  7 17  1  0
  8 18  1  0
  8 19  1  0
  9 20  1  0
  9 21  1  0
M  END
