
     RDKit          3D

 19 20  0  0  0  0  0  0  0  0999 V2000
    0.5457    0.2982    2.2282 O   0  0  0  0  0  0  0  0  0  0  0  0
    0.8488    0.0482    1.0867 C   0  0  0  0  0  0  0  0  0  0  0  0
    2.0779   -0.3882    0.3259 C   0  0  0  0  0  0  0  0  0  0  0  0
    1.2759   -0.3640   -0.9693 C   0  0  0  0  0  0  0  0  0  0  0  0
    0.1263    0.0492   -0.1786 C   0  0  0  0  0  0  0  0  0  0  0  0
   -0.6128    1.2997   -0.5196 C   0  0  0  0  0  0  0  0  0  0  0  0
   -1.8404    0.6255    0.1145 C   0  0  0  0  0  0  0  0  0  0  0  0
   -1.1552   -0.6931   -0.2691 C   0  0  0  0  0  0  0  0  0  0  0  0
   -1.2645   -1.6938    0.6612 O   0  0  0  0  0  0  0  0  0  0  0  0
    2.4181   -1.3816    0.6485 H   0  0  0  0  0  0  0  0  0  0  0  0
    2.8581    0.4100    0.3838 H   0  0  0  0  0  0  0  0  0  0  0  0
    1.1776   -1.4225   -1.3414 H   0  0  0  0  0  0  0  0  0  0  0  0
    1.6725    0.2869   -1.7492 H   0  0  0  0  0  0  0  0  0  0  0  0
   -0.7804    1.5214   -1.5727 H   0  0  0  0  0  0  0  0  0  0  0  0
   -0.3387    2.1956    0.0575 H   0  0  0  0  0  0  0  0  0  0  0  0
   -2.7832    0.8216   -0.3841 H   0  0  0  0  0  0  0  0  0  0  0  0
   -1.7904    0.7422    1.2100 H   0  0  0  0  0  0  0  0  0  0  0  0
   -1.3953   -1.0176   -1.2976 H   0  0  0  0  0  0  0  0  0  0  0  0
   -1.0400   -1.3378    1.5655 H   0  0  0  0  0  0  0  0  0  0  0  0
  1  2  2  0
  2  3  1  0
  3  4  1  0
  4  5  1  0
  5  6  1  0
  6  7  1  0
  7  8  1  0
  8  9  1  0
  5  2  1  0
  8  5  1  0
  3 10  1  0
  3 11  1  0
  4 12  1  0
  4 13  1  0
  6 14  1  0
  6 15  1  0
  7 16  1  0
  7 17  1  0
  8 18  1  0
  9 19  1  0
M  END
