
     RDKit          3D

 17 17  0  0  0  0  0  0  0  0999 V2000
   -1.7880   -2.0397    1.1703 O   0  0  0  0  0  0  0  0  0  0  0  0
   -1.0451   -1.2973    0.4957 C   0  0  0  0  0  0  0  0  0  0  0  0
   -1.8384   -0.3651   -0.3403 C   0  0  0  0  0  0  0  0  0  0  0  0
   -1.4215    1.0513   -0.0969 C   0  0  0  0  0  0  0  0  0  0  0  0
   -0.2451    1.6423   -0.0149 C   0  0  0  0  0  0  0  0  0  0  0  0
    1.1623    1.2895   -0.1050 C   0  0  0  0  0  0  0  0  0  0  0  0
    1.8463    0.1699   -0.0587 C   0  0  0  0  0  0  0  0  0  0  0  0
    1.5406   -1.2471    0.1028 C   0  0  0  0  0  0  0  0  0  0  0  0
    0.2876   -1.5256    0.6929 O   0  0  0  0  0  0  0  0  0  0  0  0
   -2.9211   -0.4632   -0.1340 H   0  0  0  0  0  0  0  0  0  0  0  0
   -1.5926   -0.6151   -1.4018 H   0  0  0  0  0  0  0  0  0  0  0  0
   -2.2791    1.7014    0.0352 H   0  0  0  0  0  0  0  0  0  0  0  0
   -0.3881    2.7134    0.1782 H   0  0  0  0  0  0  0  0  0  0  0  0
    1.8288    2.1584   -0.2462 H   0  0  0  0  0  0  0  0  0  0  0  0
    2.9233    0.3068   -0.1664 H   0  0  0  0  0  0  0  0  0  0  0  0
    2.3231   -1.7075    0.7742 H   0  0  0  0  0  0  0  0  0  0  0  0
    1.6070   -1.7724   -0.8851 H   0  0  0  0  0  0  0  0  0  0  0  0
  1  2  2  0
  2  3  1  0
  3  4  1  0
  4  5  2  3
  5  6  1  0
  6  7  2  3
  7  8  1  0
  8  9  1  0
  9  2  1  0
  3 10  1  0
  3 11  1  0
  4 12  1  0
  5 13  1  0
  6 14  1  0
  7 15  1  0
  8 16  1  0
  8 17  1  0
M  END
