
     RDKit          3D

 17 19  0  0  0  0  0  0  0  0999 V2000
    3.8689    0.4135   -0.4361 O   0  0  0  0  0  0  0  0  0  0  0  0
    2.6262    0.2171   -0.4251 C   0  0  0  0  0  0  0  0  0  0  0  0
    1.4584    0.8854    0.2515 C   0  0  0  0  0  0  0  0  0  0  0  0
    0.7119   -0.1781   -0.4292 C   0  0  0  0  0  0  0  0  0  0  0  0
    1.8206   -0.7303   -1.0589 O   0  0  0  0  0  0  0  0  0  0  0  0
   -0.5923   -0.0716   -1.0443 C   0  0  0  0  0  0  0  0  0  0  0  0
   -1.7030    0.5569   -0.2364 C   0  0  0  0  0  0  0  0  0  0  0  0
   -1.5943   -0.6331    0.7025 C   0  0  0  0  0  0  0  0  0  0  0  0
   -0.2950   -1.0455    0.1232 C   0  0  0  0  0  0  0  0  0  0  0  0
    1.6160    0.8300    1.3376 H   0  0  0  0  0  0  0  0  0  0  0  0
    1.3827    1.9189   -0.1755 H   0  0  0  0  0  0  0  0  0  0  0  0
   -0.8626   -0.5687   -2.0185 H   0  0  0  0  0  0  0  0  0  0  0  0
   -2.6799    0.6407   -0.7648 H   0  0  0  0  0  0  0  0  0  0  0  0
   -1.4214    1.5151    0.2629 H   0  0  0  0  0  0  0  0  0  0  0  0
   -2.4675   -1.3214    0.5019 H   0  0  0  0  0  0  0  0  0  0  0  0
   -1.6223   -0.2935    1.7425 H   0  0  0  0  0  0  0  0  0  0  0  0
   -0.2466   -2.1354   -0.1673 H   0  0  0  0  0  0  0  0  0  0  0  0
  1  2  2  0
  2  3  1  0
  3  4  1  0
  4  5  1  0
  4  6  1  0
  6  7  1  0
  7  8  1  0
  8  9  1  0
  5  2  1  0
  9  6  1  0
  9  4  1  0
  3 10  1  0
  3 11  1  0
  6 12  1  0
  7 13  1  0
  7 14  1  0
  8 15  1  0
  8 16  1  0
  9 17  1  0
M  END
