
     RDKit          3D

 17 18  0  0  0  0  0  0  0  0999 V2000
   -2.3138    1.6607    0.2734 O   0  0  0  0  0  0  0  0  0  0  0  0
   -1.5111    0.7533    0.1534 C   0  0  0  0  0  0  0  0  0  0  0  0
   -1.2229   -0.5362    0.8694 C   0  0  0  0  0  0  0  0  0  0  0  0
   -0.5692   -1.0026   -0.3914 C   0  0  0  0  0  0  0  0  0  0  0  0
    0.8223   -1.4448   -0.2512 C   0  0  0  0  0  0  0  0  0  0  0  0
    1.6894   -0.4465   -0.2004 C   0  0  0  0  0  0  0  0  0  0  0  0
    0.9648    0.8376   -0.3030 C   0  0  0  0  0  0  0  0  0  0  0  0
    0.8249    1.3621    0.9909 O   0  0  0  0  0  0  0  0  0  0  0  0
   -0.3913    0.4644   -0.7838 C   0  0  0  0  0  0  0  0  0  0  0  0
   -0.5608   -0.3707    1.7210 H   0  0  0  0  0  0  0  0  0  0  0  0
   -2.1314   -1.1110    1.1528 H   0  0  0  0  0  0  0  0  0  0  0  0
   -1.2034   -1.5691   -1.0899 H   0  0  0  0  0  0  0  0  0  0  0  0
    1.1229   -2.5100   -0.1931 H   0  0  0  0  0  0  0  0  0  0  0  0
    2.7848   -0.5968   -0.0962 H   0  0  0  0  0  0  0  0  0  0  0  0
    1.5102    1.5311   -0.9671 H   0  0  0  0  0  0  0  0  0  0  0  0
    0.7772    2.3423    0.9560 H   0  0  0  0  0  0  0  0  0  0  0  0
   -0.5926    0.6360   -1.8407 H   0  0  0  0  0  0  0  0  0  0  0  0
  1  2  2  0
  2  3  1  0
  3  4  1  0
  4  5  1  0
  5  6  2  0
  6  7  1  0
  7  8  1  0
  7  9  1  0
  9  2  1  0
  9  4  1  0
  3 10  1  0
  3 11  1  0
  4 12  1  0
  5 13  1  0
  6 14  1  0
  7 15  1  0
  8 16  1  0
  9 17  1  0
M  END
