
     RDKit          3D

 13 14  0  0  0  0  0  0  0  0999 V2000
    1.3224   -1.8050    0.7924 O   0  0  0  0  0  0  0  0  0  0  0  0
    0.7734   -0.9241    0.1777 C   0  0  0  0  0  0  0  0  0  0  0  0
    1.5179    0.2896   -0.2111 C   0  0  0  0  0  0  0  0  0  0  0  0
    0.7160    1.4020    0.1272 O   0  0  0  0  0  0  0  0  0  0  0  0
   -0.6440    1.3353    0.3220 C   0  0  0  0  0  0  0  0  0  0  0  0
   -1.2489    2.3575    0.7222 O   0  0  0  0  0  0  0  0  0  0  0  0
   -1.3999    0.0876    0.0692 C   0  0  0  0  0  0  0  0  0  0  0  0
   -1.1431   -0.3687   -1.2904 O   0  0  0  0  0  0  0  0  0  0  0  0
   -0.6502   -1.0600   -0.1875 C   0  0  0  0  0  0  0  0  0  0  0  0
    1.8063    0.3121   -1.2737 H   0  0  0  0  0  0  0  0  0  0  0  0
    2.4810    0.3657    0.3640 H   0  0  0  0  0  0  0  0  0  0  0  0
   -2.4556    0.0819    0.3743 H   0  0  0  0  0  0  0  0  0  0  0  0
   -1.0753   -2.0740    0.0137 H   0  0  0  0  0  0  0  0  0  0  0  0
  1  2  2  0
  2  3  1  0
  3  4  1  0
  4  5  1  0
  5  6  2  0
  5  7  1  0
  7  8  1  0
  8  9  1  0
  9  2  1  0
  9  7  1  0
  3 10  1  0
  3 11  1  0
  7 12  1  0
  9 13  1  0
M  END
