
     RDKit          3D

 19 20  0  0  0  0  0  0  0  0999 V2000
   -3.1217   -1.5516    0.8072 O   0  0  0  0  0  0  0  0  0  0  0  0
   -2.2050   -0.8825    0.3901 C   0  0  0  0  0  0  0  0  0  0  0  0
   -1.2480   -0.9684   -0.7384 C   0  0  0  0  0  0  0  0  0  0  0  0
   -0.3068   -0.0980    0.0785 C   0  0  0  0  0  0  0  0  0  0  0  0
    0.4484    0.9102   -0.7008 C   0  0  0  0  0  0  0  0  0  0  0  0
    1.8209    0.8859   -0.0141 C   0  0  0  0  0  0  0  0  0  0  0  0
    1.8420   -0.5751    0.4432 C   0  0  0  0  0  0  0  0  0  0  0  0
    0.5419   -0.7728    0.9116 O   0  0  0  0  0  0  0  0  0  0  0  0
   -1.5516    0.3861    0.7924 C   0  0  0  0  0  0  0  0  0  0  0  0
   -1.6453   -0.3723   -1.6026 H   0  0  0  0  0  0  0  0  0  0  0  0
   -0.8700   -1.9533   -0.9998 H   0  0  0  0  0  0  0  0  0  0  0  0
    0.6513    0.5644   -1.7460 H   0  0  0  0  0  0  0  0  0  0  0  0
    0.0232    1.9188   -0.7178 H   0  0  0  0  0  0  0  0  0  0  0  0
    1.7852    1.5382    0.8598 H   0  0  0  0  0  0  0  0  0  0  0  0
    2.6307    1.0959   -0.7259 H   0  0  0  0  0  0  0  0  0  0  0  0
    2.5939   -0.7166    1.2246 H   0  0  0  0  0  0  0  0  0  0  0  0
    2.0094   -1.2519   -0.4142 H   0  0  0  0  0  0  0  0  0  0  0  0
   -1.4304    0.5555    1.8644 H   0  0  0  0  0  0  0  0  0  0  0  0
   -1.9680    1.2876    0.2878 H   0  0  0  0  0  0  0  0  0  0  0  0
  1  2  2  0
  2  3  1  0
  3  4  1  0
  4  5  1  0
  5  6  1  0
  6  7  1  0
  7  8  1  0
  4  9  1  0
  9  2  1  0
  8  4  1  0
  3 10  1  0
  3 11  1  0
  5 12  1  0
  5 13  1  0
  6 14  1  0
  6 15  1  0
  7 16  1  0
  7 17  1  0
  9 18  1  0
  9 19  1  0
M  END
