
     RDKit          3D

 13 14  0  0  0  0  0  0  0  0999 V2000
    3.0406   -0.1112    0.1771 O   0  0  0  0  0  0  0  0  0  0  0  0
    1.7918   -0.0026    0.2153 C   0  0  0  0  0  0  0  0  0  0  0  0
    1.1081    1.0965   -0.3199 O   0  0  0  0  0  0  0  0  0  0  0  0
   -0.2921    0.9537   -0.4444 C   0  0  0  0  0  0  0  0  0  0  0  0
   -0.6268   -0.4674   -0.9078 C   0  0  0  0  0  0  0  0  0  0  0  0
   -0.4203   -0.8374    0.5665 C   0  0  0  0  0  0  0  0  0  0  0  0
    0.9662   -0.9778    0.8007 O   0  0  0  0  0  0  0  0  0  0  0  0
   -0.8426    0.5589    0.8887 C   0  0  0  0  0  0  0  0  0  0  0  0
   -1.3880    1.1580    1.8009 O   0  0  0  0  0  0  0  0  0  0  0  0
   -0.8296    1.7496   -0.9524 H   0  0  0  0  0  0  0  0  0  0  0  0
   -1.6423   -0.5981   -1.2704 H   0  0  0  0  0  0  0  0  0  0  0  0
    0.2000   -0.8955   -1.4949 H   0  0  0  0  0  0  0  0  0  0  0  0
   -1.0650   -1.6265    0.9404 H   0  0  0  0  0  0  0  0  0  0  0  0
  1  2  2  0
  2  3  1  0
  3  4  1  0
  4  5  1  0
  5  6  1  0
  6  7  1  0
  6  8  1  0
  8  9  2  0
  7  2  1  0
  8  4  1  0
  4 10  1  0
  5 11  1  0
  5 12  1  0
  6 13  1  0
M  END
