
     RDKit          3D

 16 17  0  0  0  0  0  0  0  0999 V2000
   -0.8198   -2.5019    0.0928 O   0  0  0  0  0  0  0  0  0  0  0  0
   -0.3382   -1.4119    0.2054 C   0  0  0  0  0  0  0  0  0  0  0  0
    1.0276   -1.0125   -0.1886 C   0  0  0  0  0  0  0  0  0  0  0  0
    0.8174    0.4099   -0.6632 C   0  0  0  0  0  0  0  0  0  0  0  0
    1.9969    1.1081   -0.4030 O   0  0  0  0  0  0  0  0  0  0  0  0
   -0.3147    0.9862    0.1157 C   0  0  0  0  0  0  0  0  0  0  0  0
   -1.7257    0.6461   -0.1862 C   0  0  0  0  0  0  0  0  0  0  0  0
   -0.9954   -0.2110    0.7641 C   0  0  0  0  0  0  0  0  0  0  0  0
    1.6444   -1.0130    0.7542 H   0  0  0  0  0  0  0  0  0  0  0  0
    1.4763   -1.6441   -0.9671 H   0  0  0  0  0  0  0  0  0  0  0  0
    0.6586    0.4267   -1.7566 H   0  0  0  0  0  0  0  0  0  0  0  0
    2.2533    0.8892    0.5294 H   0  0  0  0  0  0  0  0  0  0  0  0
   -0.0810    1.8722    0.7342 H   0  0  0  0  0  0  0  0  0  0  0  0
   -2.4831    1.3473    0.2563 H   0  0  0  0  0  0  0  0  0  0  0  0
   -2.0261    0.2090   -1.1495 H   0  0  0  0  0  0  0  0  0  0  0  0
   -1.0904   -0.1003    1.8622 H   0  0  0  0  0  0  0  0  0  0  0  0
  1  2  2  0
  2  3  1  0
  3  4  1  0
  4  5  1  0
  4  6  1  0
  6  7  1  0
  7  8  1  0
  8  2  1  0
  8  6  1  0
  3  9  1  0
  3 10  1  0
  4 11  1  0
  5 12  1  0
  6 13  1  0
  7 14  1  0
  7 15  1  0
  8 16  1  0
M  END
