
     RDKit          3D

 19 19  0  0  0  0  0  0  0  0999 V2000
   -1.2290    2.3405    0.8773 O   0  0  0  0  0  0  0  0  0  0  0  0
   -1.2996    1.2323    0.3146 C   0  0  0  0  0  0  0  0  0  0  0  0
   -2.5440    0.5009    0.1043 C   0  0  0  0  0  0  0  0  0  0  0  0
   -2.2918   -0.7858   -0.0495 C   0  0  0  0  0  0  0  0  0  0  0  0
   -0.8371   -1.0079    0.0502 C   0  0  0  0  0  0  0  0  0  0  0  0
   -0.2671    0.3500   -0.2800 C   0  0  0  0  0  0  0  0  0  0  0  0
    1.0943    0.5613    0.3350 C   0  0  0  0  0  0  0  0  0  0  0  0
    2.0417   -0.4089   -0.3743 C   0  0  0  0  0  0  0  0  0  0  0  0
    3.3288   -0.3226    0.0917 O   0  0  0  0  0  0  0  0  0  0  0  0
   -3.5583    0.9142    0.0715 H   0  0  0  0  0  0  0  0  0  0  0  0
   -3.0000   -1.5964   -0.2241 H   0  0  0  0  0  0  0  0  0  0  0  0
   -0.6241   -1.2394    1.1142 H   0  0  0  0  0  0  0  0  0  0  0  0
   -0.4681   -1.7935   -0.6358 H   0  0  0  0  0  0  0  0  0  0  0  0
   -0.2629    0.5348   -1.3602 H   0  0  0  0  0  0  0  0  0  0  0  0
    1.0948    0.2481    1.3983 H   0  0  0  0  0  0  0  0  0  0  0  0
    1.4427    1.5759    0.1740 H   0  0  0  0  0  0  0  0  0  0  0  0
    1.9719   -0.2276   -1.4479 H   0  0  0  0  0  0  0  0  0  0  0  0
    1.6859   -1.4500   -0.1944 H   0  0  0  0  0  0  0  0  0  0  0  0
    3.7221    0.5741    0.0351 H   0  0  0  0  0  0  0  0  0  0  0  0
  1  2  2  0
  2  3  1  0
  3  4  2  0
  4  5  1  0
  5  6  1  0
  6  7  1  0
  7  8  1  0
  8  9  1  0
  6  2  1  0
  3 10  1  0
  4 11  1  0
  5 12  1  0
  5 13  1  0
  6 14  1  0
  7 15  1  0
  7 16  1  0
  8 17  1  0
  8 18  1  0
  9 19  1  0
M  END
