
     RDKit          3D

 14 16  0  0  0  0  0  0  0  0999 V2000
   -2.6943    0.4568    0.1251 O   0  0  0  0  0  0  0  0  0  0  0  0
   -1.6313   -0.0591    0.0644 C   0  0  0  0  0  0  0  0  0  0  0  0
   -0.6848   -0.6229   -0.8687 C   0  0  0  0  0  0  0  0  0  0  0  0
   -0.2834   -1.4930    0.1598 O   0  0  0  0  0  0  0  0  0  0  0  0
   -0.5842   -0.4464    1.0220 C   0  0  0  0  0  0  0  0  0  0  0  0
    0.4924    0.5807    0.7006 C   0  0  0  0  0  0  0  0  0  0  0  0
    1.6454    0.1042   -0.0691 C   0  0  0  0  0  0  0  0  0  0  0  0
    0.4393    0.4005   -0.8607 C   0  0  0  0  0  0  0  0  0  0  0  0
   -0.9758   -1.0472   -1.7997 H   0  0  0  0  0  0  0  0  0  0  0  0
   -0.8176   -0.6420    2.0370 H   0  0  0  0  0  0  0  0  0  0  0  0
    0.3753    1.6077    1.0665 H   0  0  0  0  0  0  0  0  0  0  0  0
    1.8880   -0.9814    0.0437 H   0  0  0  0  0  0  0  0  0  0  0  0
    2.5039    0.8064   -0.1995 H   0  0  0  0  0  0  0  0  0  0  0  0
    0.3270    1.3357   -1.4213 H   0  0  0  0  0  0  0  0  0  0  0  0
  1  2  2  0
  2  3  1  0
  3  4  1  0
  4  5  1  0
  5  6  1  0
  6  7  1  0
  7  8  1  0
  5  2  1  0
  8  6  1  0
  8  3  1  0
  3  9  1  0
  5 10  1  0
  6 11  1  0
  7 12  1  0
  7 13  1  0
  8 14  1  0
M  END
