
     RDKit          3D

 17 17  0  0  0  0  0  0  0  0999 V2000
    3.0325    0.3438   -0.2830 O   0  0  0  0  0  0  0  0  0  0  0  0
    1.7871    0.1497   -0.2367 C   0  0  0  0  0  0  0  0  0  0  0  0
    1.3187   -1.2375   -0.3756 C   0  0  0  0  0  0  0  0  0  0  0  0
    0.1358   -1.6694    0.0259 C   0  0  0  0  0  0  0  0  0  0  0  0
   -0.9196   -0.8875    0.6715 C   0  0  0  0  0  0  0  0  0  0  0  0
   -1.3667    0.3764    0.1301 C   0  0  0  0  0  0  0  0  0  0  0  0
   -0.4849    1.4132   -0.3962 C   0  0  0  0  0  0  0  0  0  0  0  0
    0.9531    1.3442   -0.0485 C   0  0  0  0  0  0  0  0  0  0  0  0
    1.5278    2.3560    0.4407 O   0  0  0  0  0  0  0  0  0  0  0  0
    2.0249   -1.9355   -0.8438 H   0  0  0  0  0  0  0  0  0  0  0  0
   -0.0385   -2.7435   -0.1635 H   0  0  0  0  0  0  0  0  0  0  0  0
   -1.7944   -1.5937    0.8144 H   0  0  0  0  0  0  0  0  0  0  0  0
   -0.5807   -0.7247    1.7421 H   0  0  0  0  0  0  0  0  0  0  0  0
   -2.1331    0.1419   -0.6801 H   0  0  0  0  0  0  0  0  0  0  0  0
   -2.0422    0.8731    0.9071 H   0  0  0  0  0  0  0  0  0  0  0  0
   -0.9088    2.4226   -0.1729 H   0  0  0  0  0  0  0  0  0  0  0  0
   -0.5110    1.3707   -1.5316 H   0  0  0  0  0  0  0  0  0  0  0  0
  1  2  2  0
  2  3  1  0
  3  4  2  0
  4  5  1  0
  5  6  1  0
  6  7  1  0
  7  8  1  0
  8  9  2  0
  8  2  1  0
  3 10  1  0
  4 11  1  0
  5 12  1  0
  5 13  1  0
  6 14  1  0
  6 15  1  0
  7 16  1  0
  7 17  1  0
M  END
