
     RDKit          3D

 17 19  0  0  0  0  0  0  0  0999 V2000
    2.6050    1.1022    0.6917 O   0  0  0  0  0  0  0  0  0  0  0  0
    1.7225    0.3927    0.2933 C   0  0  0  0  0  0  0  0  0  0  0  0
    1.2825   -0.9798    0.6142 C   0  0  0  0  0  0  0  0  0  0  0  0
    0.1473   -0.8830   -0.3979 C   0  0  0  0  0  0  0  0  0  0  0  0
   -1.1953   -0.7259    0.2302 C   0  0  0  0  0  0  0  0  0  0  0  0
   -1.6281    0.6679   -0.0598 C   0  0  0  0  0  0  0  0  0  0  0  0
   -1.0515    1.6374    0.7607 O   0  0  0  0  0  0  0  0  0  0  0  0
   -0.4438    1.4717   -0.4476 C   0  0  0  0  0  0  0  0  0  0  0  0
    0.6540    0.5094   -0.6867 C   0  0  0  0  0  0  0  0  0  0  0  0
    1.9734   -1.7956    0.3286 H   0  0  0  0  0  0  0  0  0  0  0  0
    0.8735   -1.1565    1.6122 H   0  0  0  0  0  0  0  0  0  0  0  0
    0.2192   -1.5912   -1.2442 H   0  0  0  0  0  0  0  0  0  0  0  0
   -1.9054   -1.5075   -0.1488 H   0  0  0  0  0  0  0  0  0  0  0  0
   -1.1198   -0.9312    1.3318 H   0  0  0  0  0  0  0  0  0  0  0  0
   -2.5608    0.8995   -0.5873 H   0  0  0  0  0  0  0  0  0  0  0  0
   -0.5604    2.3270   -1.1692 H   0  0  0  0  0  0  0  0  0  0  0  0
    0.9879    0.5628   -1.7605 H   0  0  0  0  0  0  0  0  0  0  0  0
  1  2  2  0
  2  3  1  0
  3  4  1  0
  4  5  1  0
  5  6  1  0
  6  7  1  0
  7  8  1  0
  8  9  1  0
  9  2  1  0
  9  4  1  0
  8  6  1  0
  3 10  1  0
  3 11  1  0
  4 12  1  0
  5 13  1  0
  5 14  1  0
  6 15  1  0
  8 16  1  0
  9 17  1  0
M  END
