
     RDKit          3D

 19 19  0  0  0  0  0  0  0  0999 V2000
   -1.0780   -1.1051    2.0325 O   0  0  0  0  0  0  0  0  0  0  0  0
   -1.1273   -0.7583    0.8705 C   0  0  0  0  0  0  0  0  0  0  0  0
   -2.1662    0.1684    0.3589 C   0  0  0  0  0  0  0  0  0  0  0  0
   -1.6960    0.6331   -0.8901 O   0  0  0  0  0  0  0  0  0  0  0  0
   -0.3924    1.0895   -0.6938 C   0  0  0  0  0  0  0  0  0  0  0  0
    0.5349   -0.0972   -0.7480 C   0  0  0  0  0  0  0  0  0  0  0  0
    1.8944    0.2172   -0.1688 C   0  0  0  0  0  0  0  0  0  0  0  0
    1.8464    0.6032    1.1486 O   0  0  0  0  0  0  0  0  0  0  0  0
   -0.1116   -1.2794   -0.0759 C   0  0  0  0  0  0  0  0  0  0  0  0
   -2.3486    1.0203    1.0460 H   0  0  0  0  0  0  0  0  0  0  0  0
   -3.0855   -0.4053    0.1281 H   0  0  0  0  0  0  0  0  0  0  0  0
   -0.3141    1.6444    0.2624 H   0  0  0  0  0  0  0  0  0  0  0  0
   -0.1224    1.7846   -1.5220 H   0  0  0  0  0  0  0  0  0  0  0  0
    0.6951   -0.3455   -1.8175 H   0  0  0  0  0  0  0  0  0  0  0  0
    2.5028   -0.7068   -0.2389 H   0  0  0  0  0  0  0  0  0  0  0  0
    2.3450    1.0048   -0.7839 H   0  0  0  0  0  0  0  0  0  0  0  0
    2.7082    0.3536    1.5686 H   0  0  0  0  0  0  0  0  0  0  0  0
   -0.6847   -1.8500   -0.8609 H   0  0  0  0  0  0  0  0  0  0  0  0
    0.5999   -1.9714    0.3842 H   0  0  0  0  0  0  0  0  0  0  0  0
  1  2  2  0
  2  3  1  0
  3  4  1  0
  4  5  1  0
  5  6  1  0
  6  7  1  0
  7  8  1  0
  6  9  1  0
  9  2  1  0
  3 10  1  0
  3 11  1  0
  5 12  1  0
  5 13  1  0
  6 14  1  0
  7 15  1  0
  7 16  1  0
  8 17  1  0
  9 18  1  0
  9 19  1  0
M  END
