
     RDKit          3D

 14 16  0  0  0  0  0  0  0  0999 V2000
    1.2125    2.3010   -0.1471 O   0  0  0  0  0  0  0  0  0  0  0  0
    0.7857    1.1772   -0.0214 C   0  0  0  0  0  0  0  0  0  0  0  0
   -0.5067    0.8033    0.5562 C   0  0  0  0  0  0  0  0  0  0  0  0
   -1.6091    0.2152   -0.2092 C   0  0  0  0  0  0  0  0  0  0  0  0
   -0.6115   -0.6810    0.4318 C   0  0  0  0  0  0  0  0  0  0  0  0
    0.5731   -1.1937   -0.3066 C   0  0  0  0  0  0  0  0  0  0  0  0
    0.9479   -0.6877   -1.5307 O   0  0  0  0  0  0  0  0  0  0  0  0
    1.4876   -0.0499   -0.4281 C   0  0  0  0  0  0  0  0  0  0  0  0
   -0.7300    1.2533    1.5438 H   0  0  0  0  0  0  0  0  0  0  0  0
   -1.6532    0.1961   -1.3127 H   0  0  0  0  0  0  0  0  0  0  0  0
   -2.6140    0.2587    0.2615 H   0  0  0  0  0  0  0  0  0  0  0  0
   -0.8492   -1.2265    1.3627 H   0  0  0  0  0  0  0  0  0  0  0  0
    1.0150   -2.1713   -0.0308 H   0  0  0  0  0  0  0  0  0  0  0  0
    2.5519   -0.1947   -0.1694 H   0  0  0  0  0  0  0  0  0  0  0  0
  1  2  2  0
  2  3  1  0
  3  4  1  0
  4  5  1  0
  5  6  1  0
  6  7  1  0
  7  8  1  0
  8  2  1  0
  5  3  1  0
  8  6  1  0
  3  9  1  0
  4 10  1  0
  4 11  1  0
  5 12  1  0
  6 13  1  0
  8 14  1  0
M  END
