
     RDKit          3D

 17 17  0  0  0  0  0  0  0  0999 V2000
   -1.3094    2.9204    0.0270 O   0  0  0  0  0  0  0  0  0  0  0  0
   -0.6487    1.8620    0.1899 C   0  0  0  0  0  0  0  0  0  0  0  0
   -0.0034    0.9559   -0.7605 C   0  0  0  0  0  0  0  0  0  0  0  0
    0.0204   -0.0501    0.3758 C   0  0  0  0  0  0  0  0  0  0  0  0
   -1.1177   -1.0516    0.3427 C   0  0  0  0  0  0  0  0  0  0  0  0
   -2.2858   -0.4429   -0.0992 O   0  0  0  0  0  0  0  0  0  0  0  0
    1.3603   -0.7119    0.4804 C   0  0  0  0  0  0  0  0  0  0  0  0
    2.3879    0.1924    0.1840 O   0  0  0  0  0  0  0  0  0  0  0  0
   -0.2046    1.0447    1.2212 O   0  0  0  0  0  0  0  0  0  0  0  0
   -0.5858    0.6192   -1.6223 H   0  0  0  0  0  0  0  0  0  0  0  0
    1.0294    1.3155   -0.9878 H   0  0  0  0  0  0  0  0  0  0  0  0
   -1.2338   -1.4951    1.3568 H   0  0  0  0  0  0  0  0  0  0  0  0
   -0.8071   -1.8936   -0.3162 H   0  0  0  0  0  0  0  0  0  0  0  0
   -2.3543   -0.6202   -1.0859 H   0  0  0  0  0  0  0  0  0  0  0  0
    1.5595   -1.0354    1.5432 H   0  0  0  0  0  0  0  0  0  0  0  0
    1.3799   -1.5970   -0.1610 H   0  0  0  0  0  0  0  0  0  0  0  0
    2.8131   -0.0124   -0.6880 H   0  0  0  0  0  0  0  0  0  0  0  0
  1  2  2  0
  2  3  1  0
  3  4  1  0
  4  5  1  0
  5  6  1  0
  4  7  1  0
  7  8  1  0
  4  9  1  0
  9  2  1  0
  3 10  1  0
  3 11  1  0
  5 12  1  0
  5 13  1  0
  6 14  1  0
  7 15  1  0
  7 16  1  0
  8 17  1  0
M  END
