
     RDKit          3D

 17 18  0  0  0  0  0  0  0  0999 V2000
    2.0130    2.2874    0.4803 O   0  0  0  0  0  0  0  0  0  0  0  0
    1.5618    1.1263    0.3227 C   0  0  0  0  0  0  0  0  0  0  0  0
    2.2656   -0.1742    0.2745 C   0  0  0  0  0  0  0  0  0  0  0  0
    1.3232   -1.1486    0.1154 O   0  0  0  0  0  0  0  0  0  0  0  0
    0.1860   -0.5804   -0.4230 C   0  0  0  0  0  0  0  0  0  0  0  0
   -1.1049   -1.1894   -0.0290 C   0  0  0  0  0  0  0  0  0  0  0  0
   -2.0300    0.0328   -0.2401 C   0  0  0  0  0  0  0  0  0  0  0  0
   -1.1312    1.1497    0.2299 C   0  0  0  0  0  0  0  0  0  0  0  0
    0.1298    0.7998    0.1402 C   0  0  0  0  0  0  0  0  0  0  0  0
    2.9591   -0.1167   -0.6117 H   0  0  0  0  0  0  0  0  0  0  0  0
    2.8518   -0.3276    1.2114 H   0  0  0  0  0  0  0  0  0  0  0  0
    0.2199   -0.5406   -1.5452 H   0  0  0  0  0  0  0  0  0  0  0  0
   -1.4407   -2.0172   -0.7142 H   0  0  0  0  0  0  0  0  0  0  0  0
   -1.1650   -1.5419    1.0118 H   0  0  0  0  0  0  0  0  0  0  0  0
   -2.8701   -0.0159    0.4694 H   0  0  0  0  0  0  0  0  0  0  0  0
   -2.3179    0.1430   -1.2866 H   0  0  0  0  0  0  0  0  0  0  0  0
   -1.4503    2.1135    0.5943 H   0  0  0  0  0  0  0  0  0  0  0  0
  1  2  2  0
  2  3  1  0
  3  4  1  0
  4  5  1  0
  5  6  1  0
  6  7  1  0
  7  8  1  0
  8  9  2  0
  9  2  1  0
  9  5  1  0
  3 10  1  0
  3 11  1  0
  5 12  1  0
  6 13  1  0
  6 14  1  0
  7 15  1  0
  7 16  1  0
  8 17  1  0
M  END
