
     RDKit          3D

 17 17  0  0  0  0  0  0  0  0999 V2000
   -1.8119    2.1243   -0.1781 O   0  0  0  0  0  0  0  0  0  0  0  0
   -0.9668    1.1728   -0.1021 C   0  0  0  0  0  0  0  0  0  0  0  0
    0.4000    1.6259   -0.1314 C   0  0  0  0  0  0  0  0  0  0  0  0
    1.4709    0.8871   -0.0303 C   0  0  0  0  0  0  0  0  0  0  0  0
    1.5972   -0.5656    0.1366 C   0  0  0  0  0  0  0  0  0  0  0  0
    0.5828   -1.3761   -0.4967 C   0  0  0  0  0  0  0  0  0  0  0  0
   -0.7275   -1.2402   -0.5722 C   0  0  0  0  0  0  0  0  0  0  0  0
   -1.5493   -0.1703   -0.0015 C   0  0  0  0  0  0  0  0  0  0  0  0
   -1.9352   -0.4813    1.3232 O   0  0  0  0  0  0  0  0  0  0  0  0
    0.5582    2.6885   -0.2495 H   0  0  0  0  0  0  0  0  0  0  0  0
    2.4212    1.4033   -0.0736 H   0  0  0  0  0  0  0  0  0  0  0  0
    1.5437   -0.7572    1.2510 H   0  0  0  0  0  0  0  0  0  0  0  0
    2.6127   -0.9135   -0.1476 H   0  0  0  0  0  0  0  0  0  0  0  0
    0.9474   -2.2613   -1.0071 H   0  0  0  0  0  0  0  0  0  0  0  0
   -1.2396   -2.0211   -1.1251 H   0  0  0  0  0  0  0  0  0  0  0  0
   -2.5040   -0.1482   -0.5717 H   0  0  0  0  0  0  0  0  0  0  0  0
   -1.3998    0.0327    1.9762 H   0  0  0  0  0  0  0  0  0  0  0  0
  1  2  2  0
  2  3  1  0
  3  4  2  0
  4  5  1  0
  5  6  1  0
  6  7  2  0
  7  8  1  0
  8  9  1  0
  8  2  1  0
  3 10  1  0
  4 11  1  0
  5 12  1  0
  5 13  1  0
  6 14  1  0
  7 15  1  0
  8 16  1  0
  9 17  1  0
M  END
