
     RDKit          3D

 17 19  0  0  0  0  0  0  0  0999 V2000
   -0.8407    2.5942   -0.1456 O   0  0  0  0  0  0  0  0  0  0  0  0
   -0.4905    1.4472   -0.1261 C   0  0  0  0  0  0  0  0  0  0  0  0
   -0.4829    0.2142   -0.9493 C   0  0  0  0  0  0  0  0  0  0  0  0
   -1.4228   -0.6667   -0.1635 C   0  0  0  0  0  0  0  0  0  0  0  0
   -0.8970   -0.3598    1.2540 C   0  0  0  0  0  0  0  0  0  0  0  0
    0.2013    0.6070    0.8847 C   0  0  0  0  0  0  0  0  0  0  0  0
    0.8306   -0.0848   -0.2850 C   0  0  0  0  0  0  0  0  0  0  0  0
    2.0884   -0.1562   -0.7392 C   0  0  0  0  0  0  0  0  0  0  0  0
    1.3288   -1.3537   -0.2282 O   0  0  0  0  0  0  0  0  0  0  0  0
   -0.5573    0.2722   -2.0006 H   0  0  0  0  0  0  0  0  0  0  0  0
   -2.4441   -0.2834   -0.2966 H   0  0  0  0  0  0  0  0  0  0  0  0
   -1.3132   -1.7314   -0.4085 H   0  0  0  0  0  0  0  0  0  0  0  0
   -1.6652    0.0804    1.8838 H   0  0  0  0  0  0  0  0  0  0  0  0
   -0.4646   -1.3028    1.6484 H   0  0  0  0  0  0  0  0  0  0  0  0
    0.7909    1.0582    1.6362 H   0  0  0  0  0  0  0  0  0  0  0  0
    2.9975    0.0225   -0.1451 H   0  0  0  0  0  0  0  0  0  0  0  0
    2.3409   -0.3572   -1.8194 H   0  0  0  0  0  0  0  0  0  0  0  0
  1  2  2  0
  2  3  1  0
  3  4  1  0
  4  5  1  0
  5  6  1  0
  6  7  1  0
  7  8  1  0
  8  9  1  0
  6  2  1  0
  9  7  1  0
  7  3  1  0
  3 10  1  0
  4 11  1  0
  4 12  1  0
  5 13  1  0
  5 14  1  0
  6 15  1  0
  8 16  1  0
  8 17  1  0
M  END
