
     RDKit          3D

 17 18  0  0  0  0  0  0  0  0999 V2000
    0.0324    2.3553   -1.6421 O   0  0  0  0  0  0  0  0  0  0  0  0
   -0.1258    1.4210   -0.8886 C   0  0  0  0  0  0  0  0  0  0  0  0
   -1.2954    0.7694   -0.2642 C   0  0  0  0  0  0  0  0  0  0  0  0
   -0.3721    0.2046    0.7874 C   0  0  0  0  0  0  0  0  0  0  0  0
   -0.3818   -1.2899    0.8647 C   0  0  0  0  0  0  0  0  0  0  0  0
    0.8005   -1.7395    0.2512 O   0  0  0  0  0  0  0  0  0  0  0  0
    0.8514   -0.9025   -0.8671 C   0  0  0  0  0  0  0  0  0  0  0  0
    0.7538    0.4668   -0.2164 C   0  0  0  0  0  0  0  0  0  0  0  0
    1.9174    0.9423    0.3317 O   0  0  0  0  0  0  0  0  0  0  0  0
   -2.0596    1.4131    0.1688 H   0  0  0  0  0  0  0  0  0  0  0  0
   -1.7800   -0.0208   -0.8870 H   0  0  0  0  0  0  0  0  0  0  0  0
   -0.2973    0.7614    1.7192 H   0  0  0  0  0  0  0  0  0  0  0  0
   -0.3868   -1.6457    1.9160 H   0  0  0  0  0  0  0  0  0  0  0  0
   -1.2225   -1.7307    0.2883 H   0  0  0  0  0  0  0  0  0  0  0  0
   -0.0731   -1.0850   -1.4374 H   0  0  0  0  0  0  0  0  0  0  0  0
    1.7754   -1.0674   -1.4086 H   0  0  0  0  0  0  0  0  0  0  0  0
    1.8634    1.1477    1.2842 H   0  0  0  0  0  0  0  0  0  0  0  0
  1  2  2  0
  2  3  1  0
  3  4  1  0
  4  5  1  0
  5  6  1  0
  6  7  1  0
  7  8  1  0
  8  9  1  0
  8  2  1  0
  8  4  1  0
  3 10  1  0
  3 11  1  0
  4 12  1  0
  5 13  1  0
  5 14  1  0
  7 15  1  0
  7 16  1  0
  9 17  1  0
M  END
