
     RDKit          3D

 19 19  0  0  0  0  0  0  0  0999 V2000
    2.8632    0.5485   -0.9399 O   0  0  0  0  0  0  0  0  0  0  0  0
    1.7476    0.3443   -0.4056 C   0  0  0  0  0  0  0  0  0  0  0  0
    1.7284   -0.8354    0.4932 C   0  0  0  0  0  0  0  0  0  0  0  0
    0.9019   -1.8453    0.0571 O   0  0  0  0  0  0  0  0  0  0  0  0
   -0.2843   -1.3829   -0.5149 C   0  0  0  0  0  0  0  0  0  0  0  0
   -1.1031   -0.6093    0.4557 C   0  0  0  0  0  0  0  0  0  0  0  0
   -1.5102    0.7531   -0.0173 C   0  0  0  0  0  0  0  0  0  0  0  0
   -0.4015    1.7275   -0.1458 C   0  0  0  0  0  0  0  0  0  0  0  0
    0.7533    1.2541   -0.7553 O   0  0  0  0  0  0  0  0  0  0  0  0
    1.4760   -0.4658    1.5180 H   0  0  0  0  0  0  0  0  0  0  0  0
    2.7611   -1.2474    0.5812 H   0  0  0  0  0  0  0  0  0  0  0  0
   -0.8157   -2.3113   -0.8788 H   0  0  0  0  0  0  0  0  0  0  0  0
   -0.0802   -0.8109   -1.4664 H   0  0  0  0  0  0  0  0  0  0  0  0
   -2.0597   -1.1848    0.6268 H   0  0  0  0  0  0  0  0  0  0  0  0
   -0.6492   -0.5210    1.4694 H   0  0  0  0  0  0  0  0  0  0  0  0
   -2.2179    1.1569    0.7669 H   0  0  0  0  0  0  0  0  0  0  0  0
   -2.1466    0.6699   -0.9357 H   0  0  0  0  0  0  0  0  0  0  0  0
   -0.7763    2.5876   -0.7704 H   0  0  0  0  0  0  0  0  0  0  0  0
   -0.1867    2.1723    0.8618 H   0  0  0  0  0  0  0  0  0  0  0  0
  1  2  2  0
  2  3  1  0
  3  4  1  0
  4  5  1  0
  5  6  1  0
  6  7  1  0
  7  8  1  0
  8  9  1  0
  9  2  1  0
  3 10  1  0
  3 11  1  0
  5 12  1  0
  5 13  1  0
  6 14  1  0
  6 15  1  0
  7 16  1  0
  7 17  1  0
  8 18  1  0
  8 19  1  0
M  END
