
     RDKit          3D

 17 18  0  0  0  0  0  0  0  0999 V2000
    0.3790   -2.6782    0.3070 O   0  0  0  0  0  0  0  0  0  0  0  0
    0.0891   -1.5188    0.3756 C   0  0  0  0  0  0  0  0  0  0  0  0
   -0.3156   -0.5164    1.4027 C   0  0  0  0  0  0  0  0  0  0  0  0
   -1.2909   -0.1569    0.3524 C   0  0  0  0  0  0  0  0  0  0  0  0
   -1.1999    0.3944   -0.9445 C   0  0  0  0  0  0  0  0  0  0  0  0
   -1.2088    1.8107   -0.9995 O   0  0  0  0  0  0  0  0  0  0  0  0
   -0.0391   -0.3751   -0.5479 C   0  0  0  0  0  0  0  0  0  0  0  0
    1.1657    0.4886   -0.4805 C   0  0  0  0  0  0  0  0  0  0  0  0
    2.3487   -0.2029   -0.8061 O   0  0  0  0  0  0  0  0  0  0  0  0
    0.4102    0.1922    1.7667 H   0  0  0  0  0  0  0  0  0  0  0  0
   -0.7945   -0.9900    2.3005 H   0  0  0  0  0  0  0  0  0  0  0  0
   -2.0539   -1.0179    0.3301 H   0  0  0  0  0  0  0  0  0  0  0  0
   -1.7055   -0.0033   -1.8720 H   0  0  0  0  0  0  0  0  0  0  0  0
   -1.1071    2.2151   -0.1135 H   0  0  0  0  0  0  0  0  0  0  0  0
    1.0906    1.1982   -1.3816 H   0  0  0  0  0  0  0  0  0  0  0  0
    1.2629    1.1823    0.3466 H   0  0  0  0  0  0  0  0  0  0  0  0
    2.9691   -0.0221   -0.0358 H   0  0  0  0  0  0  0  0  0  0  0  0
  1  2  2  0
  2  3  1  0
  3  4  1  0
  4  5  1  0
  5  6  1  0
  5  7  1  0
  7  8  1  0
  8  9  1  0
  7  2  1  0
  7  4  1  0
  3 10  1  0
  3 11  1  0
  4 12  1  0
  5 13  1  0
  6 14  1  0
  8 15  1  0
  8 16  1  0
  9 17  1  0
M  END
