
     RDKit          3D

 17 18  0  0  0  0  0  0  0  0999 V2000
    2.7624   -0.7944   -0.5748 O   0  0  0  0  0  0  0  0  0  0  0  0
    1.6724   -0.3668   -0.1346 C   0  0  0  0  0  0  0  0  0  0  0  0
    1.5548    1.0154    0.2452 C   0  0  0  0  0  0  0  0  0  0  0  0
    0.4058    1.5269    0.6507 C   0  0  0  0  0  0  0  0  0  0  0  0
   -0.8111    0.7404    0.7421 C   0  0  0  0  0  0  0  0  0  0  0  0
   -1.4139    0.3467   -0.5986 C   0  0  0  0  0  0  0  0  0  0  0  0
   -0.7699   -0.6411    0.2749 C   0  0  0  0  0  0  0  0  0  0  0  0
   -1.6615   -1.5095    0.9534 O   0  0  0  0  0  0  0  0  0  0  0  0
    0.5366   -1.2728   -0.0122 C   0  0  0  0  0  0  0  0  0  0  0  0
    2.4368    1.6377    0.1922 H   0  0  0  0  0  0  0  0  0  0  0  0
    0.3795    2.5676    0.9211 H   0  0  0  0  0  0  0  0  0  0  0  0
   -1.5102    1.0578    1.5608 H   0  0  0  0  0  0  0  0  0  0  0  0
   -2.5224    0.4054   -0.6141 H   0  0  0  0  0  0  0  0  0  0  0  0
   -0.9538    0.7500   -1.5110 H   0  0  0  0  0  0  0  0  0  0  0  0
   -1.3278   -1.5294    1.8864 H   0  0  0  0  0  0  0  0  0  0  0  0
    0.4383   -1.9344   -0.9224 H   0  0  0  0  0  0  0  0  0  0  0  0
    0.7840   -1.9994    0.8131 H   0  0  0  0  0  0  0  0  0  0  0  0
  1  2  2  0
  2  3  1  0
  3  4  2  0
  4  5  1  0
  5  6  1  0
  6  7  1  0
  7  8  1  0
  7  9  1  0
  9  2  1  0
  7  5  1  0
  3 10  1  0
  4 11  1  0
  5 12  1  0
  6 13  1  0
  6 14  1  0
  8 15  1  0
  9 16  1  0
  9 17  1  0
M  END
