
     RDKit          3D

 15 16  0  0  0  0  0  0  0  0999 V2000
    2.4706    0.6410   -1.5998 O   0  0  0  0  0  0  0  0  0  0  0  0
    1.4675    0.1096   -1.1112 C   0  0  0  0  0  0  0  0  0  0  0  0
    0.2292   -0.2578   -1.6166 O   0  0  0  0  0  0  0  0  0  0  0  0
   -0.2908   -0.1118   -0.3762 C   0  0  0  0  0  0  0  0  0  0  0  0
   -1.0464    1.0750    0.0252 C   0  0  0  0  0  0  0  0  0  0  0  0
   -2.2092    0.2860    0.0870 O   0  0  0  0  0  0  0  0  0  0  0  0
   -1.4174   -0.8746    0.1500 C   0  0  0  0  0  0  0  0  0  0  0  0
    1.0284   -0.4088    0.2009 C   0  0  0  0  0  0  0  0  0  0  0  0
    1.3021    0.3831    1.2937 O   0  0  0  0  0  0  0  0  0  0  0  0
   -0.8355    1.4983    1.0364 H   0  0  0  0  0  0  0  0  0  0  0  0
   -1.0831    1.8391   -0.7864 H   0  0  0  0  0  0  0  0  0  0  0  0
   -1.2491   -1.1857    1.2150 H   0  0  0  0  0  0  0  0  0  0  0  0
   -1.7720   -1.7209   -0.4317 H   0  0  0  0  0  0  0  0  0  0  0  0
    1.1883   -1.5009    0.3394 H   0  0  0  0  0  0  0  0  0  0  0  0
    2.2174    0.2286    1.5741 H   0  0  0  0  0  0  0  0  0  0  0  0
  1  2  2  0
  2  3  1  0
  3  4  1  0
  4  5  1  0
  5  6  1  0
  6  7  1  0
  4  8  1  0
  8  9  1  0
  8  2  1  0
  7  4  1  0
  5 10  1  0
  5 11  1  0
  7 12  1  0
  7 13  1  0
  8 14  1  0
  9 15  1  0
M  END
