
     RDKit          3D

 15 17  0  0  0  0  0  0  0  0999 V2000
    2.8779    0.0614    0.0262 O   0  0  0  0  0  0  0  0  0  0  0  0
    1.6875    0.0328    0.0110 C   0  0  0  0  0  0  0  0  0  0  0  0
    0.6689   -0.8079    0.6803 C   0  0  0  0  0  0  0  0  0  0  0  0
    0.0504    0.1093    1.5123 O   0  0  0  0  0  0  0  0  0  0  0  0
   -0.2321    1.1632    0.6265 C   0  0  0  0  0  0  0  0  0  0  0  0
   -1.5421    0.9560    0.1922 O   0  0  0  0  0  0  0  0  0  0  0  0
   -1.5225   -0.3476   -0.3333 C   0  0  0  0  0  0  0  0  0  0  0  0
   -0.1067   -0.6760   -0.6387 C   0  0  0  0  0  0  0  0  0  0  0  0
    0.5458    0.6996   -0.5838 C   0  0  0  0  0  0  0  0  0  0  0  0
    0.9102   -1.7779    1.0179 H   0  0  0  0  0  0  0  0  0  0  0  0
   -0.0083    2.1406    0.9863 H   0  0  0  0  0  0  0  0  0  0  0  0
   -1.8421   -1.0141    0.5219 H   0  0  0  0  0  0  0  0  0  0  0  0
   -2.2373   -0.4962   -1.1359 H   0  0  0  0  0  0  0  0  0  0  0  0
    0.1597   -1.3291   -1.4307 H   0  0  0  0  0  0  0  0  0  0  0  0
    0.5906    1.2859   -1.4523 H   0  0  0  0  0  0  0  0  0  0  0  0
  1  2  2  0
  2  3  1  0
  3  4  1  0
  4  5  1  0
  5  6  1  0
  6  7  1  0
  7  8  1  0
  8  9  1  0
  9  2  1  0
  8  3  1  0
  9  5  1  0
  3 10  1  0
  5 11  1  0
  7 12  1  0
  7 13  1  0
  8 14  1  0
  9 15  1  0
M  END
