
     RDKit          3D

 19 19  0  0  0  0  0  0  0  0999 V2000
   -1.4804    2.1423    1.3758 O   0  0  0  0  0  0  0  0  0  0  0  0
   -0.8317    1.5003    0.5085 C   0  0  0  0  0  0  0  0  0  0  0  0
   -1.6962    0.6194   -0.3222 C   0  0  0  0  0  0  0  0  0  0  0  0
   -1.5887   -0.8158    0.1653 C   0  0  0  0  0  0  0  0  0  0  0  0
   -0.3932   -1.4832   -0.4251 C   0  0  0  0  0  0  0  0  0  0  0  0
    0.9121   -1.2761   -0.3055 C   0  0  0  0  0  0  0  0  0  0  0  0
    1.7721   -0.3068    0.4533 C   0  0  0  0  0  0  0  0  0  0  0  0
    1.6427    1.0954   -0.1067 C   0  0  0  0  0  0  0  0  0  0  0  0
    0.5324    1.7550    0.5206 O   0  0  0  0  0  0  0  0  0  0  0  0
   -1.2716    0.6069   -1.3646 H   0  0  0  0  0  0  0  0  0  0  0  0
   -2.7219    0.9702   -0.4105 H   0  0  0  0  0  0  0  0  0  0  0  0
   -2.4904   -1.3925   -0.0519 H   0  0  0  0  0  0  0  0  0  0  0  0
   -1.4143   -0.8273    1.2810 H   0  0  0  0  0  0  0  0  0  0  0  0
   -0.6584   -2.2920   -1.0753 H   0  0  0  0  0  0  0  0  0  0  0  0
    1.4784   -1.9921   -0.9116 H   0  0  0  0  0  0  0  0  0  0  0  0
    2.8198   -0.6120    0.3753 H   0  0  0  0  0  0  0  0  0  0  0  0
    1.5004   -0.3437    1.5279 H   0  0  0  0  0  0  0  0  0  0  0  0
    1.3397    0.9703   -1.1760 H   0  0  0  0  0  0  0  0  0  0  0  0
    2.5489    1.6818   -0.0583 H   0  0  0  0  0  0  0  0  0  0  0  0
  1  2  2  0
  2  3  1  0
  3  4  1  0
  4  5  1  0
  5  6  2  3
  6  7  1  0
  7  8  1  0
  8  9  1  0
  9  2  1  0
  3 10  1  0
  3 11  1  0
  4 12  1  0
  4 13  1  0
  5 14  1  0
  6 15  1  0
  7 16  1  0
  7 17  1  0
  8 18  1  0
  8 19  1  0
M  END
