
     RDKit          3D

 21 22  0  0  0  0  0  0  0  0999 V2000
    0.1906    1.1870    2.1190 O   0  0  0  0  0  0  0  0  0  0  0  0
   -0.2328    0.9675    1.0105 C   0  0  0  0  0  0  0  0  0  0  0  0
   -1.6641    0.6348    0.8364 C   0  0  0  0  0  0  0  0  0  0  0  0
   -1.8882   -0.5209   -0.0660 C   0  0  0  0  0  0  0  0  0  0  0  0
   -0.6757   -1.1668   -0.6229 C   0  0  0  0  0  0  0  0  0  0  0  0
    0.5025   -0.3429   -0.8764 C   0  0  0  0  0  0  0  0  0  0  0  0
    1.7321   -0.7162   -0.0313 C   0  0  0  0  0  0  0  0  0  0  0  0
    2.0526    0.7672   -0.0300 C   0  0  0  0  0  0  0  0  0  0  0  0
    0.5612    0.9980   -0.2365 C   0  0  0  0  0  0  0  0  0  0  0  0
   -2.1427    1.5589    0.3931 H   0  0  0  0  0  0  0  0  0  0  0  0
   -2.1841    0.5215    1.8309 H   0  0  0  0  0  0  0  0  0  0  0  0
   -2.4398   -1.3054    0.5341 H   0  0  0  0  0  0  0  0  0  0  0  0
   -2.6088   -0.2445   -0.8742 H   0  0  0  0  0  0  0  0  0  0  0  0
   -0.3678   -2.0436    0.0216 H   0  0  0  0  0  0  0  0  0  0  0  0
   -0.9829   -1.6590   -1.5944 H   0  0  0  0  0  0  0  0  0  0  0  0
    0.8570   -0.2740   -1.9410 H   0  0  0  0  0  0  0  0  0  0  0  0
    1.4380   -1.0743    0.9821 H   0  0  0  0  0  0  0  0  0  0  0  0
    2.4560   -1.3529   -0.5564 H   0  0  0  0  0  0  0  0  0  0  0  0
    2.6034    1.0393   -0.9352 H   0  0  0  0  0  0  0  0  0  0  0  0
    2.4467    1.1560    0.9221 H   0  0  0  0  0  0  0  0  0  0  0  0
    0.3465    1.8704   -0.8858 H   0  0  0  0  0  0  0  0  0  0  0  0
  1  2  2  0
  2  3  1  0
  3  4  1  0
  4  5  1  0
  5  6  1  0
  6  7  1  0
  7  8  1  0
  8  9  1  0
  9  2  1  0
  9  6  1  0
  3 10  1  0
  3 11  1  0
  4 12  1  0
  4 13  1  0
  5 14  1  0
  5 15  1  0
  6 16  1  0
  7 17  1  0
  7 18  1  0
  8 19  1  0
  8 20  1  0
  9 21  1  0
M  END
