
     RDKit          3D

 14 15  0  0  0  0  0  0  0  0999 V2000
   -1.2611    2.3886    0.4358 O   0  0  0  0  0  0  0  0  0  0  0  0
   -0.7864    1.2211    0.3859 C   0  0  0  0  0  0  0  0  0  0  0  0
   -0.1846    0.5293    1.4626 O   0  0  0  0  0  0  0  0  0  0  0  0
    0.4813   -0.5503    0.8147 C   0  0  0  0  0  0  0  0  0  0  0  0
    1.3524    0.0775   -0.2371 C   0  0  0  0  0  0  0  0  0  0  0  0
    0.5209    0.3817   -1.3309 O   0  0  0  0  0  0  0  0  0  0  0  0
   -0.7551    0.3193   -0.8105 C   0  0  0  0  0  0  0  0  0  0  0  0
   -0.6789   -1.0345   -0.0779 C   0  0  0  0  0  0  0  0  0  0  0  0
    0.9040   -1.2914    1.4352 H   0  0  0  0  0  0  0  0  0  0  0  0
    2.2342   -0.4890   -0.5062 H   0  0  0  0  0  0  0  0  0  0  0  0
    1.7103    1.0770    0.1404 H   0  0  0  0  0  0  0  0  0  0  0  0
   -1.5705    0.4113   -1.4776 H   0  0  0  0  0  0  0  0  0  0  0  0
   -0.3772   -1.8419   -0.7390 H   0  0  0  0  0  0  0  0  0  0  0  0
   -1.5894   -1.1988    0.5046 H   0  0  0  0  0  0  0  0  0  0  0  0
  1  2  2  0
  2  3  1  0
  3  4  1  0
  4  5  1  0
  5  6  1  0
  6  7  1  0
  7  8  1  0
  7  2  1  0
  8  4  1  0
  4  9  1  0
  5 10  1  0
  5 11  1  0
  7 12  1  0
  8 13  1  0
  8 14  1  0
M  END
