
     RDKit          3D

 17 18  0  0  0  0  0  0  0  0999 V2000
   -1.7659    1.9090   -0.7222 O   0  0  0  0  0  0  0  0  0  0  0  0
   -0.9284    1.0835   -0.5134 C   0  0  0  0  0  0  0  0  0  0  0  0
   -1.1836   -0.3902   -0.6481 C   0  0  0  0  0  0  0  0  0  0  0  0
   -0.0177   -0.9875    0.1574 C   0  0  0  0  0  0  0  0  0  0  0  0
    1.2314   -0.6881   -0.6091 C   0  0  0  0  0  0  0  0  0  0  0  0
    1.3900    0.6532   -0.8132 O   0  0  0  0  0  0  0  0  0  0  0  0
    0.4613    1.4308   -0.0961 C   0  0  0  0  0  0  0  0  0  0  0  0
    0.6334    1.0681    1.2491 O   0  0  0  0  0  0  0  0  0  0  0  0
    0.0253   -0.1689    1.4485 C   0  0  0  0  0  0  0  0  0  0  0  0
   -1.0961   -0.6511   -1.7199 H   0  0  0  0  0  0  0  0  0  0  0  0
   -2.1155   -0.7021   -0.1764 H   0  0  0  0  0  0  0  0  0  0  0  0
   -0.1852   -2.0354    0.3674 H   0  0  0  0  0  0  0  0  0  0  0  0
    1.1795   -1.2157   -1.5973 H   0  0  0  0  0  0  0  0  0  0  0  0
    2.1251   -1.1375   -0.0918 H   0  0  0  0  0  0  0  0  0  0  0  0
    0.6696    2.4908   -0.2521 H   0  0  0  0  0  0  0  0  0  0  0  0
   -1.0278    0.0506    1.7927 H   0  0  0  0  0  0  0  0  0  0  0  0
    0.6046   -0.7096    2.2245 H   0  0  0  0  0  0  0  0  0  0  0  0
  1  2  2  0
  2  3  1  0
  3  4  1  0
  4  5  1  0
  5  6  1  0
  6  7  1  0
  7  8  1  0
  8  9  1  0
  7  2  1  0
  9  4  1  0
  3 10  1  0
  3 11  1  0
  4 12  1  0
  5 13  1  0
  5 14  1  0
  7 15  1  0
  9 16  1  0
  9 17  1  0
M  END
