
     RDKit          3D

 17 18  0  0  0  0  0  0  0  0999 V2000
    1.9310    2.6271    0.0435 O   0  0  0  0  0  0  0  0  0  0  0  0
    1.6094    1.4158   -0.0579 C   0  0  0  0  0  0  0  0  0  0  0  0
    2.5526    0.4043   -0.1912 O   0  0  0  0  0  0  0  0  0  0  0  0
    1.8800   -0.8351   -0.2811 C   0  0  0  0  0  0  0  0  0  0  0  0
    0.4308   -0.5126   -0.1925 C   0  0  0  0  0  0  0  0  0  0  0  0
    0.2843    0.7996   -0.0628 C   0  0  0  0  0  0  0  0  0  0  0  0
   -1.1599    1.1029    0.0237 C   0  0  0  0  0  0  0  0  0  0  0  0
   -1.6903   -0.1845    0.6493 C   0  0  0  0  0  0  0  0  0  0  0  0
   -0.8930   -1.1833   -0.2027 C   0  0  0  0  0  0  0  0  0  0  0  0
    2.2135   -1.4267    0.6218 H   0  0  0  0  0  0  0  0  0  0  0  0
    2.0976   -1.3658   -1.2163 H   0  0  0  0  0  0  0  0  0  0  0  0
   -1.3990    1.9869    0.6135 H   0  0  0  0  0  0  0  0  0  0  0  0
   -1.5513    1.1254   -1.0110 H   0  0  0  0  0  0  0  0  0  0  0  0
   -2.7562   -0.3200    0.4936 H   0  0  0  0  0  0  0  0  0  0  0  0
   -1.3543   -0.2937    1.6924 H   0  0  0  0  0  0  0  0  0  0  0  0
   -0.9132   -2.1362    0.3174 H   0  0  0  0  0  0  0  0  0  0  0  0
   -1.2820   -1.2041   -1.2398 H   0  0  0  0  0  0  0  0  0  0  0  0
  1  2  2  0
  2  3  1  0
  3  4  1  0
  4  5  1  0
  5  6  2  0
  6  7  1  0
  7  8  1  0
  8  9  1  0
  6  2  1  0
  9  5  1  0
  4 10  1  0
  4 11  1  0
  7 12  1  0
  7 13  1  0
  8 14  1  0
  8 15  1  0
  9 16  1  0
  9 17  1  0
M  END
