
     RDKit          3D

 19 19  0  0  0  0  0  0  0  0999 V2000
   -0.2824   -2.1632   -1.2354 O   0  0  0  0  0  0  0  0  0  0  0  0
   -0.3388   -1.3335   -0.3285 C   0  0  0  0  0  0  0  0  0  0  0  0
   -1.7279   -0.9196   -0.0204 C   0  0  0  0  0  0  0  0  0  0  0  0
   -1.6701    0.4469    0.3339 O   0  0  0  0  0  0  0  0  0  0  0  0
   -0.8170    1.0690   -0.5947 C   0  0  0  0  0  0  0  0  0  0  0  0
    0.4085    1.5004    0.1771 C   0  0  0  0  0  0  0  0  0  0  0  0
    0.9444    0.3591    0.9739 C   0  0  0  0  0  0  0  0  0  0  0  0
    0.9660   -0.9485    0.2334 C   0  0  0  0  0  0  0  0  0  0  0  0
    1.9099   -0.9952   -0.7698 O   0  0  0  0  0  0  0  0  0  0  0  0
   -2.4024   -1.0029   -0.9036 H   0  0  0  0  0  0  0  0  0  0  0  0
   -2.1875   -1.5262    0.7872 H   0  0  0  0  0  0  0  0  0  0  0  0
   -0.4851    0.3922   -1.3872 H   0  0  0  0  0  0  0  0  0  0  0  0
   -1.3947    1.9334   -0.9917 H   0  0  0  0  0  0  0  0  0  0  0  0
    0.0470    2.2775    0.9125 H   0  0  0  0  0  0  0  0  0  0  0  0
    1.1483    2.0151   -0.4512 H   0  0  0  0  0  0  0  0  0  0  0  0
    1.9701    0.5406    1.3501 H   0  0  0  0  0  0  0  0  0  0  0  0
    0.3063    0.2329    1.8770 H   0  0  0  0  0  0  0  0  0  0  0  0
    1.2457   -1.7369    0.9788 H   0  0  0  0  0  0  0  0  0  0  0  0
    2.3596   -0.1410   -0.9413 H   0  0  0  0  0  0  0  0  0  0  0  0
  1  2  2  0
  2  3  1  0
  3  4  1  0
  4  5  1  0
  5  6  1  0
  6  7  1  0
  7  8  1  0
  8  9  1  0
  8  2  1  0
  3 10  1  0
  3 11  1  0
  5 12  1  0
  5 13  1  0
  6 14  1  0
  6 15  1  0
  7 16  1  0
  7 17  1  0
  8 18  1  0
  9 19  1  0
M  END
