
     RDKit          3D

 17 19  0  0  0  0  0  0  0  0999 V2000
   -0.5570    1.3520   -1.7721 O   0  0  0  0  0  0  0  0  0  0  0  0
   -0.0345    0.7618   -0.8573 C   0  0  0  0  0  0  0  0  0  0  0  0
    1.4133    0.7310   -0.5381 C   0  0  0  0  0  0  0  0  0  0  0  0
    2.0993   -0.5788   -0.3992 C   0  0  0  0  0  0  0  0  0  0  0  0
    1.4495    0.0991    0.7982 C   0  0  0  0  0  0  0  0  0  0  0  0
    0.2140   -0.3909    1.1183 O   0  0  0  0  0  0  0  0  0  0  0  0
   -0.6921   -0.0641    0.1575 C   0  0  0  0  0  0  0  0  0  0  0  0
   -1.8331   -0.9014   -0.2372 C   0  0  0  0  0  0  0  0  0  0  0  0
   -2.0729    0.2883    0.6580 C   0  0  0  0  0  0  0  0  0  0  0  0
    2.0434    1.6095   -0.7688 H   0  0  0  0  0  0  0  0  0  0  0  0
    1.6629   -1.5123   -0.7922 H   0  0  0  0  0  0  0  0  0  0  0  0
    3.1979   -0.5643   -0.3636 H   0  0  0  0  0  0  0  0  0  0  0  0
    2.0894    0.5907    1.5498 H   0  0  0  0  0  0  0  0  0  0  0  0
   -2.1648   -0.7958   -1.2910 H   0  0  0  0  0  0  0  0  0  0  0  0
   -2.0222   -1.9093    0.1714 H   0  0  0  0  0  0  0  0  0  0  0  0
   -2.3380    0.0447    1.7093 H   0  0  0  0  0  0  0  0  0  0  0  0
   -2.4551    1.2400    0.2124 H   0  0  0  0  0  0  0  0  0  0  0  0
  1  2  2  0
  2  3  1  0
  3  4  1  0
  4  5  1  0
  5  6  1  0
  6  7  1  0
  7  8  1  0
  8  9  1  0
  7  2  1  0
  5  3  1  0
  9  7  1  0
  3 10  1  0
  4 11  1  0
  4 12  1  0
  5 13  1  0
  8 14  1  0
  8 15  1  0
  9 16  1  0
  9 17  1  0
M  END
