
     RDKit          3D

 10 10  0  0  0  0  0  0  0  0999 V2000
    2.1220    1.1306   -0.3820 O   0  0  0  0  0  0  0  0  0  0  0  0
    1.0052    0.5877   -0.2462 C   0  0  0  0  0  0  0  0  0  0  0  0
    0.6291   -0.8452   -0.1640 C   0  0  0  0  0  0  0  0  0  0  0  0
   -0.4979   -0.8220    0.6363 O   0  0  0  0  0  0  0  0  0  0  0  0
   -1.2014    0.3389    0.3179 C   0  0  0  0  0  0  0  0  0  0  0  0
   -0.2184    1.2767   -0.1348 O   0  0  0  0  0  0  0  0  0  0  0  0
    0.3331   -1.1778   -1.1604 H   0  0  0  0  0  0  0  0  0  0  0  0
    1.4532   -1.4244    0.2864 H   0  0  0  0  0  0  0  0  0  0  0  0
   -1.6401    0.7490    1.2717 H   0  0  0  0  0  0  0  0  0  0  0  0
   -1.9847    0.1864   -0.4250 H   0  0  0  0  0  0  0  0  0  0  0  0
  1  2  2  0
  2  3  1  0
  3  4  1  0
  4  5  1  0
  5  6  1  0
  6  2  1  0
  3  7  1  0
  3  8  1  0
  5  9  1  0
  5 10  1  0
M  END
