
     RDKit          3D

 17 18  0  0  0  0  0  0  0  0999 V2000
   -3.4230    1.2145   -0.4793 O   0  0  0  0  0  0  0  0  0  0  0  0
   -2.3419    0.7098   -0.1530 C   0  0  0  0  0  0  0  0  0  0  0  0
   -1.3701    1.0341    0.7649 O   0  0  0  0  0  0  0  0  0  0  0  0
   -0.4257    0.4958   -0.1763 C   0  0  0  0  0  0  0  0  0  0  0  0
    0.7596   -0.0901    0.5098 C   0  0  0  0  0  0  0  0  0  0  0  0
    1.8656   -0.7031   -0.2312 C   0  0  0  0  0  0  0  0  0  0  0  0
    2.0544    0.6922    0.2606 C   0  0  0  0  0  0  0  0  0  0  0  0
   -1.5345   -0.4548   -0.5416 C   0  0  0  0  0  0  0  0  0  0  0  0
   -1.6480   -1.5731    0.2667 O   0  0  0  0  0  0  0  0  0  0  0  0
   -0.2503    1.2372   -0.9554 H   0  0  0  0  0  0  0  0  0  0  0  0
    0.5971   -0.4623    1.5494 H   0  0  0  0  0  0  0  0  0  0  0  0
    2.4640   -1.5073    0.2444 H   0  0  0  0  0  0  0  0  0  0  0  0
    1.6979   -0.8519   -1.3238 H   0  0  0  0  0  0  0  0  0  0  0  0
    2.0559    1.4743   -0.5138 H   0  0  0  0  0  0  0  0  0  0  0  0
    2.6409    0.9075    1.1555 H   0  0  0  0  0  0  0  0  0  0  0  0
   -1.5753   -0.7578   -1.6047 H   0  0  0  0  0  0  0  0  0  0  0  0
   -1.5666   -1.3651    1.2277 H   0  0  0  0  0  0  0  0  0  0  0  0
  1  2  2  0
  2  3  1  0
  3  4  1  0
  4  5  1  0
  5  6  1  0
  6  7  1  0
  4  8  1  0
  8  9  1  0
  8  2  1  0
  7  5  1  0
  4 10  1  0
  5 11  1  0
  6 12  1  0
  6 13  1  0
  7 14  1  0
  7 15  1  0
  8 16  1  0
  9 17  1  0
M  END
