
     RDKit          3D

 14 15  0  0  0  0  0  0  0  0999 V2000
    2.4262   -0.9801    0.5987 O   0  0  0  0  0  0  0  0  0  0  0  0
    1.4119   -0.3947    0.3356 C   0  0  0  0  0  0  0  0  0  0  0  0
    1.0844    1.0607    0.3114 C   0  0  0  0  0  0  0  0  0  0  0  0
    0.3335    1.1464   -0.8647 O   0  0  0  0  0  0  0  0  0  0  0  0
   -0.5092    0.0611   -0.8890 C   0  0  0  0  0  0  0  0  0  0  0  0
   -1.5562   -0.0247    0.1694 C   0  0  0  0  0  0  0  0  0  0  0  0
   -0.8026   -0.8773    0.9583 O   0  0  0  0  0  0  0  0  0  0  0  0
    0.1260   -1.0331   -0.0642 C   0  0  0  0  0  0  0  0  0  0  0  0
    2.0049    1.6320    0.2855 H   0  0  0  0  0  0  0  0  0  0  0  0
    0.4094    1.3354    1.1665 H   0  0  0  0  0  0  0  0  0  0  0  0
   -0.8172   -0.2503   -1.9095 H   0  0  0  0  0  0  0  0  0  0  0  0
   -2.4451   -0.5975   -0.2224 H   0  0  0  0  0  0  0  0  0  0  0  0
   -1.8573    0.9366    0.6457 H   0  0  0  0  0  0  0  0  0  0  0  0
    0.1913   -2.0147   -0.5213 H   0  0  0  0  0  0  0  0  0  0  0  0
  1  2  2  0
  2  3  1  0
  3  4  1  0
  4  5  1  0
  5  6  1  0
  6  7  1  0
  7  8  1  0
  8  2  1  0
  8  5  1  0
  3  9  1  0
  3 10  1  0
  5 11  1  0
  6 12  1  0
  6 13  1  0
  8 14  1  0
M  END
