
     RDKit          3D

 15 15  0  0  0  0  0  0  0  0999 V2000
    2.8280    0.0781    0.1617 O   0  0  0  0  0  0  0  0  0  0  0  0
    1.5969    0.0539   -0.0260 C   0  0  0  0  0  0  0  0  0  0  0  0
    0.9410    1.3609   -0.1516 C   0  0  0  0  0  0  0  0  0  0  0  0
   -0.3714    1.5412   -0.1335 C   0  0  0  0  0  0  0  0  0  0  0  0
   -1.4750    0.5392    0.0092 C   0  0  0  0  0  0  0  0  0  0  0  0
   -1.1983   -0.6508   -0.6186 O   0  0  0  0  0  0  0  0  0  0  0  0
   -0.4600   -1.5389    0.1375 C   0  0  0  0  0  0  0  0  0  0  0  0
    1.0040   -1.2860   -0.0907 C   0  0  0  0  0  0  0  0  0  0  0  0
    1.7477   -2.2427   -0.3444 O   0  0  0  0  0  0  0  0  0  0  0  0
    1.5570    2.2331   -0.2658 H   0  0  0  0  0  0  0  0  0  0  0  0
   -0.6668    2.5724   -0.2390 H   0  0  0  0  0  0  0  0  0  0  0  0
   -2.3543    0.9974   -0.5331 H   0  0  0  0  0  0  0  0  0  0  0  0
   -1.7892    0.4254    1.0619 H   0  0  0  0  0  0  0  0  0  0  0  0
   -0.7091   -1.5030    1.2195 H   0  0  0  0  0  0  0  0  0  0  0  0
   -0.6506   -2.5802   -0.1871 H   0  0  0  0  0  0  0  0  0  0  0  0
  1  2  2  0
  2  3  1  0
  3  4  2  0
  4  5  1  0
  5  6  1  0
  6  7  1  0
  7  8  1  0
  8  9  2  0
  8  2  1  0
  3 10  1  0
  4 11  1  0
  5 12  1  0
  5 13  1  0
  7 14  1  0
  7 15  1  0
M  END
