
     RDKit          3D

 19 20  0  0  0  0  0  0  0  0999 V2000
    0.9981    1.4888   -1.8034 O   0  0  0  0  0  0  0  0  0  0  0  0
    0.9880    0.7138   -0.8721 C   0  0  0  0  0  0  0  0  0  0  0  0
    2.2109    0.2654   -0.1506 C   0  0  0  0  0  0  0  0  0  0  0  0
    1.7937   -0.9553    0.5937 C   0  0  0  0  0  0  0  0  0  0  0  0
    0.4787   -1.0637    0.5419 C   0  0  0  0  0  0  0  0  0  0  0  0
   -0.1046    0.0332   -0.2152 C   0  0  0  0  0  0  0  0  0  0  0  0
   -1.3441   -0.2603   -1.0044 C   0  0  0  0  0  0  0  0  0  0  0  0
   -2.0974   -0.0870    0.3187 C   0  0  0  0  0  0  0  0  0  0  0  0
   -0.9938    0.9056    0.6801 C   0  0  0  0  0  0  0  0  0  0  0  0
    2.4952    1.0950    0.5305 H   0  0  0  0  0  0  0  0  0  0  0  0
    3.0298   -0.0295   -0.8285 H   0  0  0  0  0  0  0  0  0  0  0  0
    2.5091   -1.6358    1.0959 H   0  0  0  0  0  0  0  0  0  0  0  0
   -0.0795   -1.8869    1.0181 H   0  0  0  0  0  0  0  0  0  0  0  0
   -1.4749   -1.2722   -1.3759 H   0  0  0  0  0  0  0  0  0  0  0  0
   -1.5909    0.5792   -1.6681 H   0  0  0  0  0  0  0  0  0  0  0  0
   -3.0983    0.3367    0.2294 H   0  0  0  0  0  0  0  0  0  0  0  0
   -1.9791   -0.9857    0.9504 H   0  0  0  0  0  0  0  0  0  0  0  0
   -0.6399    0.8557    1.7134 H   0  0  0  0  0  0  0  0  0  0  0  0
   -1.1011    1.9029    0.2463 H   0  0  0  0  0  0  0  0  0  0  0  0
  1  2  2  0
  2  3  1  0
  3  4  1  0
  4  5  2  0
  5  6  1  0
  6  7  1  0
  7  8  1  0
  8  9  1  0
  6  2  1  0
  9  6  1  0
  3 10  1  0
  3 11  1  0
  4 12  1  0
  5 13  1  0
  7 14  1  0
  7 15  1  0
  8 16  1  0
  8 17  1  0
  9 18  1  0
  9 19  1  0
M  END
