
     RDKit          3D

 17 19  0  0  0  0  0  0  0  0999 V2000
    0.5729    2.3114    1.2147 O   0  0  0  0  0  0  0  0  0  0  0  0
    0.4425    1.2160    0.7274 C   0  0  0  0  0  0  0  0  0  0  0  0
   -0.8931    0.6227    0.6206 C   0  0  0  0  0  0  0  0  0  0  0  0
   -1.1155    0.3687   -0.8806 C   0  0  0  0  0  0  0  0  0  0  0  0
   -0.2627   -0.8713   -0.6822 C   0  0  0  0  0  0  0  0  0  0  0  0
   -0.8251   -0.9050    0.7404 C   0  0  0  0  0  0  0  0  0  0  0  0
    1.2004   -0.5892   -0.6395 C   0  0  0  0  0  0  0  0  0  0  0  0
    1.8560   -0.8214    0.6712 O   0  0  0  0  0  0  0  0  0  0  0  0
    1.6305    0.4858    0.2440 C   0  0  0  0  0  0  0  0  0  0  0  0
   -1.7207    1.0953    1.1361 H   0  0  0  0  0  0  0  0  0  0  0  0
   -0.6894    1.1476   -1.5175 H   0  0  0  0  0  0  0  0  0  0  0  0
   -2.1444    0.1062   -1.1275 H   0  0  0  0  0  0  0  0  0  0  0  0
   -0.5174   -1.7308   -1.3003 H   0  0  0  0  0  0  0  0  0  0  0  0
   -0.1317   -1.2699    1.4955 H   0  0  0  0  0  0  0  0  0  0  0  0
   -1.8142   -1.3541    0.7971 H   0  0  0  0  0  0  0  0  0  0  0  0
    1.8465   -0.8363   -1.4968 H   0  0  0  0  0  0  0  0  0  0  0  0
    2.5652    1.0244   -0.0026 H   0  0  0  0  0  0  0  0  0  0  0  0
  1  2  2  0
  2  3  1  0
  3  4  1  0
  4  5  1  0
  5  6  1  0
  5  7  1  0
  7  8  1  0
  8  9  1  0
  9  2  1  0
  6  3  1  0
  9  7  1  0
  3 10  1  0
  4 11  1  0
  4 12  1  0
  5 13  1  0
  6 14  1  0
  6 15  1  0
  7 16  1  0
  9 17  1  0
M  END
