
     RDKit          3D

 15 16  0  0  0  0  0  0  0  0999 V2000
    3.3907    0.2943   -0.5789 O   0  0  0  0  0  0  0  0  0  0  0  0
    2.2408    0.0617   -0.1301 C   0  0  0  0  0  0  0  0  0  0  0  0
    1.5656    0.8740    0.7621 O   0  0  0  0  0  0  0  0  0  0  0  0
    0.2454    0.3898    0.9415 C   0  0  0  0  0  0  0  0  0  0  0  0
   -0.7812    0.9537    0.0090 C   0  0  0  0  0  0  0  0  0  0  0  0
   -0.7984   -0.3481   -0.7522 C   0  0  0  0  0  0  0  0  0  0  0  0
   -1.9760   -1.0746   -0.6661 O   0  0  0  0  0  0  0  0  0  0  0  0
    0.2361   -0.8953    0.1809 C   0  0  0  0  0  0  0  0  0  0  0  0
    1.4844   -1.0347   -0.4597 O   0  0  0  0  0  0  0  0  0  0  0  0
   -0.1081    0.3489    1.9887 H   0  0  0  0  0  0  0  0  0  0  0  0
   -0.4276    1.8353   -0.5455 H   0  0  0  0  0  0  0  0  0  0  0  0
   -1.7829    1.1409    0.4828 H   0  0  0  0  0  0  0  0  0  0  0  0
   -0.5039   -0.2314   -1.8082 H   0  0  0  0  0  0  0  0  0  0  0  0
   -2.7509   -0.5166   -0.8428 H   0  0  0  0  0  0  0  0  0  0  0  0
   -0.0341   -1.7981    0.7434 H   0  0  0  0  0  0  0  0  0  0  0  0
  1  2  2  0
  2  3  1  0
  3  4  1  0
  4  5  1  0
  5  6  1  0
  6  7  1  0
  6  8  1  0
  8  9  1  0
  9  2  1  0
  8  4  1  0
  4 10  1  0
  5 11  1  0
  5 12  1  0
  6 13  1  0
  7 14  1  0
  8 15  1  0
M  END
