
     RDKit          3D

 19 20  0  0  0  0  0  0  0  0999 V2000
    2.8536    1.3443   -0.0552 O   0  0  0  0  0  0  0  0  0  0  0  0
    1.6835    0.8397    0.0028 C   0  0  0  0  0  0  0  0  0  0  0  0
    1.5505   -0.4718    0.6476 C   0  0  0  0  0  0  0  0  0  0  0  0
    0.5600   -1.3816   -0.0556 C   0  0  0  0  0  0  0  0  0  0  0  0
   -0.5755   -0.6531   -0.6756 C   0  0  0  0  0  0  0  0  0  0  0  0
   -1.9402   -0.6287   -0.1760 C   0  0  0  0  0  0  0  0  0  0  0  0
   -1.0614    0.3834    0.3639 C   0  0  0  0  0  0  0  0  0  0  0  0
   -0.7230    1.6974   -0.2301 C   0  0  0  0  0  0  0  0  0  0  0  0
    0.6740    1.6332   -0.5724 O   0  0  0  0  0  0  0  0  0  0  0  0
    2.5485   -0.9577    0.6257 H   0  0  0  0  0  0  0  0  0  0  0  0
    1.2961   -0.3906    1.7436 H   0  0  0  0  0  0  0  0  0  0  0  0
    1.1327   -1.9099   -0.8465 H   0  0  0  0  0  0  0  0  0  0  0  0
    0.1940   -2.1325    0.6485 H   0  0  0  0  0  0  0  0  0  0  0  0
   -0.4084   -0.3300   -1.7114 H   0  0  0  0  0  0  0  0  0  0  0  0
   -2.7414   -0.3070   -0.8668 H   0  0  0  0  0  0  0  0  0  0  0  0
   -2.2565   -1.4450    0.4920 H   0  0  0  0  0  0  0  0  0  0  0  0
   -0.7049    0.2568    1.4108 H   0  0  0  0  0  0  0  0  0  0  0  0
   -1.2581    1.9000   -1.1954 H   0  0  0  0  0  0  0  0  0  0  0  0
   -0.8236    2.5530    0.4502 H   0  0  0  0  0  0  0  0  0  0  0  0
  1  2  2  0
  2  3  1  0
  3  4  1  0
  4  5  1  0
  5  6  1  0
  6  7  1  0
  7  8  1  0
  8  9  1  0
  9  2  1  0
  7  5  1  0
  3 10  1  0
  3 11  1  0
  4 12  1  0
  4 13  1  0
  5 14  1  0
  6 15  1  0
  6 16  1  0
  7 17  1  0
  8 18  1  0
  8 19  1  0
M  END
