
     RDKit          3D

 17 18  0  0  0  0  0  0  0  0999 V2000
   -0.9905   -0.9363    2.2904 O   0  0  0  0  0  0  0  0  0  0  0  0
   -0.8572   -0.5361    1.1311 C   0  0  0  0  0  0  0  0  0  0  0  0
   -1.1927    0.6598    0.3247 C   0  0  0  0  0  0  0  0  0  0  0  0
    0.0454    1.5052    0.2291 C   0  0  0  0  0  0  0  0  0  0  0  0
    1.0587    0.9284   -0.4204 C   0  0  0  0  0  0  0  0  0  0  0  0
    1.1353   -0.5752   -0.3562 C   0  0  0  0  0  0  0  0  0  0  0  0
    2.0430   -0.9132    0.6212 O   0  0  0  0  0  0  0  0  0  0  0  0
   -0.2439   -1.1239   -0.0969 C   0  0  0  0  0  0  0  0  0  0  0  0
   -1.2151   -0.2461   -0.8955 C   0  0  0  0  0  0  0  0  0  0  0  0
   -2.1111    1.1843    0.5573 H   0  0  0  0  0  0  0  0  0  0  0  0
    0.1000    2.5013    0.6566 H   0  0  0  0  0  0  0  0  0  0  0  0
    1.8057    1.5039   -0.9770 H   0  0  0  0  0  0  0  0  0  0  0  0
    1.4793   -1.0057   -1.3168 H   0  0  0  0  0  0  0  0  0  0  0  0
    2.1875   -0.2337    1.3080 H   0  0  0  0  0  0  0  0  0  0  0  0
   -0.3627   -2.1943   -0.2347 H   0  0  0  0  0  0  0  0  0  0  0  0
   -0.7408    0.2649   -1.7399 H   0  0  0  0  0  0  0  0  0  0  0  0
   -2.1409   -0.7833   -1.0811 H   0  0  0  0  0  0  0  0  0  0  0  0
  1  2  2  0
  2  3  1  0
  3  4  1  0
  4  5  2  0
  5  6  1  0
  6  7  1  0
  6  8  1  0
  8  9  1  0
  8  2  1  0
  9  3  1  0
  3 10  1  0
  4 11  1  0
  5 12  1  0
  6 13  1  0
  7 14  1  0
  8 15  1  0
  9 16  1  0
  9 17  1  0
M  END
