
     RDKit          3D

 15 16  0  0  0  0  0  0  0  0999 V2000
    2.2576   -0.8058    1.3207 O   0  0  0  0  0  0  0  0  0  0  0  0
    1.1710   -0.6684    0.7036 C   0  0  0  0  0  0  0  0  0  0  0  0
    0.0416   -1.5270    0.7587 O   0  0  0  0  0  0  0  0  0  0  0  0
   -0.8765   -0.8632   -0.0856 C   0  0  0  0  0  0  0  0  0  0  0  0
    0.0068   -0.5166   -1.2850 C   0  0  0  0  0  0  0  0  0  0  0  0
    0.7069    0.3580   -0.2331 C   0  0  0  0  0  0  0  0  0  0  0  0
    1.4679    1.3546   -0.6327 O   0  0  0  0  0  0  0  0  0  0  0  0
   -0.7073    0.6228    0.2616 C   0  0  0  0  0  0  0  0  0  0  0  0
   -0.8356    0.8508    1.6064 O   0  0  0  0  0  0  0  0  0  0  0  0
   -1.8426   -1.2381   -0.2504 H   0  0  0  0  0  0  0  0  0  0  0  0
    0.6267   -1.3348   -1.6558 H   0  0  0  0  0  0  0  0  0  0  0  0
   -0.5889    0.0515   -2.0110 H   0  0  0  0  0  0  0  0  0  0  0  0
    1.5168    2.0817    0.0135 H   0  0  0  0  0  0  0  0  0  0  0  0
   -1.2795    1.2400   -0.4304 H   0  0  0  0  0  0  0  0  0  0  0  0
   -1.6649    0.3947    1.9196 H   0  0  0  0  0  0  0  0  0  0  0  0
  1  2  2  0
  2  3  1  0
  3  4  1  0
  4  5  1  0
  5  6  1  0
  6  7  1  0
  6  8  1  0
  8  9  1  0
  6  2  1  0
  8  4  1  0
  4 10  1  0
  5 11  1  0
  5 12  1  0
  7 13  1  0
  8 14  1  0
  9 15  1  0
M  END
