
     RDKit          3D

 15 17  0  0  0  0  0  0  0  0999 V2000
   -1.9625   -1.0490   -1.8348 O   0  0  0  0  0  0  0  0  0  0  0  0
   -1.2879   -0.6486   -0.9069 C   0  0  0  0  0  0  0  0  0  0  0  0
   -1.2519   -0.7299    0.5729 C   0  0  0  0  0  0  0  0  0  0  0  0
   -0.2754    0.3868    0.6731 C   0  0  0  0  0  0  0  0  0  0  0  0
   -0.3025    1.5561   -0.2203 C   0  0  0  0  0  0  0  0  0  0  0  0
   -0.0725    0.1887   -0.8520 C   0  0  0  0  0  0  0  0  0  0  0  0
    1.1773   -0.3325   -0.9475 O   0  0  0  0  0  0  0  0  0  0  0  0
    1.7934   -0.3446    0.2613 C   0  0  0  0  0  0  0  0  0  0  0  0
    0.9437    0.0630    1.2425 O   0  0  0  0  0  0  0  0  0  0  0  0
   -2.2131   -0.6046    1.0894 H   0  0  0  0  0  0  0  0  0  0  0  0
   -0.8341   -1.7379    0.8606 H   0  0  0  0  0  0  0  0  0  0  0  0
   -1.2182    2.0865   -0.5101 H   0  0  0  0  0  0  0  0  0  0  0  0
    0.6065    2.1868   -0.2709 H   0  0  0  0  0  0  0  0  0  0  0  0
    2.6959    0.3313    0.2909 H   0  0  0  0  0  0  0  0  0  0  0  0
    2.2015   -1.3520    0.5515 H   0  0  0  0  0  0  0  0  0  0  0  0
  1  2  2  0
  2  3  1  0
  3  4  1  0
  4  5  1  0
  5  6  1  0
  6  7  1  0
  7  8  1  0
  8  9  1  0
  6  2  1  0
  6  4  1  0
  9  4  1  0
  3 10  1  0
  3 11  1  0
  5 12  1  0
  5 13  1  0
  8 14  1  0
  8 15  1  0
M  END
