
     RDKit          3D

 17 18  0  0  0  0  0  0  0  0999 V2000
    2.6172   -1.6185   -0.9113 O   0  0  0  0  0  0  0  0  0  0  0  0
    1.8198   -0.8693   -0.4057 C   0  0  0  0  0  0  0  0  0  0  0  0
    2.1203    0.5010    0.0662 C   0  0  0  0  0  0  0  0  0  0  0  0
    0.8032    1.0839    0.4721 C   0  0  0  0  0  0  0  0  0  0  0  0
   -0.1595    0.1773    0.3574 C   0  0  0  0  0  0  0  0  0  0  0  0
   -1.6007    0.3749    0.6656 C   0  0  0  0  0  0  0  0  0  0  0  0
   -2.5079    0.1455   -0.5318 C   0  0  0  0  0  0  0  0  0  0  0  0
   -2.3100    1.3865    0.0645 O   0  0  0  0  0  0  0  0  0  0  0  0
    0.3826   -1.1181   -0.1356 C   0  0  0  0  0  0  0  0  0  0  0  0
    2.8285    0.4238    0.8996 H   0  0  0  0  0  0  0  0  0  0  0  0
    2.5944    1.1284   -0.7295 H   0  0  0  0  0  0  0  0  0  0  0  0
    0.7305    2.1207    0.8047 H   0  0  0  0  0  0  0  0  0  0  0  0
   -1.9442   -0.0365    1.6438 H   0  0  0  0  0  0  0  0  0  0  0  0
   -2.0427    0.0397   -1.5381 H   0  0  0  0  0  0  0  0  0  0  0  0
   -3.4108   -0.4395   -0.3243 H   0  0  0  0  0  0  0  0  0  0  0  0
   -0.1379   -1.4395   -1.0749 H   0  0  0  0  0  0  0  0  0  0  0  0
    0.2172   -1.8602    0.6773 H   0  0  0  0  0  0  0  0  0  0  0  0
  1  2  2  0
  2  3  1  0
  3  4  1  0
  4  5  2  0
  5  6  1  0
  6  7  1  0
  7  8  1  0
  5  9  1  0
  9  2  1  0
  8  6  1  0
  3 10  1  0
  3 11  1  0
  4 12  1  0
  6 13  1  0
  7 14  1  0
  7 15  1  0
  9 16  1  0
  9 17  1  0
M  END
