
     RDKit          3D

 17 18  0  0  0  0  0  0  0  0999 V2000
   -0.9282   -1.4891   -2.1838 O   0  0  0  0  0  0  0  0  0  0  0  0
   -0.4060   -1.1608   -1.0670 C   0  0  0  0  0  0  0  0  0  0  0  0
    0.9389   -1.3768   -0.7174 O   0  0  0  0  0  0  0  0  0  0  0  0
    1.2020   -0.4422    0.3180 C   0  0  0  0  0  0  0  0  0  0  0  0
    1.2090    0.9201   -0.2768 C   0  0  0  0  0  0  0  0  0  0  0  0
    0.0514    1.3589   -0.8216 O   0  0  0  0  0  0  0  0  0  0  0  0
   -1.1154    0.9877   -0.2360 C   0  0  0  0  0  0  0  0  0  0  0  0
   -1.0884   -0.4978    0.0728 C   0  0  0  0  0  0  0  0  0  0  0  0
   -0.0408   -0.6317    1.1820 C   0  0  0  0  0  0  0  0  0  0  0  0
    2.1288   -0.6316    0.8485 H   0  0  0  0  0  0  0  0  0  0  0  0
    1.9879    0.9124   -1.0967 H   0  0  0  0  0  0  0  0  0  0  0  0
    1.5999    1.6606    0.4794 H   0  0  0  0  0  0  0  0  0  0  0  0
   -1.4181    1.5865    0.6250 H   0  0  0  0  0  0  0  0  0  0  0  0
   -1.9359    1.1114   -1.0017 H   0  0  0  0  0  0  0  0  0  0  0  0
   -2.0458   -0.9172    0.3347 H   0  0  0  0  0  0  0  0  0  0  0  0
   -0.0693    0.2180    1.8776 H   0  0  0  0  0  0  0  0  0  0  0  0
   -0.0701   -1.6082    1.6632 H   0  0  0  0  0  0  0  0  0  0  0  0
  1  2  2  0
  2  3  1  0
  3  4  1  0
  4  5  1  0
  5  6  1  0
  6  7  1  0
  7  8  1  0
  8  9  1  0
  8  2  1  0
  9  4  1  0
  4 10  1  0
  5 11  1  0
  5 12  1  0
  7 13  1  0
  7 14  1  0
  8 15  1  0
  9 16  1  0
  9 17  1  0
M  END
