
     RDKit          3D

 17 19  0  0  0  0  0  0  0  0999 V2000
    0.0962   -0.7173    2.4242 O   0  0  0  0  0  0  0  0  0  0  0  0
    0.3499   -0.4285    1.2694 C   0  0  0  0  0  0  0  0  0  0  0  0
    1.6021   -0.1727    0.5239 C   0  0  0  0  0  0  0  0  0  0  0  0
    1.7637    1.0168   -0.3374 C   0  0  0  0  0  0  0  0  0  0  0  0
    0.7861   -0.0617   -0.7821 C   0  0  0  0  0  0  0  0  0  0  0  0
   -0.4169   -0.1943    0.0707 C   0  0  0  0  0  0  0  0  0  0  0  0
   -1.4932   -1.1127   -0.3286 C   0  0  0  0  0  0  0  0  0  0  0  0
   -2.2396    0.0137   -0.7515 O   0  0  0  0  0  0  0  0  0  0  0  0
   -1.4378    0.8721    0.0351 C   0  0  0  0  0  0  0  0  0  0  0  0
    2.4236   -0.9027    0.5551 H   0  0  0  0  0  0  0  0  0  0  0  0
    1.2212    1.9772   -0.0939 H   0  0  0  0  0  0  0  0  0  0  0  0
    2.6755    1.0787   -0.9255 H   0  0  0  0  0  0  0  0  0  0  0  0
    1.0759   -0.7907   -1.5354 H   0  0  0  0  0  0  0  0  0  0  0  0
   -2.0709   -1.5716    0.5238 H   0  0  0  0  0  0  0  0  0  0  0  0
   -1.2912   -1.8442   -1.1237 H   0  0  0  0  0  0  0  0  0  0  0  0
   -1.9286    1.0399    0.9952 H   0  0  0  0  0  0  0  0  0  0  0  0
   -1.1161    1.7979   -0.5193 H   0  0  0  0  0  0  0  0  0  0  0  0
  1  2  2  0
  2  3  1  0
  3  4  1  0
  4  5  1  0
  5  6  1  0
  6  7  1  0
  7  8  1  0
  8  9  1  0
  6  2  1  0
  5  3  1  0
  9  6  1  0
  3 10  1  0
  4 11  1  0
  4 12  1  0
  5 13  1  0
  7 14  1  0
  7 15  1  0
  9 16  1  0
  9 17  1  0
M  END
