
     RDKit          3D

 17 19  0  0  0  0  0  0  0  0999 V2000
   -2.0264    0.9484   -1.6127 O   0  0  0  0  0  0  0  0  0  0  0  0
   -1.3197    0.2938   -0.8928 C   0  0  0  0  0  0  0  0  0  0  0  0
   -0.8679   -1.1282   -0.9661 C   0  0  0  0  0  0  0  0  0  0  0  0
    0.1372   -0.7972    0.1212 C   0  0  0  0  0  0  0  0  0  0  0  0
    1.5050   -0.3342   -0.2546 C   0  0  0  0  0  0  0  0  0  0  0  0
    1.7106    0.9107    0.2757 O   0  0  0  0  0  0  0  0  0  0  0  0
    0.5208    1.5847    0.3363 C   0  0  0  0  0  0  0  0  0  0  0  0
   -0.5835    0.5445    0.3532 C   0  0  0  0  0  0  0  0  0  0  0  0
   -0.4832   -0.4749    1.4269 C   0  0  0  0  0  0  0  0  0  0  0  0
   -1.6622   -1.7691   -0.5323 H   0  0  0  0  0  0  0  0  0  0  0  0
   -0.4328   -1.4488   -1.9110 H   0  0  0  0  0  0  0  0  0  0  0  0
    1.5894   -0.3533   -1.3566 H   0  0  0  0  0  0  0  0  0  0  0  0
    2.2555   -1.0673    0.1479 H   0  0  0  0  0  0  0  0  0  0  0  0
    0.4546    2.1032    1.3371 H   0  0  0  0  0  0  0  0  0  0  0  0
    0.3755    2.3590   -0.4251 H   0  0  0  0  0  0  0  0  0  0  0  0
   -1.3615   -1.1007    1.6991 H   0  0  0  0  0  0  0  0  0  0  0  0
    0.1886   -0.2706    2.2537 H   0  0  0  0  0  0  0  0  0  0  0  0
  1  2  2  0
  2  3  1  0
  3  4  1  0
  4  5  1  0
  5  6  1  0
  6  7  1  0
  7  8  1  0
  8  9  1  0
  8  2  1  0
  8  4  1  0
  9  4  1  0
  3 10  1  0
  3 11  1  0
  5 12  1  0
  5 13  1  0
  7 14  1  0
  7 15  1  0
  9 16  1  0
  9 17  1  0
M  END
