
     RDKit          3D

 17 18  0  0  0  0  0  0  0  0999 V2000
    3.1093   -0.8715    0.8530 O   0  0  0  0  0  0  0  0  0  0  0  0
    1.9729   -0.5022    0.4188 C   0  0  0  0  0  0  0  0  0  0  0  0
    1.8581    0.8119   -0.1773 C   0  0  0  0  0  0  0  0  0  0  0  0
    0.6939    1.2283   -0.6393 C   0  0  0  0  0  0  0  0  0  0  0  0
   -0.5158    0.4168   -0.5819 C   0  0  0  0  0  0  0  0  0  0  0  0
   -1.2146    0.5056    0.7531 C   0  0  0  0  0  0  0  0  0  0  0  0
   -1.5756   -0.9729    0.5335 C   0  0  0  0  0  0  0  0  0  0  0  0
   -0.2741   -1.0310   -0.2793 C   0  0  0  0  0  0  0  0  0  0  0  0
    0.8572   -1.3057    0.4970 O   0  0  0  0  0  0  0  0  0  0  0  0
    2.7022    1.4973   -0.2694 H   0  0  0  0  0  0  0  0  0  0  0  0
    0.6250    2.2184   -1.0837 H   0  0  0  0  0  0  0  0  0  0  0  0
   -1.1847    0.5046   -1.4632 H   0  0  0  0  0  0  0  0  0  0  0  0
   -2.1164    1.1381    0.7797 H   0  0  0  0  0  0  0  0  0  0  0  0
   -0.5047    0.6506    1.5762 H   0  0  0  0  0  0  0  0  0  0  0  0
   -1.5709   -1.5498    1.4534 H   0  0  0  0  0  0  0  0  0  0  0  0
   -2.4343   -1.0360   -0.1310 H   0  0  0  0  0  0  0  0  0  0  0  0
   -0.4276   -1.7023   -1.1468 H   0  0  0  0  0  0  0  0  0  0  0  0
  1  2  2  0
  2  3  1  0
  3  4  2  0
  4  5  1  0
  5  6  1  0
  6  7  1  0
  7  8  1  0
  8  9  1  0
  9  2  1  0
  8  5  1  0
  3 10  1  0
  4 11  1  0
  5 12  1  0
  6 13  1  0
  6 14  1  0
  7 15  1  0
  7 16  1  0
  8 17  1  0
M  END
