
     RDKit          3D

 15 16  0  0  0  0  0  0  0  0999 V2000
   -1.8801   -2.0614    0.3814 O   0  0  0  0  0  0  0  0  0  0  0  0
   -0.8938   -1.3688    0.4429 C   0  0  0  0  0  0  0  0  0  0  0  0
    0.5293   -1.2533    0.1546 C   0  0  0  0  0  0  0  0  0  0  0  0
    0.6181   -0.4620    1.3263 O   0  0  0  0  0  0  0  0  0  0  0  0
   -0.6466   -0.0013    0.9680 C   0  0  0  0  0  0  0  0  0  0  0  0
   -0.4315    0.7694   -0.3346 C   0  0  0  0  0  0  0  0  0  0  0  0
    0.0585    2.0297   -0.1326 O   0  0  0  0  0  0  0  0  0  0  0  0
    0.6535   -0.1656   -0.8980 C   0  0  0  0  0  0  0  0  0  0  0  0
    1.8633    0.4591   -0.6964 O   0  0  0  0  0  0  0  0  0  0  0  0
    1.1615   -2.1037    0.0890 H   0  0  0  0  0  0  0  0  0  0  0  0
   -1.2899    0.4090    1.6985 H   0  0  0  0  0  0  0  0  0  0  0  0
   -1.3633    0.7011   -0.8948 H   0  0  0  0  0  0  0  0  0  0  0  0
   -0.6377    2.6768   -0.4315 H   0  0  0  0  0  0  0  0  0  0  0  0
    0.4451   -0.4922   -1.9025 H   0  0  0  0  0  0  0  0  0  0  0  0
    1.8136    0.8633    0.2298 H   0  0  0  0  0  0  0  0  0  0  0  0
  1  2  2  0
  2  3  1  0
  3  4  1  0
  4  5  1  0
  5  6  1  0
  6  7  1  0
  6  8  1  0
  8  9  1  0
  5  2  1  0
  8  3  1  0
  3 10  1  0
  5 11  1  0
  6 12  1  0
  7 13  1  0
  8 14  1  0
  9 15  1  0
M  END
