
     RDKit          3D

 15 16  0  0  0  0  0  0  0  0999 V2000
    2.9725    1.0857    0.3025 O   0  0  0  0  0  0  0  0  0  0  0  0
    1.8414    0.5589    0.1516 C   0  0  0  0  0  0  0  0  0  0  0  0
    1.6150   -0.8490   -0.2690 C   0  0  0  0  0  0  0  0  0  0  0  0
    0.4342   -0.7781   -0.9828 O   0  0  0  0  0  0  0  0  0  0  0  0
   -0.3959    0.0344   -0.1868 C   0  0  0  0  0  0  0  0  0  0  0  0
   -1.4901   -0.5229    0.5955 C   0  0  0  0  0  0  0  0  0  0  0  0
   -1.7714    0.3571   -0.6182 C   0  0  0  0  0  0  0  0  0  0  0  0
    0.5008    1.1019    0.3226 C   0  0  0  0  0  0  0  0  0  0  0  0
    0.2417    2.2291    0.8013 O   0  0  0  0  0  0  0  0  0  0  0  0
    2.4485   -1.2779   -0.8152 H   0  0  0  0  0  0  0  0  0  0  0  0
    1.3824   -1.4528    0.6562 H   0  0  0  0  0  0  0  0  0  0  0  0
   -1.7315   -1.6082    0.3954 H   0  0  0  0  0  0  0  0  0  0  0  0
   -1.7788   -0.1534    1.5852 H   0  0  0  0  0  0  0  0  0  0  0  0
   -2.1059   -0.1132   -1.5558 H   0  0  0  0  0  0  0  0  0  0  0  0
   -2.1630    1.3884   -0.3826 H   0  0  0  0  0  0  0  0  0  0  0  0
  1  2  2  0
  2  3  1  0
  3  4  1  0
  4  5  1  0
  5  6  1  0
  6  7  1  0
  5  8  1  0
  8  9  2  0
  8  2  1  0
  7  5  1  0
  3 10  1  0
  3 11  1  0
  6 12  1  0
  6 13  1  0
  7 14  1  0
  7 15  1  0
M  END
