
     RDKit          3D

 15 16  0  0  0  0  0  0  0  0999 V2000
   -1.1691   -0.6286   -2.1674 O   0  0  0  0  0  0  0  0  0  0  0  0
   -0.6878   -0.4633   -1.1028 C   0  0  0  0  0  0  0  0  0  0  0  0
   -0.2508   -1.2730    0.0462 C   0  0  0  0  0  0  0  0  0  0  0  0
   -1.0345   -0.8896    1.1175 O   0  0  0  0  0  0  0  0  0  0  0  0
   -1.1550    0.5047    0.9080 C   0  0  0  0  0  0  0  0  0  0  0  0
   -0.2308    0.6681   -0.2777 C   0  0  0  0  0  0  0  0  0  0  0  0
    0.0220    1.8535   -0.7887 O   0  0  0  0  0  0  0  0  0  0  0  0
    0.8953   -0.2456    0.1607 C   0  0  0  0  0  0  0  0  0  0  0  0
    1.9137   -0.4276   -0.7360 O   0  0  0  0  0  0  0  0  0  0  0  0
    0.0311   -2.2883   -0.0825 H   0  0  0  0  0  0  0  0  0  0  0  0
   -0.8687    1.0862    1.7805 H   0  0  0  0  0  0  0  0  0  0  0  0
   -2.2169    0.6416    0.5916 H   0  0  0  0  0  0  0  0  0  0  0  0
    0.8660    2.2571   -0.4465 H   0  0  0  0  0  0  0  0  0  0  0  0
    1.1687   -0.0507    1.2143 H   0  0  0  0  0  0  0  0  0  0  0  0
    2.7168   -0.7447   -0.2172 H   0  0  0  0  0  0  0  0  0  0  0  0
  1  2  2  0
  2  3  1  0
  3  4  1  0
  4  5  1  0
  5  6  1  0
  6  7  1  0
  6  8  1  0
  8  9  1  0
  6  2  1  0
  8  3  1  0
  3 10  1  0
  5 11  1  0
  5 12  1  0
  7 13  1  0
  8 14  1  0
  9 15  1  0
M  END
