
     RDKit          3D

 19 20  0  0  0  0  0  0  0  0999 V2000
    2.4297   -1.9291   -0.5503 O   0  0  0  0  0  0  0  0  0  0  0  0
    1.6348   -1.0027   -0.2441 C   0  0  0  0  0  0  0  0  0  0  0  0
    2.1633    0.3065    0.1206 C   0  0  0  0  0  0  0  0  0  0  0  0
    1.3919    1.3601   -0.0602 C   0  0  0  0  0  0  0  0  0  0  0  0
    0.0366    1.1306   -0.6246 C   0  0  0  0  0  0  0  0  0  0  0  0
   -0.6330   -0.0794   -0.0696 C   0  0  0  0  0  0  0  0  0  0  0  0
   -1.4089   -0.0268    1.2118 C   0  0  0  0  0  0  0  0  0  0  0  0
   -2.1028   -0.1156   -0.1139 C   0  0  0  0  0  0  0  0  0  0  0  0
    0.1967   -1.3047   -0.2740 C   0  0  0  0  0  0  0  0  0  0  0  0
    3.1624    0.4246    0.5307 H   0  0  0  0  0  0  0  0  0  0  0  0
    1.7745    2.3222    0.2055 H   0  0  0  0  0  0  0  0  0  0  0  0
   -0.6046    2.0332   -0.4799 H   0  0  0  0  0  0  0  0  0  0  0  0
    0.0901    1.0006   -1.7430 H   0  0  0  0  0  0  0  0  0  0  0  0
   -1.4797   -0.9793    1.8055 H   0  0  0  0  0  0  0  0  0  0  0  0
   -1.3381    0.9243    1.7586 H   0  0  0  0  0  0  0  0  0  0  0  0
   -2.6277    0.8382   -0.4124 H   0  0  0  0  0  0  0  0  0  0  0  0
   -2.6795   -1.0064   -0.3815 H   0  0  0  0  0  0  0  0  0  0  0  0
    0.0096   -2.0605    0.5424 H   0  0  0  0  0  0  0  0  0  0  0  0
   -0.0152   -1.8357   -1.2218 H   0  0  0  0  0  0  0  0  0  0  0  0
  1  2  2  0
  2  3  1  0
  3  4  2  0
  4  5  1  0
  5  6  1  0
  6  7  1  0
  7  8  1  0
  6  9  1  0
  9  2  1  0
  8  6  1  0
  3 10  1  0
  4 11  1  0
  5 12  1  0
  5 13  1  0
  7 14  1  0
  7 15  1  0
  8 16  1  0
  8 17  1  0
  9 18  1  0
  9 19  1  0
M  END
