
     RDKit          3D

 15 16  0  0  0  0  0  0  0  0999 V2000
    2.8770    1.3451    0.0205 O   0  0  0  0  0  0  0  0  0  0  0  0
    1.7797    0.7423   -0.0799 C   0  0  0  0  0  0  0  0  0  0  0  0
    1.2649    0.2728   -1.2764 O   0  0  0  0  0  0  0  0  0  0  0  0
    0.5326   -0.8924   -0.9576 C   0  0  0  0  0  0  0  0  0  0  0  0
   -0.1031   -0.5248    0.3420 C   0  0  0  0  0  0  0  0  0  0  0  0
   -1.5272   -0.1072    0.4324 C   0  0  0  0  0  0  0  0  0  0  0  0
   -1.9692    0.1354   -0.8889 O   0  0  0  0  0  0  0  0  0  0  0  0
    0.6380   -0.8400    1.4642 O   0  0  0  0  0  0  0  0  0  0  0  0
    0.8705    0.4343    1.0132 C   0  0  0  0  0  0  0  0  0  0  0  0
   -0.1992   -1.1715   -1.7328 H   0  0  0  0  0  0  0  0  0  0  0  0
    1.2999   -1.7032   -0.8022 H   0  0  0  0  0  0  0  0  0  0  0  0
   -1.6763    0.8425    1.0119 H   0  0  0  0  0  0  0  0  0  0  0  0
   -2.1950   -0.8614    0.8447 H   0  0  0  0  0  0  0  0  0  0  0  0
   -2.0463    1.1031   -1.0591 H   0  0  0  0  0  0  0  0  0  0  0  0
    0.4537    1.2250    1.6680 H   0  0  0  0  0  0  0  0  0  0  0  0
  1  2  2  0
  2  3  1  0
  3  4  1  0
  4  5  1  0
  5  6  1  0
  6  7  1  0
  5  8  1  0
  8  9  1  0
  9  2  1  0
  9  5  1  0
  4 10  1  0
  4 11  1  0
  6 12  1  0
  6 13  1  0
  7 14  1  0
  9 15  1  0
M  END
