
     RDKit          3D

 19 20  0  0  0  0  0  0  0  0999 V2000
   -1.9269   -1.8774   -0.3898 O   0  0  0  0  0  0  0  0  0  0  0  0
   -1.5587   -0.7764   -0.6008 C   0  0  0  0  0  0  0  0  0  0  0  0
   -0.5343   -0.1026   -1.4479 C   0  0  0  0  0  0  0  0  0  0  0  0
   -0.2406    0.5485   -0.1331 C   0  0  0  0  0  0  0  0  0  0  0  0
    0.3846   -0.3844    0.8547 C   0  0  0  0  0  0  0  0  0  0  0  0
    1.6926   -0.8855    0.3052 C   0  0  0  0  0  0  0  0  0  0  0  0
    2.4896    0.2626    0.0846 O   0  0  0  0  0  0  0  0  0  0  0  0
   -1.0440    1.5549    0.5369 C   0  0  0  0  0  0  0  0  0  0  0  0
   -1.8259    0.6040   -0.2108 C   0  0  0  0  0  0  0  0  0  0  0  0
    0.1948   -0.7978   -1.8193 H   0  0  0  0  0  0  0  0  0  0  0  0
   -0.9548    0.6268   -2.1764 H   0  0  0  0  0  0  0  0  0  0  0  0
   -0.2199   -1.2833    1.0793 H   0  0  0  0  0  0  0  0  0  0  0  0
    0.5765    0.0845    1.8451 H   0  0  0  0  0  0  0  0  0  0  0  0
    1.5937   -1.4250   -0.6348 H   0  0  0  0  0  0  0  0  0  0  0  0
    2.2586   -1.4770    1.0732 H   0  0  0  0  0  0  0  0  0  0  0  0
    3.4334    0.0608    0.2613 H   0  0  0  0  0  0  0  0  0  0  0  0
   -0.8660    2.6036    0.2166 H   0  0  0  0  0  0  0  0  0  0  0  0
   -1.2441    1.5501    1.6513 H   0  0  0  0  0  0  0  0  0  0  0  0
   -2.2085    1.1135   -1.1652 H   0  0  0  0  0  0  0  0  0  0  0  0
  1  2  2  0
  2  3  1  0
  3  4  1  0
  4  5  1  0
  5  6  1  0
  6  7  1  0
  4  8  1  0
  8  9  1  0
  9  2  1  0
  9  4  1  0
  3 10  1  0
  3 11  1  0
  5 12  1  0
  5 13  1  0
  6 14  1  0
  6 15  1  0
  7 16  1  0
  8 17  1  0
  8 18  1  0
  9 19  1  0
M  END
