
     RDKit          3D

 15 15  0  0  0  0  0  0  0  0999 V2000
   -3.2928    1.3045    0.0214 O   0  0  0  0  0  0  0  0  0  0  0  0
   -2.3155    0.5376    0.1918 C   0  0  0  0  0  0  0  0  0  0  0  0
   -1.4353   -0.3070   -0.6393 C   0  0  0  0  0  0  0  0  0  0  0  0
   -0.6505   -0.4696    0.6151 C   0  0  0  0  0  0  0  0  0  0  0  0
    0.6465    0.1790    0.7263 C   0  0  0  0  0  0  0  0  0  0  0  0
    0.7452    1.1797    1.4178 O   0  0  0  0  0  0  0  0  0  0  0  0
    1.8937   -0.2799    0.0561 C   0  0  0  0  0  0  0  0  0  0  0  0
    2.9640    0.5440    0.3553 O   0  0  0  0  0  0  0  0  0  0  0  0
   -1.6526    0.1813    1.3563 O   0  0  0  0  0  0  0  0  0  0  0  0
   -1.9267   -1.2400   -1.0052 H   0  0  0  0  0  0  0  0  0  0  0  0
   -0.9698    0.2178   -1.4744 H   0  0  0  0  0  0  0  0  0  0  0  0
   -0.6034   -1.5519    0.9269 H   0  0  0  0  0  0  0  0  0  0  0  0
    1.8107   -0.3504   -1.0277 H   0  0  0  0  0  0  0  0  0  0  0  0
    2.0905   -1.3296    0.4230 H   0  0  0  0  0  0  0  0  0  0  0  0
    2.6960    1.3842    0.7890 H   0  0  0  0  0  0  0  0  0  0  0  0
  1  2  2  0
  2  3  1  0
  3  4  1  0
  4  5  1  0
  5  6  2  0
  5  7  1  0
  7  8  1  0
  4  9  1  0
  9  2  1  0
  3 10  1  0
  3 11  1  0
  4 12  1  0
  7 13  1  0
  7 14  1  0
  8 15  1  0
M  END
