
     RDKit          3D

 14 15  0  0  0  0  0  0  0  0999 V2000
   -1.5522    2.1379   -0.3359 O   0  0  0  0  0  0  0  0  0  0  0  0
   -0.9303    1.0981   -0.2852 C   0  0  0  0  0  0  0  0  0  0  0  0
   -1.4474   -0.3006    0.0070 C   0  0  0  0  0  0  0  0  0  0  0  0
   -0.1140   -0.9976   -0.2534 C   0  0  0  0  0  0  0  0  0  0  0  0
    0.4389   -0.3216   -1.3335 O   0  0  0  0  0  0  0  0  0  0  0  0
    0.5145    0.7899   -0.4786 C   0  0  0  0  0  0  0  0  0  0  0  0
    0.7849   -0.1725    0.6350 C   0  0  0  0  0  0  0  0  0  0  0  0
    2.0441   -0.6586    0.7798 O   0  0  0  0  0  0  0  0  0  0  0  0
   -2.2302   -0.5967   -0.6777 H   0  0  0  0  0  0  0  0  0  0  0  0
   -1.6577   -0.3732    1.0667 H   0  0  0  0  0  0  0  0  0  0  0  0
   -0.0768   -2.0541   -0.2066 H   0  0  0  0  0  0  0  0  0  0  0  0
    1.1916    1.5680   -0.7056 H   0  0  0  0  0  0  0  0  0  0  0  0
    0.2973    0.1693    1.5698 H   0  0  0  0  0  0  0  0  0  0  0  0
    2.7373   -0.2883    0.2184 H   0  0  0  0  0  0  0  0  0  0  0  0
  1  2  2  0
  2  3  1  0
  3  4  1  0
  4  5  1  0
  5  6  1  0
  6  7  1  0
  7  8  1  0
  6  2  1  0
  7  4  1  0
  3  9  1  0
  3 10  1  0
  4 11  1  0
  6 12  1  0
  7 13  1  0
  8 14  1  0
M  END
