
     RDKit          3D

 19 20  0  0  0  0  0  0  0  0999 V2000
   -0.0564   -2.0719    1.1694 O   0  0  0  0  0  0  0  0  0  0  0  0
   -0.3256   -1.3274    0.2470 C   0  0  0  0  0  0  0  0  0  0  0  0
   -1.7547   -0.9332    0.1319 C   0  0  0  0  0  0  0  0  0  0  0  0
   -1.8653    0.5457   -0.1325 C   0  0  0  0  0  0  0  0  0  0  0  0
   -0.9453    1.4966    0.0363 C   0  0  0  0  0  0  0  0  0  0  0  0
    0.4233    1.2838    0.5367 C   0  0  0  0  0  0  0  0  0  0  0  0
    1.2050    0.4980   -0.4833 C   0  0  0  0  0  0  0  0  0  0  0  0
    2.1270   -0.5479   -0.0068 C   0  0  0  0  0  0  0  0  0  0  0  0
    0.7840   -0.9089   -0.6369 C   0  0  0  0  0  0  0  0  0  0  0  0
   -2.1744   -1.4991   -0.7512 H   0  0  0  0  0  0  0  0  0  0  0  0
   -2.3327   -1.1180    1.0494 H   0  0  0  0  0  0  0  0  0  0  0  0
   -2.8110    0.8793   -0.5068 H   0  0  0  0  0  0  0  0  0  0  0  0
   -1.2338    2.5102   -0.2177 H   0  0  0  0  0  0  0  0  0  0  0  0
    0.9188    2.2700    0.6354 H   0  0  0  0  0  0  0  0  0  0  0  0
    0.4495    0.8239    1.5453 H   0  0  0  0  0  0  0  0  0  0  0  0
    1.4458    1.0468   -1.3989 H   0  0  0  0  0  0  0  0  0  0  0  0
    3.0412   -0.7048   -0.6158 H   0  0  0  0  0  0  0  0  0  0  0  0
    2.2255   -0.8542    1.0340 H   0  0  0  0  0  0  0  0  0  0  0  0
    0.8792   -1.3888   -1.6355 H   0  0  0  0  0  0  0  0  0  0  0  0
  1  2  2  0
  2  3  1  0
  3  4  1  0
  4  5  2  0
  5  6  1  0
  6  7  1  0
  7  8  1  0
  8  9  1  0
  9  2  1  0
  9  7  1  0
  3 10  1  0
  3 11  1  0
  4 12  1  0
  5 13  1  0
  6 14  1  0
  6 15  1  0
  7 16  1  0
  8 17  1  0
  8 18  1  0
  9 19  1  0
M  END
