
     RDKit          3D

 15 16  0  0  0  0  0  0  0  0999 V2000
    2.6416   -1.3444    0.2888 O   0  0  0  0  0  0  0  0  0  0  0  0
    1.5413   -0.7945    0.3544 C   0  0  0  0  0  0  0  0  0  0  0  0
    0.5629   -0.5042    1.3402 O   0  0  0  0  0  0  0  0  0  0  0  0
    0.6967    0.7858    0.7867 C   0  0  0  0  0  0  0  0  0  0  0  0
    0.1827    1.3139   -0.4245 C   0  0  0  0  0  0  0  0  0  0  0  0
   -1.1628    1.7593   -0.4173 O   0  0  0  0  0  0  0  0  0  0  0  0
    0.5343   -0.0915   -0.5173 C   0  0  0  0  0  0  0  0  0  0  0  0
   -0.6877   -0.9771   -0.6083 C   0  0  0  0  0  0  0  0  0  0  0  0
   -1.3038   -1.2613    0.5748 O   0  0  0  0  0  0  0  0  0  0  0  0
    1.7732    1.1007    0.9894 H   0  0  0  0  0  0  0  0  0  0  0  0
    0.7912    1.9902   -1.0961 H   0  0  0  0  0  0  0  0  0  0  0  0
   -1.5250    1.7818    0.5055 H   0  0  0  0  0  0  0  0  0  0  0  0
   -1.4448   -0.5979   -1.3184 H   0  0  0  0  0  0  0  0  0  0  0  0
   -0.3236   -1.9423   -1.0425 H   0  0  0  0  0  0  0  0  0  0  0  0
   -2.2761   -1.2185    0.5844 H   0  0  0  0  0  0  0  0  0  0  0  0
  1  2  2  0
  2  3  1  0
  3  4  1  0
  4  5  1  0
  5  6  1  0
  5  7  1  0
  7  8  1  0
  8  9  1  0
  7  2  1  0
  7  4  1  0
  4 10  1  0
  5 11  1  0
  6 12  1  0
  8 13  1  0
  8 14  1  0
  9 15  1  0
M  END
