
     RDKit          3D

 19 20  0  0  0  0  0  0  0  0999 V2000
    3.9894    0.7855    0.3856 O   0  0  0  0  0  0  0  0  0  0  0  0
    2.8807    0.3483    0.2052 C   0  0  0  0  0  0  0  0  0  0  0  0
    1.8517    0.4272   -0.8601 C   0  0  0  0  0  0  0  0  0  0  0  0
    0.8231    0.2455    0.2277 C   0  0  0  0  0  0  0  0  0  0  0  0
   -0.2679   -0.5168   -0.0728 O   0  0  0  0  0  0  0  0  0  0  0  0
   -1.4163    0.1751    0.2942 C   0  0  0  0  0  0  0  0  0  0  0  0
   -2.5191   -0.6372    0.8426 C   0  0  0  0  0  0  0  0  0  0  0  0
   -2.6756    0.0076   -0.4753 C   0  0  0  0  0  0  0  0  0  0  0  0
    1.9413   -0.5119    0.9595 C   0  0  0  0  0  0  0  0  0  0  0  0
    1.9622   -0.4736   -1.5227 H   0  0  0  0  0  0  0  0  0  0  0  0
    1.7557    1.3843   -1.3791 H   0  0  0  0  0  0  0  0  0  0  0  0
    0.5796    1.2136    0.6812 H   0  0  0  0  0  0  0  0  0  0  0  0
   -1.2896    1.1968    0.7558 H   0  0  0  0  0  0  0  0  0  0  0  0
   -3.0698   -0.2578    1.7036 H   0  0  0  0  0  0  0  0  0  0  0  0
   -2.4001   -1.7454    0.8441 H   0  0  0  0  0  0  0  0  0  0  0  0
   -3.3868    0.8654   -0.5395 H   0  0  0  0  0  0  0  0  0  0  0  0
   -2.5937   -0.5483   -1.4264 H   0  0  0  0  0  0  0  0  0  0  0  0
    1.9228   -0.3795    2.0468 H   0  0  0  0  0  0  0  0  0  0  0  0
    1.9122   -1.5789    0.6222 H   0  0  0  0  0  0  0  0  0  0  0  0
  1  2  2  0
  2  3  1  0
  3  4  1  0
  4  5  1  0
  5  6  1  0
  6  7  1  0
  7  8  1  0
  4  9  1  0
  9  2  1  0
  8  6  1  0
  3 10  1  0
  3 11  1  0
  4 12  1  0
  6 13  1  0
  7 14  1  0
  7 15  1  0
  8 16  1  0
  8 17  1  0
  9 18  1  0
  9 19  1  0
M  END
