
     RDKit          3D

 19 19  0  0  0  0  0  0  0  0999 V2000
   -0.9440    2.5849   -0.7591 O   0  0  0  0  0  0  0  0  0  0  0  0
   -0.5886    1.4558   -0.2681 C   0  0  0  0  0  0  0  0  0  0  0  0
   -1.7993    0.7755    0.1828 C   0  0  0  0  0  0  0  0  0  0  0  0
   -1.6693   -0.7742    0.2986 C   0  0  0  0  0  0  0  0  0  0  0  0
   -0.2742   -0.9494    0.0785 C   0  0  0  0  0  0  0  0  0  0  0  0
    0.6909   -1.7981    0.0229 O   0  0  0  0  0  0  0  0  0  0  0  0
    1.8009   -0.9622   -0.3356 C   0  0  0  0  0  0  0  0  0  0  0  0
    1.7381    0.4464    0.0550 C   0  0  0  0  0  0  0  0  0  0  0  0
    0.8237    1.3745   -0.3836 O   0  0  0  0  0  0  0  0  0  0  0  0
   -2.6536    1.0265   -0.4585 H   0  0  0  0  0  0  0  0  0  0  0  0
   -2.0415    1.1333    1.2070 H   0  0  0  0  0  0  0  0  0  0  0  0
   -2.0160   -1.1200    1.2692 H   0  0  0  0  0  0  0  0  0  0  0  0
   -2.3214   -1.1991   -0.4899 H   0  0  0  0  0  0  0  0  0  0  0  0
    0.1156   -0.3027    0.9285 H   0  0  0  0  0  0  0  0  0  0  0  0
   -0.2099   -0.5021   -0.9657 H   0  0  0  0  0  0  0  0  0  0  0  0
    2.6537   -1.4167    0.2088 H   0  0  0  0  0  0  0  0  0  0  0  0
    2.0188   -1.1428   -1.4220 H   0  0  0  0  0  0  0  0  0  0  0  0
    1.9451    0.5116    1.1701 H   0  0  0  0  0  0  0  0  0  0  0  0
    2.7310    0.8588   -0.3388 H   0  0  0  0  0  0  0  0  0  0  0  0
  1  2  2  0
  2  3  1  0
  3  4  1  0
  4  5  1  0
  5  6  1  0
  6  7  1  0
  7  8  1  0
  8  9  1  0
  9  2  1  0
  3 10  1  0
  3 11  1  0
  4 12  1  0
  4 13  1  0
  5 14  1  0
  5 15  1  0
  7 16  1  0
  7 17  1  0
  8 18  1  0
  8 19  1  0
M  END
