
     RDKit          3D

 17 18  0  0  0  0  0  0  0  0999 V2000
   -0.3198    2.1521    1.4678 O   0  0  0  0  0  0  0  0  0  0  0  0
   -0.4480    1.2656    0.6732 C   0  0  0  0  0  0  0  0  0  0  0  0
   -1.2936    0.7811   -0.4449 C   0  0  0  0  0  0  0  0  0  0  0  0
    0.0036    0.4841   -1.1474 C   0  0  0  0  0  0  0  0  0  0  0  0
    0.2040   -0.0130    0.2652 C   0  0  0  0  0  0  0  0  0  0  0  0
    1.3508   -0.5380    0.7965 C   0  0  0  0  0  0  0  0  0  0  0  0
    2.4516    0.3381    0.6307 O   0  0  0  0  0  0  0  0  0  0  0  0
   -1.1613   -0.5763    0.1799 C   0  0  0  0  0  0  0  0  0  0  0  0
   -1.3354   -1.6566   -0.6725 O   0  0  0  0  0  0  0  0  0  0  0  0
   -2.1111    1.2138   -0.8235 H   0  0  0  0  0  0  0  0  0  0  0  0
   -0.0260   -0.2704   -1.9328 H   0  0  0  0  0  0  0  0  0  0  0  0
    0.6133    1.3793   -1.3879 H   0  0  0  0  0  0  0  0  0  0  0  0
    1.3063   -0.7029    1.9010 H   0  0  0  0  0  0  0  0  0  0  0  0
    1.6429   -1.5191    0.3697 H   0  0  0  0  0  0  0  0  0  0  0  0
    3.1260   -0.0411    0.0236 H   0  0  0  0  0  0  0  0  0  0  0  0
   -1.7265   -0.6438    1.1291 H   0  0  0  0  0  0  0  0  0  0  0  0
   -2.2769   -1.6527   -0.9972 H   0  0  0  0  0  0  0  0  0  0  0  0
  1  2  2  0
  2  3  1  0
  3  4  1  0
  4  5  1  0
  5  6  1  0
  6  7  1  0
  5  8  1  0
  8  9  1  0
  5  2  1  0
  8  3  1  0
  3 10  1  0
  4 11  1  0
  4 12  1  0
  6 13  1  0
  6 14  1  0
  7 15  1  0
  8 16  1  0
  9 17  1  0
M  END
