
     RDKit          3D

 11 12  0  0  0  0  0  0  0  0999 V2000
   -2.0375   -1.2840   -1.0099 O   0  0  0  0  0  0  0  0  0  0  0  0
   -1.1474   -0.8572   -0.2389 C   0  0  0  0  0  0  0  0  0  0  0  0
   -0.6576   -1.2870    0.9681 O   0  0  0  0  0  0  0  0  0  0  0  0
    0.3456   -0.3094    0.9932 C   0  0  0  0  0  0  0  0  0  0  0  0
    1.2310   -0.0751   -0.1835 C   0  0  0  0  0  0  0  0  0  0  0  0
   -0.2126    0.2738   -0.2335 C   0  0  0  0  0  0  0  0  0  0  0  0
   -0.6463    1.5742   -0.2019 O   0  0  0  0  0  0  0  0  0  0  0  0
    0.4545    0.2963    1.8958 H   0  0  0  0  0  0  0  0  0  0  0  0
    1.5066   -0.9486   -0.8403 H   0  0  0  0  0  0  0  0  0  0  0  0
    2.0159    0.6769   -0.0402 H   0  0  0  0  0  0  0  0  0  0  0  0
   -0.8522    1.9402   -1.1089 H   0  0  0  0  0  0  0  0  0  0  0  0
  1  2  2  0
  2  3  1  0
  3  4  1  0
  4  5  1  0
  5  6  1  0
  6  7  1  0
  6  2  1  0
  6  4  1  0
  4  8  1  0
  5  9  1  0
  5 10  1  0
  7 11  1  0
M  END
