
     RDKit          3D

 17 19  0  0  0  0  0  0  0  0999 V2000
    1.6081   -2.5102    0.0131 O   0  0  0  0  0  0  0  0  0  0  0  0
    1.1252   -1.3623   -0.0396 C   0  0  0  0  0  0  0  0  0  0  0  0
    1.8803   -0.1932   -0.1413 O   0  0  0  0  0  0  0  0  0  0  0  0
    1.1784    1.0201   -0.0739 C   0  0  0  0  0  0  0  0  0  0  0  0
   -0.0002    1.0598    0.7656 C   0  0  0  0  0  0  0  0  0  0  0  0
   -0.5979   -0.2270    1.1992 C   0  0  0  0  0  0  0  0  0  0  0  0
   -0.3504   -1.1357    0.0033 C   0  0  0  0  0  0  0  0  0  0  0  0
   -0.7516   -0.1936   -1.1396 C   0  0  0  0  0  0  0  0  0  0  0  0
   -0.0934    1.0883   -0.7703 C   0  0  0  0  0  0  0  0  0  0  0  0
    1.8272    1.9130   -0.1024 H   0  0  0  0  0  0  0  0  0  0  0  0
   -0.3054    1.9854    1.2832 H   0  0  0  0  0  0  0  0  0  0  0  0
   -1.7047   -0.0975    1.2557 H   0  0  0  0  0  0  0  0  0  0  0  0
   -0.1681   -0.6322    2.1243 H   0  0  0  0  0  0  0  0  0  0  0  0
   -0.9346   -2.0494    0.0209 H   0  0  0  0  0  0  0  0  0  0  0  0
   -1.8600   -0.1131   -1.0735 H   0  0  0  0  0  0  0  0  0  0  0  0
   -0.4201   -0.6048   -2.1057 H   0  0  0  0  0  0  0  0  0  0  0  0
   -0.4328    2.0523   -1.2188 H   0  0  0  0  0  0  0  0  0  0  0  0
  1  2  2  0
  2  3  1  0
  3  4  1  0
  4  5  1  0
  5  6  1  0
  6  7  1  0
  7  8  1  0
  8  9  1  0
  7  2  1  0
  9  4  1  0
  9  5  1  0
  4 10  1  0
  5 11  1  0
  6 12  1  0
  6 13  1  0
  7 14  1  0
  8 15  1  0
  8 16  1  0
  9 17  1  0
M  END
