
     RDKit          3D

 18 19  0  0  0  0  0  0  0  0999 V2000
    1.9896    2.1287    0.0821 O   0  0  0  0  0  0  0  0  0  0  0  0
    1.4439    1.0879    0.2777 C   0  0  0  0  0  0  0  0  0  0  0  0
    1.9199   -0.2382   -0.1385 C   0  0  0  0  0  0  0  0  0  0  0  0
    0.6216   -0.9119   -0.5557 C   0  0  0  0  0  0  0  0  0  0  0  0
   -0.4970   -0.1169    0.0390 C   0  0  0  0  0  0  0  0  0  0  0  0
   -1.6324    0.3770   -0.7756 C   0  0  0  0  0  0  0  0  0  0  0  0
   -1.8165   -0.6847    0.2899 C   0  0  0  0  0  0  0  0  0  0  0  0
    0.1720    0.8538    0.9747 C   0  0  0  0  0  0  0  0  0  0  0  0
    2.6451   -0.2071   -0.9799 H   0  0  0  0  0  0  0  0  0  0  0  0
    2.3304   -0.7686    0.7424 H   0  0  0  0  0  0  0  0  0  0  0  0
    0.5911   -1.9315   -0.1438 H   0  0  0  0  0  0  0  0  0  0  0  0
    0.5672   -0.9948   -1.6553 H   0  0  0  0  0  0  0  0  0  0  0  0
   -1.7568    0.1036   -1.8423 H   0  0  0  0  0  0  0  0  0  0  0  0
   -2.0811    1.3622   -0.5064 H   0  0  0  0  0  0  0  0  0  0  0  0
   -2.3875   -0.4172    1.2108 H   0  0  0  0  0  0  0  0  0  0  0  0
   -2.0059   -1.7149   -0.1072 H   0  0  0  0  0  0  0  0  0  0  0  0
   -0.4274    1.7725    1.1448 H   0  0  0  0  0  0  0  0  0  0  0  0
    0.3236    0.3001    1.9433 H   0  0  0  0  0  0  0  0  0  0  0  0
  1  2  2  0
  2  3  1  0
  3  4  1  0
  4  5  1  0
  5  6  1  0
  6  7  1  0
  5  8  1  0
  8  2  1  0
  7  5  1  0
  3  9  1  0
  3 10  1  0
  4 11  1  0
  4 12  1  0
  6 13  1  0
  6 14  1  0
  7 15  1  0
  7 16  1  0
  8 17  1  0
  8 18  1  0
M  END
