
     RDKit          3D

 19 20  0  0  0  0  0  0  0  0999 V2000
   -0.4591    2.1475    1.4703 O   0  0  0  0  0  0  0  0  0  0  0  0
    0.0670    1.4108    0.6902 C   0  0  0  0  0  0  0  0  0  0  0  0
    0.0481    1.4183   -0.8200 C   0  0  0  0  0  0  0  0  0  0  0  0
   -0.2506   -0.0637   -1.0482 C   0  0  0  0  0  0  0  0  0  0  0  0
   -1.5091   -0.4114   -0.2461 C   0  0  0  0  0  0  0  0  0  0  0  0
   -0.7348   -1.5895    0.3125 C   0  0  0  0  0  0  0  0  0  0  0  0
    0.5401   -0.8213   -0.0289 C   0  0  0  0  0  0  0  0  0  0  0  0
    0.9370    0.2120    0.9934 C   0  0  0  0  0  0  0  0  0  0  0  0
    2.2391    0.6203    0.6872 O   0  0  0  0  0  0  0  0  0  0  0  0
    1.0117    1.7175   -1.2428 H   0  0  0  0  0  0  0  0  0  0  0  0
   -0.7860    2.0160   -1.2146 H   0  0  0  0  0  0  0  0  0  0  0  0
   -0.2360   -0.4005   -2.0730 H   0  0  0  0  0  0  0  0  0  0  0  0
   -1.7314    0.2945    0.5749 H   0  0  0  0  0  0  0  0  0  0  0  0
   -2.3490   -0.6470   -0.8978 H   0  0  0  0  0  0  0  0  0  0  0  0
   -0.8512   -2.4528   -0.3638 H   0  0  0  0  0  0  0  0  0  0  0  0
   -0.8846   -1.8066    1.3699 H   0  0  0  0  0  0  0  0  0  0  0  0
    1.3453   -1.4717   -0.3939 H   0  0  0  0  0  0  0  0  0  0  0  0
    0.8478   -0.1134    2.0261 H   0  0  0  0  0  0  0  0  0  0  0  0
    2.7556   -0.0591    0.2046 H   0  0  0  0  0  0  0  0  0  0  0  0
  1  2  2  0
  2  3  1  0
  3  4  1  0
  4  5  1  0
  5  6  1  0
  6  7  1  0
  7  8  1  0
  8  9  1  0
  8  2  1  0
  7  4  1  0
  3 10  1  0
  3 11  1  0
  4 12  1  0
  5 13  1  0
  5 14  1  0
  6 15  1  0
  6 16  1  0
  7 17  1  0
  8 18  1  0
  9 19  1  0
M  END
