
     RDKit          3D

 17 19  0  0  0  0  0  0  0  0999 V2000
   -0.9799    1.1754    2.2471 O   0  0  0  0  0  0  0  0  0  0  0  0
   -0.5568    0.6212    1.2752 C   0  0  0  0  0  0  0  0  0  0  0  0
   -1.0132    0.8762   -0.1206 C   0  0  0  0  0  0  0  0  0  0  0  0
   -1.3287   -0.5426   -0.5352 C   0  0  0  0  0  0  0  0  0  0  0  0
   -0.0327   -1.2154   -0.0694 C   0  0  0  0  0  0  0  0  0  0  0  0
    0.4788   -0.4300    1.0733 C   0  0  0  0  0  0  0  0  0  0  0  0
    1.0156   -0.2024   -0.2794 C   0  0  0  0  0  0  0  0  0  0  0  0
    2.2902   -0.4803   -0.6592 O   0  0  0  0  0  0  0  0  0  0  0  0
    0.3270    1.0741   -0.7819 C   0  0  0  0  0  0  0  0  0  0  0  0
   -1.7532    1.6083   -0.2657 H   0  0  0  0  0  0  0  0  0  0  0  0
   -2.1340   -0.9813    0.0901 H   0  0  0  0  0  0  0  0  0  0  0  0
   -1.4830   -0.6656   -1.6065 H   0  0  0  0  0  0  0  0  0  0  0  0
    0.1133   -2.2731   -0.2111 H   0  0  0  0  0  0  0  0  0  0  0  0
    1.0342   -0.8378    1.9044 H   0  0  0  0  0  0  0  0  0  0  0  0
    2.8975   -0.7590    0.0768 H   0  0  0  0  0  0  0  0  0  0  0  0
    0.8284    1.9084   -0.2733 H   0  0  0  0  0  0  0  0  0  0  0  0
    0.2966    1.1238   -1.8643 H   0  0  0  0  0  0  0  0  0  0  0  0
  1  2  2  0
  2  3  1  0
  3  4  1  0
  4  5  1  0
  5  6  1  0
  6  7  1  0
  7  8  1  0
  7  9  1  0
  6  2  1  0
  9  3  1  0
  7  5  1  0
  3 10  1  0
  4 11  1  0
  4 12  1  0
  5 13  1  0
  6 14  1  0
  8 15  1  0
  9 16  1  0
  9 17  1  0
M  END
