
     RDKit          3D

 17 18  0  0  0  0  0  0  0  0999 V2000
   -2.2949    1.4145    0.8410 O   0  0  0  0  0  0  0  0  0  0  0  0
   -1.5926    0.7229    0.1579 C   0  0  0  0  0  0  0  0  0  0  0  0
   -1.7997   -0.7012   -0.3045 C   0  0  0  0  0  0  0  0  0  0  0  0
   -0.4324   -1.2765    0.0495 C   0  0  0  0  0  0  0  0  0  0  0  0
    0.5353   -1.3047   -0.9277 O   0  0  0  0  0  0  0  0  0  0  0  0
    0.5195   -0.2036   -0.1029 C   0  0  0  0  0  0  0  0  0  0  0  0
    1.7024    0.0360    0.7730 C   0  0  0  0  0  0  0  0  0  0  0  0
    2.8235    0.1880   -0.0674 O   0  0  0  0  0  0  0  0  0  0  0  0
   -0.2589    1.0302   -0.4784 C   0  0  0  0  0  0  0  0  0  0  0  0
   -1.9638   -0.7022   -1.3927 H   0  0  0  0  0  0  0  0  0  0  0  0
   -2.6184   -1.1756    0.2219 H   0  0  0  0  0  0  0  0  0  0  0  0
   -0.4254   -1.9529    0.9040 H   0  0  0  0  0  0  0  0  0  0  0  0
    1.5398    0.9539    1.3571 H   0  0  0  0  0  0  0  0  0  0  0  0
    1.9165   -0.7748    1.4643 H   0  0  0  0  0  0  0  0  0  0  0  0
    2.6214    0.8091   -0.8140 H   0  0  0  0  0  0  0  0  0  0  0  0
    0.1727    1.9532   -0.1145 H   0  0  0  0  0  0  0  0  0  0  0  0
   -0.4449    0.9836   -1.5665 H   0  0  0  0  0  0  0  0  0  0  0  0
  1  2  2  0
  2  3  1  0
  3  4  1  0
  4  5  1  0
  5  6  1  0
  6  7  1  0
  7  8  1  0
  6  9  1  0
  9  2  1  0
  6  4  1  0
  3 10  1  0
  3 11  1  0
  4 12  1  0
  7 13  1  0
  7 14  1  0
  8 15  1  0
  9 16  1  0
  9 17  1  0
M  END
