
     RDKit          3D

 17 18  0  0  0  0  0  0  0  0999 V2000
    0.8647   -2.3006   -0.9319 O   0  0  0  0  0  0  0  0  0  0  0  0
    0.5924   -1.2543   -0.2865 C   0  0  0  0  0  0  0  0  0  0  0  0
    1.6447   -0.5172    0.4097 C   0  0  0  0  0  0  0  0  0  0  0  0
    1.5216    0.7981    0.4240 C   0  0  0  0  0  0  0  0  0  0  0  0
    0.3511    1.3848   -0.2568 C   0  0  0  0  0  0  0  0  0  0  0  0
   -0.9456    0.7059   -0.0163 C   0  0  0  0  0  0  0  0  0  0  0  0
   -1.2551   -0.2318    1.0518 C   0  0  0  0  0  0  0  0  0  0  0  0
   -0.7840   -0.7797   -0.2365 C   0  0  0  0  0  0  0  0  0  0  0  0
   -1.6589   -1.2980   -1.1788 O   0  0  0  0  0  0  0  0  0  0  0  0
    2.4831   -1.0513    0.8796 H   0  0  0  0  0  0  0  0  0  0  0  0
    2.2785    1.4060    0.9319 H   0  0  0  0  0  0  0  0  0  0  0  0
    0.5492    1.2865   -1.3698 H   0  0  0  0  0  0  0  0  0  0  0  0
    0.2854    2.4880   -0.1075 H   0  0  0  0  0  0  0  0  0  0  0  0
   -1.8078    1.2225   -0.5062 H   0  0  0  0  0  0  0  0  0  0  0  0
   -0.5749   -0.3397    1.9316 H   0  0  0  0  0  0  0  0  0  0  0  0
   -2.3135   -0.3659    1.3336 H   0  0  0  0  0  0  0  0  0  0  0  0
   -1.2310   -1.1535   -2.0717 H   0  0  0  0  0  0  0  0  0  0  0  0
  1  2  2  0
  2  3  1  0
  3  4  2  0
  4  5  1  0
  5  6  1  0
  6  7  1  0
  7  8  1  0
  8  9  1  0
  8  2  1  0
  8  6  1  0
  3 10  1  0
  4 11  1  0
  5 12  1  0
  5 13  1  0
  6 14  1  0
  7 15  1  0
  7 16  1  0
  9 17  1  0
M  END
