
     RDKit          3D

 15 16  0  0  0  0  0  0  0  0999 V2000
   -0.5978   -1.7741    2.0544 O   0  0  0  0  0  0  0  0  0  0  0  0
   -0.2948   -0.8974    1.2466 C   0  0  0  0  0  0  0  0  0  0  0  0
   -0.3025    0.4837    1.4776 O   0  0  0  0  0  0  0  0  0  0  0  0
   -0.1528    1.2077    0.2362 C   0  0  0  0  0  0  0  0  0  0  0  0
    1.2041    0.8250   -0.2544 C   0  0  0  0  0  0  0  0  0  0  0  0
    1.3982   -0.4857   -0.3775 C   0  0  0  0  0  0  0  0  0  0  0  0
    0.1304   -1.2767   -0.1286 C   0  0  0  0  0  0  0  0  0  0  0  0
   -0.7959   -0.7298   -1.0260 O   0  0  0  0  0  0  0  0  0  0  0  0
   -1.1997    0.5411   -0.6685 C   0  0  0  0  0  0  0  0  0  0  0  0
   -0.3078    2.2693    0.3478 H   0  0  0  0  0  0  0  0  0  0  0  0
    1.9519    1.5679   -0.4845 H   0  0  0  0  0  0  0  0  0  0  0  0
    2.3089   -0.9819   -0.6195 H   0  0  0  0  0  0  0  0  0  0  0  0
    0.2688   -2.3410   -0.2604 H   0  0  0  0  0  0  0  0  0  0  0  0
   -2.1306    0.4143   -0.0408 H   0  0  0  0  0  0  0  0  0  0  0  0
   -1.4803    1.1775   -1.5023 H   0  0  0  0  0  0  0  0  0  0  0  0
  1  2  2  0
  2  3  1  0
  3  4  1  0
  4  5  1  0
  5  6  2  0
  6  7  1  0
  7  8  1  0
  8  9  1  0
  7  2  1  0
  9  4  1  0
  4 10  1  0
  5 11  1  0
  6 12  1  0
  7 13  1  0
  9 14  1  0
  9 15  1  0
M  END
