
     RDKit          3D

 14 15  0  0  0  0  0  0  0  0999 V2000
    2.6230   -0.4203   -0.9457 O   0  0  0  0  0  0  0  0  0  0  0  0
    1.4843   -0.5603   -0.4525 C   0  0  0  0  0  0  0  0  0  0  0  0
    0.4648   -1.4518   -0.8396 O   0  0  0  0  0  0  0  0  0  0  0  0
   -0.6308   -1.1463   -0.0069 C   0  0  0  0  0  0  0  0  0  0  0  0
   -1.2340    0.2141   -0.3380 C   0  0  0  0  0  0  0  0  0  0  0  0
   -0.1104    1.1429    0.1411 C   0  0  0  0  0  0  0  0  0  0  0  0
    0.8696    0.1829    0.6994 C   0  0  0  0  0  0  0  0  0  0  0  0
    0.0303   -0.8368    1.2062 O   0  0  0  0  0  0  0  0  0  0  0  0
   -1.3628   -1.9337    0.0977 H   0  0  0  0  0  0  0  0  0  0  0  0
   -2.0757    0.3754    0.3450 H   0  0  0  0  0  0  0  0  0  0  0  0
   -1.4477    0.3418   -1.3965 H   0  0  0  0  0  0  0  0  0  0  0  0
    0.2956    1.6497   -0.7798 H   0  0  0  0  0  0  0  0  0  0  0  0
   -0.4871    1.8914    0.8596 H   0  0  0  0  0  0  0  0  0  0  0  0
    1.5811    0.5510    1.4099 H   0  0  0  0  0  0  0  0  0  0  0  0
  1  2  2  0
  2  3  1  0
  3  4  1  0
  4  5  1  0
  5  6  1  0
  6  7  1  0
  7  8  1  0
  7  2  1  0
  8  4  1  0
  4  9  1  0
  5 10  1  0
  5 11  1  0
  6 12  1  0
  6 13  1  0
  7 14  1  0
M  END
