
     RDKit          3D

 17 18  0  0  0  0  0  0  0  0999 V2000
   -1.8838    1.1466   -1.7700 O   0  0  0  0  0  0  0  0  0  0  0  0
   -1.3540    0.4418   -0.8880 C   0  0  0  0  0  0  0  0  0  0  0  0
   -1.3787   -0.9424   -0.8935 O   0  0  0  0  0  0  0  0  0  0  0  0
   -0.4471   -1.3979    0.0786 C   0  0  0  0  0  0  0  0  0  0  0  0
    0.8991   -1.1878   -0.5130 C   0  0  0  0  0  0  0  0  0  0  0  0
    1.4877   -0.0054   -0.5541 C   0  0  0  0  0  0  0  0  0  0  0  0
    0.8268    1.2286    0.0058 C   0  0  0  0  0  0  0  0  0  0  0  0
   -0.6295    0.9273    0.2818 C   0  0  0  0  0  0  0  0  0  0  0  0
   -0.6296   -0.3331    1.1626 C   0  0  0  0  0  0  0  0  0  0  0  0
   -0.6292   -2.4060    0.4334 H   0  0  0  0  0  0  0  0  0  0  0  0
    1.4123   -2.0390   -0.9244 H   0  0  0  0  0  0  0  0  0  0  0  0
    2.4675    0.0367   -1.0090 H   0  0  0  0  0  0  0  0  0  0  0  0
    0.9417    2.0936   -0.6636 H   0  0  0  0  0  0  0  0  0  0  0  0
    1.3137    1.4434    0.9818 H   0  0  0  0  0  0  0  0  0  0  0  0
   -1.0742    1.7791    0.7923 H   0  0  0  0  0  0  0  0  0  0  0  0
   -1.5830   -0.4445    1.6817 H   0  0  0  0  0  0  0  0  0  0  0  0
    0.2604   -0.3409    1.7976 H   0  0  0  0  0  0  0  0  0  0  0  0
  1  2  2  0
  2  3  1  0
  3  4  1  0
  4  5  1  0
  5  6  2  0
  6  7  1  0
  7  8  1  0
  8  9  1  0
  8  2  1  0
  9  4  1  0
  4 10  1  0
  5 11  1  0
  6 12  1  0
  7 13  1  0
  7 14  1  0
  8 15  1  0
  9 16  1  0
  9 17  1  0
M  END
