
     RDKit          3D

 17 18  0  0  0  0  0  0  0  0999 V2000
   -2.3583    2.4124    0.4922 O   0  0  0  0  0  0  0  0  0  0  0  0
   -1.5320    1.4753    0.3310 C   0  0  0  0  0  0  0  0  0  0  0  0
   -2.0040    0.2683   -0.1778 O   0  0  0  0  0  0  0  0  0  0  0  0
   -1.4197   -0.9882   -0.0092 C   0  0  0  0  0  0  0  0  0  0  0  0
   -0.0466   -1.1469   -0.5405 C   0  0  0  0  0  0  0  0  0  0  0  0
    0.8920   -0.0717   -0.6622 C   0  0  0  0  0  0  0  0  0  0  0  0
    1.7643    0.1290    0.6281 C   0  0  0  0  0  0  0  0  0  0  0  0
    0.9120    1.1686    0.0145 C   0  0  0  0  0  0  0  0  0  0  0  0
   -0.2029    1.6973    0.6681 O   0  0  0  0  0  0  0  0  0  0  0  0
   -1.4321   -1.2255    1.0971 H   0  0  0  0  0  0  0  0  0  0  0  0
   -2.1390   -1.7267   -0.4432 H   0  0  0  0  0  0  0  0  0  0  0  0
   -0.1823   -1.6819   -1.5378 H   0  0  0  0  0  0  0  0  0  0  0  0
    0.4227   -1.9853    0.0714 H   0  0  0  0  0  0  0  0  0  0  0  0
    1.5749   -0.1524   -1.5747 H   0  0  0  0  0  0  0  0  0  0  0  0
    2.8448    0.1209    0.5216 H   0  0  0  0  0  0  0  0  0  0  0  0
    1.3903   -0.3082    1.5593 H   0  0  0  0  0  0  0  0  0  0  0  0
    1.5158    2.0152   -0.4380 H   0  0  0  0  0  0  0  0  0  0  0  0
  1  2  2  0
  2  3  1  0
  3  4  1  0
  4  5  1  0
  5  6  1  0
  6  7  1  0
  7  8  1  0
  8  9  1  0
  9  2  1  0
  8  6  1  0
  4 10  1  0
  4 11  1  0
  5 12  1  0
  5 13  1  0
  6 14  1  0
  7 15  1  0
  7 16  1  0
  8 17  1  0
M  END
