
     RDKit          3D

 16 16  0  0  0  0  0  0  0  0999 V2000
   -0.8779    0.7531    1.9769 O   0  0  0  0  0  0  0  0  0  0  0  0
   -0.8915    0.2960    0.8729 C   0  0  0  0  0  0  0  0  0  0  0  0
   -1.7603   -0.5445   -0.0252 C   0  0  0  0  0  0  0  0  0  0  0  0
   -0.4570   -1.0112   -0.6850 C   0  0  0  0  0  0  0  0  0  0  0  0
    0.0701    0.3483   -0.2881 C   0  0  0  0  0  0  0  0  0  0  0  0
   -0.3550    1.3537   -1.1565 O   0  0  0  0  0  0  0  0  0  0  0  0
    1.4947    0.4146    0.1261 C   0  0  0  0  0  0  0  0  0  0  0  0
    1.7803   -0.6280    0.9761 O   0  0  0  0  0  0  0  0  0  0  0  0
   -2.2904    0.1276   -0.7300 H   0  0  0  0  0  0  0  0  0  0  0  0
   -2.3365   -1.3187    0.4680 H   0  0  0  0  0  0  0  0  0  0  0  0
   -0.5376   -1.2106   -1.7573 H   0  0  0  0  0  0  0  0  0  0  0  0
    0.0562   -1.8108   -0.0977 H   0  0  0  0  0  0  0  0  0  0  0  0
   -0.4401    2.1913   -0.6276 H   0  0  0  0  0  0  0  0  0  0  0  0
    1.6375    1.3867    0.6833 H   0  0  0  0  0  0  0  0  0  0  0  0
    2.1430    0.4074   -0.7492 H   0  0  0  0  0  0  0  0  0  0  0  0
    2.7644   -0.7551    1.0135 H   0  0  0  0  0  0  0  0  0  0  0  0
  1  2  2  0
  2  3  1  0
  3  4  1  0
  4  5  1  0
  5  6  1  0
  5  7  1  0
  7  8  1  0
  5  2  1  0
  3  9  1  0
  3 10  1  0
  4 11  1  0
  4 12  1  0
  6 13  1  0
  7 14  1  0
  7 15  1  0
  8 16  1  0
M  END
