
     RDKit          3D

 17 18  0  0  0  0  0  0  0  0999 V2000
   -0.7387   -0.1851    2.4939 O   0  0  0  0  0  0  0  0  0  0  0  0
   -0.9237   -0.1569    1.2551 C   0  0  0  0  0  0  0  0  0  0  0  0
   -1.2461   -1.3245    0.5247 O   0  0  0  0  0  0  0  0  0  0  0  0
   -0.9215   -1.0601   -0.8596 C   0  0  0  0  0  0  0  0  0  0  0  0
    0.0992    0.0033   -0.6574 C   0  0  0  0  0  0  0  0  0  0  0  0
    1.2734   -0.6158    0.1398 C   0  0  0  0  0  0  0  0  0  0  0  0
    2.2655    0.3321    0.3617 O   0  0  0  0  0  0  0  0  0  0  0  0
    0.0686    1.4000   -0.6315 C   0  0  0  0  0  0  0  0  0  0  0  0
   -0.8969    0.8645    0.2303 C   0  0  0  0  0  0  0  0  0  0  0  0
   -1.8325   -0.6057   -1.2828 H   0  0  0  0  0  0  0  0  0  0  0  0
   -0.5878   -1.9551   -1.3711 H   0  0  0  0  0  0  0  0  0  0  0  0
    0.8899   -1.0616    1.0762 H   0  0  0  0  0  0  0  0  0  0  0  0
    1.7311   -1.4320   -0.4539 H   0  0  0  0  0  0  0  0  0  0  0  0
    2.0950    0.9305    1.1057 H   0  0  0  0  0  0  0  0  0  0  0  0
   -0.2310    1.9325   -1.5819 H   0  0  0  0  0  0  0  0  0  0  0  0
    0.9137    1.9873   -0.1783 H   0  0  0  0  0  0  0  0  0  0  0  0
   -1.9581    0.9466   -0.1711 H   0  0  0  0  0  0  0  0  0  0  0  0
  1  2  2  0
  2  3  1  0
  3  4  1  0
  4  5  1  0
  5  6  1  0
  6  7  1  0
  5  8  1  0
  8  9  1  0
  9  2  1  0
  9  5  1  0
  4 10  1  0
  4 11  1  0
  6 12  1  0
  6 13  1  0
  7 14  1  0
  8 15  1  0
  8 16  1  0
  9 17  1  0
M  END
