
     RDKit          3D

 17 17  0  0  0  0  0  0  0  0999 V2000
    0.3792    1.8824    1.2752 O   0  0  0  0  0  0  0  0  0  0  0  0
   -0.0680    1.0700    0.4294 C   0  0  0  0  0  0  0  0  0  0  0  0
   -1.4592    1.0091   -0.1066 C   0  0  0  0  0  0  0  0  0  0  0  0
   -1.6409   -0.4857   -0.2270 C   0  0  0  0  0  0  0  0  0  0  0  0
   -1.9160   -1.0643    1.0070 O   0  0  0  0  0  0  0  0  0  0  0  0
   -0.2944   -0.9248   -0.6455 C   0  0  0  0  0  0  0  0  0  0  0  0
    0.6098   -0.0234   -0.2636 C   0  0  0  0  0  0  0  0  0  0  0  0
    2.0980   -0.0724   -0.4787 C   0  0  0  0  0  0  0  0  0  0  0  0
    2.6846   -0.0538    0.7889 O   0  0  0  0  0  0  0  0  0  0  0  0
   -1.4349    1.4518   -1.1196 H   0  0  0  0  0  0  0  0  0  0  0  0
   -2.1857    1.4839    0.5682 H   0  0  0  0  0  0  0  0  0  0  0  0
   -2.4306   -0.7473   -0.9511 H   0  0  0  0  0  0  0  0  0  0  0  0
   -1.5752   -0.5089    1.7579 H   0  0  0  0  0  0  0  0  0  0  0  0
    0.0098   -1.8250   -1.1840 H   0  0  0  0  0  0  0  0  0  0  0  0
    2.4660    0.7860   -1.0491 H   0  0  0  0  0  0  0  0  0  0  0  0
    2.3240   -1.0399   -1.0044 H   0  0  0  0  0  0  0  0  0  0  0  0
    2.4335   -0.9380    1.2030 H   0  0  0  0  0  0  0  0  0  0  0  0
  1  2  2  0
  2  3  1  0
  3  4  1  0
  4  5  1  0
  4  6  1  0
  6  7  2  0
  7  8  1  0
  8  9  1  0
  7  2  1  0
  3 10  1  0
  3 11  1  0
  4 12  1  0
  5 13  1  0
  6 14  1  0
  8 15  1  0
  8 16  1  0
  9 17  1  0
M  END
