
     RDKit          3D

 15 16  0  0  0  0  0  0  0  0999 V2000
   -0.1756    2.4280   -0.0050 O   0  0  0  0  0  0  0  0  0  0  0  0
    0.4154    1.3175   -0.0045 C   0  0  0  0  0  0  0  0  0  0  0  0
    1.7695    1.1761    0.2717 O   0  0  0  0  0  0  0  0  0  0  0  0
    2.1071   -0.1596   -0.0815 C   0  0  0  0  0  0  0  0  0  0  0  0
    1.0443   -0.6649   -0.8085 O   0  0  0  0  0  0  0  0  0  0  0  0
   -0.0496   -0.0441   -0.2607 C   0  0  0  0  0  0  0  0  0  0  0  0
   -0.7626   -0.6851    0.9292 C   0  0  0  0  0  0  0  0  0  0  0  0
   -1.4224   -0.4644   -0.3939 C   0  0  0  0  0  0  0  0  0  0  0  0
   -2.4666    0.4502   -0.4177 O   0  0  0  0  0  0  0  0  0  0  0  0
    2.2891   -0.7864    0.8333 H   0  0  0  0  0  0  0  0  0  0  0  0
    3.0699   -0.1988   -0.6516 H   0  0  0  0  0  0  0  0  0  0  0  0
   -0.3349   -1.6574    1.2035 H   0  0  0  0  0  0  0  0  0  0  0  0
   -1.0844   -0.0136    1.7648 H   0  0  0  0  0  0  0  0  0  0  0  0
   -1.6186   -1.3493   -1.0637 H   0  0  0  0  0  0  0  0  0  0  0  0
   -2.7806    0.6518   -1.3153 H   0  0  0  0  0  0  0  0  0  0  0  0
  1  2  2  0
  2  3  1  0
  3  4  1  0
  4  5  1  0
  5  6  1  0
  6  7  1  0
  7  8  1  0
  8  9  1  0
  6  2  1  0
  8  6  1  0
  4 10  1  0
  4 11  1  0
  7 12  1  0
  7 13  1  0
  8 14  1  0
  9 15  1  0
M  END
