
     RDKit          3D

 17 19  0  0  0  0  0  0  0  0999 V2000
   -1.7223    2.5409   -0.2329 O   0  0  0  0  0  0  0  0  0  0  0  0
   -1.4523    1.3589    0.0946 C   0  0  0  0  0  0  0  0  0  0  0  0
   -2.3055    0.2649    0.1385 O   0  0  0  0  0  0  0  0  0  0  0  0
   -1.5249   -0.8902   -0.1104 C   0  0  0  0  0  0  0  0  0  0  0  0
   -0.2897   -0.6259    0.7111 C   0  0  0  0  0  0  0  0  0  0  0  0
    0.9606   -0.9123   -0.0403 C   0  0  0  0  0  0  0  0  0  0  0  0
    2.1139   -0.0244   -0.1189 C   0  0  0  0  0  0  0  0  0  0  0  0
    0.8329    0.5398   -0.5985 C   0  0  0  0  0  0  0  0  0  0  0  0
   -0.1339    0.8873    0.5099 C   0  0  0  0  0  0  0  0  0  0  0  0
   -2.0762   -1.7899    0.2094 H   0  0  0  0  0  0  0  0  0  0  0  0
   -1.2385   -0.9035   -1.1817 H   0  0  0  0  0  0  0  0  0  0  0  0
   -0.3416   -0.9377    1.7609 H   0  0  0  0  0  0  0  0  0  0  0  0
    0.8899   -1.7274   -0.7769 H   0  0  0  0  0  0  0  0  0  0  0  0
    2.5382    0.4922    0.7865 H   0  0  0  0  0  0  0  0  0  0  0  0
    2.8708   -0.2279   -0.8759 H   0  0  0  0  0  0  0  0  0  0  0  0
    0.5341    0.5768   -1.6412 H   0  0  0  0  0  0  0  0  0  0  0  0
    0.3444    1.3784    1.3661 H   0  0  0  0  0  0  0  0  0  0  0  0
  1  2  2  0
  2  3  1  0
  3  4  1  0
  4  5  1  0
  5  6  1  0
  6  7  1  0
  7  8  1  0
  8  9  1  0
  9  2  1  0
  9  5  1  0
  8  6  1  0
  4 10  1  0
  4 11  1  0
  5 12  1  0
  6 13  1  0
  7 14  1  0
  7 15  1  0
  8 16  1  0
  9 17  1  0
M  END
