
     RDKit          3D

 16 17  0  0  0  0  0  0  0  0999 V2000
    0.2132   -2.2746   -0.5545 O   0  0  0  0  0  0  0  0  0  0  0  0
   -0.1237   -1.2007   -0.1492 C   0  0  0  0  0  0  0  0  0  0  0  0
   -1.5039   -0.7156    0.0078 C   0  0  0  0  0  0  0  0  0  0  0  0
   -1.3568    0.7400   -0.4453 C   0  0  0  0  0  0  0  0  0  0  0  0
    0.0212    1.1653    0.0164 C   0  0  0  0  0  0  0  0  0  0  0  0
    0.7743   -0.1194    0.2850 C   0  0  0  0  0  0  0  0  0  0  0  0
    2.1714   -0.2777    0.2694 C   0  0  0  0  0  0  0  0  0  0  0  0
    1.4594   -0.2610    1.4859 O   0  0  0  0  0  0  0  0  0  0  0  0
   -1.8446   -0.7434    1.0815 H   0  0  0  0  0  0  0  0  0  0  0  0
   -2.2397   -1.2376   -0.6411 H   0  0  0  0  0  0  0  0  0  0  0  0
   -2.1518    1.3281    0.0222 H   0  0  0  0  0  0  0  0  0  0  0  0
   -1.4158    0.7133   -1.5541 H   0  0  0  0  0  0  0  0  0  0  0  0
    0.5702    1.7146   -0.7788 H   0  0  0  0  0  0  0  0  0  0  0  0
   -0.0738    1.8133    0.8878 H   0  0  0  0  0  0  0  0  0  0  0  0
    2.8585    0.5945    0.0823 H   0  0  0  0  0  0  0  0  0  0  0  0
    2.6418   -1.2392   -0.0152 H   0  0  0  0  0  0  0  0  0  0  0  0
  1  2  2  0
  2  3  1  0
  3  4  1  0
  4  5  1  0
  5  6  1  0
  6  7  1  0
  7  8  1  0
  6  2  1  0
  8  6  1  0
  3  9  1  0
  3 10  1  0
  4 11  1  0
  4 12  1  0
  5 13  1  0
  5 14  1  0
  7 15  1  0
  7 16  1  0
M  END
