
     RDKit          3D

 17 18  0  0  0  0  0  0  0  0999 V2000
   -1.8051    0.0170    2.2429 O   0  0  0  0  0  0  0  0  0  0  0  0
   -1.2350   -0.0158    1.1729 C   0  0  0  0  0  0  0  0  0  0  0  0
   -1.4580   -0.5844   -0.1997 C   0  0  0  0  0  0  0  0  0  0  0  0
   -0.6780    0.6283   -0.7182 C   0  0  0  0  0  0  0  0  0  0  0  0
   -1.5094    1.7292   -0.7508 O   0  0  0  0  0  0  0  0  0  0  0  0
    0.0594    0.5201    0.6245 C   0  0  0  0  0  0  0  0  0  0  0  0
    1.0827   -0.5926    0.6282 C   0  0  0  0  0  0  0  0  0  0  0  0
    2.4469   -0.3123    0.1311 C   0  0  0  0  0  0  0  0  0  0  0  0
    1.5446   -1.0790   -0.5988 O   0  0  0  0  0  0  0  0  0  0  0  0
   -2.4946   -0.6449   -0.5235 H   0  0  0  0  0  0  0  0  0  0  0  0
   -0.8370   -1.4938   -0.3260 H   0  0  0  0  0  0  0  0  0  0  0  0
   -0.0589    0.4354   -1.5976 H   0  0  0  0  0  0  0  0  0  0  0  0
   -2.4678    1.4958   -0.8716 H   0  0  0  0  0  0  0  0  0  0  0  0
    0.3902    1.4680    1.0454 H   0  0  0  0  0  0  0  0  0  0  0  0
    1.0039   -1.3986    1.3949 H   0  0  0  0  0  0  0  0  0  0  0  0
    3.3068   -0.8190    0.6317 H   0  0  0  0  0  0  0  0  0  0  0  0
    2.7090    0.6467   -0.3256 H   0  0  0  0  0  0  0  0  0  0  0  0
  1  2  2  0
  2  3  1  0
  3  4  1  0
  4  5  1  0
  4  6  1  0
  6  7  1  0
  7  8  1  0
  8  9  1  0
  6  2  1  0
  9  7  1  0
  3 10  1  0
  3 11  1  0
  4 12  1  0
  5 13  1  0
  6 14  1  0
  7 15  1  0
  8 16  1  0
  8 17  1  0
M  END
