
     RDKit          3D

 17 18  0  0  0  0  0  0  0  0999 V2000
    0.3332   -2.5006   -0.4841 O   0  0  0  0  0  0  0  0  0  0  0  0
   -0.0436   -1.3807   -0.2723 C   0  0  0  0  0  0  0  0  0  0  0  0
   -1.4669   -1.0035   -0.0630 C   0  0  0  0  0  0  0  0  0  0  0  0
   -1.4865    0.5024    0.0793 C   0  0  0  0  0  0  0  0  0  0  0  0
   -0.0966    0.7770    0.6071 C   0  0  0  0  0  0  0  0  0  0  0  0
    0.2657    2.0906    0.5708 O   0  0  0  0  0  0  0  0  0  0  0  0
    0.7563   -0.1567   -0.1696 C   0  0  0  0  0  0  0  0  0  0  0  0
    2.2003   -0.1174   -0.2351 C   0  0  0  0  0  0  0  0  0  0  0  0
    1.4139    0.2353   -1.3176 O   0  0  0  0  0  0  0  0  0  0  0  0
   -2.0585   -1.3675   -0.9156 H   0  0  0  0  0  0  0  0  0  0  0  0
   -1.8170   -1.4573    0.8896 H   0  0  0  0  0  0  0  0  0  0  0  0
   -1.6248    1.0232   -0.8869 H   0  0  0  0  0  0  0  0  0  0  0  0
   -2.2356    0.8637    0.7972 H   0  0  0  0  0  0  0  0  0  0  0  0
   -0.1038    0.4370    1.6730 H   0  0  0  0  0  0  0  0  0  0  0  0
    0.4916    2.4279   -0.3223 H   0  0  0  0  0  0  0  0  0  0  0  0
    2.7432   -1.0756   -0.2172 H   0  0  0  0  0  0  0  0  0  0  0  0
    2.7289    0.7022    0.2665 H   0  0  0  0  0  0  0  0  0  0  0  0
  1  2  2  0
  2  3  1  0
  3  4  1  0
  4  5  1  0
  5  6  1  0
  5  7  1  0
  7  8  1  0
  8  9  1  0
  7  2  1  0
  9  7  1  0
  3 10  1  0
  3 11  1  0
  4 12  1  0
  4 13  1  0
  5 14  1  0
  6 15  1  0
  8 16  1  0
  8 17  1  0
M  END
