
     RDKit          3D

 15 16  0  0  0  0  0  0  0  0999 V2000
   -1.6946   -0.6337    2.1590 O   0  0  0  0  0  0  0  0  0  0  0  0
   -0.8285   -0.3846    1.2986 C   0  0  0  0  0  0  0  0  0  0  0  0
    0.5266   -0.6301    1.4777 O   0  0  0  0  0  0  0  0  0  0  0  0
    1.3554   -0.3300    0.3359 C   0  0  0  0  0  0  0  0  0  0  0  0
    1.0016    1.1188    0.0421 C   0  0  0  0  0  0  0  0  0  0  0  0
   -0.2768    1.3704   -0.1807 C   0  0  0  0  0  0  0  0  0  0  0  0
   -1.2255    0.2194   -0.0318 C   0  0  0  0  0  0  0  0  0  0  0  0
   -0.6338   -0.7720   -1.0017 C   0  0  0  0  0  0  0  0  0  0  0  0
    0.6411   -1.0573   -0.7926 C   0  0  0  0  0  0  0  0  0  0  0  0
    2.3823   -0.5387    0.4329 H   0  0  0  0  0  0  0  0  0  0  0  0
    1.7807    1.8568    0.0279 H   0  0  0  0  0  0  0  0  0  0  0  0
   -0.7037    2.3063   -0.4553 H   0  0  0  0  0  0  0  0  0  0  0  0
   -2.2553    0.4287   -0.1482 H   0  0  0  0  0  0  0  0  0  0  0  0
   -1.2511   -1.1724   -1.7720 H   0  0  0  0  0  0  0  0  0  0  0  0
    1.1816   -1.7814   -1.3917 H   0  0  0  0  0  0  0  0  0  0  0  0
  1  2  2  0
  2  3  1  0
  3  4  1  0
  4  5  1  0
  5  6  2  0
  6  7  1  0
  7  8  1  0
  8  9  2  0
  7  2  1  0
  9  4  1  0
  4 10  1  0
  5 11  1  0
  6 12  1  0
  7 13  1  0
  8 14  1  0
  9 15  1  0
M  END
