
     RDKit          3D

 15 15  0  0  0  0  0  0  0  0999 V2000
    2.4402   -1.1952    0.4611 O   0  0  0  0  0  0  0  0  0  0  0  0
    1.3890   -0.5933    0.1176 C   0  0  0  0  0  0  0  0  0  0  0  0
    0.2215   -1.4693   -0.1773 C   0  0  0  0  0  0  0  0  0  0  0  0
   -1.0016   -0.7172    0.3365 C   0  0  0  0  0  0  0  0  0  0  0  0
   -1.3503    0.1929   -0.6275 O   0  0  0  0  0  0  0  0  0  0  0  0
   -1.0269    1.4968   -0.3353 C   0  0  0  0  0  0  0  0  0  0  0  0
    0.3350    1.7192   -0.0991 O   0  0  0  0  0  0  0  0  0  0  0  0
    1.4291    0.8652    0.0478 C   0  0  0  0  0  0  0  0  0  0  0  0
    2.5665    1.3511    0.1312 O   0  0  0  0  0  0  0  0  0  0  0  0
    0.3162   -2.4620    0.2823 H   0  0  0  0  0  0  0  0  0  0  0  0
    0.1579   -1.5545   -1.2988 H   0  0  0  0  0  0  0  0  0  0  0  0
   -1.8048   -1.4608    0.5583 H   0  0  0  0  0  0  0  0  0  0  0  0
   -0.7543   -0.2034    1.3087 H   0  0  0  0  0  0  0  0  0  0  0  0
   -1.3069    2.1112   -1.2281 H   0  0  0  0  0  0  0  0  0  0  0  0
   -1.6106    1.9194    0.5225 H   0  0  0  0  0  0  0  0  0  0  0  0
  1  2  2  0
  2  3  1  0
  3  4  1  0
  4  5  1  0
  5  6  1  0
  6  7  1  0
  7  8  1  0
  8  9  2  0
  8  2  1  0
  3 10  1  0
  3 11  1  0
  4 12  1  0
  4 13  1  0
  6 14  1  0
  6 15  1  0
M  END
