
     RDKit          3D

 17 18  0  0  0  0  0  0  0  0999 V2000
   -1.4237   -1.1822    2.3226 O   0  0  0  0  0  0  0  0  0  0  0  0
   -0.9758   -0.4827    1.4051 C   0  0  0  0  0  0  0  0  0  0  0  0
   -0.3284    0.7306    1.5629 O   0  0  0  0  0  0  0  0  0  0  0  0
    0.0520    1.2157    0.2598 C   0  0  0  0  0  0  0  0  0  0  0  0
   -1.1599    0.7026   -0.5420 C   0  0  0  0  0  0  0  0  0  0  0  0
   -1.0117   -0.7447   -0.0312 C   0  0  0  0  0  0  0  0  0  0  0  0
    0.4169   -0.9906   -0.4728 C   0  0  0  0  0  0  0  0  0  0  0  0
    1.1250    0.3615   -0.3239 C   0  0  0  0  0  0  0  0  0  0  0  0
    2.2656    0.2683    0.4375 O   0  0  0  0  0  0  0  0  0  0  0  0
    0.1801    2.2756    0.2113 H   0  0  0  0  0  0  0  0  0  0  0  0
   -2.0889    1.1588   -0.2205 H   0  0  0  0  0  0  0  0  0  0  0  0
   -0.9134    0.7877   -1.5998 H   0  0  0  0  0  0  0  0  0  0  0  0
   -1.7434   -1.4163   -0.4085 H   0  0  0  0  0  0  0  0  0  0  0  0
    0.5001   -1.3938   -1.4849 H   0  0  0  0  0  0  0  0  0  0  0  0
    0.8730   -1.6781    0.2598 H   0  0  0  0  0  0  0  0  0  0  0  0
    1.3316    0.7028   -1.3490 H   0  0  0  0  0  0  0  0  0  0  0  0
    2.9011   -0.3152   -0.0263 H   0  0  0  0  0  0  0  0  0  0  0  0
  1  2  2  0
  2  3  1  0
  3  4  1  0
  4  5  1  0
  5  6  1  0
  6  7  1  0
  7  8  1  0
  8  9  1  0
  6  2  1  0
  8  4  1  0
  4 10  1  0
  5 11  1  0
  5 12  1  0
  6 13  1  0
  7 14  1  0
  7 15  1  0
  8 16  1  0
  9 17  1  0
M  END
