
     RDKit          3D

 17 18  0  0  0  0  0  0  0  0999 V2000
    3.2910    0.2640    0.8719 O   0  0  0  0  0  0  0  0  0  0  0  0
    2.1038   -0.0026    0.7010 C   0  0  0  0  0  0  0  0  0  0  0  0
    0.9184    0.5205    1.3899 C   0  0  0  0  0  0  0  0  0  0  0  0
   -0.1390    0.3980    0.6197 C   0  0  0  0  0  0  0  0  0  0  0  0
   -1.6016    0.5950    0.4201 C   0  0  0  0  0  0  0  0  0  0  0  0
   -1.8353   -0.0400   -0.9257 C   0  0  0  0  0  0  0  0  0  0  0  0
   -0.8159   -0.9835   -1.0226 O   0  0  0  0  0  0  0  0  0  0  0  0
    0.2937   -0.2113   -0.6902 C   0  0  0  0  0  0  0  0  0  0  0  0
    1.5089   -0.9717   -0.2944 C   0  0  0  0  0  0  0  0  0  0  0  0
    0.8974    0.9519    2.3927 H   0  0  0  0  0  0  0  0  0  0  0  0
   -2.2060    0.0655    1.1824 H   0  0  0  0  0  0  0  0  0  0  0  0
   -1.7864    1.6904    0.4147 H   0  0  0  0  0  0  0  0  0  0  0  0
   -2.8399   -0.5018   -1.0154 H   0  0  0  0  0  0  0  0  0  0  0  0
   -1.7034    0.7646   -1.7060 H   0  0  0  0  0  0  0  0  0  0  0  0
    0.4848    0.5591   -1.4525 H   0  0  0  0  0  0  0  0  0  0  0  0
    2.2056   -1.1907   -1.1062 H   0  0  0  0  0  0  0  0  0  0  0  0
    1.2239   -1.9073    0.2205 H   0  0  0  0  0  0  0  0  0  0  0  0
  1  2  2  0
  2  3  1  0
  3  4  2  0
  4  5  1  0
  5  6  1  0
  6  7  1  0
  7  8  1  0
  8  9  1  0
  9  2  1  0
  8  4  1  0
  3 10  1  0
  5 11  1  0
  5 12  1  0
  6 13  1  0
  6 14  1  0
  8 15  1  0
  9 16  1  0
  9 17  1  0
M  END
