
     RDKit          3D

 18 19  0  0  0  0  0  0  0  0999 V2000
    3.1710    0.7322   -0.3298 O   0  0  0  0  0  0  0  0  0  0  0  0
    2.0769    0.4025    0.0409 C   0  0  0  0  0  0  0  0  0  0  0  0
    0.8699    1.0942    0.5463 C   0  0  0  0  0  0  0  0  0  0  0  0
    0.0912   -0.0828    0.0755 C   0  0  0  0  0  0  0  0  0  0  0  0
   -0.6000   -0.0146   -1.2187 C   0  0  0  0  0  0  0  0  0  0  0  0
   -1.9252    0.0235   -0.4461 C   0  0  0  0  0  0  0  0  0  0  0  0
   -1.1233   -0.4857    0.7606 C   0  0  0  0  0  0  0  0  0  0  0  0
    1.3427   -0.8732    0.1932 C   0  0  0  0  0  0  0  0  0  0  0  0
    0.8773    1.1152    1.6738 H   0  0  0  0  0  0  0  0  0  0  0  0
    0.6319    2.0662    0.0970 H   0  0  0  0  0  0  0  0  0  0  0  0
   -0.5155   -0.9629   -1.7926 H   0  0  0  0  0  0  0  0  0  0  0  0
   -0.3719    0.9012   -1.7753 H   0  0  0  0  0  0  0  0  0  0  0  0
   -2.2110    1.0790   -0.2938 H   0  0  0  0  0  0  0  0  0  0  0  0
   -2.6920   -0.6569   -0.8068 H   0  0  0  0  0  0  0  0  0  0  0  0
   -1.3457    0.1199    1.6699 H   0  0  0  0  0  0  0  0  0  0  0  0
   -1.3119   -1.5518    0.9847 H   0  0  0  0  0  0  0  0  0  0  0  0
    1.5249   -1.6336   -0.5979 H   0  0  0  0  0  0  0  0  0  0  0  0
    1.5110   -1.2723    1.2191 H   0  0  0  0  0  0  0  0  0  0  0  0
  1  2  2  0
  2  3  1  0
  3  4  1  0
  4  5  1  0
  5  6  1  0
  6  7  1  0
  4  8  1  0
  8  2  1  0
  7  4  1  0
  3  9  1  0
  3 10  1  0
  5 11  1  0
  5 12  1  0
  6 13  1  0
  6 14  1  0
  7 15  1  0
  7 16  1  0
  8 17  1  0
  8 18  1  0
M  END
