
     RDKit          3D

 15 16  0  0  0  0  0  0  0  0999 V2000
   -1.3616    2.5607   -0.9559 O   0  0  0  0  0  0  0  0  0  0  0  0
   -1.2489    1.4059   -0.5055 C   0  0  0  0  0  0  0  0  0  0  0  0
   -2.2501    0.4295   -0.2924 O   0  0  0  0  0  0  0  0  0  0  0  0
   -1.6035   -0.8107    0.0737 C   0  0  0  0  0  0  0  0  0  0  0  0
   -0.1812   -0.6417   -0.3595 C   0  0  0  0  0  0  0  0  0  0  0  0
    0.7060   -1.2653    0.4706 O   0  0  0  0  0  0  0  0  0  0  0  0
    1.8615   -0.4553    0.4510 C   0  0  0  0  0  0  0  0  0  0  0  0
    1.2572    0.9239    0.3576 C   0  0  0  0  0  0  0  0  0  0  0  0
    0.0278    0.8391   -0.0966 C   0  0  0  0  0  0  0  0  0  0  0  0
   -1.6904   -0.9918    1.1620 H   0  0  0  0  0  0  0  0  0  0  0  0
   -2.0823   -1.6684   -0.4363 H   0  0  0  0  0  0  0  0  0  0  0  0
    0.0025   -0.8937   -1.4048 H   0  0  0  0  0  0  0  0  0  0  0  0
    2.4244   -0.7254   -0.4603 H   0  0  0  0  0  0  0  0  0  0  0  0
    2.4276   -0.5682    1.3898 H   0  0  0  0  0  0  0  0  0  0  0  0
    1.7110    1.8614    0.6066 H   0  0  0  0  0  0  0  0  0  0  0  0
  1  2  2  0
  2  3  1  0
  3  4  1  0
  4  5  1  0
  5  6  1  0
  6  7  1  0
  7  8  1  0
  8  9  2  0
  9  2  1  0
  9  5  1  0
  4 10  1  0
  4 11  1  0
  5 12  1  0
  7 13  1  0
  7 14  1  0
  8 15  1  0
M  END
