
     RDKit          3D

 17 17  0  0  0  0  0  0  0  0999 V2000
   -1.9923   -1.7023    0.9275 O   0  0  0  0  0  0  0  0  0  0  0  0
   -1.0416   -1.0298    0.4671 C   0  0  0  0  0  0  0  0  0  0  0  0
    0.2018   -1.3899    0.8764 O   0  0  0  0  0  0  0  0  0  0  0  0
    1.4915   -0.8626    0.7610 C   0  0  0  0  0  0  0  0  0  0  0  0
    1.6878    0.1383   -0.3118 C   0  0  0  0  0  0  0  0  0  0  0  0
    0.7274    1.2912   -0.1316 C   0  0  0  0  0  0  0  0  0  0  0  0
   -0.5856    1.2351   -0.1961 C   0  0  0  0  0  0  0  0  0  0  0  0
   -1.4353    0.0561   -0.4554 C   0  0  0  0  0  0  0  0  0  0  0  0
   -2.7827    0.3814   -0.3284 O   0  0  0  0  0  0  0  0  0  0  0  0
    2.2183   -1.6955    0.5974 H   0  0  0  0  0  0  0  0  0  0  0  0
    1.8112   -0.3947    1.7382 H   0  0  0  0  0  0  0  0  0  0  0  0
    2.7171    0.4748   -0.3548 H   0  0  0  0  0  0  0  0  0  0  0  0
    1.3982   -0.3213   -1.2894 H   0  0  0  0  0  0  0  0  0  0  0  0
    1.1833    2.2755    0.0744 H   0  0  0  0  0  0  0  0  0  0  0  0
   -1.1181    2.1522   -0.0433 H   0  0  0  0  0  0  0  0  0  0  0  0
   -1.1879   -0.2951   -1.4842 H   0  0  0  0  0  0  0  0  0  0  0  0
   -3.2929   -0.3132   -0.8470 H   0  0  0  0  0  0  0  0  0  0  0  0
  1  2  2  0
  2  3  1  0
  3  4  1  0
  4  5  1  0
  5  6  1  0
  6  7  2  0
  7  8  1  0
  8  9  1  0
  8  2  1  0
  4 10  1  0
  4 11  1  0
  5 12  1  0
  5 13  1  0
  6 14  1  0
  7 15  1  0
  8 16  1  0
  9 17  1  0
M  END
