
     RDKit          3D

 15 16  0  0  0  0  0  0  0  0999 V2000
   -2.0851   -0.2592    1.7091 O   0  0  0  0  0  0  0  0  0  0  0  0
   -1.4639   -0.4308    0.6216 C   0  0  0  0  0  0  0  0  0  0  0  0
   -0.9621   -1.6060    0.0784 O   0  0  0  0  0  0  0  0  0  0  0  0
    0.1132   -1.1353   -0.7323 C   0  0  0  0  0  0  0  0  0  0  0  0
    1.1787   -0.6112    0.1976 C   0  0  0  0  0  0  0  0  0  0  0  0
    1.1831    0.8799    0.1880 C   0  0  0  0  0  0  0  0  0  0  0  0
    0.0115    1.4644    0.0791 C   0  0  0  0  0  0  0  0  0  0  0  0
   -1.1054    0.6195   -0.3785 C   0  0  0  0  0  0  0  0  0  0  0  0
   -0.5510   -0.1372   -1.4426 O   0  0  0  0  0  0  0  0  0  0  0  0
    0.5032   -1.9361   -1.3891 H   0  0  0  0  0  0  0  0  0  0  0  0
    0.9880   -0.9087    1.2632 H   0  0  0  0  0  0  0  0  0  0  0  0
    2.1915   -1.0261   -0.0612 H   0  0  0  0  0  0  0  0  0  0  0  0
    2.1236    1.4172    0.2692 H   0  0  0  0  0  0  0  0  0  0  0  0
   -0.1326    2.4895    0.3055 H   0  0  0  0  0  0  0  0  0  0  0  0
   -1.9927    1.1802   -0.7080 H   0  0  0  0  0  0  0  0  0  0  0  0
  1  2  2  0
  2  3  1  0
  3  4  1  0
  4  5  1  0
  5  6  1  0
  6  7  2  0
  7  8  1  0
  8  9  1  0
  8  2  1  0
  9  4  1  0
  4 10  1  0
  5 11  1  0
  5 12  1  0
  6 13  1  0
  7 14  1  0
  8 15  1  0
M  END
