
     RDKit          3D

 21 22  0  0  0  0  0  0  0  0999 V2000
    2.2695   -1.8156    0.1907 O   0  0  0  0  0  0  0  0  0  0  0  0
    1.7801   -0.7414   -0.0736 C   0  0  0  0  0  0  0  0  0  0  0  0
    2.0192    0.6773    0.2853 C   0  0  0  0  0  0  0  0  0  0  0  0
    0.6007    0.9686   -0.1627 C   0  0  0  0  0  0  0  0  0  0  0  0
   -0.3965    1.0490    0.9304 C   0  0  0  0  0  0  0  0  0  0  0  0
   -1.7240    0.5272    0.3902 C   0  0  0  0  0  0  0  0  0  0  0  0
   -1.4649   -0.9793    0.2523 C   0  0  0  0  0  0  0  0  0  0  0  0
   -0.5340   -1.1597   -0.8966 C   0  0  0  0  0  0  0  0  0  0  0  0
    0.6515   -0.2921   -0.9226 C   0  0  0  0  0  0  0  0  0  0  0  0
    2.7544    1.1207   -0.4464 H   0  0  0  0  0  0  0  0  0  0  0  0
    2.2337    0.8485    1.3387 H   0  0  0  0  0  0  0  0  0  0  0  0
    0.5631    1.8768   -0.8062 H   0  0  0  0  0  0  0  0  0  0  0  0
   -0.1440    0.4117    1.8127 H   0  0  0  0  0  0  0  0  0  0  0  0
   -0.5639    2.0807    1.2494 H   0  0  0  0  0  0  0  0  0  0  0  0
   -1.8321    0.9034   -0.6528 H   0  0  0  0  0  0  0  0  0  0  0  0
   -2.5648    0.7504    1.0337 H   0  0  0  0  0  0  0  0  0  0  0  0
   -2.3929   -1.5220    0.0537 H   0  0  0  0  0  0  0  0  0  0  0  0
   -0.9414   -1.3661    1.1681 H   0  0  0  0  0  0  0  0  0  0  0  0
   -0.1929   -2.2343   -0.9270 H   0  0  0  0  0  0  0  0  0  0  0  0
   -1.1227   -0.9985   -1.8378 H   0  0  0  0  0  0  0  0  0  0  0  0
    1.0021   -0.1051   -1.9794 H   0  0  0  0  0  0  0  0  0  0  0  0
  1  2  2  0
  2  3  1  0
  3  4  1  0
  4  5  1  0
  5  6  1  0
  6  7  1  0
  7  8  1  0
  8  9  1  0
  9  2  1  0
  9  4  1  0
  3 10  1  0
  3 11  1  0
  4 12  1  0
  5 13  1  0
  5 14  1  0
  6 15  1  0
  6 16  1  0
  7 17  1  0
  7 18  1  0
  8 19  1  0
  8 20  1  0
  9 21  1  0
M  END
