
     RDKit          3D

 17 18  0  0  0  0  0  0  0  0999 V2000
   -1.4619   -2.6440   -0.5809 O   0  0  0  0  0  0  0  0  0  0  0  0
   -0.9703   -1.5813   -0.4043 C   0  0  0  0  0  0  0  0  0  0  0  0
   -0.6592   -0.7073    0.7453 C   0  0  0  0  0  0  0  0  0  0  0  0
   -1.4986    0.4972    0.4040 C   0  0  0  0  0  0  0  0  0  0  0  0
   -1.2562    0.5512   -0.9858 O   0  0  0  0  0  0  0  0  0  0  0  0
   -0.3752   -0.4901   -1.1950 C   0  0  0  0  0  0  0  0  0  0  0  0
    0.6096   -0.3900   -0.0107 C   0  0  0  0  0  0  0  0  0  0  0  0
    1.1870    0.9685    0.1840 C   0  0  0  0  0  0  0  0  0  0  0  0
    2.3582    1.0658   -0.5984 O   0  0  0  0  0  0  0  0  0  0  0  0
   -0.6194   -1.0827    1.7249 H   0  0  0  0  0  0  0  0  0  0  0  0
   -2.5617    0.2200    0.6061 H   0  0  0  0  0  0  0  0  0  0  0  0
   -1.2075    1.4162    0.9188 H   0  0  0  0  0  0  0  0  0  0  0  0
    0.0398   -0.6750   -2.1510 H   0  0  0  0  0  0  0  0  0  0  0  0
    1.3401   -1.2212   -0.0254 H   0  0  0  0  0  0  0  0  0  0  0  0
    0.4780    1.7524   -0.1652 H   0  0  0  0  0  0  0  0  0  0  0  0
    1.4302    1.1985    1.2389 H   0  0  0  0  0  0  0  0  0  0  0  0
    3.1669    1.1216   -0.0179 H   0  0  0  0  0  0  0  0  0  0  0  0
  1  2  2  0
  2  3  1  0
  3  4  1  0
  4  5  1  0
  5  6  1  0
  6  7  1  0
  7  8  1  0
  8  9  1  0
  6  2  1  0
  7  3  1  0
  3 10  1  0
  4 11  1  0
  4 12  1  0
  6 13  1  0
  7 14  1  0
  8 15  1  0
  8 16  1  0
  9 17  1  0
M  END
