
     RDKit          3D

 17 18  0  0  0  0  0  0  0  0999 V2000
   -0.4682   -1.5137    2.4040 O   0  0  0  0  0  0  0  0  0  0  0  0
   -0.1717   -0.7248    1.4958 C   0  0  0  0  0  0  0  0  0  0  0  0
    0.0549    0.6336    1.6357 O   0  0  0  0  0  0  0  0  0  0  0  0
    0.3464    1.3024    0.3896 C   0  0  0  0  0  0  0  0  0  0  0  0
    1.5281    0.5499   -0.1824 C   0  0  0  0  0  0  0  0  0  0  0  0
    1.3103   -0.7476   -0.3655 C   0  0  0  0  0  0  0  0  0  0  0  0
   -0.0359   -1.2421    0.1101 C   0  0  0  0  0  0  0  0  0  0  0  0
   -1.1002   -0.4408   -0.6647 C   0  0  0  0  0  0  0  0  0  0  0  0
   -0.8068    1.0199   -0.5588 C   0  0  0  0  0  0  0  0  0  0  0  0
    0.5331    2.3617    0.5122 H   0  0  0  0  0  0  0  0  0  0  0  0
    2.4551    1.0510   -0.4117 H   0  0  0  0  0  0  0  0  0  0  0  0
    1.9959   -1.4370   -0.8088 H   0  0  0  0  0  0  0  0  0  0  0  0
   -0.1598   -2.3120    0.0068 H   0  0  0  0  0  0  0  0  0  0  0  0
   -1.2235   -0.8190   -1.6778 H   0  0  0  0  0  0  0  0  0  0  0  0
   -2.0575   -0.6488   -0.1080 H   0  0  0  0  0  0  0  0  0  0  0  0
   -0.4967    1.3726   -1.5771 H   0  0  0  0  0  0  0  0  0  0  0  0
   -1.7034    1.5946   -0.1995 H   0  0  0  0  0  0  0  0  0  0  0  0
  1  2  2  0
  2  3  1  0
  3  4  1  0
  4  5  1  0
  5  6  2  0
  6  7  1  0
  7  8  1  0
  8  9  1  0
  7  2  1  0
  9  4  1  0
  4 10  1  0
  5 11  1  0
  6 12  1  0
  7 13  1  0
  8 14  1  0
  8 15  1  0
  9 16  1  0
  9 17  1  0
M  END
