
     RDKit          3D

 13 13  0  0  0  0  0  0  0  0999 V2000
   -1.9178    1.9501   -0.1445 O   0  0  0  0  0  0  0  0  0  0  0  0
   -1.2964    0.8695   -0.1549 C   0  0  0  0  0  0  0  0  0  0  0  0
   -1.5503   -0.3678   -0.7137 O   0  0  0  0  0  0  0  0  0  0  0  0
   -0.9205   -0.9341    0.4328 C   0  0  0  0  0  0  0  0  0  0  0  0
   -0.0330    0.3164    0.3751 C   0  0  0  0  0  0  0  0  0  0  0  0
    1.0375    0.1476   -0.6840 C   0  0  0  0  0  0  0  0  0  0  0  0
    2.2065   -0.3682   -0.1735 O   0  0  0  0  0  0  0  0  0  0  0  0
   -0.3972   -1.8765    0.2735 H   0  0  0  0  0  0  0  0  0  0  0  0
   -1.6335   -0.8969    1.2771 H   0  0  0  0  0  0  0  0  0  0  0  0
    0.3016    0.6707    1.3475 H   0  0  0  0  0  0  0  0  0  0  0  0
    1.2487    1.1423   -1.1393 H   0  0  0  0  0  0  0  0  0  0  0  0
    0.6000   -0.5095   -1.4766 H   0  0  0  0  0  0  0  0  0  0  0  0
    2.3543   -0.1438    0.7805 H   0  0  0  0  0  0  0  0  0  0  0  0
  1  2  2  0
  2  3  1  0
  3  4  1  0
  4  5  1  0
  5  6  1  0
  6  7  1  0
  5  2  1  0
  4  8  1  0
  4  9  1  0
  5 10  1  0
  6 11  1  0
  6 12  1  0
  7 13  1  0
M  END
