
     RDKit          3D

 19 20  0  0  0  0  0  0  0  0999 V2000
   -0.6681    2.4279    0.2107 O   0  0  0  0  0  0  0  0  0  0  0  0
   -0.1016    1.3613    0.2793 C   0  0  0  0  0  0  0  0  0  0  0  0
    1.2843    1.1125    0.7413 C   0  0  0  0  0  0  0  0  0  0  0  0
    1.6362   -0.2865    0.2660 C   0  0  0  0  0  0  0  0  0  0  0  0
    0.5019   -0.7170   -0.6393 C   0  0  0  0  0  0  0  0  0  0  0  0
    0.7338   -0.3924   -1.9649 O   0  0  0  0  0  0  0  0  0  0  0  0
   -0.6646    0.0600   -0.0831 C   0  0  0  0  0  0  0  0  0  0  0  0
   -2.0340   -0.1199   -0.5535 C   0  0  0  0  0  0  0  0  0  0  0  0
   -1.6312   -0.6540    0.7874 C   0  0  0  0  0  0  0  0  0  0  0  0
    2.0086    1.8632    0.3810 H   0  0  0  0  0  0  0  0  0  0  0  0
    1.2762    1.1845    1.8449 H   0  0  0  0  0  0  0  0  0  0  0  0
    2.5685   -0.2959   -0.3222 H   0  0  0  0  0  0  0  0  0  0  0  0
    1.7051   -1.0134    1.0891 H   0  0  0  0  0  0  0  0  0  0  0  0
    0.2580   -1.7973   -0.5224 H   0  0  0  0  0  0  0  0  0  0  0  0
    1.5717   -0.8263   -2.2591 H   0  0  0  0  0  0  0  0  0  0  0  0
   -2.2367   -0.7819   -1.3943 H   0  0  0  0  0  0  0  0  0  0  0  0
   -2.7229    0.7744   -0.5100 H   0  0  0  0  0  0  0  0  0  0  0  0
   -1.4958   -1.7468    0.9301 H   0  0  0  0  0  0  0  0  0  0  0  0
   -1.9895   -0.1525    1.7193 H   0  0  0  0  0  0  0  0  0  0  0  0
  1  2  2  0
  2  3  1  0
  3  4  1  0
  4  5  1  0
  5  6  1  0
  5  7  1  0
  7  8  1  0
  8  9  1  0
  7  2  1  0
  9  7  1  0
  3 10  1  0
  3 11  1  0
  4 12  1  0
  4 13  1  0
  5 14  1  0
  6 15  1  0
  8 16  1  0
  8 17  1  0
  9 18  1  0
  9 19  1  0
M  END
