
     RDKit          3D

 17 19  0  0  0  0  0  0  0  0999 V2000
    2.2923   -1.8521   -0.6449 O   0  0  0  0  0  0  0  0  0  0  0  0
    1.2825   -1.2349   -0.3487 C   0  0  0  0  0  0  0  0  0  0  0  0
   -0.1724   -1.6000   -0.2730 C   0  0  0  0  0  0  0  0  0  0  0  0
   -0.4556   -0.1614    0.0479 C   0  0  0  0  0  0  0  0  0  0  0  0
   -1.5384    0.6089   -0.5046 C   0  0  0  0  0  0  0  0  0  0  0  0
   -1.4763    0.2770    0.9852 C   0  0  0  0  0  0  0  0  0  0  0  0
    0.9670    0.1587    0.0798 C   0  0  0  0  0  0  0  0  0  0  0  0
    1.7063    1.2600   -0.2290 C   0  0  0  0  0  0  0  0  0  0  0  0
    1.6039    0.7210    1.1505 O   0  0  0  0  0  0  0  0  0  0  0  0
   -0.5431   -1.9816   -1.2256 H   0  0  0  0  0  0  0  0  0  0  0  0
   -0.4176   -2.2337    0.6161 H   0  0  0  0  0  0  0  0  0  0  0  0
   -2.3922    0.1217   -1.0366 H   0  0  0  0  0  0  0  0  0  0  0  0
   -1.4297    1.6891   -0.7809 H   0  0  0  0  0  0  0  0  0  0  0  0
   -1.2971    1.1537    1.6496 H   0  0  0  0  0  0  0  0  0  0  0  0
   -2.1588   -0.4608    1.4020 H   0  0  0  0  0  0  0  0  0  0  0  0
    2.7520    1.2350   -0.5928 H   0  0  0  0  0  0  0  0  0  0  0  0
    1.2770    2.2994   -0.2949 H   0  0  0  0  0  0  0  0  0  0  0  0
  1  2  2  0
  2  3  1  0
  3  4  1  0
  4  5  1  0
  5  6  1  0
  4  7  1  0
  7  8  1  0
  8  9  1  0
  7  2  1  0
  6  4  1  0
  9  7  1  0
  3 10  1  0
  3 11  1  0
  5 12  1  0
  5 13  1  0
  6 14  1  0
  6 15  1  0
  8 16  1  0
  8 17  1  0
M  END
