
     RDKit          3D

 15 16  0  0  0  0  0  0  0  0999 V2000
    2.9703    0.8569   -0.0694 O   0  0  0  0  0  0  0  0  0  0  0  0
    1.8339    0.3962    0.0655 C   0  0  0  0  0  0  0  0  0  0  0  0
    1.4620   -1.0087    0.1968 C   0  0  0  0  0  0  0  0  0  0  0  0
    0.1990   -1.3549    0.3548 C   0  0  0  0  0  0  0  0  0  0  0  0
   -0.9167   -0.5130    0.4329 C   0  0  0  0  0  0  0  0  0  0  0  0
   -1.8039    0.5492    0.0568 C   0  0  0  0  0  0  0  0  0  0  0  0
   -0.5536    0.5033   -0.4491 C   0  0  0  0  0  0  0  0  0  0  0  0
    0.6348    1.2658    0.1172 C   0  0  0  0  0  0  0  0  0  0  0  0
    0.5842    2.4000    0.5356 O   0  0  0  0  0  0  0  0  0  0  0  0
    2.2688   -1.7707    0.1601 H   0  0  0  0  0  0  0  0  0  0  0  0
    0.1078   -2.4998    0.4145 H   0  0  0  0  0  0  0  0  0  0  0  0
   -1.5785   -1.0022    1.1478 H   0  0  0  0  0  0  0  0  0  0  0  0
   -2.0380    1.3185    0.8586 H   0  0  0  0  0  0  0  0  0  0  0  0
   -2.7284    0.4124   -0.5816 H   0  0  0  0  0  0  0  0  0  0  0  0
   -0.4417    0.4470   -1.5718 H   0  0  0  0  0  0  0  0  0  0  0  0
  1  2  2  0
  2  3  1  0
  3  4  2  0
  4  5  1  0
  5  6  1  0
  6  7  1  0
  7  8  1  0
  8  9  2  0
  8  2  1  0
  7  5  1  0
  3 10  1  0
  4 11  1  0
  5 12  1  0
  6 13  1  0
  6 14  1  0
  7 15  1  0
M  END
