
     RDKit          3D

 21 22  0  0  0  0  0  0  0  0999 V2000
    3.9350   -0.8579   -0.5900 O   0  0  0  0  0  0  0  0  0  0  0  0
    2.7620   -0.6370   -0.4393 C   0  0  0  0  0  0  0  0  0  0  0  0
    1.8126   -0.4586    0.7036 C   0  0  0  0  0  0  0  0  0  0  0  0
    0.8123    0.2447   -0.1913 C   0  0  0  0  0  0  0  0  0  0  0  0
   -0.5513   -0.3499   -0.1179 C   0  0  0  0  0  0  0  0  0  0  0  0
   -1.2067   -0.3367    1.2558 C   0  0  0  0  0  0  0  0  0  0  0  0
   -2.5287   -0.2270    0.4807 C   0  0  0  0  0  0  0  0  0  0  0  0
   -1.6961    0.5433   -0.5576 C   0  0  0  0  0  0  0  0  0  0  0  0
    1.5834   -0.4145   -1.3438 C   0  0  0  0  0  0  0  0  0  0  0  0
    1.4145   -1.3927    1.0985 H   0  0  0  0  0  0  0  0  0  0  0  0
    2.2398    0.1925    1.4893 H   0  0  0  0  0  0  0  0  0  0  0  0
    0.9036    1.3244   -0.2617 H   0  0  0  0  0  0  0  0  0  0  0  0
   -0.6711   -1.3511   -0.5711 H   0  0  0  0  0  0  0  0  0  0  0  0
   -0.9440    0.6029    1.7728 H   0  0  0  0  0  0  0  0  0  0  0  0
   -1.1011   -1.2622    1.8274 H   0  0  0  0  0  0  0  0  0  0  0  0
   -3.3001    0.3571    0.9733 H   0  0  0  0  0  0  0  0  0  0  0  0
   -2.7994   -1.2063    0.0577 H   0  0  0  0  0  0  0  0  0  0  0  0
   -2.0296    0.4234   -1.5892 H   0  0  0  0  0  0  0  0  0  0  0  0
   -1.6130    1.5957   -0.1812 H   0  0  0  0  0  0  0  0  0  0  0  0
    1.8191    0.2580   -2.1695 H   0  0  0  0  0  0  0  0  0  0  0  0
    1.1589   -1.4045   -1.6465 H   0  0  0  0  0  0  0  0  0  0  0  0
  1  2  2  0
  2  3  1  0
  3  4  1  0
  4  5  1  0
  5  6  1  0
  6  7  1  0
  7  8  1  0
  4  9  1  0
  9  2  1  0
  8  5  1  0
  3 10  1  0
  3 11  1  0
  4 12  1  0
  5 13  1  0
  6 14  1  0
  6 15  1  0
  7 16  1  0
  7 17  1  0
  8 18  1  0
  8 19  1  0
  9 20  1  0
  9 21  1  0
M  END
