
     RDKit          3D

 19 20  0  0  0  0  0  0  0  0999 V2000
   -2.6284    1.6601   -0.1077 O   0  0  0  0  0  0  0  0  0  0  0  0
   -1.5470    0.9797   -0.1653 C   0  0  0  0  0  0  0  0  0  0  0  0
   -0.3459    1.7892   -0.3983 C   0  0  0  0  0  0  0  0  0  0  0  0
    0.9254    1.4757   -0.1290 C   0  0  0  0  0  0  0  0  0  0  0  0
    1.3737    0.2393    0.4630 C   0  0  0  0  0  0  0  0  0  0  0  0
    2.0201   -0.9000   -0.0874 C   0  0  0  0  0  0  0  0  0  0  0  0
    0.6114   -0.8440   -0.3744 C   0  0  0  0  0  0  0  0  0  0  0  0
   -0.5339   -1.2316    0.4584 C   0  0  0  0  0  0  0  0  0  0  0  0
   -1.7498   -0.4511    0.0136 C   0  0  0  0  0  0  0  0  0  0  0  0
   -0.5315    2.7773   -0.8520 H   0  0  0  0  0  0  0  0  0  0  0  0
    1.6304    2.2539   -0.3998 H   0  0  0  0  0  0  0  0  0  0  0  0
    1.1772    0.2271    1.5776 H   0  0  0  0  0  0  0  0  0  0  0  0
    2.7425   -0.8391   -0.9412 H   0  0  0  0  0  0  0  0  0  0  0  0
    2.3528   -1.7116    0.6141 H   0  0  0  0  0  0  0  0  0  0  0  0
    0.3361   -0.5839   -1.4162 H   0  0  0  0  0  0  0  0  0  0  0  0
   -0.4080   -0.9933    1.5553 H   0  0  0  0  0  0  0  0  0  0  0  0
   -0.7868   -2.3041    0.4263 H   0  0  0  0  0  0  0  0  0  0  0  0
   -2.5745   -0.6373    0.7290 H   0  0  0  0  0  0  0  0  0  0  0  0
   -2.0637   -0.9064   -0.9659 H   0  0  0  0  0  0  0  0  0  0  0  0
  1  2  2  0
  2  3  1  0
  3  4  2  0
  4  5  1  0
  5  6  1  0
  6  7  1  0
  7  8  1  0
  8  9  1  0
  9  2  1  0
  7  5  1  0
  3 10  1  0
  4 11  1  0
  5 12  1  0
  6 13  1  0
  6 14  1  0
  7 15  1  0
  8 16  1  0
  8 17  1  0
  9 18  1  0
  9 19  1  0
M  END
