
     RDKit          3D

 19 20  0  0  0  0  0  0  0  0999 V2000
   -2.6957   -1.3583    0.0798 O   0  0  0  0  0  0  0  0  0  0  0  0
   -1.6738   -0.7124    0.1070 C   0  0  0  0  0  0  0  0  0  0  0  0
   -1.7591    0.7781   -0.0698 C   0  0  0  0  0  0  0  0  0  0  0  0
   -0.9308    1.3390    0.8694 O   0  0  0  0  0  0  0  0  0  0  0  0
    0.3921    1.3992    0.5641 C   0  0  0  0  0  0  0  0  0  0  0  0
    0.9069    0.5721   -0.5218 C   0  0  0  0  0  0  0  0  0  0  0  0
    1.9917   -0.4438   -0.1479 C   0  0  0  0  0  0  0  0  0  0  0  0
    0.6246   -0.8264   -0.6167 C   0  0  0  0  0  0  0  0  0  0  0  0
   -0.3737   -1.4355    0.3162 C   0  0  0  0  0  0  0  0  0  0  0  0
   -1.5178    1.0656   -1.1185 H   0  0  0  0  0  0  0  0  0  0  0  0
   -2.8108    1.0853    0.1843 H   0  0  0  0  0  0  0  0  0  0  0  0
    0.6191    2.4889    0.3585 H   0  0  0  0  0  0  0  0  0  0  0  0
    0.9604    1.2048    1.5224 H   0  0  0  0  0  0  0  0  0  0  0  0
    1.1756    1.1132   -1.4782 H   0  0  0  0  0  0  0  0  0  0  0  0
    2.8574   -0.5788   -0.7892 H   0  0  0  0  0  0  0  0  0  0  0  0
    2.1716   -0.6344    0.9287 H   0  0  0  0  0  0  0  0  0  0  0  0
    0.6216   -1.3026   -1.6313 H   0  0  0  0  0  0  0  0  0  0  0  0
   -0.0644   -1.2477    1.3607 H   0  0  0  0  0  0  0  0  0  0  0  0
   -0.4948   -2.5065    0.0824 H   0  0  0  0  0  0  0  0  0  0  0  0
  1  2  2  0
  2  3  1  0
  3  4  1  0
  4  5  1  0
  5  6  1  0
  6  7  1  0
  7  8  1  0
  8  9  1  0
  9  2  1  0
  8  6  1  0
  3 10  1  0
  3 11  1  0
  5 12  1  0
  5 13  1  0
  6 14  1  0
  7 15  1  0
  7 16  1  0
  8 17  1  0
  9 18  1  0
  9 19  1  0
M  END
