
     RDKit          3D

 17 18  0  0  0  0  0  0  0  0999 V2000
   -0.1772   -2.3949    0.5870 O   0  0  0  0  0  0  0  0  0  0  0  0
   -0.5040   -1.2483    0.4093 C   0  0  0  0  0  0  0  0  0  0  0  0
   -1.3487   -0.4266   -0.4977 C   0  0  0  0  0  0  0  0  0  0  0  0
   -2.6914   -0.5303   -0.0893 O   0  0  0  0  0  0  0  0  0  0  0  0
   -0.7135    0.8333   -0.0472 C   0  0  0  0  0  0  0  0  0  0  0  0
    0.6780    0.9550    0.3781 C   0  0  0  0  0  0  0  0  0  0  0  0
    1.7505    0.3955   -0.5372 C   0  0  0  0  0  0  0  0  0  0  0  0
    1.5921   -0.9735   -0.7516 O   0  0  0  0  0  0  0  0  0  0  0  0
   -0.1479    0.0023    1.1253 C   0  0  0  0  0  0  0  0  0  0  0  0
   -1.2658   -0.6978   -1.5575 H   0  0  0  0  0  0  0  0  0  0  0  0
   -2.9626    0.3225    0.3767 H   0  0  0  0  0  0  0  0  0  0  0  0
   -1.4147    1.6523    0.2062 H   0  0  0  0  0  0  0  0  0  0  0  0
    0.9680    1.9038    0.8704 H   0  0  0  0  0  0  0  0  0  0  0  0
    2.7652    0.5456   -0.1062 H   0  0  0  0  0  0  0  0  0  0  0  0
    1.6409    0.9511   -1.5091 H   0  0  0  0  0  0  0  0  0  0  0  0
    2.3854   -1.4931   -0.4359 H   0  0  0  0  0  0  0  0  0  0  0  0
   -0.5544    0.2031    2.1301 H   0  0  0  0  0  0  0  0  0  0  0  0
  1  2  2  0
  2  3  1  0
  3  4  1  0
  3  5  1  0
  5  6  1  0
  6  7  1  0
  7  8  1  0
  6  9  1  0
  9  2  1  0
  9  5  1  0
  3 10  1  0
  4 11  1  0
  5 12  1  0
  6 13  1  0
  7 14  1  0
  7 15  1  0
  8 16  1  0
  9 17  1  0
M  END
