
     RDKit          3D

 15 17  0  0  0  0  0  0  0  0999 V2000
    2.5658    0.8563    0.6915 O   0  0  0  0  0  0  0  0  0  0  0  0
    1.6129    0.2884    0.1966 C   0  0  0  0  0  0  0  0  0  0  0  0
    1.1805   -1.1232    0.1529 C   0  0  0  0  0  0  0  0  0  0  0  0
   -0.0509   -0.6962   -0.6076 C   0  0  0  0  0  0  0  0  0  0  0  0
   -1.3805   -0.6415    0.0576 C   0  0  0  0  0  0  0  0  0  0  0  0
   -1.7652    0.6700    0.1775 O   0  0  0  0  0  0  0  0  0  0  0  0
   -0.6611    1.4739    0.0770 C   0  0  0  0  0  0  0  0  0  0  0  0
    0.4342    0.6978   -0.5901 C   0  0  0  0  0  0  0  0  0  0  0  0
    0.1291    0.0194   -1.7668 O   0  0  0  0  0  0  0  0  0  0  0  0
    0.9572   -1.5955    1.1253 H   0  0  0  0  0  0  0  0  0  0  0  0
    1.7986   -1.7892   -0.4931 H   0  0  0  0  0  0  0  0  0  0  0  0
   -1.3959   -1.1951    0.9972 H   0  0  0  0  0  0  0  0  0  0  0  0
   -2.1251   -1.1348   -0.6329 H   0  0  0  0  0  0  0  0  0  0  0  0
   -0.3504    1.7769    1.0866 H   0  0  0  0  0  0  0  0  0  0  0  0
   -0.9494    2.3930   -0.4718 H   0  0  0  0  0  0  0  0  0  0  0  0
  1  2  2  0
  2  3  1  0
  3  4  1  0
  4  5  1  0
  5  6  1  0
  6  7  1  0
  7  8  1  0
  8  9  1  0
  8  2  1  0
  8  4  1  0
  9  4  1  0
  3 10  1  0
  3 11  1  0
  5 12  1  0
  5 13  1  0
  7 14  1  0
  7 15  1  0
M  END
